data_PCOD9464049
_publ_section_title
;
Structure prediction by ZEFSAII (Michael W. Deem and Ramdas Pophale) SiO2 
 PCOD9464049
Probable space group: P N M A
;
_chemical_formula_sum "Si O2"
_cell_formula_units_Z 64
_cell_length_a 15.504397
_cell_length_b 9.258279
_cell_length_c 23.409348
_cell_angle_alpha 90.000000
_cell_angle_beta 90.000000
_cell_angle_gamma 90.000000
_cell_volume 3360.272225
_symmetry_space_group_name_H-M "P N M A"
_symmetry_group_IT_number 62
_symmetry_cell_setting 'orthorhombic'
loop_
_space_group_symop_operation_xyz
x,y,z
1/2-x,-y,1/2+z
1/2+x,1/2-y,1/2-z
-x,1/2+y,-z
-x,-y,-z
1/2+x,y,1/2-z
1/2-x,1/2+y,1/2+z
x,1/2-y,z
loop_
_atom_site_type_symbol
_atom_site_label
_atom_site_fract_x
_atom_site_fract_y
_atom_site_fract_z
Si Si1 0.640234 0.078550 0.694668
Si Si2 0.454112 0.583042 0.098105
Si Si3 0.209603 0.920824 0.551201
Si Si4 0.478686 0.418870 0.772199
Si Si5 0.620479 0.919873 0.453758
Si Si6 0.146265 0.921313 0.424870
Si Si7 0.187905 0.422025 0.306861
Si Si8 0.926856 0.580806 0.069180
O O1 0.656052 0.250000 0.703468
O O2 0.552500 0.040898 0.727517
O O3 0.623894 0.055298 0.627398
O O4 0.721945 0.987304 0.714507
O O5 0.430951 0.750000 0.086486
O O6 0.375049 0.483297 0.081342
O O7 0.479418 0.569975 0.164690
O O8 0.544211 0.550961 0.065969
O O9 0.215252 0.750000 0.559182
O O10 0.196687 0.948724 0.483218
O O11 0.297214 0.997473 0.570645
O O12 0.455394 0.250000 0.763530
O O13 0.393292 0.514980 0.772115
O O14 0.638242 0.750000 0.455826
O O15 0.529373 0.941654 0.421675
O O16 0.602954 0.981569 0.517257
O O17 0.154844 0.750000 0.410109
O O18 0.175782 0.015350 0.371245
O O19 0.188158 0.250000 0.307060
O O20 0.915188 0.750000 0.052778
#
# Coordination Sequence:
#
# PCOD9464049 Si02
#       8
#     8   8   8   8   8   8   8   8
#     4  10  20  38  63  84 104 141 191 234 269 320
#     4   9  18  34  53  74 103 137 177 228 275 318
#     4  11  21  32  50  78 109 145 181 217 266 327
#     4   9  20  40  61  80 106 145 190 233 274 323
#     4  10  20  34  52  77 112 145 174 217 270 324
#     4   9  19  35  54  76 106 143 187 226 260 318
#     4  11  22  35  56  86 116 143 175 226 287 333
#     4   9  19  36  57  80 105 136 179 227 269 314
#
# _framework density 19.046075999999999
#
# number of rings (size 3 to 8) (size 9 to 14) (size 15 to 20)
#    0.000    2.250    0.000    3.750    0.000    7.500 
#    2.250    0.000    0.000    0.000    0.000    0.000 
#    0.000    0.000    0.000    0.000    0.000    0.000 
#
# Total GULP energy -357421.875115 kJ/mol
# GULP energy per Si atom -5584.716799 kJ/mol
# Density = 1.900273 g / cm^3
# Si number density = 19.046076 Si / 1000 Ang^3
#
#
#
# Elastic Constant Matrix: (Units=GPa)
#
#
# Indices 1 2 3 4 5 6 
#
# 1 132.2584 77.4005 17.8535 0.0000 0.0000 0.0000
# 2 77.4005 80.3022 17.7108 0.0000 0.0000 0.0000
# 3 17.8535 17.7108 12.0005 0.0000 0.0000 0.0000
# 4 0.0000 0.0000 0.0000 16.7176 0.0000 0.0000
# 5 0.0000 0.0000 0.0000 0.0000 18.8365 0.0000
# 6 0.0000 0.0000 0.0000 0.0000 0.0000 27.9558
#
#
#
# Elastic Compliance Matrix: (Units=1/GPa)
#
#
# Indices 1 2 3 4 5 6 
#
# 1 0.017367 -0.016369 -0.001679 0.000000 0.000000 0.000000
# 2 -0.016369 0.033891 -0.025665 0.000000 0.000000 0.000000
# 3 -0.001679 -0.025665 0.123705 0.000000 0.000000 0.000000
# 4 0.000000 0.000000 0.000000 0.059817 0.000000 0.000000
# 5 0.000000 0.000000 0.000000 0.000000 0.053088 0.000000
# 6 0.000000 0.000000 0.000000 0.000000 0.000000 0.035771
#
#
# Mechanical properties :
#
#
# Convention : Reuss Voigt Hill
#
# Bulk Modulus (GPa) = 11.42375 50.05452 30.73913
# Shear Modulus (GPa) = 11.35728 20.14174 15.74951
#
# Velocity S-wave (km/s) = 2.44459 3.25549 2.87874
# Velocity P-wave (km/s) = 3.73885 6.36151 5.21765
#
# Compressibility (1/GPa) = 0.08753694
#
# Stress axis : x y z
#
# Youngs Moduli (GPa) = 57.57909 29.50614 8.08373
#
# Poissons Ratio (x) = 0.48300 0.01358
# Poissons Ratio (y) = 0.94254 0.20747
# Poissons Ratio (z) = 0.09670 0.75726
#
# Static dielectric constant tensor:
#      x y z
#    x 1.682160 0.000000 0.000000 
#    y 0.000000 1.634000 0.000000 
#    z 0.000000 0.000000 1.653030 
# 
# From -- ./inp_files/29849.got.cif
#   From: 2010.05.17/outbox.cif.g08.bks.cpg/sg62_15_cif.got.tgz:29849.got - 2010.06.03 15:25:27.
