data_PCOD9464207
_publ_section_title
;
Structure prediction by ZEFSAII (Michael W. Deem and Ramdas Pophale) SiO2 
 PCOD9464207
Probable space group: P N M A
;
_chemical_formula_sum "Si O2"
_cell_formula_units_Z 56
_cell_length_a 21.447794
_cell_length_b 8.810754
_cell_length_c 14.937418
_cell_angle_alpha 90.000000
_cell_angle_beta 90.000000
_cell_angle_gamma 90.000000
_cell_volume 2822.742354
_symmetry_space_group_name_H-M "P N M A"
_symmetry_group_IT_number 62
_symmetry_cell_setting 'orthorhombic'
loop_
_space_group_symop_operation_xyz
x,y,z
1/2-x,-y,1/2+z
1/2+x,1/2-y,1/2-z
-x,1/2+y,-z
-x,-y,-z
1/2+x,y,1/2-z
1/2-x,1/2+y,1/2+z
x,1/2-y,z
loop_
_atom_site_type_symbol
_atom_site_label
_atom_site_fract_x
_atom_site_fract_y
_atom_site_fract_z
Si Si1 0.757799 0.934888 0.694003
Si Si2 0.524600 0.429414 0.770348
Si Si3 0.229193 0.429139 0.511446
Si Si4 0.151293 0.931384 0.663650
Si Si5 0.541846 0.927720 0.577700
Si Si6 0.866390 0.077345 0.930027
Si Si7 0.896102 0.928643 0.754435
O O1 0.756126 0.750000 0.697062
O O2 0.756259 0.980239 0.589754
O O3 0.700875 0.984773 0.758731
O O4 0.826958 0.982366 0.726656
O O5 0.524854 0.250000 0.779483
O O6 0.582775 0.500557 0.822661
O O7 0.537017 0.479198 0.667806
O O8 0.455416 0.492555 0.791085
O O9 0.212722 0.250000 0.507772
O O10 0.178255 0.519404 0.567596
O O11 0.292969 0.444048 0.567118
O O12 0.147735 0.750000 0.670450
O O13 0.527568 0.750000 0.593936
O O14 0.609566 0.935428 0.531446
O O15 0.500000 0.000000 0.500000
O O16 0.881958 0.250000 0.900885
O O17 0.898095 0.964435 0.860563
O O18 0.900168 0.750000 0.738404
#
# Coordination Sequence:
#
# PCOD9464207 Si02
#       7
#     8   8   8   8   8   8   8
#     4   9  20  39  64  91 122 159 201 250 308 363
#     4  12  25  40  57  85 122 163 205 253 309 367
#     4  10  20  38  62  89 120 157 198 248 305 364
#     4  11  22  41  64  91 123 160 203 254 307 364
#     4  11  21  34  54  84 119 158 196 241 298 364
#     4  10  20  34  56  84 120 157 191 238 301 364
#     4  11  21  37  61  87 117 158 204 250 299 359
#
# _framework density 19.838863
#
# number of rings (size 3 to 8) (size 9 to 14) (size 15 to 20)
#    0.000    1.429    2.857    3.429    0.000    2.857 
#    0.000    5.000    0.000    0.000    0.000    0.000 
#    0.000    0.000    0.000    0.000    0.000    0.000 
#
# Total GULP energy -312611.874127 kJ/mol
# GULP energy per Si atom -5582.354895 kJ/mol
# Density = 1.979371 g / cm^3
# Si number density = 19.838863 Si / 1000 Ang^3
#
#
#
# Elastic Constant Matrix: (Units=GPa)
#
#
# Indices 1 2 3 4 5 6 
#
# 1 92.7189 39.5739 9.3265 0.0000 0.0000 0.0000
# 2 39.5739 66.0071 5.2311 0.0000 0.0000 0.0000
# 3 9.3265 5.2311 47.1653 0.0000 0.0000 0.0000
# 4 0.0000 0.0000 0.0000 25.0904 0.0000 0.0000
# 5 0.0000 0.0000 0.0000 0.0000 31.9349 0.0000
# 6 0.0000 0.0000 0.0000 0.0000 0.0000 26.4436
#
#
#
# Elastic Compliance Matrix: (Units=1/GPa)
#
#
# Indices 1 2 3 4 5 6 
#
# 1 0.014669 -0.008640 -0.001942 0.000000 0.000000 0.000000
# 2 -0.008640 0.020374 -0.000551 0.000000 0.000000 0.000000
# 3 -0.001942 -0.000551 0.021647 0.000000 0.000000 0.000000
# 4 0.000000 0.000000 0.000000 0.039856 0.000000 0.000000
# 5 0.000000 0.000000 0.000000 0.000000 0.031314 0.000000
# 6 0.000000 0.000000 0.000000 0.000000 0.000000 0.037816
#
#
# Mechanical properties :
#
#
# Convention : Reuss Voigt Hill
#
# Bulk Modulus (GPa) = 29.05116 34.90602 31.97859
# Shear Modulus (GPa) = 25.07307 26.81109 25.94208
#
# Velocity S-wave (km/s) = 3.55890 3.68019 3.62005
# Velocity P-wave (km/s) = 5.61810 5.97422 5.79890
#
# Compressibility (1/GPa) = 0.03442204
#
# Stress axis : x y z
#
# Youngs Moduli (GPa) = 68.17313 49.08249 46.19529
#
# Poissons Ratio (x) = 0.42410 0.08972
# Poissons Ratio (y) = 0.58905 0.02546
# Poissons Ratio (z) = 0.13241 0.02705
#
# Static dielectric constant tensor:
#      x y z
#    x 1.760300 0.000000 0.000000 
#    y 0.000000 1.678450 0.000000 
#    z 0.000000 0.000000 1.769510 
# 
# From -- ./inp_files/20430.got.cif
#   From: 2010.05.17/outbox.cif.g08.bks.cpg/sg62_11_cif.got.tgz:20430.got - 2010.06.03 15:25:27.
