data_PCOD9464463
_publ_section_title
;
Structure prediction by ZEFSAII (Michael W. Deem and Ramdas Pophale) SiO2 
 PCOD9464463
Probable space group: P N M A
;
_chemical_formula_sum "Si O2"
_cell_formula_units_Z 56
_cell_length_a 21.035420
_cell_length_b 8.797649
_cell_length_c 15.668431
_cell_angle_alpha 90.000000
_cell_angle_beta 90.000000
_cell_angle_gamma 90.000000
_cell_volume 2899.634965
_symmetry_space_group_name_H-M "P N M A"
_symmetry_group_IT_number 62
_symmetry_cell_setting 'orthorhombic'
loop_
_space_group_symop_operation_xyz
x,y,z
1/2-x,-y,1/2+z
1/2+x,1/2-y,1/2-z
-x,1/2+y,-z
-x,-y,-z
1/2+x,y,1/2-z
1/2-x,1/2+y,1/2+z
x,1/2-y,z
loop_
_atom_site_type_symbol
_atom_site_label
_atom_site_fract_x
_atom_site_fract_y
_atom_site_fract_z
Si Si1 0.673748 0.430871 0.723871
Si Si2 0.034140 0.570781 0.758605
Si Si3 0.015018 0.579107 0.412854
Si Si4 0.898310 0.572450 0.805819
Si Si5 0.738741 0.428247 0.378277
Si Si6 0.847460 0.416067 0.643359
Si Si7 0.761217 0.424655 0.062992
O O1 0.677436 0.250000 0.731796
O O2 0.600794 0.484821 0.732689
O O3 0.721448 0.500878 0.797656
O O4 0.693412 0.485380 0.628586
O O5 0.047230 0.750000 0.763032
O O6 0.007139 0.522207 0.666388
O O7 0.973304 0.538750 0.821718
O O8 0.988377 0.750000 0.404075
O O9 0.000000 0.500000 0.500000
O O10 0.090761 0.591517 0.413622
O O11 0.898362 0.750000 0.775738
O O12 0.838559 0.563183 0.869614
O O13 0.875112 0.453127 0.735523
O O14 0.755886 0.250000 0.380900
O O15 0.750927 0.506558 0.469362
O O16 0.814910 0.250000 0.641638
O O17 0.804592 0.553430 0.613302
O O18 0.780807 0.250000 0.056354
#
# Coordination Sequence:
#
# PCOD9464463 Si02
#       7
#     8   8   8   8   8   8   8
#     4  12  25  43  65  94 128 166 209 262 317 375
#     4  10  21  39  62  88 120 161 205 256 316 377
#     4  10  21  35  53  82 119 159 204 251 305 372
#     4   9  19  38  64  90 119 159 205 250 307 371
#     4  11  23  41  66  95 126 163 208 260 315 378
#     4  10  20  35  57  83 117 158 200 248 302 362
#     4  12  25  41  62  91 125 165 210 259 313 373
#
# _framework density 19.312774999999998
#
# number of rings (size 3 to 8) (size 9 to 14) (size 15 to 20)
#    0.000    1.429    1.429    4.286    2.000    2.857 
#    0.000    0.714    0.000    0.000    0.000    0.000 
#    0.000    0.000    0.000    0.000    0.000    0.000 
#
# Total GULP energy -311817.372263 kJ/mol
# GULP energy per Si atom -5568.167362 kJ/mol
# Density = 1.926882 g / cm^3
# Si number density = 19.312775 Si / 1000 Ang^3
#
#
#
# Elastic Constant Matrix: (Units=GPa)
#
#
# Indices 1 2 3 4 5 6 
#
# 1 107.5439 35.2842 15.1630 0.0000 0.0000 0.0000
# 2 35.2842 101.9159 18.1780 0.0000 0.0000 0.0000
# 3 15.1630 18.1780 23.1075 0.0000 0.0000 0.0000
# 4 0.0000 0.0000 0.0000 16.7206 0.0000 0.0000
# 5 0.0000 0.0000 0.0000 0.0000 12.9677 0.0000
# 6 0.0000 0.0000 0.0000 0.0000 0.0000 24.1096
#
#
#
# Elastic Compliance Matrix: (Units=1/GPa)
#
#
# Indices 1 2 3 4 5 6 
#
# 1 0.010945 -0.002918 -0.004887 0.000000 0.000000 0.000000
# 2 -0.002918 0.012191 -0.007676 0.000000 0.000000 0.000000
# 3 -0.004887 -0.007676 0.052521 0.000000 0.000000 0.000000
# 4 0.000000 0.000000 0.000000 0.059806 0.000000 0.000000
# 5 0.000000 0.000000 0.000000 0.000000 0.077115 0.000000
# 6 0.000000 0.000000 0.000000 0.000000 0.000000 0.041477
#
#
# Mechanical properties :
#
#
# Convention : Reuss Voigt Hill
#
# Bulk Modulus (GPa) = 22.37313 41.09087 31.73200
# Shear Modulus (GPa) = 16.67142 21.68906 19.18024
#
# Velocity S-wave (km/s) = 2.94127 3.35482 3.15483
# Velocity P-wave (km/s) = 4.81088 6.02736 5.45315
#
# Compressibility (1/GPa) = 0.04469648
#
# Stress axis : x y z
#
# Youngs Moduli (GPa) = 91.36791 82.02638 19.04000
#
# Poissons Ratio (x) = 0.23932 0.09304
# Poissons Ratio (y) = 0.26657 0.14615
# Poissons Ratio (z) = 0.44649 0.62963
#
# Static dielectric constant tensor:
#      x y z
#    x 1.725410 0.000000 0.000000 
#    y 0.000000 1.708440 0.000000 
#    z 0.000000 0.000000 1.651580 
# 
# From -- ./inp_files/20271.got.cif
#   From: 2010.05.17/outbox.cif.g08.bks.cpg/sg62_11_cif.got.tgz:20271.got - 2010.06.03 15:25:27.
