data_PCOD9464371
_publ_section_title
;
Structure prediction by ZEFSAII (Michael W. Deem and Ramdas Pophale) SiO2 
 PCOD9464371
Probable space group: P N M A
;
_chemical_formula_sum "Si O2"
_cell_formula_units_Z 56
_cell_length_a 14.178219
_cell_length_b 13.820882
_cell_length_c 16.661576
_cell_angle_alpha 90.000000
_cell_angle_beta 90.000000
_cell_angle_gamma 90.000000
_cell_volume 3264.927319
_symmetry_space_group_name_H-M "P N M A"
_symmetry_group_IT_number 62
_symmetry_cell_setting 'orthorhombic'
loop_
_space_group_symop_operation_xyz
x,y,z
1/2-x,-y,1/2+z
1/2+x,1/2-y,1/2-z
-x,1/2+y,-z
-x,-y,-z
1/2+x,y,1/2-z
1/2-x,1/2+y,1/2+z
x,1/2-y,z
loop_
_atom_site_type_symbol
_atom_site_label
_atom_site_fract_x
_atom_site_fract_y
_atom_site_fract_z
Si Si1 0.235928 0.544835 0.740807
Si Si2 0.615597 0.637798 0.620787
Si Si3 0.125853 0.516746 0.578951
Si Si4 0.319517 0.526359 0.490445
Si Si5 0.599835 0.136076 0.357196
Si Si6 0.271256 0.362809 0.845420
Si Si7 0.035457 0.862262 0.441801
O O1 0.192459 0.605436 0.813897
O O2 0.163733 0.546123 0.666104
O O3 0.333601 0.590101 0.710217
O O4 0.252890 0.435960 0.772496
O O5 0.626864 0.750000 0.598495
O O6 0.627199 0.565234 0.546349
O O7 0.511222 0.625400 0.657438
O O8 0.219693 0.492335 0.527861
O O9 0.074714 0.601192 0.527981
O O10 0.052164 0.429206 0.581723
O O11 0.374432 0.581673 0.560284
O O12 0.294994 0.600121 0.418236
O O13 0.621593 0.250000 0.364993
O O14 0.255128 0.250000 0.827407
O O15 0.377854 0.373833 0.879367
O O16 0.010065 0.750000 0.445275
#
# Coordination Sequence:
#
# PCOD9464371 Si02
#       7
#     8   8   8   8   8   8   8
#     4  10  21  34  54  77 112 139 174 221 263 316
#     4  10  21  35  53  79 109 140 173 218 269 317
#     4   9  19  33  52  78 102 136 175 215 264 307
#     4   9  18  35  55  76 103 137 175 224 261 312
#     4  10  20  35  56  78 102 140 182 216 264 318
#     4   9  18  33  53  75 103 141 178 216 262 312
#     4   9  18  33  53  75 103 137 178 218 255 309
#
# _framework density 17.151989
#
# number of rings (size 3 to 8) (size 9 to 14) (size 15 to 20)
#    0.000    2.571    0.000    1.286    2.000    5.143 
#    0.000    2.143    0.000    0.857    0.000    0.000 
#    0.000    0.000    0.000    0.000    0.000    0.000 
#
# Total GULP energy -312259.497369 kJ/mol
# GULP energy per Si atom -5576.062453 kJ/mol
# Density = 1.711295 g / cm^3
# Si number density = 17.151989 Si / 1000 Ang^3
#
#
#
# Elastic Constant Matrix: (Units=GPa)
#
#
# Indices 1 2 3 4 5 6 
#
# 1 44.6753 36.2437 4.7059 0.0000 0.0000 0.0000
# 2 36.2437 95.1630 18.2015 0.0000 0.0000 0.0000
# 3 4.7059 18.2015 48.8949 0.0000 0.0000 0.0000
# 4 0.0000 0.0000 0.0000 17.2479 0.0000 0.0000
# 5 0.0000 0.0000 0.0000 0.0000 12.6125 0.0000
# 6 0.0000 0.0000 0.0000 0.0000 0.0000 24.4014
#
#
#
# Elastic Compliance Matrix: (Units=1/GPa)
#
#
# Indices 1 2 3 4 5 6 
#
# 1 0.032507 -0.012685 0.001594 0.000000 0.000000 0.000000
# 2 -0.012685 0.016264 -0.004834 0.000000 0.000000 0.000000
# 3 0.001594 -0.004834 0.022098 0.000000 0.000000 0.000000
# 4 0.000000 0.000000 0.000000 0.057978 0.000000 0.000000
# 5 0.000000 0.000000 0.000000 0.000000 0.079287 0.000000
# 6 0.000000 0.000000 0.000000 0.000000 0.000000 0.040981
#
#
# Mechanical properties :
#
#
# Convention : Reuss Voigt Hill
#
# Bulk Modulus (GPa) = 25.62887 34.11503 29.87195
# Shear Modulus (GPa) = 17.00843 19.49118 18.24980
#
# Velocity S-wave (km/s) = 3.15243 3.37468 3.26545
# Velocity P-wave (km/s) = 5.31273 5.92601 5.62773
#
# Compressibility (1/GPa) = 0.03901850
#
# Stress axis : x y z
#
# Youngs Moduli (GPa) = 30.76249 61.48499 45.25306
#
# Poissons Ratio (x) = 0.77996 -0.07211
# Poissons Ratio (y) = 0.39024 0.21873
# Poissons Ratio (z) = -0.04902 0.29719
#
# Static dielectric constant tensor:
#      x y z
#    x 1.575630 0.000000 0.000000 
#    y 0.000000 1.553920 0.000000 
#    z 0.000000 0.000000 1.569650 
# 
# From -- ./inp_files/19022.got.cif
#   From: 2010.05.17/outbox.cif.g08.bks.cpg/sg62_10_cif.got.tgz:19022.got - 2010.06.03 15:25:27.
