data_PCOD9464715
_publ_section_title
;
Structure prediction by ZEFSAII (Michael W. Deem and Ramdas Pophale) SiO2 
 PCOD9464715
Probable space group: P N M A
;
_chemical_formula_sum "Si O2"
_cell_formula_units_Z 64
_cell_length_a 24.307805
_cell_length_b 9.561397
_cell_length_c 13.957783
_cell_angle_alpha 90.000000
_cell_angle_beta 90.000000
_cell_angle_gamma 90.000000
_cell_volume 3244.020103
_symmetry_space_group_name_H-M "P N M A"
_symmetry_group_IT_number 62
_symmetry_cell_setting 'orthorhombic'
loop_
_space_group_symop_operation_xyz
x,y,z
1/2-x,-y,1/2+z
1/2+x,1/2-y,1/2-z
-x,1/2+y,-z
-x,-y,-z
1/2+x,y,1/2-z
1/2-x,1/2+y,1/2+z
x,1/2-y,z
loop_
_atom_site_type_symbol
_atom_site_label
_atom_site_fract_x
_atom_site_fract_y
_atom_site_fract_z
Si Si1 0.227765 0.917273 0.227183
Si Si2 0.754679 0.910503 0.947395
Si Si3 0.337652 0.080569 0.918755
Si Si4 0.958771 0.088581 0.279907
Si Si5 0.032678 0.580334 0.415705
Si Si6 0.861360 0.898841 0.053971
Si Si7 0.545648 0.906889 0.548527
Si Si8 0.642195 0.406057 0.778589
O O1 0.220910 0.750000 0.217653
O O2 0.193619 0.962822 0.320728
O O3 0.293647 0.945286 0.226657
O O4 0.213098 0.002245 0.132201
O O5 0.746499 0.750000 0.914449
O O6 0.697648 0.970193 0.989390
O O7 0.796604 0.907699 0.036639
O O8 0.332969 0.250000 0.921878
O O9 0.402104 0.047626 0.920390
O O10 0.964049 0.250000 0.313123
O O11 0.959795 0.091183 0.164204
O O12 0.900666 0.021521 0.315043
O O13 0.005823 0.987293 0.320739
O O14 0.025955 0.750000 0.419250
O O15 0.000000 0.500000 0.500000
O O16 0.879618 0.750000 0.009987
O O17 0.872483 0.892103 0.166498
O O18 0.895771 0.029101 0.018994
O O19 0.540254 0.750000 0.514823
O O20 0.500000 0.000000 0.500000
O O21 0.636000 0.250000 0.822490
#
# Coordination Sequence:
#
# PCOD9464715 Si02
#       8
#     8   8   8   8   8   8   8   8
#     4  10  20  36  59  88 117 151 194 241 295 358
#     4  10  20  36  58  86 117 155 195 237 299 363
#     4   9  20  41  63  84 120 163 199 240 297 361
#     4  10  22  39  58  83 116 153 196 250 301 357
#     4  11  24  42  64  89 120 165 212 256 304 355
#     4   9  17  33  56  79 110 150 189 233 289 354
#     4  10  21  36  57  85 117 154 196 244 299 357
#     4   9  17  33  58  83 109 143 188 240 293 354
#
# _framework density 19.728608000000001
#
# number of rings (size 3 to 8) (size 9 to 14) (size 15 to 20)
#    0.000    2.250    1.250    1.125    1.750    3.500 
#    0.000    5.000    0.000    0.000    0.000    0.000 
#    0.000    0.000    0.000    0.000    0.000    0.000 
#
# Total GULP energy -356526.773309 kJ/mol
# GULP energy per Si atom -5570.730833 kJ/mol
# Density = 1.968371 g / cm^3
# Si number density = 19.728608 Si / 1000 Ang^3
#
#
#
# Elastic Constant Matrix: (Units=GPa)
#
#
# Indices 1 2 3 4 5 6 
#
# 1 106.9106 51.9485 25.8526 0.0000 0.0000 0.0000
# 2 51.9485 87.8981 22.1176 0.0000 0.0000 0.0000
# 3 25.8526 22.1176 52.7563 0.0000 0.0000 0.0000
# 4 0.0000 0.0000 0.0000 23.8156 0.0000 0.0000
# 5 0.0000 0.0000 0.0000 0.0000 27.4611 0.0000
# 6 0.0000 0.0000 0.0000 0.0000 0.0000 26.1300
#
#
#
# Elastic Compliance Matrix: (Units=1/GPa)
#
#
# Indices 1 2 3 4 5 6 
#
# 1 0.013746 -0.007187 -0.003723 0.000000 0.000000 0.000000
# 2 -0.007187 0.016476 -0.003386 0.000000 0.000000 0.000000
# 3 -0.003723 -0.003386 0.022199 0.000000 0.000000 0.000000
# 4 0.000000 0.000000 0.000000 0.041989 0.000000 0.000000
# 5 0.000000 0.000000 0.000000 0.000000 0.036415 0.000000
# 6 0.000000 0.000000 0.000000 0.000000 0.000000 0.038270
#
#
# Mechanical properties :
#
#
# Convention : Reuss Voigt Hill
#
# Bulk Modulus (GPa) = 41.96415 49.71139 45.83777
# Shear Modulus (GPa) = 24.31539 25.32443 24.81991
#
# Velocity S-wave (km/s) = 3.51450 3.58668 3.55077
# Velocity P-wave (km/s) = 6.14702 6.51189 6.33208
#
# Compressibility (1/GPa) = 0.02382987
#
# Stress axis : x y z
#
# Youngs Moduli (GPa) = 72.74712 60.69257 45.04744
#
# Poissons Ratio (x) = 0.43622 0.16771
# Poissons Ratio (y) = 0.52286 0.15251
# Poissons Ratio (z) = 0.27084 0.20548
#
# Static dielectric constant tensor:
#      x y z
#    x 1.717450 0.000000 0.000000 
#    y 0.000000 1.703130 0.000000 
#    z 0.000000 0.000000 1.754220 
# 
# From -- ./inp_files/20921.got.cif
#   From: 2010.05.17/outbox.cif.g08.bks.cpg/sg62_11_cif.got.tgz:20921.got - 2010.06.03 15:25:27.
