data_PCOD9464258
_publ_section_title
;
Structure prediction by ZEFSAII (Michael W. Deem and Ramdas Pophale) SiO2 
 PCOD9464258
Probable space group: P N M A
;
_chemical_formula_sum "Si O2"
_cell_formula_units_Z 48
_cell_length_a 12.529209
_cell_length_b 21.947263
_cell_length_c 9.249050
_cell_angle_alpha 90.000000
_cell_angle_beta 90.000000
_cell_angle_gamma 90.000000
_cell_volume 2543.320834
_symmetry_space_group_name_H-M "P N M A"
_symmetry_group_IT_number 62
_symmetry_cell_setting 'orthorhombic'
loop_
_space_group_symop_operation_xyz
x,y,z
1/2-x,-y,1/2+z
1/2+x,1/2-y,1/2-z
-x,1/2+y,-z
-x,-y,-z
1/2+x,y,1/2-z
1/2-x,1/2+y,1/2+z
x,1/2-y,z
loop_
_atom_site_type_symbol
_atom_site_label
_atom_site_fract_x
_atom_site_fract_y
_atom_site_fract_z
Si Si1 0.783548 0.531466 0.994384
Si Si2 0.904706 0.613737 0.783631
Si Si3 0.121539 0.402542 0.761106
Si Si4 0.942800 0.024386 0.357777
Si Si5 0.980900 0.178700 0.968781
Si Si6 0.257317 0.110671 0.472586
O O1 0.874063 0.557917 0.890643
O O2 0.677382 0.537123 0.901507
O O3 0.783456 0.576290 0.131597
O O4 0.790312 0.460829 0.037832
O O5 0.808335 0.627555 0.672838
O O6 0.001118 0.585186 0.693558
O O7 0.946867 0.666326 0.888335
O O8 0.056477 0.465997 0.746839
O O9 0.174747 0.385019 0.608423
O O10 0.045475 0.353700 0.837687
O O11 0.000000 0.000000 0.500000
O O12 0.968712 0.250000 0.941892
O O13 0.864928 0.148256 0.996695
#
# Coordination Sequence:
#
# PCOD9464258 Si02
#       6
#     8   8   8   8   8   8
#     4  10  20  34  58  96 127 150 179 231 306 367
#     4  11  21  38  59  90 123 155 192 236 296 355
#     4  10  22  37  62  89 123 152 190 240 299 354
#     4  11  20  32  61  93 124 144 176 234 300 370
#     4  11  26  43  58  80 116 162 212 250 279 327
#     4  11  21  37  64  89 118 153 193 239 301 357
#
# _framework density 18.872962999999999
#
# number of rings (size 3 to 8) (size 9 to 14) (size 15 to 20)
#    0.000    1.333    3.333    5.000    2.333    4.000 
#    0.000    0.000    0.000    0.000    0.000    0.000 
#    0.000    0.000    0.000    0.000    0.000    0.000 
#
# Total GULP energy -267822.903372 kJ/mol
# GULP energy per Si atom -5579.643820 kJ/mol
# Density = 1.883001 g / cm^3
# Si number density = 18.872963 Si / 1000 Ang^3
#
#
#
# Elastic Constant Matrix: (Units=GPa)
#
#
# Indices 1 2 3 4 5 6 
#
# 1 68.4309 47.9761 22.3535 0.0000 0.0000 0.0000
# 2 47.9761 59.9086 21.2955 0.0000 0.0000 0.0000
# 3 22.3535 21.2955 89.5737 0.0000 0.0000 0.0000
# 4 0.0000 0.0000 0.0000 14.5631 0.0000 0.0000
# 5 0.0000 0.0000 0.0000 0.0000 26.7380 0.0000
# 6 0.0000 0.0000 0.0000 0.0000 0.0000 12.1228
#
#
#
# Elastic Compliance Matrix: (Units=1/GPa)
#
#
# Indices 1 2 3 4 5 6 
#
# 1 0.033706 -0.026218 -0.002178 0.000000 0.000000 0.000000
# 2 -0.026218 0.038627 -0.002640 0.000000 0.000000 0.000000
# 3 -0.002178 -0.002640 0.012335 0.000000 0.000000 0.000000
# 4 0.000000 0.000000 0.000000 0.068667 0.000000 0.000000
# 5 0.000000 0.000000 0.000000 0.000000 0.037400 0.000000
# 6 0.000000 0.000000 0.000000 0.000000 0.000000 0.082489
#
#
# Mechanical properties :
#
#
# Convention : Reuss Voigt Hill
#
# Bulk Modulus (GPa) = 44.25881 44.57373 44.41627
# Shear Modulus (GPa) = 14.58449 19.10397 16.84423
#
# Velocity S-wave (km/s) = 2.78289 3.18502 2.99072
# Velocity P-wave (km/s) = 5.81617 6.09876 5.95914
#
# Compressibility (1/GPa) = 0.02259437
#
# Stress axis : x y z
#
# Youngs Moduli (GPa) = 29.66811 25.88870 81.06801
#
# Poissons Ratio (x) = 0.67876 0.17659
# Poissons Ratio (y) = 0.77785 0.21405
# Poissons Ratio (z) = 0.06463 0.06836
#
# Static dielectric constant tensor:
#      x y z
#    x 1.679860 0.000000 0.000000 
#    y 0.000000 1.614150 0.000000 
#    z 0.000000 0.000000 1.727620 
# 
# From -- ./inp_files/5278.got.cif
#   From: 2010.05.17/outbox.cif.g08.bks.cpg/sg62_3_cif.got.tgz:5278.got - 2010.06.03 15:25:27.
