data_PCOD9464248
_publ_section_title
;
Structure prediction by ZEFSAII (Michael W. Deem and Ramdas Pophale) SiO2 
 PCOD9464248
Probable space group: P N M A
;
_chemical_formula_sum "Si O2"
_cell_formula_units_Z 64
_cell_length_a 19.369003
_cell_length_b 17.250301
_cell_length_c 10.059209
_cell_angle_alpha 90.000000
_cell_angle_beta 90.000000
_cell_angle_gamma 90.000000
_cell_volume 3360.994296
_symmetry_space_group_name_H-M "P N M A"
_symmetry_group_IT_number 62
_symmetry_cell_setting 'orthorhombic'
loop_
_space_group_symop_operation_xyz
x,y,z
1/2-x,-y,1/2+z
1/2+x,1/2-y,1/2-z
-x,1/2+y,-z
-x,-y,-z
1/2+x,y,1/2-z
1/2-x,1/2+y,1/2+z
x,1/2-y,z
loop_
_atom_site_type_symbol
_atom_site_label
_atom_site_fract_x
_atom_site_fract_y
_atom_site_fract_z
Si Si1 0.409013 0.930450 0.502269
Si Si2 0.739584 0.340136 0.220062
Si Si3 0.941133 0.392802 0.941060
Si Si4 0.230836 0.341075 0.960867
Si Si5 0.622447 0.888865 0.164503
Si Si6 0.113241 0.837809 0.803192
Si Si7 0.477828 0.341356 0.066208
Si Si8 0.602170 0.427146 0.183836
O O1 0.476885 0.904028 0.421303
O O2 0.338724 0.892756 0.445894
O O3 0.416867 0.909236 0.660401
O O4 0.411929 0.023749 0.508979
O O5 0.728393 0.250000 0.185310
O O6 0.745038 0.345747 0.380384
O O7 0.812014 0.371474 0.166795
O O8 0.676443 0.388941 0.167107
O O9 0.898221 0.365622 0.814134
O O10 0.931140 0.337458 0.065345
O O11 0.217863 0.250000 0.929963
O O12 0.299710 0.368419 0.882472
O O13 0.609238 0.981294 0.163405
O O14 0.566746 0.850938 0.065925
O O15 0.128318 0.750000 0.757728
O O16 0.071401 0.874232 0.683418
O O17 0.492484 0.250000 0.089101
O O18 0.547553 0.389452 0.083842
#
# Coordination Sequence:
#
# PCOD9464248 Si02
#       8
#     8   8   8   8   8   8   8   8
#     4   9  20  38  61  85 117 155 196 247 299 354
#     4   9  18  35  58  85 113 147 192 246 292 335
#     4  10  21  39  59  87 122 152 195 247 300 355
#     4  10  20  37  59  85 116 155 202 242 288 360
#     4  11  23  37  57  90 123 158 192 238 308 360
#     4  10  20  34  58  85 111 151 198 240 285 342
#     4  11  21  38  60  85 118 154 196 244 293 352
#     4  10  20  36  59  90 115 149 202 249 291 350
#
# _framework density 19.041985
#
# number of rings (size 3 to 8) (size 9 to 14) (size 15 to 20)
#    0.000    2.000    2.500    1.125    1.750    2.000 
#    0.000    1.250    0.000    0.000    0.000    0.000 
#    0.000    0.000    0.000    0.000    0.000    0.000 
#
# Total GULP energy -356734.963751 kJ/mol
# GULP energy per Si atom -5573.983809 kJ/mol
# Density = 1.899864 g / cm^3
# Si number density = 19.041985 Si / 1000 Ang^3
#
#
#
# Elastic Constant Matrix: (Units=GPa)
#
#
# Indices 1 2 3 4 5 6 
#
# 1 121.5181 30.7540 19.7927 0.0000 0.0000 0.0000
# 2 30.7540 44.3891 6.4824 0.0000 0.0000 0.0000
# 3 19.7927 6.4824 39.4658 0.0000 0.0000 0.0000
# 4 0.0000 0.0000 0.0000 19.0851 0.0000 0.0000
# 5 0.0000 0.0000 0.0000 0.0000 26.6521 0.0000
# 6 0.0000 0.0000 0.0000 0.0000 0.0000 30.2681
#
#
#
# Elastic Compliance Matrix: (Units=1/GPa)
#
#
# Indices 1 2 3 4 5 6 
#
# 1 0.010623 -0.006744 -0.004220 0.000000 0.000000 0.000000
# 2 -0.006744 0.027363 -0.001112 0.000000 0.000000 0.000000
# 3 -0.004220 -0.001112 0.027638 0.000000 0.000000 0.000000
# 4 0.000000 0.000000 0.000000 0.052397 0.000000 0.000000
# 5 0.000000 0.000000 0.000000 0.000000 0.037520 0.000000
# 6 0.000000 0.000000 0.000000 0.000000 0.000000 0.033038
#
#
# Mechanical properties :
#
#
# Convention : Reuss Voigt Hill
#
# Bulk Modulus (GPa) = 24.11310 35.49236 29.80273
# Shear Modulus (GPa) = 22.06967 25.09067 23.58017
#
# Velocity S-wave (km/s) = 3.40810 3.63388 3.52280
# Velocity P-wave (km/s) = 5.30825 6.02381 5.67731
#
# Compressibility (1/GPa) = 0.04147124
#
# Stress axis : x y z
#
# Youngs Moduli (GPa) = 94.13251 36.54591 36.18267
#
# Poissons Ratio (x) = 0.24646 0.15269
# Poissons Ratio (y) = 0.63482 0.04025
# Poissons Ratio (z) = 0.39724 0.04065
#
# Static dielectric constant tensor:
#      x y z
#    x 1.690700 0.000000 0.000000 
#    y 0.000000 1.691350 0.000000 
#    z 0.000000 0.000000 1.650720 
# 
# From -- ./inp_files/14420.got.cif
#   From: 2010.05.17/outbox.cif.g08.bks.cpg/sg62_8_cif.got.tgz:14420.got - 2010.06.03 15:25:27.
