data_PCOD9464166
_publ_section_title
;
Structure prediction by ZEFSAII (Michael W. Deem and Ramdas Pophale) SiO2 
 PCOD9464166
Probable space group: P N M A
;
_chemical_formula_sum "Si O2"
_cell_formula_units_Z 40
_cell_length_a 24.383730
_cell_length_b 7.681702
_cell_length_c 8.093203
_cell_angle_alpha 90.000000
_cell_angle_beta 90.000000
_cell_angle_gamma 90.000000
_cell_volume 1515.926099
_symmetry_space_group_name_H-M "P N M A"
_symmetry_group_IT_number 62
_symmetry_cell_setting 'orthorhombic'
loop_
_space_group_symop_operation_xyz
x,y,z
1/2-x,-y,1/2+z
1/2+x,1/2-y,1/2-z
-x,1/2+y,-z
-x,-y,-z
1/2+x,y,1/2-z
1/2-x,1/2+y,1/2+z
x,1/2-y,z
loop_
_atom_site_type_symbol
_atom_site_label
_atom_site_fract_x
_atom_site_fract_y
_atom_site_fract_z
Si Si1 0.964546 0.456281 0.339198
Si Si2 0.864519 0.545696 0.158862
Si Si3 0.733150 0.547213 0.456716
Si Si4 0.834798 0.951338 0.639182
Si Si5 0.566444 0.463754 0.343400
O O1 0.960732 0.250000 0.326746
O O2 0.902698 0.523209 0.319051
O O3 0.000000 0.500000 0.500000
O O4 0.005267 0.524892 0.194298
O O5 0.854962 0.750000 0.138847
O O6 0.806323 0.461121 0.118354
O O7 0.904573 0.479539 0.011537
O O8 0.739546 0.750000 0.410170
O O9 0.699995 0.456242 0.310961
O O10 0.792470 0.472831 0.506204
O O11 0.843126 0.750000 0.594811
O O12 0.893054 0.025695 0.695643
O O13 0.566701 0.250000 0.342044
#
# Coordination Sequence:
#
# PCOD9464166 Si02
#       5
#     8   8   8   8   8
#     4  11  22  36  54  80 111 141 177 221 271 324
#     4  10  20  37  58  78 104 141 182 223 269 318
#     4  10  20  34  55  83 111 141 179 220 263 316
#     4   9  19  36  55  78 108 140 176 216 262 316
#     4   8  17  35  57  77 102 139 178 216 260 316
#
# _framework density 26.386512
#
# number of rings (size 3 to 8) (size 9 to 14) (size 15 to 20)
#    0.000    2.400    0.000    3.600    0.000    3.200 
#    0.000   11.000    0.000    0.000    0.000    0.000 
#    0.000    0.000    0.000    0.000    0.000    0.000 
#
# Total GULP energy -223687.825449 kJ/mol
# GULP energy per Si atom -5592.195636 kJ/mol
# Density = 2.632646 g / cm^3
# Si number density = 26.386512 Si / 1000 Ang^3
#
#
#
# Elastic Constant Matrix: (Units=GPa)
#
#
# Indices 1 2 3 4 5 6 
#
# 1 167.5898 -2.0397 6.2295 0.0000 0.0000 0.0000
# 2 -2.0397 78.4522 -9.5900 0.0000 0.0000 0.0000
# 3 6.2295 -9.5900 73.8275 0.0000 0.0000 0.0000
# 4 0.0000 0.0000 0.0000 19.3481 0.0000 0.0000
# 5 0.0000 0.0000 0.0000 0.0000 52.9275 0.0000
# 6 0.0000 0.0000 0.0000 0.0000 0.0000 17.2609
#
#
#
# Elastic Compliance Matrix: (Units=1/GPa)
#
#
# Indices 1 2 3 4 5 6 
#
# 1 0.005986 0.000095 -0.000493 0.000000 0.000000 0.000000
# 2 0.000095 0.012954 0.001675 0.000000 0.000000 0.000000
# 3 -0.000493 0.001675 0.013804 0.000000 0.000000 0.000000
# 4 0.000000 0.000000 0.000000 0.051685 0.000000 0.000000
# 5 0.000000 0.000000 0.000000 0.000000 0.018894 0.000000
# 6 0.000000 0.000000 0.000000 0.000000 0.000000 0.057934
#
#
# Mechanical properties :
#
#
# Convention : Reuss Voigt Hill
#
# Bulk Modulus (GPa) = 28.32943 34.34102 31.33522
# Shear Modulus (GPa) = 29.33084 39.59195 34.46140
#
# Velocity S-wave (km/s) = 3.33766 3.87778 3.61781
# Velocity P-wave (km/s) = 5.06092 5.75260 5.41781
#
# Compressibility (1/GPa) = 0.03529898
#
# Stress axis : x y z
#
# Youngs Moduli (GPa) = 167.04454 77.19745 72.44180
#
# Poissons Ratio (x) = -0.00737 0.03569
# Poissons Ratio (y) = -0.01594 -0.12131
# Poissons Ratio (z) = 0.08231 -0.12928
#
# Static dielectric constant tensor:
#      x y z
#    x 2.115130 0.000000 0.000000 
#    y 0.000000 1.932620 0.000000 
#    z 0.000000 0.000000 2.237530 
# 
# From -- ./inp_files/9094.got.cif
#   From: 2010.05.17/outbox.cif.g08.bks.cpg/sg62_5_cif.got.tgz:9094.got - 2010.06.03 15:25:27.
