data_PCOD9464796
_publ_section_title
;
Structure prediction by ZEFSAII (Michael W. Deem and Ramdas Pophale) SiO2 
 PCOD9464796
Probable space group: P N M A
;
_chemical_formula_sum "Si O2"
_cell_formula_units_Z 48
_cell_length_a 23.234344
_cell_length_b 8.294458
_cell_length_c 12.217933
_cell_angle_alpha 90.000000
_cell_angle_beta 90.000000
_cell_angle_gamma 90.000000
_cell_volume 2354.594725
_symmetry_space_group_name_H-M "P N M A"
_symmetry_group_IT_number 62
_symmetry_cell_setting 'orthorhombic'
loop_
_space_group_symop_operation_xyz
x,y,z
1/2-x,-y,1/2+z
1/2+x,1/2-y,1/2-z
-x,1/2+y,-z
-x,-y,-z
1/2+x,y,1/2-z
1/2-x,1/2+y,1/2+z
x,1/2-y,z
loop_
_atom_site_type_symbol
_atom_site_label
_atom_site_fract_x
_atom_site_fract_y
_atom_site_fract_z
Si Si1 0.235048 0.563407 0.854500
Si Si2 0.365260 0.943008 0.510615
Si Si3 0.919101 0.054509 0.774048
Si Si4 0.348185 0.939783 0.176444
Si Si5 0.852575 0.062339 0.566436
Si Si6 0.546836 0.445396 0.671253
O O1 0.251272 0.750000 0.861439
O O2 0.203190 0.528271 0.740083
O O3 0.291379 0.458179 0.873861
O O4 0.188657 0.521188 0.948883
O O5 0.359583 0.750000 0.502256
O O6 0.422269 0.994357 0.441717
O O7 0.374557 0.994033 0.634813
O O8 0.918512 0.250000 0.775527
O O9 0.900025 0.003114 0.653024
O O10 0.982718 0.995080 0.806767
O O11 0.341046 0.750000 0.198712
O O12 0.408019 0.991333 0.233856
O O13 0.349997 0.971499 0.048277
O O14 0.863107 0.250000 0.542777
O O15 0.543688 0.250000 0.670211
#
# Coordination Sequence:
#
# PCOD9464796 Si02
#       6
#     8   8   8   8   8   8
#     4  11  23  40  62  84 113 153 197 244 297 351
#     4  10  20  36  60  89 120 152 194 245 297 347
#     4  10  21  37  58  86 121 157 198 239 289 348
#     4  10  21  40  63  86 116 152 195 241 294 350
#     4  11  24  39  57  85 119 156 197 242 291 349
#     4   8  17  36  60  86 117 155 193 241 291 345
#
# _framework density 20.385673000000001
#
# number of rings (size 3 to 8) (size 9 to 14) (size 15 to 20)
#    0.000    2.000    0.000    4.500    2.333    2.000 
#    0.000    4.167    0.000    0.000    0.000    0.000 
#    0.000    0.000    0.000    0.000    0.000    0.000 
#
# Total GULP energy -268203.366785 kJ/mol
# GULP energy per Si atom -5587.570141 kJ/mol
# Density = 2.033927 g / cm^3
# Si number density = 20.385673 Si / 1000 Ang^3
#
#
#
# Elastic Constant Matrix: (Units=GPa)
#
#
# Indices 1 2 3 4 5 6 
#
# 1 31.9120 -11.8594 -3.9511 0.0000 0.0000 0.0000
# 2 -11.8594 26.1257 -0.2068 0.0000 0.0000 0.0000
# 3 -3.9511 -0.2068 92.6654 0.0000 0.0000 0.0000
# 4 0.0000 0.0000 0.0000 18.3588 0.0000 0.0000
# 5 0.0000 0.0000 0.0000 0.0000 9.0345 0.0000
# 6 0.0000 0.0000 0.0000 0.0000 0.0000 16.7809
#
#
#
# Elastic Compliance Matrix: (Units=1/GPa)
#
#
# Indices 1 2 3 4 5 6 
#
# 1 0.037948 0.017239 0.001657 0.000000 0.000000 0.000000
# 2 0.017239 0.046109 0.000838 0.000000 0.000000 0.000000
# 3 0.001657 0.000838 0.010864 0.000000 0.000000 0.000000
# 4 0.000000 0.000000 0.000000 0.054470 0.000000 0.000000
# 5 0.000000 0.000000 0.000000 0.000000 0.110686 0.000000
# 6 0.000000 0.000000 0.000000 0.000000 0.000000 0.059592
#
#
# Mechanical properties :
#
#
# Convention : Reuss Voigt Hill
#
# Bulk Modulus (GPa) = 7.44120 13.18539 10.31330
# Shear Modulus (GPa) = 15.38475 19.94953 17.66714
#
# Velocity S-wave (km/s) = 2.75013 3.13166 2.94708
# Velocity P-wave (km/s) = 3.70708 4.42249 4.08049
#
# Compressibility (1/GPa) = 0.13438688
#
# Stress axis : x y z
#
# Youngs Moduli (GPa) = 26.35206 21.68797 92.04698
#
# Poissons Ratio (x) = -0.37388 -0.15248
# Poissons Ratio (y) = -0.45428 -0.07713
# Poissons Ratio (z) = -0.04365 -0.01817
#
# Static dielectric constant tensor:
#      x y z
#    x 1.719780 0.000000 0.000000 
#    y 0.000000 1.691290 0.000000 
#    z 0.000000 0.000000 1.707370 
# 
# From -- ./inp_files/15119.got.cif
#   From: 2010.05.17/outbox.cif.g08.bks.cpg/sg62_8_cif.got.tgz:15119.got - 2010.06.03 15:25:27.
