data_PCOD9464032
_publ_section_title
;
Structure prediction by ZEFSAII (Michael W. Deem and Ramdas Pophale) SiO2 
 PCOD9464032
Probable space group: P N M A
;
_chemical_formula_sum "Si O2"
_cell_formula_units_Z 56
_cell_length_a 16.164643
_cell_length_b 8.820409
_cell_length_c 20.371778
_cell_angle_alpha 90.000000
_cell_angle_beta 90.000000
_cell_angle_gamma 90.000000
_cell_volume 2904.582899
_symmetry_space_group_name_H-M "P N M A"
_symmetry_group_IT_number 62
_symmetry_cell_setting 'orthorhombic'
loop_
_space_group_symop_operation_xyz
x,y,z
1/2-x,-y,1/2+z
1/2+x,1/2-y,1/2-z
-x,1/2+y,-z
-x,-y,-z
1/2+x,y,1/2-z
1/2-x,1/2+y,1/2+z
x,1/2-y,z
loop_
_atom_site_type_symbol
_atom_site_label
_atom_site_fract_x
_atom_site_fract_y
_atom_site_fract_z
Si Si1 0.703770 0.067551 0.801356
Si Si2 0.645194 0.915062 0.621954
Si Si3 0.037636 0.928911 0.761842
Si Si4 0.200736 0.926844 0.416606
Si Si5 0.745174 0.067660 0.438554
Si Si6 0.133838 0.933753 0.284358
Si Si7 0.417707 0.417570 0.523398
O O1 0.699777 0.250000 0.800265
O O2 0.785250 0.020657 0.758650
O O3 0.618666 0.999275 0.772988
O O4 0.713981 0.007828 0.875401
O O5 0.677667 0.750000 0.646368
O O6 0.562420 0.947171 0.661777
O O7 0.626346 0.897751 0.546322
O O8 0.712446 0.046747 0.621718
O O9 0.031980 0.750000 0.747150
O O10 0.951571 0.007100 0.745358
O O11 0.183639 0.750000 0.423663
O O12 0.212519 0.982967 0.491623
O O13 0.139305 0.989048 0.360731
O O14 0.749303 0.250000 0.435743
O O15 0.648844 0.016109 0.437256
O O16 0.133382 0.750000 0.284977
O O17 0.500000 0.500000 0.500000
O O18 0.432368 0.250000 0.552736
#
# Coordination Sequence:
#
# PCOD9464032 Si02
#       7
#     8   8   8   8   8   8   8
#     4  11  23  41  63  89 122 158 197 248 302 358
#     4   9  19  34  53  78 112 149 186 233 285 340
#     4  11  23  38  59  89 120 155 197 245 299 352
#     4   9  18  37  61  84 111 151 196 238 288 346
#     4  10  21  37  59  84 114 153 196 247 302 356
#     4  10  22  39  61  88 117 154 198 243 295 355
#     4  10  20  34  51  79 115 154 196 237 290 354
#
# _framework density 19.279876000000002
#
# number of rings (size 3 to 8) (size 9 to 14) (size 15 to 20)
#    0.000    2.000    1.429    1.714    2.000    3.429 
#    0.000    0.714    0.000    0.000    0.000    0.000 
#    0.000    0.000    0.000    0.000    0.000    0.000 
#
# Total GULP energy -311741.090594 kJ/mol
# GULP energy per Si atom -5566.805189 kJ/mol
# Density = 1.923599 g / cm^3
# Si number density = 19.279876 Si / 1000 Ang^3
#
#
#
# Elastic Constant Matrix: (Units=GPa)
#
#
# Indices 1 2 3 4 5 6 
#
# 1 71.1997 13.0775 21.7361 0.0000 0.0000 0.0000
# 2 13.0775 39.7802 19.1188 0.0000 0.0000 0.0000
# 3 21.7361 19.1188 76.9064 0.0000 0.0000 0.0000
# 4 0.0000 0.0000 0.0000 25.1288 0.0000 0.0000
# 5 0.0000 0.0000 0.0000 0.0000 16.6989 0.0000
# 6 0.0000 0.0000 0.0000 0.0000 0.0000 24.3330
#
#
#
# Elastic Compliance Matrix: (Units=1/GPa)
#
#
# Indices 1 2 3 4 5 6 
#
# 1 0.015779 -0.003457 -0.003600 0.000000 0.000000 0.000000
# 2 -0.003457 0.029307 -0.006309 0.000000 0.000000 0.000000
# 3 -0.003600 -0.006309 0.015589 0.000000 0.000000 0.000000
# 4 0.000000 0.000000 0.000000 0.039795 0.000000 0.000000
# 5 0.000000 0.000000 0.000000 0.000000 0.059884 0.000000
# 6 0.000000 0.000000 0.000000 0.000000 0.000000 0.041096
#
#
# Mechanical properties :
#
#
# Convention : Reuss Voigt Hill
#
# Bulk Modulus (GPa) = 29.46135 32.86124 31.16129
# Shear Modulus (GPa) = 20.87721 22.16240 21.51981
#
# Velocity S-wave (km/s) = 3.29424 3.39412 3.34455
# Velocity P-wave (km/s) = 5.45742 5.69573 5.57785
#
# Compressibility (1/GPa) = 0.03394278
#
# Stress axis : x y z
#
# Youngs Moduli (GPa) = 63.37518 34.12209 64.14922
#
# Poissons Ratio (x) = 0.11796 0.23095
# Poissons Ratio (y) = 0.21909 0.40469
# Poissons Ratio (z) = 0.22817 0.21526
#
# Static dielectric constant tensor:
#      x y z
#    x 1.679260 0.000000 0.000000 
#    y 0.000000 1.716830 0.000000 
#    z 0.000000 0.000000 1.724740 
# 
# From -- ./inp_files/27064.got.cif
#   From: 2010.05.17/outbox.cif.g08.bks.cpg/sg62_14_cif.got.tgz:27064.got - 2010.06.03 15:25:27.
