data_PCOD9464737
_publ_section_title
;
Structure prediction by ZEFSAII (Michael W. Deem and Ramdas Pophale) SiO2 
 PCOD9464737
Probable space group: P N M A
;
_chemical_formula_sum "Si O2"
_cell_formula_units_Z 52
_cell_length_a 4.997588
_cell_length_b 25.269882
_cell_length_c 17.214234
_cell_angle_alpha 90.000000
_cell_angle_beta 90.000000
_cell_angle_gamma 90.000000
_cell_volume 2173.959085
_symmetry_space_group_name_H-M "P N M A"
_symmetry_group_IT_number 62
_symmetry_cell_setting 'orthorhombic'
loop_
_space_group_symop_operation_xyz
x,y,z
1/2-x,-y,1/2+z
1/2+x,1/2-y,1/2-z
-x,1/2+y,-z
-x,-y,-z
1/2+x,y,1/2-z
1/2-x,1/2+y,1/2+z
x,1/2-y,z
loop_
_atom_site_type_symbol
_atom_site_label
_atom_site_fract_x
_atom_site_fract_y
_atom_site_fract_z
Si Si1 0.036758 0.750000 0.694446
Si Si2 0.850172 0.623091 0.013036
Si Si3 0.594540 0.813639 0.293226
Si Si4 0.625131 0.544563 0.881564
Si Si5 0.384655 0.858044 0.797800
Si Si6 0.899896 0.518299 0.085470
Si Si7 0.672038 0.187916 0.966150
O O1 0.325835 0.750000 0.733573
O O2 0.979079 0.693929 0.653726
O O3 0.908886 0.581546 0.082553
O O4 0.629797 0.667032 0.032364
O O5 0.124365 0.650668 0.985680
O O6 0.721036 0.585412 0.948013
O O7 0.304867 0.834487 0.270152
O O8 0.570090 0.750000 0.284338
O O9 0.709834 0.820122 0.379115
O O10 0.472292 0.584870 0.825856
O O11 0.400023 0.502552 0.905905
O O12 0.889160 0.511302 0.858308
O O13 0.072651 0.853345 0.779369
O O14 0.000000 0.500000 0.000000
O O15 0.688569 0.250000 0.984973
#
# Coordination Sequence:
#
# PCOD9464737 Si02
#       7
#     4   8   8   8   8   8   8
#     4   8  16  32  52  76 108 148 192 226 270 336
#     4  11  21  37  58  82 116 150 188 231 289 338
#     4   9  17  31  52  74  97 137 188 221 246 306
#     4  11  21  37  62  87 110 144 203 239 290 341
#     4  10  20  36  59  84 116 154 196 243 287 344
#     4  10  20  37  61  84 106 141 192 244 270 337
#     4  11  22  36  55  83 119 148 178 226 287 346
#
# _framework density 23.919492000000002
#
# number of rings (size 3 to 8) (size 9 to 14) (size 15 to 20)
#    0.000    1.846    0.000    6.923    0.000    2.462 
#    2.769    0.000    3.385   18.462    0.000    0.000 
#    0.000    0.000    0.000    0.000    0.000    0.000 
#
# Total GULP energy -290382.756862 kJ/mol
# GULP energy per Si atom -5584.283786 kJ/mol
# Density = 2.386505 g / cm^3
# Si number density = 23.919492 Si / 1000 Ang^3
#
#
#
# Elastic Constant Matrix: (Units=GPa)
#
#
# Indices 1 2 3 4 5 6 
#
# 1 120.2793 41.1025 -1.2133 0.0000 0.0000 0.0000
# 2 41.1025 144.7984 7.0637 0.0000 0.0000 0.0000
# 3 -1.2133 7.0637 12.0331 0.0000 0.0000 0.0000
# 4 0.0000 0.0000 0.0000 23.3640 0.0000 0.0000
# 5 0.0000 0.0000 0.0000 0.0000 18.3348 0.0000
# 6 0.0000 0.0000 0.0000 0.0000 0.0000 56.9199
#
#
#
# Elastic Compliance Matrix: (Units=1/GPa)
#
#
# Indices 1 2 3 4 5 6 
#
# 1 0.009283 -0.002760 0.002556 0.000000 0.000000 0.000000
# 2 -0.002760 0.007930 -0.004933 0.000000 0.000000 0.000000
# 3 0.002556 -0.004933 0.086258 0.000000 0.000000 0.000000
# 4 0.000000 0.000000 0.000000 0.042801 0.000000 0.000000
# 5 0.000000 0.000000 0.000000 0.000000 0.054541 0.000000
# 6 0.000000 0.000000 0.000000 0.000000 0.000000 0.017569
#
#
# Mechanical properties :
#
#
# Convention : Reuss Voigt Hill
#
# Bulk Modulus (GPa) = 10.73002 41.22406 25.97704
# Shear Modulus (GPa) = 19.25142 35.06760 27.15951
#
# Velocity S-wave (km/s) = 2.84005 3.83308 3.37331
# Velocity P-wave (km/s) = 3.90514 6.07140 5.10451
#
# Compressibility (1/GPa) = 0.09319651
#
# Stress axis : x y z
#
# Youngs Moduli (GPa) = 107.72570 126.10031 11.59316
#
# Poissons Ratio (x) = 0.34800 -0.02963
# Poissons Ratio (y) = 0.29729 0.05719
# Poissons Ratio (z) = -0.27535 0.62211
#
# Static dielectric constant tensor:
#      x y z
#    x 1.917210 0.000000 0.000000 
#    y 0.000000 1.977970 0.000000 
#    z 0.000000 0.000000 2.102390 
# 
# From -- ./inp_files/25342.got.cif
#   From: 2010.05.17/outbox.cif.g08.bks.cpg/sg62_13_cif.got.tgz:25342.got - 2010.06.03 15:25:27.
