data_PCOD9464504
_publ_section_title
;
Structure prediction by ZEFSAII (Michael W. Deem and Ramdas Pophale) SiO2 
 PCOD9464504
Probable space group: P N M A
;
_chemical_formula_sum "Si O2"
_cell_formula_units_Z 48
_cell_length_a 12.232126
_cell_length_b 8.764960
_cell_length_c 23.042945
_cell_angle_alpha 90.000000
_cell_angle_beta 90.000000
_cell_angle_gamma 90.000000
_cell_volume 2470.528497
_symmetry_space_group_name_H-M "P N M A"
_symmetry_group_IT_number 62
_symmetry_cell_setting 'orthorhombic'
loop_
_space_group_symop_operation_xyz
x,y,z
1/2-x,-y,1/2+z
1/2+x,1/2-y,1/2-z
-x,1/2+y,-z
-x,-y,-z
1/2+x,y,1/2-z
1/2-x,1/2+y,1/2+z
x,1/2-y,z
loop_
_atom_site_type_symbol
_atom_site_label
_atom_site_fract_x
_atom_site_fract_y
_atom_site_fract_z
Si Si1 0.079298 0.922105 0.545889
Si Si2 0.267922 0.067613 0.616301
Si Si3 0.368050 0.433928 0.222154
Si Si4 0.499193 0.932897 0.435213
Si Si5 0.811259 0.433379 0.144344
Si Si6 0.429048 0.922972 0.840443
O O1 0.107980 0.750000 0.527938
O O2 0.006582 0.913926 0.603954
O O3 0.187176 0.013108 0.564609
O O4 0.000000 0.000000 0.500000
O O5 0.263950 0.250000 0.620310
O O6 0.390745 0.019558 0.599717
O O7 0.219344 0.999680 0.676246
O O8 0.369022 0.250000 0.213567
O O9 0.343246 0.463104 0.288906
O O10 0.489931 0.494547 0.206795
O O11 0.499725 0.750000 0.438889
O O12 0.500000 0.000000 0.500000
O O13 0.393790 0.989073 0.399934
O O14 0.814985 0.250000 0.133680
O O15 0.686169 0.490796 0.140870
O O16 0.402185 0.750000 0.819979
#
# Coordination Sequence:
#
# PCOD9464504 Si02
#       6
#     8   8   8   8   8   8
#     4  10  20  35  58  85 117 152 193 241 293 351
#     4  10  22  40  60  84 119 157 196 248 301 353
#     4   9  19  36  62  92 119 153 195 241 299 362
#     4  11  26  44  61  86 121 162 208 254 304 364
#     4  10  21  37  63  90 119 157 194 244 300 358
#     4   8  17  34  53  83 118 146 185 237 288 343
#
# _framework density 19.429041999999999
#
# number of rings (size 3 to 8) (size 9 to 14) (size 15 to 20)
#    0.000    2.333    0.000    2.500    4.667    3.333 
#    0.000    3.333    0.000    0.000    0.000    0.000 
#    0.000    0.000    0.000    0.000    0.000    0.000 
#
# Total GULP energy -267699.076445 kJ/mol
# GULP energy per Si atom -5577.064093 kJ/mol
# Density = 1.938482 g / cm^3
# Si number density = 19.429042 Si / 1000 Ang^3
#
#
#
# Elastic Constant Matrix: (Units=GPa)
#
#
# Indices 1 2 3 4 5 6 
#
# 1 155.4006 25.5806 34.4816 0.0000 0.0000 0.0000
# 2 25.5806 38.6389 23.0294 0.0000 0.0000 0.0000
# 3 34.4816 23.0294 63.0804 0.0000 0.0000 0.0000
# 4 0.0000 0.0000 0.0000 26.2595 0.0000 0.0000
# 5 0.0000 0.0000 0.0000 0.0000 10.9164 0.0000
# 6 0.0000 0.0000 0.0000 0.0000 0.0000 28.1086
#
#
#
# Elastic Compliance Matrix: (Units=1/GPa)
#
#
# Indices 1 2 3 4 5 6 
#
# 1 0.007635 -0.003281 -0.002976 0.000000 0.000000 0.000000
# 2 -0.003281 0.034488 -0.010797 0.000000 0.000000 0.000000
# 3 -0.002976 -0.010797 0.021421 0.000000 0.000000 0.000000
# 4 0.000000 0.000000 0.000000 0.038081 0.000000 0.000000
# 5 0.000000 0.000000 0.000000 0.000000 0.091605 0.000000
# 6 0.000000 0.000000 0.000000 0.000000 0.000000 0.035576
#
#
# Mechanical properties :
#
#
# Convention : Reuss Voigt Hill
#
# Bulk Modulus (GPa) = 33.97178 47.03370 40.50274
# Shear Modulus (GPa) = 18.33322 24.65880 21.49601
#
# Velocity S-wave (km/s) = 3.07514 3.56641 3.32985
# Velocity P-wave (km/s) = 5.48923 6.42024 5.97290
#
# Compressibility (1/GPa) = 0.02943620
#
# Stress axis : x y z
#
# Youngs Moduli (GPa) = 130.96851 28.99520 46.68246
#
# Poissons Ratio (x) = 0.09514 0.13892
# Poissons Ratio (y) = 0.42976 0.50405
# Poissons Ratio (z) = 0.38973 0.31307
#
# Static dielectric constant tensor:
#      x y z
#    x 1.710800 0.000000 0.000000 
#    y 0.000000 1.686450 0.000000 
#    z 0.000000 0.000000 1.679030 
# 
# From -- ./inp_files/29242.got.cif
#   From: 2010.05.17/outbox.cif.g08.bks.cpg/sg62_15_cif.got.tgz:29242.got - 2010.06.03 15:25:27.
