data_PCOD9464330
_publ_section_title
;
Structure prediction by ZEFSAII (Michael W. Deem and Ramdas Pophale) SiO2 
 PCOD9464330
Probable space group: P N M A
;
_chemical_formula_sum "Si O2"
_cell_formula_units_Z 64
_cell_length_a 17.570638
_cell_length_b 8.217526
_cell_length_c 19.895340
_cell_angle_alpha 90.000000
_cell_angle_beta 90.000000
_cell_angle_gamma 90.000000
_cell_volume 2872.631930
_symmetry_space_group_name_H-M "P N M A"
_symmetry_group_IT_number 62
_symmetry_cell_setting 'orthorhombic'
loop_
_space_group_symop_operation_xyz
x,y,z
1/2-x,-y,1/2+z
1/2+x,1/2-y,1/2-z
-x,1/2+y,-z
-x,-y,-z
1/2+x,y,1/2-z
1/2-x,1/2+y,1/2+z
x,1/2-y,z
loop_
_atom_site_type_symbol
_atom_site_label
_atom_site_fract_x
_atom_site_fract_y
_atom_site_fract_z
Si Si1 0.487947 0.931941 0.605457
Si Si2 0.635359 0.449273 0.072517
Si Si3 0.731259 0.437317 0.199911
Si Si4 0.266535 0.559869 0.046387
Si Si5 0.590624 0.565244 0.269774
Si Si6 0.879817 0.565675 0.025030
Si Si7 0.320997 0.055693 0.179277
Si Si8 0.011096 0.552460 0.650210
O O1 0.490920 0.750000 0.634222
O O2 0.438408 0.927902 0.537533
O O3 0.443786 0.044827 0.656926
O O4 0.572294 0.989312 0.585712
O O5 0.637745 0.250000 0.073258
O O6 0.695017 0.505614 0.130884
O O7 0.549851 0.497914 0.093084
O O8 0.664742 0.505112 0.000272
O O9 0.751237 0.250000 0.184789
O O10 0.659609 0.446627 0.250975
O O11 0.797291 0.511110 0.247219
O O12 0.277426 0.750000 0.058224
O O13 0.262122 0.478845 0.119141
O O14 0.191908 0.533199 0.001395
O O15 0.616921 0.750000 0.258946
O O16 0.524751 0.517912 0.218034
O O17 0.856623 0.750000 0.041019
O O18 0.325619 0.250000 0.187477
O O19 0.401816 0.996848 0.150206
O O20 0.009978 0.750000 0.651913
#
# Coordination Sequence:
#
# PCOD9464330 Si02
#       8
#     8   8   8   8   8   8   8   8
#     4  10  20  35  55  77 106 145 181 216 269 333
#     4   8  17  35  56  77 105 145 188 225 267 327
#     4   9  18  36  58  78 105 142 183 223 266 323
#     4  11  22  35  54  80 112 149 185 227 281 338
#     4  11  21  33  53  82 111 138 174 220 271 325
#     4  10  21  36  53  77 108 140 181 230 272 320
#     4  10  21  36  58  85 109 140 184 232 277 324
#     4   9  19  38  59  78 104 141 186 229 271 323
#
# _framework density 22.279221
#
# number of rings (size 3 to 8) (size 9 to 14) (size 15 to 20)
#    0.000    2.250    0.000    3.750    0.000    7.000 
#    0.000    7.500    0.000    0.000    0.000    0.000 
#    0.000    0.000    0.000    0.000    0.000    0.000 
#
# Total GULP energy -357086.340897 kJ/mol
# GULP energy per Si atom -5579.474077 kJ/mol
# Density = 2.222851 g / cm^3
# Si number density = 22.279221 Si / 1000 Ang^3
#
#
#
# Elastic Constant Matrix: (Units=GPa)
#
#
# Indices 1 2 3 4 5 6 
#
# 1 39.0522 -6.4794 2.7209 0.0000 0.0000 0.0000
# 2 -6.4794 22.8171 -7.0438 0.0000 0.0000 0.0000
# 3 2.7209 -7.0438 40.0719 0.0000 0.0000 0.0000
# 4 0.0000 0.0000 0.0000 13.3444 0.0000 0.0000
# 5 0.0000 0.0000 0.0000 0.0000 1.3055 0.0000
# 6 0.0000 0.0000 0.0000 0.0000 0.0000 9.4097
#
#
#
# Elastic Compliance Matrix: (Units=1/GPa)
#
#
# Indices 1 2 3 4 5 6 
#
# 1 0.026883 0.007476 -0.000511 0.000000 0.000000 0.000000
# 2 0.007476 0.048421 0.008004 0.000000 0.000000 0.000000
# 3 -0.000511 0.008004 0.026397 0.000000 0.000000 0.000000
# 4 0.000000 0.000000 0.000000 0.074938 0.000000 0.000000
# 5 0.000000 0.000000 0.000000 0.000000 0.766003 0.000000
# 6 0.000000 0.000000 0.000000 0.000000 0.000000 0.106273
#
#
# Mechanical properties :
#
#
# Convention : Reuss Voigt Hill
#
# Bulk Modulus (GPa) = 7.59663 8.92629 8.26146
# Shear Modulus (GPa) = 4.70431 12.32816 8.51624
#
# Velocity S-wave (km/s) = 1.45468 2.35489 1.95724
# Velocity P-wave (km/s) = 2.49772 3.37776 2.97051
#
# Compressibility (1/GPa) = 0.13163737
#
# Stress axis : x y z
#
# Youngs Moduli (GPa) = 37.19852 20.65234 37.88354
#
# Poissons Ratio (x) = -0.15440 0.01937
# Poissons Ratio (y) = -0.27810 -0.30321
# Poissons Ratio (z) = 0.01902 -0.16529
#
# Static dielectric constant tensor:
#      x y z
#    x 1.859760 0.000000 0.000000 
#    y 0.000000 1.805340 0.000000 
#    z 0.000000 0.000000 1.828420 
# 
# From -- ./inp_files/27766.got.cif
#   From: 2010.05.17/outbox.cif.g08.bks.cpg/sg62_14_cif.got.tgz:27766.got - 2010.06.03 15:25:27.
