data_PCOD9464058
_publ_section_title
;
Structure prediction by ZEFSAII (Michael W. Deem and Ramdas Pophale) SiO2 
 PCOD9464058
Probable space group: P N M A
;
_chemical_formula_sum "Si O2"
_cell_formula_units_Z 32
_cell_length_a 5.410121
_cell_length_b 26.858665
_cell_length_c 8.777228
_cell_angle_alpha 90.000000
_cell_angle_beta 90.000000
_cell_angle_gamma 90.000000
_cell_volume 1275.406954
_symmetry_space_group_name_H-M "P N M A"
_symmetry_group_IT_number 62
_symmetry_cell_setting 'orthorhombic'
loop_
_space_group_symop_operation_xyz
x,y,z
1/2-x,-y,1/2+z
1/2+x,1/2-y,1/2-z
-x,1/2+y,-z
-x,-y,-z
1/2+x,y,1/2-z
1/2-x,1/2+y,1/2+z
x,1/2-y,z
loop_
_atom_site_type_symbol
_atom_site_label
_atom_site_fract_x
_atom_site_fract_y
_atom_site_fract_z
Si Si1 0.957182 0.190333 0.837453
Si Si2 0.443788 0.854617 0.666252
Si Si3 0.661402 0.442894 0.822577
Si Si4 0.877162 0.462409 0.121258
O O1 0.180470 0.178864 0.720516
O O2 0.966637 0.250000 0.861277
O O3 0.017002 0.164352 0.996467
O O4 0.181161 0.838549 0.734097
O O5 0.460132 0.914891 0.663548
O O6 0.412990 0.421191 0.749226
O O7 0.676644 0.500008 0.758759
O O8 0.663568 0.441312 0.005581
O O9 0.000000 0.500000 0.000000
#
# Coordination Sequence:
#
# PCOD9464058 Si02
#       4
#     8   8   8   8
#     4  10  23  46  74 103 135 172 218 272 333 406
#     4  12  26  43  66 100 139 176 222 278 337 400
#     4  10  20  34  53  75 106 152 205 258 309 360
#     4  10  22  39  58  84 123 170 219 270 319 378
#
# _framework density 25.090029999999999
#
# number of rings (size 3 to 8) (size 9 to 14) (size 15 to 20)
#    0.000    1.500    0.000    5.250    0.000    9.000 
#    0.000    0.000    0.000    0.000    0.000    0.000 
#    0.000    0.000    0.000    0.000    0.000    0.000 
#
# Total GULP energy -179163.438784 kJ/mol
# GULP energy per Si atom -5598.857462 kJ/mol
# Density = 2.503292 g / cm^3
# Si number density = 25.090030 Si / 1000 Ang^3
#
#
#
# Elastic Constant Matrix: (Units=GPa)
#
#
# Indices 1 2 3 4 5 6 
#
# 1 142.2540 16.9910 -8.3434 0.0000 0.0000 0.0000
# 2 16.9910 65.2443 2.8652 0.0000 0.0000 0.0000
# 3 -8.3434 2.8652 63.3569 0.0000 0.0000 0.0000
# 4 0.0000 0.0000 0.0000 38.0221 0.0000 0.0000
# 5 0.0000 0.0000 0.0000 0.0000 52.8712 0.0000
# 6 0.0000 0.0000 0.0000 0.0000 0.0000 32.0831
#
#
#
# Elastic Compliance Matrix: (Units=1/GPa)
#
#
# Indices 1 2 3 4 5 6 
#
# 1 0.007325 -0.001954 0.001053 0.000000 0.000000 0.000000
# 2 -0.001954 0.015879 -0.000975 0.000000 0.000000 0.000000
# 3 0.001053 -0.000975 0.015966 0.000000 0.000000 0.000000
# 4 0.000000 0.000000 0.000000 0.026300 0.000000 0.000000
# 5 0.000000 0.000000 0.000000 0.000000 0.018914 0.000000
# 6 0.000000 0.000000 0.000000 0.000000 0.000000 0.031169
#
#
# Mechanical properties :
#
#
# Convention : Reuss Voigt Hill
#
# Bulk Modulus (GPa) = 28.23470 32.65343 30.44407
# Shear Modulus (GPa) = 38.13551 41.88479 40.01015
#
# Velocity S-wave (km/s) = 3.90288 4.09024 3.99766
# Velocity P-wave (km/s) = 5.62030 5.94554 5.78521
#
# Compressibility (1/GPa) = 0.03541741
#
# Stress axis : x y z
#
# Youngs Moduli (GPa) = 136.52254 62.97770 62.63167
#
# Poissons Ratio (x) = 0.12304 -0.06595
# Poissons Ratio (y) = 0.26673 0.06109
# Poissons Ratio (z) = -0.14375 0.06143
#
# Static dielectric constant tensor:
#      x y z
#    x 2.281230 0.000000 0.000000 
#    y 0.000000 2.021630 0.000000 
#    z 0.000000 0.000000 1.968190 
# 
# From -- ./inp_files/3816.got.cif
#   From: 2010.05.17/outbox.cif.g08.bks.cpg/sg62_2_cif.got.tgz:3816.got - 2010.06.03 15:25:27.
