data_PCOD9464826
_publ_section_title
;
Structure prediction by ZEFSAII (Michael W. Deem and Ramdas Pophale) SiO2 
 PCOD9464826
Probable space group: P N M A
;
_chemical_formula_sum "Si O2"
_cell_formula_units_Z 64
_cell_length_a 14.952252
_cell_length_b 12.553021
_cell_length_c 17.610280
_cell_angle_alpha 90.000000
_cell_angle_beta 90.000000
_cell_angle_gamma 90.000000
_cell_volume 3305.377941
_symmetry_space_group_name_H-M "P N M A"
_symmetry_group_IT_number 62
_symmetry_cell_setting 'orthorhombic'
loop_
_space_group_symop_operation_xyz
x,y,z
1/2-x,-y,1/2+z
1/2+x,1/2-y,1/2-z
-x,1/2+y,-z
-x,-y,-z
1/2+x,y,1/2-z
1/2-x,1/2+y,1/2+z
x,1/2-y,z
loop_
_atom_site_type_symbol
_atom_site_label
_atom_site_fract_x
_atom_site_fract_y
_atom_site_fract_z
Si Si1 0.734177 0.875401 0.568200
Si Si2 0.144640 0.510888 0.225950
Si Si3 0.518717 0.135394 0.698483
Si Si4 0.529570 0.127695 0.517231
Si Si5 0.076609 0.121824 0.363836
Si Si6 0.164192 0.960950 0.774614
Si Si7 0.377988 0.127252 0.114797
Si Si8 0.695033 0.040587 0.444296
O O1 0.731694 0.750000 0.557969
O O2 0.837618 0.907289 0.584875
O O3 0.678963 0.906367 0.643981
O O4 0.696341 0.934603 0.495106
O O5 0.099252 0.423539 0.280603
O O6 0.244602 0.524357 0.256413
O O7 0.152626 0.473996 0.138939
O O8 0.080888 0.612275 0.227217
O O9 0.551240 0.250000 0.725162
O O10 0.519409 0.133255 0.607377
O O11 0.582381 0.041072 0.724090
O O12 0.495699 0.250000 0.490462
O O13 0.632278 0.122621 0.489134
O O14 0.500000 0.000000 0.500000
O O15 0.073342 0.250000 0.359449
O O16 0.979310 0.083843 0.391912
O O17 0.148500 0.882221 0.704057
O O18 0.379690 0.250000 0.092186
O O19 0.297929 0.072562 0.069216
#
# Coordination Sequence:
#
# PCOD9464826 Si02
#       8
#     8   8   8   8   8   8   8   8
#     4  10  21  37  58  86 122 162 204 250 304 365
#     4  10  21  37  58  86 117 149 199 251 304 359
#     4  11  22  38  57  82 117 155 201 244 298 369
#     4  11  23  40  58  84 123 161 200 246 302 366
#     4   9  19  37  62  87 114 151 199 258 306 357
#     4  10  20  38  61  87 115 153 202 254 307 358
#     4  10  20  36  62  90 116 150 197 256 311 359
#     4  11  22  36  57  91 122 157 195 249 307 367
#
# _framework density 19.362383999999999
#
# number of rings (size 3 to 8) (size 9 to 14) (size 15 to 20)
#    0.000    1.750    3.750    0.750    0.000    5.500 
#    0.000    1.875    0.000    0.000    0.000    0.000 
#    0.000    0.000    0.000    0.000    0.000    0.000 
#
# Total GULP energy -356392.950462 kJ/mol
# GULP energy per Si atom -5568.639851 kJ/mol
# Density = 1.931831 g / cm^3
# Si number density = 19.362384 Si / 1000 Ang^3
#
#
#
# Elastic Constant Matrix: (Units=GPa)
#
#
# Indices 1 2 3 4 5 6 
#
# 1 88.3817 22.9314 -0.3875 0.0000 0.0000 0.0000
# 2 22.9314 79.5321 17.8862 0.0000 0.0000 0.0000
# 3 -0.3875 17.8862 40.2752 0.0000 0.0000 0.0000
# 4 0.0000 0.0000 0.0000 17.8540 0.0000 0.0000
# 5 0.0000 0.0000 0.0000 0.0000 22.1336 0.0000
# 6 0.0000 0.0000 0.0000 0.0000 0.0000 22.3780
#
#
#
# Elastic Compliance Matrix: (Units=1/GPa)
#
#
# Indices 1 2 3 4 5 6 
#
# 1 0.012358 -0.003988 0.001890 0.000000 0.000000 0.000000
# 2 -0.003988 0.015256 -0.006813 0.000000 0.000000 0.000000
# 3 0.001890 -0.006813 0.027873 0.000000 0.000000 0.000000
# 4 0.000000 0.000000 0.000000 0.056010 0.000000 0.000000
# 5 0.000000 0.000000 0.000000 0.000000 0.045180 0.000000
# 6 0.000000 0.000000 0.000000 0.000000 0.000000 0.044687
#
#
# Mechanical properties :
#
#
# Convention : Reuss Voigt Hill
#
# Bulk Modulus (GPa) = 26.55092 32.11657 29.33375
# Shear Modulus (GPa) = 21.57584 23.65706 22.61645
#
# Velocity S-wave (km/s) = 3.34176 3.49922 3.42140
# Velocity P-wave (km/s) = 5.35091 5.74014 5.54894
#
# Compressibility (1/GPa) = 0.03766348
#
# Stress axis : x y z
#
# Youngs Moduli (GPa) = 80.92193 65.54914 35.87672
#
# Poissons Ratio (x) = 0.26142 -0.06781
# Poissons Ratio (y) = 0.32272 0.24444
# Poissons Ratio (z) = -0.15294 0.44662
#
# Static dielectric constant tensor:
#      x y z
#    x 1.733450 0.000000 0.000000 
#    y 0.000000 1.677120 0.000000 
#    z 0.000000 0.000000 1.656550 
# 
# From -- ./inp_files/24040.got.cif
#   From: 2010.05.17/outbox.cif.g08.bks.cpg/sg62_13_cif.got.tgz:24040.got - 2010.06.03 15:25:27.
