data_PCOD9464324
_publ_section_title
;
Structure prediction by ZEFSAII (Michael W. Deem and Ramdas Pophale) SiO2 
 PCOD9464324
Probable space group: P N M A
;
_chemical_formula_sum "Si O2"
_cell_formula_units_Z 64
_cell_length_a 16.240956
_cell_length_b 16.847883
_cell_length_c 11.495754
_cell_angle_alpha 90.000000
_cell_angle_beta 90.000000
_cell_angle_gamma 90.000000
_cell_volume 3145.534040
_symmetry_space_group_name_H-M "P N M A"
_symmetry_group_IT_number 62
_symmetry_cell_setting 'orthorhombic'
loop_
_space_group_symop_operation_xyz
x,y,z
1/2-x,-y,1/2+z
1/2+x,1/2-y,1/2-z
-x,1/2+y,-z
-x,-y,-z
1/2+x,y,1/2-z
1/2-x,1/2+y,1/2+z
x,1/2-y,z
loop_
_atom_site_type_symbol
_atom_site_label
_atom_site_fract_x
_atom_site_fract_y
_atom_site_fract_z
Si Si1 0.831218 0.889136 0.961336
Si Si2 0.167935 0.585610 0.417621
Si Si3 0.820835 0.910167 0.494565
Si Si4 0.753741 0.840178 0.731246
Si Si5 0.500577 0.904704 0.984329
Si Si6 0.510554 0.904724 0.497049
Si Si7 0.834901 0.068893 0.857120
Si Si8 0.933142 0.345243 0.249202
O O1 0.753651 0.874427 0.045392
O O2 0.813287 0.843959 0.841501
O O3 0.918756 0.871035 0.019730
O O4 0.834665 0.981243 0.916663
O O5 0.169038 0.505002 0.493877
O O6 0.082433 0.627739 0.452500
O O7 0.165664 0.565100 0.281579
O O8 0.789038 0.885759 0.621687
O O9 0.749066 0.891455 0.403633
O O10 0.911552 0.875648 0.472404
O O11 0.742422 0.750000 0.693157
O O12 0.662655 0.869697 0.767095
O O13 0.511398 0.884125 0.848806
O O14 0.500000 0.000000 0.000000
O O15 0.582748 0.888632 0.404662
O O16 0.540770 0.874688 0.622471
O O17 0.500000 0.000000 0.500000
O O18 0.939596 0.250000 0.257602
#
# Coordination Sequence:
#
# PCOD9464324 Si02
#       8
#     8   8   8   8   8   8   8   8
#     4  10  20  35  54  84 114 152 198 245 297 352
#     4  10  20  35  55  82 121 154 192 249 304 354
#     4  10  20  35  54  84 114 152 198 245 297 352
#     4  11  21  37  63  88 121 159 203 249 308 373
#     4  10  22  35  58  90 121 158 206 255 304 369
#     4  10  22  35  58  90 121 158 206 255 304 369
#     4  10  20  35  55  82 121 154 192 249 304 354
#     4  11  23  41  63  92 130 165 203 261 319 369
#
# _framework density 20.346305999999998
#
# number of rings (size 3 to 8) (size 9 to 14) (size 15 to 20)
#    0.000    1.750    3.750    0.750    5.250    3.000 
#    0.000    0.000    0.000    3.000    0.000    3.500 
#    0.000    0.000    0.000    0.000    0.000    0.000 
#
# Total GULP energy -356993.594467 kJ/mol
# GULP energy per Si atom -5578.024914 kJ/mol
# Density = 2.030000 g / cm^3
# Si number density = 20.346306 Si / 1000 Ang^3
#
#
#
# Elastic Constant Matrix: (Units=GPa)
#
#
# Indices 1 2 3 4 5 6 
#
# 1 141.2939 -0.2420 29.3534 0.0000 0.0000 0.0000
# 2 -0.2420 27.7735 1.0530 0.0000 0.0000 0.0000
# 3 29.3534 1.0530 71.3123 0.0000 0.0000 0.0000
# 4 0.0000 0.0000 0.0000 -6.8626 0.0000 0.0000
# 5 0.0000 0.0000 0.0000 0.0000 26.1548 0.0000
# 6 0.0000 0.0000 0.0000 0.0000 0.0000 11.1254
#
#
#
# Elastic Compliance Matrix: (Units=1/GPa)
#
#
# Indices 1 2 3 4 5 6 
#
# 1 0.007740 0.000188 -0.003189 0.000000 0.000000 0.000000
# 2 0.000188 0.036030 -0.000610 0.000000 0.000000 0.000000
# 3 -0.003189 -0.000610 0.015344 0.000000 0.000000 0.000000
# 4 0.000000 0.000000 0.000000 -0.145716 0.000000 0.000000
# 5 0.000000 0.000000 0.000000 0.000000 0.038234 0.000000
# 6 0.000000 0.000000 0.000000 0.000000 0.000000 0.089884
#
#
# Mechanical properties :
#
#
# Convention : Reuss Voigt Hill
#
# Bulk Modulus (GPa) = 19.26970 33.41205 26.34088
# Shear Modulus (GPa) = 75.71727 20.09786 47.90756
#
# Velocity S-wave (km/s) = 6.10697 3.14632 4.85769
# Velocity P-wave (km/s) = 7.69533 5.44577 6.66613
#
# Compressibility (1/GPa) = 0.05189495
#
# Stress axis : x y z
#
# Youngs Moduli (GPa) = 129.19514 27.75442 65.17037
#
# Poissons Ratio (x) = -0.00523 0.20782
# Poissons Ratio (y) = -0.02433 0.03972
# Poissons Ratio (z) = 0.41198 0.01692
#
# Static dielectric constant tensor:
#      x y z
#    x 1.817560 0.000000 0.000000 
#    y 0.000000 1.732580 0.000000 
#    z 0.000000 0.000000 1.668530 
# 
# From -- ./inp_files/13577.got.cif
#   From: 2010.05.17/outbox.cif.g08.bks.cpg/sg62_7_cif.got.tgz:13577.got - 2010.06.03 15:25:27.
