data_PCOD9464932
_publ_section_title
;
Structure prediction by ZEFSAII (Michael W. Deem and Ramdas Pophale) SiO2 
 PCOD9464932
Probable space group: P N M A
;
_chemical_formula_sum "Si O2"
_cell_formula_units_Z 56
_cell_length_a 14.266844
_cell_length_b 14.316798
_cell_length_c 13.757981
_cell_angle_alpha 90.000000
_cell_angle_beta 90.000000
_cell_angle_gamma 90.000000
_cell_volume 2810.143613
_symmetry_space_group_name_H-M "P N M A"
_symmetry_group_IT_number 62
_symmetry_cell_setting 'orthorhombic'
loop_
_space_group_symop_operation_xyz
x,y,z
1/2-x,-y,1/2+z
1/2+x,1/2-y,1/2-z
-x,1/2+y,-z
-x,-y,-z
1/2+x,y,1/2-z
1/2-x,1/2+y,1/2+z
x,1/2-y,z
loop_
_atom_site_type_symbol
_atom_site_label
_atom_site_fract_x
_atom_site_fract_y
_atom_site_fract_z
Si Si1 0.132359 0.362287 0.116848
Si Si2 0.481157 0.639933 0.806600
Si Si3 0.590558 0.137974 0.599738
Si Si4 0.789746 0.643060 0.284073
Si Si5 0.671679 0.954510 0.881127
Si Si6 0.929041 0.141072 0.757660
Si Si7 0.912869 0.013031 0.572251
O O1 0.148804 0.250000 0.112452
O O2 0.229122 0.410838 0.148869
O O3 0.051544 0.377792 0.196337
O O4 0.104380 0.397275 0.009275
O O5 0.480917 0.750000 0.824695
O O6 0.583521 0.598984 0.833148
O O7 0.405522 0.586102 0.873935
O O8 0.578965 0.250000 0.589521
O O9 0.677286 0.123776 0.673390
O O10 0.500133 0.104630 0.660406
O O11 0.817900 0.750000 0.307235
O O12 0.833307 0.562585 0.349735
O O13 0.678095 0.635962 0.291830
O O14 0.665659 0.951280 0.998499
O O15 0.951143 0.250000 0.739637
O O16 0.934989 0.084975 0.657756
O O17 0.000000 0.000000 0.500000
#
# Coordination Sequence:
#
# PCOD9464932 Si02
#       7
#     8   8   8   8   8   8   8
#     4  10  21  38  61  89 119 155 199 240 286 353
#     4  10  22  40  59  83 120 160 198 243 295 352
#     4   9  18  35  59  84 111 147 192 241 289 340
#     4  10  21  37  58  84 114 149 193 246 299 349
#     4  11  22  38  61  88 120 157 199 244 294 350
#     4  10  20  37  60  85 117 151 188 243 302 351
#     4  10  21  35  54  83 113 149 193 237 286 345
#
# _framework density 19.927807000000001
#
# number of rings (size 3 to 8) (size 9 to 14) (size 15 to 20)
#    0.000    2.000    0.000    3.857    0.000    4.571 
#    0.000    9.286    0.000    3.429    0.000    0.000 
#    0.000    0.000    0.000    0.000    0.000    0.000 
#
# Total GULP energy -312481.489545 kJ/mol
# GULP energy per Si atom -5580.026599 kJ/mol
# Density = 1.988245 g / cm^3
# Si number density = 19.927807 Si / 1000 Ang^3
#
#
#
# Elastic Constant Matrix: (Units=GPa)
#
#
# Indices 1 2 3 4 5 6 
#
# 1 99.2913 35.0007 40.9879 0.0000 0.0000 0.0000
# 2 35.0007 83.4365 37.6741 0.0000 0.0000 0.0000
# 3 40.9879 37.6741 105.4786 0.0000 0.0000 0.0000
# 4 0.0000 0.0000 0.0000 35.2033 0.0000 0.0000
# 5 0.0000 0.0000 0.0000 0.0000 28.4132 0.0000
# 6 0.0000 0.0000 0.0000 0.0000 0.0000 20.3029
#
#
#
# Elastic Compliance Matrix: (Units=1/GPa)
#
#
# Indices 1 2 3 4 5 6 
#
# 1 0.012913 -0.003757 -0.003676 0.000000 0.000000 0.000000
# 2 -0.003757 0.015383 -0.004034 0.000000 0.000000 0.000000
# 3 -0.003676 -0.004034 0.012350 0.000000 0.000000 0.000000
# 4 0.000000 0.000000 0.000000 0.028406 0.000000 0.000000
# 5 0.000000 0.000000 0.000000 0.000000 0.035195 0.000000
# 6 0.000000 0.000000 0.000000 0.000000 0.000000 0.049254
#
#
# Mechanical properties :
#
#
# Convention : Reuss Voigt Hill
#
# Bulk Modulus (GPa) = 56.46165 57.28130 56.87148
# Shear Modulus (GPa) = 27.42127 28.42014 27.92071
#
# Velocity S-wave (km/s) = 3.71351 3.78054 3.74718
# Velocity P-wave (km/s) = 6.83970 6.91834 6.87914
#
# Compressibility (1/GPa) = 0.01771114
#
# Stress axis : x y z
#
# Youngs Moduli (GPa) = 77.43979 65.00730 80.97156
#
# Poissons Ratio (x) = 0.24424 0.29765
# Poissons Ratio (y) = 0.29095 0.32667
# Poissons Ratio (z) = 0.28467 0.26226
#
# Static dielectric constant tensor:
#      x y z
#    x 1.721800 0.000000 0.000000 
#    y 0.000000 1.718430 0.000000 
#    z 0.000000 0.000000 1.708390 
# 
# From -- ./inp_files/13396.got.cif
#   From: 2010.05.17/outbox.cif.g08.bks.cpg/sg62_7_cif.got.tgz:13396.got - 2010.06.03 15:25:27.
