data_PCOD9464175
_publ_section_title
;
Structure prediction by ZEFSAII (Michael W. Deem and Ramdas Pophale) SiO2 
 PCOD9464175
Probable space group: P N M A
;
_chemical_formula_sum "Si O2"
_cell_formula_units_Z 48
_cell_length_a 15.227947
_cell_length_b 8.821614
_cell_length_c 20.240193
_cell_angle_alpha 90.000000
_cell_angle_beta 90.000000
_cell_angle_gamma 90.000000
_cell_volume 2718.967753
_symmetry_space_group_name_H-M "P N M A"
_symmetry_group_IT_number 62
_symmetry_cell_setting 'orthorhombic'
loop_
_space_group_symop_operation_xyz
x,y,z
1/2-x,-y,1/2+z
1/2+x,1/2-y,1/2-z
-x,1/2+y,-z
-x,-y,-z
1/2+x,y,1/2-z
1/2-x,1/2+y,1/2+z
x,1/2-y,z
loop_
_atom_site_type_symbol
_atom_site_label
_atom_site_fract_x
_atom_site_fract_y
_atom_site_fract_z
Si Si1 0.608190 0.568097 0.185024
Si Si2 0.990661 0.431516 0.199410
Si Si3 0.736416 0.431392 0.515244
Si Si4 0.562625 0.432484 0.443996
Si Si5 0.920059 0.930456 0.540756
Si Si6 0.307495 0.930610 0.332207
O O1 0.602923 0.750000 0.180064
O O2 0.546248 0.506880 0.242418
O O3 0.581346 0.496889 0.114897
O O4 0.711298 0.529255 0.195923
O O5 0.996145 0.250000 0.204671
O O6 0.889342 0.482932 0.198816
O O7 0.031367 0.479191 0.128562
O O8 0.752596 0.250000 0.512037
O O9 0.662371 0.474241 0.462482
O O10 0.827639 0.518045 0.508973
O O11 0.698600 0.462206 0.588949
O O12 0.500000 0.500000 0.500000
O O13 0.557017 0.250000 0.447753
O O14 0.926257 0.750000 0.542729
O O15 0.000000 0.000000 0.500000
O O16 0.320660 0.750000 0.324497
#
# Coordination Sequence:
#
# PCOD9464175 Si02
#       6
#     8   8   8   8   8   8
#     4  10  22  41  61  82 113 153 195 237 285 344
#     4  11  22  35  56  87 118 151 190 239 290 341
#     4   9  18  35  57  82 115 152 189 234 281 335
#     4  10  20  34  55  85 119 152 189 232 282 336
#     4  11  22  39  63  88 114 148 191 239 288 344
#     4   9  18  35  59  80 106 150 192 231 284 341
#
# _framework density 17.653756999999999
#
# number of rings (size 3 to 8) (size 9 to 14) (size 15 to 20)
#    0.000    2.000    1.667    3.500    0.000    4.667 
#    3.000    0.000    0.000    0.000    0.000    0.000 
#    0.000    0.000    0.000    0.000    0.000    0.000 
#
# Total GULP energy -267998.406610 kJ/mol
# GULP energy per Si atom -5583.300138 kJ/mol
# Density = 1.761358 g / cm^3
# Si number density = 17.653757 Si / 1000 Ang^3
#
#
#
# Elastic Constant Matrix: (Units=GPa)
#
#
# Indices 1 2 3 4 5 6 
#
# 1 173.1430 76.7190 95.3939 0.0000 0.0000 0.0000
# 2 76.7190 74.4872 50.9406 0.0000 0.0000 0.0000
# 3 95.3939 50.9406 93.9560 0.0000 0.0000 0.0000
# 4 0.0000 0.0000 0.0000 26.7270 0.0000 0.0000
# 5 0.0000 0.0000 0.0000 0.0000 33.0792 0.0000
# 6 0.0000 0.0000 0.0000 0.0000 0.0000 33.5660
#
#
#
# Elastic Compliance Matrix: (Units=1/GPa)
#
#
# Indices 1 2 3 4 5 6 
#
# 1 0.015884 -0.008472 -0.011534 0.000000 0.000000 0.000000
# 2 -0.008472 0.025855 -0.005416 0.000000 0.000000 0.000000
# 3 -0.011534 -0.005416 0.025290 0.000000 0.000000 0.000000
# 4 0.000000 0.000000 0.000000 0.037415 0.000000 0.000000
# 5 0.000000 0.000000 0.000000 0.000000 0.030230 0.000000
# 6 0.000000 0.000000 0.000000 0.000000 0.000000 0.029792
#
#
# Mechanical properties :
#
#
# Convention : Reuss Voigt Hill
#
# Bulk Modulus (GPa) = 61.78522 87.52146 74.65334
# Shear Modulus (GPa) = 22.65442 26.57661 24.61551
#
# Velocity S-wave (km/s) = 3.58615 3.88420 3.73815
# Velocity P-wave (km/s) = 7.22645 8.35466 7.81095
#
# Compressibility (1/GPa) = 0.01618510
#
# Stress axis : x y z
#
# Youngs Moduli (GPa) = 62.95524 38.67673 39.54108
#
# Poissons Ratio (x) = 0.32768 0.45606
# Poissons Ratio (y) = 0.53338 0.21416
# Poissons Ratio (z) = 0.72612 0.20948
#
# Static dielectric constant tensor:
#      x y z
#    x 1.595240 0.000000 0.000000 
#    y 0.000000 1.596670 0.000000 
#    z 0.000000 0.000000 1.576610 
# 
# From -- ./inp_files/26853.got.cif
#   From: 2010.05.17/outbox.cif.g08.bks.cpg/sg62_14_cif.got.tgz:26853.got - 2010.06.03 15:25:27.
