data_PCOD9464813
_publ_section_title
;
Structure prediction by ZEFSAII (Michael W. Deem and Ramdas Pophale) SiO2 
 PCOD9464813
Probable space group: P N M A
;
_chemical_formula_sum "Si O2"
_cell_formula_units_Z 64
_cell_length_a 25.219591
_cell_length_b 9.144734
_cell_length_c 14.427633
_cell_angle_alpha 90.000000
_cell_angle_beta 90.000000
_cell_angle_gamma 90.000000
_cell_volume 3327.393799
_symmetry_space_group_name_H-M "P N M A"
_symmetry_group_IT_number 62
_symmetry_cell_setting 'orthorhombic'
loop_
_space_group_symop_operation_xyz
x,y,z
1/2-x,-y,1/2+z
1/2+x,1/2-y,1/2-z
-x,1/2+y,-z
-x,-y,-z
1/2+x,y,1/2-z
1/2-x,1/2+y,1/2+z
x,1/2-y,z
loop_
_atom_site_type_symbol
_atom_site_label
_atom_site_fract_x
_atom_site_fract_y
_atom_site_fract_z
Si Si1 0.619459 0.422368 0.613829
Si Si2 0.045374 0.073825 0.721005
Si Si3 0.675205 0.579734 0.458809
Si Si4 0.608313 0.075481 0.964061
Si Si5 0.939645 0.577260 0.655022
Si Si6 0.215871 0.923681 0.559220
Si Si7 0.278645 0.578397 0.255372
Si Si8 0.660143 0.580999 0.237614
O O1 0.613291 0.250000 0.593117
O O2 0.572104 0.469821 0.681861
O O3 0.628771 0.512947 0.521159
O O4 0.673320 0.438631 0.674144
O O5 0.041631 0.250000 0.720692
O O6 0.084264 0.034090 0.635582
O O7 0.988629 0.005343 0.700881
O O8 0.682977 0.750000 0.480296
O O9 0.729571 0.492521 0.477714
O O10 0.663269 0.567456 0.349356
O O11 0.619111 0.250000 0.963106
O O12 0.662558 0.990438 0.983666
O O13 0.566312 0.045852 0.045352
O O14 0.946223 0.750000 0.666862
O O15 0.884476 0.523955 0.698762
O O16 0.217014 0.750000 0.550263
O O17 0.213873 0.975746 0.666703
O O18 0.278528 0.750000 0.223850
O O19 0.220157 0.550961 0.296216
O O20 0.647161 0.750000 0.214824
#
# Coordination Sequence:
#
# PCOD9464813 Si02
#       8
#     8   8   8   8   8   8   8   8
#     4  10  20  36  61  90 117 153 196 238 292 352
#     4  10  21  40  63  83 117 159 193 233 292 360
#     4  10  22  39  59  84 119 158 193 243 298 348
#     4  10  21  39  58  83 119 158 192 236 295 347
#     4  11  24  38  59  87 116 150 198 252 290 337
#     4  11  21  33  55  87 119 154 195 236 282 346
#     4   9  18  36  58  82 118 155 188 233 293 351
#     4   9  20  39  60  81 114 157 195 235 294 353
#
# _framework density 19.234272000000001
#
# number of rings (size 3 to 8) (size 9 to 14) (size 15 to 20)
#    0.000    2.000    1.250    3.000    1.750    5.000 
#    0.000    0.625    0.000    0.000    0.000    0.000 
#    0.000    0.000    0.000    0.000    0.000    0.000 
#
# Total GULP energy -357532.894589 kJ/mol
# GULP energy per Si atom -5586.451478 kJ/mol
# Density = 1.919049 g / cm^3
# Si number density = 19.234272 Si / 1000 Ang^3
#
#
#
# Elastic Constant Matrix: (Units=GPa)
#
#
# Indices 1 2 3 4 5 6 
#
# 1 51.9455 13.0526 -4.7850 0.0000 0.0000 0.0000
# 2 13.0526 38.5531 8.3254 0.0000 0.0000 0.0000
# 3 -4.7850 8.3254 16.9289 0.0000 0.0000 0.0000
# 4 0.0000 0.0000 0.0000 23.9674 0.0000 0.0000
# 5 0.0000 0.0000 0.0000 0.0000 25.3206 0.0000
# 6 0.0000 0.0000 0.0000 0.0000 0.0000 29.0568
#
#
#
# Elastic Compliance Matrix: (Units=1/GPa)
#
#
# Indices 1 2 3 4 5 6 
#
# 1 0.022880 -0.010229 0.011498 0.000000 0.000000 0.000000
# 2 -0.010229 0.033593 -0.019412 0.000000 0.000000 0.000000
# 3 0.011498 -0.019412 0.071867 0.000000 0.000000 0.000000
# 4 0.000000 0.000000 0.000000 0.041723 0.000000 0.000000
# 5 0.000000 0.000000 0.000000 0.000000 0.039494 0.000000
# 6 0.000000 0.000000 0.000000 0.000000 0.000000 0.034415
#
#
# Mechanical properties :
#
#
# Convention : Reuss Voigt Hill
#
# Bulk Modulus (GPa) = 10.86321 15.62373 13.24347
# Shear Modulus (GPa) = 16.08002 21.72460 18.90231
#
# Velocity S-wave (km/s) = 2.89452 3.36441 3.13827
# Velocity P-wave (km/s) = 4.10257 4.82004 4.47571
#
# Compressibility (1/GPa) = 0.09205380
#
# Stress axis : x y z
#
# Youngs Moduli (GPa) = 43.70546 29.76773 13.91457
#
# Poissons Ratio (x) = 0.30450 -0.15999
# Poissons Ratio (y) = 0.44708 0.27011
# Poissons Ratio (z) = -0.50252 0.57785
#
# Static dielectric constant tensor:
#      x y z
#    x 1.658000 0.000000 0.000000 
#    y 0.000000 1.641620 0.000000 
#    z 0.000000 0.000000 1.692130 
# 
# From -- ./inp_files/20915.got.cif
#   From: 2010.05.17/outbox.cif.g08.bks.cpg/sg62_11_cif.got.tgz:20915.got - 2010.06.03 15:25:27.
