data_PCOD9464273
_publ_section_title
;
Structure prediction by ZEFSAII (Michael W. Deem and Ramdas Pophale) SiO2 
 PCOD9464273
Probable space group: P N M A
;
_chemical_formula_sum "Si O2"
_cell_formula_units_Z 52
_cell_length_a 10.150752
_cell_length_b 9.680923
_cell_length_c 22.869790
_cell_angle_alpha 90.000000
_cell_angle_beta 90.000000
_cell_angle_gamma 90.000000
_cell_volume 2247.383355
_symmetry_space_group_name_H-M "P N M A"
_symmetry_group_IT_number 62
_symmetry_cell_setting 'orthorhombic'
loop_
_space_group_symop_operation_xyz
x,y,z
1/2-x,-y,1/2+z
1/2+x,1/2-y,1/2-z
-x,1/2+y,-z
-x,-y,-z
1/2+x,y,1/2-z
1/2-x,1/2+y,1/2+z
x,1/2-y,z
loop_
_atom_site_type_symbol
_atom_site_label
_atom_site_fract_x
_atom_site_fract_y
_atom_site_fract_z
Si Si1 0.432793 0.403305 0.932325
Si Si2 0.359187 0.004925 0.809571
Si Si3 0.387340 0.091515 0.135437
Si Si4 0.855931 0.091008 0.821803
Si Si5 0.967611 0.250000 0.976162
Si Si6 0.170458 0.508015 0.983235
Si Si7 0.407120 0.400472 0.355066
O O1 0.478283 0.250000 0.948085
O O2 0.365810 0.399140 0.867146
O O3 0.543881 0.516544 0.919518
O O4 0.318403 0.459143 0.973381
O O5 0.354416 0.081864 0.748612
O O6 0.495101 0.919073 0.816033
O O7 0.226979 0.916941 0.818508
O O8 0.353359 0.250000 0.124576
O O9 0.263971 0.001936 0.155572
O O10 0.848019 0.250000 0.839892
O O11 0.992589 0.022651 0.841769
O O12 0.080091 0.372413 0.987215
O O13 0.857609 0.124102 0.968739
O O14 0.131115 0.589005 0.923226
O O15 0.467795 0.250000 0.343963
#
# Coordination Sequence:
#
# PCOD9464273 Si02
#       7
#     8   8   8   8   4   8   8
#     4   9  18  34  56  80 116 151 191 238 284 349
#     4   9  22  35  61  80 114 154 210 251 291 340
#     4  10  22  37  56  80 110 156 204 243 288 349
#     4  12  25  38  54  82 118 166 207 247 293 348
#     4  10  20  34  60  94 124 146 186 246 300 382
#     4  10  20  35  59  94 124 150 188 241 314 353
#     4  11  23  39  60  87 127 159 194 254 304 349
#
# _framework density 23.138020999999998
#
# number of rings (size 3 to 8) (size 9 to 14) (size 15 to 20)
#    0.923    0.923    1.538    2.769    2.154    6.154 
#    0.000    0.000    0.000    0.000    0.000    6.462 
#    0.000    0.000    0.000    0.000    0.000    0.000 
#
# Total GULP energy -289540.769626 kJ/mol
# GULP energy per Si atom -5568.091724 kJ/mol
# Density = 2.308536 g / cm^3
# Si number density = 23.138021 Si / 1000 Ang^3
#
#
#
# Elastic Constant Matrix: (Units=GPa)
#
#
# Indices 1 2 3 4 5 6 
#
# 1 115.3260 56.5106 43.2492 0.0000 0.0000 0.0000
# 2 56.5106 227.0685 38.3093 0.0000 0.0000 0.0000
# 3 43.2492 38.3093 55.4064 0.0000 0.0000 0.0000
# 4 0.0000 0.0000 0.0000 2.0099 0.0000 0.0000
# 5 0.0000 0.0000 0.0000 0.0000 31.2938 0.0000
# 6 0.0000 0.0000 0.0000 0.0000 0.0000 23.6900
#
#
#
# Elastic Compliance Matrix: (Units=1/GPa)
#
#
# Indices 1 2 3 4 5 6 
#
# 1 0.012814 -0.001700 -0.008827 0.000000 0.000000 0.000000
# 2 -0.001700 0.005211 -0.002276 0.000000 0.000000 0.000000
# 3 -0.008827 -0.002276 0.026513 0.000000 0.000000 0.000000
# 4 0.000000 0.000000 0.000000 0.497538 0.000000 0.000000
# 5 0.000000 0.000000 0.000000 0.000000 0.031955 0.000000
# 6 0.000000 0.000000 0.000000 0.000000 0.000000 0.042212
#
#
# Mechanical properties :
#
#
# Convention : Reuss Voigt Hill
#
# Bulk Modulus (GPa) = 52.82227 74.88212 63.85220
# Shear Modulus (GPa) = 7.71413 28.71419 18.21416
#
# Velocity S-wave (km/s) = 1.82790 3.52660 2.80875
# Velocity P-wave (km/s) = 5.22816 7.00114 6.17858
#
# Compressibility (1/GPa) = 0.01893141
#
# Stress axis : x y z
#
# Youngs Moduli (GPa) = 78.03692 191.90132 37.71768
#
# Poissons Ratio (x) = 0.32620 0.33295
# Poissons Ratio (y) = 0.13265 0.08585
# Poissons Ratio (z) = 0.68886 0.43680
#
# Static dielectric constant tensor:
#      x y z
#    x 1.873270 0.000000 0.000000 
#    y 0.000000 1.807160 0.000000 
#    z 0.000000 0.000000 1.962820 
# 
# From -- ./inp_files/32364.got.cif
#   From: 2010.05.17/outbox.cif.g08.bks.cpg/sg62_17_cif.got.tgz:32364.got - 2010.06.03 15:25:27.
