data_PCOD9464195
_publ_section_title
;
Structure prediction by ZEFSAII (Michael W. Deem and Ramdas Pophale) SiO2 
 PCOD9464195
Probable space group: P N M A
;
_chemical_formula_sum "Si O2"
_cell_formula_units_Z 64
_cell_length_a 21.026513
_cell_length_b 21.336644
_cell_length_c 8.216386
_cell_angle_alpha 90.000000
_cell_angle_beta 90.000000
_cell_angle_gamma 90.000000
_cell_volume 3686.160161
_symmetry_space_group_name_H-M "P N M A"
_symmetry_group_IT_number 62
_symmetry_cell_setting 'orthorhombic'
loop_
_space_group_symop_operation_xyz
x,y,z
1/2-x,-y,1/2+z
1/2+x,1/2-y,1/2-z
-x,1/2+y,-z
-x,-y,-z
1/2+x,y,1/2-z
1/2-x,1/2+y,1/2+z
x,1/2-y,z
loop_
_atom_site_type_symbol
_atom_site_label
_atom_site_fract_x
_atom_site_fract_y
_atom_site_fract_z
Si Si1 0.795706 0.417511 0.961271
Si Si2 0.045215 0.037700 0.797876
Si Si3 0.443221 0.408492 0.471585
Si Si4 0.091265 0.090827 0.468735
Si Si5 0.147503 0.377827 0.986939
Si Si6 0.036427 0.322526 0.201238
Si Si7 0.193658 0.176291 0.655891
Si Si8 0.797452 0.538303 0.741708
O O1 0.758176 0.356167 0.903852
O O2 0.790155 0.470462 0.821616
O O3 0.868900 0.404252 0.997145
O O4 0.759664 0.444555 0.120550
O O5 0.056733 0.052540 0.610194
O O6 0.044289 0.965050 0.844187
O O7 0.103295 0.069184 0.900517
O O8 0.981617 0.069696 0.867804
O O9 0.476316 0.346659 0.401641
O O10 0.045858 0.131474 0.354164
O O11 0.138178 0.140518 0.556825
O O12 0.136914 0.046759 0.359667
O O13 0.098887 0.335234 0.090125
O O14 0.194938 0.412235 0.110714
O O15 0.181505 0.339763 0.844788
O O16 0.032144 0.250000 0.245665
O O17 0.192017 0.250000 0.627148
#
# Coordination Sequence:
#
# PCOD9464195 Si02
#       8
#     8   8   8   8   8   8   8   8
#     4  11  22  35  54  82 113 148 176 225 276 338
#     4   9  18  36  57  82 108 134 182 231 279 320
#     4  10  21  35  55  78 114 146 176 223 275 338
#     4   9  20  35  58  86 104 137 185 237 273 309
#     4   9  17  35  58  82 104 138 189 233 269 304
#     4  10  20  35  55  81 112 147 184 223 270 328
#     4  10  20  35  56  80 110 146 181 222 267 323
#     4  10  20  34  56  83 109 136 182 231 280 313
#
# _framework density 17.36224
#
# number of rings (size 3 to 8) (size 9 to 14) (size 15 to 20)
#    0.000    2.250    1.250    1.500    5.250    1.000 
#    0.000    1.250    0.000    1.500    0.000    0.000 
#    0.000    0.000    0.000    0.000    0.000    0.000 
#
# Total GULP energy -357259.350490 kJ/mol
# GULP energy per Si atom -5582.177351 kJ/mol
# Density = 1.732272 g / cm^3
# Si number density = 17.362240 Si / 1000 Ang^3
#
#
#
# Elastic Constant Matrix: (Units=GPa)
#
#
# Indices 1 2 3 4 5 6 
#
# 1 75.6807 10.4035 22.3072 0.0000 0.0000 0.0000
# 2 10.4035 53.5324 9.2963 0.0000 0.0000 0.0000
# 3 22.3072 9.2963 78.5072 0.0000 0.0000 0.0000
# 4 0.0000 0.0000 0.0000 16.2802 0.0000 0.0000
# 5 0.0000 0.0000 0.0000 0.0000 18.3867 0.0000
# 6 0.0000 0.0000 0.0000 0.0000 0.0000 12.5566
#
#
#
# Elastic Compliance Matrix: (Units=1/GPa)
#
#
# Indices 1 2 3 4 5 6 
#
# 1 0.014664 -0.002171 -0.003910 0.000000 0.000000 0.000000
# 2 -0.002171 0.019394 -0.001680 0.000000 0.000000 0.000000
# 3 -0.003910 -0.001680 0.014047 0.000000 0.000000 0.000000
# 4 0.000000 0.000000 0.000000 0.061424 0.000000 0.000000
# 5 0.000000 0.000000 0.000000 0.000000 0.054387 0.000000
# 6 0.000000 0.000000 0.000000 0.000000 0.000000 0.079639
#
#
# Mechanical properties :
#
#
# Convention : Reuss Voigt Hill
#
# Bulk Modulus (GPa) = 30.68884 32.41492 31.55188
# Shear Modulus (GPa) = 18.52276 20.49227 19.50752
#
# Velocity S-wave (km/s) = 3.26980 3.43924 3.35559
# Velocity P-wave (km/s) = 5.65415 5.87210 5.76415
#
# Compressibility (1/GPa) = 0.03258513
#
# Stress axis : x y z
#
# Youngs Moduli (GPa) = 68.19321 51.56270 71.18723
#
# Poissons Ratio (x) = 0.11194 0.27832
# Poissons Ratio (y) = 0.14804 0.11957
# Poissons Ratio (z) = 0.26661 0.08661
#
# Static dielectric constant tensor:
#      x y z
#    x 1.578260 0.000000 0.000000 
#    y 0.000000 1.564610 0.000000 
#    z 0.000000 0.000000 1.595590 
# 
# From -- ./inp_files/8851.got.cif
#   From: 2010.05.17/outbox.cif.g08.bks.cpg/sg62_5_cif.got.tgz:8851.got - 2010.06.03 15:25:27.
