data_PCOD9464686
_publ_section_title
;
Structure prediction by ZEFSAII (Michael W. Deem and Ramdas Pophale) SiO2 
 PCOD9464686
Probable space group: P N M A
;
_chemical_formula_sum "Si O2"
_cell_formula_units_Z 40
_cell_length_a 10.214645
_cell_length_b 21.319866
_cell_length_c 9.406335
_cell_angle_alpha 90.000000
_cell_angle_beta 90.000000
_cell_angle_gamma 90.000000
_cell_volume 2048.463313
_symmetry_space_group_name_H-M "P N M A"
_symmetry_group_IT_number 62
_symmetry_cell_setting 'orthorhombic'
loop_
_space_group_symop_operation_xyz
x,y,z
1/2-x,-y,1/2+z
1/2+x,1/2-y,1/2-z
-x,1/2+y,-z
-x,-y,-z
1/2+x,y,1/2-z
1/2-x,1/2+y,1/2+z
x,1/2-y,z
loop_
_atom_site_type_symbol
_atom_site_label
_atom_site_fract_x
_atom_site_fract_y
_atom_site_fract_z
Si Si1 0.976309 0.426530 0.143218
Si Si2 0.314668 0.024719 0.587458
Si Si3 0.323740 0.137417 0.786257
Si Si4 0.054272 0.320225 0.922106
Si Si5 0.921718 0.437489 0.454739
O O1 0.970219 0.408399 0.307102
O O2 0.050297 0.493595 0.139590
O O3 0.839184 0.442479 0.064648
O O4 0.040762 0.374112 0.042074
O O5 0.272481 0.076667 0.699334
O O6 0.219603 0.966733 0.576210
O O7 0.429178 0.170670 0.683089
O O8 0.193201 0.171862 0.840778
O O9 0.406550 0.111895 0.919914
O O10 0.048548 0.250000 0.982300
O O11 0.000000 0.500000 0.500000
#
# Coordination Sequence:
#
# PCOD9464686 Si02
#       5
#     8   8   8   8   8
#     4  10  22  36  59  87 125 164 192 252 314 372
#     4  10  20  36  57  91 125 151 194 250 322 370
#     4  11  22  39  66  93 122 161 210 262 315 369
#     4  11  24  45  63  86 123 174 219 255 301 376
#     4  12  21  33  60  96 126 152 192 255 323 384
#
# _framework density 19.526831999999999
#
# number of rings (size 3 to 8) (size 9 to 14) (size 15 to 20)
#    0.000    1.200    4.000    3.000    2.800    0.000 
#    0.000    2.000    0.000    0.000    0.000    0.000 
#    0.000    0.000    0.000    0.000    0.000    0.000 
#
# Total GULP energy -223158.684284 kJ/mol
# GULP energy per Si atom -5578.967107 kJ/mol
# Density = 1.948239 g / cm^3
# Si number density = 19.526832 Si / 1000 Ang^3
#
#
#
# Elastic Constant Matrix: (Units=GPa)
#
#
# Indices 1 2 3 4 5 6 
#
# 1 57.6797 10.9363 15.9686 0.0000 0.0000 0.0000
# 2 10.9363 83.8045 22.9312 0.0000 0.0000 0.0000
# 3 15.9686 22.9312 98.9982 0.0000 0.0000 0.0000
# 4 0.0000 0.0000 0.0000 15.4888 0.0000 0.0000
# 5 0.0000 0.0000 0.0000 0.0000 11.7625 0.0000
# 6 0.0000 0.0000 0.0000 0.0000 0.0000 17.7023
#
#
#
# Elastic Compliance Matrix: (Units=1/GPa)
#
#
# Indices 1 2 3 4 5 6 
#
# 1 0.018370 -0.001694 -0.002571 0.000000 0.000000 0.000000
# 2 -0.001694 0.012896 -0.002714 0.000000 0.000000 0.000000
# 3 -0.002571 -0.002714 0.011145 0.000000 0.000000 0.000000
# 4 0.000000 0.000000 0.000000 0.064563 0.000000 0.000000
# 5 0.000000 0.000000 0.000000 0.000000 0.085016 0.000000
# 6 0.000000 0.000000 0.000000 0.000000 0.000000 0.056490
#
#
# Mechanical properties :
#
#
# Convention : Reuss Voigt Hill
#
# Bulk Modulus (GPa) = 35.14494 37.79495 36.46995
# Shear Modulus (GPa) = 18.38769 21.70046 20.04408
#
# Velocity S-wave (km/s) = 3.07198 3.33726 3.20736
# Velocity P-wave (km/s) = 5.53354 5.85210 5.69505
#
# Compressibility (1/GPa) = 0.02845359
#
# Stress axis : x y z
#
# Youngs Moduli (GPa) = 54.43660 77.54228 89.73031
#
# Poissons Ratio (x) = 0.13134 0.23068
# Poissons Ratio (y) = 0.09221 0.24352
# Poissons Ratio (z) = 0.13994 0.21045
#
# Static dielectric constant tensor:
#      x y z
#    x 1.873020 0.000000 0.000000 
#    y 0.000000 1.732120 0.000000 
#    z 0.000000 0.000000 1.762040 
# 
# From -- ./inp_files/4283.got.cif
#   From: 2010.05.17/outbox.cif.g08.bks.cpg/sg62_3_cif.got.tgz:4283.got - 2010.06.03 15:25:27.
