data_PCOD9464560
_publ_section_title
;
Structure prediction by ZEFSAII (Michael W. Deem and Ramdas Pophale) SiO2 
 PCOD9464560
Probable space group: P N M A
;
_chemical_formula_sum "Si O2"
_cell_formula_units_Z 48
_cell_length_a 25.928023
_cell_length_b 16.803393
_cell_length_c 5.102885
_cell_angle_alpha 90.000000
_cell_angle_beta 90.000000
_cell_angle_gamma 90.000000
_cell_volume 2223.218610
_symmetry_space_group_name_H-M "P N M A"
_symmetry_group_IT_number 62
_symmetry_cell_setting 'orthorhombic'
loop_
_space_group_symop_operation_xyz
x,y,z
1/2-x,-y,1/2+z
1/2+x,1/2-y,1/2-z
-x,1/2+y,-z
-x,-y,-z
1/2+x,y,1/2-z
1/2-x,1/2+y,1/2+z
x,1/2-y,z
loop_
_atom_site_type_symbol
_atom_site_label
_atom_site_fract_x
_atom_site_fract_y
_atom_site_fract_z
Si Si1 0.691329 0.337876 0.342462
Si Si2 0.455754 0.058232 0.615577
Si Si3 0.771114 0.457054 0.188200
Si Si4 0.591141 0.337535 0.978674
Si Si5 0.370571 0.968525 0.368362
Si Si6 0.978465 0.341225 0.367959
O O1 0.697393 0.250000 0.450679
O O2 0.744311 0.372410 0.231480
O O3 0.669281 0.399716 0.550239
O O4 0.645226 0.337207 0.129936
O O5 0.466145 0.098250 0.894814
O O6 0.500000 0.000000 0.500000
O O7 0.402958 0.008071 0.600407
O O8 0.453240 0.127574 0.397392
O O9 0.742055 0.515395 0.393458
O O10 0.831883 0.465438 0.246463
O O11 0.586952 0.250000 0.839710
O O12 0.590672 0.417711 0.809130
O O13 0.540896 0.341319 0.162210
O O14 0.963890 0.250000 0.429887
#
# Coordination Sequence:
#
# PCOD9464560 Si02
#       6
#     8   8   8   8   8   8
#     4  10  21  38  60  90 122 157 199 257 318 371
#     4  12  24  39  66  93 128 165 217 259 310 370
#     4  10  21  38  60  86 120 156 194 245 306 369
#     4  10  20  35  60  89 121 157 202 256 315 366
#     4  11  22  36  62  89 124 157 211 252 314 358
#     4  11  25  43  61  90 129 172 209 259 313 370
#
# _framework density 21.590318
#
# number of rings (size 3 to 8) (size 9 to 14) (size 15 to 20)
#    0.000    1.333    3.333    2.500    2.333    0.000 
#    0.000    1.667    0.000    0.000    0.000    0.000 
#    0.000    0.000    0.000    0.000    0.000    0.000 
#
# Total GULP energy -267904.835562 kJ/mol
# GULP energy per Si atom -5581.350741 kJ/mol
# Density = 2.154118 g / cm^3
# Si number density = 21.590318 Si / 1000 Ang^3
#
#
#
# Elastic Constant Matrix: (Units=GPa)
#
#
# Indices 1 2 3 4 5 6 
#
# 1 58.8618 34.5098 -2.6732 0.0000 0.0000 0.0000
# 2 34.5098 94.6840 8.1329 0.0000 0.0000 0.0000
# 3 -2.6732 8.1329 52.7073 0.0000 0.0000 0.0000
# 4 0.0000 0.0000 0.0000 30.0617 0.0000 0.0000
# 5 0.0000 0.0000 0.0000 0.0000 25.7665 0.0000
# 6 0.0000 0.0000 0.0000 0.0000 0.0000 34.8528
#
#
#
# Elastic Compliance Matrix: (Units=1/GPa)
#
#
# Indices 1 2 3 4 5 6 
#
# 1 0.021895 -0.008184 0.002373 0.000000 0.000000 0.000000
# 2 -0.008184 0.013762 -0.002539 0.000000 0.000000 0.000000
# 3 0.002373 -0.002539 0.019485 0.000000 0.000000 0.000000
# 4 0.000000 0.000000 0.000000 0.033265 0.000000 0.000000
# 5 0.000000 0.000000 0.000000 0.000000 0.038810 0.000000
# 6 0.000000 0.000000 0.000000 0.000000 0.000000 0.028692
#
#
# Mechanical properties :
#
#
# Convention : Reuss Voigt Hill
#
# Bulk Modulus (GPa) = 26.01229 31.79912 28.90570
# Shear Modulus (GPa) = 26.96548 29.22177 28.09362
#
# Velocity S-wave (km/s) = 3.53790 3.68294 3.61115
# Velocity P-wave (km/s) = 5.36314 5.73112 5.55018
#
# Compressibility (1/GPa) = 0.03844337
#
# Stress axis : x y z
#
# Youngs Moduli (GPa) = 45.67278 72.66204 51.32206
#
# Poissons Ratio (x) = 0.59466 -0.12180
# Poissons Ratio (y) = 0.37378 0.13029
# Poissons Ratio (z) = -0.10840 0.18446
#
# Static dielectric constant tensor:
#      x y z
#    x 1.796090 0.000000 0.000000 
#    y 0.000000 1.844110 0.000000 
#    z 0.000000 0.000000 1.819870 
# 
# From -- ./inp_files/2750.got.cif
#   From: 2010.05.17/outbox.cif.g08.bks.cpg/sg62_2_cif.got.tgz:2750.got - 2010.06.03 15:25:27.
