data_PCOD9464340
_publ_section_title
;
Structure prediction by ZEFSAII (Michael W. Deem and Ramdas Pophale) SiO2 
 PCOD9464340
Probable space group: P N M A
;
_chemical_formula_sum "Si O2"
_cell_formula_units_Z 48
_cell_length_a 31.881963
_cell_length_b 8.515592
_cell_length_c 9.555415
_cell_angle_alpha 90.000000
_cell_angle_beta 90.000000
_cell_angle_gamma 90.000000
_cell_volume 2594.235824
_symmetry_space_group_name_H-M "P N M A"
_symmetry_group_IT_number 62
_symmetry_cell_setting 'orthorhombic'
loop_
_space_group_symop_operation_xyz
x,y,z
1/2-x,-y,1/2+z
1/2+x,1/2-y,1/2-z
-x,1/2+y,-z
-x,-y,-z
1/2+x,y,1/2-z
1/2-x,1/2+y,1/2+z
x,1/2-y,z
loop_
_atom_site_type_symbol
_atom_site_label
_atom_site_fract_x
_atom_site_fract_y
_atom_site_fract_z
Si Si1 0.962206 0.438086 0.092820
Si Si2 0.288895 0.440192 0.587554
Si Si3 0.710165 0.940055 0.089246
Si Si4 0.962076 0.563200 0.407451
Si Si5 0.631444 0.559114 0.590871
Si Si6 0.871234 0.060170 0.415307
O O1 0.962816 0.250000 0.091974
O O2 0.966935 0.496893 0.251022
O O3 0.915404 0.489590 0.045568
O O4 0.000000 0.500000 0.000000
O O5 0.289050 0.250000 0.587156
O O6 0.248947 0.497688 0.500757
O O7 0.331138 0.495063 0.508637
O O8 0.287447 0.491951 0.749216
O O9 0.711351 0.750000 0.087337
O O10 0.666737 0.988694 0.015174
O O11 0.962998 0.750000 0.404482
O O12 0.916378 0.506048 0.458433
O O13 0.000000 0.500000 0.500000
O O14 0.632220 0.750000 0.589311
O O15 0.637291 0.512013 0.753565
O O16 0.873865 0.250000 0.416763
#
# Coordination Sequence:
#
# PCOD9464340 Si02
#       6
#     8   8   8   8   8   8
#     4  10  20  36  57  83 113 147 188 230 278 331
#     4  10  20  35  55  79 107 142 183 222 266 324
#     4  10  21  35  54  81 110 142 179 222 273 325
#     4  11  22  37  57  82 112 146 184 227 277 331
#     4   8  16  32  53  74 102 142 181 221 269 320
#     4   9  18  35  55  75 105 143 182 224 273 327
#
# _framework density 18.502559000000002
#
# number of rings (size 3 to 8) (size 9 to 14) (size 15 to 20)
#    0.000    2.333    0.000    4.000    0.000    4.000 
#    0.000    9.167    0.000    0.000    0.000    0.000 
#    0.000    0.000    0.000    0.000    0.000    0.000 
#
# Total GULP energy -267912.844610 kJ/mol
# GULP energy per Si atom -5581.517596 kJ/mol
# Density = 1.846045 g / cm^3
# Si number density = 18.502559 Si / 1000 Ang^3
#
#
#
# Elastic Constant Matrix: (Units=GPa)
#
#
# Indices 1 2 3 4 5 6 
#
# 1 221.5407 41.4916 129.5478 0.0000 0.0000 0.0000
# 2 41.4916 36.7800 28.6886 0.0000 0.0000 0.0000
# 3 129.5478 28.6886 130.4112 0.0000 0.0000 0.0000
# 4 0.0000 0.0000 0.0000 24.9278 0.0000 0.0000
# 5 0.0000 0.0000 0.0000 0.0000 43.3861 0.0000
# 6 0.0000 0.0000 0.0000 0.0000 0.0000 32.9959
#
#
#
# Elastic Compliance Matrix: (Units=1/GPa)
#
#
# Indices 1 2 3 4 5 6 
#
# 1 0.011453 -0.004884 -0.010303 0.000000 0.000000 0.000000
# 2 -0.004884 0.034903 -0.002826 0.000000 0.000000 0.000000
# 3 -0.010303 -0.002826 0.018525 0.000000 0.000000 0.000000
# 4 0.000000 0.000000 0.000000 0.040116 0.000000 0.000000
# 5 0.000000 0.000000 0.000000 0.000000 0.023049 0.000000
# 6 0.000000 0.000000 0.000000 0.000000 0.000000 0.030307
#
#
# Mechanical properties :
#
#
# Convention : Reuss Voigt Hill
#
# Bulk Modulus (GPa) = 34.65732 87.57644 61.11688
# Shear Modulus (GPa) = 24.51000 32.86220 28.68610
#
# Velocity S-wave (km/s) = 3.64357 4.21894 3.94176
# Velocity P-wave (km/s) = 6.03925 8.43608 7.33621
#
# Compressibility (1/GPa) = 0.02885394
#
# Stress axis : x y z
#
# Youngs Moduli (GPa) = 87.30984 28.65074 53.98164
#
# Poissons Ratio (x) = 0.13993 0.55618
# Poissons Ratio (y) = 0.42643 0.15257
# Poissons Ratio (z) = 0.89957 0.08098
#
# Static dielectric constant tensor:
#      x y z
#    x 1.627780 0.000000 0.000000 
#    y 0.000000 1.638170 0.000000 
#    z 0.000000 0.000000 1.612580 
# 
# From -- ./inp_files/10166.got.cif
#   From: 2010.05.17/outbox.cif.g08.bks.cpg/sg62_6_cif.got.tgz:10166.got - 2010.06.03 15:25:27.
