data_PCOD9464891
_publ_section_title
;
Structure prediction by ZEFSAII (Michael W. Deem and Ramdas Pophale) SiO2 
 PCOD9464891
Probable space group: P N M A
;
_chemical_formula_sum "Si O2"
_cell_formula_units_Z 40
_cell_length_a 8.030275
_cell_length_b 25.956947
_cell_length_c 9.197961
_cell_angle_alpha 90.000000
_cell_angle_beta 90.000000
_cell_angle_gamma 90.000000
_cell_volume 1917.236076
_symmetry_space_group_name_H-M "P N M A"
_symmetry_group_IT_number 62
_symmetry_cell_setting 'orthorhombic'
loop_
_space_group_symop_operation_xyz
x,y,z
1/2-x,-y,1/2+z
1/2+x,1/2-y,1/2-z
-x,1/2+y,-z
-x,-y,-z
1/2+x,y,1/2-z
1/2-x,1/2+y,1/2+z
x,1/2-y,z
loop_
_atom_site_type_symbol
_atom_site_label
_atom_site_fract_x
_atom_site_fract_y
_atom_site_fract_z
Si Si1 0.637573 0.750000 0.333227
Si Si2 0.243170 0.043212 0.473516
Si Si3 0.631367 0.660467 0.838191
Si Si4 0.774389 0.750000 0.026127
Si Si5 0.118940 0.957675 0.677099
Si Si6 0.761535 0.660757 0.528185
O O1 0.644418 0.750000 0.159893
O O2 0.452306 0.750000 0.396982
O O3 0.728727 0.700222 0.399869
O O4 0.377826 0.032735 0.349010
O O5 0.263848 0.102045 0.523873
O O6 0.066262 0.041087 0.387755
O O7 0.226701 0.001042 0.597474
O O8 0.684560 0.600491 0.849823
O O9 0.642084 0.672115 0.666335
O O10 0.446249 0.665316 0.903504
O O11 0.744006 0.700035 0.926987
#
# Coordination Sequence:
#
# PCOD9464891 Si02
#       6
#     4   8   8   4   8   8
#     4  12  25  40  57  80 110 142 180 226 277 326
#     4   9  19  35  55  81 111 143 180 221 265 316
#     4  10  20  37  59  82 110 145 185 224 267 322
#     4  12  25  40  57  80 110 142 180 226 277 326
#     4   9  19  35  55  81 111 143 180 221 265 316
#     4  10  20  37  59  82 110 145 185 224 267 322
#
# _framework density 20.863367
#
# number of rings (size 3 to 8) (size 9 to 14) (size 15 to 20)
#    0.000    2.000    0.000    3.600    0.000    4.000 
#    0.000    4.000    0.000    0.000    0.000    0.000 
#    0.000    0.000    0.000    0.000    0.000    0.000 
#
# Total GULP energy -223583.551669 kJ/mol
# GULP energy per Si atom -5589.588792 kJ/mol
# Density = 2.081588 g / cm^3
# Si number density = 20.863367 Si / 1000 Ang^3
#
#
#
# Elastic Constant Matrix: (Units=GPa)
#
#
# Indices 1 2 3 4 5 6 
#
# 1 48.3120 17.0275 -4.3071 0.0000 0.0000 0.0000
# 2 17.0275 71.2248 40.1850 0.0000 0.0000 0.0000
# 3 -4.3071 40.1850 49.9379 0.0000 0.0000 0.0000
# 4 0.0000 0.0000 0.0000 34.8798 0.0000 0.0000
# 5 0.0000 0.0000 0.0000 0.0000 32.9400 0.0000
# 6 0.0000 0.0000 0.0000 0.0000 0.0000 11.5888
#
#
#
# Elastic Compliance Matrix: (Units=1/GPa)
#
#
# Indices 1 2 3 4 5 6 
#
# 1 0.026925 -0.014189 0.013740 0.000000 0.000000 0.000000
# 2 -0.014189 0.033192 -0.027933 0.000000 0.000000 0.000000
# 3 0.013740 -0.027933 0.043688 0.000000 0.000000 0.000000
# 4 0.000000 0.000000 0.000000 0.028670 0.000000 0.000000
# 5 0.000000 0.000000 0.000000 0.000000 0.030358 0.000000
# 6 0.000000 0.000000 0.000000 0.000000 0.000000 0.086290
#
#
# Mechanical properties :
#
#
# Convention : Reuss Voigt Hill
#
# Bulk Modulus (GPa) = 21.25854 30.58730 25.92292
# Shear Modulus (GPa) = 15.54882 23.65301 19.60092
#
# Velocity S-wave (km/s) = 2.73292 3.37071 3.06843
# Velocity P-wave (km/s) = 4.49111 5.46274 5.00058
#
# Compressibility (1/GPa) = 0.04703991
#
# Stress axis : x y z
#
# Youngs Moduli (GPa) = 37.14082 30.12756 22.88961
#
# Poissons Ratio (x) = 0.42748 -0.31450
# Poissons Ratio (y) = 0.52699 0.63939
# Poissons Ratio (z) = -0.51031 0.84157
#
# Static dielectric constant tensor:
#      x y z
#    x 1.791860 0.000000 0.000000 
#    y 0.000000 1.724160 0.000000 
#    z 0.000000 0.000000 1.695180 
# 
# From -- ./inp_files/4363.got.cif
#   From: 2010.05.17/outbox.cif.g08.bks.cpg/sg62_3_cif.got.tgz:4363.got - 2010.06.03 15:25:27.
