data_PCOD9464568
_publ_section_title
;
Structure prediction by ZEFSAII (Michael W. Deem and Ramdas Pophale) SiO2 
 PCOD9464568
Probable space group: P N M A
;
_chemical_formula_sum "Si O2"
_cell_formula_units_Z 56
_cell_length_a 11.102754
_cell_length_b 14.713414
_cell_length_c 14.119384
_cell_angle_alpha 90.000000
_cell_angle_beta 90.000000
_cell_angle_gamma 90.000000
_cell_volume 2306.534327
_symmetry_space_group_name_H-M "P N M A"
_symmetry_group_IT_number 62
_symmetry_cell_setting 'orthorhombic'
loop_
_space_group_symop_operation_xyz
x,y,z
1/2-x,-y,1/2+z
1/2+x,1/2-y,1/2-z
-x,1/2+y,-z
-x,-y,-z
1/2+x,y,1/2-z
1/2-x,1/2+y,1/2+z
x,1/2-y,z
loop_
_atom_site_type_symbol
_atom_site_label
_atom_site_fract_x
_atom_site_fract_y
_atom_site_fract_z
Si Si1 0.042791 0.613633 0.848390
Si Si2 0.412131 0.646396 0.831842
Si Si3 0.833998 0.347197 0.966791
Si Si4 0.216441 0.995662 0.750688
Si Si5 0.812597 0.359272 0.626984
Si Si6 0.050339 0.354348 0.536382
Si Si7 0.810657 0.950341 0.941969
O O1 0.096828 0.517827 0.812756
O O2 0.016029 0.655122 0.746344
O O3 0.916459 0.613530 0.903328
O O4 0.137286 0.655356 0.921057
O O5 0.366880 0.750000 0.846382
O O6 0.313127 0.577197 0.791705
O O7 0.457464 0.605788 0.931255
O O8 0.880467 0.250000 0.927299
O O9 0.692017 0.352160 0.943775
O O10 0.875133 0.450289 0.947331
O O11 0.212957 0.968271 0.640890
O O12 0.266265 0.094711 0.776559
O O13 0.793642 0.250000 0.627045
O O14 0.746661 0.408510 0.536898
O O15 0.953788 0.385423 0.612827
O O16 0.011273 0.250000 0.522483
#
# Coordination Sequence:
#
# PCOD9464568 Si02
#       7
#     8   8   8   8   8   8   8
#     4  11  22  40  60  95 133 168 215 265 336 399
#     4  10  20  35  60  93 127 161 205 266 331 391
#     4  11  22  39  64  91 128 170 213 269 333 396
#     4  11  24  41  64  94 132 173 218 277 325 402
#     4  11  24  44  67  95 132 179 228 277 333 394
#     4   9  19  37  63  91 120 162 215 264 320 386
#     4  11  25  42  65  95 131 172 223 274 329 403
#
# _framework density 24.278849999999998
#
# number of rings (size 3 to 8) (size 9 to 14) (size 15 to 20)
#    0.000    1.429    2.857    1.714    0.000    8.571 
#    0.000    0.000    0.000    0.857    0.000    0.000 
#    0.000    0.000    0.000    0.000    0.000    0.000 
#
# Total GULP energy -312061.100129 kJ/mol
# GULP energy per Si atom -5572.519645 kJ/mol
# Density = 2.422359 g / cm^3
# Si number density = 24.278850 Si / 1000 Ang^3
#
#
#
# Elastic Constant Matrix: (Units=GPa)
#
#
# Indices 1 2 3 4 5 6 
#
# 1 44.7338 5.8855 10.1733 0.0000 0.0000 0.0000
# 2 5.8855 119.0852 7.6258 0.0000 0.0000 0.0000
# 3 10.1733 7.6258 52.3673 0.0000 0.0000 0.0000
# 4 0.0000 0.0000 0.0000 -182.9911 0.0000 0.0000
# 5 0.0000 0.0000 0.0000 0.0000 22.0358 0.0000
# 6 0.0000 0.0000 0.0000 0.0000 0.0000 20.0088
#
#
#
# Elastic Compliance Matrix: (Units=1/GPa)
#
#
# Indices 1 2 3 4 5 6 
#
# 1 0.023478 -0.000876 -0.004433 0.000000 0.000000 0.000000
# 2 -0.000876 0.008509 -0.001069 0.000000 0.000000 0.000000
# 3 -0.004433 -0.001069 0.020113 0.000000 0.000000 0.000000
# 4 0.000000 0.000000 0.000000 -0.005465 0.000000 0.000000
# 5 0.000000 0.000000 0.000000 0.000000 0.045381 0.000000
# 6 0.000000 0.000000 0.000000 0.000000 0.000000 0.049978
#
#
# Mechanical properties :
#
#
# Convention : Reuss Voigt Hill
#
# Bulk Modulus (GPa) = 25.41777 29.28395 27.35086
# Shear Modulus (GPa) = 29.78575 -15.35585 7.21495
#
# Velocity S-wave (km/s) = 3.50640 -2.51764 1.72573
# Velocity P-wave (km/s) = 5.18507 1.90692 3.90649
#
# Compressibility (1/GPa) = 0.03934255
#
# Stress axis : x y z
#
# Youngs Moduli (GPa) = 42.59303 117.52106 49.71964
#
# Poissons Ratio (x) = 0.10300 0.22043
# Poissons Ratio (y) = 0.03733 0.05314
# Poissons Ratio (z) = 0.18883 0.12561
#
# Static dielectric constant tensor:
#      x y z
#    x 1.962070 0.000000 0.000000 
#    y 0.000000 2.055510 0.000000 
#    z 0.000000 0.000000 1.953630 
# 
# From -- ./inp_files/18117.got.cif
#   From: 2010.05.17/outbox.cif.g08.bks.cpg/sg62_10_cif.got.tgz:18117.got - 2010.06.03 15:25:27.
