data_PCOD9464289
_publ_section_title
;
Structure prediction by ZEFSAII (Michael W. Deem and Ramdas Pophale) SiO2 
 PCOD9464289
Probable space group: P N M A
;
_chemical_formula_sum "Si O2"
_cell_formula_units_Z 64
_cell_length_a 15.198340
_cell_length_b 7.878215
_cell_length_c 28.463931
_cell_angle_alpha 90.000000
_cell_angle_beta 90.000000
_cell_angle_gamma 90.000000
_cell_volume 3408.151269
_symmetry_space_group_name_H-M "P N M A"
_symmetry_group_IT_number 62
_symmetry_cell_setting 'orthorhombic'
loop_
_space_group_symop_operation_xyz
x,y,z
1/2-x,-y,1/2+z
1/2+x,1/2-y,1/2-z
-x,1/2+y,-z
-x,-y,-z
1/2+x,y,1/2-z
1/2-x,1/2+y,1/2+z
x,1/2-y,z
loop_
_atom_site_type_symbol
_atom_site_label
_atom_site_fract_x
_atom_site_fract_y
_atom_site_fract_z
Si Si1 0.234539 0.041785 0.865999
Si Si2 0.388693 0.956504 0.280602
Si Si3 0.207285 0.055832 0.131881
Si Si4 0.387177 0.955246 0.173394
Si Si5 0.585449 0.542922 0.173009
Si Si6 0.396025 0.948637 0.444943
Si Si7 0.592069 0.946469 0.452343
Si Si8 0.910488 0.044775 0.781264
O O1 0.236909 0.250000 0.866525
O O2 0.180408 0.989302 0.819583
O O3 0.335238 0.985565 0.860076
O O4 0.179159 0.980948 0.910883
O O5 0.387259 0.750000 0.280007
O O6 0.369612 0.011733 0.227306
O O7 0.488908 0.005081 0.292942
O O8 0.197788 0.250000 0.118427
O O9 0.309067 0.013580 0.140140
O O10 0.158183 0.955389 0.090890
O O11 0.157337 0.023850 0.180992
O O12 0.386592 0.750000 0.173718
O O13 0.486257 0.012041 0.161106
O O14 0.583974 0.750000 0.172812
O O15 0.605351 0.494245 0.227176
O O16 0.401927 0.750000 0.432379
O O17 0.495433 0.018015 0.438604
O O18 0.375437 0.966250 0.499996
O O19 0.578719 0.750000 0.465379
O O20 0.905229 0.250000 0.783118
#
# Coordination Sequence:
#
# PCOD9464289 Si02
#       8
#     8   8   8   8   8   8   8   8
#     4   9  14  23  44  74 101 122 150 190 237 285
#     4   8  14  25  46  74 100 127 160 195 228 272
#     4  12  23  32  46  70  98 129 165 203 244 285
#     4   9  17  31  49  69  95 129 168 203 232 268
#     4   8  15  27  48  75  98 125 163 201 232 274
#     4   9  18  32  52  77 102 124 148 188 243 295
#     4  10  20  35  53  71  95 127 160 195 237 289
#     4   9  16  29  48  71  99 130 164 197 231 277
#
# _framework density 18.778509
#
# number of rings (size 3 to 8) (size 9 to 14) (size 15 to 20)
#    0.000    2.750    0.000    4.500    0.000    4.500 
#    0.000    2.500    0.000    4.500    0.000    0.000 
#    0.000    0.000    0.000    0.000    0.000    0.000 
#
# Total GULP energy -356926.924617 kJ/mol
# GULP energy per Si atom -5576.983197 kJ/mol
# Density = 1.873577 g / cm^3
# Si number density = 18.778509 Si / 1000 Ang^3
#
#
#
# Elastic Constant Matrix: (Units=GPa)
#
#
# Indices 1 2 3 4 5 6 
#
# 1 126.6389 -0.9623 73.4433 0.0000 0.0000 0.0000
# 2 -0.9623 18.8292 -5.0881 0.0000 0.0000 0.0000
# 3 73.4433 -5.0881 71.3434 0.0000 0.0000 0.0000
# 4 0.0000 0.0000 0.0000 13.1665 0.0000 0.0000
# 5 0.0000 0.0000 0.0000 0.0000 30.9984 0.0000
# 6 0.0000 0.0000 0.0000 0.0000 0.0000 -3.6559
#
#
#
# Elastic Compliance Matrix: (Units=1/GPa)
#
#
# Indices 1 2 3 4 5 6 
#
# 1 0.019982 -0.004627 -0.020901 0.000000 0.000000 0.000000
# 2 -0.004627 0.055224 0.008701 0.000000 0.000000 0.000000
# 3 -0.020901 0.008701 0.036153 0.000000 0.000000 0.000000
# 4 0.000000 0.000000 0.000000 0.075950 0.000000 0.000000
# 5 0.000000 0.000000 0.000000 0.000000 0.032260 0.000000
# 6 0.000000 0.000000 0.000000 0.000000 0.000000 -0.273528
#
#
# Mechanical properties :
#
#
# Convention : Reuss Voigt Hill
#
# Bulk Modulus (GPa) = 12.86877 39.06636 25.96756
# Shear Modulus (GPa) = 893.65014 18.06304 455.85659
#
# Velocity S-wave (km/s) = 21.83857 3.10482 15.59748
# Velocity P-wave (km/s) = 25.35281 5.80535 18.39113
#
# Compressibility (1/GPa) = 0.07770751
#
# Stress axis : x y z
#
# Youngs Moduli (GPa) = 50.04395 18.10813 27.66022
#
# Poissons Ratio (x) = 0.08378 0.57811
# Poissons Ratio (y) = 0.23153 -0.24068
# Poissons Ratio (z) = 1.04595 -0.15756
#
# Static dielectric constant tensor:
#      x y z
#    x 1.666030 0.000000 0.000000 
#    y 0.000000 1.685280 0.000000 
#    z 0.000000 0.000000 1.621500 
# 
# From -- ./inp_files/32730.got.cif
#   From: 2010.05.17/outbox.cif.g08.bks.cpg/sg62_17_cif.got.tgz:32730.got - 2010.06.03 15:25:27.
