data_PCOD9464901
_publ_section_title
;
Structure prediction by ZEFSAII (Michael W. Deem and Ramdas Pophale) SiO2 
 PCOD9464901
Probable space group: P N M A
;
_chemical_formula_sum "Si O2"
_cell_formula_units_Z 64
_cell_length_a 11.492594
_cell_length_b 8.653735
_cell_length_c 35.038779
_cell_angle_alpha 90.000000
_cell_angle_beta 90.000000
_cell_angle_gamma 90.000000
_cell_volume 3484.741924
_symmetry_space_group_name_H-M "P N M A"
_symmetry_group_IT_number 62
_symmetry_cell_setting 'orthorhombic'
loop_
_space_group_symop_operation_xyz
x,y,z
1/2-x,-y,1/2+z
1/2+x,1/2-y,1/2-z
-x,1/2+y,-z
-x,-y,-z
1/2+x,y,1/2-z
1/2-x,1/2+y,1/2+z
x,1/2-y,z
loop_
_atom_site_type_symbol
_atom_site_label
_atom_site_fract_x
_atom_site_fract_y
_atom_site_fract_z
Si Si1 0.356509 0.437199 0.224921
Si Si2 0.380051 0.564686 0.766822
Si Si3 0.740093 0.566268 0.429787
Si Si4 0.896751 0.433752 0.363541
Si Si5 0.759965 0.431356 0.081296
Si Si6 0.873011 0.936391 0.506770
Si Si7 0.860283 0.069245 0.649589
Si Si8 0.010283 0.430672 0.042424
O O1 0.356734 0.250000 0.228772
O O2 0.234511 0.492643 0.243620
O O3 0.484963 0.489942 0.240701
O O4 0.357283 0.472327 0.179678
O O5 0.383313 0.750000 0.762047
O O6 0.356241 0.523825 0.810921
O O7 0.754052 0.750000 0.425672
O O8 0.804659 0.483241 0.395168
O O9 0.795122 0.518235 0.470533
O O10 0.606533 0.520097 0.433499
O O11 0.917017 0.250000 0.365211
O O12 0.018048 0.521077 0.370068
O O13 0.733797 0.250000 0.088583
O O14 0.739321 0.522478 0.120048
O O15 0.888047 0.441495 0.063963
O O16 0.677345 0.490120 0.047182
O O17 0.873025 0.750000 0.508015
O O18 0.000000 0.000000 0.500000
O O19 0.859109 0.250000 0.657948
O O20 0.041673 0.250000 0.039272
O O21 0.000000 0.500000 0.000000
#
# Coordination Sequence:
#
# PCOD9464901 Si02
#       8
#     8   8   8   8   8   8   8   8
#     4   8  16  32  58  84 111 143 189 231 274 332
#     4   9  17  35  59  84 111 149 187 231 280 339
#     4  11  22  38  56  81 114 147 186 232 282 336
#     4  10  20  37  59  85 114 149 189 232 278 335
#     4  10  21  39  57  76 106 147 191 231 272 331
#     4  10  21  35  52  77 106 138 180 228 273 323
#     4  11  22  36  56  85 115 147 183 231 287 338
#     4  11  22  39  60  80 107 149 193 234 284 337
#
# _framework density 18.365777999999999
#
# number of rings (size 3 to 8) (size 9 to 14) (size 15 to 20)
#    0.000    2.000    1.250    3.750    0.000    4.500 
#    2.250    3.125    0.000    0.000    0.000    0.000 
#    0.000    0.000    0.000    0.000    0.000    0.000 
#
# Total GULP energy -357017.176383 kJ/mol
# GULP energy per Si atom -5578.393381 kJ/mol
# Density = 1.832398 g / cm^3
# Si number density = 18.365778 Si / 1000 Ang^3
#
#
#
# Elastic Constant Matrix: (Units=GPa)
#
#
# Indices 1 2 3 4 5 6 
#
# 1 50.0589 2.7646 16.7858 0.0000 0.0000 0.0000
# 2 2.7646 7.8659 -0.1691 0.0000 0.0000 0.0000
# 3 16.7858 -0.1691 48.5399 0.0000 0.0000 0.0000
# 4 0.0000 0.0000 0.0000 22.9754 0.0000 0.0000
# 5 0.0000 0.0000 0.0000 0.0000 34.8829 0.0000
# 6 0.0000 0.0000 0.0000 0.0000 0.0000 22.5708
#
#
#
# Elastic Compliance Matrix: (Units=1/GPa)
#
#
# Indices 1 2 3 4 5 6 
#
# 1 0.023126 -0.008300 -0.008026 0.000000 0.000000 0.000000
# 2 -0.008300 0.130119 0.003324 0.000000 0.000000 0.000000
# 3 -0.008026 0.003324 0.023389 0.000000 0.000000 0.000000
# 4 0.000000 0.000000 0.000000 0.043525 0.000000 0.000000
# 5 0.000000 0.000000 0.000000 0.000000 0.028667 0.000000
# 6 0.000000 0.000000 0.000000 0.000000 0.000000 0.044305
#
#
# Mechanical properties :
#
#
# Convention : Reuss Voigt Hill
#
# Bulk Modulus (GPa) = 6.63887 16.13635 11.38761
# Shear Modulus (GPa) = 13.53741 21.89138 17.71439
#
# Velocity S-wave (km/s) = 2.71790 3.45623 3.10906
# Velocity P-wave (km/s) = 3.67042 4.97318 4.37061
#
# Compressibility (1/GPa) = 0.15062795
#
# Stress axis : x y z
#
# Youngs Moduli (GPa) = 43.24089 7.68526 42.75552
#
# Poissons Ratio (x) = 0.06379 0.34317
# Poissons Ratio (y) = 0.35892 -0.14210
# Poissons Ratio (z) = 0.34706 -0.02554
#
# Static dielectric constant tensor:
#      x y z
#    x 1.673870 0.000000 0.000000 
#    y 0.000000 1.634490 0.000000 
#    z 0.000000 0.000000 1.607760 
# 
# From -- ./inp_files/32606.got.cif
#   From: 2010.05.17/outbox.cif.g08.bks.cpg/sg62_17_cif.got.tgz:32606.got - 2010.06.03 15:25:27.
