data_PCOD9464575
_publ_section_title
;
Structure prediction by ZEFSAII (Michael W. Deem and Ramdas Pophale) SiO2 
 PCOD9464575
Probable space group: P N M A
;
_chemical_formula_sum "Si O2"
_cell_formula_units_Z 60
_cell_length_a 12.998015
_cell_length_b 7.686283
_cell_length_c 27.846493
_cell_angle_alpha 90.000000
_cell_angle_beta 90.000000
_cell_angle_gamma 90.000000
_cell_volume 2782.043473
_symmetry_space_group_name_H-M "P N M A"
_symmetry_group_IT_number 62
_symmetry_cell_setting 'orthorhombic'
loop_
_space_group_symop_operation_xyz
x,y,z
1/2-x,-y,1/2+z
1/2+x,1/2-y,1/2-z
-x,1/2+y,-z
-x,-y,-z
1/2+x,y,1/2-z
1/2-x,1/2+y,1/2+z
x,1/2-y,z
loop_
_atom_site_type_symbol
_atom_site_label
_atom_site_fract_x
_atom_site_fract_y
_atom_site_fract_z
Si Si1 0.155887 0.450960 0.063723
Si Si2 0.241730 0.948050 0.963075
Si Si3 0.963720 0.044151 0.798357
Si Si4 0.519294 0.951033 0.807158
Si Si5 0.754945 0.040813 0.338851
Si Si6 0.943682 0.950571 0.101072
Si Si7 0.487854 0.250000 0.872256
Si Si8 0.529613 0.042126 0.054588
O O1 0.913110 0.750000 0.106548
O O2 0.228319 0.517407 0.106844
O O3 0.045669 0.542651 0.067832
O O4 0.207101 0.460315 0.011907
O O5 0.486652 0.750000 0.936385
O O6 0.150210 0.957660 0.924954
O O7 0.349384 0.009118 0.941345
O O8 0.740460 0.750000 0.838547
O O9 0.842625 0.015440 0.807533
O O10 0.000088 0.957655 0.749550
O O11 0.021124 0.980797 0.846854
O O12 0.506321 0.750000 0.823150
O O13 0.635513 0.017555 0.818785
O O14 0.451811 0.093909 0.834359
O O15 0.633532 0.250000 0.425475
O O16 0.017471 0.750000 0.205255
O O17 0.523972 0.406833 0.909986
O O18 0.260427 0.750000 0.977562
O O19 0.500000 0.000000 0.000000
#
# Coordination Sequence:
#
# PCOD9464575 Si02
#       8
#     8   8   8   8   8   8   4   8
#     4  10  20  35  61  90 125 164 213 271 321 384
#     4  11  24  39  60  90 128 170 217 261 326 396
#     4  10  21  41  65  94 132 170 212 275 332 389
#     4  11  24  44  70  99 130 171 221 273 330 388
#     4   9  21  39  63  96 124 164 219 270 329 393
#     4  10  21  38  61  90 128 168 214 264 331 393
#     4  12  26  46  70  96 134 168 226 272 328 382
#     4  11  26  46  68  97 132 177 220 269 327 392
#
# _framework density 21.566882
#
# number of rings (size 3 to 8) (size 9 to 14) (size 15 to 20)
#    0.000    1.600    1.333    2.400    4.667    2.133 
#    2.400    0.000    0.000    0.000    0.000    0.000 
#    0.000    0.000    0.000    0.000    0.000    0.000 
#
# Total GULP energy -334160.776826 kJ/mol
# GULP energy per Si atom -5569.346280 kJ/mol
# Density = 2.151779 g / cm^3
# Si number density = 21.566882 Si / 1000 Ang^3
#
#
#
# Elastic Constant Matrix: (Units=GPa)
#
#
# Indices 1 2 3 4 5 6 
#
# 1 77.9235 10.2778 30.8584 0.0000 0.0000 0.0000
# 2 10.2778 94.9104 22.9312 0.0000 0.0000 0.0000
# 3 30.8584 22.9312 106.2391 0.0000 0.0000 0.0000
# 4 0.0000 0.0000 0.0000 21.4885 0.0000 0.0000
# 5 0.0000 0.0000 0.0000 0.0000 23.7443 0.0000
# 6 0.0000 0.0000 0.0000 0.0000 0.0000 -102.8977
#
#
#
# Elastic Compliance Matrix: (Units=1/GPa)
#
#
# Indices 1 2 3 4 5 6 
#
# 1 0.014532 -0.000584 -0.004095 0.000000 0.000000 0.000000
# 2 -0.000584 0.011139 -0.002235 0.000000 0.000000 0.000000
# 3 -0.004095 -0.002235 0.011084 0.000000 0.000000 0.000000
# 4 0.000000 0.000000 0.000000 0.046537 0.000000 0.000000
# 5 0.000000 0.000000 0.000000 0.000000 0.042115 0.000000
# 6 0.000000 0.000000 0.000000 0.000000 0.000000 -0.009718
#
#
# Mechanical properties :
#
#
# Convention : Reuss Voigt Hill
#
# Bulk Modulus (GPa) = 43.61460 45.24530 44.42995
# Shear Modulus (GPa) = 36.45393 2.80073 19.62733
#
# Velocity S-wave (km/s) = 4.11575 1.14081 3.02001
# Velocity P-wave (km/s) = 6.54620 4.77073 5.72768
#
# Compressibility (1/GPa) = 0.02292810
#
# Stress axis : x y z
#
# Youngs Moduli (GPa) = 68.81492 89.77103 90.21640
#
# Poissons Ratio (x) = 0.05245 0.36942
# Poissons Ratio (y) = 0.04021 0.20161
# Poissons Ratio (z) = 0.28178 0.20061
#
# Static dielectric constant tensor:
#      x y z
#    x 1.836110 0.000000 0.000000 
#    y 0.000000 1.634540 0.000000 
#    z 0.000000 0.000000 1.801730 
# 
# From -- ./inp_files/31138.got.cif
#   From: 2010.05.17/outbox.cif.g08.bks.cpg/sg62_16_cif.got.tgz:31138.got - 2010.06.03 15:25:27.
