data_PCOD9464587
_publ_section_title
;
Structure prediction by ZEFSAII (Michael W. Deem and Ramdas Pophale) SiO2 
 PCOD9464587
Probable space group: P N M A
;
_chemical_formula_sum "Si O2"
_cell_formula_units_Z 64
_cell_length_a 5.417701
_cell_length_b 23.683925
_cell_length_c 19.664862
_cell_angle_alpha 90.000000
_cell_angle_beta 90.000000
_cell_angle_gamma 90.000000
_cell_volume 2523.246114
_symmetry_space_group_name_H-M "P N M A"
_symmetry_group_IT_number 62
_symmetry_cell_setting 'orthorhombic'
loop_
_space_group_symop_operation_xyz
x,y,z
1/2-x,-y,1/2+z
1/2+x,1/2-y,1/2-z
-x,1/2+y,-z
-x,-y,-z
1/2+x,y,1/2-z
1/2-x,1/2+y,1/2+z
x,1/2-y,z
loop_
_atom_site_type_symbol
_atom_site_label
_atom_site_fract_x
_atom_site_fract_y
_atom_site_fract_z
Si Si1 0.135137 0.501983 0.213690
Si Si2 0.091941 0.086458 0.415748
Si Si3 0.562870 0.872632 0.464164
Si Si4 0.707071 0.124924 0.231245
Si Si5 0.365469 0.981940 0.429740
Si Si6 0.047580 0.311962 0.596920
Si Si7 0.794198 0.311006 0.454389
Si Si8 0.792444 0.682185 0.216701
O O1 0.404005 0.523071 0.239395
O O2 0.172074 0.434199 0.227081
O O3 0.042914 0.510134 0.136196
O O4 0.256651 0.098376 0.481363
O O5 0.222075 0.107421 0.347145
O O6 0.857006 0.128726 0.419081
O O7 0.115709 0.017979 0.415017
O O8 0.344844 0.915471 0.443622
O O9 0.731031 0.855602 0.400966
O O10 0.460826 0.819550 0.505934
O O11 0.450670 0.155850 0.244717
O O12 0.500000 0.000000 0.500000
O O13 0.134722 0.250000 0.620377
O O14 0.806950 0.325460 0.640542
O O15 0.979855 0.307779 0.517997
O O16 0.803294 0.250000 0.418045
O O17 0.057126 0.660181 0.240149
O O18 0.811641 0.750000 0.225202
#
# Coordination Sequence:
#
# PCOD9464587 Si02
#       8
#     8   8   8   8   8   8   8   8
#     4  10  20  40  63  92 134 184 226 271 337 414
#     4  10  21  39  62  95 125 168 214 274 331 407
#     4  10  22  37  59  91 131 163 219 272 345 392
#     4  10  20  35  66  95 126 170 223 262 324 407
#     4  10  21  40  61  99 134 172 226 283 343 411
#     4   9  19  37  57  80 115 161 216 270 331 399
#     4  10  22  39  63  91 123 169 218 276 342 407
#     4   9  18  31  53  82 109 149 208 269 323 383
#
# _framework density 25.364152000000001
#
# number of rings (size 3 to 8) (size 9 to 14) (size 15 to 20)
#    0.000    2.250    2.500    0.375    3.500    2.000 
#    6.750    1.250    0.000    0.750    0.000    0.000 
#    0.000    0.000    0.000    0.000    0.000    0.000 
#
# Total GULP energy -356853.865055 kJ/mol
# GULP energy per Si atom -5575.841641 kJ/mol
# Density = 2.530642 g / cm^3
# Si number density = 25.364152 Si / 1000 Ang^3
#
#
#
# Elastic Constant Matrix: (Units=GPa)
#
#
# Indices 1 2 3 4 5 6 
#
# 1 110.4579 13.4177 11.6334 0.0000 0.0000 0.0000
# 2 13.4177 59.8511 16.2267 0.0000 0.0000 0.0000
# 3 11.6334 16.2267 89.7691 0.0000 0.0000 0.0000
# 4 0.0000 0.0000 0.0000 9.4450 0.0000 0.0000
# 5 0.0000 0.0000 0.0000 0.0000 23.5073 0.0000
# 6 0.0000 0.0000 0.0000 0.0000 0.0000 11.3943
#
#
#
# Elastic Compliance Matrix: (Units=1/GPa)
#
#
# Indices 1 2 3 4 5 6 
#
# 1 0.009372 -0.001863 -0.000878 0.000000 0.000000 0.000000
# 2 -0.001863 0.017940 -0.003001 0.000000 0.000000 0.000000
# 3 -0.000878 -0.003001 0.011796 0.000000 0.000000 0.000000
# 4 0.000000 0.000000 0.000000 0.105876 0.000000 0.000000
# 5 0.000000 0.000000 0.000000 0.000000 0.042540 0.000000
# 6 0.000000 0.000000 0.000000 0.000000 0.000000 0.087763
#
#
# Mechanical properties :
#
#
# Convention : Reuss Voigt Hill
#
# Bulk Modulus (GPa) = 36.20152 38.07041 37.13596
# Shear Modulus (GPa) = 16.89313 23.45601 20.17457
#
# Velocity S-wave (km/s) = 2.58354 3.04430 2.82334
# Velocity P-wave (km/s) = 4.81698 5.23442 5.03003
#
# Compressibility (1/GPa) = 0.02762315
#
# Stress axis : x y z
#
# Youngs Moduli (GPa) = 106.70099 55.74287 84.77475
#
# Poissons Ratio (x) = 0.10385 0.07441
# Poissons Ratio (y) = 0.19879 0.25444
# Poissons Ratio (z) = 0.09366 0.16730
#
# Static dielectric constant tensor:
#      x y z
#    x 2.058840 0.000000 0.000000 
#    y 0.000000 2.096770 0.000000 
#    z 0.000000 0.000000 2.207460 
# 
# From -- ./inp_files/25463.got.cif
#   From: 2010.05.17/outbox.cif.g08.bks.cpg/sg62_13_cif.got.tgz:25463.got - 2010.06.03 15:25:27.
