data_PCOD9464673
_publ_section_title
;
Structure prediction by ZEFSAII (Michael W. Deem and Ramdas Pophale) SiO2 
 PCOD9464673
Probable space group: P N M A
;
_chemical_formula_sum "Si O2"
_cell_formula_units_Z 48
_cell_length_a 31.718415
_cell_length_b 8.604347
_cell_length_c 9.519268
_cell_angle_alpha 90.000000
_cell_angle_beta 90.000000
_cell_angle_gamma 90.000000
_cell_volume 2597.962915
_symmetry_space_group_name_H-M "P N M A"
_symmetry_group_IT_number 62
_symmetry_cell_setting 'orthorhombic'
loop_
_space_group_symop_operation_xyz
x,y,z
1/2-x,-y,1/2+z
1/2+x,1/2-y,1/2-z
-x,1/2+y,-z
-x,-y,-z
1/2+x,y,1/2-z
1/2-x,1/2+y,1/2+z
x,1/2-y,z
loop_
_atom_site_type_symbol
_atom_site_label
_atom_site_fract_x
_atom_site_fract_y
_atom_site_fract_z
Si Si1 0.870476 0.436773 0.417271
Si Si2 0.538326 0.435429 0.909094
Si Si3 0.962534 0.436757 0.094619
Si Si4 0.289133 0.061767 0.594226
Si Si5 0.132020 0.938534 0.908414
Si Si6 0.707881 0.436380 0.090597
O O1 0.872075 0.250000 0.419927
O O2 0.916173 0.502295 0.458826
O O3 0.862081 0.486179 0.254647
O O4 0.833811 0.496503 0.517625
O O5 0.538282 0.250000 0.910675
O O6 0.532987 0.497873 0.751144
O O7 0.500000 0.500000 0.000000
O O8 0.963981 0.250000 0.098600
O O9 0.915281 0.483608 0.045916
O O10 0.000000 0.500000 0.000000
O O11 0.290170 0.250000 0.602197
O O12 0.330911 0.007882 0.510509
O O13 0.248255 0.016902 0.503225
O O14 0.287511 0.995909 0.750752
O O15 0.133424 0.750000 0.908310
O O16 0.705834 0.250000 0.091539
#
# Coordination Sequence:
#
# PCOD9464673 Si02
#       6
#     8   8   8   8   8   8
#     4  10  20  38  61  83 112 150 188 231 286 341
#     4  11  22  38  59  85 116 151 193 239 288 342
#     4  10  20  36  57  83 115 153 196 240 288 340
#     4  10  21  38  58  80 110 148 188 231 281 335
#     4   8  17  35  58  80 105 143 189 232 276 331
#     4  11  23  37  56  85 115 145 187 235 282 337
#
# _framework density 18.476013999999999
#
# number of rings (size 3 to 8) (size 9 to 14) (size 15 to 20)
#    0.000    2.000    0.000    5.000    0.000    4.000 
#    0.000   10.000    0.000    0.000    0.000    0.000 
#    0.000    0.000    0.000    0.000    0.000    0.000 
#
# Total GULP energy -268082.254989 kJ/mol
# GULP energy per Si atom -5585.046979 kJ/mol
# Density = 1.843396 g / cm^3
# Si number density = 18.476014 Si / 1000 Ang^3
#
#
#
# Elastic Constant Matrix: (Units=GPa)
#
#
# Indices 1 2 3 4 5 6 
#
# 1 215.9372 66.3746 127.5143 0.0000 0.0000 0.0000
# 2 66.3746 72.3711 47.1667 0.0000 0.0000 0.0000
# 3 127.5143 47.1667 127.0107 0.0000 0.0000 0.0000
# 4 0.0000 0.0000 0.0000 32.3903 0.0000 0.0000
# 5 0.0000 0.0000 0.0000 0.0000 43.9437 0.0000
# 6 0.0000 0.0000 0.0000 0.0000 0.0000 26.4148
#
#
#
# Elastic Compliance Matrix: (Units=1/GPa)
#
#
# Indices 1 2 3 4 5 6 
#
# 1 0.012297 -0.004264 -0.010762 0.000000 0.000000 0.000000
# 2 -0.004264 0.019708 -0.003038 0.000000 0.000000 0.000000
# 3 -0.010762 -0.003038 0.019806 0.000000 0.000000 0.000000
# 4 0.000000 0.000000 0.000000 0.030873 0.000000 0.000000
# 5 0.000000 0.000000 0.000000 0.000000 0.022756 0.000000
# 6 0.000000 0.000000 0.000000 0.000000 0.000000 0.037858
#
#
# Mechanical properties :
#
#
# Convention : Reuss Voigt Hill
#
# Bulk Modulus (GPa) = 63.76218 99.71446 81.73832
# Shear Modulus (GPa) = 27.07757 32.16734 29.62246
#
# Velocity S-wave (km/s) = 3.83241 4.17709 4.00846
# Velocity P-wave (km/s) = 7.35995 8.79494 8.10925
#
# Compressibility (1/GPa) = 0.01568328
#
# Stress axis : x y z
#
# Youngs Moduli (GPa) = 81.32202 50.74011 50.48886
#
# Poissons Ratio (x) = 0.21635 0.54337
# Poissons Ratio (y) = 0.34675 0.15339
# Poissons Ratio (z) = 0.87520 0.15415
#
# Static dielectric constant tensor:
#      x y z
#    x 1.632530 0.000000 0.000000 
#    y 0.000000 1.632660 0.000000 
#    z 0.000000 0.000000 1.598960 
# 
# From -- ./inp_files/10282.got.cif
#   From: 2010.05.17/outbox.cif.g08.bks.cpg/sg62_6_cif.got.tgz:10282.got - 2010.06.03 15:25:27.
