data_PCOD9464140
_publ_section_title
;
Structure prediction by ZEFSAII (Michael W. Deem and Ramdas Pophale) SiO2 
 PCOD9464140
Probable space group: P N M A
;
_chemical_formula_sum "Si O2"
_cell_formula_units_Z 56
_cell_length_a 21.693044
_cell_length_b 20.447086
_cell_length_c 6.964790
_cell_angle_alpha 90.000000
_cell_angle_beta 90.000000
_cell_angle_gamma 90.000000
_cell_volume 3089.299023
_symmetry_space_group_name_H-M "P N M A"
_symmetry_group_IT_number 62
_symmetry_cell_setting 'orthorhombic'
loop_
_space_group_symop_operation_xyz
x,y,z
1/2-x,-y,1/2+z
1/2+x,1/2-y,1/2-z
-x,1/2+y,-z
-x,-y,-z
1/2+x,y,1/2-z
1/2-x,1/2+y,1/2+z
x,1/2-y,z
loop_
_atom_site_type_symbol
_atom_site_label
_atom_site_fract_x
_atom_site_fract_y
_atom_site_fract_z
Si Si1 0.294098 0.571215 0.168068
Si Si2 0.039134 0.932811 0.242130
Si Si3 0.670144 0.526376 0.154918
Si Si4 0.365903 0.910825 0.553210
Si Si5 0.159409 0.324152 0.384030
Si Si6 0.984956 0.827192 0.505371
Si Si7 0.006316 0.926432 0.830980
O O1 0.227287 0.566985 0.264443
O O2 0.342397 0.581713 0.339278
O O3 0.311117 0.506243 0.047019
O O4 0.299788 0.628774 0.013936
O O5 0.104173 0.938597 0.351209
O O6 0.003422 0.869704 0.320204
O O7 0.001318 0.001472 0.264158
O O8 0.051293 0.928322 0.012803
O O9 0.658985 0.468874 0.310888
O O10 0.342069 0.846422 0.662612
O O11 0.439387 0.913592 0.572733
O O12 0.178359 0.250000 0.404535
O O13 0.088582 0.331657 0.457460
O O14 0.000857 0.750000 0.497750
O O15 0.015587 0.868649 0.679571
#
# Coordination Sequence:
#
# PCOD9464140 Si02
#       7
#     8   8   8   8   8   8   8
#     4  11  19  35  56  79 109 143 178 227 276 316
#     4  10  20  34  54  83 110 143 179 227 274 326
#     4  10  21  33  53  81 109 137 181 222 270 324
#     4   9  18  33  53  77 106 138 175 223 269 319
#     4   9  20  35  54  80 106 139 184 225 266 322
#     4  10  20  36  55  80 114 147 180 220 272 330
#     4   9  19  34  55  82 110 140 181 225 275 325
#
# _framework density 18.127089000000002
#
# number of rings (size 3 to 8) (size 9 to 14) (size 15 to 20)
#    0.000    2.286    1.429    2.143    0.000    4.571 
#    0.000    3.571    0.000    1.714    0.000    0.000 
#    0.000    0.000    0.000    0.000    0.000    0.000 
#
# Total GULP energy -312279.556201 kJ/mol
# GULP energy per Si atom -5576.420646 kJ/mol
# Density = 1.808583 g / cm^3
# Si number density = 18.127089 Si / 1000 Ang^3
#
#
#
# Elastic Constant Matrix: (Units=GPa)
#
#
# Indices 1 2 3 4 5 6 
#
# 1 43.8165 28.1514 21.6417 0.0000 0.0000 0.0000
# 2 28.1514 113.8852 41.7367 0.0000 0.0000 0.0000
# 3 21.6417 41.7367 94.3437 0.0000 0.0000 0.0000
# 4 0.0000 0.0000 0.0000 18.8097 0.0000 0.0000
# 5 0.0000 0.0000 0.0000 0.0000 26.8003 0.0000
# 6 0.0000 0.0000 0.0000 0.0000 0.0000 18.3199
#
#
#
# Elastic Compliance Matrix: (Units=1/GPa)
#
#
# Indices 1 2 3 4 5 6 
#
# 1 0.028381 -0.005525 -0.004066 0.000000 0.000000 0.000000
# 2 -0.005525 0.011556 -0.003845 0.000000 0.000000 0.000000
# 3 -0.004066 -0.003845 0.013233 0.000000 0.000000 0.000000
# 4 0.000000 0.000000 0.000000 0.053164 0.000000 0.000000
# 5 0.000000 0.000000 0.000000 0.000000 0.037313 0.000000
# 6 0.000000 0.000000 0.000000 0.000000 0.000000 0.054586
#
#
# Mechanical properties :
#
#
# Convention : Reuss Voigt Hill
#
# Bulk Modulus (GPa) = 38.02642 48.34499 43.18571
# Shear Modulus (GPa) = 21.37944 23.48700 22.43322
#
# Velocity S-wave (km/s) = 3.43799 3.60347 3.52170
# Velocity P-wave (km/s) = 6.06489 6.63636 6.35705
#
# Compressibility (1/GPa) = 0.02629750
#
# Stress axis : x y z
#
# Youngs Moduli (GPa) = 35.23526 86.53838 75.56845
#
# Poissons Ratio (x) = 0.47816 0.30726
# Poissons Ratio (y) = 0.19469 0.29053
# Poissons Ratio (z) = 0.14326 0.33270
#
# Static dielectric constant tensor:
#      x y z
#    x 1.636970 0.000000 0.000000 
#    y 0.000000 1.624140 0.000000 
#    z 0.000000 0.000000 1.646940 
# 
# From -- ./inp_files/2815.got.cif
#   From: 2010.05.17/outbox.cif.g08.bks.cpg/sg62_2_cif.got.tgz:2815.got - 2010.06.03 15:25:27.
