data_PCOD9464570
_publ_section_title
;
Structure prediction by ZEFSAII (Michael W. Deem and Ramdas Pophale) SiO2 
 PCOD9464570
Probable space group: P N M A
;
_chemical_formula_sum "Si O2"
_cell_formula_units_Z 48
_cell_length_a 9.312209
_cell_length_b 24.789432
_cell_length_c 10.575014
_cell_angle_alpha 90.000000
_cell_angle_beta 90.000000
_cell_angle_gamma 90.000000
_cell_volume 2441.182463
_symmetry_space_group_name_H-M "P N M A"
_symmetry_group_IT_number 62
_symmetry_cell_setting 'orthorhombic'
loop_
_space_group_symop_operation_xyz
x,y,z
1/2-x,-y,1/2+z
1/2+x,1/2-y,1/2-z
-x,1/2+y,-z
-x,-y,-z
1/2+x,y,1/2-z
1/2-x,1/2+y,1/2+z
x,1/2-y,z
loop_
_atom_site_type_symbol
_atom_site_label
_atom_site_fract_x
_atom_site_fract_y
_atom_site_fract_z
Si Si1 0.284744 0.901703 0.221732
Si Si2 0.512601 0.945162 0.420896
Si Si3 0.291178 0.191620 0.904602
Si Si4 0.211473 0.811388 0.783261
Si Si5 0.100949 0.189319 0.535444
Si Si6 0.922149 0.846949 0.904448
O O1 0.393453 0.935984 0.309798
O O2 0.167827 0.936100 0.144369
O O3 0.203586 0.859397 0.313298
O O4 0.365026 0.860096 0.127998
O O5 0.483732 0.898758 0.524839
O O6 0.500000 0.000000 0.500000
O O7 0.301342 0.250000 0.840200
O O8 0.431344 0.187840 0.993167
O O9 0.143784 0.188316 0.981943
O O10 0.229724 0.750000 0.734116
O O11 0.285595 0.853233 0.687853
O O12 0.047668 0.821149 0.821453
O O13 0.301150 0.815301 0.912925
O O14 0.127309 0.250000 0.588941
#
# Coordination Sequence:
#
# PCOD9464570 Si02
#       6
#     8   8   8   8   8   8
#     4  11  21  44  65  92 131 157 212 269 320 381
#     4  11  26  46  70  94 121 170 223 276 324 368
#     4  10  20  35  60  94 128 169 206 249 317 389
#     4  11  21  35  58  91 133 174 206 249 313 390
#     4  10  20  35  60  94 132 174 206 246 322 392
#     4  11  23  39  61  89 135 170 219 263 309 373
#
# _framework density 19.662602
#
# number of rings (size 3 to 8) (size 9 to 14) (size 15 to 20)
#    0.000    1.333    3.333    3.000    0.000    2.667 
#    0.000    0.833    0.000    0.000    0.000    0.000 
#    0.000    0.000    0.000    0.000    0.000    0.000 
#
# Total GULP energy -267712.405709 kJ/mol
# GULP energy per Si atom -5577.341786 kJ/mol
# Density = 1.961785 g / cm^3
# Si number density = 19.662602 Si / 1000 Ang^3
#
#
#
# Elastic Constant Matrix: (Units=GPa)
#
#
# Indices 1 2 3 4 5 6 
#
# 1 104.8134 37.0052 35.8860 0.0000 0.0000 0.0000
# 2 37.0052 98.3941 42.2375 0.0000 0.0000 0.0000
# 3 35.8860 42.2375 75.2504 0.0000 0.0000 0.0000
# 4 0.0000 0.0000 0.0000 31.0135 0.0000 0.0000
# 5 0.0000 0.0000 0.0000 0.0000 47.2222 0.0000
# 6 0.0000 0.0000 0.0000 0.0000 0.0000 16.1766
#
#
#
# Elastic Compliance Matrix: (Units=1/GPa)
#
#
# Indices 1 2 3 4 5 6 
#
# 1 0.011920 -0.002691 -0.004174 0.000000 0.000000 0.000000
# 2 -0.002691 0.013997 -0.006573 0.000000 0.000000 0.000000
# 3 -0.004174 -0.006573 0.018969 0.000000 0.000000 0.000000
# 4 0.000000 0.000000 0.000000 0.032244 0.000000 0.000000
# 5 0.000000 0.000000 0.000000 0.000000 0.021177 0.000000
# 6 0.000000 0.000000 0.000000 0.000000 0.000000 0.061818
#
#
# Mechanical properties :
#
#
# Convention : Reuss Voigt Hill
#
# Bulk Modulus (GPa) = 55.52633 56.52393 56.02513
# Shear Modulus (GPa) = 25.90626 29.77105 27.83865
#
# Velocity S-wave (km/s) = 3.63373 3.89536 3.76682
# Velocity P-wave (km/s) = 6.77541 7.00293 6.89011
#
# Compressibility (1/GPa) = 0.01800947
#
# Stress axis : x y z
#
# Youngs Moduli (GPa) = 83.89252 71.44415 52.71815
#
# Poissons Ratio (x) = 0.19228 0.22004
# Poissons Ratio (y) = 0.22578 0.34651
# Poissons Ratio (z) = 0.35016 0.46960
#
# Static dielectric constant tensor:
#      x y z
#    x 1.704740 0.000000 0.000000 
#    y 0.000000 1.670050 0.000000 
#    z 0.000000 0.000000 1.721300 
# 
# From -- ./inp_files/11312.got.cif
#   From: 2010.05.17/outbox.cif.g08.bks.cpg/sg62_6_cif.got.tgz:11312.got - 2010.06.03 15:25:27.
