data_PCOD9464388
_publ_section_title
;
Structure prediction by ZEFSAII (Michael W. Deem and Ramdas Pophale) SiO2 
 PCOD9464388
Probable space group: P N M A
;
_chemical_formula_sum "Si O2"
_cell_formula_units_Z 48
_cell_length_a 14.603902
_cell_length_b 12.972412
_cell_length_c 13.855150
_cell_angle_alpha 90.000000
_cell_angle_beta 90.000000
_cell_angle_gamma 90.000000
_cell_volume 2624.828151
_symmetry_space_group_name_H-M "P N M A"
_symmetry_group_IT_number 62
_symmetry_cell_setting 'orthorhombic'
loop_
_space_group_symop_operation_xyz
x,y,z
1/2-x,-y,1/2+z
1/2+x,1/2-y,1/2-z
-x,1/2+y,-z
-x,-y,-z
1/2+x,y,1/2-z
1/2-x,1/2+y,1/2+z
x,1/2-y,z
loop_
_atom_site_type_symbol
_atom_site_label
_atom_site_fract_x
_atom_site_fract_y
_atom_site_fract_z
Si Si1 0.305688 0.934246 0.258319
Si Si2 0.356153 0.132236 0.139463
Si Si3 0.838215 0.367833 0.903412
Si Si4 0.956272 0.956425 0.597657
Si Si5 0.486686 0.132532 0.748635
Si Si6 0.270113 0.009517 0.960847
O O1 0.236917 0.882835 0.181863
O O2 0.404443 0.880595 0.256970
O O3 0.265198 0.935560 0.365084
O O4 0.322216 0.051312 0.220110
O O5 0.329311 0.250000 0.155452
O O6 0.467166 0.122972 0.134239
O O7 0.313639 0.088062 0.039255
O O8 0.835969 0.250000 0.937215
O O9 0.935394 0.387973 0.852197
O O10 0.809626 0.446538 0.986319
O O11 0.952391 0.049364 0.674312
O O12 0.852078 0.931121 0.570562
O O13 0.000000 0.000000 0.500000
O O14 0.463781 0.250000 0.777133
#
# Coordination Sequence:
#
# PCOD9464388 Si02
#       6
#     8   8   8   8   8   8
#     4  10  20  36  57  79 114 147 184 227 281 326
#     4   9  20  35  53  80 112 144 186 232 273 328
#     4  10  21  36  55  83 112 143 188 233 274 328
#     4   9  18  33  53  80 108 140 180 232 280 318
#     4  10  20  35  56  81 112 145 183 230 277 326
#     4  10  20  35  57  81 110 147 184 227 279 330
#
# _framework density 18.286911
#
# number of rings (size 3 to 8) (size 9 to 14) (size 15 to 20)
#    0.000    2.333    1.667    1.500    0.000    6.000 
#    0.000    0.000    0.000    0.000    0.000    0.000 
#    0.000    0.000    0.000    0.000    0.000    0.000 
#
# Total GULP energy -267543.936733 kJ/mol
# GULP energy per Si atom -5573.832015 kJ/mol
# Density = 1.824529 g / cm^3
# Si number density = 18.286911 Si / 1000 Ang^3
#
#
#
# Elastic Constant Matrix: (Units=GPa)
#
#
# Indices 1 2 3 4 5 6 
#
# 1 36.7002 -10.3626 -4.4872 0.0000 0.0000 0.0000
# 2 -10.3626 74.1282 3.6810 0.0000 0.0000 0.0000
# 3 -4.4872 3.6810 44.5095 0.0000 0.0000 0.0000
# 4 0.0000 0.0000 0.0000 2.2280 0.0000 0.0000
# 5 0.0000 0.0000 0.0000 0.0000 27.6005 0.0000
# 6 0.0000 0.0000 0.0000 0.0000 0.0000 14.4689
#
#
#
# Elastic Compliance Matrix: (Units=1/GPa)
#
#
# Indices 1 2 3 4 5 6 
#
# 1 0.028657 0.003879 0.002568 0.000000 0.000000 0.000000
# 2 0.003879 0.014071 -0.000773 0.000000 0.000000 0.000000
# 3 0.002568 -0.000773 0.022790 0.000000 0.000000 0.000000
# 4 0.000000 0.000000 0.000000 0.448826 0.000000 0.000000
# 5 0.000000 0.000000 0.000000 0.000000 0.036231 0.000000
# 6 0.000000 0.000000 0.000000 0.000000 0.000000 0.069114
#
#
# Mechanical properties :
#
#
# Convention : Reuss Voigt Hill
#
# Bulk Modulus (GPa) = 13.00968 14.77781 13.89374
# Shear Modulus (GPa) = 7.88690 19.95995 13.92343
#
# Velocity S-wave (km/s) = 2.07900 3.30735 2.76232
# Velocity P-wave (km/s) = 3.59063 4.76271 4.21758
#
# Compressibility (1/GPa) = 0.07686587
#
# Stress axis : x y z
#
# Youngs Moduli (GPa) = 34.89556 71.06968 43.87900
#
# Poissons Ratio (x) = -0.27564 -0.11269
# Poissons Ratio (y) = -0.13534 0.03390
# Poissons Ratio (z) = -0.08962 0.05491
#
# Static dielectric constant tensor:
#      x y z
#    x 1.661550 0.000000 0.000000 
#    y 0.000000 1.765080 0.000000 
#    z 0.000000 0.000000 1.603920 
# 
# From -- ./inp_files/13290.got.cif
#   From: 2010.05.17/outbox.cif.g08.bks.cpg/sg62_7_cif.got.tgz:13290.got - 2010.06.03 15:25:27.
