data_PCOD9464003
_publ_section_title
;
Structure prediction by ZEFSAII (Michael W. Deem and Ramdas Pophale) SiO2 
 PCOD9464003
Probable space group: P N M A
;
_chemical_formula_sum "Si O2"
_cell_formula_units_Z 56
_cell_length_a 11.568425
_cell_length_b 22.467967
_cell_length_c 10.202320
_cell_angle_alpha 90.000000
_cell_angle_beta 90.000000
_cell_angle_gamma 90.000000
_cell_volume 2651.776722
_symmetry_space_group_name_H-M "P N M A"
_symmetry_group_IT_number 62
_symmetry_cell_setting 'orthorhombic'
loop_
_space_group_symop_operation_xyz
x,y,z
1/2-x,-y,1/2+z
1/2+x,1/2-y,1/2-z
-x,1/2+y,-z
-x,-y,-z
1/2+x,y,1/2-z
1/2-x,1/2+y,1/2+z
x,1/2-y,z
loop_
_atom_site_type_symbol
_atom_site_label
_atom_site_fract_x
_atom_site_fract_y
_atom_site_fract_z
Si Si1 0.833146 0.442961 0.166057
Si Si2 0.559286 0.313056 0.586536
Si Si3 0.321520 0.366792 0.590348
Si Si4 0.426995 0.683474 0.101320
Si Si5 0.571217 0.457883 0.246642
Si Si6 0.159108 0.441135 0.976714
Si Si7 0.107600 0.581785 0.375474
O O1 0.698638 0.431763 0.206345
O O2 0.849860 0.514462 0.146989
O O3 0.947302 0.423936 0.248917
O O4 0.842603 0.415465 0.021264
O O5 0.602095 0.250000 0.530510
O O6 0.422036 0.318615 0.573999
O O7 0.582472 0.312896 0.741163
O O8 0.609409 0.374991 0.536462
O O9 0.198734 0.338017 0.560660
O O10 0.335103 0.392803 0.738804
O O11 0.457184 0.750000 0.053365
O O12 0.519092 0.631576 0.075981
O O13 0.598355 0.470145 0.399208
O O14 0.555336 0.518164 0.164052
O O15 0.296183 0.431665 0.983985
#
# Coordination Sequence:
#
# PCOD9464003 Si02
#       7
#     8   8   8   8   8   8   8
#     4  11  23  37  61  86 122 160 200 253 300 364
#     4  10  20  33  56  85 113 149 197 243 295 358
#     4  11  19  36  58  85 117 155 196 238 303 364
#     4  10  21  35  55  88 126 154 186 240 304 365
#     4  11  23  38  59  88 119 161 206 246 304 357
#     4  11  20  38  59  85 118 156 195 249 303 364
#     4  10  22  34  58  87 122 152 195 243 307 367
#
# _framework density 21.117916999999998
#
# number of rings (size 3 to 8) (size 9 to 14) (size 15 to 20)
#    0.000    1.429    4.286    2.571    2.000    2.286 
#    0.000    2.857    0.000    1.714    0.000    0.000 
#    0.000    0.000    0.000    0.000    0.000    0.000 
#
# Total GULP energy -312048.034516 kJ/mol
# GULP energy per Si atom -5572.286331 kJ/mol
# Density = 2.106985 g / cm^3
# Si number density = 21.117917 Si / 1000 Ang^3
#
#
#
# Elastic Constant Matrix: (Units=GPa)
#
#
# Indices 1 2 3 4 5 6 
#
# 1 138.8024 35.8992 28.6156 0.0000 0.0000 0.0000
# 2 35.8992 73.4581 1.6078 0.0000 0.0000 0.0000
# 3 28.6156 1.6078 20.1426 0.0000 0.0000 0.0000
# 4 0.0000 0.0000 0.0000 157.2168 0.0000 0.0000
# 5 0.0000 0.0000 0.0000 0.0000 23.5271 0.0000
# 6 0.0000 0.0000 0.0000 0.0000 0.0000 4.8578
#
#
#
# Elastic Compliance Matrix: (Units=1/GPa)
#
#
# Indices 1 2 3 4 5 6 
#
# 1 0.012086 -0.005540 -0.016728 0.000000 0.000000 0.000000
# 2 -0.005540 0.016177 0.006580 0.000000 0.000000 0.000000
# 3 -0.016728 0.006580 0.072886 0.000000 0.000000 0.000000
# 4 0.000000 0.000000 0.000000 0.006361 0.000000 0.000000
# 5 0.000000 0.000000 0.000000 0.000000 0.042504 0.000000
# 6 0.000000 0.000000 0.000000 0.000000 0.000000 0.205853
#
#
# Mechanical properties :
#
#
# Convention : Reuss Voigt Hill
#
# Bulk Modulus (GPa) = 14.33254 40.51648 27.42451
# Shear Modulus (GPa) = 12.18026 48.20570 30.19298
#
# Velocity S-wave (km/s) = 2.40422 4.78294 3.78528
# Velocity P-wave (km/s) = 3.80902 7.05191 5.66737
#
# Compressibility (1/GPa) = 0.06977130
#
# Stress axis : x y z
#
# Youngs Moduli (GPa) = 82.73985 61.81696 13.72014
#
# Poissons Ratio (x) = 0.34249 0.22951
# Poissons Ratio (y) = 0.45841 -0.09028
# Poissons Ratio (z) = 1.38407 -0.40674
#
# Static dielectric constant tensor:
#      x y z
#    x 1.855190 0.000000 0.000000 
#    y 0.000000 1.830900 0.000000 
#    z 0.000000 0.000000 1.776570 
# 
# From -- ./inp_files/12418.got.cif
#   From: 2010.05.17/outbox.cif.g08.bks.cpg/sg62_7_cif.got.tgz:12418.got - 2010.06.03 15:25:27.
