data_PCOD9464031
_publ_section_title
;
Structure prediction by ZEFSAII (Michael W. Deem and Ramdas Pophale) SiO2 
 PCOD9464031
Probable space group: P N M A
;
_chemical_formula_sum "Si O2"
_cell_formula_units_Z 64
_cell_length_a 24.005472
_cell_length_b 13.693606
_cell_length_c 12.113662
_cell_angle_alpha 90.000000
_cell_angle_beta 90.000000
_cell_angle_gamma 90.000000
_cell_volume 3982.020845
_symmetry_space_group_name_H-M "P N M A"
_symmetry_group_IT_number 62
_symmetry_cell_setting 'orthorhombic'
loop_
_space_group_symop_operation_xyz
x,y,z
1/2-x,-y,1/2+z
1/2+x,1/2-y,1/2-z
-x,1/2+y,-z
-x,-y,-z
1/2+x,y,1/2-z
1/2-x,1/2+y,1/2+z
x,1/2-y,z
loop_
_atom_site_type_symbol
_atom_site_label
_atom_site_fract_x
_atom_site_fract_y
_atom_site_fract_z
Si Si1 0.402043 0.002738 0.186071
Si Si2 0.190641 0.450708 0.297619
Si Si3 0.396503 0.864361 0.635615
Si Si4 0.889192 0.636723 0.523739
Si Si5 0.508985 0.137781 0.195637
Si Si6 0.293422 0.365588 0.166240
Si Si7 0.261833 0.136354 0.910205
Si Si8 0.129177 0.136563 0.882083
O O1 0.397143 0.936163 0.294495
O O2 0.459350 0.062362 0.182303
O O3 0.350764 0.077979 0.184174
O O4 0.395475 0.932560 0.080711
O O5 0.145863 0.434670 0.200031
O O6 0.163402 0.394824 0.401569
O O7 0.247235 0.404212 0.251395
O O8 0.203392 0.560543 0.336792
O O9 0.379223 0.750000 0.656985
O O10 0.456953 0.875678 0.690314
O O11 0.393467 0.879798 0.505602
O O12 0.883948 0.750000 0.491979
O O13 0.943721 0.626623 0.601514
O O14 0.488683 0.250000 0.190901
O O15 0.300275 0.250000 0.179655
O O16 0.272767 0.382795 0.040127
O O17 0.275964 0.250000 0.888924
O O18 0.196153 0.123332 0.886554
O O19 0.118576 0.250000 0.852798
#
# Coordination Sequence:
#
# PCOD9464031 Si02
#       8
#     8   8   8   8   8   8   8   8
#     4  12  21  33  53  79 114 138 171 222 278 322
#     4  11  18  34  58  80 104 140 181 221 256 311
#     4   9  18  35  59  78 100 140 187 222 254 316
#     4  10  21  36  55  80 106 138 182 225 262 315
#     4   9  20  37  55  76 101 135 182 229 269 313
#     4  11  21  33  52  79 109 143 176 213 263 321
#     4  10  20  34  51  78 113 141 174 215 264 322
#     4  10  20  34  53  77 106 142 179 218 264 319
#
# _framework density 16.072241999999999
#
# number of rings (size 3 to 8) (size 9 to 14) (size 15 to 20)
#    0.000    1.750    3.750    3.000    0.000    0.500 
#    0.000    0.000    0.000    4.500    0.000    0.000 
#    0.000    0.000    0.000    0.000    0.000    0.000 
#
# Total GULP energy -357084.220052 kJ/mol
# GULP energy per Si atom -5579.440938 kJ/mol
# Density = 1.603566 g / cm^3
# Si number density = 16.072242 Si / 1000 Ang^3
#
#
#
# Elastic Constant Matrix: (Units=GPa)
#
#
# Indices 1 2 3 4 5 6 
#
# 1 79.2394 62.6170 40.3409 0.0000 0.0000 0.0000
# 2 62.6170 120.7473 71.2162 0.0000 0.0000 0.0000
# 3 40.3409 71.2162 93.7485 0.0000 0.0000 0.0000
# 4 0.0000 0.0000 0.0000 32.0096 0.0000 0.0000
# 5 0.0000 0.0000 0.0000 0.0000 13.0402 0.0000
# 6 0.0000 0.0000 0.0000 0.0000 0.0000 27.0014
#
#
#
# Elastic Compliance Matrix: (Units=1/GPa)
#
#
# Indices 1 2 3 4 5 6 
#
# 1 0.021486 -0.010307 -0.001416 0.000000 0.000000 0.000000
# 2 -0.010307 0.019949 -0.010719 0.000000 0.000000 0.000000
# 3 -0.001416 -0.010719 0.019419 0.000000 0.000000 0.000000
# 4 0.000000 0.000000 0.000000 0.031241 0.000000 0.000000
# 5 0.000000 0.000000 0.000000 0.000000 0.076686 0.000000
# 6 0.000000 0.000000 0.000000 0.000000 0.000000 0.037035
#
#
# Mechanical properties :
#
#
# Convention : Reuss Voigt Hill
#
# Bulk Modulus (GPa) = 62.61838 71.34261 66.98050
# Shear Modulus (GPa) = 19.52966 22.38098 20.95532
#
# Velocity S-wave (km/s) = 3.48964 3.73570 3.61476
# Velocity P-wave (km/s) = 7.43518 7.94307 7.69332
#
# Compressibility (1/GPa) = 0.01596975
#
# Stress axis : x y z
#
# Youngs Moduli (GPa) = 46.54284 50.12862 51.49685
#
# Poissons Ratio (x) = 0.51667 0.07291
# Poissons Ratio (y) = 0.47972 0.55199
# Poissons Ratio (z) = 0.06589 0.53732
#
# Static dielectric constant tensor:
#      x y z
#    x 1.519350 0.000000 0.000000 
#    y 0.000000 1.523090 0.000000 
#    z 0.000000 0.000000 1.527320 
# 
# From -- ./inp_files/15302.got.cif
#   From: 2010.05.17/outbox.cif.g08.bks.cpg/sg62_8_cif.got.tgz:15302.got - 2010.06.03 15:25:27.
