data_PCOD9464779
_publ_section_title
;
Structure prediction by ZEFSAII (Michael W. Deem and Ramdas Pophale) SiO2 
 PCOD9464779
Probable space group: P N M A
;
_chemical_formula_sum "Si O2"
_cell_formula_units_Z 44
_cell_length_a 14.334459
_cell_length_b 9.617024
_cell_length_c 14.649888
_cell_angle_alpha 90.000000
_cell_angle_beta 90.000000
_cell_angle_gamma 90.000000
_cell_volume 2019.557911
_symmetry_space_group_name_H-M "P N M A"
_symmetry_group_IT_number 62
_symmetry_cell_setting 'orthorhombic'
loop_
_space_group_symop_operation_xyz
x,y,z
1/2-x,-y,1/2+z
1/2+x,1/2-y,1/2-z
-x,1/2+y,-z
-x,-y,-z
1/2+x,y,1/2-z
1/2-x,1/2+y,1/2+z
x,1/2-y,z
loop_
_atom_site_type_symbol
_atom_site_label
_atom_site_fract_x
_atom_site_fract_y
_atom_site_fract_z
Si Si1 0.535612 0.905937 0.283625
Si Si2 0.160513 0.406377 0.329417
Si Si3 0.167730 0.088586 0.864721
Si Si4 0.824579 0.087979 0.952558
Si Si5 0.621380 0.471738 0.961414
Si Si6 0.025785 0.750000 0.468539
O O1 0.557256 0.750000 0.246371
O O2 0.427686 0.916588 0.308784
O O3 0.596026 0.920067 0.376509
O O4 0.572715 0.027442 0.220316
O O5 0.179702 0.250000 0.299384
O O6 0.247754 0.508437 0.316639
O O7 0.139126 0.407461 0.437166
O O8 0.193174 0.250000 0.879572
O O9 0.154323 0.010354 0.961354
O O10 0.818970 0.250000 0.981926
O O11 0.722506 0.043261 0.915443
O O12 0.541555 0.372636 0.922932
O O13 0.586742 0.626771 0.979616
#
# Coordination Sequence:
#
# PCOD9464779 Si02
#       6
#     8   8   8   8   8   4
#     4  10  23  41  60  90 118 155 202 245 296 353
#     4  11  23  41  59  85 123 159 194 242 300 354
#     4  10  21  39  64  87 114 157 197 241 300 353
#     4  10  20  38  61  86 120 151 197 251 293 346
#     4  10  20  38  58  87 115 155 192 248 289 347
#     4  10  20  36  60  86 114 150 204 230 294 354
#
# _framework density 21.786947999999999
#
# number of rings (size 3 to 8) (size 9 to 14) (size 15 to 20)
#    0.000    1.818    1.818    2.727    6.364    2.182 
#    6.545    0.000    0.000    0.000    0.000    0.000 
#    0.000    0.000    0.000    0.000    0.000    0.000 
#
# Total GULP energy -245035.806246 kJ/mol
# GULP energy per Si atom -5568.995597 kJ/mol
# Density = 2.173736 g / cm^3
# Si number density = 21.786948 Si / 1000 Ang^3
#
#
#
# Elastic Constant Matrix: (Units=GPa)
#
#
# Indices 1 2 3 4 5 6 
#
# 1 88.9014 56.8063 9.4006 0.0000 0.0000 0.0000
# 2 56.8063 193.3920 22.6618 0.0000 0.0000 0.0000
# 3 9.4006 22.6618 37.9691 0.0000 0.0000 0.0000
# 4 0.0000 0.0000 0.0000 30.7235 0.0000 0.0000
# 5 0.0000 0.0000 0.0000 0.0000 13.0324 0.0000
# 6 0.0000 0.0000 0.0000 0.0000 0.0000 25.6797
#
#
#
# Elastic Compliance Matrix: (Units=1/GPa)
#
#
# Indices 1 2 3 4 5 6 
#
# 1 0.013888 -0.003953 -0.001079 0.000000 0.000000 0.000000
# 2 -0.003953 0.006685 -0.003011 0.000000 0.000000 0.000000
# 3 -0.001079 -0.003011 0.028402 0.000000 0.000000 0.000000
# 4 0.000000 0.000000 0.000000 0.032548 0.000000 0.000000
# 5 0.000000 0.000000 0.000000 0.000000 0.076732 0.000000
# 6 0.000000 0.000000 0.000000 0.000000 0.000000 0.038941
#
#
# Mechanical properties :
#
#
# Convention : Reuss Voigt Hill
#
# Bulk Modulus (GPa) = 30.40613 55.33330 42.86971
# Shear Modulus (GPa) = 22.29697 29.31339 25.80518
#
# Velocity S-wave (km/s) = 3.20255 3.67203 3.44529
# Velocity P-wave (km/s) = 5.25942 6.59022 5.96207
#
# Compressibility (1/GPa) = 0.03288811
#
# Stress axis : x y z
#
# Youngs Moduli (GPa) = 72.00212 149.59187 35.20935
#
# Poissons Ratio (x) = 0.59135 0.03800
# Poissons Ratio (y) = 0.28463 0.10602
# Poissons Ratio (z) = 0.07770 0.45044
#
# Static dielectric constant tensor:
#      x y z
#    x 1.836870 0.000000 0.000000 
#    y 0.000000 1.734820 0.000000 
#    z 0.000000 0.000000 1.846860 
# 
# From -- ./inp_files/23529.got.cif
#   From: 2010.05.17/outbox.cif.g08.bks.cpg/sg62_12_cif.got.tgz:23529.got - 2010.06.03 15:25:27.
