data_PCOD9464531
_publ_section_title
;
Structure prediction by ZEFSAII (Michael W. Deem and Ramdas Pophale) SiO2 
 PCOD9464531
Probable space group: P N M A
;
_chemical_formula_sum "Si O2"
_cell_formula_units_Z 64
_cell_length_a 14.392279
_cell_length_b 7.472210
_cell_length_c 24.964611
_cell_angle_alpha 90.000000
_cell_angle_beta 90.000000
_cell_angle_gamma 90.000000
_cell_volume 2684.747468
_symmetry_space_group_name_H-M "P N M A"
_symmetry_group_IT_number 62
_symmetry_cell_setting 'orthorhombic'
loop_
_space_group_symop_operation_xyz
x,y,z
1/2-x,-y,1/2+z
1/2+x,1/2-y,1/2-z
-x,1/2+y,-z
-x,-y,-z
1/2+x,y,1/2-z
1/2-x,1/2+y,1/2+z
x,1/2-y,z
loop_
_atom_site_type_symbol
_atom_site_label
_atom_site_fract_x
_atom_site_fract_y
_atom_site_fract_z
Si Si1 0.934344 0.537801 0.449941
Si Si2 0.397634 0.031560 0.742877
Si Si3 0.285269 0.530752 0.398682
Si Si4 0.608948 0.035467 0.494585
Si Si5 0.919136 0.544901 0.195203
Si Si6 0.253190 0.545532 0.589808
Si Si7 0.805265 0.045414 0.297108
Si Si8 0.580886 0.967986 0.134782
O O1 0.920978 0.750000 0.446146
O O2 0.832455 0.454374 0.451728
O O3 0.000000 0.500000 0.500000
O O4 0.992379 0.470777 0.398711
O O5 0.394012 0.250000 0.741308
O O6 0.478319 0.967389 0.702919
O O7 0.421478 0.979171 0.803483
O O8 0.297080 0.961365 0.728276
O O9 0.283404 0.750000 0.397963
O O10 0.334820 0.471964 0.453209
O O11 0.347774 0.468772 0.348180
O O12 0.178673 0.473964 0.391186
O O13 0.620747 0.250000 0.493037
O O14 0.658199 0.965672 0.440441
O O15 0.500000 0.000000 0.500000
O O16 0.932965 0.750000 0.178412
O O17 0.872529 0.544215 0.254013
O O18 0.276445 0.750000 0.605007
O O19 0.211089 0.462875 0.644046
O O20 0.837806 0.250000 0.302251
O O21 0.579809 0.750000 0.133123
#
# Coordination Sequence:
#
# PCOD9464531 Si02
#       8
#     8   8   8   8   8   8   8   8
#     4  11  22  37  62  92 119 152 196 245 299 355
#     4  10  20  35  59  86 112 147 196 245 287 341
#     4   9  17  33  58  83 110 145 189 239 291 341
#     4  10  22  40  61  84 113 153 199 247 294 345
#     4  10  20  36  60  88 115 150 197 248 293 346
#     4  10  23  42  59  81 121 164 198 239 296 356
#     4  11  23  38  57  85 123 162 192 234 299 358
#     4   9  17  33  57  84 114 149 187 234 290 346
#
# _framework density 23.838369
#
# number of rings (size 3 to 8) (size 9 to 14) (size 15 to 20)
#    0.000    2.000    1.250    2.250    1.750    5.000 
#    0.000    1.875    0.000    0.000    0.000    0.000 
#    0.000    0.000    0.000    0.000    0.000    0.000 
#
# Total GULP energy -357845.608443 kJ/mol
# GULP energy per Si atom -5591.337632 kJ/mol
# Density = 2.378411 g / cm^3
# Si number density = 23.838369 Si / 1000 Ang^3
#
#
#
# Elastic Constant Matrix: (Units=GPa)
#
#
# Indices 1 2 3 4 5 6 
#
# 1 91.5325 -10.5765 -6.4954 0.0000 0.0000 0.0000
# 2 -10.5765 77.7241 -3.6660 0.0000 0.0000 0.0000
# 3 -6.4954 -3.6660 72.1817 0.0000 0.0000 0.0000
# 4 0.0000 0.0000 0.0000 7.4545 0.0000 0.0000
# 5 0.0000 0.0000 0.0000 0.0000 43.2050 0.0000
# 6 0.0000 0.0000 0.0000 0.0000 0.0000 35.4130
#
#
#
# Elastic Compliance Matrix: (Units=1/GPa)
#
#
# Indices 1 2 3 4 5 6 
#
# 1 0.011184 0.001573 0.001086 0.000000 0.000000 0.000000
# 2 0.001573 0.013118 0.000808 0.000000 0.000000 0.000000
# 3 0.001086 0.000808 0.013993 0.000000 0.000000 0.000000
# 4 0.000000 0.000000 0.000000 0.134147 0.000000 0.000000
# 5 0.000000 0.000000 0.000000 0.000000 0.023145 0.000000
# 6 0.000000 0.000000 0.000000 0.000000 0.000000 0.028238
#
#
# Mechanical properties :
#
#
# Convention : Reuss Voigt Hill
#
# Bulk Modulus (GPa) = 22.10954 22.21804 22.16379
# Shear Modulus (GPa) = 21.55474 34.69291 28.12383
#
# Velocity S-wave (km/s) = 3.01026 3.81903 3.43851
# Velocity P-wave (km/s) = 4.62354 5.36537 5.00821
#
# Compressibility (1/GPa) = 0.04522934
#
# Stress axis : x y z
#
# Youngs Moduli (GPa) = 89.41387 76.23000 71.46575
#
# Poissons Ratio (x) = -0.11992 -0.07763
# Poissons Ratio (y) = -0.14066 -0.05773
# Poissons Ratio (z) = -0.09713 -0.06158
#
# Static dielectric constant tensor:
#      x y z
#    x 1.865390 0.000000 0.000000 
#    y 0.000000 1.915570 0.000000 
#    z 0.000000 0.000000 1.950720 
# 
# From -- ./inp_files/29837.got.cif
#   From: 2010.05.17/outbox.cif.g08.bks.cpg/sg62_15_cif.got.tgz:29837.got - 2010.06.03 15:25:27.
