data_PCOD9464189
_publ_section_title
;
Structure prediction by ZEFSAII (Michael W. Deem and Ramdas Pophale) SiO2 
 PCOD9464189
Probable space group: P N M A
;
_chemical_formula_sum "Si O2"
_cell_formula_units_Z 60
_cell_length_a 32.799040
_cell_length_b 9.544071
_cell_length_c 8.155695
_cell_angle_alpha 90.000000
_cell_angle_beta 90.000000
_cell_angle_gamma 90.000000
_cell_volume 2553.029129
_symmetry_space_group_name_H-M "P N M A"
_symmetry_group_IT_number 62
_symmetry_cell_setting 'orthorhombic'
loop_
_space_group_symop_operation_xyz
x,y,z
1/2-x,-y,1/2+z
1/2+x,1/2-y,1/2-z
-x,1/2+y,-z
-x,-y,-z
1/2+x,y,1/2-z
1/2-x,1/2+y,1/2+z
x,1/2-y,z
loop_
_atom_site_type_symbol
_atom_site_label
_atom_site_fract_x
_atom_site_fract_y
_atom_site_fract_z
Si Si1 0.322574 0.906357 0.073018
Si Si2 0.468202 0.536915 0.671887
Si Si3 0.123246 0.412256 0.906911
Si Si4 0.057673 0.583690 0.711781
Si Si5 0.191315 0.913946 0.078734
Si Si6 0.741747 0.911249 0.763976
Si Si7 0.904675 0.906589 0.570656
Si Si8 0.490555 0.250000 0.568222
O O1 0.303824 0.750000 0.054858
O O2 0.356320 0.927050 0.933103
O O3 0.290308 0.026776 0.104519
O O4 0.349484 0.905195 0.240027
O O5 0.509293 0.556044 0.782412
O O6 0.428092 0.591441 0.759865
O O7 0.462813 0.374056 0.643724
O O8 0.480841 0.629647 0.517594
O O9 0.115548 0.250000 0.952306
O O10 0.083717 0.500180 0.848694
O O11 0.150590 0.499612 0.034311
O O12 0.062996 0.750000 0.737879
O O13 0.075085 0.524671 0.542632
O O14 0.183662 0.750000 0.115004
O O15 0.218844 0.918761 0.910907
O O16 0.218656 0.991966 0.214580
O O17 0.751976 0.750000 0.798783
O O18 0.911872 0.750000 0.496127
#
# Coordination Sequence:
#
# PCOD9464189 Si02
#       8
#     8   8   8   8   8   8   8   4
#     4   8  16  31  52  78 107 142 174 217 276 329
#     4  11  22  40  58  78 106 146 193 228 267 329
#     4   9  18  33  54  81 111 145 176 218 281 336
#     4  11  21  33  56  87 113 136 177 234 287 326
#     4  10  20  35  58  83 113 147 185 227 273 328
#     4  10  20  34  56  82 112 146 184 224 274 331
#     4  10  20  35  57  85 112 136 177 234 289 328
#     4  10  24  40  58  72 104 154 198 218 266 330
#
# _framework density 23.501494999999998
#
# number of rings (size 3 to 8) (size 9 to 14) (size 15 to 20)
#    0.000    2.133    1.333    2.800    2.800    4.800 
#    0.000    0.000    5.867    0.000    0.000    0.000 
#    0.000    0.000    0.000    0.000    0.000    0.000 
#
# Total GULP energy -334455.993967 kJ/mol
# GULP energy per Si atom -5574.266566 kJ/mol
# Density = 2.344800 g / cm^3
# Si number density = 23.501495 Si / 1000 Ang^3
#
#
#
# Elastic Constant Matrix: (Units=GPa)
#
#
# Indices 1 2 3 4 5 6 
#
# 1 86.5928 46.3279 25.5729 0.0000 0.0000 0.0000
# 2 46.3279 215.1792 26.9004 0.0000 0.0000 0.0000
# 3 25.5729 26.9004 39.9581 0.0000 0.0000 0.0000
# 4 0.0000 0.0000 0.0000-1036.2458 0.0000 0.0000
# 5 0.0000 0.0000 0.0000 0.0000 50.3886 0.0000
# 6 0.0000 0.0000 0.0000 0.0000 0.0000 0.6498
#
#
#
# Elastic Compliance Matrix: (Units=1/GPa)
#
#
# Indices 1 2 3 4 5 6 
#
# 1 0.015169 -0.002241 -0.008199 0.000000 0.000000 0.000000
# 2 -0.002241 0.005405 -0.002205 0.000000 0.000000 0.000000
# 3 -0.008199 -0.002205 0.031758 0.000000 0.000000 0.000000
# 4 0.000000 0.000000 0.000000 -0.000965 0.000000 0.000000
# 5 0.000000 0.000000 0.000000 0.000000 0.019846 0.000000
# 6 0.000000 0.000000 0.000000 0.000000 0.000000 1.538925
#
#
# Mechanical properties :
#
#
# Convention : Reuss Voigt Hill
#
# Bulk Modulus (GPa) = 36.97931 59.92582 48.45256
# Shear Modulus (GPa) = 3.04055 -180.84620 -88.90283
#
# Velocity S-wave (km/s) = 1.13867 -8.78168 -6.15717
# Velocity P-wave (km/s) = 4.18304 8.79033 5.46681
#
# Compressibility (1/GPa) = 0.02704215
#
# Stress axis : x y z
#
# Youngs Moduli (GPa) = 65.92591 185.00135 31.48810
#
# Poissons Ratio (x) = 0.41454 0.25818
# Poissons Ratio (y) = 0.14772 0.06943
# Poissons Ratio (z) = 0.54054 0.40791
#
# Static dielectric constant tensor:
#      x y z
#    x 1.905860 0.000000 0.000000 
#    y 0.000000 1.830620 0.000000 
#    z 0.000000 0.000000 1.966810 
# 
# From -- ./inp_files/15735.got.cif
#   From: 2010.05.17/outbox.cif.g08.bks.cpg/sg62_8_cif.got.tgz:15735.got - 2010.06.03 15:25:27.
