data_PCOD9464517
_publ_section_title
;
Structure prediction by ZEFSAII (Michael W. Deem and Ramdas Pophale) SiO2 
 PCOD9464517
Probable space group: P N M A
;
_chemical_formula_sum "Si O2"
_cell_formula_units_Z 32
_cell_length_a 5.461373
_cell_length_b 9.973072
_cell_length_c 24.522893
_cell_angle_alpha 90.000000
_cell_angle_beta 90.000000
_cell_angle_gamma 90.000000
_cell_volume 1335.680226
_symmetry_space_group_name_H-M "P N M A"
_symmetry_group_IT_number 62
_symmetry_cell_setting 'orthorhombic'
loop_
_space_group_symop_operation_xyz
x,y,z
1/2-x,-y,1/2+z
1/2+x,1/2-y,1/2-z
-x,1/2+y,-z
-x,-y,-z
1/2+x,y,1/2-z
1/2-x,1/2+y,1/2+z
x,1/2-y,z
loop_
_atom_site_type_symbol
_atom_site_label
_atom_site_fract_x
_atom_site_fract_y
_atom_site_fract_z
Si Si1 0.332299 0.599218 0.784819
Si Si2 0.924113 0.899335 0.360967
Si Si3 0.879100 0.902370 0.918993
Si Si4 0.241124 0.606385 0.464552
O O1 0.573201 0.589982 0.746038
O O2 0.345809 0.750000 0.809886
O O3 0.371260 0.476534 0.826174
O O4 0.864067 0.750000 0.340086
O O5 0.021919 0.883433 0.422385
O O6 0.709285 0.006970 0.369023
O O7 0.924819 0.750000 0.902384
O O8 0.692446 0.897410 0.970985
O O9 0.106611 0.978061 0.945958
O O10 0.383433 0.750000 0.457005
#
# Coordination Sequence:
#
# PCOD9464517 Si02
#       4
#     8   8   8   8
#     4  10  24  46  69  95 127 164 213 269 325 387
#     4  11  23  38  61  89 123 161 206 259 318 384
#     4  10  20  35  58  87 123 165 208 254 311 376
#     4   9  20  37  56  86 125 164 206 257 312 375
#
# _framework density 23.957829
#
# number of rings (size 3 to 8) (size 9 to 14) (size 15 to 20)
#    0.000    2.000    0.000    2.250    3.500    4.000 
#    0.000    0.000    0.000    0.000    0.000    0.000 
#    0.000    0.000    0.000    0.000    0.000    0.000 
#
# Total GULP energy -178546.922571 kJ/mol
# GULP energy per Si atom -5579.591330 kJ/mol
# Density = 2.390330 g / cm^3
# Si number density = 23.957829 Si / 1000 Ang^3
#
#
#
# Elastic Constant Matrix: (Units=GPa)
#
#
# Indices 1 2 3 4 5 6 
#
# 1 64.8848 29.3785 24.3655 0.0000 0.0000 0.0000
# 2 29.3785 226.6795 49.2110 0.0000 0.0000 0.0000
# 3 24.3655 49.2110 50.7061 0.0000 0.0000 0.0000
# 4 0.0000 0.0000 0.0000 19.5434 0.0000 0.0000
# 5 0.0000 0.0000 0.0000 0.0000 43.2087 0.0000
# 6 0.0000 0.0000 0.0000 0.0000 0.0000 17.5559
#
#
#
# Elastic Compliance Matrix: (Units=1/GPa)
#
#
# Indices 1 2 3 4 5 6 
#
# 1 0.018870 -0.000604 -0.008481 0.000000 0.000000 0.000000
# 2 -0.000604 0.005608 -0.005153 0.000000 0.000000 0.000000
# 3 -0.008481 -0.005153 0.028798 0.000000 0.000000 0.000000
# 4 0.000000 0.000000 0.000000 0.051168 0.000000 0.000000
# 5 0.000000 0.000000 0.000000 0.000000 0.023143 0.000000
# 6 0.000000 0.000000 0.000000 0.000000 0.000000 0.056961
#
#
# Mechanical properties :
#
#
# Convention : Reuss Voigt Hill
#
# Bulk Modulus (GPa) = 40.32236 60.90893 50.61564
# Shear Modulus (GPa) = 22.59460 32.01597 27.30528
#
# Velocity S-wave (km/s) = 3.07432 3.65957 3.37964
# Velocity P-wave (km/s) = 5.42854 6.58295 6.03342
#
# Compressibility (1/GPa) = 0.02480013
#
# Stress axis : x y z
#
# Youngs Moduli (GPa) = 52.99296 178.30187 34.72520
#
# Poissons Ratio (x) = 0.10778 0.29451
# Poissons Ratio (y) = 0.03203 0.17893
# Poissons Ratio (z) = 0.44944 0.91872
#
# Static dielectric constant tensor:
#      x y z
#    x 1.950940 0.000000 0.000000 
#    y 0.000000 2.001490 0.000000 
#    z 0.000000 0.000000 1.954720 
# 
# From -- ./inp_files/31411.got.cif
#   From: 2010.05.17/outbox.cif.g08.bks.cpg/sg62_16_cif.got.tgz:31411.got - 2010.06.03 15:25:27.
