data_PCOD9464806
_publ_section_title
;
Structure prediction by ZEFSAII (Michael W. Deem and Ramdas Pophale) SiO2 
 PCOD9464806
Probable space group: P N M A
;
_chemical_formula_sum "Si O2"
_cell_formula_units_Z 40
_cell_length_a 10.012027
_cell_length_b 25.232723
_cell_length_c 8.787371
_cell_angle_alpha 90.000000
_cell_angle_beta 90.000000
_cell_angle_gamma 90.000000
_cell_volume 2219.959722
_symmetry_space_group_name_H-M "P N M A"
_symmetry_group_IT_number 62
_symmetry_cell_setting 'orthorhombic'
loop_
_space_group_symop_operation_xyz
x,y,z
1/2-x,-y,1/2+z
1/2+x,1/2-y,1/2-z
-x,1/2+y,-z
-x,-y,-z
1/2+x,y,1/2-z
1/2-x,1/2+y,1/2+z
x,1/2-y,z
loop_
_atom_site_type_symbol
_atom_site_label
_atom_site_fract_x
_atom_site_fract_y
_atom_site_fract_z
Si Si1 0.025160 0.134910 0.103718
Si Si2 0.995222 0.250000 0.135831
Si Si3 0.191197 0.250000 0.415080
Si Si4 0.791656 0.868581 0.593136
Si Si5 0.634441 0.023095 0.927958
Si Si6 0.382529 0.535594 0.432463
O O1 0.033270 0.196006 0.052983
O O2 0.866553 0.124997 0.132425
O O3 0.115305 0.129323 0.255846
O O4 0.080406 0.095132 0.978302
O O5 0.836829 0.250000 0.164641
O O6 0.072374 0.250000 0.294452
O O7 0.188592 0.309884 0.483620
O O8 0.833529 0.918172 0.490550
O O9 0.628033 0.025996 0.746457
O O10 0.500000 0.000000 0.000000
O O11 0.749995 0.983785 0.983607
O O12 0.500000 0.500000 0.500000
#
# Coordination Sequence:
#
# PCOD9464806 Si02
#       6
#     8   4   4   8   8   8
#     4  10  20  36  61  87 121 153 198 238 291 347
#     4   8  16  32  55  86 114 154 190 237 282 346
#     4   8  16  32  57  84 118 150 192 233 284 344
#     4  10  20  37  60  90 118 156 194 240 288 349
#     4  12  26  40  61  86 120 154 195 241 297 349
#     4  12  24  42  59  86 117 154 194 242 293 353
#
# _framework density 18.018346000000001
#
# number of rings (size 3 to 8) (size 9 to 14) (size 15 to 20)
#    0.000    1.600    2.000    3.600    2.800    0.000 
#    0.000    1.000    0.000    0.000    0.000    0.000 
#    0.000    0.000    0.000    0.000    0.000    0.000 
#
# Total GULP energy -222986.729869 kJ/mol
# GULP energy per Si atom -5574.668247 kJ/mol
# Density = 1.797734 g / cm^3
# Si number density = 18.018346 Si / 1000 Ang^3
#
#
#
# Elastic Constant Matrix: (Units=GPa)
#
#
# Indices 1 2 3 4 5 6 
#
# 1 131.4860 67.0856 52.1662 0.0000 0.0000 0.0000
# 2 67.0856 136.2372 56.4497 0.0000 0.0000 0.0000
# 3 52.1662 56.4497 117.1654 0.0000 0.0000 0.0000
# 4 0.0000 0.0000 0.0000 29.5701 0.0000 0.0000
# 5 0.0000 0.0000 0.0000 0.0000 20.0320 0.0000
# 6 0.0000 0.0000 0.0000 0.0000 0.0000 32.0665
#
#
#
# Elastic Compliance Matrix: (Units=1/GPa)
#
#
# Indices 1 2 3 4 5 6 
#
# 1 0.010856 -0.004177 -0.002821 0.000000 0.000000 0.000000
# 2 -0.004177 0.010778 -0.003333 0.000000 0.000000 0.000000
# 3 -0.002821 -0.003333 0.011397 0.000000 0.000000 0.000000
# 4 0.000000 0.000000 0.000000 0.033818 0.000000 0.000000
# 5 0.000000 0.000000 0.000000 0.000000 0.049920 0.000000
# 6 0.000000 0.000000 0.000000 0.000000 0.000000 0.031185
#
#
# Mechanical properties :
#
#
# Convention : Reuss Voigt Hill
#
# Bulk Modulus (GPa) = 80.84894 81.81019 81.32956
# Shear Modulus (GPa) = 28.94562 30.27955 29.61258
#
# Velocity S-wave (km/s) = 4.01241 4.10382 4.05837
# Velocity P-wave (km/s) = 8.15068 8.24363 8.19729
#
# Compressibility (1/GPa) = 0.01236875
#
# Stress axis : x y z
#
# Youngs Moduli (GPa) = 92.11907 92.78295 87.74356
#
# Poissons Ratio (x) = 0.38751 0.24753
# Poissons Ratio (y) = 0.38474 0.29246
# Poissons Ratio (z) = 0.25987 0.30926
#
# Static dielectric constant tensor:
#      x y z
#    x 1.597860 0.000000 0.000000 
#    y 0.000000 1.675230 0.000000 
#    z 0.000000 0.000000 1.567610 
# 
# From -- ./inp_files/4316.got.cif
#   From: 2010.05.17/outbox.cif.g08.bks.cpg/sg62_3_cif.got.tgz:4316.got - 2010.06.03 15:25:27.
