data_PCOD9464465
_publ_section_title
;
Structure prediction by ZEFSAII (Michael W. Deem and Ramdas Pophale) SiO2 
 PCOD9464465
Probable space group: P N M A
;
_chemical_formula_sum "Si O2"
_cell_formula_units_Z 56
_cell_length_a 14.226207
_cell_length_b 22.992986
_cell_length_c 9.615308
_cell_angle_alpha 90.000000
_cell_angle_beta 90.000000
_cell_angle_gamma 90.000000
_cell_volume 3145.195885
_symmetry_space_group_name_H-M "P N M A"
_symmetry_group_IT_number 62
_symmetry_cell_setting 'orthorhombic'
loop_
_space_group_symop_operation_xyz
x,y,z
1/2-x,-y,1/2+z
1/2+x,1/2-y,1/2-z
-x,1/2+y,-z
-x,-y,-z
1/2+x,y,1/2-z
1/2-x,1/2+y,1/2+z
x,1/2-y,z
loop_
_atom_site_type_symbol
_atom_site_label
_atom_site_fract_x
_atom_site_fract_y
_atom_site_fract_z
Si Si1 0.753096 0.183477 0.619419
Si Si2 0.920331 0.413583 0.350014
Si Si3 0.072810 0.185886 0.687161
Si Si4 0.928308 0.683450 0.642818
Si Si5 0.294798 0.615230 0.655912
Si Si6 0.552121 0.484404 0.357039
Si Si7 0.082252 0.906704 0.325408
O O1 0.787318 0.250000 0.604636
O O2 0.668623 0.182504 0.728556
O O3 0.715755 0.159197 0.473009
O O4 0.833066 0.139141 0.667432
O O5 0.810488 0.407430 0.313992
O O6 0.929090 0.428581 0.514586
O O7 0.975035 0.352037 0.333719
O O8 0.975888 0.457498 0.250609
O O9 0.029881 0.250000 0.717564
O O10 0.089081 0.183546 0.522060
O O11 0.006921 0.131620 0.720399
O O12 0.935282 0.750000 0.690994
O O13 0.844934 0.649498 0.719355
O O14 0.365280 0.562510 0.619533
O O15 0.500000 0.500000 0.500000
O O16 0.594597 0.540749 0.280517
#
# Coordination Sequence:
#
# PCOD9464465 Si02
#       7
#     8   8   8   8   8   8   8
#     4  10  20  35  57  84 109 139 181 225 275 328
#     4   9  21  37  54  77 104 142 184 218 265 329
#     4   9  18  33  53  77 105 135 170 216 267 317
#     4   9  18  34  55  79 107 138 175 221 271 325
#     4  10  21  36  55  80 109 144 181 224 275 330
#     4  11  23  37  54  79 110 142 182 229 277 324
#     4  10  20  36  56  76 104 142 181 219 263 323
#
# _framework density 17.804932999999998
#
# number of rings (size 3 to 8) (size 9 to 14) (size 15 to 20)
#    0.000    2.286    0.000    2.143    0.000    8.571 
#    0.000    1.429    0.000    4.286    0.000    0.000 
#    0.000    0.000    0.000    0.000    0.000    0.000 
#
# Total GULP energy -312382.832548 kJ/mol
# GULP energy per Si atom -5578.264867 kJ/mol
# Density = 1.776441 g / cm^3
# Si number density = 17.804933 Si / 1000 Ang^3
#
#
#
# Elastic Constant Matrix: (Units=GPa)
#
#
# Indices 1 2 3 4 5 6 
#
# 1 78.6311 12.3840 15.0000 0.0000 0.0000 0.0000
# 2 12.3840 71.0554 19.1588 0.0000 0.0000 0.0000
# 3 15.0000 19.1588 22.4985 0.0000 0.0000 0.0000
# 4 0.0000 0.0000 0.0000 30.0138 0.0000 0.0000
# 5 0.0000 0.0000 0.0000 0.0000 21.7436 0.0000
# 6 0.0000 0.0000 0.0000 0.0000 0.0000 26.7796
#
#
#
# Elastic Compliance Matrix: (Units=1/GPa)
#
#
# Indices 1 2 3 4 5 6 
#
# 1 0.014571 0.000104 -0.009803 0.000000 0.000000 0.000000
# 2 0.000104 0.018269 -0.015626 0.000000 0.000000 0.000000
# 3 -0.009803 -0.015626 0.064290 0.000000 0.000000 0.000000
# 4 0.000000 0.000000 0.000000 0.033318 0.000000 0.000000
# 5 0.000000 0.000000 0.000000 0.000000 0.045990 0.000000
# 6 0.000000 0.000000 0.000000 0.000000 0.000000 0.037342
#
#
# Mechanical properties :
#
#
# Convention : Reuss Voigt Hill
#
# Bulk Modulus (GPa) = 21.51517 29.47451 25.49484
# Shear Modulus (GPa) = 17.86198 24.08357 20.97277
#
# Velocity S-wave (km/s) = 3.17078 3.68181 3.43581
# Velocity P-wave (km/s) = 5.05125 5.88764 5.48541
#
# Compressibility (1/GPa) = 0.04647884
#
# Stress axis : x y z
#
# Youngs Moduli (GPa) = 68.62771 54.73835 15.55457
#
# Poissons Ratio (x) = -0.00567 0.15248
# Poissons Ratio (y) = -0.00711 0.24306
# Poissons Ratio (z) = 0.67277 0.85534
#
# Static dielectric constant tensor:
#      x y z
#    x 1.591040 0.000000 0.000000 
#    y 0.000000 1.605970 0.000000 
#    z 0.000000 0.000000 1.587150 
# 
# From -- ./inp_files/6746.got.cif
#   From: 2010.05.17/outbox.cif.g08.bks.cpg/sg62_4_cif.got.tgz:6746.got - 2010.06.03 15:25:27.
