data_PCOD9464789
_publ_section_title
;
Structure prediction by ZEFSAII (Michael W. Deem and Ramdas Pophale) SiO2 
 PCOD9464789
Probable space group: P N M A
;
_chemical_formula_sum "Si O2"
_cell_formula_units_Z 48
_cell_length_a 19.523766
_cell_length_b 8.477420
_cell_length_c 15.567196
_cell_angle_alpha 90.000000
_cell_angle_beta 90.000000
_cell_angle_gamma 90.000000
_cell_volume 2576.544736
_symmetry_space_group_name_H-M "P N M A"
_symmetry_group_IT_number 62
_symmetry_cell_setting 'orthorhombic'
loop_
_space_group_symop_operation_xyz
x,y,z
1/2-x,-y,1/2+z
1/2+x,1/2-y,1/2-z
-x,1/2+y,-z
-x,-y,-z
1/2+x,y,1/2-z
1/2-x,1/2+y,1/2+z
x,1/2-y,z
loop_
_atom_site_type_symbol
_atom_site_label
_atom_site_fract_x
_atom_site_fract_y
_atom_site_fract_z
Si Si1 0.827018 0.440843 0.624521
Si Si2 0.672637 0.938997 0.627695
Si Si3 0.925785 0.060775 0.470137
Si Si4 0.075075 0.557825 0.221297
Si Si5 0.077403 0.060779 0.720984
Si Si6 0.425067 0.440814 0.526656
O O1 0.825365 0.250000 0.625629
O O2 0.750223 0.502751 0.625062
O O3 0.869371 0.490158 0.540037
O O4 0.869888 0.494043 0.708188
O O5 0.671752 0.750000 0.628575
O O6 0.630193 0.993779 0.543680
O O7 0.632859 0.000184 0.711395
O O8 0.927571 0.250000 0.469525
O O9 0.910374 0.999234 0.375109
O O10 0.000000 0.000000 0.500000
O O11 0.075139 0.750000 0.222124
O O12 0.090069 0.506751 0.124043
O O13 0.998577 0.508090 0.248744
O O14 0.077931 0.250000 0.720808
O O15 0.500000 0.500000 0.500000
O O16 0.426173 0.250000 0.526378
#
# Coordination Sequence:
#
# PCOD9464789 Si02
#       6
#     8   8   8   8   8   8
#     4  10  22  41  61  85 121 163 200 242 299 365
#     4  11  24  39  57  91 128 157 196 252 306 358
#     4  11  22  38  62  93 125 158 204 253 302 364
#     4   9  18  36  61  87 113 151 202 244 291 359
#     4  11  21  38  64  89 117 160 206 251 304 359
#     4  10  20  36  60  87 117 150 194 244 294 356
#
# _framework density 18.6296
#
# number of rings (size 3 to 8) (size 9 to 14) (size 15 to 20)
#    0.000    1.667    3.333    1.500    0.000    3.333 
#    0.000    2.500    0.000    0.000    0.000    0.000 
#    0.000    0.000    0.000    0.000    0.000    0.000 
#
# Total GULP energy -268168.224741 kJ/mol
# GULP energy per Si atom -5586.838015 kJ/mol
# Density = 1.858720 g / cm^3
# Si number density = 18.629600 Si / 1000 Ang^3
#
#
#
# Elastic Constant Matrix: (Units=GPa)
#
#
# Indices 1 2 3 4 5 6 
#
# 1 196.4331 34.0327 126.5008 0.0000 0.0000 0.0000
# 2 34.0327 26.8674 36.4453 0.0000 0.0000 0.0000
# 3 126.5008 36.4453 231.5430 0.0000 0.0000 0.0000
# 4 0.0000 0.0000 0.0000 25.2927 0.0000 0.0000
# 5 0.0000 0.0000 0.0000 0.0000 35.4709 0.0000
# 6 0.0000 0.0000 0.0000 0.0000 0.0000 30.3756
#
#
#
# Elastic Compliance Matrix: (Units=1/GPa)
#
#
# Indices 1 2 3 4 5 6 
#
# 1 0.008483 -0.005669 -0.003742 0.000000 0.000000 0.000000
# 2 -0.005669 0.051113 -0.004948 0.000000 0.000000 0.000000
# 3 -0.003742 -0.004948 0.007142 0.000000 0.000000 0.000000
# 4 0.000000 0.000000 0.000000 0.039537 0.000000 0.000000
# 5 0.000000 0.000000 0.000000 0.000000 0.028192 0.000000
# 6 0.000000 0.000000 0.000000 0.000000 0.000000 0.032921
#
#
# Mechanical properties :
#
#
# Convention : Reuss Voigt Hill
#
# Bulk Modulus (GPa) = 26.30246 94.31121 60.30684
# Shear Modulus (GPa) = 23.94869 35.41881 29.68375
#
# Velocity S-wave (km/s) = 3.58930 4.36502 3.99603
# Velocity P-wave (km/s) = 5.59703 8.72576 7.33026
#
# Compressibility (1/GPa) = 0.03801926
#
# Stress axis : x y z
#
# Youngs Moduli (GPa) = 117.88406 19.56465 140.01256
#
# Poissons Ratio (x) = 0.11091 0.52396
# Poissons Ratio (y) = 0.66828 0.69279
# Poissons Ratio (z) = 0.44115 0.09681
#
# Static dielectric constant tensor:
#      x y z
#    x 1.596950 0.000000 0.000000 
#    y 0.000000 1.645250 0.000000 
#    z 0.000000 0.000000 1.638450 
# 
# From -- ./inp_files/19579.got.cif
#   From: 2010.05.17/outbox.cif.g08.bks.cpg/sg62_10_cif.got.tgz:19579.got - 2010.06.03 15:25:27.
