data_PCOD9464811
_publ_section_title
;
Structure prediction by ZEFSAII (Michael W. Deem and Ramdas Pophale) SiO2 
 PCOD9464811
Probable space group: P N M A
;
_chemical_formula_sum "Si O2"
_cell_formula_units_Z 64
_cell_length_a 12.270450
_cell_length_b 17.157093
_cell_length_c 12.537068
_cell_angle_alpha 90.000000
_cell_angle_beta 90.000000
_cell_angle_gamma 90.000000
_cell_volume 2639.369398
_symmetry_space_group_name_H-M "P N M A"
_symmetry_group_IT_number 62
_symmetry_cell_setting 'orthorhombic'
loop_
_space_group_symop_operation_xyz
x,y,z
1/2-x,-y,1/2+z
1/2+x,1/2-y,1/2-z
-x,1/2+y,-z
-x,-y,-z
1/2+x,y,1/2-z
1/2-x,1/2+y,1/2+z
x,1/2-y,z
loop_
_atom_site_type_symbol
_atom_site_label
_atom_site_fract_x
_atom_site_fract_y
_atom_site_fract_z
Si Si1 0.427861 0.488976 0.759485
Si Si2 0.504719 0.834899 0.990020
Si Si3 0.284310 0.912880 0.611318
Si Si4 0.887731 0.341654 0.025053
Si Si5 0.604727 0.159931 0.580219
Si Si6 0.324137 0.160891 0.824968
Si Si7 0.175989 0.452079 0.481124
Si Si8 0.088927 0.884493 0.737148
O O1 0.375957 0.532220 0.659425
O O2 0.398964 0.398303 0.759816
O O3 0.363632 0.520275 0.864606
O O4 0.548622 0.525281 0.762027
O O5 0.452971 0.750000 0.006285
O O6 0.425595 0.903557 0.026959
O O7 0.528690 0.846050 0.864410
O O8 0.613755 0.835647 0.060762
O O9 0.334319 0.850004 0.532893
O O10 0.215037 0.877398 0.706959
O O11 0.205831 0.971472 0.546864
O O12 0.866050 0.250000 0.002656
O O13 0.780737 0.395500 0.019653
O O14 0.929315 0.348129 0.147583
O O15 0.985370 0.371792 0.948242
O O16 0.590071 0.250000 0.608108
O O17 0.699245 0.130779 0.661202
O O18 0.321939 0.250000 0.784395
#
# Coordination Sequence:
#
# PCOD9464811 Si02
#       8
#     8   8   8   8   8   8   8   8
#     4  11  22  39  59  91 120 153 205 244 302 353
#     4  10  20  36  61  89 118 155 194 243 302 349
#     4  12  22  39  60  90 120 156 200 248 297 352
#     4  11  23  39  58  88 128 161 196 243 304 369
#     4  10  21  38  60  87 117 155 199 244 297 356
#     4  10  20  39  64  85 114 156 204 252 293 347
#     4  11  23  39  59  88 122 160 197 244 298 360
#     4  11  21  35  58  93 122 154 191 252 300 363
#
# _framework density 24.248218000000001
#
# number of rings (size 3 to 8) (size 9 to 14) (size 15 to 20)
#    0.000    1.250    5.000    1.500    0.000    3.000 
#    2.250    1.250    0.000    0.750    0.000    0.000 
#    0.000    0.000    0.000    0.000    0.000    0.000 
#
# Total GULP energy -357657.573372 kJ/mol
# GULP energy per Si atom -5588.399584 kJ/mol
# Density = 2.419303 g / cm^3
# Si number density = 24.248218 Si / 1000 Ang^3
#
#
#
# Elastic Constant Matrix: (Units=GPa)
#
#
# Indices 1 2 3 4 5 6 
#
# 1 85.4595 17.1384 13.4416 0.0000 0.0000 0.0000
# 2 17.1384 68.2659 -4.2822 0.0000 0.0000 0.0000
# 3 13.4416 -4.2822 57.5150 0.0000 0.0000 0.0000
# 4 0.0000 0.0000 0.0000 4.8334 0.0000 0.0000
# 5 0.0000 0.0000 0.0000 0.0000 11.0461 0.0000
# 6 0.0000 0.0000 0.0000 0.0000 0.0000 35.4957
#
#
#
# Elastic Compliance Matrix: (Units=1/GPa)
#
#
# Indices 1 2 3 4 5 6 
#
# 1 0.012907 -0.003446 -0.003273 0.000000 0.000000 0.000000
# 2 -0.003446 0.015637 0.001970 0.000000 0.000000 0.000000
# 3 -0.003273 0.001970 0.018298 0.000000 0.000000 0.000000
# 4 0.000000 0.000000 0.000000 0.206892 0.000000 0.000000
# 5 0.000000 0.000000 0.000000 0.000000 0.090530 0.000000
# 6 0.000000 0.000000 0.000000 0.000000 0.000000 0.028172
#
#
# Mechanical properties :
#
#
# Convention : Reuss Voigt Hill
#
# Bulk Modulus (GPa) = 26.77784 29.31511 28.04648
# Shear Modulus (GPa) = 12.67803 22.60456 17.64129
#
# Velocity S-wave (km/s) = 2.28906 3.05653 2.70020
# Velocity P-wave (km/s) = 4.24895 4.95705 4.61660
#
# Compressibility (1/GPa) = 0.03734431
#
# Stress axis : x y z
#
# Youngs Moduli (GPa) = 77.47570 63.95002 54.64980
#
# Poissons Ratio (x) = 0.22035 0.17887
# Poissons Ratio (y) = 0.26696 -0.10763
# Poissons Ratio (z) = 0.25358 -0.12595
#
# Static dielectric constant tensor:
#      x y z
#    x 1.971900 0.000000 0.000000 
#    y 0.000000 1.925600 0.000000 
#    z 0.000000 0.000000 1.939000 
# 
# From -- ./inp_files/18272.got.cif
#   From: 2010.05.17/outbox.cif.g08.bks.cpg/sg62_10_cif.got.tgz:18272.got - 2010.06.03 15:25:27.
