data_PCOD9464511
_publ_section_title
;
Structure prediction by ZEFSAII (Michael W. Deem and Ramdas Pophale) SiO2 
 PCOD9464511
Probable space group: P N M A
;
_chemical_formula_sum "Si O2"
_cell_formula_units_Z 56
_cell_length_a 21.968055
_cell_length_b 8.543387
_cell_length_c 15.057685
_cell_angle_alpha 90.000000
_cell_angle_beta 90.000000
_cell_angle_gamma 90.000000
_cell_volume 2826.050345
_symmetry_space_group_name_H-M "P N M A"
_symmetry_group_IT_number 62
_symmetry_cell_setting 'orthorhombic'
loop_
_space_group_symop_operation_xyz
x,y,z
1/2-x,-y,1/2+z
1/2+x,1/2-y,1/2-z
-x,1/2+y,-z
-x,-y,-z
1/2+x,y,1/2-z
1/2-x,1/2+y,1/2+z
x,1/2-y,z
loop_
_atom_site_type_symbol
_atom_site_label
_atom_site_fract_x
_atom_site_fract_y
_atom_site_fract_z
Si Si1 0.463135 0.564528 0.416169
Si Si2 0.672782 0.937654 0.564016
Si Si3 0.782364 0.940468 0.690077
Si Si4 0.984245 0.439128 0.274628
Si Si5 0.880443 0.061539 0.404492
Si Si6 0.260304 0.560040 0.609097
Si Si7 0.093422 0.439092 0.405387
O O1 0.500000 0.500000 0.500000
O O2 0.464507 0.750000 0.418999
O O3 0.393645 0.506410 0.420701
O O4 0.490809 0.505937 0.323309
O O5 0.668801 0.750000 0.568215
O O6 0.721669 0.990663 0.638253
O O7 0.699680 0.988914 0.469216
O O8 0.782353 0.750000 0.689259
O O9 0.782071 0.987610 0.792782
O O10 0.842524 0.991380 0.637604
O O11 0.984435 0.250000 0.268498
O O12 0.920798 0.489064 0.320563
O O13 0.038423 0.485825 0.341034
O O14 0.880382 0.250000 0.404074
O O15 0.810254 0.010324 0.401249
O O16 0.910607 0.004669 0.495625
O O17 0.262835 0.750000 0.603318
O O18 0.093569 0.250000 0.410292
#
# Coordination Sequence:
#
# PCOD9464511 Si02
#       7
#     8   8   8   8   8   8   8
#     4  12  27  46  67  92 123 160 206 256 309 371
#     4  11  22  41  65  91 124 161 202 252 308 364
#     4   9  19  36  59  87 123 164 204 252 309 365
#     4  10  22  40  63  91 125 168 210 252 309 367
#     4  10  20  36  58  89 129 169 206 254 309 367
#     4  10  20  35  58  86 119 163 209 252 306 365
#     4  10  20  36  60  90 123 163 210 257 308 367
#
# _framework density 19.815639999999998
#
# number of rings (size 3 to 8) (size 9 to 14) (size 15 to 20)
#    0.000    1.714    1.429    3.000    2.000    3.429 
#    0.000    3.571    0.000    0.000    0.000    0.000 
#    0.000    0.000    0.000    0.000    0.000    0.000 
#
# Total GULP energy -313036.217704 kJ/mol
# GULP energy per Si atom -5589.932459 kJ/mol
# Density = 1.977054 g / cm^3
# Si number density = 19.815640 Si / 1000 Ang^3
#
#
#
# Elastic Constant Matrix: (Units=GPa)
#
#
# Indices 1 2 3 4 5 6 
#
# 1 40.9718 7.1553 -10.0577 0.0000 0.0000 0.0000
# 2 7.1553 24.2225 10.2200 0.0000 0.0000 0.0000
# 3 -10.0577 10.2200 103.5612 0.0000 0.0000 0.0000
# 4 0.0000 0.0000 0.0000 28.4142 0.0000 0.0000
# 5 0.0000 0.0000 0.0000 0.0000 30.5577 0.0000
# 6 0.0000 0.0000 0.0000 0.0000 0.0000 21.9631
#
#
#
# Elastic Compliance Matrix: (Units=1/GPa)
#
#
# Indices 1 2 3 4 5 6 
#
# 1 0.026929 -0.009452 0.003548 0.000000 0.000000 0.000000
# 2 -0.009452 0.046395 -0.005496 0.000000 0.000000 0.000000
# 3 0.003548 -0.005496 0.010543 0.000000 0.000000 0.000000
# 4 0.000000 0.000000 0.000000 0.035194 0.000000 0.000000
# 5 0.000000 0.000000 0.000000 0.000000 0.032725 0.000000
# 6 0.000000 0.000000 0.000000 0.000000 0.000000 0.045531
#
#
# Mechanical properties :
#
#
# Convention : Reuss Voigt Hill
#
# Bulk Modulus (GPa) = 16.37556 20.37673 18.37615
# Shear Modulus (GPa) = 20.79244 26.94952 23.87098
#
# Velocity S-wave (km/s) = 3.24280 3.69184 3.47458
# Velocity P-wave (km/s) = 4.72259 5.33651 5.03891
#
# Compressibility (1/GPa) = 0.06106661
#
# Stress axis : x y z
#
# Youngs Moduli (GPa) = 37.13517 21.55406 94.84853
#
# Poissons Ratio (x) = 0.20372 -0.33652
# Poissons Ratio (y) = 0.35099 0.52133
# Poissons Ratio (z) = -0.13176 0.11847
#
# Static dielectric constant tensor:
#      x y z
#    x 1.690010 0.000000 0.000000 
#    y 0.000000 1.676580 0.000000 
#    z 0.000000 0.000000 1.674290 
# 
# From -- ./inp_files/20300.got.cif
#   From: 2010.05.17/outbox.cif.g08.bks.cpg/sg62_11_cif.got.tgz:20300.got - 2010.06.03 15:25:27.
