data_PCOD9464788
_publ_section_title
;
Structure prediction by ZEFSAII (Michael W. Deem and Ramdas Pophale) SiO2 
 PCOD9464788
Probable space group: P N M A
;
_chemical_formula_sum "Si O2"
_cell_formula_units_Z 32
_cell_length_a 8.638717
_cell_length_b 10.606371
_cell_length_c 14.743433
_cell_angle_alpha 90.000000
_cell_angle_beta 90.000000
_cell_angle_gamma 90.000000
_cell_volume 1350.873498
_symmetry_space_group_name_H-M "P N M A"
_symmetry_group_IT_number 62
_symmetry_cell_setting 'orthorhombic'
loop_
_space_group_symop_operation_xyz
x,y,z
1/2-x,-y,1/2+z
1/2+x,1/2-y,1/2-z
-x,1/2+y,-z
-x,-y,-z
1/2+x,y,1/2-z
1/2-x,1/2+y,1/2+z
x,1/2-y,z
loop_
_atom_site_type_symbol
_atom_site_label
_atom_site_fract_x
_atom_site_fract_y
_atom_site_fract_z
Si Si1 0.196152 0.895139 0.872848
Si Si2 0.884582 0.932717 0.367113
Si Si3 0.595070 0.506359 0.288674
Si Si4 0.838394 0.385256 0.505968
O O1 0.222047 0.750000 0.899099
O O2 0.298063 0.929254 0.783014
O O3 0.016662 0.919682 0.848440
O O4 0.247240 0.000341 0.946337
O O5 0.707470 0.903950 0.346495
O O6 0.868502 0.078045 0.401874
O O7 0.979603 0.916111 0.275606
O O8 0.994530 0.879409 0.444784
O O9 0.761359 0.250000 0.516474
#
# Coordination Sequence:
#
# PCOD9464788 Si02
#       4
#     8   8   8   8
#     4  10  20  36  60  87 116 152 195 241 286 336
#     4   9  20  38  60  83 114 150 193 241 287 336
#     4   9  19  37  60  87 112 148 199 246 283 329
#     4  10  22  39  59  86 121 156 188 230 291 353
#
# _framework density 23.688374
#
# number of rings (size 3 to 8) (size 9 to 14) (size 15 to 20)
#    0.000    2.500    0.000    0.750    0.000   15.000 
#    0.000   21.250    0.000    0.000    0.000    0.000 
#    0.000    0.000    0.000    0.000    0.000    0.000 
#
# Total GULP energy -178415.279432 kJ/mol
# GULP energy per Si atom -5575.477482 kJ/mol
# Density = 2.363446 g / cm^3
# Si number density = 23.688374 Si / 1000 Ang^3
#
#
#
# Elastic Constant Matrix: (Units=GPa)
#
#
# Indices 1 2 3 4 5 6 
#
# 1 124.8837 23.8268 23.1431 0.0000 0.0000 0.0000
# 2 23.8268 133.0482 23.5025 0.0000 0.0000 0.0000
# 3 23.1431 23.5025 74.3515 0.0000 0.0000 0.0000
# 4 0.0000 0.0000 0.0000 0.2444 0.0000 0.0000
# 5 0.0000 0.0000 0.0000 0.0000 28.2199 0.0000
# 6 0.0000 0.0000 0.0000 0.0000 0.0000 -12.9780
#
#
#
# Elastic Compliance Matrix: (Units=1/GPa)
#
#
# Indices 1 2 3 4 5 6 
#
# 1 0.008657 -0.001138 -0.002335 0.000000 0.000000 0.000000
# 2 -0.001138 0.008110 -0.002209 0.000000 0.000000 0.000000
# 3 -0.002335 -0.002209 0.014875 0.000000 0.000000 0.000000
# 4 0.000000 0.000000 0.000000 4.091323 0.000000 0.000000
# 5 0.000000 0.000000 0.000000 0.000000 0.035436 0.000000
# 6 0.000000 0.000000 0.000000 0.000000 0.000000 -0.077054
#
#
# Mechanical properties :
#
#
# Convention : Reuss Voigt Hill
#
# Bulk Modulus (GPa) = 49.31561 52.58090 50.94825
# Shear Modulus (GPa) = 1.21967 20.55133 10.88550
#
# Velocity S-wave (km/s) = 0.71833 2.94865 2.14599
# Velocity P-wave (km/s) = 4.64238 5.81703 5.26258
#
# Compressibility (1/GPa) = 0.02027756
#
# Stress axis : x y z
#
# Youngs Moduli (GPa) = 115.50985 123.30243 67.22757
#
# Poissons Ratio (x) = 0.14031 0.15698
# Poissons Ratio (y) = 0.13144 0.14853
# Poissons Ratio (z) = 0.26972 0.27243
#
# Static dielectric constant tensor:
#      x y z
#    x 1.944110 0.000000 0.000000 
#    y 0.000000 1.936360 0.000000 
#    z 0.000000 0.000000 1.938730 
# 
# From -- ./inp_files/21847.got.cif
#   From: 2010.05.17/outbox.cif.g08.bks.cpg/sg62_11_cif.got.tgz:21847.got - 2010.06.03 15:25:27.
