data_PCOD9464920
_publ_section_title
;
Structure prediction by ZEFSAII (Michael W. Deem and Ramdas Pophale) SiO2 
 PCOD9464920
Probable space group: P N M A
;
_chemical_formula_sum "Si O2"
_cell_formula_units_Z 56
_cell_length_a 15.110664
_cell_length_b 8.317906
_cell_length_c 22.259511
_cell_angle_alpha 90.000000
_cell_angle_beta 90.000000
_cell_angle_gamma 90.000000
_cell_volume 2797.777520
_symmetry_space_group_name_H-M "P N M A"
_symmetry_group_IT_number 62
_symmetry_cell_setting 'orthorhombic'
loop_
_space_group_symop_operation_xyz
x,y,z
1/2-x,-y,1/2+z
1/2+x,1/2-y,1/2-z
-x,1/2+y,-z
-x,-y,-z
1/2+x,y,1/2-z
1/2-x,1/2+y,1/2+z
x,1/2-y,z
loop_
_atom_site_type_symbol
_atom_site_label
_atom_site_fract_x
_atom_site_fract_y
_atom_site_fract_z
Si Si1 0.936716 0.558246 0.174453
Si Si2 0.608618 0.442538 0.255697
Si Si3 0.695169 0.055346 0.778703
Si Si4 0.721778 0.446772 0.014766
Si Si5 0.908233 0.943328 0.618252
Si Si6 0.582304 0.558862 0.538835
Si Si7 0.897794 0.555754 0.402713
O O1 0.930289 0.750000 0.169958
O O2 0.859808 0.501308 0.220123
O O3 0.927582 0.486820 0.108431
O O4 0.030479 0.514302 0.204188
O O5 0.599897 0.250000 0.256182
O O6 0.705656 0.490388 0.278110
O O7 0.599116 0.501953 0.186767
O O8 0.698292 0.250000 0.778368
O O9 0.642791 0.005125 0.838644
O O10 0.722439 0.250000 0.014598
O O11 0.670480 0.499453 0.074915
O O12 0.822854 0.503260 0.015159
O O13 0.665420 0.497460 0.956907
O O14 0.903869 0.750000 0.620039
O O15 0.002859 0.992522 0.591812
O O16 0.500000 0.500000 0.500000
O O17 0.584467 0.750000 0.534146
O O18 0.900973 0.750000 0.403386
#
# Coordination Sequence:
#
# PCOD9464920 Si02
#       7
#     8   8   8   8   8   8   8
#     4  11  23  42  64  89 123 163 205 254 310 370
#     4  11  23  37  60  90 122 160 203 255 311 368
#     4  10  22  38  60  89 122 161 206 254 309 372
#     4   9  20  38  61  86 120 161 198 243 305 364
#     4  10  20  37  59  89 122 157 197 245 303 362
#     4  11  24  43  65  91 123 163 209 258 309 368
#     4  10  20  37  60  88 119 158 199 244 303 364
#
# _framework density 20.015888
#
# number of rings (size 3 to 8) (size 9 to 14) (size 15 to 20)
#    0.000    1.714    1.429    2.571    2.000    3.429 
#    0.000    2.857    0.000    0.000    0.000    0.000 
#    0.000    0.000    0.000    0.000    0.000    0.000 
#
# Total GULP energy -313040.636410 kJ/mol
# GULP energy per Si atom -5590.011364 kJ/mol
# Density = 1.997033 g / cm^3
# Si number density = 20.015888 Si / 1000 Ang^3
#
#
#
# Elastic Constant Matrix: (Units=GPa)
#
#
# Indices 1 2 3 4 5 6 
#
# 1 106.5515 -3.6040 -3.4372 0.0000 0.0000 0.0000
# 2 -3.6040 11.2414 -2.3572 0.0000 0.0000 0.0000
# 3 -3.4372 -2.3572 43.4901 0.0000 0.0000 0.0000
# 4 0.0000 0.0000 0.0000 13.8495 0.0000 0.0000
# 5 0.0000 0.0000 0.0000 0.0000 28.7068 0.0000
# 6 0.0000 0.0000 0.0000 0.0000 0.0000 20.8797
#
#
#
# Elastic Compliance Matrix: (Units=1/GPa)
#
#
# Indices 1 2 3 4 5 6 
#
# 1 0.009525 0.003248 0.000929 0.000000 0.000000 0.000000
# 2 0.003248 0.091087 0.005194 0.000000 0.000000 0.000000
# 3 0.000929 0.005194 0.023349 0.000000 0.000000 0.000000
# 4 0.000000 0.000000 0.000000 0.072205 0.000000 0.000000
# 5 0.000000 0.000000 0.000000 0.000000 0.034835 0.000000
# 6 0.000000 0.000000 0.000000 0.000000 0.000000 0.047893
#
#
# Mechanical properties :
#
#
# Convention : Reuss Voigt Hill
#
# Bulk Modulus (GPa) = 7.00756 15.83181 11.41969
# Shear Modulus (GPa) = 16.24857 24.06596 20.15727
#
# Velocity S-wave (km/s) = 2.85227 3.47124 3.17687
# Velocity P-wave (km/s) = 3.78892 4.89825 4.37885
#
# Compressibility (1/GPa) = 0.14270296
#
# Stress axis : x y z
#
# Youngs Moduli (GPa) = 104.98715 10.97849 42.82903
#
# Poissons Ratio (x) = -0.03566 -0.03978
# Poissons Ratio (y) = -0.34105 -0.22244
# Poissons Ratio (z) = -0.09752 -0.05702
#
# Static dielectric constant tensor:
#      x y z
#    x 1.689760 0.000000 0.000000 
#    y 0.000000 1.695230 0.000000 
#    z 0.000000 0.000000 1.695190 
# 
# From -- ./inp_files/27102.got.cif
#   From: 2010.05.17/outbox.cif.g08.bks.cpg/sg62_14_cif.got.tgz:27102.got - 2010.06.03 15:25:27.
