data_PCOD9464509
_publ_section_title
;
Structure prediction by ZEFSAII (Michael W. Deem and Ramdas Pophale) SiO2 
 PCOD9464509
Probable space group: P N M A
;
_chemical_formula_sum "Si O2"
_cell_formula_units_Z 48
_cell_length_a 16.881837
_cell_length_b 17.127735
_cell_length_c 8.982607
_cell_angle_alpha 90.000000
_cell_angle_beta 90.000000
_cell_angle_gamma 90.000000
_cell_volume 2597.299529
_symmetry_space_group_name_H-M "P N M A"
_symmetry_group_IT_number 62
_symmetry_cell_setting 'orthorhombic'
loop_
_space_group_symop_operation_xyz
x,y,z
1/2-x,-y,1/2+z
1/2+x,1/2-y,1/2-z
-x,1/2+y,-z
-x,-y,-z
1/2+x,y,1/2-z
1/2-x,1/2+y,1/2+z
x,1/2-y,z
loop_
_atom_site_type_symbol
_atom_site_label
_atom_site_fract_x
_atom_site_fract_y
_atom_site_fract_z
Si Si1 0.245285 0.573493 0.912955
Si Si2 0.118795 0.157671 0.601367
Si Si3 0.816801 0.156490 0.366359
Si Si4 0.791490 0.840450 0.124765
Si Si5 0.826386 0.063049 0.777221
Si Si6 0.542082 0.579192 0.051903
O O1 0.201145 0.631753 0.801151
O O2 0.275469 0.500561 0.815591
O O3 0.322542 0.612400 0.989601
O O4 0.187587 0.551229 0.049012
O O5 0.135595 0.250000 0.592854
O O6 0.139106 0.127755 0.769469
O O7 0.028070 0.141175 0.566167
O O8 0.828257 0.250000 0.381213
O O9 0.739089 0.132523 0.464186
O O10 0.890432 0.109897 0.438236
O O11 0.809428 0.750000 0.103835
O O12 0.714616 0.855008 0.229548
O O13 0.913258 0.063856 0.708047
O O14 0.500000 0.500000 0.000000
#
# Coordination Sequence:
#
# PCOD9464509 Si02
#       6
#     8   8   8   8   8   8
#     4  11  21  37  61  86 114 153 203 247 292 347
#     4  10  20  36  60  86 117 155 194 237 290 351
#     4  10  21  38  60  85 118 156 198 244 294 350
#     4   8  17  33  56  82 108 144 190 236 280 340
#     4  10  20  35  58  86 115 150 193 243 291 349
#     4  11  21  38  57  88 122 158 189 237 299 355
#
# _framework density 18.480732
#
# number of rings (size 3 to 8) (size 9 to 14) (size 15 to 20)
#    0.000    2.000    1.667    3.000    2.333    1.333 
#    0.000    2.500    0.000    2.000    0.000    0.000 
#    0.000    0.000    0.000    0.000    0.000    0.000 
#
# Total GULP energy -267381.138683 kJ/mol
# GULP energy per Si atom -5570.440389 kJ/mol
# Density = 1.843867 g / cm^3
# Si number density = 18.480732 Si / 1000 Ang^3
#
#
#
# Elastic Constant Matrix: (Units=GPa)
#
#
# Indices 1 2 3 4 5 6 
#
# 1 81.8083 11.7911 44.9597 0.0000 0.0000 0.0000
# 2 11.7911 58.3799 30.7296 0.0000 0.0000 0.0000
# 3 44.9597 30.7296 142.9355 0.0000 0.0000 0.0000
# 4 0.0000 0.0000 0.0000 26.9657 0.0000 0.0000
# 5 0.0000 0.0000 0.0000 0.0000 26.6777 0.0000
# 6 0.0000 0.0000 0.0000 0.0000 0.0000 28.4840
#
#
#
# Elastic Compliance Matrix: (Units=1/GPa)
#
#
# Indices 1 2 3 4 5 6 
#
# 1 0.014797 -0.000607 -0.004524 0.000000 0.000000 0.000000
# 2 -0.000607 0.019340 -0.003967 0.000000 0.000000 0.000000
# 3 -0.004524 -0.003967 0.009272 0.000000 0.000000 0.000000
# 4 0.000000 0.000000 0.000000 0.037084 0.000000 0.000000
# 5 0.000000 0.000000 0.000000 0.000000 0.037485 0.000000
# 6 0.000000 0.000000 0.000000 0.000000 0.000000 0.035107
#
#
# Mechanical properties :
#
#
# Convention : Reuss Voigt Hill
#
# Bulk Modulus (GPa) = 39.66198 50.89829 45.28013
# Shear Modulus (GPa) = 27.82631 29.46835 28.64733
#
# Velocity S-wave (km/s) = 3.88454 3.99751 3.94143
# Velocity P-wave (km/s) = 6.45193 6.99341 6.72812
#
# Compressibility (1/GPa) = 0.02521306
#
# Stress axis : x y z
#
# Youngs Moduli (GPa) = 67.57918 51.70656 107.85212
#
# Poissons Ratio (x) = 0.03141 0.48791
# Poissons Ratio (y) = 0.04105 0.42783
# Poissons Ratio (z) = 0.30572 0.20511
#
# Static dielectric constant tensor:
#      x y z
#    x 1.618290 0.000000 0.000000 
#    y 0.000000 1.702150 0.000000 
#    z 0.000000 0.000000 1.665470 
# 
# From -- ./inp_files/6419.got.cif
#   From: 2010.05.17/outbox.cif.g08.bks.cpg/sg62_4_cif.got.tgz:6419.got - 2010.06.03 15:25:27.
