data_PCOD9464859
_publ_section_title
;
Structure prediction by ZEFSAII (Michael W. Deem and Ramdas Pophale) SiO2 
 PCOD9464859
Probable space group: P N M A
;
_chemical_formula_sum "Si O2"
_cell_formula_units_Z 48
_cell_length_a 8.389550
_cell_length_b 14.536719
_cell_length_c 21.565201
_cell_angle_alpha 90.000000
_cell_angle_beta 90.000000
_cell_angle_gamma 90.000000
_cell_volume 2630.017102
_symmetry_space_group_name_H-M "P N M A"
_symmetry_group_IT_number 62
_symmetry_cell_setting 'orthorhombic'
loop_
_space_group_symop_operation_xyz
x,y,z
1/2-x,-y,1/2+z
1/2+x,1/2-y,1/2-z
-x,1/2+y,-z
-x,-y,-z
1/2+x,y,1/2-z
1/2-x,1/2+y,1/2+z
x,1/2-y,z
loop_
_atom_site_type_symbol
_atom_site_label
_atom_site_fract_x
_atom_site_fract_y
_atom_site_fract_z
Si Si1 0.568165 0.448132 0.940850
Si Si2 0.157946 0.250000 0.370656
Si Si3 0.038595 0.250000 0.504159
Si Si4 0.999454 0.557373 0.676714
Si Si5 0.880128 0.939603 0.801925
Si Si6 0.484555 0.750000 0.680932
Si Si7 0.408867 0.542747 0.557962
Si Si8 0.189412 0.250000 0.056659
O O1 0.481106 0.485964 0.880124
O O2 0.747441 0.484754 0.937309
O O3 0.500000 0.500000 0.000000
O O4 0.556570 0.340603 0.954610
O O5 0.158076 0.250000 0.445665
O O6 0.340464 0.250000 0.347766
O O7 0.073099 0.155228 0.347727
O O8 0.867335 0.250000 0.469300
O O9 0.190699 0.566745 0.687974
O O10 0.920846 0.510545 0.737835
O O11 0.962723 0.960019 0.868949
O O12 0.955442 0.841712 0.782241
O O13 0.341595 0.750000 0.630424
O O14 0.500000 0.500000 0.500000
O O15 0.383949 0.650510 0.540597
#
# Coordination Sequence:
#
# PCOD9464859 Si02
#       8
#     8   4   4   8   8   4   8   4
#     4  11  22  37  61  86 114 156 199 242 297 353
#     4  12  21  31  60  86 120 155 191 233 293 374
#     4  12  22  39  59  87 122 154 200 250 299 352
#     4  11  22  38  57  86 118 159 196 237 297 358
#     4  10  21  37  55  80 121 156 191 241 292 355
#     4  10  21  33  52  90 120 153 188 232 304 360
#     4  10  22  37  60  89 123 155 196 250 300 357
#     4  10  20  37  55  83 128 154 187 245 304 346
#
# _framework density 18.250831999999999
#
# number of rings (size 3 to 8) (size 9 to 14) (size 15 to 20)
#    0.000    1.333    3.333    4.000    4.667    1.333 
#    0.000    0.000    0.000    5.000    0.000    0.000 
#    0.000    0.000    0.000    0.000    0.000    0.000 
#
# Total GULP energy -267275.946066 kJ/mol
# GULP energy per Si atom -5568.248876 kJ/mol
# Density = 1.820929 g / cm^3
# Si number density = 18.250832 Si / 1000 Ang^3
#
#
#
# Elastic Constant Matrix: (Units=GPa)
#
#
# Indices 1 2 3 4 5 6 
#
# 1 37.9607 17.7638 37.4009 0.0000 0.0000 0.0000
# 2 17.7638 122.8974 54.6918 0.0000 0.0000 0.0000
# 3 37.4009 54.6918 135.1576 0.0000 0.0000 0.0000
# 4 0.0000 0.0000 0.0000 21.3801 0.0000 0.0000
# 5 0.0000 0.0000 0.0000 0.0000 31.4421 0.0000
# 6 0.0000 0.0000 0.0000 0.0000 0.0000 20.7313
#
#
#
# Elastic Compliance Matrix: (Units=1/GPa)
#
#
# Indices 1 2 3 4 5 6 
#
# 1 0.036308 -0.000947 -0.009664 0.000000 0.000000 0.000000
# 2 -0.000947 0.009949 -0.003764 0.000000 0.000000 0.000000
# 3 -0.009664 -0.003764 0.011596 0.000000 0.000000 0.000000
# 4 0.000000 0.000000 0.000000 0.046773 0.000000 0.000000
# 5 0.000000 0.000000 0.000000 0.000000 0.031804 0.000000
# 6 0.000000 0.000000 0.000000 0.000000 0.000000 0.048236
#
#
# Mechanical properties :
#
#
# Convention : Reuss Voigt Hill
#
# Bulk Modulus (GPa) = 34.36101 57.30316 45.83209
# Shear Modulus (GPa) = 22.40991 27.12131 24.76561
#
# Velocity S-wave (km/s) = 3.50792 3.85909 3.68769
# Velocity P-wave (km/s) = 5.93930 7.16397 6.58019
#
# Compressibility (1/GPa) = 0.02910275
#
# Stress axis : x y z
#
# Youngs Moduli (GPa) = 27.54247 100.51585 86.23779
#
# Poissons Ratio (x) = 0.09523 0.83337
# Poissons Ratio (y) = 0.02609 0.32456
# Poissons Ratio (z) = 0.26616 0.37830
#
# Static dielectric constant tensor:
#      x y z
#    x 1.631380 0.000000 0.000000 
#    y 0.000000 1.663060 0.000000 
#    z 0.000000 0.000000 1.633640 
# 
# From -- ./inp_files/25893.got.cif
#   From: 2010.05.17/outbox.cif.g08.bks.cpg/sg62_13_cif.got.tgz:25893.got - 2010.06.03 15:25:27.
