data_PCOD9464062
_publ_section_title
;
Structure prediction by ZEFSAII (Michael W. Deem and Ramdas Pophale) SiO2 
 PCOD9464062
Probable space group: P N M A
;
_chemical_formula_sum "Si O2"
_cell_formula_units_Z 64
_cell_length_a 10.034213
_cell_length_b 12.789686
_cell_length_c 26.398303
_cell_angle_alpha 90.000000
_cell_angle_beta 90.000000
_cell_angle_gamma 90.000000
_cell_volume 3387.811262
_symmetry_space_group_name_H-M "P N M A"
_symmetry_group_IT_number 62
_symmetry_cell_setting 'orthorhombic'
loop_
_space_group_symop_operation_xyz
x,y,z
1/2-x,-y,1/2+z
1/2+x,1/2-y,1/2-z
-x,1/2+y,-z
-x,-y,-z
1/2+x,y,1/2-z
1/2-x,1/2+y,1/2+z
x,1/2-y,z
loop_
_atom_site_type_symbol
_atom_site_label
_atom_site_fract_x
_atom_site_fract_y
_atom_site_fract_z
Si Si1 0.489378 0.131564 0.826904
Si Si2 0.193711 0.629530 0.421910
Si Si3 0.453484 0.946102 0.369632
Si Si4 0.736080 0.371804 0.302961
Si Si5 0.480887 0.372578 0.447236
Si Si6 0.244514 0.441110 0.620846
Si Si7 0.773228 0.495054 0.989112
Si Si8 0.968951 0.471859 0.238251
O O1 0.453930 0.250000 0.812551
O O2 0.399112 0.099592 0.874673
O O3 0.640344 0.126048 0.847633
O O4 0.478656 0.052712 0.780446
O O5 0.166735 0.750000 0.435572
O O6 0.344276 0.618221 0.400436
O O7 0.182789 0.552010 0.469377
O O8 0.603048 0.902401 0.375422
O O9 0.457407 0.060089 0.396529
O O10 0.421131 0.963141 0.310893
O O11 0.744691 0.250000 0.314727
O O12 0.755704 0.445263 0.352005
O O13 0.850095 0.406073 0.263187
O O14 0.592134 0.401313 0.280091
O O15 0.489909 0.250000 0.438845
O O16 0.615565 0.419447 0.471738
O O17 0.359327 0.404058 0.484173
O O18 0.207521 0.453253 0.562085
#
# Coordination Sequence:
#
# PCOD9464062 Si02
#       8
#     8   8   8   8   8   8   8   8
#     4  10  22  38  53  73 105 143 177 213 258 305
#     4  10  20  34  53  76 102 133 170 211 258 311
#     4   9  19  34  52  77 101 128 169 214 259 305
#     4  10  20  34  54  78 104 136 173 213 261 312
#     4   9  17  30  50  78 108 133 164 210 262 311
#     4   9  20  35  52  76 105 135 173 216 255 306
#     4   9  18  31  50  76 104 136 170 211 258 302
#     4  10  20  36  54  76 105 136 172 216 259 307
#
# _framework density 18.891252999999999
#
# number of rings (size 3 to 8) (size 9 to 14) (size 15 to 20)
#    0.000    2.500    0.000    2.250    0.000    7.500 
#    0.000    7.500    0.000    6.750    0.000    0.000 
#    0.000    0.000    0.000    0.000    0.000    0.000 
#
# Total GULP energy -357148.484770 kJ/mol
# GULP energy per Si atom -5580.445075 kJ/mol
# Density = 1.884826 g / cm^3
# Si number density = 18.891253 Si / 1000 Ang^3
#
#
#
# Elastic Constant Matrix: (Units=GPa)
#
#
# Indices 1 2 3 4 5 6 
#
# 1 27.3309 -10.4814 0.0968 0.0000 0.0000 0.0000
# 2 -10.4814 34.5601 1.8693 0.0000 0.0000 0.0000
# 3 0.0968 1.8693 68.3025 0.0000 0.0000 0.0000
# 4 0.0000 0.0000 0.0000 9.5577 0.0000 0.0000
# 5 0.0000 0.0000 0.0000 0.0000 28.1690 0.0000
# 6 0.0000 0.0000 0.0000 0.0000 0.0000 10.1176
#
#
#
# Elastic Compliance Matrix: (Units=1/GPa)
#
#
# Indices 1 2 3 4 5 6 
#
# 1 0.041415 0.012582 -0.000403 0.000000 0.000000 0.000000
# 2 0.012582 0.032801 -0.000916 0.000000 0.000000 0.000000
# 3 -0.000403 -0.000916 0.014666 0.000000 0.000000 0.000000
# 4 0.000000 0.000000 0.000000 0.104628 0.000000 0.000000
# 5 0.000000 0.000000 0.000000 0.000000 0.035500 0.000000
# 6 0.000000 0.000000 0.000000 0.000000 0.000000 0.098837
#
#
# Mechanical properties :
#
#
# Convention : Reuss Voigt Hill
#
# Bulk Modulus (GPa) = 8.97588 12.57366 10.77477
# Shear Modulus (GPa) = 14.60039 18.81612 16.70826
#
# Velocity S-wave (km/s) = 2.78306 3.15941 2.97719
# Velocity P-wave (km/s) = 3.88444 4.46983 4.18738
#
# Compressibility (1/GPa) = 0.11140963
#
# Stress axis : x y z
#
# Youngs Moduli (GPa) = 24.14567 30.48727 68.18320
#
# Poissons Ratio (x) = -0.38360 0.02748
# Poissons Ratio (y) = -0.30381 0.06242
# Poissons Ratio (z) = 0.00973 0.02791
#
# Static dielectric constant tensor:
#      x y z
#    x 1.671040 0.000000 0.000000 
#    y 0.000000 1.625090 0.000000 
#    z 0.000000 0.000000 1.660860 
# 
# From -- ./inp_files/29494.got.cif
#   From: 2010.05.17/outbox.cif.g08.bks.cpg/sg62_15_cif.got.tgz:29494.got - 2010.06.03 15:25:27.
