data_PCOD9464820
_publ_section_title
;
Structure prediction by ZEFSAII (Michael W. Deem and Ramdas Pophale) SiO2 
 PCOD9464820
Probable space group: P N M A
;
_chemical_formula_sum "Si O2"
_cell_formula_units_Z 60
_cell_length_a 5.227652
_cell_length_b 21.482754
_cell_length_c 26.639188
_cell_angle_alpha 90.000000
_cell_angle_beta 90.000000
_cell_angle_gamma 90.000000
_cell_volume 2991.697010
_symmetry_space_group_name_H-M "P N M A"
_symmetry_group_IT_number 62
_symmetry_cell_setting 'orthorhombic'
loop_
_space_group_symop_operation_xyz
x,y,z
1/2-x,-y,1/2+z
1/2+x,1/2-y,1/2-z
-x,1/2+y,-z
-x,-y,-z
1/2+x,y,1/2-z
1/2-x,1/2+y,1/2+z
x,1/2-y,z
loop_
_atom_site_type_symbol
_atom_site_label
_atom_site_fract_x
_atom_site_fract_y
_atom_site_fract_z
Si Si1 0.422111 0.818674 0.375797
Si Si2 0.051631 0.952806 0.277907
Si Si3 0.792128 0.250000 0.281500
Si Si4 0.810846 0.959723 0.534492
Si Si5 0.423686 0.681293 0.190058
Si Si6 0.781513 0.889112 0.785842
Si Si7 0.085764 0.566737 0.062136
Si Si8 0.581197 0.521013 0.869554
O O1 0.477914 0.750000 0.397070
O O2 0.641332 0.828441 0.333042
O O3 0.449196 0.874843 0.413753
O O4 0.137984 0.817164 0.353485
O O5 0.772042 0.972130 0.259537
O O6 0.021632 0.878262 0.279771
O O7 0.106625 0.985134 0.330962
O O8 0.089349 0.250000 0.265041
O O9 0.734068 0.182743 0.305272
O O10 0.697909 0.914173 0.492410
O O11 0.950120 0.940148 0.585544
O O12 0.597460 0.008397 0.552013
O O13 0.000000 0.000000 0.500000
O O14 0.428754 0.750000 0.214766
O O15 0.040042 0.896599 0.752838
O O16 0.748211 0.934092 0.833957
O O17 0.281275 0.536715 0.102278
#
# Coordination Sequence:
#
# PCOD9464820 Si02
#       8
#     8   8   4   8   8   8   8   8
#     4  10  20  36  62  87 111 151 199 243 288 343
#     4  12  25  36  53  82 117 156 194 239 293 337
#     4   8  16  34  56  78 110 150 192 228 262 328
#     4   9  21  37  58  87 109 148 189 233 298 356
#     4  10  21  38  56  79 111 156 204 242 288 338
#     4  10  21  36  57  87 117 152 195 231 279 344
#     4  10  20  37  61  85 115 148 193 242 295 351
#     4  11  22  35  57  83 120 151 185 243 288 346
#
# _framework density 20.055506999999999
#
# number of rings (size 3 to 8) (size 9 to 14) (size 15 to 20)
#    0.000    1.867    1.333    2.400    5.600    0.533 
#    0.000    0.000    1.467    0.000   13.867    0.000 
#    0.000    0.000    0.000    0.000    0.000    0.000 
#
# Total GULP energy -334532.698147 kJ/mol
# GULP energy per Si atom -5575.544969 kJ/mol
# Density = 2.000986 g / cm^3
# Si number density = 20.055507 Si / 1000 Ang^3
#
#
#
# Elastic Constant Matrix: (Units=GPa)
#
#
# Indices 1 2 3 4 5 6 
#
# 1 35.0460 -19.1782 4.0391 0.0000 0.0000 0.0000
# 2 -19.1782 76.8666 23.0837 0.0000 0.0000 0.0000
# 3 4.0391 23.0837 83.0848 0.0000 0.0000 0.0000
# 4 0.0000 0.0000 0.0000 20.7131 0.0000 0.0000
# 5 0.0000 0.0000 0.0000 0.0000 24.7666 0.0000
# 6 0.0000 0.0000 0.0000 0.0000 0.0000 19.4483
#
#
#
# Elastic Compliance Matrix: (Units=1/GPa)
#
#
# Indices 1 2 3 4 5 6 
#
# 1 0.034482 0.009936 -0.004437 0.000000 0.000000 0.000000
# 2 0.009936 0.017057 -0.005222 0.000000 0.000000 0.000000
# 3 -0.004437 -0.005222 0.013702 0.000000 0.000000 0.000000
# 4 0.000000 0.000000 0.000000 0.048279 0.000000 0.000000
# 5 0.000000 0.000000 0.000000 0.000000 0.040377 0.000000
# 6 0.000000 0.000000 0.000000 0.000000 0.000000 0.051418
#
#
# Mechanical properties :
#
#
# Convention : Reuss Voigt Hill
#
# Bulk Modulus (GPa) = 15.19860 23.43185 19.31523
# Shear Modulus (GPa) = 22.05625 25.45580 23.75602
#
# Velocity S-wave (km/s) = 3.31986 3.56654 3.44541
# Velocity P-wave (km/s) = 4.72123 5.35436 5.04773
#
# Compressibility (1/GPa) = 0.06579553
#
# Stress axis : x y z
#
# Youngs Moduli (GPa) = 29.00032 58.62796 72.97984
#
# Poissons Ratio (x) = -0.58251 0.32380
# Poissons Ratio (y) = -0.28814 0.38110
# Poissons Ratio (z) = 0.12867 0.30615
#
# Static dielectric constant tensor:
#      x y z
#    x 1.625610 0.000000 0.000000 
#    y 0.000000 1.747940 0.000000 
#    z 0.000000 0.000000 1.625480 
# 
# From -- ./inp_files/28407.got.cif
#   From: 2010.05.17/outbox.cif.g08.bks.cpg/sg62_15_cif.got.tgz:28407.got - 2010.06.03 15:25:27.
