data_PCOD9464167
_publ_section_title
;
Structure prediction by ZEFSAII (Michael W. Deem and Ramdas Pophale) SiO2 
 PCOD9464167
Probable space group: P N M A
;
_chemical_formula_sum "Si O2"
_cell_formula_units_Z 48
_cell_length_a 8.340652
_cell_length_b 8.325714
_cell_length_c 29.197370
_cell_angle_alpha 90.000000
_cell_angle_beta 90.000000
_cell_angle_gamma 90.000000
_cell_volume 2027.520355
_symmetry_space_group_name_H-M "P N M A"
_symmetry_group_IT_number 62
_symmetry_cell_setting 'orthorhombic'
loop_
_space_group_symop_operation_xyz
x,y,z
1/2-x,-y,1/2+z
1/2+x,1/2-y,1/2-z
-x,1/2+y,-z
-x,-y,-z
1/2+x,y,1/2-z
1/2-x,1/2+y,1/2+z
x,1/2-y,z
loop_
_atom_site_type_symbol
_atom_site_label
_atom_site_fract_x
_atom_site_fract_y
_atom_site_fract_z
Si Si1 0.268925 0.436632 0.685752
Si Si2 0.570378 0.057480 0.897806
Si Si3 0.058531 0.443356 0.935264
Si Si4 0.238033 0.563329 0.518180
Si Si5 0.575615 0.933775 0.737487
Si Si6 0.749313 0.057218 0.652761
O O1 0.315287 0.250000 0.682053
O O2 0.213637 0.496936 0.636039
O O3 0.115034 0.454927 0.719194
O O4 0.411655 0.527347 0.711131
O O5 0.567932 0.250000 0.895261
O O6 0.407012 0.001680 0.874195
O O7 0.602758 0.014778 0.950322
O O8 0.034018 0.250000 0.941496
O O9 0.104232 0.469885 0.882925
O O10 0.902985 0.532930 0.953576
O O11 0.208988 0.492035 0.967637
O O12 0.200687 0.750000 0.514854
O O13 0.579141 0.750000 0.752441
O O14 0.712413 0.968519 0.699618
O O15 0.759351 0.250000 0.661038
#
# Coordination Sequence:
#
# PCOD9464167 Si02
#       6
#     8   8   8   8   8   8
#     4  11  23  41  63  85 114 155 196 230 280 352
#     4  10  22  38  58  83 111 148 193 236 278 337
#     4   9  19  36  57  81 111 150 194 236 281 341
#     4  10  20  34  55  83 114 148 188 237 291 341
#     4  12  25  40  61  91 121 147 186 243 296 335
#     4  10  21  39  60  82 113 154 197 235 280 346
#
# _framework density 23.674237999999999
#
# number of rings (size 3 to 8) (size 9 to 14) (size 15 to 20)
#    0.000    1.667    0.000    4.500    0.000    9.333 
#    0.000    0.000    0.000    0.000    0.000    0.000 
#    0.000    0.000    0.000    0.000    0.000    0.000 
#
# Total GULP energy -268572.709730 kJ/mol
# GULP energy per Si atom -5595.264786 kJ/mol
# Density = 2.362035 g / cm^3
# Si number density = 23.674238 Si / 1000 Ang^3
#
#
#
# Elastic Constant Matrix: (Units=GPa)
#
#
# Indices 1 2 3 4 5 6 
#
# 1 61.6394 -0.2566 -10.3594 0.0000 0.0000 0.0000
# 2 -0.2566 14.3875 4.6857 0.0000 0.0000 0.0000
# 3 -10.3594 4.6857 96.6011 0.0000 0.0000 0.0000
# 4 0.0000 0.0000 0.0000 21.4640 0.0000 0.0000
# 5 0.0000 0.0000 0.0000 0.0000 38.2225 0.0000
# 6 0.0000 0.0000 0.0000 0.0000 0.0000 0.2834
#
#
#
# Elastic Compliance Matrix: (Units=1/GPa)
#
#
# Indices 1 2 3 4 5 6 
#
# 1 0.016522 -0.000287 0.001786 0.000000 0.000000 0.000000
# 2 -0.000287 0.070625 -0.003456 0.000000 0.000000 0.000000
# 3 0.001786 -0.003456 0.010711 0.000000 0.000000 0.000000
# 4 0.000000 0.000000 0.000000 0.046590 0.000000 0.000000
# 5 0.000000 0.000000 0.000000 0.000000 0.026163 0.000000
# 6 0.000000 0.000000 0.000000 0.000000 0.000000 3.528823
#
#
# Mechanical properties :
#
#
# Convention : Reuss Voigt Hill
#
# Bulk Modulus (GPa) = 10.64472 17.86305 14.25388
# Shear Modulus (GPa) = 1.33881 23.89784 12.61833
#
# Velocity S-wave (km/s) = 0.75282 3.18062 2.31118
# Velocity P-wave (km/s) = 2.29385 4.58805 3.62712
#
# Compressibility (1/GPa) = 0.09394328
#
# Stress axis : x y z
#
# Youngs Moduli (GPa) = 60.52416 14.15924 93.36187
#
# Poissons Ratio (x) = 0.00406 -0.16672
# Poissons Ratio (y) = 0.01737 0.32270
# Poissons Ratio (z) = -0.10808 0.04894
#
# Static dielectric constant tensor:
#      x y z
#    x 1.979850 0.000000 0.000000 
#    y 0.000000 1.806390 0.000000 
#    z 0.000000 0.000000 1.873590 
# 
# From -- ./inp_files/31897.got.cif
#   From: 2010.05.17/outbox.cif.g08.bks.cpg/sg62_16_cif.got.tgz:31897.got - 2010.06.03 15:25:27.
