data_PCOD9464484
_publ_section_title
;
Structure prediction by ZEFSAII (Michael W. Deem and Ramdas Pophale) SiO2 
 PCOD9464484
Probable space group: P N M A
;
_chemical_formula_sum "Si O2"
_cell_formula_units_Z 64
_cell_length_a 19.695644
_cell_length_b 7.550004
_cell_length_c 16.590833
_cell_angle_alpha 90.000000
_cell_angle_beta 90.000000
_cell_angle_gamma 90.000000
_cell_volume 2467.093217
_symmetry_space_group_name_H-M "P N M A"
_symmetry_group_IT_number 62
_symmetry_cell_setting 'orthorhombic'
loop_
_space_group_symop_operation_xyz
x,y,z
1/2-x,-y,1/2+z
1/2+x,1/2-y,1/2-z
-x,1/2+y,-z
-x,-y,-z
1/2+x,y,1/2-z
1/2-x,1/2+y,1/2+z
x,1/2-y,z
loop_
_atom_site_type_symbol
_atom_site_label
_atom_site_fract_x
_atom_site_fract_y
_atom_site_fract_z
Si Si1 0.417936 0.046463 0.084169
Si Si2 0.952835 0.542539 0.665166
Si Si3 0.668540 0.952399 0.418302
Si Si4 0.290324 0.542312 0.993834
Si Si5 0.299947 0.964608 0.817742
Si Si6 0.164383 0.458009 0.743359
Si Si7 0.963798 0.464473 0.841333
Si Si8 0.399470 0.534912 0.413927
O O1 0.427848 0.250000 0.063098
O O2 0.491886 0.966061 0.103278
O O3 0.369145 0.969096 0.016064
O O4 0.373314 0.038137 0.166478
O O5 0.944591 0.750000 0.645603
O O6 0.877533 0.468661 0.680267
O O7 0.985843 0.525640 0.753367
O O8 0.677786 0.750000 0.390164
O O9 0.741503 0.035880 0.437594
O O10 0.611073 0.035841 0.362040
O O11 0.633549 0.954298 0.506817
O O12 0.273959 0.750000 0.991458
O O13 0.274491 0.470989 0.905617
O O14 0.301368 0.750000 0.816144
O O15 0.245957 0.020059 0.750612
O O16 0.149458 0.250000 0.737459
O O17 0.135802 0.521552 0.829824
O O18 0.961415 0.250000 0.841328
O O19 0.021643 0.516089 0.904262
O O20 0.394428 0.750000 0.419611
#
# Coordination Sequence:
#
# PCOD9464484 Si02
#       8
#     8   8   8   8   8   8   8   8
#     4  11  24  41  62  88 120 155 198 249 297 351
#     4  10  23  41  61  87 116 153 200 247 297 353
#     4  10  21  36  57  86 120 158 198 238 292 355
#     4  10  22  40  61  87 120 157 197 247 299 354
#     4  10  22  42  64  88 120 157 199 246 300 352
#     4  11  22  38  62  90 120 156 198 241 294 356
#     4  10  21  37  56  85 122 158 196 241 291 351
#     4  10  20  35  57  85 119 156 195 239 289 350
#
# _framework density 25.941459999999999
#
# number of rings (size 3 to 8) (size 9 to 14) (size 15 to 20)
#    0.000    1.750    2.500    1.125    1.750    4.000 
#    0.000    0.000    0.000    0.000    0.000    0.000 
#    0.000    0.000    0.000    0.000    0.000    0.000 
#
# Total GULP energy -357984.220112 kJ/mol
# GULP energy per Si atom -5593.503439 kJ/mol
# Density = 2.588242 g / cm^3
# Si number density = 25.941460 Si / 1000 Ang^3
#
#
#
# Elastic Constant Matrix: (Units=GPa)
#
#
# Indices 1 2 3 4 5 6 
#
# 1 139.4101 2.0027 7.0880 0.0000 0.0000 0.0000
# 2 2.0027 73.6805 -2.7176 0.0000 0.0000 0.0000
# 3 7.0880 -2.7176 72.5782 0.0000 0.0000 0.0000
# 4 0.0000 0.0000 0.0000 18.9847 0.0000 0.0000
# 5 0.0000 0.0000 0.0000 0.0000 48.6366 0.0000
# 6 0.0000 0.0000 0.0000 0.0000 0.0000 14.4182
#
#
#
# Elastic Compliance Matrix: (Units=1/GPa)
#
#
# Indices 1 2 3 4 5 6 
#
# 1 0.007213 -0.000222 -0.000713 0.000000 0.000000 0.000000
# 2 -0.000222 0.013598 0.000531 0.000000 0.000000 0.000000
# 3 -0.000713 0.000531 0.013868 0.000000 0.000000 0.000000
# 4 0.000000 0.000000 0.000000 0.052674 0.000000 0.000000
# 5 0.000000 0.000000 0.000000 0.000000 0.020561 0.000000
# 6 0.000000 0.000000 0.000000 0.000000 0.000000 0.069357
#
#
# Mechanical properties :
#
#
# Convention : Reuss Voigt Hill
#
# Bulk Modulus (GPa) = 29.52498 33.15723 31.34111
# Shear Modulus (GPa) = 26.40367 35.02762 30.71565
#
# Velocity S-wave (km/s) = 3.19379 3.67857 3.44472
# Velocity P-wave (km/s) = 5.00065 5.55444 5.28480
#
# Compressibility (1/GPa) = 0.03386962
#
# Stress axis : x y z
#
# Youngs Moduli (GPa) = 138.64797 73.54162 72.10993
#
# Poissons Ratio (x) = 0.01635 0.05139
# Poissons Ratio (y) = 0.03083 -0.03828
# Poissons Ratio (z) = 0.09881 -0.03904
#
# Static dielectric constant tensor:
#      x y z
#    x 2.123710 0.000000 0.000000 
#    y 0.000000 1.950430 0.000000 
#    z 0.000000 0.000000 2.028450 
# 
# From -- ./inp_files/24738.got.cif
#   From: 2010.05.17/outbox.cif.g08.bks.cpg/sg62_13_cif.got.tgz:24738.got - 2010.06.03 15:25:27.
