data_PCOD9464474
_publ_section_title
;
Structure prediction by ZEFSAII (Michael W. Deem and Ramdas Pophale) SiO2 
 PCOD9464474
Probable space group: P N M A
;
_chemical_formula_sum "Si O2"
_cell_formula_units_Z 44
_cell_length_a 9.968106
_cell_length_b 7.173487
_cell_length_c 23.339679
_cell_angle_alpha 90.000000
_cell_angle_beta 90.000000
_cell_angle_gamma 90.000000
_cell_volume 1668.928926
_symmetry_space_group_name_H-M "P N M A"
_symmetry_group_IT_number 62
_symmetry_cell_setting 'orthorhombic'
loop_
_space_group_symop_operation_xyz
x,y,z
1/2-x,-y,1/2+z
1/2+x,1/2-y,1/2-z
-x,1/2+y,-z
-x,-y,-z
1/2+x,y,1/2-z
1/2-x,1/2+y,1/2+z
x,1/2-y,z
loop_
_atom_site_type_symbol
_atom_site_label
_atom_site_fract_x
_atom_site_fract_y
_atom_site_fract_z
Si Si1 0.565568 0.975738 0.629672
Si Si2 0.658092 0.533206 0.511004
Si Si3 0.720680 0.023791 0.343558
Si Si4 0.866953 0.250000 0.515955
Si Si5 0.216866 0.025153 0.287044
Si Si6 0.510164 0.476705 0.110246
O O1 0.563567 0.750000 0.627275
O O2 0.660341 0.033373 0.577679
O O3 0.413212 0.038403 0.623599
O O4 0.638275 0.030801 0.687894
O O5 0.500000 0.500000 0.500000
O O6 0.686436 0.750000 0.505853
O O7 0.771325 0.409081 0.483368
O O8 0.720595 0.250000 0.342864
O O9 0.700055 0.962245 0.277706
O O10 0.862717 0.968760 0.368395
O O11 0.941801 0.412846 0.554695
O O12 0.215699 0.250000 0.284745
O O13 0.106693 0.980412 0.335166
O O14 0.515257 0.250000 0.098249
#
# Coordination Sequence:
#
# PCOD9464474 Si02
#       6
#     8   8   8   4   8   8
#     4   9  17  31  54  87 119 149 195 245 288 347
#     4  11  22  39  64  95 115 146 194 254 305 352
#     4   9  17  30  54  87 120 160 197 236 291 348
#     4  12  22  38  60  86 118 150 192 240 300 350
#     4   9  15  28  53  85 118 156 203 242 280 341
#     4  10  20  35  57  84 117 163 196 233 292 354
#
# _framework density 26.364214
#
# number of rings (size 3 to 8) (size 9 to 14) (size 15 to 20)
#    0.000    2.182    2.727    1.636    0.000    4.364 
#    0.000    1.818    0.000    1.091    0.000    0.000 
#    0.000    0.000    0.000    0.000    0.000    0.000 
#
# Total GULP energy -245439.832981 kJ/mol
# GULP energy per Si atom -5578.178022 kJ/mol
# Density = 2.630421 g / cm^3
# Si number density = 26.364214 Si / 1000 Ang^3
#
#
#
# Elastic Constant Matrix: (Units=GPa)
#
#
# Indices 1 2 3 4 5 6 
#
# 1 174.2965 23.2201 42.4664 0.0000 0.0000 0.0000
# 2 23.2201 185.7138 16.4715 0.0000 0.0000 0.0000
# 3 42.4664 16.4715 85.7649 0.0000 0.0000 0.0000
# 4 0.0000 0.0000 0.0000 -1.5568 0.0000 0.0000
# 5 0.0000 0.0000 0.0000 0.0000 39.4506 0.0000
# 6 0.0000 0.0000 0.0000 0.0000 0.0000 -38.2986
#
#
#
# Elastic Compliance Matrix: (Units=1/GPa)
#
#
# Indices 1 2 3 4 5 6 
#
# 1 0.006578 -0.000543 -0.003153 0.000000 0.000000 0.000000
# 2 -0.000543 0.005523 -0.000792 0.000000 0.000000 0.000000
# 3 -0.003153 -0.000792 0.013373 0.000000 0.000000 0.000000
# 4 0.000000 0.000000 0.000000 -0.642350 0.000000 0.000000
# 5 0.000000 0.000000 0.000000 0.000000 0.025348 0.000000
# 6 0.000000 0.000000 0.000000 0.000000 0.000000 -0.026111
#
#
# Mechanical properties :
#
#
# Convention : Reuss Voigt Hill
#
# Bulk Modulus (GPa) = 60.61123 67.78792 64.19958
# Shear Modulus (GPa) = -8.28961 24.16017 7.93528
#
# Velocity S-wave (km/s) = -1.77513 3.03049 1.73678
# Velocity P-wave (km/s) = 4.34032 6.16548 5.33158
#
# Compressibility (1/GPa) = 0.01649859
#
# Stress axis : x y z
#
# Youngs Moduli (GPa) = 152.02614 181.06974 74.77783
#
# Poissons Ratio (x) = 0.09829 0.23576
# Poissons Ratio (y) = 0.08252 0.05922
# Poissons Ratio (z) = 0.47930 0.14339
#
# Static dielectric constant tensor:
#      x y z
#    x 2.069830 0.000000 0.000000 
#    y 0.000000 2.059950 0.000000 
#    z 0.000000 0.000000 2.118770 
# 
# From -- ./inp_files/31815.got.cif
#   From: 2010.05.17/outbox.cif.g08.bks.cpg/sg62_16_cif.got.tgz:31815.got - 2010.06.03 15:25:27.
