data_PCOD9464156
_publ_section_title
;
Structure prediction by ZEFSAII (Michael W. Deem and Ramdas Pophale) SiO2 
 PCOD9464156
Probable space group: P N M A
;
_chemical_formula_sum "Si O2"
_cell_formula_units_Z 56
_cell_length_a 24.263171
_cell_length_b 7.766879
_cell_length_c 14.316806
_cell_angle_alpha 90.000000
_cell_angle_beta 90.000000
_cell_angle_gamma 90.000000
_cell_volume 2697.989396
_symmetry_space_group_name_H-M "P N M A"
_symmetry_group_IT_number 62
_symmetry_cell_setting 'orthorhombic'
loop_
_space_group_symop_operation_xyz
x,y,z
1/2-x,-y,1/2+z
1/2+x,1/2-y,1/2-z
-x,1/2+y,-z
-x,-y,-z
1/2+x,y,1/2-z
1/2-x,1/2+y,1/2+z
x,1/2-y,z
loop_
_atom_site_type_symbol
_atom_site_label
_atom_site_fract_x
_atom_site_fract_y
_atom_site_fract_z
Si Si1 0.830819 0.460592 0.433469
Si Si2 0.880156 0.458113 0.722634
Si Si3 0.662594 0.543756 0.724833
Si Si4 0.229275 0.542533 0.384920
Si Si5 0.559455 0.956255 0.040208
Si Si6 0.436100 0.953456 0.588886
Si Si7 0.058737 0.549048 0.882784
O O1 0.829696 0.250000 0.432848
O O2 0.823122 0.521973 0.328162
O O3 0.786432 0.516705 0.510740
O O4 0.890751 0.513649 0.472805
O O5 0.880462 0.250000 0.724282
O O6 0.820678 0.514186 0.683223
O O7 0.925124 0.516931 0.644931
O O8 0.895213 0.519306 0.825455
O O9 0.656442 0.750000 0.732350
O O10 0.712142 0.511264 0.653916
O O11 0.604908 0.473134 0.685010
O O12 0.227833 0.750000 0.385828
O O13 0.562837 0.750000 0.043421
O O14 0.500000 0.000000 0.000000
O O15 0.441327 0.750000 0.570773
O O16 0.496750 0.023896 0.617866
O O17 0.420824 0.035273 0.489793
O O18 0.052880 0.750000 0.858167
#
# Coordination Sequence:
#
# PCOD9464156 Si02
#       7
#     8   8   8   8   8   8   8
#     4   8  17  35  55  73 102 140 173 207 258 320
#     4   9  19  35  53  75 107 144 174 212 275 328
#     4  10  20  35  57  80 103 139 181 221 267 316
#     4   9  19  37  55  75 105 140 177 217 264 316
#     4   9  18  32  52  77 105 138 171 210 262 319
#     4  10  20  34  55  80 105 140 182 222 262 318
#     4   9  20  36  52  76 109 141 173 219 277 323
#
# _framework density 20.756197
#
# number of rings (size 3 to 8) (size 9 to 14) (size 15 to 20)
#    0.000    2.857    0.000    2.143    2.000    3.429 
#    0.000    6.429    0.000    0.000    0.000    0.000 
#    0.000    0.000    0.000    0.000    0.000    0.000 
#
# Total GULP energy -312393.854614 kJ/mol
# GULP energy per Si atom -5578.461690 kJ/mol
# Density = 2.070895 g / cm^3
# Si number density = 20.756197 Si / 1000 Ang^3
#
#
#
# Elastic Constant Matrix: (Units=GPa)
#
#
# Indices 1 2 3 4 5 6 
#
# 1 33.3622 -1.0464 29.5065 0.0000 0.0000 0.0000
# 2 -1.0464 26.2891 -4.4667 0.0000 0.0000 0.0000
# 3 29.5065 -4.4667 101.9677 0.0000 0.0000 0.0000
# 4 0.0000 0.0000 0.0000 17.5053 0.0000 0.0000
# 5 0.0000 0.0000 0.0000 0.0000 20.6196 0.0000
# 6 0.0000 0.0000 0.0000 0.0000 0.0000 19.2776
#
#
#
# Elastic Compliance Matrix: (Units=1/GPa)
#
#
# Indices 1 2 3 4 5 6 
#
# 1 0.040288 -0.000380 -0.011675 0.000000 0.000000 0.000000
# 2 -0.000380 0.038327 0.001789 0.000000 0.000000 0.000000
# 3 -0.011675 0.001789 0.013264 0.000000 0.000000 0.000000
# 4 0.000000 0.000000 0.000000 0.057126 0.000000 0.000000
# 5 0.000000 0.000000 0.000000 0.000000 0.048498 0.000000
# 6 0.000000 0.000000 0.000000 0.000000 0.000000 0.051874
#
#
# Mechanical properties :
#
#
# Convention : Reuss Voigt Hill
#
# Bulk Modulus (GPa) = 14.01599 23.28953 18.65276
# Shear Modulus (GPa) = 17.02478 20.65552 18.84015
#
# Velocity S-wave (km/s) = 2.86707 3.15802 3.01605
# Velocity P-wave (km/s) = 4.21040 4.95402 4.59727
#
# Compressibility (1/GPa) = 0.07134709
#
# Stress axis : x y z
#
# Youngs Moduli (GPa) = 24.82159 26.09100 75.39370
#
# Poissons Ratio (x) = 0.00991 0.88020
# Poissons Ratio (y) = 0.00943 -0.13487
# Poissons Ratio (z) = 0.28978 -0.04667
#
# Static dielectric constant tensor:
#      x y z
#    x 1.727070 0.000000 0.000000 
#    y 0.000000 1.774850 0.000000 
#    z 0.000000 0.000000 1.741310 
# 
# From -- ./inp_files/20428.got.cif
#   From: 2010.05.17/outbox.cif.g08.bks.cpg/sg62_11_cif.got.tgz:20428.got - 2010.06.03 15:25:27.
