data_PCOD9464125
_publ_section_title
;
Structure prediction by ZEFSAII (Michael W. Deem and Ramdas Pophale) SiO2 
 PCOD9464125
Probable space group: P N M A
;
_chemical_formula_sum "Si O2"
_cell_formula_units_Z 64
_cell_length_a 16.347475
_cell_length_b 8.031580
_cell_length_c 21.047446
_cell_angle_alpha 90.000000
_cell_angle_beta 90.000000
_cell_angle_gamma 90.000000
_cell_volume 2763.446591
_symmetry_space_group_name_H-M "P N M A"
_symmetry_group_IT_number 62
_symmetry_cell_setting 'orthorhombic'
loop_
_space_group_symop_operation_xyz
x,y,z
1/2-x,-y,1/2+z
1/2+x,1/2-y,1/2-z
-x,1/2+y,-z
-x,-y,-z
1/2+x,y,1/2-z
1/2-x,1/2+y,1/2+z
x,1/2-y,z
loop_
_atom_site_type_symbol
_atom_site_label
_atom_site_fract_x
_atom_site_fract_y
_atom_site_fract_z
Si Si1 0.508685 0.448812 0.073639
Si Si2 0.475052 0.944730 0.569717
Si Si3 0.391327 0.438816 0.766399
Si Si4 0.335001 0.945470 0.088658
Si Si5 0.727258 0.448825 0.674310
Si Si6 0.049692 0.051461 0.796326
Si Si7 0.676265 0.438545 0.356659
Si Si8 0.187643 0.450956 0.441524
O O1 0.504990 0.250000 0.079038
O O2 0.429384 0.525647 0.105907
O O3 0.600355 0.504687 0.089991
O O4 0.500000 0.500000 0.000000
O O5 0.493243 0.750000 0.575233
O O6 0.377717 0.968893 0.580512
O O7 0.500000 0.000000 0.500000
O O8 0.518758 0.026161 0.630964
O O9 0.401563 0.250000 0.790799
O O10 0.312178 0.523122 0.798858
O O11 0.481435 0.516487 0.753557
O O12 0.356858 0.434361 0.694653
O O13 0.317543 0.750000 0.092448
O O14 0.271265 0.040445 0.131761
O O15 0.318777 0.000224 0.015437
O O16 0.728763 0.250000 0.686019
O O17 0.642876 0.513770 0.703968
O O18 0.737409 0.478950 0.598891
O O19 0.052443 0.250000 0.784745
O O20 0.657323 0.250000 0.335558
O O21 0.190392 0.250000 0.440202
#
# Coordination Sequence:
#
# PCOD9464125 Si02
#       8
#     8   8   8   8   8   8   8   8
#     4   9  17  32  51  73 106 145 183 223 272 325
#     4  10  21  35  54  82 114 148 185 225 279 340
#     4   9  19  39  59  77 108 146 186 235 283 331
#     4  10  20  34  54  81 112 149 187 225 279 337
#     4  10  21  36  58  85 111 146 191 237 285 337
#     4   9  19  37  58  80 111 147 186 234 286 338
#     4  10  21  36  55  80 109 144 185 231 279 334
#     4   9  20  35  52  79 114 147 181 227 282 333
#
# _framework density 23.159486000000001
#
# number of rings (size 3 to 8) (size 9 to 14) (size 15 to 20)
#    0.000    2.500    0.000    2.250    1.750    5.500 
#    2.250    0.000    0.000    0.000    0.000    0.000 
#    0.000    0.000    0.000    0.000    0.000    0.000 
#
# Total GULP energy -356921.775054 kJ/mol
# GULP energy per Si atom -5576.902735 kJ/mol
# Density = 2.310677 g / cm^3
# Si number density = 23.159486 Si / 1000 Ang^3
#
#
#
# Elastic Constant Matrix: (Units=GPa)
#
#
# Indices 1 2 3 4 5 6 
#
# 1 135.3777 -0.0791 27.5420 0.0000 0.0000 0.0000
# 2 -0.0791 38.3356 2.6407 0.0000 0.0000 0.0000
# 3 27.5420 2.6407 30.6109 0.0000 0.0000 0.0000
# 4 0.0000 0.0000 0.0000 17.9337 0.0000 0.0000
# 5 0.0000 0.0000 0.0000 0.0000 28.2568 0.0000
# 6 0.0000 0.0000 0.0000 0.0000 0.0000 20.1359
#
#
#
# Elastic Compliance Matrix: (Units=1/GPa)
#
#
# Indices 1 2 3 4 5 6 
#
# 1 0.009055 0.000583 -0.008197 0.000000 0.000000 0.000000
# 2 0.000583 0.026279 -0.002792 0.000000 0.000000 0.000000
# 3 -0.008197 -0.002792 0.040284 0.000000 0.000000 0.000000
# 4 0.000000 0.000000 0.000000 0.055761 0.000000 0.000000
# 5 0.000000 0.000000 0.000000 0.000000 0.035390 0.000000
# 6 0.000000 0.000000 0.000000 0.000000 0.000000 0.049663
#
#
# Mechanical properties :
#
#
# Convention : Reuss Voigt Hill
#
# Bulk Modulus (GPa) = 18.24602 29.39239 23.81921
# Shear Modulus (GPa) = 19.56856 24.87999 22.22427
#
# Velocity S-wave (km/s) = 2.90995 3.28119 3.10113
# Velocity P-wave (km/s) = 4.38018 5.20325 4.80935
#
# Compressibility (1/GPa) = 0.05480648
#
# Stress axis : x y z
#
# Youngs Moduli (GPa) = 110.43877 38.05328 24.82350
#
# Poissons Ratio (x) = -0.02220 0.20349
# Poissons Ratio (y) = -0.06442 0.06930
# Poissons Ratio (z) = 0.90530 0.10624
#
# Static dielectric constant tensor:
#      x y z
#    x 1.945080 0.000000 0.000000 
#    y 0.000000 1.928960 0.000000 
#    z 0.000000 0.000000 1.938750 
# 
# From -- ./inp_files/29938.got.cif
#   From: 2010.05.17/outbox.cif.g08.bks.cpg/sg62_15_cif.got.tgz:29938.got - 2010.06.03 15:25:27.
