data_PCOD9464589
_publ_section_title
;
Structure prediction by ZEFSAII (Michael W. Deem and Ramdas Pophale) SiO2 
 PCOD9464589
Probable space group: P N M A
;
_chemical_formula_sum "Si O2"
_cell_formula_units_Z 56
_cell_length_a 8.867840
_cell_length_b 21.970339
_cell_length_c 15.439709
_cell_angle_alpha 90.000000
_cell_angle_beta 90.000000
_cell_angle_gamma 90.000000
_cell_volume 3008.110028
_symmetry_space_group_name_H-M "P N M A"
_symmetry_group_IT_number 62
_symmetry_cell_setting 'orthorhombic'
loop_
_space_group_symop_operation_xyz
x,y,z
1/2-x,-y,1/2+z
1/2+x,1/2-y,1/2-z
-x,1/2+y,-z
-x,-y,-z
1/2+x,y,1/2-z
1/2-x,1/2+y,1/2+z
x,1/2-y,z
loop_
_atom_site_type_symbol
_atom_site_label
_atom_site_fract_x
_atom_site_fract_y
_atom_site_fract_z
Si Si1 0.039410 0.556856 0.623336
Si Si2 0.797562 0.536951 0.756385
Si Si3 0.441717 0.002705 0.369148
Si Si4 0.565049 0.177876 0.637777
Si Si5 0.429702 0.406961 0.510090
Si Si6 0.909610 0.175894 0.684001
Si Si7 0.078538 0.417546 0.563214
O O1 0.903472 0.572284 0.688905
O O2 0.010431 0.583710 0.528715
O O3 0.190334 0.572427 0.676679
O O4 0.045359 0.483333 0.607255
O O5 0.694003 0.495493 0.696034
O O6 0.907824 0.497775 0.814589
O O7 0.432055 0.070025 0.411403
O O8 0.453549 0.953874 0.443797
O O9 0.567478 0.250000 0.636826
O O10 0.496771 0.154874 0.547167
O O11 0.737137 0.159185 0.659866
O O12 0.455704 0.159442 0.717408
O O13 0.256929 0.414419 0.541367
O O14 0.926968 0.250000 0.674635
O O15 0.020619 0.137412 0.622488
#
# Coordination Sequence:
#
# PCOD9464589 Si02
#       7
#     8   8   8   8   8   8   8
#     4  10  22  34  52  82 112 146 180 217 272 323
#     4  10  20  36  52  74 114 146 180 216 268 328
#     4  10  22  34  52  82 112 146 180 217 272 323
#     4  10  23  39  57  80 107 144 185 223 268 321
#     4  11  22  35  54  81 113 143 183 225 266 324
#     4  10  23  39  57  80 107 144 185 223 268 321
#     4  11  22  35  54  81 113 143 183 225 266 324
#
# _framework density 18.616340000000001
#
# number of rings (size 3 to 8) (size 9 to 14) (size 15 to 20)
#    0.000    1.714    2.857    0.857    8.000    1.714 
#    0.000    0.000    0.000    0.000    0.000    6.000 
#    0.000    0.000    0.000    0.000    0.000    0.000 
#
# Total GULP energy -312157.342536 kJ/mol
# GULP energy per Si atom -5574.238260 kJ/mol
# Density = 1.857397 g / cm^3
# Si number density = 18.616340 Si / 1000 Ang^3
#
#
#
# Elastic Constant Matrix: (Units=GPa)
#
#
# Indices 1 2 3 4 5 6 
#
# 1 87.7544 16.3479 15.4102 0.0000 0.0000 0.0000
# 2 16.3479 36.4470 19.6995 0.0000 0.0000 0.0000
# 3 15.4102 19.6995 75.2718 0.0000 0.0000 0.0000
# 4 0.0000 0.0000 0.0000 17.8583 0.0000 0.0000
# 5 0.0000 0.0000 0.0000 0.0000 28.8750 0.0000
# 6 0.0000 0.0000 0.0000 0.0000 0.0000 13.1393
#
#
#
# Elastic Compliance Matrix: (Units=1/GPa)
#
#
# Indices 1 2 3 4 5 6 
#
# 1 0.012539 -0.004935 -0.001276 0.000000 0.000000 0.000000
# 2 -0.004935 0.033900 -0.007862 0.000000 0.000000 0.000000
# 3 -0.001276 -0.007862 0.015604 0.000000 0.000000 0.000000
# 4 0.000000 0.000000 0.000000 0.055996 0.000000 0.000000
# 5 0.000000 0.000000 0.000000 0.000000 0.034632 0.000000
# 6 0.000000 0.000000 0.000000 0.000000 0.000000 0.076108
#
#
# Mechanical properties :
#
#
# Convention : Reuss Voigt Hill
#
# Bulk Modulus (GPa) = 29.49989 33.59870 31.54930
# Shear Modulus (GPa) = 18.64131 21.84224 20.24178
#
# Velocity S-wave (km/s) = 3.16783 3.42904 3.30102
# Velocity P-wave (km/s) = 5.40933 5.81076 5.61363
#
# Compressibility (1/GPa) = 0.03389843
#
# Stress axis : x y z
#
# Youngs Moduli (GPa) = 79.75292 29.49882 64.08690
#
# Poissons Ratio (x) = 0.14557 0.08175
# Poissons Ratio (y) = 0.39355 0.50383
# Poissons Ratio (z) = 0.10173 0.23191
#
# Static dielectric constant tensor:
#      x y z
#    x 1.693820 0.000000 0.000000 
#    y 0.000000 1.660580 0.000000 
#    z 0.000000 0.000000 1.697430 
# 
# From -- ./inp_files/17182.got.cif
#   From: 2010.05.17/outbox.cif.g08.bks.cpg/sg62_9_cif.got.tgz:17182.got - 2010.06.03 15:25:27.
