data_PCOD9464409
_publ_section_title
;
Structure prediction by ZEFSAII (Michael W. Deem and Ramdas Pophale) SiO2 
 PCOD9464409
Probable space group: P N M A
;
_chemical_formula_sum "Si O2"
_cell_formula_units_Z 64
_cell_length_a 22.981693
_cell_length_b 15.702249
_cell_length_c 8.262958
_cell_angle_alpha 90.000000
_cell_angle_beta 90.000000
_cell_angle_gamma 90.000000
_cell_volume 2981.806273
_symmetry_space_group_name_H-M "P N M A"
_symmetry_group_IT_number 62
_symmetry_cell_setting 'orthorhombic'
loop_
_space_group_symop_operation_xyz
x,y,z
1/2-x,-y,1/2+z
1/2+x,1/2-y,1/2-z
-x,1/2+y,-z
-x,-y,-z
1/2+x,y,1/2-z
1/2-x,1/2+y,1/2+z
x,1/2-y,z
loop_
_atom_site_type_symbol
_atom_site_label
_atom_site_fract_x
_atom_site_fract_y
_atom_site_fract_z
Si Si1 0.643328 0.902807 0.805461
Si Si2 0.462432 0.501441 0.245089
Si Si3 0.172042 0.649596 0.057357
Si Si4 0.914607 0.497495 0.885860
Si Si5 0.212499 0.419174 0.719696
Si Si6 0.154536 0.153012 0.238535
Si Si7 0.895863 0.845292 0.404935
Si Si8 0.241298 0.843422 0.522096
O O1 0.575807 0.924884 0.829141
O O2 0.656372 0.860644 0.632306
O O3 0.673485 0.848427 0.942865
O O4 0.680507 0.991378 0.811576
O O5 0.531237 0.495548 0.263367
O O6 0.438409 0.501212 0.430333
O O7 0.442625 0.585542 0.149969
O O8 0.170262 0.750000 0.100343
O O9 0.124020 0.587139 0.138805
O O10 0.235373 0.610751 0.102329
O O11 0.875726 0.580682 0.864961
O O12 0.158864 0.353591 0.714979
O O13 0.239687 0.415142 0.897562
O O14 0.136056 0.250000 0.200311
O O15 0.135133 0.136786 0.422336
O O16 0.222295 0.148293 0.189163
O O17 0.919529 0.750000 0.407329
O O18 0.255325 0.750000 0.454620
#
# Coordination Sequence:
#
# PCOD9464409 Si02
#       8
#     8   8   8   8   8   8   8   8
#     4  10  20  36  56  79 109 146 184 228 282 336
#     4   9  21  38  58  80 106 144 194 237 280 335
#     4  11  22  36  56  84 118 151 186 232 289 347
#     4  10  21  40  59  81 111 147 193 240 283 337
#     4  11  21  35  55  82 112 146 184 227 276 334
#     4  10  21  36  57  85 114 149 189 233 288 344
#     4  10  20  35  56  83 113 144 184 232 284 341
#     4  11  21  34  54  81 111 140 176 222 274 333
#
# _framework density 21.463501000000001
#
# number of rings (size 3 to 8) (size 9 to 14) (size 15 to 20)
#    0.000    1.750    0.000    6.000    0.000    6.500 
#    0.000    5.625    0.000    1.500    0.000    0.000 
#    0.000    0.000    0.000    0.000    0.000    0.000 
#
# Total GULP energy -357237.482446 kJ/mol
# GULP energy per Si atom -5581.835663 kJ/mol
# Density = 2.141465 g / cm^3
# Si number density = 21.463501 Si / 1000 Ang^3
#
#
#
# Elastic Constant Matrix: (Units=GPa)
#
#
# Indices 1 2 3 4 5 6 
#
# 1 63.3850 23.4923 -14.2666 0.0000 0.0000 0.0000
# 2 23.4923 92.2891 4.0767 0.0000 0.0000 0.0000
# 3 -14.2666 4.0767 20.0396 0.0000 0.0000 0.0000
# 4 0.0000 0.0000 0.0000 25.1465 0.0000 0.0000
# 5 0.0000 0.0000 0.0000 0.0000 22.4298 0.0000
# 6 0.0000 0.0000 0.0000 0.0000 0.0000 19.5112
#
#
#
# Elastic Compliance Matrix: (Units=1/GPa)
#
#
# Indices 1 2 3 4 5 6 
#
# 1 0.021925 -0.006327 0.016896 0.000000 0.000000 0.000000
# 2 -0.006327 0.012760 -0.007100 0.000000 0.000000 0.000000
# 3 0.016896 -0.007100 0.063374 0.000000 0.000000 0.000000
# 4 0.000000 0.000000 0.000000 0.039767 0.000000 0.000000
# 5 0.000000 0.000000 0.000000 0.000000 0.044584 0.000000
# 6 0.000000 0.000000 0.000000 0.000000 0.000000 0.051253
#
#
# Mechanical properties :
#
#
# Convention : Reuss Voigt Hill
#
# Bulk Modulus (GPa) = 9.52430 22.47984 16.00207
# Shear Modulus (GPa) = 19.10414 24.24490 21.67452
#
# Velocity S-wave (km/s) = 2.98665 3.36458 3.18123
# Velocity P-wave (km/s) = 4.04234 5.05867 4.57879
#
# Compressibility (1/GPa) = 0.10499454
#
# Stress axis : x y z
#
# Youngs Moduli (GPa) = 45.61101 78.37129 15.77936
#
# Poissons Ratio (x) = 0.49588 -0.26660
# Poissons Ratio (y) = 0.28859 0.11204
# Poissons Ratio (z) = -0.77063 0.55646
#
# Static dielectric constant tensor:
#      x y z
#    x 1.770700 0.000000 0.000000 
#    y 0.000000 1.791160 0.000000 
#    z 0.000000 0.000000 1.832250 
# 
# From -- ./inp_files/9463.got.cif
#   From: 2010.05.17/outbox.cif.g08.bks.cpg/sg62_5_cif.got.tgz:9463.got - 2010.06.03 15:25:27.
