data_PCOD9464078
_publ_section_title
;
Structure prediction by ZEFSAII (Michael W. Deem and Ramdas Pophale) SiO2 
 PCOD9464078
Probable space group: P N M A
;
_chemical_formula_sum "Si O2"
_cell_formula_units_Z 56
_cell_length_a 16.762513
_cell_length_b 16.669589
_cell_length_c 8.241568
_cell_angle_alpha 90.000000
_cell_angle_beta 90.000000
_cell_angle_gamma 90.000000
_cell_volume 2302.893564
_symmetry_space_group_name_H-M "P N M A"
_symmetry_group_IT_number 62
_symmetry_cell_setting 'orthorhombic'
loop_
_space_group_symop_operation_xyz
x,y,z
1/2-x,-y,1/2+z
1/2+x,1/2-y,1/2-z
-x,1/2+y,-z
-x,-y,-z
1/2+x,y,1/2-z
1/2-x,1/2+y,1/2+z
x,1/2-y,z
loop_
_atom_site_type_symbol
_atom_site_label
_atom_site_fract_x
_atom_site_fract_y
_atom_site_fract_z
Si Si1 0.084449 0.659518 0.681813
Si Si2 0.262883 0.949723 0.199850
Si Si3 0.659547 0.160659 0.037805
Si Si4 0.559588 0.008173 0.661212
Si Si5 0.997313 0.838488 0.335572
Si Si6 0.764918 0.162311 0.515949
Si Si7 0.866868 0.917726 0.865087
O O1 0.065473 0.750000 0.742672
O O2 0.053857 0.585561 0.788739
O O3 0.178889 0.654678 0.641671
O O4 0.048433 0.653310 0.499986
O O5 0.350815 0.974126 0.261732
O O6 0.220210 0.902182 0.345133
O O7 0.207919 0.023256 0.155412
O O8 0.272764 0.893976 0.041464
O O9 0.686139 0.250000 0.084257
O O10 0.617024 0.116988 0.188408
O O11 0.593274 0.168138 0.898886
O O12 0.502802 0.077285 0.739788
O O13 0.570750 0.033637 0.472865
O O14 0.017382 0.750000 0.260634
O O15 0.780436 0.250000 0.585533
O O16 0.672050 0.153914 0.468897
#
# Coordination Sequence:
#
# PCOD9464078 Si02
#       7
#     8   8   8   8   8   8   8
#     4  10  20  37  60  84 112 151 197 238 283 346
#     4  10  20  34  53  79 115 140 178 227 282 339
#     4  10  20  35  56  80 108 149 187 230 280 338
#     4  10  20  35  57  83 111 149 186 236 284 333
#     4   9  20  37  60  83 109 148 198 241 283 339
#     4  10  20  34  56  82 108 142 185 232 283 335
#     4  11  21  34  53  82 114 144 180 231 285 343
#
# _framework density 24.317233999999999
#
# number of rings (size 3 to 8) (size 9 to 14) (size 15 to 20)
#    0.000    2.000    1.429    3.000    2.000    4.000 
#    0.000    1.429    0.000    0.000    0.000    0.000 
#    0.000    0.000    0.000    0.000    0.000    0.000 
#
# Total GULP energy -312792.488981 kJ/mol
# GULP energy per Si atom -5585.580160 kJ/mol
# Density = 2.426189 g / cm^3
# Si number density = 24.317234 Si / 1000 Ang^3
#
#
#
# Elastic Constant Matrix: (Units=GPa)
#
#
# Indices 1 2 3 4 5 6 
#
# 1 26.6772 26.0759 -2.5532 0.0000 0.0000 0.0000
# 2 26.0759 214.6191 78.0667 0.0000 0.0000 0.0000
# 3 -2.5532 78.0667 94.4274 0.0000 0.0000 0.0000
# 4 0.0000 0.0000 0.0000 25.7231 0.0000 0.0000
# 5 0.0000 0.0000 0.0000 0.0000 28.6785 0.0000
# 6 0.0000 0.0000 0.0000 0.0000 0.0000 21.2555
#
#
#
# Elastic Compliance Matrix: (Units=1/GPa)
#
#
# Indices 1 2 3 4 5 6 
#
# 1 0.046917 -0.008812 0.008553 0.000000 0.000000 0.000000
# 2 -0.008812 0.008318 -0.007115 0.000000 0.000000 0.000000
# 3 0.008553 -0.007115 0.016704 0.000000 0.000000 0.000000
# 4 0.000000 0.000000 0.000000 0.038876 0.000000 0.000000
# 5 0.000000 0.000000 0.000000 0.000000 0.034869 0.000000
# 6 0.000000 0.000000 0.000000 0.000000 0.000000 0.047047
#
#
# Mechanical properties :
#
#
# Convention : Reuss Voigt Hill
#
# Bulk Modulus (GPa) = 17.48491 59.87805 38.68148
# Shear Modulus (GPa) = 22.07107 30.74038 26.40572
#
# Velocity S-wave (km/s) = 3.01596 3.55933 3.29885
# Velocity P-wave (km/s) = 4.39704 6.44740 5.51828
#
# Compressibility (1/GPa) = 0.05719217
#
# Stress axis : x y z
#
# Youngs Moduli (GPa) = 21.31428 120.21946 59.86669
#
# Poissons Ratio (x) = 1.05933 -0.51207
# Poissons Ratio (y) = 0.18781 0.42596
# Poissons Ratio (z) = -0.18231 0.85538
#
# Static dielectric constant tensor:
#      x y z
#    x 2.070230 0.000000 0.000000 
#    y 0.000000 1.968780 0.000000 
#    z 0.000000 0.000000 1.932840 
# 
# From -- ./inp_files/8698.got.cif
#   From: 2010.05.17/outbox.cif.g08.bks.cpg/sg62_5_cif.got.tgz:8698.got - 2010.06.03 15:25:27.
