data_PCOD9464006
_publ_section_title
;
Structure prediction by ZEFSAII (Michael W. Deem and Ramdas Pophale) SiO2 
 PCOD9464006
Probable space group: P N M A
;
_chemical_formula_sum "Si O2"
_cell_formula_units_Z 56
_cell_length_a 15.997097
_cell_length_b 7.910045
_cell_length_c 19.839170
_cell_angle_alpha 90.000000
_cell_angle_beta 90.000000
_cell_angle_gamma 90.000000
_cell_volume 2510.404075
_symmetry_space_group_name_H-M "P N M A"
_symmetry_group_IT_number 62
_symmetry_cell_setting 'orthorhombic'
loop_
_space_group_symop_operation_xyz
x,y,z
1/2-x,-y,1/2+z
1/2+x,1/2-y,1/2-z
-x,1/2+y,-z
-x,-y,-z
1/2+x,y,1/2-z
1/2-x,1/2+y,1/2+z
x,1/2-y,z
loop_
_atom_site_type_symbol
_atom_site_label
_atom_site_fract_x
_atom_site_fract_y
_atom_site_fract_z
Si Si1 0.322650 0.455297 0.427725
Si Si2 0.407312 0.060367 0.985863
Si Si3 0.500338 0.045308 0.219281
Si Si4 0.499656 0.544157 0.624309
Si Si5 0.848890 0.556567 0.376075
Si Si6 0.833241 0.941027 0.646087
Si Si7 0.317643 0.548850 0.581463
O O1 0.320167 0.250000 0.425384
O O2 0.416883 0.514153 0.413336
O O3 0.258355 0.517338 0.369351
O O4 0.298195 0.509160 0.503153
O O5 0.404631 0.250000 0.957980
O O6 0.368228 0.939733 0.930277
O O7 0.500000 0.000000 0.000000
O O8 0.366283 0.056618 0.058799
O O9 0.501182 0.250000 0.213085
O O10 0.495109 0.998825 0.297229
O O11 0.589213 0.983908 0.188231
O O12 0.417691 0.984897 0.179932
O O13 0.499592 0.750000 0.620471
O O14 0.411537 0.484527 0.594848
O O15 0.861887 0.750000 0.396391
O O16 0.750013 0.527915 0.366498
O O17 0.820485 0.750000 0.672243
O O18 0.316752 0.750000 0.590988
#
# Coordination Sequence:
#
# PCOD9464006 Si02
#       7
#     8   8   8   8   8   8   8
#     4  10  20  37  61  89 120 155 200 253 306 355
#     4  12  22  34  56  86 121 156 193 240 298 357
#     4  10  21  39  61  87 121 160 200 241 294 365
#     4   9  21  40  62  88 119 159 206 251 297 357
#     4  12  24  38  58  88 123 158 198 247 302 357
#     4  10  20  33  56  87 119 154 195 241 298 356
#     4  11  22  38  62  91 120 155 203 254 302 354
#
# _framework density 22.307165999999999
#
# number of rings (size 3 to 8) (size 9 to 14) (size 15 to 20)
#    0.000    1.429    2.857    3.429    0.000    1.143 
#    0.000    7.143    0.000    1.714    0.000    0.000 
#    0.000    0.000    0.000    0.000    0.000    0.000 
#
# Total GULP energy -312625.427886 kJ/mol
# GULP energy per Si atom -5582.596927 kJ/mol
# Density = 2.225639 g / cm^3
# Si number density = 22.307166 Si / 1000 Ang^3
#
#
#
# Elastic Constant Matrix: (Units=GPa)
#
#
# Indices 1 2 3 4 5 6 
#
# 1 172.2957 4.6083 30.5778 0.0000 0.0000 0.0000
# 2 4.6083 60.9690 -1.1515 0.0000 0.0000 0.0000
# 3 30.5778 -1.1515 59.0074 0.0000 0.0000 0.0000
# 4 0.0000 0.0000 0.0000 16.0917 0.0000 0.0000
# 5 0.0000 0.0000 0.0000 0.0000 29.0389 0.0000
# 6 0.0000 0.0000 0.0000 0.0000 0.0000 7.4513
#
#
#
# Elastic Compliance Matrix: (Units=1/GPa)
#
#
# Indices 1 2 3 4 5 6 
#
# 1 0.006410 -0.000547 -0.003332 0.000000 0.000000 0.000000
# 2 -0.000547 0.016455 0.000605 0.000000 0.000000 0.000000
# 3 -0.003332 0.000605 0.018686 0.000000 0.000000 0.000000
# 4 0.000000 0.000000 0.000000 0.062144 0.000000 0.000000
# 5 0.000000 0.000000 0.000000 0.000000 0.034437 0.000000
# 6 0.000000 0.000000 0.000000 0.000000 0.000000 0.134204
#
#
# Mechanical properties :
#
#
# Convention : Reuss Voigt Hill
#
# Bulk Modulus (GPa) = 28.57125 40.03793 34.30459
# Shear Modulus (GPa) = 17.20864 27.73221 22.47042
#
# Velocity S-wave (km/s) = 2.78049 3.52973 3.17727
# Velocity P-wave (km/s) = 4.81083 5.88212 5.37324
#
# Compressibility (1/GPa) = 0.03500022
#
# Stress axis : x y z
#
# Youngs Moduli (GPa) = 156.00566 60.77338 53.51689
#
# Poissons Ratio (x) = 0.03327 0.17834
# Poissons Ratio (y) = 0.08540 -0.03237
# Poissons Ratio (z) = 0.51987 -0.03675
#
# Static dielectric constant tensor:
#      x y z
#    x 1.903940 0.000000 0.000000 
#    y 0.000000 1.804850 0.000000 
#    z 0.000000 0.000000 1.725390 
# 
# From -- ./inp_files/27171.got.cif
#   From: 2010.05.17/outbox.cif.g08.bks.cpg/sg62_14_cif.got.tgz:27171.got - 2010.06.03 15:25:27.
