data_PCOD9464717
_publ_section_title
;
Structure prediction by ZEFSAII (Michael W. Deem and Ramdas Pophale) SiO2 
 PCOD9464717
Probable space group: P N M A
;
_chemical_formula_sum "Si O2"
_cell_formula_units_Z 64
_cell_length_a 12.111919
_cell_length_b 8.479276
_cell_length_c 29.905943
_cell_angle_alpha 90.000000
_cell_angle_beta 90.000000
_cell_angle_gamma 90.000000
_cell_volume 3071.349440
_symmetry_space_group_name_H-M "P N M A"
_symmetry_group_IT_number 62
_symmetry_cell_setting 'orthorhombic'
loop_
_space_group_symop_operation_xyz
x,y,z
1/2-x,-y,1/2+z
1/2+x,1/2-y,1/2-z
-x,1/2+y,-z
-x,-y,-z
1/2+x,y,1/2-z
1/2-x,1/2+y,1/2+z
x,1/2-y,z
loop_
_atom_site_type_symbol
_atom_site_label
_atom_site_fract_x
_atom_site_fract_y
_atom_site_fract_z
Si Si1 0.796520 0.065543 0.339213
Si Si2 0.827727 0.566368 0.437494
Si Si3 0.440517 0.441461 0.678915
Si Si4 0.563244 0.067233 0.062434
Si Si5 0.986654 0.938490 0.275619
Si Si6 0.348990 0.439116 0.849588
Si Si7 0.719372 0.435146 0.518470
Si Si8 0.884095 0.558521 0.108161
O O1 0.804220 0.250000 0.349197
O O2 0.805574 0.973930 0.386148
O O3 0.678198 0.019941 0.319432
O O4 0.891243 0.017850 0.304442
O O5 0.850035 0.750000 0.442210
O O6 0.728870 0.518662 0.470739
O O7 0.939754 0.476109 0.451166
O O8 0.428690 0.250000 0.678207
O O9 0.507135 0.483010 0.723864
O O10 0.507778 0.491710 0.634794
O O11 0.586000 0.250000 0.053226
O O12 0.574245 0.029829 0.115110
O O13 0.660111 0.963855 0.040768
O O14 0.968535 0.750000 0.277861
O O15 0.103537 0.970550 0.300505
O O16 0.359473 0.250000 0.857388
O O17 0.223840 0.483386 0.862068
O O18 0.701169 0.250000 0.511751
O O19 0.636397 0.495878 0.557182
O O20 0.885676 0.750000 0.106328
#
# Coordination Sequence:
#
# PCOD9464717 Si02
#       8
#     8   8   8   8   8   8   8   8
#     4  12  26  43  62  89 128 165 203 252 311 368
#     4  12  23  38  59  85 118 158 209 261 309 366
#     4  10  22  41  67  93 119 159 208 253 300 359
#     4  11  20  32  52  84 123 162 198 243 303 366
#     4  10  21  37  65  94 121 157 204 252 302 365
#     4   9  17  32  55  86 120 157 198 247 299 352
#     4  10  20  36  58  86 122 162 204 253 312 371
#     4   8  17  35  60  88 121 156 200 252 300 356
#
# _framework density 20.837745999999999
#
# number of rings (size 3 to 8) (size 9 to 14) (size 15 to 20)
#    0.000    1.750    1.250    4.875    1.750    0.500 
#    0.000    3.750    0.000    0.000    0.000    0.000 
#    0.000    0.000    0.000    0.000    0.000    0.000 
#
# Total GULP energy -357486.202952 kJ/mol
# GULP energy per Si atom -5585.721921 kJ/mol
# Density = 2.079032 g / cm^3
# Si number density = 20.837746 Si / 1000 Ang^3
#
#
#
# Elastic Constant Matrix: (Units=GPa)
#
#
# Indices 1 2 3 4 5 6 
#
# 1 37.4545 -1.8068 -5.3535 0.0000 0.0000 0.0000
# 2 -1.8068 20.8014 -3.3016 0.0000 0.0000 0.0000
# 3 -5.3535 -3.3016 60.3490 0.0000 0.0000 0.0000
# 4 0.0000 0.0000 0.0000 22.3064 0.0000 0.0000
# 5 0.0000 0.0000 0.0000 0.0000 19.7179 0.0000
# 6 0.0000 0.0000 0.0000 0.0000 0.0000 15.2180
#
#
#
# Elastic Compliance Matrix: (Units=1/GPa)
#
#
# Indices 1 2 3 4 5 6 
#
# 1 0.027199 0.002769 0.002564 0.000000 0.000000 0.000000
# 2 0.002769 0.048777 0.002914 0.000000 0.000000 0.000000
# 3 0.002564 0.002914 0.016957 0.000000 0.000000 0.000000
# 4 0.000000 0.000000 0.000000 0.044830 0.000000 0.000000
# 5 0.000000 0.000000 0.000000 0.000000 0.050715 0.000000
# 6 0.000000 0.000000 0.000000 0.000000 0.000000 0.065712
#
#
# Mechanical properties :
#
#
# Convention : Reuss Voigt Hill
#
# Bulk Modulus (GPa) = 9.13832 10.85346 9.99589
# Shear Modulus (GPa) = 18.23679 20.05290 19.14485
#
# Velocity S-wave (km/s) = 2.96155 3.10552 3.03439
# Velocity P-wave (km/s) = 4.01116 4.25192 4.13329
#
# Compressibility (1/GPa) = 0.10942927
#
# Stress axis : x y z
#
# Youngs Moduli (GPa) = 36.76580 20.50152 58.97202
#
# Poissons Ratio (x) = -0.05678 -0.15122
# Poissons Ratio (y) = -0.10182 -0.17186
# Poissons Ratio (z) = -0.09428 -0.05975
#
# Static dielectric constant tensor:
#      x y z
#    x 1.728240 0.000000 0.000000 
#    y 0.000000 1.713090 0.000000 
#    z 0.000000 0.000000 1.789670 
# 
# From -- ./inp_files/32536.got.cif
#   From: 2010.05.17/outbox.cif.g08.bks.cpg/sg62_17_cif.got.tgz:32536.got - 2010.06.03 15:25:27.
