data_PCOD9464120
_publ_section_title
;
Structure prediction by ZEFSAII (Michael W. Deem and Ramdas Pophale) SiO2 
 PCOD9464120
Probable space group: P N M A
;
_chemical_formula_sum "Si O2"
_cell_formula_units_Z 48
_cell_length_a 12.231533
_cell_length_b 7.491761
_cell_length_c 23.076629
_cell_angle_alpha 90.000000
_cell_angle_beta 90.000000
_cell_angle_gamma 90.000000
_cell_volume 2114.643557
_symmetry_space_group_name_H-M "P N M A"
_symmetry_group_IT_number 62
_symmetry_cell_setting 'orthorhombic'
loop_
_space_group_symop_operation_xyz
x,y,z
1/2-x,-y,1/2+z
1/2+x,1/2-y,1/2-z
-x,1/2+y,-z
-x,-y,-z
1/2+x,y,1/2-z
1/2-x,1/2+y,1/2+z
x,1/2-y,z
loop_
_atom_site_type_symbol
_atom_site_label
_atom_site_fract_x
_atom_site_fract_y
_atom_site_fract_z
Si Si1 0.006617 0.545623 0.648901
Si Si2 0.679238 0.545422 0.236195
Si Si3 0.659436 0.533382 0.049763
Si Si4 0.657470 0.468160 0.639840
Si Si5 0.090209 0.536173 0.144443
Si Si6 0.701157 0.963754 0.920843
O O1 0.018705 0.750000 0.668207
O O2 0.929777 0.454387 0.696214
O O3 0.938935 0.539318 0.588642
O O4 0.123867 0.467510 0.631192
O O5 0.711290 0.750000 0.247278
O O6 0.775692 0.467493 0.196485
O O7 0.646971 0.462499 0.297297
O O8 0.650813 0.750000 0.050514
O O9 0.769953 0.483663 0.084155
O O10 0.664168 0.470644 0.983804
O O11 0.658186 0.250000 0.641700
O O12 0.533138 0.530218 0.637506
O O13 0.081118 0.750000 0.151370
O O14 0.172907 0.500970 0.092275
O O15 0.686229 0.750000 0.921206
#
# Coordination Sequence:
#
# PCOD9464120 Si02
#       6
#     8   8   8   8   8   8
#     4  10  20  34  54  81 109 137 177 226 267 315
#     4   9  19  35  56  77 104 140 176 219 272 322
#     4   9  18  36  58  76 106 147 179 218 268 318
#     4   8  16  33  53  76 102 132 176 221 261 311
#     4  10  21  34  54  80 104 138 181 222 260 315
#     4  10  22  36  51  78 113 145 176 217 273 318
#
# _framework density 22.698861999999998
#
# number of rings (size 3 to 8) (size 9 to 14) (size 15 to 20)
#    0.000    2.667    0.000    2.000    2.333    3.333 
#    0.000    3.333    0.000    0.000    0.000    0.000 
#    0.000    0.000    0.000    0.000    0.000    0.000 
#
# Total GULP energy -268078.319571 kJ/mol
# GULP energy per Si atom -5584.964991 kJ/mol
# Density = 2.264720 g / cm^3
# Si number density = 22.698862 Si / 1000 Ang^3
#
#
#
# Elastic Constant Matrix: (Units=GPa)
#
#
# Indices 1 2 3 4 5 6 
#
# 1 94.7756 -8.1494 -3.6329 0.0000 0.0000 0.0000
# 2 -8.1494 64.1747 -5.2131 0.0000 0.0000 0.0000
# 3 -3.6329 -5.2131 43.9313 0.0000 0.0000 0.0000
# 4 0.0000 0.0000 0.0000 2.4597 0.0000 0.0000
# 5 0.0000 0.0000 0.0000 0.0000 -0.8511 0.0000
# 6 0.0000 0.0000 0.0000 0.0000 0.0000 3.0790
#
#
#
# Elastic Compliance Matrix: (Units=1/GPa)
#
#
# Indices 1 2 3 4 5 6 
#
# 1 0.010716 0.001447 0.001058 0.000000 0.000000 0.000000
# 2 0.001447 0.015929 0.002010 0.000000 0.000000 0.000000
# 3 0.001058 0.002010 0.023089 0.000000 0.000000 0.000000
# 4 0.000000 0.000000 0.000000 0.406552 0.000000 0.000000
# 5 0.000000 0.000000 0.000000 0.000000 -1.174957 0.000000
# 6 0.000000 0.000000 0.000000 0.000000 0.000000 0.324786
#
#
# Mechanical properties :
#
#
# Convention : Reuss Voigt Hill
#
# Bulk Modulus (GPa) = 17.01735 18.76563 17.89149
# Shear Modulus (GPa) = -13.04373 15.59598 1.27612
#
# Velocity S-wave (km/s) = -2.39977 2.62407 0.75061
# Velocity P-wave (km/s) = 0.40651 4.17925 2.94116
#
# Compressibility (1/GPa) = 0.05876354
#
# Stress axis : x y z
#
# Youngs Moduli (GPa) = 93.31673 62.77675 43.31104
#
# Poissons Ratio (x) = -0.09082 -0.04582
# Poissons Ratio (y) = -0.13501 -0.08705
# Poissons Ratio (z) = -0.09872 -0.12618
#
# Static dielectric constant tensor:
#      x y z
#    x 1.837890 0.000000 0.000000 
#    y 0.000000 1.846410 0.000000 
#    z 0.000000 0.000000 1.820550 
# 
# From -- ./inp_files/29222.got.cif
#   From: 2010.05.17/outbox.cif.g08.bks.cpg/sg62_15_cif.got.tgz:29222.got - 2010.06.03 15:25:27.
