data_PCOD9464743
_publ_section_title
;
Structure prediction by ZEFSAII (Michael W. Deem and Ramdas Pophale) SiO2 
 PCOD9464743
Probable space group: P N M A
;
_chemical_formula_sum "Si O2"
_cell_formula_units_Z 48
_cell_length_a 14.388357
_cell_length_b 17.560711
_cell_length_c 8.363066
_cell_angle_alpha 90.000000
_cell_angle_beta 90.000000
_cell_angle_gamma 90.000000
_cell_volume 2113.094038
_symmetry_space_group_name_H-M "P N M A"
_symmetry_group_IT_number 62
_symmetry_cell_setting 'orthorhombic'
loop_
_space_group_symop_operation_xyz
x,y,z
1/2-x,-y,1/2+z
1/2+x,1/2-y,1/2-z
-x,1/2+y,-z
-x,-y,-z
1/2+x,y,1/2-z
1/2-x,1/2+y,1/2+z
x,1/2-y,z
loop_
_atom_site_type_symbol
_atom_site_label
_atom_site_fract_x
_atom_site_fract_y
_atom_site_fract_z
Si Si1 0.543558 0.446005 0.129513
Si Si2 0.269887 0.160259 0.785252
Si Si3 0.870837 0.160154 0.372507
Si Si4 0.397309 0.899084 0.461485
Si Si5 0.396748 0.442935 0.583432
Si Si6 0.184862 0.161327 0.296534
O O1 0.461839 0.386734 0.165652
O O2 0.573678 0.501669 0.270499
O O3 0.632993 0.395515 0.084911
O O4 0.500000 0.500000 0.000000
O O5 0.278606 0.250000 0.754411
O O6 0.163296 0.139440 0.823246
O O7 0.316162 0.111266 0.645671
O O8 0.326759 0.142766 0.951742
O O9 0.890376 0.250000 0.372036
O O10 0.792056 0.144949 0.240121
O O11 0.508818 0.896803 0.452501
O O12 0.363991 0.857310 0.624447
O O13 0.372434 0.989917 0.458525
O O14 0.173748 0.250000 0.336206
#
# Coordination Sequence:
#
# PCOD9464743 Si02
#       6
#     8   8   8   8   8   8
#     4  11  20  34  56  90 118 152 194 246 300 357
#     4  10  20  36  59  85 117 157 198 245 302 359
#     4   9  18  35  56  82 115 156 201 244 295 351
#     4   9  20  37  59  85 115 154 205 246 298 356
#     4  10  21  37  57  88 119 157 198 246 302 360
#     4   9  19  36  60  83 113 157 200 243 297 356
#
# _framework density 22.715506999999999
#
# number of rings (size 3 to 8) (size 9 to 14) (size 15 to 20)
#    0.000    2.333    1.667    2.000    0.000    5.333 
#    0.000    0.000    0.000    0.000    0.000    1.167 
#    0.000    0.000    0.000    0.000    0.000    0.000 
#
# Total GULP energy -268246.990492 kJ/mol
# GULP energy per Si atom -5588.478969 kJ/mol
# Density = 2.266381 g / cm^3
# Si number density = 22.715507 Si / 1000 Ang^3
#
#
#
# Elastic Constant Matrix: (Units=GPa)
#
#
# Indices 1 2 3 4 5 6 
#
# 1 96.3399 51.6043 13.7159 0.0000 0.0000 0.0000
# 2 51.6043 72.7322 18.6576 0.0000 0.0000 0.0000
# 3 13.7159 18.6576 35.5699 0.0000 0.0000 0.0000
# 4 0.0000 0.0000 0.0000 23.4205 0.0000 0.0000
# 5 0.0000 0.0000 0.0000 0.0000 34.4785 0.0000
# 6 0.0000 0.0000 0.0000 0.0000 0.0000 35.9240
#
#
#
# Elastic Compliance Matrix: (Units=1/GPa)
#
#
# Indices 1 2 3 4 5 6 
#
# 1 0.016745 -0.011814 -0.000260 0.000000 0.000000 0.000000
# 2 -0.011814 0.024222 -0.008150 0.000000 0.000000 0.000000
# 3 -0.000260 -0.008150 0.032489 0.000000 0.000000 0.000000
# 4 0.000000 0.000000 0.000000 0.042698 0.000000 0.000000
# 5 0.000000 0.000000 0.000000 0.000000 0.029004 0.000000
# 6 0.000000 0.000000 0.000000 0.000000 0.000000 0.027837
#
#
# Mechanical properties :
#
#
# Convention : Reuss Voigt Hill
#
# Bulk Modulus (GPa) = 30.29561 41.39973 35.84767
# Shear Modulus (GPa) = 22.27726 26.80886 24.54306
#
# Velocity S-wave (km/s) = 3.13502 3.43913 3.29059
# Velocity P-wave (km/s) = 5.14494 5.83396 5.50025
#
# Compressibility (1/GPa) = 0.03300808
#
# Stress axis : x y z
#
# Youngs Moduli (GPa) = 59.71861 41.28490 30.77992
#
# Poissons Ratio (x) = 0.48775 0.00801
# Poissons Ratio (y) = 0.70553 0.25084
# Poissons Ratio (z) = 0.01553 0.33645
#
# Static dielectric constant tensor:
#      x y z
#    x 1.846440 0.000000 0.000000 
#    y 0.000000 1.939460 0.000000 
#    z 0.000000 0.000000 1.955400 
# 
# From -- ./inp_files/6518.got.cif
#   From: 2010.05.17/outbox.cif.g08.bks.cpg/sg62_4_cif.got.tgz:6518.got - 2010.06.03 15:25:27.
