data_PCOD9464379
_publ_section_title
;
Structure prediction by ZEFSAII (Michael W. Deem and Ramdas Pophale) SiO2 
 PCOD9464379
Probable space group: P N M A
;
_chemical_formula_sum "Si O2"
_cell_formula_units_Z 40
_cell_length_a 13.858284
_cell_length_b 8.692607
_cell_length_c 18.875151
_cell_angle_alpha 90.000000
_cell_angle_beta 90.000000
_cell_angle_gamma 90.000000
_cell_volume 2273.787827
_symmetry_space_group_name_H-M "P N M A"
_symmetry_group_IT_number 62
_symmetry_cell_setting 'orthorhombic'
loop_
_space_group_symop_operation_xyz
x,y,z
1/2-x,-y,1/2+z
1/2+x,1/2-y,1/2-z
-x,1/2+y,-z
-x,-y,-z
1/2+x,y,1/2-z
1/2-x,1/2+y,1/2+z
x,1/2-y,z
loop_
_atom_site_type_symbol
_atom_site_label
_atom_site_fract_x
_atom_site_fract_y
_atom_site_fract_z
Si Si1 0.611550 0.065755 0.287764
Si Si2 0.703864 0.565799 0.146853
Si Si3 0.390020 0.065429 0.286544
Si Si4 0.107909 0.565448 0.503210
Si Si5 0.702001 0.066463 0.855540
O O1 0.622582 0.250000 0.291184
O O2 0.500648 0.025925 0.302855
O O3 0.639990 0.009868 0.208957
O O4 0.689050 0.988279 0.339585
O O5 0.701489 0.750000 0.155936
O O6 0.812128 0.506054 0.160058
O O7 0.662479 0.527031 0.069948
O O8 0.380223 0.250000 0.286205
O O9 0.360948 0.002728 0.209035
O O10 0.104439 0.750000 0.509670
O O11 0.162531 0.495855 0.570543
O O12 0.000000 0.500000 0.500000
O O13 0.696326 0.250000 0.853096
#
# Coordination Sequence:
#
# PCOD9464379 Si02
#       5
#     8   8   8   8   8
#     4  10  20  35  56  80 107 140 177 218 263 313
#     4  10  21  35  54  80 108 139 176 219 264 314
#     4  10  20  35  57  81 107 141 178 220 267 315
#     4  11  23  38  56  80 110 142 177 219 268 319
#     4  11  22  35  55  81 109 142 179 220 265 315
#
# _framework density 17.591792000000002
#
# number of rings (size 3 to 8) (size 9 to 14) (size 15 to 20)
#    0.000    1.600    0.000    7.800    0.000    9.600 
#    0.000    1.000    0.000    0.000    0.000    0.000 
#    0.000    0.000    0.000    0.000    0.000    0.000 
#
# Total GULP energy -223518.785517 kJ/mol
# GULP energy per Si atom -5587.969638 kJ/mol
# Density = 1.755175 g / cm^3
# Si number density = 17.591792 Si / 1000 Ang^3
#
#
#
# Elastic Constant Matrix: (Units=GPa)
#
#
# Indices 1 2 3 4 5 6 
#
# 1 148.3580 43.8723 78.9441 0.0000 0.0000 0.0000
# 2 43.8723 66.2209 45.8929 0.0000 0.0000 0.0000
# 3 78.9441 45.8929 126.5760 0.0000 0.0000 0.0000
# 4 0.0000 0.0000 0.0000 31.4277 0.0000 0.0000
# 5 0.0000 0.0000 0.0000 0.0000 11.7366 0.0000
# 6 0.0000 0.0000 0.0000 0.0000 0.0000 26.3958
#
#
#
# Elastic Compliance Matrix: (Units=1/GPa)
#
#
# Indices 1 2 3 4 5 6 
#
# 1 0.010590 -0.003257 -0.005424 0.000000 0.000000 0.000000
# 2 -0.003257 0.021171 -0.005644 0.000000 0.000000 0.000000
# 3 -0.005424 -0.005644 0.013330 0.000000 0.000000 0.000000
# 4 0.000000 0.000000 0.000000 0.031819 0.000000 0.000000
# 5 0.000000 0.000000 0.000000 0.000000 0.085203 0.000000
# 6 0.000000 0.000000 0.000000 0.000000 0.000000 0.037885
#
#
# Mechanical properties :
#
#
# Convention : Reuss Voigt Hill
#
# Bulk Modulus (GPa) = 60.82948 75.39705 68.11327
# Shear Modulus (GPa) = 21.35589 25.40841 23.38215
#
# Velocity S-wave (km/s) = 3.48799 3.80456 3.64971
# Velocity P-wave (km/s) = 7.13266 7.88998 7.52086
#
# Compressibility (1/GPa) = 0.01643940
#
# Stress axis : x y z
#
# Youngs Moduli (GPa) = 94.43120 47.23539 75.02051
#
# Poissons Ratio (x) = 0.15385 0.40690
# Poissons Ratio (y) = 0.30756 0.42345
# Poissons Ratio (z) = 0.51218 0.26662
#
# Static dielectric constant tensor:
#      x y z
#    x 1.594370 0.000000 0.000000 
#    y 0.000000 1.589940 0.000000 
#    z 0.000000 0.000000 1.566510 
# 
# From -- ./inp_files/23451.got.cif
#   From: 2010.05.17/outbox.cif.g08.bks.cpg/sg62_12_cif.got.tgz:23451.got - 2010.06.03 15:25:27.
