data_PCOD9464688
_publ_section_title
;
Structure prediction by ZEFSAII (Michael W. Deem and Ramdas Pophale) SiO2 
 PCOD9464688
Probable space group: P N M A
;
_chemical_formula_sum "Si O2"
_cell_formula_units_Z 48
_cell_length_a 17.111111
_cell_length_b 9.187589
_cell_length_c 16.561358
_cell_angle_alpha 90.000000
_cell_angle_beta 90.000000
_cell_angle_gamma 90.000000
_cell_volume 2603.608693
_symmetry_space_group_name_H-M "P N M A"
_symmetry_group_IT_number 62
_symmetry_cell_setting 'orthorhombic'
loop_
_space_group_symop_operation_xyz
x,y,z
1/2-x,-y,1/2+z
1/2+x,1/2-y,1/2-z
-x,1/2+y,-z
-x,-y,-z
1/2+x,y,1/2-z
1/2-x,1/2+y,1/2+z
x,1/2-y,z
loop_
_atom_site_type_symbol
_atom_site_label
_atom_site_fract_x
_atom_site_fract_y
_atom_site_fract_z
Si Si1 0.232365 0.923658 0.881919
Si Si2 0.100040 0.078806 0.436113
Si Si3 0.922772 0.078564 0.396702
Si Si4 0.992307 0.584155 0.873787
Si Si5 0.380146 0.084452 0.519766
Si Si6 0.112312 0.076628 0.764224
O O1 0.217729 0.750000 0.869980
O O2 0.324392 0.951104 0.881943
O O3 0.183493 0.013648 0.817302
O O4 0.197580 0.958846 0.971145
O O5 0.103859 0.250000 0.459675
O O6 0.016842 0.056620 0.393579
O O7 0.101850 0.981107 0.516027
O O8 0.906727 0.250000 0.388611
O O9 0.884268 0.988229 0.325140
O O10 0.983108 0.750000 0.845455
O O11 0.913002 0.518746 0.910629
O O12 0.033787 0.485577 0.806883
O O13 0.054021 0.585891 0.948692
O O14 0.372284 0.250000 0.549553
O O15 0.112013 0.250000 0.764809
#
# Coordination Sequence:
#
# PCOD9464688 Si02
#       6
#     8   8   8   8   8   8
#     4   9  18  34  55  79 108 138 171 216 268 315
#     4   9  19  37  60  82 104 135 175 217 260 310
#     4  10  20  36  58  81 106 137 175 216 259 310
#     4   9  16  27  44  67  98 135 173 210 252 305
#     4   8  14  25  43  68  98 132 167 205 251 306
#     4  11  21  33  52  78 108 140 177 219 264 312
#
# _framework density 18.435949999999998
#
# number of rings (size 3 to 8) (size 9 to 14) (size 15 to 20)
#    0.000    2.667    0.000    3.500    0.000    5.333 
#    0.000    1.667    0.000    0.000    0.000    0.000 
#    0.000    0.000    0.000    0.000    0.000    0.000 
#
# Total GULP energy -267679.464938 kJ/mol
# GULP energy per Si atom -5576.655520 kJ/mol
# Density = 1.839399 g / cm^3
# Si number density = 18.435950 Si / 1000 Ang^3
#
#
#
# Elastic Constant Matrix: (Units=GPa)
#
#
# Indices 1 2 3 4 5 6 
#
# 1 54.4575 40.8756 18.2223 0.0000 0.0000 0.0000
# 2 40.8756 112.0746 50.3342 0.0000 0.0000 0.0000
# 3 18.2223 50.3342 52.0882 0.0000 0.0000 0.0000
# 4 0.0000 0.0000 0.0000 27.0500 0.0000 0.0000
# 5 0.0000 0.0000 0.0000 0.0000 5.5668 0.0000
# 6 0.0000 0.0000 0.0000 0.0000 0.0000 19.3633
#
#
#
# Elastic Compliance Matrix: (Units=1/GPa)
#
#
# Indices 1 2 3 4 5 6 
#
# 1 0.025285 -0.009274 0.000116 0.000000 0.000000 0.000000
# 2 -0.009274 0.019166 -0.015276 0.000000 0.000000 0.000000
# 3 0.000116 -0.015276 0.033919 0.000000 0.000000 0.000000
# 4 0.000000 0.000000 0.000000 0.036969 0.000000 0.000000
# 5 0.000000 0.000000 0.000000 0.000000 0.179637 0.000000
# 6 0.000000 0.000000 0.000000 0.000000 0.000000 0.051644
#
#
# Mechanical properties :
#
#
# Convention : Reuss Voigt Hill
#
# Bulk Modulus (GPa) = 33.89573 48.60941 41.25257
# Shear Modulus (GPa) = 12.33589 17.67523 15.00556
#
# Velocity S-wave (km/s) = 2.58954 3.09971 2.85604
# Velocity P-wave (km/s) = 5.23131 6.26377 5.77067
#
# Compressibility (1/GPa) = 0.02950224
#
# Stress axis : x y z
#
# Youngs Moduli (GPa) = 39.54879 52.17656 29.48199
#
# Poissons Ratio (x) = 0.48389 -0.00343
# Poissons Ratio (y) = 0.36678 0.45036
# Poissons Ratio (z) = -0.00460 0.79704
#
# Static dielectric constant tensor:
#      x y z
#    x 1.659350 0.000000 0.000000 
#    y 0.000000 1.617680 0.000000 
#    z 0.000000 0.000000 1.623860 
# 
# From -- ./inp_files/19665.got.cif
#   From: 2010.05.17/outbox.cif.g08.bks.cpg/sg62_10_cif.got.tgz:19665.got - 2010.06.03 15:25:27.
