data_PCOD9464342
_publ_section_title
;
Structure prediction by ZEFSAII (Michael W. Deem and Ramdas Pophale) SiO2 
 PCOD9464342
Probable space group: P N M A
;
_chemical_formula_sum "Si O2"
_cell_formula_units_Z 64
_cell_length_a 12.700878
_cell_length_b 9.267007
_cell_length_c 28.843046
_cell_angle_alpha 90.000000
_cell_angle_beta 90.000000
_cell_angle_gamma 90.000000
_cell_volume 3394.801286
_symmetry_space_group_name_H-M "P N M A"
_symmetry_group_IT_number 62
_symmetry_cell_setting 'orthorhombic'
loop_
_space_group_symop_operation_xyz
x,y,z
1/2-x,-y,1/2+z
1/2+x,1/2-y,1/2-z
-x,1/2+y,-z
-x,-y,-z
1/2+x,y,1/2-z
1/2-x,1/2+y,1/2+z
x,1/2-y,z
loop_
_atom_site_type_symbol
_atom_site_label
_atom_site_fract_x
_atom_site_fract_y
_atom_site_fract_z
Si Si1 0.484163 0.075667 0.857537
Si Si2 0.800322 0.423103 0.384959
Si Si3 0.480308 0.918456 0.249234
Si Si4 0.790163 0.406501 0.227635
Si Si5 0.372303 0.910354 0.691845
Si Si6 0.880512 0.919379 0.952653
Si Si7 0.091378 0.420504 0.937203
Si Si8 0.228144 0.081121 0.379534
O O1 0.482161 0.250000 0.861569
O O2 0.482250 0.037256 0.802408
O O3 0.592642 0.010501 0.877782
O O4 0.382730 0.003443 0.881499
O O5 0.821689 0.250000 0.381730
O O6 0.715002 0.458681 0.344849
O O7 0.733915 0.453261 0.431525
O O8 0.496979 0.750000 0.251960
O O9 0.359917 0.965292 0.252997
O O10 0.532009 0.989140 0.294745
O O11 0.845530 0.250000 0.234647
O O12 0.687520 0.401120 0.259126
O O13 0.763438 0.423207 0.174192
O O14 0.407464 0.750000 0.677557
O O15 0.900786 0.750000 0.942742
O O16 0.884285 0.938490 0.007923
O O17 0.975067 0.011876 0.930468
O O18 0.091758 0.250000 0.926388
O O19 0.180711 0.504302 0.908939
O O20 0.216115 0.250000 0.392450
#
# Coordination Sequence:
#
# PCOD9464342 Si02
#       8
#     8   8   8   8   8   8   8   8
#     4  11  23  38  56  82 118 155 190 235 289 338
#     4  10  21  38  61  85 111 149 195 236 276 334
#     4  11  23  35  51  77 114 152 186 233 286 335
#     4  10  21  36  55  78 107 148 194 233 271 327
#     4  10  20  35  55  79 109 149 194 232 271 328
#     4   9  20  40  64  90 118 149 186 231 287 347
#     4  10  21  39  63  90 120 148 182 235 294 346
#     4  11  23  39  60  84 113 153 200 240 279 337
#
# _framework density 18.852354999999999
#
# number of rings (size 3 to 8) (size 9 to 14) (size 15 to 20)
#    0.000    1.750    2.500    1.500    1.750    4.000 
#    0.000    0.625    0.000    0.000    0.000    0.000 
#    0.000    0.000    0.000    0.000    0.000    0.000 
#
# Total GULP energy -357056.678226 kJ/mol
# GULP energy per Si atom -5579.010597 kJ/mol
# Density = 1.880945 g / cm^3
# Si number density = 18.852355 Si / 1000 Ang^3
#
#
#
# Elastic Constant Matrix: (Units=GPa)
#
#
# Indices 1 2 3 4 5 6 
#
# 1 43.5121 26.0494 3.2039 0.0000 0.0000 0.0000
# 2 26.0494 49.2477 18.8334 0.0000 0.0000 0.0000
# 3 3.2039 18.8334 36.8526 0.0000 0.0000 0.0000
# 4 0.0000 0.0000 0.0000 18.9099 0.0000 0.0000
# 5 0.0000 0.0000 0.0000 0.0000 31.9775 0.0000
# 6 0.0000 0.0000 0.0000 0.0000 0.0000 23.2758
#
#
#
# Elastic Compliance Matrix: (Units=1/GPa)
#
#
# Indices 1 2 3 4 5 6 
#
# 1 0.035470 -0.021853 0.008084 0.000000 0.000000 0.000000
# 2 -0.021853 0.038702 -0.017879 0.000000 0.000000 0.000000
# 3 0.008084 -0.017879 0.035569 0.000000 0.000000 0.000000
# 4 0.000000 0.000000 0.000000 0.052882 0.000000 0.000000
# 5 0.000000 0.000000 0.000000 0.000000 0.031272 0.000000
# 6 0.000000 0.000000 0.000000 0.000000 0.000000 0.042963
#
#
# Mechanical properties :
#
#
# Convention : Reuss Voigt Hill
#
# Bulk Modulus (GPa) = 21.53050 25.08731 23.30891
# Shear Modulus (GPa) = 15.84108 20.26769 18.05439
#
# Velocity S-wave (km/s) = 2.90189 3.28239 3.09799
# Velocity P-wave (km/s) = 4.76165 5.26323 5.01871
#
# Compressibility (1/GPa) = 0.04644574
#
# Stress axis : x y z
#
# Youngs Moduli (GPa) = 28.19312 25.83851 28.11423
#
# Poissons Ratio (x) = 0.56465 -0.22729
# Poissons Ratio (y) = 0.61611 0.50265
# Poissons Ratio (z) = -0.22792 0.46196
#
# Static dielectric constant tensor:
#      x y z
#    x 1.640130 0.000000 0.000000 
#    y 0.000000 1.693310 0.000000 
#    z 0.000000 0.000000 1.662480 
# 
# From -- ./inp_files/32508.got.cif
#   From: 2010.05.17/outbox.cif.g08.bks.cpg/sg62_17_cif.got.tgz:32508.got - 2010.06.03 15:25:27.
