data_PCOD9464508
_publ_section_title
;
Structure prediction by ZEFSAII (Michael W. Deem and Ramdas Pophale) SiO2 
 PCOD9464508
Probable space group: P N M A
;
_chemical_formula_sum "Si O2"
_cell_formula_units_Z 48
_cell_length_a 10.338389
_cell_length_b 8.774571
_cell_length_c 29.847051
_cell_angle_alpha 90.000000
_cell_angle_beta 90.000000
_cell_angle_gamma 90.000000
_cell_volume 2707.573092
_symmetry_space_group_name_H-M "P N M A"
_symmetry_group_IT_number 62
_symmetry_cell_setting 'orthorhombic'
loop_
_space_group_symop_operation_xyz
x,y,z
1/2-x,-y,1/2+z
1/2+x,1/2-y,1/2-z
-x,1/2+y,-z
-x,-y,-z
1/2+x,y,1/2-z
1/2-x,1/2+y,1/2+z
x,1/2-y,z
loop_
_atom_site_type_symbol
_atom_site_label
_atom_site_fract_x
_atom_site_fract_y
_atom_site_fract_z
Si Si1 0.213686 0.933482 0.790191
Si Si2 0.377917 0.431645 0.026512
Si Si3 0.025261 0.430691 0.615553
Si Si4 0.013762 0.566396 0.712622
Si Si5 0.717994 0.430676 0.612689
Si Si6 0.127966 0.931644 0.978111
O O1 0.207159 0.750000 0.795306
O O2 0.362920 0.971688 0.777887
O O3 0.111353 0.978556 0.752145
O O4 0.184447 0.009762 0.837891
O O5 0.377253 0.250000 0.021971
O O6 0.394628 0.481026 0.078019
O O7 0.500000 0.500000 0.000000
O O8 0.250126 0.501215 0.004764
O O9 0.047895 0.250000 0.612024
O O10 0.050508 0.489133 0.665657
O O11 0.872210 0.458535 0.606683
O O12 0.021227 0.750000 0.707468
O O13 0.696423 0.250000 0.609367
O O14 0.643502 0.515935 0.573303
O O15 0.127642 0.750000 0.980794
O O16 0.000000 0.000000 0.000000
#
# Coordination Sequence:
#
# PCOD9464508 Si02
#       6
#     8   8   8   8   8   8
#     4   9  18  34  56  80 108 145 188 235 288 342
#     4  12  23  38  62  90 118 153 196 242 289 343
#     4  10  20  35  58  86 115 149 193 242 288 340
#     4   9  18  34  55  79 109 145 187 236 288 343
#     4  10  20  36  59  84 114 152 195 237 286 347
#     4  12  25  42  62  86 120 157 195 242 295 352
#
# _framework density 17.728052000000002
#
# number of rings (size 3 to 8) (size 9 to 14) (size 15 to 20)
#    0.000    1.667    1.667    4.000    0.000    2.000 
#    3.000    0.000    0.000    0.000    0.000    0.000 
#    0.000    0.000    0.000    0.000    0.000    0.000 
#
# Total GULP energy -268170.477682 kJ/mol
# GULP energy per Si atom -5586.884952 kJ/mol
# Density = 1.768770 g / cm^3
# Si number density = 17.728052 Si / 1000 Ang^3
#
#
#
# Elastic Constant Matrix: (Units=GPa)
#
#
# Indices 1 2 3 4 5 6 
#
# 1 117.2993 61.1779 90.0171 0.0000 0.0000 0.0000
# 2 61.1779 101.8516 74.3541 0.0000 0.0000 0.0000
# 3 90.0171 74.3541 152.8522 0.0000 0.0000 0.0000
# 4 0.0000 0.0000 0.0000 36.3773 0.0000 0.0000
# 5 0.0000 0.0000 0.0000 0.0000 37.0154 0.0000
# 6 0.0000 0.0000 0.0000 0.0000 0.0000 23.1612
#
#
#
# Elastic Compliance Matrix: (Units=1/GPa)
#
#
# Indices 1 2 3 4 5 6 
#
# 1 0.016755 -0.004436 -0.007710 0.000000 0.000000 0.000000
# 2 -0.004436 0.016399 -0.005365 0.000000 0.000000 0.000000
# 3 -0.007710 -0.005365 0.013692 0.000000 0.000000 0.000000
# 4 0.000000 0.000000 0.000000 0.027490 0.000000 0.000000
# 5 0.000000 0.000000 0.000000 0.000000 0.027016 0.000000
# 6 0.000000 0.000000 0.000000 0.000000 0.000000 0.043176
#
#
# Mechanical properties :
#
#
# Convention : Reuss Voigt Hill
#
# Bulk Modulus (GPa) = 84.56051 91.45568 88.00810
# Shear Modulus (GPa) = 27.24935 29.07439 28.16187
#
# Velocity S-wave (km/s) = 3.92481 4.05411 3.98998
# Velocity P-wave (km/s) = 8.26687 8.57989 8.42483
#
# Compressibility (1/GPa) = 0.01182585
#
# Stress axis : x y z
#
# Youngs Moduli (GPa) = 59.68284 60.97862 73.03390
#
# Poissons Ratio (x) = 0.27050 0.56306
# Poissons Ratio (y) = 0.26475 0.39182
# Poissons Ratio (z) = 0.46013 0.32714
#
# Static dielectric constant tensor:
#      x y z
#    x 1.583520 0.000000 0.000000 
#    y 0.000000 1.588780 0.000000 
#    z 0.000000 0.000000 1.588650 
# 
# From -- ./inp_files/31900.got.cif
#   From: 2010.05.17/outbox.cif.g08.bks.cpg/sg62_16_cif.got.tgz:31900.got - 2010.06.03 15:25:27.
