data_PCOD9464777
_publ_section_title
;
Structure prediction by ZEFSAII (Michael W. Deem and Ramdas Pophale) SiO2 
 PCOD9464777
Probable space group: P N M A
;
_chemical_formula_sum "Si O2"
_cell_formula_units_Z 64
_cell_length_a 5.215304
_cell_length_b 19.437339
_cell_length_c 27.475551
_cell_angle_alpha 90.000000
_cell_angle_beta 90.000000
_cell_angle_gamma 90.000000
_cell_volume 2785.241440
_symmetry_space_group_name_H-M "P N M A"
_symmetry_group_IT_number 62
_symmetry_cell_setting 'orthorhombic'
loop_
_space_group_symop_operation_xyz
x,y,z
1/2-x,-y,1/2+z
1/2+x,1/2-y,1/2-z
-x,1/2+y,-z
-x,-y,-z
1/2+x,y,1/2-z
1/2-x,1/2+y,1/2+z
x,1/2-y,z
loop_
_atom_site_type_symbol
_atom_site_label
_atom_site_fract_x
_atom_site_fract_y
_atom_site_fract_z
Si Si1 0.110037 0.675425 0.414552
Si Si2 0.795533 0.671807 0.718446
Si Si3 0.066393 0.174629 0.011773
Si Si4 0.785372 0.432001 0.956557
Si Si5 0.331515 0.425425 0.075321
Si Si6 0.329287 0.056873 0.359927
Si Si7 0.444142 0.590294 0.356893
Si Si8 0.757818 0.830852 0.282501
O O1 0.977846 0.750000 0.410158
O O2 0.933647 0.613813 0.432080
O O3 0.312909 0.682416 0.458329
O O4 0.250115 0.653420 0.365097
O O5 0.581878 0.664308 0.760668
O O6 0.768794 0.750000 0.699307
O O7 0.731971 0.615284 0.678819
O O8 0.964362 0.250000 0.026170
O O9 0.870271 0.111556 0.003453
O O10 0.282914 0.146154 0.047881
O O11 0.712906 0.511304 0.962399
O O12 0.991523 0.431770 0.912566
O O13 0.602168 0.437838 0.100624
O O14 0.106752 0.430006 0.115805
O O15 0.333006 0.980525 0.336215
O O16 0.683950 0.619602 0.327244
O O17 0.027698 0.843228 0.256273
O O18 0.745638 0.750000 0.296559
#
# Coordination Sequence:
#
# PCOD9464777 Si02
#       8
#     8   8   8   8   8   8   8   8
#     4  10  20  36  60  85 115 157 210 256 296 353
#     4  10  22  42  68  96 126 162 205 255 306 363
#     4  10  23  39  58  89 121 161 212 256 306 367
#     4  10  21  39  60  87 117 162 210 259 300 361
#     4  11  24  41  62  90 129 166 198 255 316 369
#     4  11  24  41  64  94 125 160 206 246 309 378
#     4  10  22  39  58  86 120 155 205 252 304 353
#     4  10  23  39  57  85 119 155 193 238 300 363
#
# _framework density 22.978258
#
# number of rings (size 3 to 8) (size 9 to 14) (size 15 to 20)
#    0.000    1.750    1.250    1.875    3.500    4.000 
#    0.000    0.000    0.000    0.000    0.000    0.000 
#    0.000    0.000    0.000    0.000    0.000    0.000 
#
# Total GULP energy -357605.627589 kJ/mol
# GULP energy per Si atom -5587.587931 kJ/mol
# Density = 2.292596 g / cm^3
# Si number density = 22.978258 Si / 1000 Ang^3
#
#
#
# Elastic Constant Matrix: (Units=GPa)
#
#
# Indices 1 2 3 4 5 6 
#
# 1 61.1005 -14.7503 4.4826 0.0000 0.0000 0.0000
# 2 -14.7503 117.6615 31.1094 0.0000 0.0000 0.0000
# 3 4.4826 31.1094 41.2750 0.0000 0.0000 0.0000
# 4 0.0000 0.0000 0.0000 38.5122 0.0000 0.0000
# 5 0.0000 0.0000 0.0000 0.0000 35.8791 0.0000
# 6 0.0000 0.0000 0.0000 0.0000 0.0000 23.3183
#
#
#
# Elastic Compliance Matrix: (Units=1/GPa)
#
#
# Indices 1 2 3 4 5 6 
#
# 1 0.017505 0.003368 -0.004440 0.000000 0.000000 0.000000
# 2 0.003368 0.011262 -0.008854 0.000000 0.000000 0.000000
# 3 -0.004440 -0.008854 0.031384 0.000000 0.000000 0.000000
# 4 0.000000 0.000000 0.000000 0.025966 0.000000 0.000000
# 5 0.000000 0.000000 0.000000 0.000000 0.027871 0.000000
# 6 0.000000 0.000000 0.000000 0.000000 0.000000 0.042885
#
#
# Mechanical properties :
#
#
# Convention : Reuss Voigt Hill
#
# Bulk Modulus (GPa) = 24.81420 29.08005 26.94713
# Shear Modulus (GPa) = 26.29390 32.82161 29.55776
#
# Velocity S-wave (km/s) = 3.38641 3.78349 3.59044
# Velocity P-wave (km/s) = 5.11007 5.63643 5.37969
#
# Compressibility (1/GPa) = 0.04029950
#
# Stress axis : x y z
#
# Youngs Moduli (GPa) = 57.12526 88.79178 31.86379
#
# Poissons Ratio (x) = -0.29909 0.14147
# Poissons Ratio (y) = -0.19242 0.28213
# Poissons Ratio (z) = 0.25363 0.78619
#
# Static dielectric constant tensor:
#      x y z
#    x 1.912780 0.000000 0.000000 
#    y 0.000000 1.890960 0.000000 
#    z 0.000000 0.000000 1.863120 
# 
# From -- ./inp_files/31710.got.cif
#   From: 2010.05.17/outbox.cif.g08.bks.cpg/sg62_16_cif.got.tgz:31710.got - 2010.06.03 15:25:27.
