data_PCOD9464602
_publ_section_title
;
Structure prediction by ZEFSAII (Michael W. Deem and Ramdas Pophale) SiO2 
 PCOD9464602
Probable space group: P N M A
;
_chemical_formula_sum "Si O2"
_cell_formula_units_Z 48
_cell_length_a 9.526203
_cell_length_b 8.438567
_cell_length_c 31.986888
_cell_angle_alpha 90.000000
_cell_angle_beta 90.000000
_cell_angle_gamma 90.000000
_cell_volume 2571.346032
_symmetry_space_group_name_H-M "P N M A"
_symmetry_group_IT_number 62
_symmetry_cell_setting 'orthorhombic'
loop_
_space_group_symop_operation_xyz
x,y,z
1/2-x,-y,1/2+z
1/2+x,1/2-y,1/2-z
-x,1/2+y,-z
-x,-y,-z
1/2+x,y,1/2-z
1/2-x,1/2+y,1/2+z
x,1/2-y,z
loop_
_atom_site_type_symbol
_atom_site_label
_atom_site_fract_x
_atom_site_fract_y
_atom_site_fract_z
Si Si1 0.087044 0.557528 0.211019
Si Si2 0.413063 0.941720 0.209233
Si Si3 0.585354 0.940094 0.382179
Si Si4 0.588889 0.939517 0.539345
Si Si5 0.595885 0.560283 0.881446
Si Si6 0.411676 0.558324 0.960455
O O1 0.078801 0.750000 0.211217
O O2 0.250167 0.515005 0.215239
O O3 0.040822 0.506332 0.164600
O O4 0.000266 0.501183 0.250856
O O5 0.421676 0.750000 0.207192
O O6 0.456941 0.008001 0.164250
O O7 0.579328 0.750000 0.383651
O O8 0.488456 0.008323 0.418359
O O9 0.748019 0.990009 0.387815
O O10 0.591457 0.750000 0.537682
O O11 0.750239 0.997132 0.537915
O O12 0.500000 0.000000 0.500000
O O13 0.607295 0.750000 0.882665
O O14 0.491555 0.507715 0.918202
O O15 0.410288 0.750000 0.960936
O O16 0.500000 0.500000 0.000000
#
# Coordination Sequence:
#
# PCOD9464602 Si02
#       6
#     8   8   8   8   8   8
#     4   8  16  30  50  74 102 134 173 216 260 306
#     4   9  17  32  52  75 103 139 179 221 263 311
#     4  10  20  36  57  82 109 142 181 223 269 321
#     4  11  23  39  57  81 110 141 177 222 270 322
#     4  10  20  36  55  78 108 143 178 219 268 318
#     4  10  23  39  56  78 107 139 175 217 264 316
#
# _framework density 18.667266999999999
#
# number of rings (size 3 to 8) (size 9 to 14) (size 15 to 20)
#    0.000    2.333    0.000    3.500    0.000    6.667 
#    0.000    5.833    0.000    0.000    0.000    0.000 
#    0.000    0.000    0.000    0.000    0.000    0.000 
#
# Total GULP energy -267895.192960 kJ/mol
# GULP energy per Si atom -5581.149853 kJ/mol
# Density = 1.862478 g / cm^3
# Si number density = 18.667267 Si / 1000 Ang^3
#
#
#
# Elastic Constant Matrix: (Units=GPa)
#
#
# Indices 1 2 3 4 5 6 
#
# 1 122.4469 22.3127 122.0979 0.0000 0.0000 0.0000
# 2 22.3127 27.9459 27.6478 0.0000 0.0000 0.0000
# 3 122.0979 27.6478 219.9340 0.0000 0.0000 0.0000
# 4 0.0000 0.0000 0.0000 32.5426 0.0000 0.0000
# 5 0.0000 0.0000 0.0000 0.0000 43.2677 0.0000
# 6 0.0000 0.0000 0.0000 0.0000 0.0000 23.6341
#
#
#
# Elastic Compliance Matrix: (Units=1/GPa)
#
#
# Indices 1 2 3 4 5 6 
#
# 1 0.018982 -0.005402 -0.009859 0.000000 0.000000 0.000000
# 2 -0.005402 0.042403 -0.002332 0.000000 0.000000 0.000000
# 3 -0.009859 -0.002332 0.010313 0.000000 0.000000 0.000000
# 4 0.000000 0.000000 0.000000 0.030729 0.000000 0.000000
# 5 0.000000 0.000000 0.000000 0.000000 0.023112 0.000000
# 6 0.000000 0.000000 0.000000 0.000000 0.000000 0.042312
#
#
# Mechanical properties :
#
#
# Convention : Reuss Voigt Hill
#
# Bulk Modulus (GPa) = 27.38713 79.38261 53.38487
# Shear Modulus (GPa) = 23.23346 33.10677 28.17012
#
# Velocity S-wave (km/s) = 3.53173 4.21589 3.88888
# Velocity P-wave (km/s) = 5.59767 8.14344 6.98747
#
# Compressibility (1/GPa) = 0.03651350
#
# Stress axis : x y z
#
# Youngs Moduli (GPa) = 52.68161 23.58315 96.96359
#
# Poissons Ratio (x) = 0.12739 0.95595
# Poissons Ratio (y) = 0.28458 0.22608
# Poissons Ratio (z) = 0.51938 0.05499
#
# Static dielectric constant tensor:
#      x y z
#    x 1.625430 0.000000 0.000000 
#    y 0.000000 1.649820 0.000000 
#    z 0.000000 0.000000 1.640180 
# 
# From -- ./inp_files/32004.got.cif
#   From: 2010.05.17/outbox.cif.g08.bks.cpg/sg62_17_cif.got.tgz:32004.got - 2010.06.03 15:25:27.
