data_PCOD9464182
_publ_section_title
;
Structure prediction by ZEFSAII (Michael W. Deem and Ramdas Pophale) SiO2 
 PCOD9464182
Probable space group: P N M A
;
_chemical_formula_sum "Si O2"
_cell_formula_units_Z 56
_cell_length_a 13.833677
_cell_length_b 9.223865
_cell_length_c 21.141624
_cell_angle_alpha 90.000000
_cell_angle_beta 90.000000
_cell_angle_gamma 90.000000
_cell_volume 2697.670569
_symmetry_space_group_name_H-M "P N M A"
_symmetry_group_IT_number 62
_symmetry_cell_setting 'orthorhombic'
loop_
_space_group_symop_operation_xyz
x,y,z
1/2-x,-y,1/2+z
1/2+x,1/2-y,1/2-z
-x,1/2+y,-z
-x,-y,-z
1/2+x,y,1/2-z
1/2-x,1/2+y,1/2+z
x,1/2-y,z
loop_
_atom_site_type_symbol
_atom_site_label
_atom_site_fract_x
_atom_site_fract_y
_atom_site_fract_z
Si Si1 0.014858 0.917550 0.912217
Si Si2 0.511292 0.421638 0.066260
Si Si3 0.466282 0.088683 0.262506
Si Si4 0.793572 0.079734 0.394107
Si Si5 0.347167 0.916856 0.826330
Si Si6 0.844244 0.079308 0.982438
Si Si7 0.284412 0.580226 0.232444
O O1 0.989487 0.750000 0.929702
O O2 0.018614 0.925247 0.837194
O O3 0.117698 0.946987 0.946262
O O4 0.935107 0.025090 0.940330
O O5 0.523821 0.250000 0.056176
O O6 0.409316 0.439478 0.102657
O O7 0.601647 0.469446 0.109299
O O8 0.500000 0.500000 0.000000
O O9 0.421843 0.250000 0.250036
O O10 0.565779 0.085807 0.224679
O O11 0.396085 0.962541 0.240265
O O12 0.771781 0.250000 0.391263
O O13 0.746060 0.009843 0.456323
O O14 0.752490 0.000744 0.331915
O O15 0.313308 0.750000 0.834908
O O16 0.266928 0.015047 0.794267
O O17 0.826242 0.250000 0.974597
O O18 0.268138 0.750000 0.226657
#
# Coordination Sequence:
#
# PCOD9464182 Si02
#       7
#     8   8   8   8   8   8   8
#     4   9  19  35  57  85 119 161 200 242 300 361
#     4  10  23  42  65  91 120 162 209 255 309 367
#     4  10  20  39  63  85 116 158 201 243 294 364
#     4  11  22  41  63  85 116 162 212 247 301 378
#     4  10  21  41  65  89 122 165 211 252 302 374
#     4  10  20  34  55  88 122 153 199 250 300 353
#     4  12  25  38  60  94 124 154 197 256 318 362
#
# _framework density 20.758649999999999
#
# number of rings (size 3 to 8) (size 9 to 14) (size 15 to 20)
#    0.000    1.714    1.429    3.000    0.000    5.714 
#    0.000    4.286    0.000    0.000    0.000    0.000 
#    0.000    0.000    0.000    0.000    0.000    0.000 
#
# Total GULP energy -312955.614767 kJ/mol
# GULP energy per Si atom -5588.493121 kJ/mol
# Density = 2.071140 g / cm^3
# Si number density = 20.758650 Si / 1000 Ang^3
#
#
#
# Elastic Constant Matrix: (Units=GPa)
#
#
# Indices 1 2 3 4 5 6 
#
# 1 16.4415 16.4884 -16.9543 0.0000 0.0000 0.0000
# 2 16.4884 83.6942 25.6520 0.0000 0.0000 0.0000
# 3 -16.9543 25.6520 90.0614 0.0000 0.0000 0.0000
# 4 0.0000 0.0000 0.0000 29.9068 0.0000 0.0000
# 5 0.0000 0.0000 0.0000 0.0000 29.7020 0.0000
# 6 0.0000 0.0000 0.0000 0.0000 0.0000 28.1704
#
#
#
# Elastic Compliance Matrix: (Units=1/GPa)
#
#
# Indices 1 2 3 4 5 6 
#
# 1 0.136972 -0.038225 0.036673 0.000000 0.000000 0.000000
# 2 -0.038225 0.023758 -0.013963 0.000000 0.000000 0.000000
# 3 0.036673 -0.013963 0.021984 0.000000 0.000000 0.000000
# 4 0.000000 0.000000 0.000000 0.033437 0.000000 0.000000
# 5 0.000000 0.000000 0.000000 0.000000 0.033668 0.000000
# 6 0.000000 0.000000 0.000000 0.000000 0.000000 0.035498
#
#
# Mechanical properties :
#
#
# Convention : Reuss Voigt Hill
#
# Bulk Modulus (GPa) = 6.59260 26.72992 16.66126
# Shear Modulus (GPa) = 13.62734 28.55656 21.09195
#
# Velocity S-wave (km/s) = 2.56494 3.71299 3.19102
# Velocity P-wave (km/s) = 3.45754 5.59341 4.64978
#
# Compressibility (1/GPa) = 0.15168524
#
# Stress axis : x y z
#
# Youngs Moduli (GPa) = 7.30076 42.09030 45.48687
#
# Poissons Ratio (x) = 1.60889 -1.66813
# Poissons Ratio (y) = 0.27907 0.63513
# Poissons Ratio (z) = -0.26774 0.58771
#
# Static dielectric constant tensor:
#      x y z
#    x 1.767190 0.000000 0.000000 
#    y 0.000000 1.708800 0.000000 
#    z 0.000000 0.000000 1.762010 
# 
# From -- ./inp_files/27159.got.cif
#   From: 2010.05.17/outbox.cif.g08.bks.cpg/sg62_14_cif.got.tgz:27159.got - 2010.06.03 15:25:27.
