data_PCOD9464871
_publ_section_title
;
Structure prediction by ZEFSAII (Michael W. Deem and Ramdas Pophale) SiO2 
 PCOD9464871
Probable space group: P N M A
;
_chemical_formula_sum "Si O2"
_cell_formula_units_Z 48
_cell_length_a 27.374236
_cell_length_b 7.490488
_cell_length_c 9.753981
_cell_angle_alpha 90.000000
_cell_angle_beta 90.000000
_cell_angle_gamma 90.000000
_cell_volume 2000.018556
_symmetry_space_group_name_H-M "P N M A"
_symmetry_group_IT_number 62
_symmetry_cell_setting 'orthorhombic'
loop_
_space_group_symop_operation_xyz
x,y,z
1/2-x,-y,1/2+z
1/2+x,1/2-y,1/2-z
-x,1/2+y,-z
-x,-y,-z
1/2+x,y,1/2-z
1/2-x,1/2+y,1/2+z
x,1/2-y,z
loop_
_atom_site_type_symbol
_atom_site_label
_atom_site_fract_x
_atom_site_fract_y
_atom_site_fract_z
Si Si1 0.128411 0.461071 0.521960
Si Si2 0.417316 0.466629 0.456895
Si Si3 0.965459 0.543517 0.320668
Si Si4 0.930115 0.465147 0.730718
Si Si5 0.729133 0.466269 0.847016
Si Si6 0.692364 0.960086 0.552664
O O1 0.129691 0.250000 0.551079
O O2 0.081480 0.538301 0.603454
O O3 0.115889 0.485846 0.362689
O O4 0.180111 0.531198 0.574941
O O5 0.420007 0.250000 0.450604
O O6 0.453470 0.536664 0.341198
O O7 0.427484 0.524289 0.612235
O O8 0.362154 0.529697 0.423185
O O9 0.968127 0.750000 0.363005
O O10 0.019611 0.466162 0.337979
O O11 0.932384 0.250000 0.733686
O O12 0.729903 0.250000 0.853830
O O13 0.723970 0.517666 0.689388
O O14 0.777129 0.533219 0.924999
O O15 0.685379 0.750000 0.526726
#
# Coordination Sequence:
#
# PCOD9464871 Si02
#       6
#     8   8   8   8   8   8
#     4  10  21  37  56  81 113 148 187 230 278 332
#     4  10  21  37  56  82 114 146 185 231 279 333
#     4  10  20  37  58  82 113 149 190 232 279 331
#     4  10  22  36  55  85 116 148 189 233 276 330
#     4  10  22  40  60  84 114 145 184 234 280 332
#     4  10  22  39  59  84 112 144 184 230 280 334
#
# _framework density 23.999775
#
# number of rings (size 3 to 8) (size 9 to 14) (size 15 to 20)
#    0.000    2.000    1.667    1.000    2.333    3.333 
#    0.000    0.000    0.000    0.000    0.000    0.000 
#    0.000    0.000    0.000    0.000    0.000    0.000 
#
# Total GULP energy -268435.408556 kJ/mol
# GULP energy per Si atom -5592.404345 kJ/mol
# Density = 2.394515 g / cm^3
# Si number density = 23.999775 Si / 1000 Ang^3
#
#
#
# Elastic Constant Matrix: (Units=GPa)
#
#
# Indices 1 2 3 4 5 6 
#
# 1 40.1089 3.4653 -9.7464 0.0000 0.0000 0.0000
# 2 3.4653 71.4505 -9.2829 0.0000 0.0000 0.0000
# 3 -9.7464 -9.2829 64.7795 0.0000 0.0000 0.0000
# 4 0.0000 0.0000 0.0000 -2.7196 0.0000 0.0000
# 5 0.0000 0.0000 0.0000 0.0000 39.5716 0.0000
# 6 0.0000 0.0000 0.0000 0.0000 0.0000 11.5042
#
#
#
# Elastic Compliance Matrix: (Units=1/GPa)
#
#
# Indices 1 2 3 4 5 6 
#
# 1 0.025919 -0.000765 0.003790 0.000000 0.000000 0.000000
# 2 -0.000765 0.014284 0.001932 0.000000 0.000000 0.000000
# 3 0.003790 0.001932 0.016284 0.000000 0.000000 0.000000
# 4 0.000000 0.000000 0.000000 -0.367705 0.000000 0.000000
# 5 0.000000 0.000000 0.000000 0.000000 0.025271 0.000000
# 6 0.000000 0.000000 0.000000 0.000000 0.000000 0.086925
#
#
# Mechanical properties :
#
#
# Convention : Reuss Voigt Hill
#
# Bulk Modulus (GPa) = 15.05991 16.13456 15.59723
# Shear Modulus (GPa) = -26.76621 22.46476 -2.15072
#
# Velocity S-wave (km/s) = -3.34319 3.06280 -0.94768
# Velocity P-wave (km/s) = 2.93494 4.38691 2.30555
#
# Compressibility (1/GPa) = 0.06640146
#
# Stress axis : x y z
#
# Youngs Moduli (GPa) = 38.58148 70.00952 61.40978
#
# Poissons Ratio (x) = 0.05353 -0.23275
# Poissons Ratio (y) = 0.02950 -0.11863
# Poissons Ratio (z) = -0.14623 -0.13525
#
# Static dielectric constant tensor:
#      x y z
#    x 1.936880 0.000000 0.000000 
#    y 0.000000 1.900020 0.000000 
#    z 0.000000 0.000000 1.888960 
# 
# From -- ./inp_files/9777.got.cif
#   From: 2010.05.17/outbox.cif.g08.bks.cpg/sg62_5_cif.got.tgz:9777.got - 2010.06.03 15:25:27.
