data_PCOD9464410
_publ_section_title
;
Structure prediction by ZEFSAII (Michael W. Deem and Ramdas Pophale) SiO2 
 PCOD9464410
Probable space group: P N M A
;
_chemical_formula_sum "Si O2"
_cell_formula_units_Z 40
_cell_length_a 18.476255
_cell_length_b 12.649721
_cell_length_c 9.087296
_cell_angle_alpha 90.000000
_cell_angle_beta 90.000000
_cell_angle_gamma 90.000000
_cell_volume 2123.878013
_symmetry_space_group_name_H-M "P N M A"
_symmetry_group_IT_number 62
_symmetry_cell_setting 'orthorhombic'
loop_
_space_group_symop_operation_xyz
x,y,z
1/2-x,-y,1/2+z
1/2+x,1/2-y,1/2-z
-x,1/2+y,-z
-x,-y,-z
1/2+x,y,1/2-z
1/2-x,1/2+y,1/2+z
x,1/2-y,z
loop_
_atom_site_type_symbol
_atom_site_label
_atom_site_fract_x
_atom_site_fract_y
_atom_site_fract_z
Si Si1 0.013048 0.365834 0.822976
Si Si2 0.855035 0.126563 0.196179
Si Si3 0.419588 0.525403 0.063175
Si Si4 0.181935 0.374121 0.313302
Si Si5 0.095506 0.474534 0.065321
O O1 0.979738 0.250000 0.813788
O O2 0.956438 0.461830 0.824103
O O3 0.066938 0.385180 0.687705
O O4 0.054314 0.382578 0.977165
O O5 0.875275 0.250000 0.190274
O O6 0.768445 0.117969 0.178956
O O7 0.885691 0.072688 0.344948
O O8 0.885463 0.059877 0.059322
O O9 0.500000 0.500000 0.000000
O O10 0.363244 0.566605 0.941085
O O11 0.162275 0.250000 0.316796
O O12 0.159380 0.425983 0.158751
#
# Coordination Sequence:
#
# PCOD9464410 Si02
#       5
#     8   8   8   8   8
#     4  10  20  35  56  83 113 149 192 241 297 349
#     4  10  23  40  61  86 121 163 201 244 305 368
#     4  11  22  40  59  89 121 155 201 254 302 353
#     4  11  22  39  61  88 120 159 200 249 307 364
#     4  10  20  37  57  83 116 152 195 243 292 355
#
# _framework density 18.833473999999999
#
# number of rings (size 3 to 8) (size 9 to 14) (size 15 to 20)
#    0.000    1.600    2.000    3.000    0.000    1.600 
#    0.000    0.000    0.000    8.400    0.000    0.000 
#    0.000    0.000    0.000    0.000    0.000    0.000 
#
# Total GULP energy -223096.880996 kJ/mol
# GULP energy per Si atom -5577.422025 kJ/mol
# Density = 1.879061 g / cm^3
# Si number density = 18.833474 Si / 1000 Ang^3
#
#
#
# Elastic Constant Matrix: (Units=GPa)
#
#
# Indices 1 2 3 4 5 6 
#
# 1 71.8733 33.3114 35.7739 0.0000 0.0000 0.0000
# 2 33.3114 97.8221 51.3171 0.0000 0.0000 0.0000
# 3 35.7739 51.3171 91.0441 0.0000 0.0000 0.0000
# 4 0.0000 0.0000 0.0000 17.6862 0.0000 0.0000
# 5 0.0000 0.0000 0.0000 0.0000 37.2737 0.0000
# 6 0.0000 0.0000 0.0000 0.0000 0.0000 7.0423
#
#
#
# Elastic Compliance Matrix: (Units=1/GPa)
#
#
# Indices 1 2 3 4 5 6 
#
# 1 0.018081 -0.003450 -0.005160 0.000000 0.000000 0.000000
# 2 -0.003450 0.015173 -0.007196 0.000000 0.000000 0.000000
# 3 -0.005160 -0.007196 0.017067 0.000000 0.000000 0.000000
# 4 0.000000 0.000000 0.000000 0.056541 0.000000 0.000000
# 5 0.000000 0.000000 0.000000 0.000000 0.026829 0.000000
# 6 0.000000 0.000000 0.000000 0.000000 0.000000 0.141999
#
#
# Mechanical properties :
#
#
# Convention : Reuss Voigt Hill
#
# Bulk Modulus (GPa) = 53.45299 55.72713 54.59006
# Shear Modulus (GPa) = 15.94700 21.75623 18.85161
#
# Velocity S-wave (km/s) = 2.91303 3.40249 3.16723
# Velocity P-wave (km/s) = 6.30538 6.71488 6.51335
#
# Compressibility (1/GPa) = 0.01870803
#
# Stress axis : x y z
#
# Youngs Moduli (GPa) = 55.30776 65.90746 58.59131
#
# Poissons Ratio (x) = 0.22740 0.30231
# Poissons Ratio (y) = 0.19083 0.42165
# Poissons Ratio (z) = 0.28537 0.47430
#
# Static dielectric constant tensor:
#      x y z
#    x 1.701620 0.000000 0.000000 
#    y 0.000000 1.634250 0.000000 
#    z 0.000000 0.000000 1.672020 
# 
# From -- ./inp_files/7266.got.cif
#   From: 2010.05.17/outbox.cif.g08.bks.cpg/sg62_4_cif.got.tgz:7266.got - 2010.06.03 15:25:27.
