data_PCOD9464982
_publ_section_title
;
Structure prediction by ZEFSAII (Michael W. Deem and Ramdas Pophale) SiO2 
 PCOD9464982
Probable space group: P N M A
;
_chemical_formula_sum "Si O2"
_cell_formula_units_Z 48
_cell_length_a 19.411787
_cell_length_b 8.712843
_cell_length_c 15.465711
_cell_angle_alpha 90.000000
_cell_angle_beta 90.000000
_cell_angle_gamma 90.000000
_cell_volume 2615.744351
_symmetry_space_group_name_H-M "P N M A"
_symmetry_group_IT_number 62
_symmetry_cell_setting 'orthorhombic'
loop_
_space_group_symop_operation_xyz
x,y,z
1/2-x,-y,1/2+z
1/2+x,1/2-y,1/2-z
-x,1/2+y,-z
-x,-y,-z
1/2+x,y,1/2-z
1/2-x,1/2+y,1/2+z
x,1/2-y,z
loop_
_atom_site_type_symbol
_atom_site_label
_atom_site_fract_x
_atom_site_fract_y
_atom_site_fract_z
Si Si1 0.823249 0.435295 0.625454
Si Si2 0.670481 0.933828 0.619910
Si Si3 0.925822 0.065030 0.473542
Si Si4 0.076269 0.566239 0.217146
Si Si5 0.070374 0.935017 0.723524
Si Si6 0.425898 0.566948 0.528138
O O1 0.816503 0.250000 0.622808
O O2 0.748412 0.509178 0.625183
O O3 0.868170 0.484350 0.542174
O O4 0.867014 0.475130 0.710939
O O5 0.668357 0.750000 0.611612
O O6 0.628114 0.976708 0.706455
O O7 0.630729 0.007516 0.539150
O O8 0.929520 0.250000 0.477828
O O9 0.910644 0.021489 0.374492
O O10 0.000000 0.000000 0.500000
O O11 0.075421 0.750000 0.207748
O O12 0.089730 0.490195 0.124701
O O13 0.001793 0.510986 0.250491
O O14 0.061662 0.750000 0.726500
O O15 0.500000 0.500000 0.500000
O O16 0.429540 0.750000 0.526251
#
# Coordination Sequence:
#
# PCOD9464982 Si02
#       6
#     8   8   8   8   8   8
#     4  10  23  41  60  90 130 165 200 253 311 365
#     4  11  24  41  61  91 126 164 207 255 309 368
#     4  10  20  37  61  90 121 158 204 251 304 366
#     4  11  22  38  63  93 124 161 207 253 303 367
#     4  10  21  37  61  89 120 157 204 254 304 366
#     4  12  24  40  64  92 123 162 207 258 311 368
#
# _framework density 18.350415999999999
#
# number of rings (size 3 to 8) (size 9 to 14) (size 15 to 20)
#    0.000    1.333    3.333    2.500    0.000    4.000 
#    0.000    1.667    0.000    0.000    0.000    0.000 
#    0.000    0.000    0.000    0.000    0.000    0.000 
#
# Total GULP energy -268322.235414 kJ/mol
# GULP energy per Si atom -5590.046571 kJ/mol
# Density = 1.830865 g / cm^3
# Si number density = 18.350416 Si / 1000 Ang^3
#
#
#
# Elastic Constant Matrix: (Units=GPa)
#
#
# Indices 1 2 3 4 5 6 
#
# 1 184.7345 64.6435 116.2022 0.0000 0.0000 0.0000
# 2 64.6435 57.9038 73.8157 0.0000 0.0000 0.0000
# 3 116.2022 73.8157 216.1927 0.0000 0.0000 0.0000
# 4 0.0000 0.0000 0.0000 27.3211 0.0000 0.0000
# 5 0.0000 0.0000 0.0000 0.0000 32.8520 0.0000
# 6 0.0000 0.0000 0.0000 0.0000 0.0000 36.7766
#
#
#
# Elastic Compliance Matrix: (Units=1/GPa)
#
#
# Indices 1 2 3 4 5 6 
#
# 1 0.009689 -0.007398 -0.002682 0.000000 0.000000 0.000000
# 2 -0.007398 0.036229 -0.008394 0.000000 0.000000 0.000000
# 3 -0.002682 -0.008394 0.008933 0.000000 0.000000 0.000000
# 4 0.000000 0.000000 0.000000 0.036602 0.000000 0.000000
# 5 0.000000 0.000000 0.000000 0.000000 0.030440 0.000000
# 6 0.000000 0.000000 0.000000 0.000000 0.000000 0.027191
#
#
# Mechanical properties :
#
#
# Convention : Reuss Voigt Hill
#
# Bulk Modulus (GPa) = 55.85253 107.57265 81.71259
# Shear Modulus (GPa) = 26.04202 33.00123 29.52163
#
# Velocity S-wave (km/s) = 3.77125 4.24535 4.01530
# Velocity P-wave (km/s) = 7.03319 9.09831 8.13158
#
# Compressibility (1/GPa) = 0.01790429
#
# Stress axis : x y z
#
# Youngs Moduli (GPa) = 103.21253 27.60224 111.94666
#
# Poissons Ratio (x) = 0.20419 0.30022
# Poissons Ratio (y) = 0.76354 0.93964
# Poissons Ratio (z) = 0.27680 0.23168
#
# Static dielectric constant tensor:
#      x y z
#    x 1.583680 0.000000 0.000000 
#    y 0.000000 1.619710 0.000000 
#    z 0.000000 0.000000 1.632070 
# 
# From -- ./inp_files/19578.got.cif
#   From: 2010.05.17/outbox.cif.g08.bks.cpg/sg62_10_cif.got.tgz:19578.got - 2010.06.03 15:25:27.
