data_PCOD9464844
_publ_section_title
;
Structure prediction by ZEFSAII (Michael W. Deem and Ramdas Pophale) SiO2 
 PCOD9464844
Probable space group: P N M A
;
_chemical_formula_sum "Si O2"
_cell_formula_units_Z 48
_cell_length_a 5.364752
_cell_length_b 23.214097
_cell_length_c 16.373367
_cell_angle_alpha 90.000000
_cell_angle_beta 90.000000
_cell_angle_gamma 90.000000
_cell_volume 2039.104305
_symmetry_space_group_name_H-M "P N M A"
_symmetry_group_IT_number 62
_symmetry_cell_setting 'orthorhombic'
loop_
_space_group_symop_operation_xyz
x,y,z
1/2-x,-y,1/2+z
1/2+x,1/2-y,1/2-z
-x,1/2+y,-z
-x,-y,-z
1/2+x,y,1/2-z
1/2-x,1/2+y,1/2+z
x,1/2-y,z
loop_
_atom_site_type_symbol
_atom_site_label
_atom_site_fract_x
_atom_site_fract_y
_atom_site_fract_z
Si Si1 0.945141 0.817042 0.284069
Si Si2 0.585767 0.539964 0.622598
Si Si3 0.974905 0.624878 0.566463
Si Si4 0.345251 0.313400 0.551959
Si Si5 0.833828 0.576300 0.049480
Si Si6 0.681421 0.366167 0.295371
O O1 0.710120 0.843822 0.236892
O O2 0.971668 0.750000 0.256081
O O3 0.864972 0.815690 0.377810
O O4 0.832909 0.579856 0.625197
O O5 0.645882 0.472754 0.617614
O O6 0.477031 0.554912 0.532559
O O7 0.388281 0.565718 0.687144
O O8 0.788056 0.672607 0.533452
O O9 0.061026 0.588776 0.486900
O O10 0.211723 0.650201 0.614779
O O11 0.459579 0.250000 0.553087
O O12 0.539829 0.363436 0.570813
O O13 0.413558 0.346545 0.261193
#
# Coordination Sequence:
#
# PCOD9464844 Si02
#       6
#     8   8   8   8   8   8
#     4   9  19  36  58  80 111 159 205 249 307 367
#     4   9  18  36  58  89 120 162 207 259 320 398
#     4  10  20  36  64  93 123 170 218 271 331 393
#     4  10  22  38  59  91 127 169 222 273 319 384
#     4   9  19  34  59  88 120 161 208 262 319 381
#     4  11  21  38  63  93 130 168 209 262 332 400
#
# _framework density 23.539747999999999
#
# number of rings (size 3 to 8) (size 9 to 14) (size 15 to 20)
#    0.000    2.333    1.667    0.500    2.333    2.000 
#    0.000    1.667    0.000    1.000    0.000    0.000 
#    0.000    0.000    0.000    0.000    0.000    0.000 
#
# Total GULP energy -267514.707063 kJ/mol
# GULP energy per Si atom -5573.223064 kJ/mol
# Density = 2.348617 g / cm^3
# Si number density = 23.539748 Si / 1000 Ang^3
#
#
#
# Elastic Constant Matrix: (Units=GPa)
#
#
# Indices 1 2 3 4 5 6 
#
# 1 122.1512 19.0567 31.9834 0.0000 0.0000 0.0000
# 2 19.0567 84.2262 19.8077 0.0000 0.0000 0.0000
# 3 31.9834 19.8077 60.6443 0.0000 0.0000 0.0000
# 4 0.0000 0.0000 0.0000 13.9763 0.0000 0.0000
# 5 0.0000 0.0000 0.0000 0.0000 47.7441 0.0000
# 6 0.0000 0.0000 0.0000 0.0000 0.0000 13.3149
#
#
#
# Elastic Compliance Matrix: (Units=1/GPa)
#
#
# Indices 1 2 3 4 5 6 
#
# 1 0.009585 -0.001061 -0.004708 0.000000 0.000000 0.000000
# 2 -0.001061 0.012978 -0.003679 0.000000 0.000000 0.000000
# 3 -0.004708 -0.003679 0.020174 0.000000 0.000000 0.000000
# 4 0.000000 0.000000 0.000000 0.071550 0.000000 0.000000
# 5 0.000000 0.000000 0.000000 0.000000 0.020945 0.000000
# 6 0.000000 0.000000 0.000000 0.000000 0.000000 0.075104
#
#
# Mechanical properties :
#
#
# Convention : Reuss Voigt Hill
#
# Bulk Modulus (GPa) = 41.94677 45.41302 43.67989
# Shear Modulus (GPa) = 21.08099 28.08533 24.58316
#
# Velocity S-wave (km/s) = 2.99582 3.45788 3.23511
# Velocity P-wave (km/s) = 5.46121 5.93940 5.70532
#
# Compressibility (1/GPa) = 0.02383974
#
# Stress axis : x y z
#
# Youngs Moduli (GPa) = 104.32995 77.05240 49.56760
#
# Poissons Ratio (x) = 0.08178 0.23338
# Poissons Ratio (y) = 0.11073 0.18237
# Poissons Ratio (z) = 0.49122 0.28349
#
# Static dielectric constant tensor:
#      x y z
#    x 1.987950 0.000000 0.000000 
#    y 0.000000 1.879100 0.000000 
#    z 0.000000 0.000000 1.961990 
# 
# From -- ./inp_files/25308.got.cif
#   From: 2010.05.17/outbox.cif.g08.bks.cpg/sg62_13_cif.got.tgz:25308.got - 2010.06.03 15:25:27.
