data_PCOD9464265
_publ_section_title
;
Structure prediction by ZEFSAII (Michael W. Deem and Ramdas Pophale) SiO2 
 PCOD9464265
Probable space group: P N M A
;
_chemical_formula_sum "Si O2"
_cell_formula_units_Z 48
_cell_length_a 9.637679
_cell_length_b 17.519543
_cell_length_c 14.379813
_cell_angle_alpha 90.000000
_cell_angle_beta 90.000000
_cell_angle_gamma 90.000000
_cell_volume 2427.998807
_symmetry_space_group_name_H-M "P N M A"
_symmetry_group_IT_number 62
_symmetry_cell_setting 'orthorhombic'
loop_
_space_group_symop_operation_xyz
x,y,z
1/2-x,-y,1/2+z
1/2+x,1/2-y,1/2-z
-x,1/2+y,-z
-x,-y,-z
1/2+x,y,1/2-z
1/2-x,1/2+y,1/2+z
x,1/2-y,z
loop_
_atom_site_type_symbol
_atom_site_label
_atom_site_fract_x
_atom_site_fract_y
_atom_site_fract_z
Si Si1 0.791298 0.578176 0.843383
Si Si2 0.320457 0.107029 0.647346
Si Si3 0.573696 0.162757 0.979422
Si Si4 0.531814 0.075559 0.164208
Si Si5 0.147996 0.590128 0.355466
Si Si6 0.077404 0.422877 0.966956
O O1 0.798087 0.485263 0.851382
O O2 0.629853 0.596906 0.830756
O O3 0.882445 0.600602 0.754500
O O4 0.856975 0.610240 0.938488
O O5 0.193192 0.145209 0.594954
O O6 0.332641 0.128581 0.755340
O O7 0.460768 0.122776 0.589619
O O8 0.577585 0.250000 0.008716
O O9 0.429008 0.142788 0.929498
O O10 0.591205 0.109567 0.069042
O O11 0.551073 0.984143 0.158443
O O12 0.294837 0.562562 0.397023
O O13 0.000000 0.500000 0.000000
#
# Coordination Sequence:
#
# PCOD9464265 Si02
#       6
#     8   8   8   8   8   8
#     4  10  21  35  64  94 121 152 202 269 310 361
#     4  10  22  36  61  93 121 156 202 260 316 373
#     4  12  25  42  61  88 130 174 208 252 320 388
#     4  11  22  38  64  95 120 159 211 263 318 364
#     4  11  21  40  65  92 125 160 210 265 315 374
#     4  10  20  34  59  93 123 153 199 261 320 362
#
# _framework density 19.769368
#
# number of rings (size 3 to 8) (size 9 to 14) (size 15 to 20)
#    0.000    1.333    3.333    3.500   14.000    0.667 
#    0.000    1.667    0.000    0.000    0.000    0.000 
#    0.000    0.000    0.000    0.000    0.000    0.000 
#
# Total GULP energy -268081.301248 kJ/mol
# GULP energy per Si atom -5585.027109 kJ/mol
# Density = 1.972437 g / cm^3
# Si number density = 19.769368 Si / 1000 Ang^3
#
#
#
# Elastic Constant Matrix: (Units=GPa)
#
#
# Indices 1 2 3 4 5 6 
#
# 1 123.1680 -1.3096 30.2768 0.0000 0.0000 0.0000
# 2 -1.3096 7.8907 -4.6764 0.0000 0.0000 0.0000
# 3 30.2768 -4.6764 96.0510 0.0000 0.0000 0.0000
# 4 0.0000 0.0000 0.0000 -0.6833 0.0000 0.0000
# 5 0.0000 0.0000 0.0000 0.0000 39.3378 0.0000
# 6 0.0000 0.0000 0.0000 0.0000 0.0000 4.9901
#
#
#
# Elastic Compliance Matrix: (Units=1/GPa)
#
#
# Indices 1 2 3 4 5 6 
#
# 1 0.008801 -0.000189 -0.002783 0.000000 0.000000 0.000000
# 2 -0.000189 0.130500 0.006413 0.000000 0.000000 0.000000
# 3 -0.002783 0.006413 0.011601 0.000000 0.000000 0.000000
# 4 0.000000 0.000000 0.000000 -1.463572 0.000000 0.000000
# 5 0.000000 0.000000 0.000000 0.000000 0.025421 0.000000
# 6 0.000000 0.000000 0.000000 0.000000 0.000000 0.200395
#
#
# Mechanical properties :
#
#
# Convention : Reuss Voigt Hill
#
# Bulk Modulus (GPa) = 6.33779 30.63238 18.48509
# Shear Modulus (GPa) = -4.80243 22.25019 8.72388
#
# Velocity S-wave (km/s) = -1.56029 3.35847 2.10295
# Velocity P-wave (km/s) = 0.18215 5.52880 3.90733
#
# Compressibility (1/GPa) = 0.15778380
#
# Stress axis : x y z
#
# Youngs Moduli (GPa) = 113.62069 7.66282 86.20118
#
# Poissons Ratio (x) = 0.00145 0.23994
# Poissons Ratio (y) = 0.02147 -0.55282
# Poissons Ratio (z) = 0.31626 -0.04914
#
# Static dielectric constant tensor:
#      x y z
#    x 1.704010 0.000000 0.000000 
#    y 0.000000 1.667540 0.000000 
#    z 0.000000 0.000000 1.704030 
# 
# From -- ./inp_files/16916.got.cif
#   From: 2010.05.17/outbox.cif.g08.bks.cpg/sg62_9_cif.got.tgz:16916.got - 2010.06.03 15:25:27.
