data_PCOD9464027
_publ_section_title
;
Structure prediction by ZEFSAII (Michael W. Deem and Ramdas Pophale) SiO2 
 PCOD9464027
Probable space group: P N M A
;
_chemical_formula_sum "Si O2"
_cell_formula_units_Z 40
_cell_length_a 8.093640
_cell_length_b 7.443489
_cell_length_c 24.361077
_cell_angle_alpha 90.000000
_cell_angle_beta 90.000000
_cell_angle_gamma 90.000000
_cell_volume 1467.631143
_symmetry_space_group_name_H-M "P N M A"
_symmetry_group_IT_number 62
_symmetry_cell_setting 'orthorhombic'
loop_
_space_group_symop_operation_xyz
x,y,z
1/2-x,-y,1/2+z
1/2+x,1/2-y,1/2-z
-x,1/2+y,-z
-x,-y,-z
1/2+x,y,1/2-z
1/2-x,1/2+y,1/2+z
x,1/2-y,z
loop_
_atom_site_type_symbol
_atom_site_label
_atom_site_fract_x
_atom_site_fract_y
_atom_site_fract_z
Si Si1 0.325903 0.456224 0.861900
Si Si2 0.149042 0.531806 0.566772
Si Si3 0.836044 0.534801 0.034996
Si Si4 0.854420 0.969552 0.834038
Si Si5 0.046561 0.957365 0.736289
O O1 0.291688 0.250000 0.849785
O O2 0.487045 0.465167 0.902203
O O3 0.186448 0.536365 0.902893
O O4 0.388834 0.539394 0.805011
O O5 0.141528 0.750000 0.567242
O O6 0.189652 0.469312 0.505590
O O7 0.306388 0.476470 0.604807
O O8 0.821025 0.750000 0.039884
O O9 0.000000 0.500000 0.000000
O O10 0.857493 0.750000 0.834092
O O11 0.004666 0.032934 0.796109
O O12 0.696268 0.034397 0.798361
O O13 0.087481 0.750000 0.744719
#
# Coordination Sequence:
#
# PCOD9464027 Si02
#       5
#     8   8   8   8   8
#     4  10  20  34  51  75 104 134 167 204 246 301
#     4   9  18  35  56  76  97 130 173 211 246 293
#     4  10  22  36  52  76 104 131 165 207 253 300
#     4   8  15  28  49  73  94 120 164 210 243 279
#     4   9  17  31  50  72  97 129 166 206 247 289
#
# _framework density 27.254805999999999
#
# number of rings (size 3 to 8) (size 9 to 14) (size 15 to 20)
#    0.000    2.800    0.000    2.400    0.000    4.000 
#    0.000    8.000    0.000    0.000    0.000    0.000 
#    0.000    0.000    0.000    0.000    0.000    0.000 
#
# Total GULP energy -223629.322319 kJ/mol
# GULP energy per Si atom -5590.733058 kJ/mol
# Density = 2.719277 g / cm^3
# Si number density = 27.254806 Si / 1000 Ang^3
#
#
#
# Elastic Constant Matrix: (Units=GPa)
#
#
# Indices 1 2 3 4 5 6 
#
# 1 71.6960 2.8164 12.3180 0.0000 0.0000 0.0000
# 2 2.8164 108.1891 11.8153 0.0000 0.0000 0.0000
# 3 12.3180 11.8153 181.7910 0.0000 0.0000 0.0000
# 4 0.0000 0.0000 0.0000 12.9471 0.0000 0.0000
# 5 0.0000 0.0000 0.0000 0.0000 57.6669 0.0000
# 6 0.0000 0.0000 0.0000 0.0000 0.0000 21.2255
#
#
#
# Elastic Compliance Matrix: (Units=1/GPa)
#
#
# Indices 1 2 3 4 5 6 
#
# 1 0.014120 -0.000265 -0.000940 0.000000 0.000000 0.000000
# 2 -0.000265 0.009314 -0.000587 0.000000 0.000000 0.000000
# 3 -0.000940 -0.000587 0.005603 0.000000 0.000000 0.000000
# 4 0.000000 0.000000 0.000000 0.077237 0.000000 0.000000
# 5 0.000000 0.000000 0.000000 0.000000 0.017341 0.000000
# 6 0.000000 0.000000 0.000000 0.000000 0.000000 0.047113
#
#
# Mechanical properties :
#
#
# Convention : Reuss Voigt Hill
#
# Bulk Modulus (GPa) = 39.28865 46.17504 42.73185
# Shear Modulus (GPa) = 27.35296 40.68300 34.01798
#
# Velocity S-wave (km/s) = 3.17140 3.86773 3.53674
# Velocity P-wave (km/s) = 5.27797 6.07655 5.69129
#
# Compressibility (1/GPa) = 0.02545264
#
# Stress axis : x y z
#
# Youngs Moduli (GPa) = 70.82349 107.36383 178.48663
#
# Poissons Ratio (x) = 0.02845 0.16769
# Poissons Ratio (y) = 0.01877 0.10484
# Poissons Ratio (z) = 0.06654 0.06307
#
# Static dielectric constant tensor:
#      x y z
#    x 2.277330 0.000000 0.000000 
#    y 0.000000 1.987740 0.000000 
#    z 0.000000 0.000000 2.116620 
# 
# From -- ./inp_files/30663.got.cif
#   From: 2010.05.17/outbox.cif.g08.bks.cpg/sg62_16_cif.got.tgz:30663.got - 2010.06.03 15:25:27.
