data_PCOD9464106
_publ_section_title
;
Structure prediction by ZEFSAII (Michael W. Deem and Ramdas Pophale) SiO2 
 PCOD9464106
Probable space group: P N M A
;
_chemical_formula_sum "Si O2"
_cell_formula_units_Z 48
_cell_length_a 23.927269
_cell_length_b 7.433094
_cell_length_c 11.209465
_cell_angle_alpha 90.000000
_cell_angle_beta 90.000000
_cell_angle_gamma 90.000000
_cell_volume 1993.644149
_symmetry_space_group_name_H-M "P N M A"
_symmetry_group_IT_number 62
_symmetry_cell_setting 'orthorhombic'
loop_
_space_group_symop_operation_xyz
x,y,z
1/2-x,-y,1/2+z
1/2+x,1/2-y,1/2-z
-x,1/2+y,-z
-x,-y,-z
1/2+x,y,1/2-z
1/2-x,1/2+y,1/2+z
x,1/2-y,z
loop_
_atom_site_type_symbol
_atom_site_label
_atom_site_fract_x
_atom_site_fract_y
_atom_site_fract_z
Si Si1 0.308226 0.529686 0.327464
Si Si2 0.981529 0.965928 0.810723
Si Si3 0.318632 0.466595 0.795413
Si Si4 0.380389 0.958363 0.548503
Si Si5 0.574267 0.459273 0.068863
Si Si6 0.088999 0.464002 0.687606
O O1 0.306428 0.750000 0.329713
O O2 0.244635 0.470587 0.314110
O O3 0.340490 0.466004 0.446192
O O4 0.349250 0.472797 0.220681
O O5 0.974868 0.750000 0.812052
O O6 0.941490 0.035910 0.916080
O O7 0.956384 0.038107 0.684772
O O8 0.046807 0.003747 0.797302
O O9 0.319334 0.250000 0.791698
O O10 0.345727 0.533863 0.672109
O O11 0.360191 0.527631 0.899839
O O12 0.389500 0.750000 0.515245
O O13 0.558122 0.250000 0.065209
O O14 0.565948 0.538838 0.937530
O O15 0.092475 0.250000 0.672444
#
# Coordination Sequence:
#
# PCOD9464106 Si02
#       6
#     8   8   8   8   8   8
#     4   9  20  36  53  77 108 141 174 214 265 313
#     4   9  18  33  52  76 105 139 178 218 259 308
#     4  10  20  34  55  81 105 133 177 226 259 302
#     4   9  19  38  57  73 104 145 174 207 267 323
#     4   9  19  35  55  78 107 144 175 211 268 318
#     4  10  20  34  54  79 107 141 178 215 260 312
#
# _framework density 24.076512999999998
#
# number of rings (size 3 to 8) (size 9 to 14) (size 15 to 20)
#    0.000    2.667    0.000    2.000    2.333    4.000 
#    0.000    3.333    0.000    0.000    0.000    0.000 
#    0.000    0.000    0.000    0.000    0.000    0.000 
#
# Total GULP energy -268103.955996 kJ/mol
# GULP energy per Si atom -5585.499083 kJ/mol
# Density = 2.402171 g / cm^3
# Si number density = 24.076513 Si / 1000 Ang^3
#
#
#
# Elastic Constant Matrix: (Units=GPa)
#
#
# Indices 1 2 3 4 5 6 
#
# 1 127.8120 -5.5083 -9.4296 0.0000 0.0000 0.0000
# 2 -5.5083 86.1469 -1.2211 0.0000 0.0000 0.0000
# 3 -9.4296 -1.2211 58.8223 0.0000 0.0000 0.0000
# 4 0.0000 0.0000 0.0000 81.1799 0.0000 0.0000
# 5 0.0000 0.0000 0.0000 0.0000 23.7795 0.0000
# 6 0.0000 0.0000 0.0000 0.0000 0.0000 20.8593
#
#
#
# Elastic Compliance Matrix: (Units=1/GPa)
#
#
# Indices 1 2 3 4 5 6 
#
# 1 0.007941 0.000526 0.001284 0.000000 0.000000 0.000000
# 2 0.000526 0.011646 0.000326 0.000000 0.000000 0.000000
# 3 0.001284 0.000326 0.017213 0.000000 0.000000 0.000000
# 4 0.000000 0.000000 0.000000 0.012318 0.000000 0.000000
# 5 0.000000 0.000000 0.000000 0.000000 0.042053 0.000000
# 6 0.000000 0.000000 0.000000 0.000000 0.000000 0.047940
#
#
# Mechanical properties :
#
#
# Convention : Reuss Voigt Hill
#
# Bulk Modulus (GPa) = 24.34703 26.71813 25.53258
# Shear Modulus (GPa) = 33.66296 44.42640 39.04468
#
# Velocity S-wave (km/s) = 3.74326 4.30026 4.03139
# Velocity P-wave (km/s) = 5.36815 5.98144 5.68307
#
# Compressibility (1/GPa) = 0.04107277
#
# Stress axis : x y z
#
# Youngs Moduli (GPa) = 125.92257 85.86392 58.09574
#
# Poissons Ratio (x) = -0.04516 -0.07459
# Poissons Ratio (y) = -0.06623 -0.01894
# Poissons Ratio (z) = -0.16168 -0.02800
#
# Static dielectric constant tensor:
#      x y z
#    x 1.917740 0.000000 0.000000 
#    y 0.000000 1.881170 0.000000 
#    z 0.000000 0.000000 1.935180 
# 
# From -- ./inp_files/15110.got.cif
#   From: 2010.05.17/outbox.cif.g08.bks.cpg/sg62_8_cif.got.tgz:15110.got - 2010.06.03 15:25:27.
