data_PCOD9464113
_publ_section_title
;
Structure prediction by ZEFSAII (Michael W. Deem and Ramdas Pophale) SiO2 
 PCOD9464113
Probable space group: P N M A
;
_chemical_formula_sum "Si O2"
_cell_formula_units_Z 64
_cell_length_a 22.256689
_cell_length_b 7.739426
_cell_length_c 17.440727
_cell_angle_alpha 90.000000
_cell_angle_beta 90.000000
_cell_angle_gamma 90.000000
_cell_volume 3004.234945
_symmetry_space_group_name_H-M "P N M A"
_symmetry_group_IT_number 62
_symmetry_cell_setting 'orthorhombic'
loop_
_space_group_symop_operation_xyz
x,y,z
1/2-x,-y,1/2+z
1/2+x,1/2-y,1/2-z
-x,1/2+y,-z
-x,-y,-z
1/2+x,y,1/2-z
1/2-x,1/2+y,1/2+z
x,1/2-y,z
loop_
_atom_site_type_symbol
_atom_site_label
_atom_site_fract_x
_atom_site_fract_y
_atom_site_fract_z
Si Si1 0.556288 0.039665 0.606130
Si Si2 0.624306 0.040702 0.029727
Si Si3 0.568593 0.547568 0.323071
Si Si4 0.167293 0.547517 0.786136
Si Si5 0.243918 0.541793 0.924317
Si Si6 0.634079 0.455437 0.466488
Si Si7 0.464785 0.547162 0.841214
Si Si8 0.098908 0.957324 0.645825
O O1 0.557683 0.250000 0.606955
O O2 0.490833 0.979842 0.632520
O O3 0.580452 0.980880 0.523071
O O4 0.605390 0.971114 0.666091
O O5 0.624834 0.250000 0.034120
O O6 0.689995 0.978143 0.055495
O O7 0.573497 0.974574 0.088236
O O8 0.611321 0.992108 0.942593
O O9 0.559954 0.750000 0.310959
O O10 0.623561 0.521494 0.380951
O O11 0.570313 0.468318 0.238825
O O12 0.182229 0.750000 0.776724
O O13 0.217271 0.472855 0.843680
O O14 0.150236 0.473060 0.703208
O O15 0.246314 0.750000 0.918579
O O16 0.195755 0.501961 0.990891
O O17 0.630410 0.250000 0.463241
O O18 0.472719 0.750000 0.857471
O O19 0.532221 0.474114 0.833818
O O20 0.098440 0.750000 0.657885
#
# Coordination Sequence:
#
# PCOD9464113 Si02
#       8
#     8   8   8   8   8   8   8   8
#     4   9  18  31  50  79 112 144 183 226 275 330
#     4  10  22  39  59  81 111 148 185 233 284 337
#     4  11  21  33  52  81 116 149 183 229 282 335
#     4   9  17  32  56  81 108 145 182 227 278 329
#     4   9  19  38  58  78 109 146 187 228 277 333
#     4  10  20  34  54  80 110 148 188 228 274 333
#     4  10  21  38  57  82 113 147 189 235 288 340
#     4  10  20  35  58  86 113 142 187 237 282 339
#
# _framework density 21.303260999999999
#
# number of rings (size 3 to 8) (size 9 to 14) (size 15 to 20)
#    0.000    2.250    1.250    1.500    0.000    3.000 
#    2.250    0.000    0.000    0.000    0.000    0.000 
#    0.000    0.000    0.000    0.000    0.000    0.000 
#
# Total GULP energy -357228.548609 kJ/mol
# GULP energy per Si atom -5581.696072 kJ/mol
# Density = 2.125477 g / cm^3
# Si number density = 21.303261 Si / 1000 Ang^3
#
#
#
# Elastic Constant Matrix: (Units=GPa)
#
#
# Indices 1 2 3 4 5 6 
#
# 1 47.9688 -0.7702 37.4913 0.0000 0.0000 0.0000
# 2 -0.7702 27.3507 -8.9275 0.0000 0.0000 0.0000
# 3 37.4913 -8.9275 141.6552 0.0000 0.0000 0.0000
# 4 0.0000 0.0000 0.0000 16.9082 0.0000 0.0000
# 5 0.0000 0.0000 0.0000 0.0000 9.0700 0.0000
# 6 0.0000 0.0000 0.0000 0.0000 0.0000 10.9586
#
#
#
# Elastic Compliance Matrix: (Units=1/GPa)
#
#
# Indices 1 2 3 4 5 6 
#
# 1 0.026349 -0.001567 -0.007073 0.000000 0.000000 0.000000
# 2 -0.001567 0.037423 0.002773 0.000000 0.000000 0.000000
# 3 -0.007073 0.002773 0.009106 0.000000 0.000000 0.000000
# 4 0.000000 0.000000 0.000000 0.059143 0.000000 0.000000
# 5 0.000000 0.000000 0.000000 0.000000 0.110253 0.000000
# 6 0.000000 0.000000 0.000000 0.000000 0.000000 0.091252
#
#
# Mechanical properties :
#
#
# Convention : Reuss Voigt Hill
#
# Bulk Modulus (GPa) = 16.35409 30.28466 23.31938
# Shear Modulus (GPa) = 13.67461 19.99945 16.83703
#
# Velocity S-wave (km/s) = 2.53633 3.06730 2.81437
# Velocity P-wave (km/s) = 4.03370 5.17603 4.64015
#
# Compressibility (1/GPa) = 0.06114678
#
# Stress axis : x y z
#
# Youngs Moduli (GPa) = 37.95148 26.72139 109.81751
#
# Poissons Ratio (x) = 0.04186 0.77669
# Poissons Ratio (y) = 0.05945 -0.30454
# Poissons Ratio (z) = 0.26841 -0.07410
#
# Static dielectric constant tensor:
#      x y z
#    x 1.763330 0.000000 0.000000 
#    y 0.000000 1.766860 0.000000 
#    z 0.000000 0.000000 1.777400 
# 
# From -- ./inp_files/20959.got.cif
#   From: 2010.05.17/outbox.cif.g08.bks.cpg/sg62_11_cif.got.tgz:20959.got - 2010.06.03 15:25:27.
