data_PCOD9464090
_publ_section_title
;
Structure prediction by ZEFSAII (Michael W. Deem and Ramdas Pophale) SiO2 
 PCOD9464090
Probable space group: P N M A
;
_chemical_formula_sum "Si O2"
_cell_formula_units_Z 56
_cell_length_a 14.906183
_cell_length_b 8.977281
_cell_length_c 21.615663
_cell_angle_alpha 90.000000
_cell_angle_beta 90.000000
_cell_angle_gamma 90.000000
_cell_volume 2892.543034
_symmetry_space_group_name_H-M "P N M A"
_symmetry_group_IT_number 62
_symmetry_cell_setting 'orthorhombic'
loop_
_space_group_symop_operation_xyz
x,y,z
1/2-x,-y,1/2+z
1/2+x,1/2-y,1/2-z
-x,1/2+y,-z
-x,-y,-z
1/2+x,y,1/2-z
1/2-x,1/2+y,1/2+z
x,1/2-y,z
loop_
_atom_site_type_symbol
_atom_site_label
_atom_site_fract_x
_atom_site_fract_y
_atom_site_fract_z
Si Si1 0.789542 0.572580 0.106256
Si Si2 0.510913 0.069325 0.567453
Si Si3 0.569902 0.422427 0.775642
Si Si4 0.525097 0.574868 0.901878
Si Si5 0.130558 0.925841 0.479956
Si Si6 0.598270 0.924292 0.316304
Si Si7 0.750844 0.573947 0.733522
O O1 0.790734 0.750000 0.118197
O O2 0.729759 0.545505 0.045314
O O3 0.742956 0.496318 0.164992
O O4 0.891985 0.524640 0.095417
O O5 0.510768 0.250000 0.563722
O O6 0.432500 0.025169 0.615451
O O7 0.500000 0.000000 0.500000
O O8 0.598642 0.250000 0.778020
O O9 0.532878 0.476747 0.841147
O O10 0.491272 0.433975 0.725400
O O11 0.653699 0.523394 0.757604
O O12 0.520635 0.750000 0.886738
O O13 0.438516 0.525011 0.940939
O O14 0.609350 0.549003 0.948051
O O15 0.110514 0.750000 0.468374
O O16 0.624266 0.750000 0.319433
O O17 0.675263 0.012772 0.281011
O O18 0.757974 0.750000 0.729152
#
# Coordination Sequence:
#
# PCOD9464090 Si02
#       7
#     8   8   8   8   8   8   8
#     4  10  20  40  63  84 115 160 209 247 300 374
#     4  10  22  41  64  90 120 160 206 256 310 369
#     4  11  22  40  63  85 117 160 201 243 298 367
#     4  10  20  34  53  86 125 155 196 250 303 353
#     4   9  19  35  57  82 115 160 201 242 298 364
#     4  10  22  42  64  87 121 164 208 249 305 377
#     4  12  25  38  60  93 123 153 199 258 314 359
#
# _framework density 19.360126999999999
#
# number of rings (size 3 to 8) (size 9 to 14) (size 15 to 20)
#    0.000    1.714    1.429    3.000    0.000    8.000 
#    0.000    1.429    0.000    0.000    0.000    0.000 
#    0.000    0.000    0.000    0.000    0.000    0.000 
#
# Total GULP energy -312832.648177 kJ/mol
# GULP energy per Si atom -5586.297289 kJ/mol
# Density = 1.931606 g / cm^3
# Si number density = 19.360127 Si / 1000 Ang^3
#
#
#
# Elastic Constant Matrix: (Units=GPa)
#
#
# Indices 1 2 3 4 5 6 
#
# 1 24.8898 7.1249 -9.8172 0.0000 0.0000 0.0000
# 2 7.1249 38.2922 19.1232 0.0000 0.0000 0.0000
# 3 -9.8172 19.1232 88.3748 0.0000 0.0000 0.0000
# 4 0.0000 0.0000 0.0000 25.3878 0.0000 0.0000
# 5 0.0000 0.0000 0.0000 0.0000 26.5153 0.0000
# 6 0.0000 0.0000 0.0000 0.0000 0.0000 16.3662
#
#
#
# Elastic Compliance Matrix: (Units=1/GPa)
#
#
# Indices 1 2 3 4 5 6 
#
# 1 0.046961 -0.012717 0.007969 0.000000 0.000000 0.000000
# 2 -0.012717 0.032723 -0.008494 0.000000 0.000000 0.000000
# 3 0.007969 -0.008494 0.014039 0.000000 0.000000 0.000000
# 4 0.000000 0.000000 0.000000 0.039389 0.000000 0.000000
# 5 0.000000 0.000000 0.000000 0.000000 0.037714 0.000000
# 6 0.000000 0.000000 0.000000 0.000000 0.000000 0.061101
#
#
# Mechanical properties :
#
#
# Convention : Reuss Voigt Hill
#
# Bulk Modulus (GPa) = 14.87266 20.49094 17.68180
# Shear Modulus (GPa) = 17.80478 22.66226 20.23352
#
# Velocity S-wave (km/s) = 3.03588 3.42506 3.23633
# Velocity P-wave (km/s) = 4.47075 5.12333 4.80812
#
# Compressibility (1/GPa) = 0.06723747
#
# Stress axis : x y z
#
# Youngs Moduli (GPa) = 21.29447 30.55962 71.23249
#
# Poissons Ratio (x) = 0.38863 -0.56762
# Poissons Ratio (y) = 0.27081 0.60502
# Poissons Ratio (z) = -0.16969 0.25956
#
# Static dielectric constant tensor:
#      x y z
#    x 1.675770 0.000000 0.000000 
#    y 0.000000 1.645980 0.000000 
#    z 0.000000 0.000000 1.681640 
# 
# From -- ./inp_files/27216.got.cif
#   From: 2010.05.17/outbox.cif.g08.bks.cpg/sg62_14_cif.got.tgz:27216.got - 2010.06.03 15:25:27.
