data_PCOD9464072
_publ_section_title
;
Structure prediction by ZEFSAII (Michael W. Deem and Ramdas Pophale) SiO2 
 PCOD9464072
Probable space group: P N M A
;
_chemical_formula_sum "Si O2"
_cell_formula_units_Z 40
_cell_length_a 18.370938
_cell_length_b 8.622212
_cell_length_c 14.033637
_cell_angle_alpha 90.000000
_cell_angle_beta 90.000000
_cell_angle_gamma 90.000000
_cell_volume 2222.901747
_symmetry_space_group_name_H-M "P N M A"
_symmetry_group_IT_number 62
_symmetry_cell_setting 'orthorhombic'
loop_
_space_group_symop_operation_xyz
x,y,z
1/2-x,-y,1/2+z
1/2+x,1/2-y,1/2-z
-x,1/2+y,-z
-x,-y,-z
1/2+x,y,1/2-z
1/2-x,1/2+y,1/2+z
x,1/2-y,z
loop_
_atom_site_type_symbol
_atom_site_label
_atom_site_fract_x
_atom_site_fract_y
_atom_site_fract_z
Si Si1 0.030297 0.435984 0.704857
Si Si2 0.526314 0.063889 0.399326
Si Si3 0.872559 0.436894 0.626970
Si Si4 0.834553 0.062131 0.413841
Si Si5 0.183276 0.063094 0.179343
O O1 0.033276 0.250000 0.707347
O O2 0.100250 0.501376 0.651511
O O3 0.021342 0.499868 0.811697
O O4 0.956169 0.482889 0.649096
O O5 0.523175 0.250000 0.399545
O O6 0.609683 0.015622 0.376098
O O7 0.500000 0.000000 0.500000
O O8 0.869469 0.250000 0.629750
O O9 0.847454 0.489017 0.522773
O O10 0.824507 0.501298 0.713405
O O11 0.836088 0.250000 0.412983
O O12 0.756701 0.011018 0.372566
O O13 0.183772 0.250000 0.182432
#
# Coordination Sequence:
#
# PCOD9464072 Si02
#       5
#     8   8   8   8   8
#     4  10  20  34  53  79 105 136 179 219 258 314
#     4  10  20  36  56  78 107 143 179 219 263 314
#     4   9  19  35  54  75 105 140 173 212 261 312
#     4  10  20  35  54  78 106 137 172 216 267 313
#     4   9  20  36  53  76 107 138 172 214 263 313
#
# _framework density 17.994498
#
# number of rings (size 3 to 8) (size 9 to 14) (size 15 to 20)
#    0.000    2.400    0.000    1.800    0.000    4.800 
#    0.000    2.000    0.000    0.000    0.000    0.000 
#    0.000    0.000    0.000    0.000    0.000    0.000 
#
# Total GULP energy -223267.135529 kJ/mol
# GULP energy per Si atom -5581.678388 kJ/mol
# Density = 1.795354 g / cm^3
# Si number density = 17.994498 Si / 1000 Ang^3
#
#
#
# Elastic Constant Matrix: (Units=GPa)
#
#
# Indices 1 2 3 4 5 6 
#
# 1 116.6293 27.2071 121.5344 0.0000 0.0000 0.0000
# 2 27.2071 18.0108 35.4053 0.0000 0.0000 0.0000
# 3 121.5344 35.4053 208.3966 0.0000 0.0000 0.0000
# 4 0.0000 0.0000 0.0000 33.3601 0.0000 0.0000
# 5 0.0000 0.0000 0.0000 0.0000 23.2426 0.0000
# 6 0.0000 0.0000 0.0000 0.0000 0.0000 23.5585
#
#
#
# Elastic Compliance Matrix: (Units=1/GPa)
#
#
# Indices 1 2 3 4 5 6 
#
# 1 0.023716 -0.012968 -0.011628 0.000000 0.000000 0.000000
# 2 -0.012968 0.090454 -0.007805 0.000000 0.000000 0.000000
# 3 -0.011628 -0.007805 0.012906 0.000000 0.000000 0.000000
# 4 0.000000 0.000000 0.000000 0.029976 0.000000 0.000000
# 5 0.000000 0.000000 0.000000 0.000000 0.043024 0.000000
# 6 0.000000 0.000000 0.000000 0.000000 0.000000 0.042448
#
#
# Mechanical properties :
#
#
# Convention : Reuss Voigt Hill
#
# Bulk Modulus (GPa) = 16.05787 79.03672 47.54730
# Shear Modulus (GPa) = 15.24004 26.62490 20.93247
#
# Velocity S-wave (km/s) = 2.91336 3.85075 3.41438
# Velocity P-wave (km/s) = 4.50111 7.98681 6.48263
#
# Compressibility (1/GPa) = 0.06227474
#
# Stress axis : x y z
#
# Youngs Moduli (GPa) = 42.16534 11.05535 77.48483
#
# Poissons Ratio (x) = 0.14336 0.90098
# Poissons Ratio (y) = 0.54679 0.60476
# Poissons Ratio (z) = 0.49029 0.08629
#
# Static dielectric constant tensor:
#      x y z
#    x 1.605150 0.000000 0.000000 
#    y 0.000000 1.610850 0.000000 
#    z 0.000000 0.000000 1.585220 
# 
# From -- ./inp_files/13833.got.cif
#   From: 2010.05.17/outbox.cif.g08.bks.cpg/sg62_7_cif.got.tgz:13833.got - 2010.06.03 15:25:27.
