data_PCOD9464486
_publ_section_title
;
Structure prediction by ZEFSAII (Michael W. Deem and Ramdas Pophale) SiO2 
 PCOD9464486
Probable space group: P N M A
;
_chemical_formula_sum "Si O2"
_cell_formula_units_Z 48
_cell_length_a 22.641564
_cell_length_b 7.730724
_cell_length_c 12.241114
_cell_angle_alpha 90.000000
_cell_angle_beta 90.000000
_cell_angle_gamma 90.000000
_cell_volume 2142.631740
_symmetry_space_group_name_H-M "P N M A"
_symmetry_group_IT_number 62
_symmetry_cell_setting 'orthorhombic'
loop_
_space_group_symop_operation_xyz
x,y,z
1/2-x,-y,1/2+z
1/2+x,1/2-y,1/2-z
-x,1/2+y,-z
-x,-y,-z
1/2+x,y,1/2-z
1/2-x,1/2+y,1/2+z
x,1/2-y,z
loop_
_atom_site_type_symbol
_atom_site_label
_atom_site_fract_x
_atom_site_fract_y
_atom_site_fract_z
Si Si1 0.650165 0.550730 0.510878
Si Si2 0.134051 0.447064 0.581381
Si Si3 0.352895 0.539403 0.837858
Si Si4 0.078340 0.953360 0.797521
Si Si5 0.552325 0.460125 0.344234
Si Si6 0.257597 0.550694 0.667494
O O1 0.670583 0.750000 0.519303
O O2 0.632465 0.477132 0.629023
O O3 0.588640 0.540073 0.443940
O O4 0.697659 0.455653 0.435641
O O5 0.114482 0.250000 0.567481
O O6 0.139991 0.525860 0.460658
O O7 0.090757 0.528901 0.669803
O O8 0.198851 0.453472 0.634476
O O9 0.347982 0.750000 0.841320
O O10 0.409480 0.498425 0.763656
O O11 0.295054 0.481399 0.770459
O O12 0.077154 0.750000 0.823544
O O13 0.014456 0.023129 0.831378
O O14 0.553134 0.250000 0.356372
O O15 0.241014 0.750000 0.689523
#
# Coordination Sequence:
#
# PCOD9464486 Si02
#       6
#     8   8   8   8   8   8
#     4  10  20  35  57  86 116 146 184 236 287 326
#     4  11  23  37  55  83 113 146 188 234 281 333
#     4   8  18  37  58  78 107 144 181 229 283 329
#     4  10  22  37  55  83 118 152 187 230 281 337
#     4   9  18  37  61  82 110 152 193 228 280 339
#     4  10  21  39  60  80 108 148 188 229 285 344
#
# _framework density 22.402356999999999
#
# number of rings (size 3 to 8) (size 9 to 14) (size 15 to 20)
#    0.000    2.333    0.000    3.000    2.333    2.667 
#    0.000    7.500    0.000    0.000    0.000    0.000 
#    0.000    0.000    0.000    0.000    0.000    0.000 
#
# Total GULP energy -268122.458053 kJ/mol
# GULP energy per Si atom -5585.884543 kJ/mol
# Density = 2.235137 g / cm^3
# Si number density = 22.402357 Si / 1000 Ang^3
#
#
#
# Elastic Constant Matrix: (Units=GPa)
#
#
# Indices 1 2 3 4 5 6 
#
# 1 34.1570 -6.6782 -4.5235 0.0000 0.0000 0.0000
# 2 -6.6782 39.3182 -3.1705 0.0000 0.0000 0.0000
# 3 -4.5235 -3.1705 108.9575 0.0000 0.0000 0.0000
# 4 0.0000 0.0000 0.0000 19.8996 0.0000 0.0000
# 5 0.0000 0.0000 0.0000 0.0000 1.3960 0.0000
# 6 0.0000 0.0000 0.0000 0.0000 0.0000 14.6064
#
#
#
# Elastic Compliance Matrix: (Units=1/GPa)
#
#
# Indices 1 2 3 4 5 6 
#
# 1 0.030500 0.005295 0.001420 0.000000 0.000000 0.000000
# 2 0.005295 0.026413 0.000988 0.000000 0.000000 0.000000
# 3 0.001420 0.000988 0.009266 0.000000 0.000000 0.000000
# 4 0.000000 0.000000 0.000000 0.050252 0.000000 0.000000
# 5 0.000000 0.000000 0.000000 0.000000 0.716334 0.000000
# 6 0.000000 0.000000 0.000000 0.000000 0.000000 0.068463
#
#
# Mechanical properties :
#
#
# Convention : Reuss Voigt Hill
#
# Bulk Modulus (GPa) = 12.25712 17.07649 14.66681
# Shear Modulus (GPa) = 5.47636 20.30073 12.88854
#
# Velocity S-wave (km/s) = 1.56520 3.01356 2.40119
# Velocity P-wave (km/s) = 2.95799 4.44386 3.77476
#
# Compressibility (1/GPa) = 0.08158523
#
# Stress axis : x y z
#
# Youngs Moduli (GPa) = 32.78702 37.86081 107.92592
#
# Poissons Ratio (x) = -0.20047 -0.15329
# Poissons Ratio (y) = -0.17360 -0.10667
# Poissons Ratio (z) = -0.04657 -0.03742
#
# Static dielectric constant tensor:
#      x y z
#    x 1.803860 0.000000 0.000000 
#    y 0.000000 1.787450 0.000000 
#    z 0.000000 0.000000 1.852020 
# 
# From -- ./inp_files/15088.got.cif
#   From: 2010.05.17/outbox.cif.g08.bks.cpg/sg62_8_cif.got.tgz:15088.got - 2010.06.03 15:25:27.
