data_PCOD9464020
_publ_section_title
;
Structure prediction by ZEFSAII (Michael W. Deem and Ramdas Pophale) SiO2 
 PCOD9464020
Probable space group: P N M A
;
_chemical_formula_sum "Si O2"
_cell_formula_units_Z 56
_cell_length_a 9.903525
_cell_length_b 10.530915
_cell_length_c 31.147974
_cell_angle_alpha 90.000000
_cell_angle_beta 90.000000
_cell_angle_gamma 90.000000
_cell_volume 3248.521258
_symmetry_space_group_name_H-M "P N M A"
_symmetry_group_IT_number 62
_symmetry_cell_setting 'orthorhombic'
loop_
_space_group_symop_operation_xyz
x,y,z
1/2-x,-y,1/2+z
1/2+x,1/2-y,1/2-z
-x,1/2+y,-z
-x,-y,-z
1/2+x,y,1/2-z
1/2-x,1/2+y,1/2+z
x,1/2-y,z
loop_
_atom_site_type_symbol
_atom_site_label
_atom_site_fract_x
_atom_site_fract_y
_atom_site_fract_z
Si Si1 0.632259 0.103104 0.714461
Si Si2 0.601295 0.896877 0.642767
Si Si3 0.077715 0.397073 0.369663
Si Si4 0.329055 0.113754 0.508164
Si Si5 0.923871 0.890865 0.941542
Si Si6 0.550023 0.603142 0.202018
Si Si7 0.545775 0.393252 0.032857
O O1 0.608007 0.250000 0.700781
O O2 0.554013 0.084491 0.759059
O O3 0.794667 0.087949 0.718159
O O4 0.582217 0.000643 0.679800
O O5 0.581373 0.750000 0.657020
O O6 0.758489 0.907201 0.628739
O O7 0.502001 0.919013 0.602612
O O8 0.047173 0.250000 0.357928
O O9 0.029133 0.500046 0.335277
O O10 0.021045 0.420993 0.417266
O O11 0.323621 0.250000 0.531013
O O12 0.462410 0.112560 0.478858
O O13 0.206442 0.108991 0.475079
O O14 0.325510 0.000123 0.542022
O O15 0.862641 0.750000 0.938535
O O16 0.537253 0.750000 0.186936
O O17 0.495348 0.250000 0.023035
O O18 0.500000 0.500000 0.000000
#
# Coordination Sequence:
#
# PCOD9464020 Si02
#       7
#     8   8   8   8   8   8   8
#     4   9  18  32  50  73 100 128 160 201 245 292
#     4   9  16  29  50  73  97 125 159 199 242 287
#     4   9  17  32  52  71  94 126 163 202 241 283
#     4   9  17  30  46  66  94 126 158 195 242 286
#     4   9  16  28  47  70  95 122 154 196 242 285
#     4   9  18  33  52  74  99 127 161 200 244 293
#     4  10  20  34  50  69  97 131 167 205 244 286
#
# _framework density 17.238613000000001
#
# number of rings (size 3 to 8) (size 9 to 14) (size 15 to 20)
#    0.000    2.857    1.429    0.000    0.000    2.286 
#    0.000    1.429    0.000    5.143    0.000    0.000 
#    0.000    0.000    0.000    0.000    0.000    0.000 
#
# Total GULP energy -311771.062541 kJ/mol
# GULP energy per Si atom -5567.340403 kJ/mol
# Density = 1.719938 g / cm^3
# Si number density = 17.238613 Si / 1000 Ang^3
#
#
#
# Elastic Constant Matrix: (Units=GPa)
#
#
# Indices 1 2 3 4 5 6 
#
# 1 11.0043 28.2743 19.5660 0.0000 0.0000 0.0000
# 2 28.2743 143.6285 107.8304 0.0000 0.0000 0.0000
# 3 19.5660 107.8304 107.0561 0.0000 0.0000 0.0000
# 4 0.0000 0.0000 0.0000 35.2350 0.0000 0.0000
# 5 0.0000 0.0000 0.0000 0.0000 25.5371 0.0000
# 6 0.0000 0.0000 0.0000 0.0000 0.0000 20.0621
#
#
#
# Elastic Compliance Matrix: (Units=1/GPa)
#
#
# Indices 1 2 3 4 5 6 
#
# 1 0.187527 -0.045876 0.011935 0.000000 0.000000 0.000000
# 2 -0.045876 0.039780 -0.031683 0.000000 0.000000 0.000000
# 3 0.011935 -0.031683 0.039072 0.000000 0.000000 0.000000
# 4 0.000000 0.000000 0.000000 0.028381 0.000000 0.000000
# 5 0.000000 0.000000 0.000000 0.000000 0.039159 0.000000
# 6 0.000000 0.000000 0.000000 0.000000 0.000000 0.049845
#
#
# Mechanical properties :
#
#
# Convention : Reuss Voigt Hill
#
# Bulk Modulus (GPa) = 7.40030 63.67005 35.53518
# Shear Modulus (GPa) = 8.92770 23.23472 16.08121
#
# Velocity S-wave (km/s) = 2.27819 3.67526 3.05759
# Velocity P-wave (km/s) = 3.34998 7.41787 5.75531
#
# Compressibility (1/GPa) = 0.13512962
#
# Stress axis : x y z
#
# Youngs Moduli (GPa) = 5.33258 25.13844 25.59398
#
# Poissons Ratio (x) = 1.15326 -0.30546
# Poissons Ratio (y) = 0.24464 0.81089
# Poissons Ratio (z) = -0.06364 0.79646
#
# Static dielectric constant tensor:
#      x y z
#    x 1.605260 0.000000 0.000000 
#    y 0.000000 1.618080 0.000000 
#    z 0.000000 0.000000 1.544590 
# 
# From -- ./inp_files/29398.got.cif
#   From: 2010.05.17/outbox.cif.g08.bks.cpg/sg62_15_cif.got.tgz:29398.got - 2010.06.03 15:25:27.
