data_PCOD9464235
_publ_section_title
;
Structure prediction by ZEFSAII (Michael W. Deem and Ramdas Pophale) SiO2 
 PCOD9464235
Probable space group: P N M A
;
_chemical_formula_sum "Si O2"
_cell_formula_units_Z 40
_cell_length_a 10.527501
_cell_length_b 17.256785
_cell_length_c 8.566419
_cell_angle_alpha 90.000000
_cell_angle_beta 90.000000
_cell_angle_gamma 90.000000
_cell_volume 1556.268376
_symmetry_space_group_name_H-M "P N M A"
_symmetry_group_IT_number 62
_symmetry_cell_setting 'orthorhombic'
loop_
_space_group_symop_operation_xyz
x,y,z
1/2-x,-y,1/2+z
1/2+x,1/2-y,1/2-z
-x,1/2+y,-z
-x,-y,-z
1/2+x,y,1/2-z
1/2-x,1/2+y,1/2+z
x,1/2-y,z
loop_
_atom_site_type_symbol
_atom_site_label
_atom_site_fract_x
_atom_site_fract_y
_atom_site_fract_z
Si Si1 0.258491 0.834893 0.931551
Si Si2 0.457046 0.490446 0.819002
Si Si3 0.519810 0.830625 0.113449
Si Si4 0.171226 0.506704 0.909121
Si Si5 0.209859 0.338389 0.057646
O O1 0.202005 0.750000 0.969136
O O2 0.401537 0.834387 0.996839
O O3 0.194263 0.912164 0.000678
O O4 0.271518 0.840673 0.744306
O O5 0.488558 0.402508 0.776597
O O6 0.555609 0.530853 0.704703
O O7 0.500000 0.500000 0.000000
O O8 0.306480 0.500523 0.818861
O O9 0.514294 0.750000 0.199552
O O10 0.650567 0.836151 0.019906
O O11 0.157626 0.423054 0.996475
O O12 0.154915 0.250000 0.024967
#
# Coordination Sequence:
#
# PCOD9464235 Si02
#       5
#     8   8   8   8   8
#     4  10  20  34  57  87 118 161 207 254 309 373
#     4  11  22  41  61  91 126 159 208 257 314 371
#     4   9  18  35  59  82 114 163 208 255 310 369
#     4  11  22  38  66  89 125 167 209 258 317 375
#     4   9  20  38  60  87 122 159 206 261 315 371
#
# _framework density 25.702508999999999
#
# number of rings (size 3 to 8) (size 9 to 14) (size 15 to 20)
#    0.000    2.000    2.000    2.400    0.000    0.800 
#    0.000    6.000    0.000    2.400    0.000    0.000 
#    0.000    0.000    0.000    0.000    0.000    0.000 
#
# Total GULP energy -223124.994362 kJ/mol
# GULP energy per Si atom -5578.124859 kJ/mol
# Density = 2.564401 g / cm^3
# Si number density = 25.702509 Si / 1000 Ang^3
#
#
#
# Elastic Constant Matrix: (Units=GPa)
#
#
# Indices 1 2 3 4 5 6 
#
# 1 101.1445 11.3701 49.4584 0.0000 0.0000 0.0000
# 2 11.3701 228.1786 28.8233 0.0000 0.0000 0.0000
# 3 49.4584 28.8233 83.0401 0.0000 0.0000 0.0000
# 4 0.0000 0.0000 0.0000 30.7887 0.0000 0.0000
# 5 0.0000 0.0000 0.0000 0.0000 33.9962 0.0000
# 6 0.0000 0.0000 0.0000 0.0000 0.0000 14.2252
#
#
#
# Elastic Compliance Matrix: (Units=1/GPa)
#
#
# Indices 1 2 3 4 5 6 
#
# 1 0.013980 0.000371 -0.008455 0.000000 0.000000 0.000000
# 2 0.000371 0.004593 -0.001816 0.000000 0.000000 0.000000
# 3 -0.008455 -0.001816 0.017708 0.000000 0.000000 0.000000
# 4 0.000000 0.000000 0.000000 0.032479 0.000000 0.000000
# 5 0.000000 0.000000 0.000000 0.000000 0.029415 0.000000
# 6 0.000000 0.000000 0.000000 0.000000 0.000000 0.070298
#
#
# Mechanical properties :
#
#
# Convention : Reuss Voigt Hill
#
# Bulk Modulus (GPa) = 60.66924 65.74074 63.20499
# Shear Modulus (GPa) = 25.80427 37.31610 31.56019
#
# Velocity S-wave (km/s) = 3.17197 3.81444 3.50795
# Velocity P-wave (km/s) = 6.08858 6.71067 6.40718
#
# Compressibility (1/GPa) = 0.01648282
#
# Stress axis : x y z
#
# Youngs Moduli (GPa) = 71.53320 217.70531 56.47041
#
# Poissons Ratio (x) = -0.08086 0.47746
# Poissons Ratio (y) = -0.02657 0.10253
# Poissons Ratio (z) = 0.60482 0.39526
#
# Static dielectric constant tensor:
#      x y z
#    x 2.127720 0.000000 0.000000 
#    y 0.000000 2.175200 0.000000 
#    z 0.000000 0.000000 2.101770 
# 
# From -- ./inp_files/5036.got.cif
#   From: 2010.05.17/outbox.cif.g08.bks.cpg/sg62_3_cif.got.tgz:5036.got - 2010.06.03 15:25:27.
