data_PCOD9464460
_publ_section_title
;
Structure prediction by ZEFSAII (Michael W. Deem and Ramdas Pophale) SiO2 
 PCOD9464460
Probable space group: P N M A
;
_chemical_formula_sum "Si O2"
_cell_formula_units_Z 48
_cell_length_a 24.658575
_cell_length_b 8.631876
_cell_length_c 12.214319
_cell_angle_alpha 90.000000
_cell_angle_beta 90.000000
_cell_angle_gamma 90.000000
_cell_volume 2599.814889
_symmetry_space_group_name_H-M "P N M A"
_symmetry_group_IT_number 62
_symmetry_cell_setting 'orthorhombic'
loop_
_space_group_symop_operation_xyz
x,y,z
1/2-x,-y,1/2+z
1/2+x,1/2-y,1/2-z
-x,1/2+y,-z
-x,-y,-z
1/2+x,y,1/2-z
1/2-x,1/2+y,1/2+z
x,1/2-y,z
loop_
_atom_site_type_symbol
_atom_site_label
_atom_site_fract_x
_atom_site_fract_y
_atom_site_fract_z
Si Si1 0.639466 0.436683 0.369667
Si Si2 0.211008 0.064226 0.337541
Si Si3 0.080554 0.062619 0.710007
Si Si4 0.670602 0.062478 0.613692
Si Si5 0.957234 0.436598 0.734666
Si Si6 0.385843 0.435638 0.974504
O O1 0.637785 0.250000 0.369743
O O2 0.683277 0.484832 0.277485
O O3 0.655793 0.488804 0.490654
O O4 0.581501 0.497421 0.328691
O O5 0.211239 0.250000 0.341591
O O6 0.271254 0.001296 0.350932
O O7 0.171546 0.000232 0.432169
O O8 0.080332 0.250000 0.705742
O O9 0.123962 0.014378 0.801346
O O10 0.019424 0.011640 0.738453
O O11 0.097656 0.000419 0.591735
O O12 0.673030 0.250000 0.613772
O O13 0.955984 0.250000 0.740970
O O14 0.929726 0.481479 0.618643
O O15 0.383446 0.250000 0.978341
#
# Coordination Sequence:
#
# PCOD9464460 Si02
#       6
#     8   8   8   8   8   8
#     4   9  20  38  57  78 108 144 182 226 277 331
#     4  10  21  37  57  80 107 142 184 229 277 332
#     4  10  21  36  55  83 117 148 184 228 278 327
#     4  10  22  38  55  80 113 148 181 227 280 328
#     4   9  19  36  57  82 112 147 185 229 276 329
#     4  10  20  35  57  83 111 146 187 231 279 326
#
# _framework density 18.462854
#
# number of rings (size 3 to 8) (size 9 to 14) (size 15 to 20)
#    0.000    2.333    0.000    1.500    2.333    4.000 
#    0.000    0.000    0.000    0.000    0.000    0.000 
#    0.000    0.000    0.000    0.000    0.000    0.000 
#
# Total GULP energy -268008.028009 kJ/mol
# GULP energy per Si atom -5583.500584 kJ/mol
# Density = 1.842083 g / cm^3
# Si number density = 18.462854 Si / 1000 Ang^3
#
#
#
# Elastic Constant Matrix: (Units=GPa)
#
#
# Indices 1 2 3 4 5 6 
#
# 1 209.2477 34.1180 98.7606 0.0000 0.0000 0.0000
# 2 34.1180 10.3936 22.7939 0.0000 0.0000 0.0000
# 3 98.7606 22.7939 51.6406 0.0000 0.0000 0.0000
# 4 0.0000 0.0000 0.0000 22.7807 0.0000 0.0000
# 5 0.0000 0.0000 0.0000 0.0000 12.9235 0.0000
# 6 0.0000 0.0000 0.0000 0.0000 0.0000 27.0166
#
#
#
# Elastic Compliance Matrix: (Units=1/GPa)
#
#
# Indices 1 2 3 4 5 6 
#
# 1 -0.004006 -0.114160 0.058051 0.000000 0.000000 0.000000
# 2 -0.114160 -0.245466 0.326674 0.000000 0.000000 0.000000
# 3 0.058051 0.326674 -0.235849 0.000000 0.000000 0.000000
# 4 0.000000 0.000000 0.000000 0.043897 0.000000 0.000000
# 5 0.000000 0.000000 0.000000 0.000000 0.077378 0.000000
# 6 0.000000 0.000000 0.000000 0.000000 0.000000 0.037014
#
#
# Mechanical properties :
#
#
# Convention : Reuss Voigt Hill
#
# Bulk Modulus (GPa) = 17.91779 64.73633 41.32706
# Shear Modulus (GPa) = -5.88541 20.25145 7.18302
#
# Velocity S-wave (km/s) = -1.78735 3.31550 1.97458
# Velocity P-wave (km/s) = 2.33802 7.05662 5.25653
#
# Compressibility (1/GPa) = 0.05581046
#
# Stress axis : x y z
#
# Youngs Moduli (GPa) = -249.62185 -4.07389 -4.24000
#
# Poissons Ratio (x) = -0.46508 0.24614
# Poissons Ratio (y) = -28.49689 1.38510
# Poissons Ratio (z) = 14.49086 1.33084
#
# Static dielectric constant tensor:
#      x y z
#    x 1.612020 0.000000 0.000000 
#    y 0.000000 1.626650 0.000000 
#    z 0.000000 0.000000 1.615570 
# 
# From -- ./inp_files/15086.got.cif
#   From: 2010.05.17/outbox.cif.g08.bks.cpg/sg62_8_cif.got.tgz:15086.got - 2010.06.03 15:25:27.
