data_PCOD9464115
_publ_section_title
;
Structure prediction by ZEFSAII (Michael W. Deem and Ramdas Pophale) SiO2 
 PCOD9464115
Probable space group: P N M A
;
_chemical_formula_sum "Si O2"
_cell_formula_units_Z 56
_cell_length_a 14.443842
_cell_length_b 9.701268
_cell_length_c 19.932995
_cell_angle_alpha 90.000000
_cell_angle_beta 90.000000
_cell_angle_gamma 90.000000
_cell_volume 2793.082663
_symmetry_space_group_name_H-M "P N M A"
_symmetry_group_IT_number 62
_symmetry_cell_setting 'orthorhombic'
loop_
_space_group_symop_operation_xyz
x,y,z
1/2-x,-y,1/2+z
1/2+x,1/2-y,1/2-z
-x,1/2+y,-z
-x,-y,-z
1/2+x,y,1/2-z
1/2-x,1/2+y,1/2+z
x,1/2-y,z
loop_
_atom_site_type_symbol
_atom_site_label
_atom_site_fract_x
_atom_site_fract_y
_atom_site_fract_z
Si Si1 0.385080 0.590673 0.212414
Si Si2 0.785224 0.908542 0.145183
Si Si3 0.238909 0.594265 0.981939
Si Si4 0.894249 0.402934 0.725407
Si Si5 0.044673 0.902776 0.054564
Si Si6 0.694285 0.593364 0.907642
Si Si7 0.105700 0.402585 0.158076
O O1 0.357116 0.750000 0.197765
O O2 0.341180 0.558676 0.285858
O O3 0.496612 0.586032 0.212887
O O4 0.350749 0.489286 0.154153
O O5 0.808867 0.750000 0.126566
O O6 0.675811 0.909244 0.163569
O O7 0.795949 0.014826 0.084450
O O8 0.272969 0.750000 0.967440
O O9 0.150414 0.610414 0.030615
O O10 0.308240 0.497046 0.024415
O O11 0.878115 0.250000 0.757119
O O12 0.866769 0.529438 0.772331
O O13 0.004421 0.750000 0.057667
O O14 0.039807 0.985020 0.123786
O O15 0.000000 0.000000 0.000000
O O16 0.658483 0.750000 0.915561
O O17 0.802313 0.607322 0.886640
O O18 0.064867 0.250000 0.163934
#
# Coordination Sequence:
#
# PCOD9464115 Si02
#       7
#     8   8   8   8   8   8   8
#     4  10  21  37  60  87 116 152 193 236 287 343
#     4  10  21  38  59  85 120 153 189 240 291 343
#     4  10  22  38  58  82 113 152 195 242 293 345
#     4  10  21  37  58  86 115 151 193 234 287 346
#     4  10  21  35  52  78 112 149 188 233 284 345
#     4  10  20  37  60  85 113 150 193 235 286 344
#     4  10  20  34  54  80 111 148 186 230 278 336
#
# _framework density 20.049531999999999
#
# number of rings (size 3 to 8) (size 9 to 14) (size 15 to 20)
#    0.000    2.000    1.429    1.714    2.000    4.571 
#    0.000    0.714    0.000    0.000    0.000    0.000 
#    0.000    0.000    0.000    0.000    0.000    0.000 
#
# Total GULP energy -312220.507657 kJ/mol
# GULP energy per Si atom -5575.366208 kJ/mol
# Density = 2.000390 g / cm^3
# Si number density = 20.049532 Si / 1000 Ang^3
#
#
#
# Elastic Constant Matrix: (Units=GPa)
#
#
# Indices 1 2 3 4 5 6 
#
# 1 57.9584 20.7249 15.9236 0.0000 0.0000 0.0000
# 2 20.7249 164.6818 54.4620 0.0000 0.0000 0.0000
# 3 15.9236 54.4620 64.6606 0.0000 0.0000 0.0000
# 4 0.0000 0.0000 0.0000 17.9583 0.0000 0.0000
# 5 0.0000 0.0000 0.0000 0.0000 26.3233 0.0000
# 6 0.0000 0.0000 0.0000 0.0000 0.0000 18.9395
#
#
#
# Elastic Compliance Matrix: (Units=1/GPa)
#
#
# Indices 1 2 3 4 5 6 
#
# 1 0.018661 -0.001149 -0.003628 0.000000 0.000000 0.000000
# 2 -0.001149 0.008488 -0.006866 0.000000 0.000000 0.000000
# 3 -0.003628 -0.006866 0.022142 0.000000 0.000000 0.000000
# 4 0.000000 0.000000 0.000000 0.055684 0.000000 0.000000
# 5 0.000000 0.000000 0.000000 0.000000 0.037989 0.000000
# 6 0.000000 0.000000 0.000000 0.000000 0.000000 0.052800
#
#
# Mechanical properties :
#
#
# Convention : Reuss Voigt Hill
#
# Bulk Modulus (GPa) = 38.45381 52.16906 45.31144
# Shear Modulus (GPa) = 21.95701 25.72359 23.84030
#
# Velocity S-wave (km/s) = 3.31288 3.58579 3.45203
# Velocity P-wave (km/s) = 5.81847 6.57422 6.20786
#
# Compressibility (1/GPa) = 0.02600523
#
# Stress axis : x y z
#
# Youngs Moduli (GPa) = 53.58694 117.82021 45.16330
#
# Poissons Ratio (x) = 0.13533 0.16386
# Poissons Ratio (y) = 0.06155 0.31009
# Poissons Ratio (z) = 0.19442 0.80895
#
# Static dielectric constant tensor:
#      x y z
#    x 1.750060 0.000000 0.000000 
#    y 0.000000 1.802860 0.000000 
#    z 0.000000 0.000000 1.720610 
# 
# From -- ./inp_files/27068.got.cif
#   From: 2010.05.17/outbox.cif.g08.bks.cpg/sg62_14_cif.got.tgz:27068.got - 2010.06.03 15:25:27.
