data_PCOD9464259
_publ_section_title
;
Structure prediction by ZEFSAII (Michael W. Deem and Ramdas Pophale) SiO2 
 PCOD9464259
Probable space group: P N M A
;
_chemical_formula_sum "Si O2"
_cell_formula_units_Z 48
_cell_length_a 14.243893
_cell_length_b 22.269295
_cell_length_c 7.945288
_cell_angle_alpha 90.000000
_cell_angle_beta 90.000000
_cell_angle_gamma 90.000000
_cell_volume 2520.256915
_symmetry_space_group_name_H-M "P N M A"
_symmetry_group_IT_number 62
_symmetry_cell_setting 'orthorhombic'
loop_
_space_group_symop_operation_xyz
x,y,z
1/2-x,-y,1/2+z
1/2+x,1/2-y,1/2-z
-x,1/2+y,-z
-x,-y,-z
1/2+x,y,1/2-z
1/2-x,1/2+y,1/2+z
x,1/2-y,z
loop_
_atom_site_type_symbol
_atom_site_label
_atom_site_fract_x
_atom_site_fract_y
_atom_site_fract_z
Si Si1 0.364658 0.887036 0.608553
Si Si2 0.933749 0.498417 0.339726
Si Si3 0.914471 0.389123 0.148833
Si Si4 0.761880 0.820153 0.584548
Si Si5 0.117622 0.525958 0.156243
Si Si6 0.283552 0.598296 0.244921
O O1 0.476969 0.876386 0.611466
O O2 0.319732 0.850131 0.762147
O O3 0.323921 0.877033 0.421083
O O4 0.348276 0.957758 0.646580
O O5 0.907418 0.428779 0.316509
O O6 0.848462 0.544339 0.328787
O O7 0.000000 0.500000 0.500000
O O8 0.007871 0.520858 0.198524
O O9 0.846720 0.333032 0.132943
O O10 0.875018 0.438461 0.017350
O O11 0.782001 0.750000 0.572591
O O12 0.779404 0.852657 0.404537
O O13 0.182715 0.566339 0.276204
#
# Coordination Sequence:
#
# PCOD9464259 Si02
#       6
#     8   8   8   8   8   8
#     4  11  21  40  67  91 124 167 199 249 321 378
#     4  11  20  32  59  98 127 151 190 247 314 384
#     4  10  20  41  61  88 130 157 195 256 316 371
#     4  11  27  44  59  87 122 166 224 263 292 356
#     4  10  20  34  58  98 126 149 192 242 316 388
#     4  11  22  38  64  89 128 161 200 254 313 368
#
# _framework density 19.045677999999999
#
# number of rings (size 3 to 8) (size 9 to 14) (size 15 to 20)
#    0.000    1.333    3.333    4.000    7.000    1.333 
#    0.000    0.000    0.000    0.000    0.000    0.000 
#    0.000    0.000    0.000    0.000    0.000    0.000 
#
# Total GULP energy -267753.662409 kJ/mol
# GULP energy per Si atom -5578.201300 kJ/mol
# Density = 1.900233 g / cm^3
# Si number density = 19.045678 Si / 1000 Ang^3
#
#
#
# Elastic Constant Matrix: (Units=GPa)
#
#
# Indices 1 2 3 4 5 6 
#
# 1 89.2072 48.3366 26.8514 0.0000 0.0000 0.0000
# 2 48.3366 93.6673 44.6769 0.0000 0.0000 0.0000
# 3 26.8514 44.6769 83.9905 0.0000 0.0000 0.0000
# 4 0.0000 0.0000 0.0000 17.2847 0.0000 0.0000
# 5 0.0000 0.0000 0.0000 0.0000 28.3459 0.0000
# 6 0.0000 0.0000 0.0000 0.0000 0.0000 15.9430
#
#
#
# Elastic Compliance Matrix: (Units=1/GPa)
#
#
# Indices 1 2 3 4 5 6 
#
# 1 0.015617 -0.007608 -0.000946 0.000000 0.000000 0.000000
# 2 -0.007608 0.018012 -0.007149 0.000000 0.000000 0.000000
# 3 -0.000946 -0.007149 0.016011 0.000000 0.000000 0.000000
# 4 0.000000 0.000000 0.000000 0.057855 0.000000 0.000000
# 5 0.000000 0.000000 0.000000 0.000000 0.035279 0.000000
# 6 0.000000 0.000000 0.000000 0.000000 0.000000 0.062723
#
#
# Mechanical properties :
#
#
# Convention : Reuss Voigt Hill
#
# Bulk Modulus (GPa) = 54.83993 56.28829 55.56411
# Shear Modulus (GPa) = 20.57784 22.11472 21.34628
#
# Velocity S-wave (km/s) = 3.29058 3.41125 3.35146
# Velocity P-wave (km/s) = 6.57979 6.71819 6.64935
#
# Compressibility (1/GPa) = 0.01823489
#
# Stress axis : x y z
#
# Youngs Moduli (GPa) = 64.03333 55.51878 62.45653
#
# Poissons Ratio (x) = 0.42238 0.05907
# Poissons Ratio (y) = 0.48716 0.44649
# Poissons Ratio (z) = 0.06056 0.39689
#
# Static dielectric constant tensor:
#      x y z
#    x 1.694450 0.000000 0.000000 
#    y 0.000000 1.638090 0.000000 
#    z 0.000000 0.000000 1.057280 
# 
# From -- ./inp_files/6512.got.cif
#   From: 2010.05.17/outbox.cif.g08.bks.cpg/sg62_4_cif.got.tgz:6512.got - 2010.06.03 15:25:27.
