data_PCOD9464605
_publ_section_title
;
Structure prediction by ZEFSAII (Michael W. Deem and Ramdas Pophale) SiO2 
 PCOD9464605
Probable space group: P N M A
;
_chemical_formula_sum "Si O2"
_cell_formula_units_Z 40
_cell_length_a 27.347931
_cell_length_b 7.372248
_cell_length_c 7.736945
_cell_angle_alpha 90.000000
_cell_angle_beta 90.000000
_cell_angle_gamma 90.000000
_cell_volume 1559.889811
_symmetry_space_group_name_H-M "P N M A"
_symmetry_group_IT_number 62
_symmetry_cell_setting 'orthorhombic'
loop_
_space_group_symop_operation_xyz
x,y,z
1/2-x,-y,1/2+z
1/2+x,1/2-y,1/2-z
-x,1/2+y,-z
-x,-y,-z
1/2+x,y,1/2-z
1/2-x,1/2+y,1/2+z
x,1/2-y,z
loop_
_atom_site_type_symbol
_atom_site_label
_atom_site_fract_x
_atom_site_fract_y
_atom_site_fract_z
Si Si1 0.884355 0.527581 0.826680
Si Si2 0.318128 0.462618 0.146828
Si Si3 0.954055 0.533707 0.121931
Si Si4 0.075349 0.454261 0.522236
Si Si5 0.786124 0.967969 0.964013
O O1 0.885149 0.750000 0.820714
O O2 0.908596 0.469302 0.006525
O O3 0.917107 0.461838 0.666626
O O4 0.827597 0.471383 0.827284
O O5 0.323945 0.250000 0.106818
O O6 0.368708 0.552681 0.092461
O O7 0.306601 0.484949 0.348694
O O8 0.268741 0.536814 0.058916
O O9 0.948626 0.750000 0.140922
O O10 0.954300 0.461134 0.317714
O O11 0.000000 0.500000 0.000000
O O12 0.056650 0.250000 0.495243
O O13 0.783244 0.750000 0.949033
#
# Coordination Sequence:
#
# PCOD9464605 Si02
#       5
#     8   8   8   8   8
#     4   9  18  36  60  83 109 151 198 230 276 353
#     4  11  22  34  55  87 118 150 194 242 283 332
#     4  10  21  38  60  85 113 152 196 240 291 344
#     4  10  20  38  62  82 113 157 192 231 291 351
#     4  10  20  36  55  79 116 156 192 230 280 344
#
# _framework density 25.642835999999999
#
# number of rings (size 3 to 8) (size 9 to 14) (size 15 to 20)
#    0.000    2.000    2.000    1.800    0.000    4.800 
#    0.000    2.000    0.000    0.000    0.000    0.000 
#    0.000    0.000    0.000    0.000    0.000    0.000 
#
# Total GULP energy -223706.625058 kJ/mol
# GULP energy per Si atom -5592.665626 kJ/mol
# Density = 2.558447 g / cm^3
# Si number density = 25.642836 Si / 1000 Ang^3
#
#
#
# Elastic Constant Matrix: (Units=GPa)
#
#
# Indices 1 2 3 4 5 6 
#
# 1 79.8081 1.5241 -18.2876 0.0000 0.0000 0.0000
# 2 1.5241 108.4411 -1.1764 0.0000 0.0000 0.0000
# 3 -18.2876 -1.1764 95.7611 0.0000 0.0000 0.0000
# 4 0.0000 0.0000 0.0000 -4.3364 0.0000 0.0000
# 5 0.0000 0.0000 0.0000 0.0000 44.5146 0.0000
# 6 0.0000 0.0000 0.0000 0.0000 0.0000 -2.1899
#
#
#
# Elastic Compliance Matrix: (Units=1/GPa)
#
#
# Indices 1 2 3 4 5 6 
#
# 1 0.013106 -0.000157 0.002501 0.000000 0.000000 0.000000
# 2 -0.000157 0.009225 0.000083 0.000000 0.000000 0.000000
# 3 0.002501 0.000083 0.010921 0.000000 0.000000 0.000000
# 4 0.000000 0.000000 0.000000 -0.230604 0.000000 0.000000
# 5 0.000000 0.000000 0.000000 0.000000 0.022465 0.000000
# 6 0.000000 0.000000 0.000000 0.000000 0.000000 -0.456633
#
#
# Mechanical properties :
#
#
# Convention : Reuss Voigt Hill
#
# Bulk Modulus (GPa) = 26.24219 27.57006 26.90613
# Shear Modulus (GPa) = -8.01704 27.72765 9.85531
#
# Velocity S-wave (km/s) = -1.77009 3.29188 1.96256
# Velocity P-wave (km/s) = 2.46543 5.02231 3.95613
#
# Compressibility (1/GPa) = 0.03810657
#
# Stress axis : x y z
#
# Youngs Moduli (GPa) = 76.30012 108.40447 91.56430
#
# Poissons Ratio (x) = 0.01703 -0.22900
# Poissons Ratio (y) = 0.01198 -0.00763
# Poissons Ratio (z) = -0.19082 -0.00903
#
# Static dielectric constant tensor:
#      x y z
#    x 2.054840 0.000000 0.000000 
#    y 0.000000 1.965480 0.000000 
#    z 0.000000 0.000000 2.042860 
# 
# From -- ./inp_files/9711.got.cif
#   From: 2010.05.17/outbox.cif.g08.bks.cpg/sg62_5_cif.got.tgz:9711.got - 2010.06.03 15:25:27.
