data_PCOD9464868
_publ_section_title
;
Structure prediction by ZEFSAII (Michael W. Deem and Ramdas Pophale) SiO2 
 PCOD9464868
Probable space group: P N M A
;
_chemical_formula_sum "Si O2"
_cell_formula_units_Z 64
_cell_length_a 13.147059
_cell_length_b 7.974990
_cell_length_c 29.260482
_cell_angle_alpha 90.000000
_cell_angle_beta 90.000000
_cell_angle_gamma 90.000000
_cell_volume 3067.893187
_symmetry_space_group_name_H-M "P N M A"
_symmetry_group_IT_number 62
_symmetry_cell_setting 'orthorhombic'
loop_
_space_group_symop_operation_xyz
x,y,z
1/2-x,-y,1/2+z
1/2+x,1/2-y,1/2-z
-x,1/2+y,-z
-x,-y,-z
1/2+x,y,1/2-z
1/2-x,1/2+y,1/2+z
x,1/2-y,z
loop_
_atom_site_type_symbol
_atom_site_label
_atom_site_fract_x
_atom_site_fract_y
_atom_site_fract_z
Si Si1 0.115341 0.447086 0.545012
Si Si2 0.501648 0.546835 0.647310
Si Si3 0.629006 0.061214 0.812760
Si Si4 0.397741 0.549095 0.941425
Si Si5 0.721769 0.546037 0.625815
Si Si6 0.217059 0.055745 0.112553
Si Si7 0.754557 0.057520 0.230416
Si Si8 0.963247 0.451611 0.750530
O O1 0.099024 0.250000 0.541709
O O2 0.115564 0.517243 0.493327
O O3 0.220992 0.477860 0.570612
O O4 0.015526 0.515257 0.571300
O O5 0.498728 0.750000 0.647412
O O6 0.603562 0.493742 0.620144
O O7 0.393362 0.485238 0.627121
O O8 0.511887 0.491539 0.700128
O O9 0.620128 0.250000 0.831242
O O10 0.520706 0.993854 0.796162
O O11 0.703541 0.961628 0.845548
O O12 0.681735 0.061521 0.763109
O O13 0.386215 0.750000 0.942605
O O14 0.309103 0.483051 0.908315
O O15 0.722378 0.750000 0.622993
O O16 0.748561 0.503527 0.678019
O O17 0.201818 0.250000 0.102017
O O18 0.793235 0.250000 0.233080
O O19 0.642326 0.047568 0.250551
O O20 0.950172 0.250000 0.747602
#
# Coordination Sequence:
#
# PCOD9464868 Si02
#       8
#     8   8   8   8   8   8   8   8
#     4  10  21  38  61  87 117 147 180 233 291 340
#     4  10  20  37  58  80 109 148 193 234 274 328
#     4  11  23  37  53  79 114 151 191 235 286 332
#     4   9  19  39  64  88 113 146 186 230 286 344
#     4   9  19  36  59  85 110 143 189 236 278 332
#     4  11  23  37  58  84 111 150 194 234 279 338
#     4  11  21  34  55  81 110 149 193 233 276 330
#     4  11  23  36  51  75 113 152 186 235 285 329
#
# _framework density 20.861222000000001
#
# number of rings (size 3 to 8) (size 9 to 14) (size 15 to 20)
#    0.000    1.750    2.500    1.875    1.750    2.500 
#    0.000    1.875    0.000    0.000    0.000    0.000 
#    0.000    0.000    0.000    0.000    0.000    0.000 
#
# Total GULP energy -357002.592490 kJ/mol
# GULP energy per Si atom -5578.165508 kJ/mol
# Density = 2.081374 g / cm^3
# Si number density = 20.861222 Si / 1000 Ang^3
#
#
#
# Elastic Constant Matrix: (Units=GPa)
#
#
# Indices 1 2 3 4 5 6 
#
# 1 64.5332 -6.9937 14.8392 0.0000 0.0000 0.0000
# 2 -6.9937 27.6509 -0.3022 0.0000 0.0000 0.0000
# 3 14.8392 -0.3022 51.9592 0.0000 0.0000 0.0000
# 4 0.0000 0.0000 0.0000 16.9119 0.0000 0.0000
# 5 0.0000 0.0000 0.0000 0.0000 36.4339 0.0000
# 6 0.0000 0.0000 0.0000 0.0000 0.0000 2.8811
#
#
#
# Elastic Compliance Matrix: (Units=1/GPa)
#
#
# Indices 1 2 3 4 5 6 
#
# 1 0.017074 0.004265 -0.004851 0.000000 0.000000 0.000000
# 2 0.004265 0.037233 -0.001002 0.000000 0.000000 0.000000
# 3 -0.004851 -0.001002 0.020626 0.000000 0.000000 0.000000
# 4 0.000000 0.000000 0.000000 0.059130 0.000000 0.000000
# 5 0.000000 0.000000 0.000000 0.000000 0.027447 0.000000
# 6 0.000000 0.000000 0.000000 0.000000 0.000000 0.347095
#
#
# Mechanical properties :
#
#
# Convention : Reuss Voigt Hill
#
# Bulk Modulus (GPa) = 13.93586 17.69220 15.81403
# Shear Modulus (GPa) = 9.33361 20.35205 14.84283
#
# Velocity S-wave (km/s) = 2.11751 3.12684 2.67030
# Velocity P-wave (km/s) = 3.55995 4.64063 4.13574
#
# Compressibility (1/GPa) = 0.07175730
#
# Stress axis : x y z
#
# Youngs Moduli (GPa) = 58.56959 26.85786 48.48350
#
# Poissons Ratio (x) = -0.11456 0.23521
# Poissons Ratio (y) = -0.24982 0.04856
# Poissons Ratio (z) = 0.28414 0.02690
#
# Static dielectric constant tensor:
#      x y z
#    x 1.816810 0.000000 0.000000 
#    y 0.000000 1.754380 0.000000 
#    z 0.000000 0.000000 1.756010 
# 
# From -- ./inp_files/32525.got.cif
#   From: 2010.05.17/outbox.cif.g08.bks.cpg/sg62_17_cif.got.tgz:32525.got - 2010.06.03 15:25:27.
