data_PCOD9464216
_publ_section_title
;
Structure prediction by ZEFSAII (Michael W. Deem and Ramdas Pophale) SiO2 
 PCOD9464216
Probable space group: P N M A
;
_chemical_formula_sum "Si O2"
_cell_formula_units_Z 48
_cell_length_a 7.662495
_cell_length_b 14.524948
_cell_length_c 18.629211
_cell_angle_alpha 90.000000
_cell_angle_beta 90.000000
_cell_angle_gamma 90.000000
_cell_volume 2073.381657
_symmetry_space_group_name_H-M "P N M A"
_symmetry_group_IT_number 62
_symmetry_cell_setting 'orthorhombic'
loop_
_space_group_symop_operation_xyz
x,y,z
1/2-x,-y,1/2+z
1/2+x,1/2-y,1/2-z
-x,1/2+y,-z
-x,-y,-z
1/2+x,y,1/2-z
1/2-x,1/2+y,1/2+z
x,1/2-y,z
loop_
_atom_site_type_symbol
_atom_site_label
_atom_site_fract_x
_atom_site_fract_y
_atom_site_fract_z
Si Si1 0.263655 0.499006 0.352302
Si Si2 0.766218 0.644102 0.018675
Si Si3 0.935496 0.149140 0.725674
Si Si4 0.370118 0.951030 0.612473
Si Si5 0.468193 0.356399 0.112735
Si Si6 0.786245 0.350043 0.870540
O O1 0.266363 0.571418 0.418307
O O2 0.181626 0.561156 0.290489
O O3 0.456526 0.459978 0.341793
O O4 0.134033 0.416652 0.370529
O O5 0.793197 0.750000 0.039676
O O6 0.903576 0.610266 0.958371
O O7 0.586985 0.638716 0.971944
O O8 0.855631 0.250000 0.707549
O O9 0.943506 0.151480 0.811938
O O10 0.109167 0.144499 0.677448
O O11 0.308429 0.053835 0.589285
O O12 0.203824 0.902413 0.648771
O O13 0.485562 0.250000 0.131913
O O14 0.784030 0.250000 0.907781
#
# Coordination Sequence:
#
# PCOD9464216 Si02
#       6
#     8   8   8   8   8   8
#     4  12  20  35  62  85 114 155 190 228 294 341
#     4   9  20  38  56  82 119 150 188 240 280 334
#     4  10  20  34  56  87 120 150 183 231 284 342
#     4  10  21  37  55  82 113 153 190 231 281 332
#     4   9  21  38  56  80 113 147 192 238 275 331
#     4  10  20  36  56  86 121 151 188 231 283 341
#
# _framework density 23.150587000000002
#
# number of rings (size 3 to 8) (size 9 to 14) (size 15 to 20)
#    1.000    1.000    1.667    2.500    0.000    4.000 
#    0.000    0.833    0.000    2.000    0.000    0.000 
#    0.000    0.000    0.000    0.000    0.000    0.000 
#
# Total GULP energy -267884.011768 kJ/mol
# GULP energy per Si atom -5580.916912 kJ/mol
# Density = 2.309789 g / cm^3
# Si number density = 23.150587 Si / 1000 Ang^3
#
#
#
# Elastic Constant Matrix: (Units=GPa)
#
#
# Indices 1 2 3 4 5 6 
#
# 1 112.8406 65.1863 10.2813 0.0000 0.0000 0.0000
# 2 65.1863 175.6735 22.7649 0.0000 0.0000 0.0000
# 3 10.2813 22.7649 16.4280 0.0000 0.0000 0.0000
# 4 0.0000 0.0000 0.0000 21.0406 0.0000 0.0000
# 5 0.0000 0.0000 0.0000 0.0000 22.0337 0.0000
# 6 0.0000 0.0000 0.0000 0.0000 0.0000 18.0380
#
#
#
# Elastic Compliance Matrix: (Units=1/GPa)
#
#
# Indices 1 2 3 4 5 6 
#
# 1 0.011312 -0.003998 -0.001539 0.000000 0.000000 0.000000
# 2 -0.003998 0.008351 -0.009071 0.000000 0.000000 0.000000
# 3 -0.001539 -0.009071 0.074405 0.000000 0.000000 0.000000
# 4 0.000000 0.000000 0.000000 0.047527 0.000000 0.000000
# 5 0.000000 0.000000 0.000000 0.000000 0.045385 0.000000
# 6 0.000000 0.000000 0.000000 0.000000 0.000000 0.055439
#
#
# Mechanical properties :
#
#
# Convention : Reuss Voigt Hill
#
# Bulk Modulus (GPa) = 15.41971 55.71191 35.56581
# Shear Modulus (GPa) = 17.05018 26.00309 21.52664
#
# Velocity S-wave (km/s) = 2.71678 3.35508 3.05266
# Velocity P-wave (km/s) = 4.06402 6.25508 5.27457
#
# Compressibility (1/GPa) = 0.06485208
#
# Stress axis : x y z
#
# Youngs Moduli (GPa) = 88.40265 119.74147 13.44000
#
# Poissons Ratio (x) = 0.47872 0.02069
# Poissons Ratio (y) = 0.35343 0.12191
# Poissons Ratio (z) = 0.13608 1.08614
#
# Static dielectric constant tensor:
#      x y z
#    x 1.934530 0.000000 0.000000 
#    y 0.000000 1.855800 0.000000 
#    z 0.000000 0.000000 1.921480 
# 
# From -- ./inp_files/28800.got.cif
#   From: 2010.05.17/outbox.cif.g08.bks.cpg/sg62_15_cif.got.tgz:28800.got - 2010.06.03 15:25:27.
