data_PCOD9464893
_publ_section_title
;
Structure prediction by ZEFSAII (Michael W. Deem and Ramdas Pophale) SiO2 
 PCOD9464893
Probable space group: P N M A
;
_chemical_formula_sum "Si O2"
_cell_formula_units_Z 64
_cell_length_a 13.197599
_cell_length_b 7.909792
_cell_length_c 26.820955
_cell_angle_alpha 90.000000
_cell_angle_beta 90.000000
_cell_angle_gamma 90.000000
_cell_volume 2799.846546
_symmetry_space_group_name_H-M "P N M A"
_symmetry_group_IT_number 62
_symmetry_cell_setting 'orthorhombic'
loop_
_space_group_symop_operation_xyz
x,y,z
1/2-x,-y,1/2+z
1/2+x,1/2-y,1/2-z
-x,1/2+y,-z
-x,-y,-z
1/2+x,y,1/2-z
1/2-x,1/2+y,1/2+z
x,1/2-y,z
loop_
_atom_site_type_symbol
_atom_site_label
_atom_site_fract_x
_atom_site_fract_y
_atom_site_fract_z
Si Si1 0.240531 0.542473 0.446212
Si Si2 0.448871 0.556852 0.205490
Si Si3 0.033323 0.950027 0.397010
Si Si4 0.164406 0.556430 0.245992
Si Si5 0.161120 0.545337 0.133086
Si Si6 0.838995 0.436706 0.202100
Si Si7 0.440546 0.943332 0.392692
Si Si8 0.833097 0.048133 0.445119
O O1 0.242064 0.750000 0.443610
O O2 0.348838 0.481171 0.425461
O O3 0.218270 0.494075 0.503054
O O4 0.142529 0.484886 0.414376
O O5 0.413457 0.750000 0.196233
O O6 0.483340 0.477987 0.153406
O O7 0.547476 0.562305 0.240064
O O8 0.370457 0.463104 0.240507
O O9 0.048343 0.750000 0.387022
O O10 0.944729 0.971426 0.437615
O O11 0.702911 0.750000 0.253406
O O12 0.172429 0.485237 0.190154
O O13 0.220110 0.465868 0.291849
O O14 0.153870 0.750000 0.136114
O O15 0.257182 0.499699 0.099617
O O16 0.053791 0.482181 0.110302
O O17 0.864843 0.250000 0.185216
O O18 0.894987 0.556440 0.163425
O O19 0.453198 0.750000 0.409901
O O20 0.844791 0.250000 0.446317
#
# Coordination Sequence:
#
# PCOD9464893 Si02
#       8
#     8   8   8   8   8   8   8   8
#     4   9  20  39  64  89 113 151 201 254 302 350
#     4  10  20  37  60  84 108 149 202 241 276 332
#     4  10  20  37  62  89 116 151 203 253 293 349
#     4  10  20  37  59  82 110 152 202 240 275 334
#     4  10  21  38  62  88 114 153 204 249 288 343
#     4  12  24  35  53  86 124 155 183 231 300 358
#     4  10  20  41  66  85 112 155 208 251 286 344
#     4  11  23  38  58  87 123 158 192 242 313 364
#
# _framework density 22.858397
#
# number of rings (size 3 to 8) (size 9 to 14) (size 15 to 20)
#    0.000    1.750    1.250    3.375    0.000    7.500 
#    0.000    3.750    0.000    0.000    0.000    0.000 
#    0.000    0.000    0.000    0.000    0.000    0.000 
#
# Total GULP energy -357426.518017 kJ/mol
# GULP energy per Si atom -5584.789344 kJ/mol
# Density = 2.280637 g / cm^3
# Si number density = 22.858397 Si / 1000 Ang^3
#
#
#
# Elastic Constant Matrix: (Units=GPa)
#
#
# Indices 1 2 3 4 5 6 
#
# 1 81.8149 -15.1257 -1.5732 0.0000 0.0000 0.0000
# 2 -15.1257 25.2403 -8.6865 0.0000 0.0000 0.0000
# 3 -1.5732 -8.6865 71.1694 0.0000 0.0000 0.0000
# 4 0.0000 0.0000 0.0000 2.9016 0.0000 0.0000
# 5 0.0000 0.0000 0.0000 0.0000 36.5880 0.0000
# 6 0.0000 0.0000 0.0000 0.0000 0.0000 -11.1579
#
#
#
# Elastic Compliance Matrix: (Units=1/GPa)
#
#
# Indices 1 2 3 4 5 6 
#
# 1 0.013874 0.008789 0.001379 0.000000 0.000000 0.000000
# 2 0.008789 0.046924 0.005922 0.000000 0.000000 0.000000
# 3 0.001379 0.005922 0.014804 0.000000 0.000000 0.000000
# 4 0.000000 0.000000 0.000000 0.344638 0.000000 0.000000
# 5 0.000000 0.000000 0.000000 0.000000 0.027331 0.000000
# 6 0.000000 0.000000 0.000000 0.000000 0.000000 -0.089623
#
#
# Mechanical properties :
#
#
# Convention : Reuss Voigt Hill
#
# Bulk Modulus (GPa) = 9.27795 14.16153 11.71974
# Shear Modulus (GPa) = 13.82375 19.24035 16.53205
#
# Velocity S-wave (km/s) = 2.46185 2.90439 2.69223
# Velocity P-wave (km/s) = 3.48549 4.17805 3.84738
#
# Compressibility (1/GPa) = 0.10778246
#
# Stress axis : x y z
#
# Youngs Moduli (GPa) = 72.07652 21.31104 67.54832
#
# Poissons Ratio (x) = -0.18730 -0.09318
# Poissons Ratio (y) = -0.63349 -0.39999
# Poissons Ratio (z) = -0.09942 -0.12619
#
# Static dielectric constant tensor:
#      x y z
#    x 1.866550 0.000000 0.000000 
#    y 0.000000 1.870900 0.000000 
#    z 0.000000 0.000000 1.843260 
# 
# From -- ./inp_files/32462.got.cif
#   From: 2010.05.17/outbox.cif.g08.bks.cpg/sg62_17_cif.got.tgz:32462.got - 2010.06.03 15:25:27.
