data_PCOD9464925
_publ_section_title
;
Structure prediction by ZEFSAII (Michael W. Deem and Ramdas Pophale) SiO2 
 PCOD9464925
Probable space group: P N M A
;
_chemical_formula_sum "Si O2"
_cell_formula_units_Z 40
_cell_length_a 23.690818
_cell_length_b 9.314213
_cell_length_c 7.921543
_cell_angle_alpha 90.000000
_cell_angle_beta 90.000000
_cell_angle_gamma 90.000000
_cell_volume 1747.978174
_symmetry_space_group_name_H-M "P N M A"
_symmetry_group_IT_number 62
_symmetry_cell_setting 'orthorhombic'
loop_
_space_group_symop_operation_xyz
x,y,z
1/2-x,-y,1/2+z
1/2+x,1/2-y,1/2-z
-x,1/2+y,-z
-x,-y,-z
1/2+x,y,1/2-z
1/2-x,1/2+y,1/2+z
x,1/2-y,z
loop_
_atom_site_type_symbol
_atom_site_label
_atom_site_fract_x
_atom_site_fract_y
_atom_site_fract_z
Si Si1 0.367646 0.416069 0.688191
Si Si2 0.535498 0.418018 0.141823
Si Si3 0.267268 0.914985 0.521769
Si Si4 0.670161 0.413936 0.840450
Si Si5 0.074564 0.910690 0.822006
O O1 0.358206 0.250000 0.737074
O O2 0.406334 0.503377 0.817441
O O3 0.310179 0.495354 0.638371
O O4 0.403367 0.416902 0.512564
O O5 0.543666 0.250000 0.103114
O O6 0.492276 0.426894 0.300765
O O7 0.500000 0.500000 0.000000
O O8 0.263968 0.750000 0.577798
O O9 0.294508 0.917952 0.335885
O O10 0.206227 0.987624 0.534529
O O11 0.667380 0.250000 0.898481
O O12 0.609545 0.475834 0.788145
O O13 0.088583 0.750000 0.757027
#
# Coordination Sequence:
#
# PCOD9464925 Si02
#       5
#     8   8   8   8   8
#     4  10  20  37  60  83 108 142 184 227 273 326
#     4  11  23  38  56  82 114 146 182 226 276 326
#     4  10  21  37  57  82 112 145 182 224 271 324
#     4  10  21  36  57  84 111 143 184 227 272 324
#     4   9  20  38  59  81 108 144 184 226 272 326
#
# _framework density 22.883579000000001
#
# number of rings (size 3 to 8) (size 9 to 14) (size 15 to 20)
#    0.000    2.000    0.000    3.000    0.000    6.400 
#    0.000    2.000    0.000    0.000    0.000    0.000 
#    0.000    0.000    0.000    0.000    0.000    0.000 
#
# Total GULP energy -223887.848697 kJ/mol
# GULP energy per Si atom -5597.196217 kJ/mol
# Density = 2.283150 g / cm^3
# Si number density = 22.883579 Si / 1000 Ang^3
#
#
#
# Elastic Constant Matrix: (Units=GPa)
#
#
# Indices 1 2 3 4 5 6 
#
# 1 115.2048 56.9255 9.9523 0.0000 0.0000 0.0000
# 2 56.9255 175.0616 24.6229 0.0000 0.0000 0.0000
# 3 9.9523 24.6229 47.2112 0.0000 0.0000 0.0000
# 4 0.0000 0.0000 0.0000 25.1619 0.0000 0.0000
# 5 0.0000 0.0000 0.0000 0.0000 49.9491 0.0000
# 6 0.0000 0.0000 0.0000 0.0000 0.0000 37.6499
#
#
#
# Elastic Compliance Matrix: (Units=1/GPa)
#
#
# Indices 1 2 3 4 5 6 
#
# 1 0.010351 -0.003301 -0.000460 0.000000 0.000000 0.000000
# 2 -0.003301 0.007217 -0.003068 0.000000 0.000000 0.000000
# 3 -0.000460 -0.003068 0.022879 0.000000 0.000000 0.000000
# 4 0.000000 0.000000 0.000000 0.039743 0.000000 0.000000
# 5 0.000000 0.000000 0.000000 0.000000 0.020020 0.000000
# 6 0.000000 0.000000 0.000000 0.000000 0.000000 0.026561
#
#
# Mechanical properties :
#
#
# Convention : Reuss Voigt Hill
#
# Bulk Modulus (GPa) = 37.33070 57.83098 47.58084
# Shear Modulus (GPa) = 33.47628 38.95063 36.21345
#
# Velocity S-wave (km/s) = 3.82893 4.13015 3.98239
# Velocity P-wave (km/s) = 5.99136 6.93332 6.47948
#
# Compressibility (1/GPa) = 0.02678761
#
# Stress axis : x y z
#
# Youngs Moduli (GPa) = 96.60757 138.55616 43.70876
#
# Poissons Ratio (x) = 0.45740 0.02012
# Poissons Ratio (y) = 0.31892 0.13411
# Poissons Ratio (z) = 0.04447 0.42513
#
# Static dielectric constant tensor:
#      x y z
#    x 1.812190 0.000000 0.000000 
#    y 0.000000 1.798500 0.000000 
#    z 0.000000 0.000000 1.900330 
# 
# From -- ./inp_files/9058.got.cif
#   From: 2010.05.17/outbox.cif.g08.bks.cpg/sg62_5_cif.got.tgz:9058.got - 2010.06.03 15:25:27.
