data_PCOD9464234
_publ_section_title
;
Structure prediction by ZEFSAII (Michael W. Deem and Ramdas Pophale) SiO2 
 PCOD9464234
Probable space group: P N M A
;
_chemical_formula_sum "Si O2"
_cell_formula_units_Z 56
_cell_length_a 21.879712
_cell_length_b 8.542384
_cell_length_c 15.683787
_cell_angle_alpha 90.000000
_cell_angle_beta 90.000000
_cell_angle_gamma 90.000000
_cell_volume 2931.376668
_symmetry_space_group_name_H-M "P N M A"
_symmetry_group_IT_number 62
_symmetry_cell_setting 'orthorhombic'
loop_
_space_group_symop_operation_xyz
x,y,z
1/2-x,-y,1/2+z
1/2+x,1/2-y,1/2-z
-x,1/2+y,-z
-x,-y,-z
1/2+x,y,1/2-z
1/2-x,1/2+y,1/2+z
x,1/2-y,z
loop_
_atom_site_type_symbol
_atom_site_label
_atom_site_fract_x
_atom_site_fract_y
_atom_site_fract_z
Si Si1 0.912874 0.565871 0.476789
Si Si2 0.946915 0.936142 0.940396
Si Si3 0.837227 0.062581 0.191260
Si Si4 0.016139 0.073162 0.368116
Si Si5 0.295752 0.439644 0.118659
Si Si6 0.024695 0.428735 0.797171
Si Si7 0.184586 0.060976 0.993932
O O1 0.926573 0.750000 0.459317
O O2 0.961301 0.446950 0.435448
O O3 0.849212 0.520850 0.435286
O O4 0.922024 0.548598 0.578476
O O5 0.945107 0.750000 0.943955
O O6 0.881500 0.994830 0.972253
O O7 0.970756 0.989445 0.849281
O O8 0.000000 0.000000 0.000000
O O9 0.837425 0.250000 0.188491
O O10 0.804379 0.015538 0.281052
O O11 0.908109 0.005258 0.194198
O O12 0.807690 0.001238 0.102847
O O13 0.015062 0.250000 0.332633
O O14 0.998320 0.947075 0.298672
O O15 0.302401 0.250000 0.115688
O O16 0.234218 0.480256 0.066530
O O17 0.030844 0.250000 0.825007
O O18 0.184102 0.250000 0.988139
#
# Coordination Sequence:
#
# PCOD9464234 Si02
#       7
#     8   8   8   8   8   8   8
#     4  10  20  34  57  87 118 155 199 248 299 355
#     4  11  22  38  62  89 121 155 193 248 310 362
#     4  11  22  38  64  91 117 156 203 249 301 364
#     4  10  20  35  55  84 120 157 198 246 299 353
#     4  10  22  41  63  87 122 164 205 249 305 367
#     4  12  23  36  59  89 121 155 197 246 298 361
#     4  10  23  43  64  87 120 161 202 252 306 363
#
# _framework density 19.103653000000001
#
# number of rings (size 3 to 8) (size 9 to 14) (size 15 to 20)
#    0.000    1.429    2.857    3.000    0.000    3.429 
#    2.571    0.000    0.000    0.000    0.000    0.000 
#    0.000    0.000    0.000    0.000    0.000    0.000 
#
# Total GULP energy -312203.343629 kJ/mol
# GULP energy per Si atom -5575.059708 kJ/mol
# Density = 1.906017 g / cm^3
# Si number density = 19.103653 Si / 1000 Ang^3
#
#
#
# Elastic Constant Matrix: (Units=GPa)
#
#
# Indices 1 2 3 4 5 6 
#
# 1 103.0619 24.5290 65.9647 0.0000 0.0000 0.0000
# 2 24.5290 42.9006 23.5561 0.0000 0.0000 0.0000
# 3 65.9647 23.5561 107.6434 0.0000 0.0000 0.0000
# 4 0.0000 0.0000 0.0000 33.7159 0.0000 0.0000
# 5 0.0000 0.0000 0.0000 0.0000 29.4874 0.0000
# 6 0.0000 0.0000 0.0000 0.0000 0.0000 21.8923
#
#
#
# Elastic Compliance Matrix: (Units=1/GPa)
#
#
# Indices 1 2 3 4 5 6 
#
# 1 0.016684 -0.004461 -0.009248 0.000000 0.000000 0.000000
# 2 -0.004461 0.027686 -0.003325 0.000000 0.000000 0.000000
# 3 -0.009248 -0.003325 0.015684 0.000000 0.000000 0.000000
# 4 0.000000 0.000000 0.000000 0.029660 0.000000 0.000000
# 5 0.000000 0.000000 0.000000 0.000000 0.033913 0.000000
# 6 0.000000 0.000000 0.000000 0.000000 0.000000 0.045678
#
#
# Mechanical properties :
#
#
# Convention : Reuss Voigt Hill
#
# Bulk Modulus (GPa) = 38.48093 53.52283 46.00188
# Shear Modulus (GPa) = 23.58109 26.32286 24.95198
#
# Velocity S-wave (km/s) = 3.51718 3.71603 3.61797
# Velocity P-wave (km/s) = 6.05649 6.81834 6.44867
#
# Compressibility (1/GPa) = 0.02598690
#
# Stress axis : x y z
#
# Youngs Moduli (GPa) = 59.93910 36.11922 63.75734
#
# Poissons Ratio (x) = 0.16114 0.58960
# Poissons Ratio (y) = 0.26741 0.21198
# Poissons Ratio (z) = 0.55429 0.12009
#
# Static dielectric constant tensor:
#      x y z
#    x 1.633320 0.000000 0.000000 
#    y 0.000000 1.650780 0.000000 
#    z 0.000000 0.000000 1.203200 
# 
# From -- ./inp_files/20420.got.cif
#   From: 2010.05.17/outbox.cif.g08.bks.cpg/sg62_11_cif.got.tgz:20420.got - 2010.06.03 15:25:27.
