data_PCOD9464638
_publ_section_title
;
Structure prediction by ZEFSAII (Michael W. Deem and Ramdas Pophale) SiO2 
 PCOD9464638
Probable space group: P N M A
;
_chemical_formula_sum "Si O2"
_cell_formula_units_Z 32
_cell_length_a 5.292090
_cell_length_b 25.921173
_cell_length_c 8.809717
_cell_angle_alpha 90.000000
_cell_angle_beta 90.000000
_cell_angle_gamma 90.000000
_cell_volume 1208.492138
_symmetry_space_group_name_H-M "P N M A"
_symmetry_group_IT_number 62
_symmetry_cell_setting 'orthorhombic'
loop_
_space_group_symop_operation_xyz
x,y,z
1/2-x,-y,1/2+z
1/2+x,1/2-y,1/2-z
-x,1/2+y,-z
-x,-y,-z
1/2+x,y,1/2-z
1/2-x,1/2+y,1/2+z
x,1/2-y,z
loop_
_atom_site_type_symbol
_atom_site_label
_atom_site_fract_x
_atom_site_fract_y
_atom_site_fract_z
Si Si1 0.194370 0.462632 0.090124
Si Si2 0.574657 0.437431 0.822890
Si Si3 0.040411 0.853471 0.907915
Si Si4 0.957505 0.189911 0.431869
O O1 0.349434 0.501327 0.198362
O O2 0.040449 0.411448 0.135431
O O3 0.417469 0.440745 0.979166
O O4 0.000000 0.500000 0.000000
O O5 0.358798 0.416348 0.708215
O O6 0.810167 0.827648 0.997364
O O7 0.070187 0.822824 0.748087
O O8 0.308002 0.844040 0.986075
O O9 0.004819 0.250000 0.453557
#
# Coordination Sequence:
#
# PCOD9464638 Si02
#       4
#     8   8   8   8
#     4  11  25  38  57  89 119 155 228 245 289 380
#     4  11  24  39  58  74 118 162 199 254 296 325
#     4  10  21  31  55  78 115 156 185 234 296 347
#     4  10  20  36  56  86 121 153 192 238 306 381
#
# _framework density 26.479281
#
# number of rings (size 3 to 8) (size 9 to 14) (size 15 to 20)
#    0.000    1.500    2.500    3.750   14.000    0.000 
#    0.000    0.000    0.000    0.000    0.000    0.000 
#    0.000   34.000    0.000    0.000    0.000    0.000 
#
# Total GULP energy -178736.611436 kJ/mol
# GULP energy per Si atom -5585.519107 kJ/mol
# Density = 2.641901 g / cm^3
# Si number density = 26.479281 Si / 1000 Ang^3
#
#
#
# Elastic Constant Matrix: (Units=GPa)
#
#
# Indices 1 2 3 4 5 6 
#
# 1 272.6205 42.7506 7.4135 0.0000 0.0000 0.0000
# 2 42.7506 142.5961 -2.0507 0.0000 0.0000 0.0000
# 3 7.4135 -2.0507 42.1540 0.0000 0.0000 0.0000
# 4 0.0000 0.0000 0.0000 25.5252 0.0000 0.0000
# 5 0.0000 0.0000 0.0000 0.0000 20.4500 0.0000
# 6 0.0000 0.0000 0.0000 0.0000 0.0000 47.5286
#
#
#
# Elastic Compliance Matrix: (Units=1/GPa)
#
#
# Indices 1 2 3 4 5 6 
#
# 1 0.003872 -0.001171 -0.000738 0.000000 0.000000 0.000000
# 2 -0.001171 0.007372 0.000565 0.000000 0.000000 0.000000
# 3 -0.000738 0.000565 0.023880 0.000000 0.000000 0.000000
# 4 0.000000 0.000000 0.000000 0.039177 0.000000 0.000000
# 5 0.000000 0.000000 0.000000 0.000000 0.048900 0.000000
# 6 0.000000 0.000000 0.000000 0.000000 0.000000 0.021040
#
#
# Mechanical properties :
#
#
# Convention : Reuss Voigt Hill
#
# Bulk Modulus (GPa) = 30.83144 61.51083 46.17114
# Shear Modulus (GPa) = 31.69746 45.98457 38.84101
#
# Velocity S-wave (km/s) = 3.46362 4.17180 3.83410
# Velocity P-wave (km/s) = 5.25970 6.81803 6.08892
#
# Compressibility (1/GPa) = 0.03243442
#
# Stress axis : x y z
#
# Youngs Moduli (GPa) = 258.27375 135.64607 41.87642
#
# Poissons Ratio (x) = 0.15890 0.03090
# Poissons Ratio (y) = 0.30254 -0.02365
# Poissons Ratio (z) = 0.19058 -0.07659
#
# Static dielectric constant tensor:
#      x y z
#    x 2.253140 0.000000 0.000000 
#    y 0.000000 2.063410 0.000000 
#    z 0.000000 0.000000 2.376190 
# 
# From -- ./inp_files/10636.got.cif
#   From: 2010.05.17/outbox.cif.g08.bks.cpg/sg62_6_cif.got.tgz:10636.got - 2010.06.03 15:25:27.
