data_PCOD9464098
_publ_section_title
;
Structure prediction by ZEFSAII (Michael W. Deem and Ramdas Pophale) SiO2 
 PCOD9464098
Probable space group: P N M A
;
_chemical_formula_sum "Si O2"
_cell_formula_units_Z 64
_cell_length_a 20.509487
_cell_length_b 8.694510
_cell_length_c 20.601883
_cell_angle_alpha 90.000000
_cell_angle_beta 90.000000
_cell_angle_gamma 90.000000
_cell_volume 3673.726537
_symmetry_space_group_name_H-M "P N M A"
_symmetry_group_IT_number 62
_symmetry_cell_setting 'orthorhombic'
loop_
_space_group_symop_operation_xyz
x,y,z
1/2-x,-y,1/2+z
1/2+x,1/2-y,1/2-z
-x,1/2+y,-z
-x,-y,-z
1/2+x,y,1/2-z
1/2-x,1/2+y,1/2+z
x,1/2-y,z
loop_
_atom_site_type_symbol
_atom_site_label
_atom_site_fract_x
_atom_site_fract_y
_atom_site_fract_z
Si Si1 0.179257 0.563821 0.927384
Si Si2 0.675817 0.565287 0.423223
Si Si3 0.572024 0.934732 0.824588
Si Si4 0.173353 0.065671 0.572389
Si Si5 0.322394 0.434447 0.929990
Si Si6 0.923776 0.934277 0.819431
Si Si7 0.427377 0.063420 0.323836
Si Si8 0.071590 0.934573 0.322338
O O1 0.183679 0.750000 0.924827
O O2 0.250538 0.496731 0.913199
O O3 0.125016 0.509770 0.876373
O O4 0.161778 0.523130 0.001755
O O5 0.669847 0.750000 0.417398
O O6 0.751574 0.524184 0.411083
O O7 0.627284 0.487243 0.373104
O O8 0.571699 0.750000 0.827352
O O9 0.588284 0.981894 0.750261
O O10 0.623493 0.000368 0.875259
O O11 0.499253 0.995632 0.837978
O O12 0.169345 0.250000 0.570265
O O13 0.159835 0.000621 0.500642
O O14 0.320452 0.250000 0.933582
O O15 0.375122 0.479725 0.875904
O O16 0.923348 0.750000 0.813376
O O17 0.997911 0.983058 0.837351
O O18 0.909236 0.005911 0.749052
O O19 0.426216 0.250000 0.325688
O O20 0.066843 0.750000 0.321240
#
# Coordination Sequence:
#
# PCOD9464098 Si02
#       8
#     8   8   8   8   8   8   8   8
#     4   9  18  35  56  76 104 139 172 211 261 314
#     4   9  19  34  52  76 106 139 173 212 259 311
#     4  10  20  35  56  81 108 137 174 219 260 307
#     4  10  21  37  56  77 105 141 176 212 260 315
#     4  10  21  36  54  78 105 133 172 219 261 306
#     4  10  20  34  54  78 105 139 178 219 260 307
#     4   8  17  34  53  76 105 136 172 213 258 307
#     4  10  21  37  55  76 106 140 173 215 265 316
#
# _framework density 17.421004
#
# number of rings (size 3 to 8) (size 9 to 14) (size 15 to 20)
#    0.000    2.500    0.000    3.375    0.000    6.500 
#    0.000    6.250    0.000    0.000    0.000    0.000 
#    0.000    0.000    0.000    0.000    0.000    0.000 
#
# Total GULP energy -357076.883086 kJ/mol
# GULP energy per Si atom -5579.326298 kJ/mol
# Density = 1.738135 g / cm^3
# Si number density = 17.421004 Si / 1000 Ang^3
#
#
#
# Elastic Constant Matrix: (Units=GPa)
#
#
# Indices 1 2 3 4 5 6 
#
# 1 142.8673 47.6092 140.8107 0.0000 0.0000 0.0000
# 2 47.6092 41.7145 50.5205 0.0000 0.0000 0.0000
# 3 140.8107 50.5205 159.2017 0.0000 0.0000 0.0000
# 4 0.0000 0.0000 0.0000 25.7333 0.0000 0.0000
# 5 0.0000 0.0000 0.0000 0.0000 43.7180 0.0000
# 6 0.0000 0.0000 0.0000 0.0000 0.0000 30.9053
#
#
#
# Elastic Compliance Matrix: (Units=1/GPa)
#
#
# Indices 1 2 3 4 5 6 
#
# 1 0.055587 -0.006330 -0.047156 0.000000 0.000000 0.000000
# 2 -0.006330 0.039658 -0.006986 0.000000 0.000000 0.000000
# 3 -0.047156 -0.006986 0.050207 0.000000 0.000000 0.000000
# 4 0.000000 0.000000 0.000000 0.038860 0.000000 0.000000
# 5 0.000000 0.000000 0.000000 0.000000 0.022874 0.000000
# 6 0.000000 0.000000 0.000000 0.000000 0.000000 0.032357
#
#
# Mechanical properties :
#
#
# Convention : Reuss Voigt Hill
#
# Bulk Modulus (GPa) = 40.80552 91.29604 66.05078
# Shear Modulus (GPa) = 13.56276 27.06087 20.31181
#
# Velocity S-wave (km/s) = 2.79324 3.94553 3.41829
# Velocity P-wave (km/s) = 5.82039 8.56013 7.31959
#
# Compressibility (1/GPa) = 0.02450649
#
# Stress axis : x y z
#
# Youngs Moduli (GPa) = 17.98996 25.21559 19.91752
#
# Poissons Ratio (x) = 0.15962 0.93924
# Poissons Ratio (y) = 0.11388 0.13914
# Poissons Ratio (z) = 0.84834 0.17615
#
# Static dielectric constant tensor:
#      x y z
#    x 1.571670 0.000000 0.000000 
#    y 0.000000 1.586760 0.000000 
#    z 0.000000 0.000000 1.573090 
# 
# From -- ./inp_files/24693.got.cif
#   From: 2010.05.17/outbox.cif.g08.bks.cpg/sg62_13_cif.got.tgz:24693.got - 2010.06.03 15:25:27.
