data_PCOD9464157
_publ_section_title
;
Structure prediction by ZEFSAII (Michael W. Deem and Ramdas Pophale) SiO2 
 PCOD9464157
Probable space group: P N M A
;
_chemical_formula_sum "Si O2"
_cell_formula_units_Z 40
_cell_length_a 5.046224
_cell_length_b 15.176942
_cell_length_c 23.817259
_cell_angle_alpha 90.000000
_cell_angle_beta 90.000000
_cell_angle_gamma 90.000000
_cell_volume 1824.074527
_symmetry_space_group_name_H-M "P N M A"
_symmetry_group_IT_number 62
_symmetry_cell_setting 'orthorhombic'
loop_
_space_group_symop_operation_xyz
x,y,z
1/2-x,-y,1/2+z
1/2+x,1/2-y,1/2-z
-x,1/2+y,-z
-x,-y,-z
1/2+x,y,1/2-z
1/2-x,1/2+y,1/2+z
x,1/2-y,z
loop_
_atom_site_type_symbol
_atom_site_label
_atom_site_fract_x
_atom_site_fract_y
_atom_site_fract_z
Si Si1 0.303595 0.750000 0.213433
Si Si2 0.709484 0.750000 0.490371
Si Si3 0.135407 0.940089 0.789045
Si Si4 0.478251 0.250000 0.287960
Si Si5 0.250810 0.942528 0.016022
Si Si6 0.788124 0.250000 0.583274
Si Si7 0.551382 0.602243 0.362539
O O1 0.604826 0.750000 0.233466
O O2 0.225852 0.836600 0.178421
O O3 0.759640 0.653060 0.514664
O O4 0.403676 0.750000 0.471267
O O5 0.911656 0.750000 0.436745
O O6 0.428791 0.945537 0.763250
O O7 0.086392 0.843392 0.816042
O O8 0.063874 0.018614 0.830375
O O9 0.779662 0.250000 0.266141
O O10 0.215600 0.925276 0.082477
O O11 0.500000 0.000000 0.000000
O O12 0.000000 0.000000 0.000000
O O13 0.689402 0.164285 0.616259
#
# Coordination Sequence:
#
# PCOD9464157 Si02
#       7
#     4   4   8   4   8   4   8
#     4  11  24  39  62  98 130 166 212 254 322 410
#     4  10  20  41  62  84 120 158 202 261 310 364
#     4  10  20  34  55  81 112 152 195 245 308 374
#     4   8  16  32  50  70 100 142 185 222 279 352
#     4  11  24  41  64  92 121 168 221 260 322 395
#     4   9  20  34  58  84 114 162 195 233 319 384
#     4  10  22  38  60  88 126 159 201 266 317 375
#
# _framework density 21.928927000000002
#
# number of rings (size 3 to 8) (size 9 to 14) (size 15 to 20)
#    0.000    2.000    0.000    4.200    0.000   12.800 
#    0.000    2.000    0.000    2.400    0.000    0.000 
#    0.000    0.000    0.000    0.000    0.000    0.000 
#
# Total GULP energy -223586.324348 kJ/mol
# GULP energy per Si atom -5589.658109 kJ/mol
# Density = 2.187902 g / cm^3
# Si number density = 21.928927 Si / 1000 Ang^3
#
#
#
# Elastic Constant Matrix: (Units=GPa)
#
#
# Indices 1 2 3 4 5 6 
#
# 1 90.0592 21.0814 8.8440 0.0000 0.0000 0.0000
# 2 21.0814 209.3972 27.9734 0.0000 0.0000 0.0000
# 3 8.8440 27.9734 43.8938 0.0000 0.0000 0.0000
# 4 0.0000 0.0000 0.0000 30.2424 0.0000 0.0000
# 5 0.0000 0.0000 0.0000 0.0000 23.6416 0.0000
# 6 0.0000 0.0000 0.0000 0.0000 0.0000 23.1374
#
#
#
# Elastic Compliance Matrix: (Units=1/GPa)
#
#
# Indices 1 2 3 4 5 6 
#
# 1 0.011490 -0.000926 -0.001725 0.000000 0.000000 0.000000
# 2 -0.000926 0.005295 -0.003188 0.000000 0.000000 0.000000
# 3 -0.001725 -0.003188 0.025161 0.000000 0.000000 0.000000
# 4 0.000000 0.000000 0.000000 0.033066 0.000000 0.000000
# 5 0.000000 0.000000 0.000000 0.000000 0.042298 0.000000
# 6 0.000000 0.000000 0.000000 0.000000 0.000000 0.043220
#
#
# Mechanical properties :
#
#
# Convention : Reuss Voigt Hill
#
# Bulk Modulus (GPa) = 33.03763 51.01641 42.02702
# Shear Modulus (GPa) = 27.42769 34.43438 30.93104
#
# Velocity S-wave (km/s) = 3.54044 3.96696 3.75975
# Velocity P-wave (km/s) = 5.64016 6.65563 6.16882
#
# Compressibility (1/GPa) = 0.03026852
#
# Stress axis : x y z
#
# Youngs Moduli (GPa) = 87.03197 188.86757 39.74362
#
# Poissons Ratio (x) = 0.17496 0.06855
# Poissons Ratio (y) = 0.08062 0.12669
# Poissons Ratio (z) = 0.15011 0.60204
#
# Static dielectric constant tensor:
#      x y z
#    x 1.770660 0.000000 0.000000 
#    y 0.000000 1.849450 0.000000 
#    z 0.000000 0.000000 1.803470 
# 
# From -- ./inp_files/28263.got.cif
#   From: 2010.05.17/outbox.cif.g08.bks.cpg/sg62_15_cif.got.tgz:28263.got - 2010.06.03 15:25:27.
