data_PCOD9464564
_publ_section_title
;
Structure prediction by ZEFSAII (Michael W. Deem and Ramdas Pophale) SiO2 
 PCOD9464564
Probable space group: P N M A
;
_chemical_formula_sum "Si O2"
_cell_formula_units_Z 48
_cell_length_a 13.162249
_cell_length_b 13.873045
_cell_length_c 11.752947
_cell_angle_alpha 90.000000
_cell_angle_beta 90.000000
_cell_angle_gamma 90.000000
_cell_volume 2146.093678
_symmetry_space_group_name_H-M "P N M A"
_symmetry_group_IT_number 62
_symmetry_cell_setting 'orthorhombic'
loop_
_space_group_symop_operation_xyz
x,y,z
1/2-x,-y,1/2+z
1/2+x,1/2-y,1/2-z
-x,1/2+y,-z
-x,-y,-z
1/2+x,y,1/2-z
1/2-x,1/2+y,1/2+z
x,1/2-y,z
loop_
_atom_site_type_symbol
_atom_site_label
_atom_site_fract_x
_atom_site_fract_y
_atom_site_fract_z
Si Si1 0.702584 0.990725 0.366419
Si Si2 0.791706 0.640318 0.661838
Si Si3 0.505001 0.058295 0.737698
Si Si4 0.380604 0.641530 0.467809
Si Si5 0.562011 0.855755 0.649565
Si Si6 0.608512 0.364799 0.934710
O O1 0.713568 0.068984 0.266375
O O2 0.686311 0.056003 0.479132
O O3 0.602253 0.933764 0.326662
O O4 0.797675 0.921730 0.378644
O O5 0.809585 0.750000 0.701483
O O6 0.678355 0.638655 0.607782
O O7 0.876170 0.615271 0.568544
O O8 0.584513 0.116528 0.658954
O O9 0.511393 0.097707 0.865284
O O10 0.536843 0.946064 0.728747
O O11 0.338067 0.750000 0.475311
O O12 0.481756 0.638839 0.547121
O O13 0.550877 0.750000 0.704655
O O14 0.617680 0.250000 0.921901
#
# Coordination Sequence:
#
# PCOD9464564 Si02
#       6
#     8   8   8   8   8   8
#     4  11  22  37  64  86 116 153 202 244 291 349
#     4  10  20  37  59  85 117 156 195 235 291 357
#     4  11  21  37  58  87 119 153 190 241 300 348
#     4  10  20  35  60  92 117 145 195 252 299 340
#     4   9  17  33  57  83 112 146 192 245 288 338
#     4  11  24  39  58  84 120 159 196 241 299 358
#
# _framework density 22.366219000000001
#
# number of rings (size 3 to 8) (size 9 to 14) (size 15 to 20)
#    0.000    1.667    1.667    5.000    0.000    4.000 
#    0.000    0.000    0.000    1.000    0.000    0.000 
#    0.000    0.000    0.000    0.000    0.000    0.000 
#
# Total GULP energy -268294.085259 kJ/mol
# GULP energy per Si atom -5589.460110 kJ/mol
# Density = 2.231531 g / cm^3
# Si number density = 22.366219 Si / 1000 Ang^3
#
#
#
# Elastic Constant Matrix: (Units=GPa)
#
#
# Indices 1 2 3 4 5 6 
#
# 1 29.3049 7.3953 -8.3665 0.0000 0.0000 0.0000
# 2 7.3953 102.2683 25.7230 0.0000 0.0000 0.0000
# 3 -8.3665 25.7230 37.9105 0.0000 0.0000 0.0000
# 4 0.0000 0.0000 0.0000 29.1483 0.0000 0.0000
# 5 0.0000 0.0000 0.0000 0.0000 13.2615 0.0000
# 6 0.0000 0.0000 0.0000 0.0000 0.0000 23.8242
#
#
#
# Elastic Compliance Matrix: (Units=1/GPa)
#
#
# Indices 1 2 3 4 5 6 
#
# 1 0.039302 -0.006058 0.012784 0.000000 0.000000 0.000000
# 2 -0.006058 0.012724 -0.009970 0.000000 0.000000 0.000000
# 3 0.012784 -0.009970 0.035964 0.000000 0.000000 0.000000
# 4 0.000000 0.000000 0.000000 0.034307 0.000000 0.000000
# 5 0.000000 0.000000 0.000000 0.000000 0.075406 0.000000
# 6 0.000000 0.000000 0.000000 0.000000 0.000000 0.041974
#
#
# Mechanical properties :
#
#
# Convention : Reuss Voigt Hill
#
# Bulk Modulus (GPa) = 12.26953 24.33192 18.30072
# Shear Modulus (GPa) = 18.29265 22.89561 20.59413
#
# Velocity S-wave (km/s) = 2.86294 3.20295 3.03771
# Velocity P-wave (km/s) = 4.05293 4.95793 4.52810
#
# Compressibility (1/GPa) = 0.08150273
#
# Stress axis : x y z
#
# Youngs Moduli (GPa) = 25.44373 78.59152 27.80537
#
# Poissons Ratio (x) = 0.47607 -0.35546
# Poissons Ratio (y) = 0.15413 0.27723
# Poissons Ratio (z) = -0.32527 0.78358
#
# Static dielectric constant tensor:
#      x y z
#    x 1.857390 0.000000 0.000000 
#    y 0.000000 1.821230 0.000000 
#    z 0.000000 0.000000 1.848400 
# 
# From -- ./inp_files/13286.got.cif
#   From: 2010.05.17/outbox.cif.g08.bks.cpg/sg62_7_cif.got.tgz:13286.got - 2010.06.03 15:25:27.
