data_PCOD9464629
_publ_section_title
;
Structure prediction by ZEFSAII (Michael W. Deem and Ramdas Pophale) SiO2 
 PCOD9464629
Probable space group: P N M A
;
_chemical_formula_sum "Si O2"
_cell_formula_units_Z 60
_cell_length_a 14.345568
_cell_length_b 9.193695
_cell_length_c 25.581497
_cell_angle_alpha 90.000000
_cell_angle_beta 90.000000
_cell_angle_gamma 90.000000
_cell_volume 3373.912348
_symmetry_space_group_name_H-M "P N M A"
_symmetry_group_IT_number 62
_symmetry_cell_setting 'orthorhombic'
loop_
_space_group_symop_operation_xyz
x,y,z
1/2-x,-y,1/2+z
1/2+x,1/2-y,1/2-z
-x,1/2+y,-z
-x,-y,-z
1/2+x,y,1/2-z
1/2-x,1/2+y,1/2+z
x,1/2-y,z
loop_
_atom_site_type_symbol
_atom_site_label
_atom_site_fract_x
_atom_site_fract_y
_atom_site_fract_z
Si Si1 0.233304 0.922872 0.212882
Si Si2 0.852344 0.988473 0.504921
Si Si3 0.454687 0.075653 0.846913
Si Si4 0.269714 0.921113 0.890412
Si Si5 0.157202 0.422915 0.606839
Si Si6 0.460075 0.575109 0.735647
Si Si7 0.013267 0.750000 0.485593
Si Si8 0.632617 0.076886 0.686166
O O1 0.208666 0.750000 0.211460
O O2 0.288021 0.959703 0.159611
O O3 0.300482 0.942489 0.262919
O O4 0.142224 0.020923 0.218846
O O5 0.776571 0.940761 0.547275
O O6 0.815325 0.006420 0.445617
O O7 0.933964 0.871459 0.499440
O O8 0.906729 0.127530 0.524453
O O9 0.437100 0.250000 0.842332
O O10 0.546823 0.057847 0.882255
O O11 0.365935 0.989715 0.868343
O O12 0.477556 0.005372 0.790968
O O13 0.264873 0.750000 0.877357
O O14 0.187561 0.009462 0.862638
O O15 0.170638 0.250000 0.597877
O O16 0.464928 0.750000 0.740208
O O17 0.538309 0.511113 0.697192
O O18 0.615941 0.250000 0.680594
#
# Coordination Sequence:
#
# PCOD9464629 Si02
#       8
#     8   8   8   8   8   8   4   8
#     4  10  21  40  62  85 112 155 204 241 291 355
#     4  11  22  37  54  86 122 159 198 241 292 355
#     4  11  21  34  58  85 120 164 201 237 285 354
#     4  12  24  36  56  87 124 160 199 246 297 348
#     4  10  20  37  60  83 116 157 200 243 286 346
#     4  12  24  40  59  87 125 153 194 253 303 344
#     4  10  20  36  56  82 126 160 196 232 290 356
#     4  11  23  41  62  86 115 159 205 242 290 358
#
# _framework density 17.78351
#
# number of rings (size 3 to 8) (size 9 to 14) (size 15 to 20)
#    0.000    1.067    4.000    4.000    3.733    0.533 
#    2.400    0.000    0.000    0.800    0.000    0.000 
#    0.000    0.000    0.000    0.000    0.000    0.000 
#
# Total GULP energy -334016.217743 kJ/mol
# GULP energy per Si atom -5566.936962 kJ/mol
# Density = 1.774303 g / cm^3
# Si number density = 17.783510 Si / 1000 Ang^3
#
#
#
# Elastic Constant Matrix: (Units=GPa)
#
#
# Indices 1 2 3 4 5 6 
#
# 1 53.1595 30.5040 8.3045 0.0000 0.0000 0.0000
# 2 30.5040 110.9361 16.1219 0.0000 0.0000 0.0000
# 3 8.3045 16.1219 61.5998 0.0000 0.0000 0.0000
# 4 0.0000 0.0000 0.0000 618.0477 0.0000 0.0000
# 5 0.0000 0.0000 0.0000 0.0000 23.6867 0.0000
# 6 0.0000 0.0000 0.0000 0.0000 0.0000 25.1345
#
#
#
# Elastic Compliance Matrix: (Units=1/GPa)
#
#
# Indices 1 2 3 4 5 6 
#
# 1 0.022462 -0.005963 -0.001468 0.000000 0.000000 0.000000
# 2 -0.005963 0.010954 -0.002063 0.000000 0.000000 0.000000
# 3 -0.001468 -0.002063 0.016972 0.000000 0.000000 0.000000
# 4 0.000000 0.000000 0.000000 0.001618 0.000000 0.000000
# 5 0.000000 0.000000 0.000000 0.000000 0.042218 0.000000
# 6 0.000000 0.000000 0.000000 0.000000 0.000000 0.039786
#
#
# Mechanical properties :
#
#
# Convention : Reuss Voigt Hill
#
# Bulk Modulus (GPa) = 31.84675 37.28402 34.56538
# Shear Modulus (GPa) = 30.58790 144.75812 87.67301
#
# Velocity S-wave (km/s) = 4.15181 9.03199 7.02903
# Velocity P-wave (km/s) = 6.39767 11.39211 9.23879
#
# Compressibility (1/GPa) = 0.03140038
#
# Stress axis : x y z
#
# Youngs Moduli (GPa) = 44.51886 91.29350 58.92211
#
# Poissons Ratio (x) = 0.54440 0.08647
# Poissons Ratio (y) = 0.26547 0.12155
# Poissons Ratio (z) = 0.06533 0.18833
#
# Static dielectric constant tensor:
#      x y z
#    x 1.582280 0.000000 0.000000 
#    y 0.000000 1.598310 0.000000 
#    z 0.000000 0.000000 1.678510 
# 
# From -- ./inp_files/29689.got.cif
#   From: 2010.05.17/outbox.cif.g08.bks.cpg/sg62_15_cif.got.tgz:29689.got - 2010.06.03 15:25:27.
