data_PCOD9464513
_publ_section_title
;
Structure prediction by ZEFSAII (Michael W. Deem and Ramdas Pophale) SiO2 
 PCOD9464513
Probable space group: P N M A
;
_chemical_formula_sum "Si O2"
_cell_formula_units_Z 40
_cell_length_a 15.438832
_cell_length_b 11.045922
_cell_length_c 12.693362
_cell_angle_alpha 90.000000
_cell_angle_beta 90.000000
_cell_angle_gamma 90.000000
_cell_volume 2164.676883
_symmetry_space_group_name_H-M "P N M A"
_symmetry_group_IT_number 62
_symmetry_cell_setting 'orthorhombic'
loop_
_space_group_symop_operation_xyz
x,y,z
1/2-x,-y,1/2+z
1/2+x,1/2-y,1/2-z
-x,1/2+y,-z
-x,-y,-z
1/2+x,y,1/2-z
1/2-x,1/2+y,1/2+z
x,1/2-y,z
loop_
_atom_site_type_symbol
_atom_site_label
_atom_site_fract_x
_atom_site_fract_y
_atom_site_fract_z
Si Si1 0.274605 0.884968 0.411303
Si Si2 0.509842 0.391004 0.214014
Si Si3 0.153101 0.385061 0.455743
Si Si4 0.664813 0.038683 0.809324
Si Si5 0.161598 0.107972 0.135047
O O1 0.234383 0.750000 0.427498
O O2 0.317101 0.888244 0.296909
O O3 0.341153 0.901731 0.508482
O O4 0.210288 0.999611 0.420473
O O5 0.493099 0.250000 0.236135
O O6 0.561645 0.398538 0.103538
O O7 0.419964 0.459065 0.209798
O O8 0.577589 0.437620 0.302401
O O9 0.186856 0.250000 0.425514
O O10 0.148922 0.390740 0.581865
O O11 0.751239 0.959284 0.829544
O O12 0.169817 0.250000 0.161505
#
# Coordination Sequence:
#
# PCOD9464513 Si02
#       5
#     8   8   8   8   8
#     4  10  21  37  59  85 118 155 192 236 292 341
#     4  10  20  35  58  87 115 152 196 235 283 348
#     4  10  21  38  59  86 120 151 193 240 285 344
#     4  11  20  34  59  84 116 150 193 237 295 332
#     4   9  19  36  55  81 117 151 190 236 281 344
#
# _framework density 18.478508000000001
#
# number of rings (size 3 to 8) (size 9 to 14) (size 15 to 20)
#    0.000    2.000    2.000    1.800    0.000    2.400 
#    0.000    2.000    0.000    0.000    0.000    0.000 
#    0.000    0.000    0.000    0.000    0.000    0.000 
#
# Total GULP energy -222901.073123 kJ/mol
# GULP energy per Si atom -5572.526828 kJ/mol
# Density = 1.843645 g / cm^3
# Si number density = 18.478508 Si / 1000 Ang^3
#
#
#
# Elastic Constant Matrix: (Units=GPa)
#
#
# Indices 1 2 3 4 5 6 
#
# 1 60.3352 43.0587 24.1308 0.0000 0.0000 0.0000
# 2 43.0587 102.5060 25.0480 0.0000 0.0000 0.0000
# 3 24.1308 25.0480 126.3707 0.0000 0.0000 0.0000
# 4 0.0000 0.0000 0.0000 23.0506 0.0000 0.0000
# 5 0.0000 0.0000 0.0000 0.0000 13.6405 0.0000
# 6 0.0000 0.0000 0.0000 0.0000 0.0000 22.8660
#
#
#
# Elastic Compliance Matrix: (Units=1/GPa)
#
#
# Indices 1 2 3 4 5 6 
#
# 1 0.024565 -0.009640 -0.002780 0.000000 0.000000 0.000000
# 2 -0.009640 0.014035 -0.000941 0.000000 0.000000 0.000000
# 3 -0.002780 -0.000941 0.008631 0.000000 0.000000 0.000000
# 4 0.000000 0.000000 0.000000 0.043383 0.000000 0.000000
# 5 0.000000 0.000000 0.000000 0.000000 0.073311 0.000000
# 6 0.000000 0.000000 0.000000 0.000000 0.000000 0.043733
#
#
# Mechanical properties :
#
#
# Convention : Reuss Voigt Hill
#
# Bulk Modulus (GPa) = 48.75908 52.63185 50.69547
# Shear Modulus (GPa) = 20.72835 25.04305 22.88570
#
# Velocity S-wave (km/s) = 3.35289 3.68537 3.52306
# Velocity P-wave (km/s) = 6.43688 6.83036 6.63654
#
# Compressibility (1/GPa) = 0.02050900
#
# Stress axis : x y z
#
# Youngs Moduli (GPa) = 40.70776 71.25200 115.86621
#
# Poissons Ratio (x) = 0.68684 0.32212
# Poissons Ratio (y) = 0.39241 0.10904
# Poissons Ratio (z) = 0.11317 0.06706
#
# Static dielectric constant tensor:
#      x y z
#    x 1.595130 0.000000 0.000000 
#    y 0.000000 1.658690 0.000000 
#    z 0.000000 0.000000 1.680630 
# 
# From -- ./inp_files/12973.got.cif
#   From: 2010.05.17/outbox.cif.g08.bks.cpg/sg62_7_cif.got.tgz:12973.got - 2010.06.03 15:25:27.
