data_PCOD9464628
_publ_section_title
;
Structure prediction by ZEFSAII (Michael W. Deem and Ramdas Pophale) SiO2 
 PCOD9464628
Probable space group: P N M A
;
_chemical_formula_sum "Si O2"
_cell_formula_units_Z 48
_cell_length_a 18.384699
_cell_length_b 8.457352
_cell_length_c 15.908096
_cell_angle_alpha 90.000000
_cell_angle_beta 90.000000
_cell_angle_gamma 90.000000
_cell_volume 2473.484160
_symmetry_space_group_name_H-M "P N M A"
_symmetry_group_IT_number 62
_symmetry_cell_setting 'orthorhombic'
loop_
_space_group_symop_operation_xyz
x,y,z
1/2-x,-y,1/2+z
1/2+x,1/2-y,1/2-z
-x,1/2+y,-z
-x,-y,-z
1/2+x,y,1/2-z
1/2-x,1/2+y,1/2+z
x,1/2-y,z
loop_
_atom_site_type_symbol
_atom_site_label
_atom_site_fract_x
_atom_site_fract_y
_atom_site_fract_z
Si Si1 0.959789 0.058429 0.749027
Si Si2 0.791799 0.057200 0.751617
Si Si3 0.710573 0.058485 0.581537
Si Si4 0.540560 0.938122 0.917091
Si Si5 0.042444 0.058917 0.918330
Si Si6 0.205306 0.439830 0.582237
O O1 0.960712 0.250000 0.747084
O O2 0.875744 0.006381 0.751806
O O3 0.002182 0.007048 0.833002
O O4 0.999347 0.998327 0.665797
O O5 0.791836 0.250000 0.752025
O O6 0.750474 0.006891 0.667117
O O7 0.749069 0.005784 0.834896
O O8 0.711789 0.250000 0.579863
O O9 0.626472 0.007013 0.580681
O O10 0.753097 0.996429 0.500731
O O11 0.540024 0.750000 0.918440
O O12 0.623340 0.997771 0.916501
O O13 0.500000 0.000000 0.000000
O O14 0.041824 0.250000 0.918859
O O15 0.000000 0.000000 0.000000
O O16 0.203278 0.250000 0.583143
#
# Coordination Sequence:
#
# PCOD9464628 Si02
#       6
#     8   8   8   8   8   8
#     4  10  20  38  62  88 117 155 198 241 289 347
#     4   9  19  36  60  84 112 149 190 233 285 344
#     4  10  20  36  56  82 115 153 192 238 292 346
#     4  12  25  41  61  88 119 154 194 242 296 353
#     4  10  21  36  57  84 119 159 200 244 294 347
#     4  11  22  39  62  88 116 152 195 240 290 349
#
# _framework density 19.405823999999999
#
# number of rings (size 3 to 8) (size 9 to 14) (size 15 to 20)
#    0.000    1.667    0.000    5.000    0.000    6.667 
#    0.000    5.000    0.000    0.000    0.000    0.000 
#    0.000    0.000    0.000    0.000    0.000    0.000 
#
# Total GULP energy -268385.168912 kJ/mol
# GULP energy per Si atom -5591.357686 kJ/mol
# Density = 1.936166 g / cm^3
# Si number density = 19.405824 Si / 1000 Ang^3
#
#
#
# Elastic Constant Matrix: (Units=GPa)
#
#
# Indices 1 2 3 4 5 6 
#
# 1 243.3251 39.0405 147.3404 0.0000 0.0000 0.0000
# 2 39.0405 32.5289 36.4326 0.0000 0.0000 0.0000
# 3 147.3404 36.4326 239.7431 0.0000 0.0000 0.0000
# 4 0.0000 0.0000 0.0000 35.7912 0.0000 0.0000
# 5 0.0000 0.0000 0.0000 0.0000 47.0594 0.0000
# 6 0.0000 0.0000 0.0000 0.0000 0.0000 25.4760
#
#
#
# Elastic Compliance Matrix: (Units=1/GPa)
#
#
# Indices 1 2 3 4 5 6 
#
# 1 0.007017 -0.004329 -0.003655 0.000000 0.000000 0.000000
# 2 -0.004329 0.039717 -0.003375 0.000000 0.000000 0.000000
# 3 -0.003655 -0.003375 0.006930 0.000000 0.000000 0.000000
# 4 0.000000 0.000000 0.000000 0.027940 0.000000 0.000000
# 5 0.000000 0.000000 0.000000 0.000000 0.021250 0.000000
# 6 0.000000 0.000000 0.000000 0.000000 0.000000 0.039253
#
#
# Mechanical properties :
#
#
# Convention : Reuss Voigt Hill
#
# Bulk Modulus (GPa) = 32.31300 106.80270 69.55785
# Shear Modulus (GPa) = 28.54841 41.18421 34.86631
#
# Velocity S-wave (km/s) = 3.83969 4.61180 4.24334
# Velocity P-wave (km/s) = 6.02868 9.13861 7.74142
#
# Compressibility (1/GPa) = 0.03094729
#
# Stress axis : x y z
#
# Youngs Moduli (GPa) = 142.50294 25.17783 144.29360
#
# Poissons Ratio (x) = 0.10898 0.52738
# Poissons Ratio (y) = 0.61684 0.48705
# Poissons Ratio (z) = 0.52084 0.08499
#
# Static dielectric constant tensor:
#      x y z
#    x 1.661370 0.000000 0.000000 
#    y 0.000000 1.675140 0.000000 
#    z 0.000000 0.000000 1.643880 
# 
# From -- ./inp_files/19531.got.cif
#   From: 2010.05.17/outbox.cif.g08.bks.cpg/sg62_10_cif.got.tgz:19531.got - 2010.06.03 15:25:27.
