data_PCOD9464397
_publ_section_title
;
Structure prediction by ZEFSAII (Michael W. Deem and Ramdas Pophale) SiO2 
 PCOD9464397
Probable space group: P N M A
;
_chemical_formula_sum "Si O2"
_cell_formula_units_Z 56
_cell_length_a 11.697593
_cell_length_b 10.565638
_cell_length_c 24.159049
_cell_angle_alpha 90.000000
_cell_angle_beta 90.000000
_cell_angle_gamma 90.000000
_cell_volume 2985.878063
_symmetry_space_group_name_H-M "P N M A"
_symmetry_group_IT_number 62
_symmetry_cell_setting 'orthorhombic'
loop_
_space_group_symop_operation_xyz
x,y,z
1/2-x,-y,1/2+z
1/2+x,1/2-y,1/2-z
-x,1/2+y,-z
-x,-y,-z
1/2+x,y,1/2-z
1/2-x,1/2+y,1/2+z
x,1/2-y,z
loop_
_atom_site_type_symbol
_atom_site_label
_atom_site_fract_x
_atom_site_fract_y
_atom_site_fract_z
Si Si1 0.246936 0.403704 0.041162
Si Si2 0.020330 0.610404 0.219923
Si Si3 0.195079 0.099955 0.917383
Si Si4 0.846995 0.005356 0.682601
Si Si5 0.157797 0.891262 0.750020
Si Si6 0.570547 0.899193 0.406166
Si Si7 0.576224 0.602876 0.868310
O O1 0.224824 0.250000 0.048072
O O2 0.150406 0.496598 0.065618
O O3 0.360757 0.435896 0.075765
O O4 0.253601 0.430634 0.975883
O O5 0.964793 0.750000 0.219742
O O6 0.928029 0.499426 0.228409
O O7 0.109191 0.602211 0.270558
O O8 0.079759 0.595013 0.160512
O O9 0.198491 0.250000 0.911085
O O10 0.258741 0.045946 0.864375
O O11 0.061180 0.066762 0.919606
O O12 0.778654 0.903465 0.719526
O O13 0.961115 0.964518 0.650609
O O14 0.110306 0.750000 0.759420
O O15 0.163108 0.909497 0.683751
O O16 0.590868 0.750000 0.422163
O O17 0.547668 0.750000 0.873922
#
# Coordination Sequence:
#
# PCOD9464397 Si02
#       7
#     8   8   8   8   8   8   8
#     4  10  21  39  60  82 112 157 198 237 287 341
#     4  10  21  35  57  85 116 151 186 235 292 346
#     4  10  21  37  58  83 117 153 192 239 289 341
#     4  11  20  35  58  86 117 153 193 229 292 353
#     4  10  20  35  56  82 114 149 187 235 285 342
#     4  10  20  38  59  85 116 148 190 248 292 333
#     4   9  20  37  56  82 116 149 190 240 287 339
#
# _framework density 18.754953
#
# number of rings (size 3 to 8) (size 9 to 14) (size 15 to 20)
#    0.000    2.000    1.429    2.143    0.000    2.286 
#    0.000    6.429    0.000    0.000    0.000    0.000 
#    0.000    0.000    0.000    0.000    0.000    0.000 
#
# Total GULP energy -312070.464967 kJ/mol
# GULP energy per Si atom -5572.686874 kJ/mol
# Density = 1.871227 g / cm^3
# Si number density = 18.754953 Si / 1000 Ang^3
#
#
#
# Elastic Constant Matrix: (Units=GPa)
#
#
# Indices 1 2 3 4 5 6 
#
# 1 44.6873 21.1973 8.1689 0.0000 0.0000 0.0000
# 2 21.1973 66.3367 20.0109 0.0000 0.0000 0.0000
# 3 8.1689 20.0109 59.9601 0.0000 0.0000 0.0000
# 4 0.0000 0.0000 0.0000 20.4236 0.0000 0.0000
# 5 0.0000 0.0000 0.0000 0.0000 22.6236 0.0000
# 6 0.0000 0.0000 0.0000 0.0000 0.0000 55.7015
#
#
#
# Elastic Compliance Matrix: (Units=1/GPa)
#
#
# Indices 1 2 3 4 5 6 
#
# 1 0.026416 -0.008179 -0.000869 0.000000 0.000000 0.000000
# 2 -0.008179 0.019294 -0.005325 0.000000 0.000000 0.000000
# 3 -0.000869 -0.005325 0.018573 0.000000 0.000000 0.000000
# 4 0.000000 0.000000 0.000000 0.048963 0.000000 0.000000
# 5 0.000000 0.000000 0.000000 0.000000 0.044202 0.000000
# 6 0.000000 0.000000 0.000000 0.000000 0.000000 0.017953
#
#
# Mechanical properties :
#
#
# Convention : Reuss Voigt Hill
#
# Bulk Modulus (GPa) = 28.13913 29.97091 29.05502
# Shear Modulus (GPa) = 23.14884 27.85689 25.50286
#
# Velocity S-wave (km/s) = 3.51704 3.85815 3.69154
# Velocity P-wave (km/s) = 5.61506 5.98849 5.80478
#
# Compressibility (1/GPa) = 0.03553770
#
# Stress axis : x y z
#
# Youngs Moduli (GPa) = 37.85545 51.82857 53.84065
#
# Poissons Ratio (x) = 0.42390 0.04681
# Poissons Ratio (y) = 0.30961 0.28670
# Poissons Ratio (z) = 0.03291 0.27598
#
# Static dielectric constant tensor:
#      x y z
#    x 1.676640 0.000000 0.000000 
#    y 0.000000 1.687620 0.000000 
#    z 0.000000 0.000000 1.664270 
# 
# From -- ./inp_files/26629.got.cif
#   From: 2010.05.17/outbox.cif.g08.bks.cpg/sg62_14_cif.got.tgz:26629.got - 2010.06.03 15:25:27.
