data_PCOD9464781
_publ_section_title
;
Structure prediction by ZEFSAII (Michael W. Deem and Ramdas Pophale) SiO2 
 PCOD9464781
Probable space group: P N M A
;
_chemical_formula_sum "Si O2"
_cell_formula_units_Z 48
_cell_length_a 19.497195
_cell_length_b 8.499239
_cell_length_c 15.568559
_cell_angle_alpha 90.000000
_cell_angle_beta 90.000000
_cell_angle_gamma 90.000000
_cell_volume 2579.886464
_symmetry_space_group_name_H-M "P N M A"
_symmetry_group_IT_number 62
_symmetry_cell_setting 'orthorhombic'
loop_
_space_group_symop_operation_xyz
x,y,z
1/2-x,-y,1/2+z
1/2+x,1/2-y,1/2-z
-x,1/2+y,-z
-x,-y,-z
1/2+x,y,1/2-z
1/2-x,1/2+y,1/2+z
x,1/2-y,z
loop_
_atom_site_type_symbol
_atom_site_label
_atom_site_fract_x
_atom_site_fract_y
_atom_site_fract_z
Si Si1 0.078750 0.440318 0.224564
Si Si2 0.675293 0.938355 0.126162
Si Si3 0.424943 0.058486 0.220774
Si Si4 0.924917 0.059612 0.473694
Si Si5 0.074718 0.061301 0.027525
Si Si6 0.170501 0.938623 0.877273
O O1 0.081762 0.250000 0.229228
O O2 0.134211 0.509246 0.289319
O O3 0.089216 0.487570 0.125687
O O4 0.002193 0.489091 0.253761
O O5 0.678984 0.750000 0.123420
O O6 0.751495 0.005888 0.124735
O O7 0.630792 0.992683 0.043693
O O8 0.424135 0.250000 0.221493
O O9 0.409227 0.007653 0.123661
O O10 0.371363 0.005367 0.292898
O O11 0.926401 0.250000 0.474378
O O12 0.000000 0.000000 0.500000
O O13 0.073398 0.250000 0.025458
O O14 0.130690 0.999980 0.960796
O O15 0.000000 0.000000 0.000000
O O16 0.168250 0.750000 0.877840
#
# Coordination Sequence:
#
# PCOD9464781 Si02
#       6
#     8   8   8   8   8   8
#     4  10  20  38  63  87 115 157 202 243 295 362
#     4  11  24  39  57  91 127 156 194 251 306 352
#     4   9  18  36  61  86 112 150 201 241 287 356
#     4  10  20  36  60  86 116 150 193 242 291 351
#     4  11  22  38  62  91 121 156 202 253 304 361
#     4  11  23  41  62  87 120 163 203 245 302 362
#
# _framework density 18.60547
#
# number of rings (size 3 to 8) (size 9 to 14) (size 15 to 20)
#    0.000    1.667    3.333    1.500    0.000    3.333 
#    0.000    5.000    0.000    0.000    0.000    0.000 
#    0.000    0.000    0.000    0.000    0.000    0.000 
#
# Total GULP energy -268160.797399 kJ/mol
# GULP energy per Si atom -5586.683279 kJ/mol
# Density = 1.856312 g / cm^3
# Si number density = 18.605470 Si / 1000 Ang^3
#
#
#
# Elastic Constant Matrix: (Units=GPa)
#
#
# Indices 1 2 3 4 5 6 
#
# 1 181.1913 32.7360 115.4230 0.0000 0.0000 0.0000
# 2 32.7360 29.8861 39.5217 0.0000 0.0000 0.0000
# 3 115.4230 39.5217 219.6171 0.0000 0.0000 0.0000
# 4 0.0000 0.0000 0.0000 27.9187 0.0000 0.0000
# 5 0.0000 0.0000 0.0000 0.0000 35.4097 0.0000
# 6 0.0000 0.0000 0.0000 0.0000 0.0000 34.0153
#
#
#
# Elastic Compliance Matrix: (Units=1/GPa)
#
#
# Indices 1 2 3 4 5 6 
#
# 1 0.008753 -0.004599 -0.003773 0.000000 0.000000 0.000000
# 2 -0.004599 0.046326 -0.005920 0.000000 0.000000 0.000000
# 3 -0.003773 -0.005920 0.007602 0.000000 0.000000 0.000000
# 4 0.000000 0.000000 0.000000 0.035818 0.000000 0.000000
# 5 0.000000 0.000000 0.000000 0.000000 0.028241 0.000000
# 6 0.000000 0.000000 0.000000 0.000000 0.000000 0.029399
#
#
# Mechanical properties :
#
#
# Convention : Reuss Voigt Hill
#
# Bulk Modulus (GPa) = 29.32707 89.56174 59.44441
# Shear Modulus (GPa) = 25.49884 35.66965 30.58425
#
# Velocity S-wave (km/s) = 3.70605 4.38329 4.05882
# Velocity P-wave (km/s) = 5.84036 8.59415 7.34742
#
# Compressibility (1/GPa) = 0.03409819
#
# Stress axis : x y z
#
# Youngs Moduli (GPa) = 114.24304 21.58613 131.55202
#
# Poissons Ratio (x) = 0.09927 0.49632
# Poissons Ratio (y) = 0.52537 0.77876
# Poissons Ratio (z) = 0.43102 0.12778
#
# Static dielectric constant tensor:
#      x y z
#    x 1.597910 0.000000 0.000000 
#    y 0.000000 1.604090 0.000000 
#    z 0.000000 0.000000 1.643800 
# 
# From -- ./inp_files/19636.got.cif
#   From: 2010.05.17/outbox.cif.g08.bks.cpg/sg62_10_cif.got.tgz:19636.got - 2010.06.03 15:25:27.
