data_PCOD9464499
_publ_section_title
;
Structure prediction by ZEFSAII (Michael W. Deem and Ramdas Pophale) SiO2 
 PCOD9464499
Probable space group: P N M A
;
_chemical_formula_sum "Si O2"
_cell_formula_units_Z 40
_cell_length_a 13.377584
_cell_length_b 12.342491
_cell_length_c 10.545111
_cell_angle_alpha 90.000000
_cell_angle_beta 90.000000
_cell_angle_gamma 90.000000
_cell_volume 1741.131856
_symmetry_space_group_name_H-M "P N M A"
_symmetry_group_IT_number 62
_symmetry_cell_setting 'orthorhombic'
loop_
_space_group_symop_operation_xyz
x,y,z
1/2-x,-y,1/2+z
1/2+x,1/2-y,1/2-z
-x,1/2+y,-z
-x,-y,-z
1/2+x,y,1/2-z
1/2-x,1/2+y,1/2+z
x,1/2-y,z
loop_
_atom_site_type_symbol
_atom_site_label
_atom_site_fract_x
_atom_site_fract_y
_atom_site_fract_z
Si Si1 0.557765 0.120952 0.003122
Si Si2 0.397399 0.862929 0.505269
Si Si3 0.884879 0.094749 0.084670
Si Si4 0.753439 0.130769 0.834071
Si Si5 0.202784 0.407981 0.261838
O O1 0.516422 0.250000 0.990729
O O2 0.618507 0.123156 0.136832
O O3 0.643521 0.112450 0.894155
O O4 0.500000 0.000000 0.000000
O O5 0.387516 0.750000 0.436216
O O6 0.503430 0.864978 0.577385
O O7 0.319052 0.873946 0.618833
O O8 0.394099 0.964907 0.414937
O O9 0.811086 0.131307 0.193655
O O10 0.828667 0.123817 0.954335
O O11 0.761340 0.250000 0.779872
O O12 0.789498 0.037995 0.740629
#
# Coordination Sequence:
#
# PCOD9464499 Si02
#       5
#     8   8   8   8   8
#     4  10  22  40  60  89 128 164 204 253 306 369
#     4  10  20  35  58  85 109 149 197 235 289 354
#     4   9  20  37  56  81 119 148 188 250 293 341
#     4   9  19  37  59  83 117 161 202 247 305 361
#     4  10  21  37  59  87 118 154 198 249 298 358
#
# _framework density 22.973561
#
# number of rings (size 3 to 8) (size 9 to 14) (size 15 to 20)
#    0.000    2.400    0.000    1.200    2.800    4.000 
#    0.000    9.000    0.000    0.000    0.000    0.000 
#    0.000    0.000    0.000    0.000    0.000    0.000 
#
# Total GULP energy -222958.727432 kJ/mol
# GULP energy per Si atom -5573.968186 kJ/mol
# Density = 2.292127 g / cm^3
# Si number density = 22.973561 Si / 1000 Ang^3
#
#
#
# Elastic Constant Matrix: (Units=GPa)
#
#
# Indices 1 2 3 4 5 6 
#
# 1 76.9869 23.2164 7.8446 0.0000 0.0000 0.0000
# 2 23.2164 240.7457 6.6527 0.0000 0.0000 0.0000
# 3 7.8446 6.6527 27.2824 0.0000 0.0000 0.0000
# 4 0.0000 0.0000 0.0000 -10.0362 0.0000 0.0000
# 5 0.0000 0.0000 0.0000 0.0000 9.5431 0.0000
# 6 0.0000 0.0000 0.0000 0.0000 0.0000 -24.3213
#
#
#
# Elastic Compliance Matrix: (Units=1/GPa)
#
#
# Indices 1 2 3 4 5 6 
#
# 1 0.013730 -0.001223 -0.003650 0.000000 0.000000 0.000000
# 2 -0.001223 0.004291 -0.000695 0.000000 0.000000 0.000000
# 3 -0.003650 -0.000695 0.037872 0.000000 0.000000 0.000000
# 4 0.000000 0.000000 0.000000 -0.099639 0.000000 0.000000
# 5 0.000000 0.000000 0.000000 0.000000 0.104787 0.000000
# 6 0.000000 0.000000 0.000000 0.000000 0.000000 -0.041116
#
#
# Mechanical properties :
#
#
# Convention : Reuss Voigt Hill
#
# Bulk Modulus (GPa) = 22.34208 46.71582 34.52895
# Shear Modulus (GPa) = 108.74391 15.52388 62.13390
#
# Velocity S-wave (km/s) = 6.88746 2.60230 5.20620
# Velocity P-wave (km/s) = 8.54375 5.42292 7.15555
#
# Compressibility (1/GPa) = 0.04475859
#
# Stress axis : x y z
#
# Youngs Moduli (GPa) = 72.83339 233.05048 26.40441
#
# Poissons Ratio (x) = 0.28507 0.09636
# Poissons Ratio (y) = 0.08909 0.01834
# Poissons Ratio (z) = 0.26581 0.16188
#
# Static dielectric constant tensor:
#      x y z
#    x 1.847530 0.000000 0.000000 
#    y 0.000000 1.996130 0.000000 
#    z 0.000000 0.000000 1.824620 
# 
# From -- ./inp_files/12995.got.cif
#   From: 2010.05.17/outbox.cif.g08.bks.cpg/sg62_7_cif.got.tgz:12995.got - 2010.06.03 15:25:27.
