data_PCOD9464671
_publ_section_title
;
Structure prediction by ZEFSAII (Michael W. Deem and Ramdas Pophale) SiO2 
 PCOD9464671
Probable space group: P N M A
;
_chemical_formula_sum "Si O2"
_cell_formula_units_Z 56
_cell_length_a 19.703587
_cell_length_b 7.642041
_cell_length_c 14.310723
_cell_angle_alpha 90.000000
_cell_angle_beta 90.000000
_cell_angle_gamma 90.000000
_cell_volume 2154.845984
_symmetry_space_group_name_H-M "P N M A"
_symmetry_group_IT_number 62
_symmetry_cell_setting 'orthorhombic'
loop_
_space_group_symop_operation_xyz
x,y,z
1/2-x,-y,1/2+z
1/2+x,1/2-y,1/2-z
-x,1/2+y,-z
-x,-y,-z
1/2+x,y,1/2-z
1/2-x,1/2+y,1/2+z
x,1/2-y,z
loop_
_atom_site_type_symbol
_atom_site_label
_atom_site_fract_x
_atom_site_fract_y
_atom_site_fract_z
Si Si1 0.782418 0.536035 0.062870
Si Si2 0.141967 0.460659 0.221286
Si Si3 0.289786 0.541876 0.221330
Si Si4 0.633387 0.455269 0.067991
Si Si5 0.075560 0.037573 0.615432
Si Si6 0.074155 0.444697 0.966764
Si Si7 0.495200 0.454821 0.294989
O O1 0.781599 0.750000 0.060097
O O2 0.786431 0.477289 0.171642
O O3 0.709900 0.471660 0.027095
O O4 0.852663 0.470035 0.017409
O O5 0.138672 0.250000 0.224207
O O6 0.215142 0.504256 0.180271
O O7 0.138222 0.531825 0.328128
O O8 0.070609 0.518252 0.177478
O O9 0.297070 0.750000 0.225131
O O10 0.354945 0.474877 0.166199
O O11 0.618397 0.250000 0.078850
O O12 0.581523 0.527201 0.991015
O O13 0.074616 0.250000 0.613772
O O14 0.016370 0.977739 0.684570
O O15 0.082607 0.250000 0.002825
O O16 0.061787 0.447076 0.854385
O O17 0.000000 0.500000 0.000000
O O18 0.488009 0.250000 0.316861
#
# Coordination Sequence:
#
# PCOD9464671 Si02
#       7
#     8   8   8   8   8   8   8
#     4   9  18  35  56  77 108 141 178 232 284 334
#     4   9  20  37  54  80 116 150 190 239 287 340
#     4   9  17  33  56  79 103 141 189 234 286 343
#     4   9  19  35  57  83 112 148 190 238 287 338
#     4  10  20  36  57  83 114 148 192 240 287 341
#     4  11  23  40  60  85 117 150 189 238 290 347
#     4  11  23  38  57  83 117 156 195 235 287 348
#
# _framework density 25.987938
#
# number of rings (size 3 to 8) (size 9 to 14) (size 15 to 20)
#    0.000    2.286    1.429    0.857    0.000    5.143 
#    0.000    2.857    0.000    0.000    0.000    0.000 
#    0.000    0.000    0.000    0.000    0.000    0.000 
#
# Total GULP energy -313009.691102 kJ/mol
# GULP energy per Si atom -5589.458770 kJ/mol
# Density = 2.592879 g / cm^3
# Si number density = 25.987938 Si / 1000 Ang^3
#
#
#
# Elastic Constant Matrix: (Units=GPa)
#
#
# Indices 1 2 3 4 5 6 
#
# 1 137.0005 -13.4836 7.1554 0.0000 0.0000 0.0000
# 2 -13.4836 54.7493 -1.5563 0.0000 0.0000 0.0000
# 3 7.1554 -1.5563 66.8114 0.0000 0.0000 0.0000
# 4 0.0000 0.0000 0.0000 10.8103 0.0000 0.0000
# 5 0.0000 0.0000 0.0000 0.0000 45.2510 0.0000
# 6 0.0000 0.0000 0.0000 0.0000 0.0000 25.5919
#
#
#
# Elastic Compliance Matrix: (Units=1/GPa)
#
#
# Indices 1 2 3 4 5 6 
#
# 1 0.007519 0.001830 -0.000763 0.000000 0.000000 0.000000
# 2 0.001830 0.018723 0.000240 0.000000 0.000000 0.000000
# 3 -0.000763 0.000240 0.015055 0.000000 0.000000 0.000000
# 4 0.000000 0.000000 0.000000 0.092504 0.000000 0.000000
# 5 0.000000 0.000000 0.000000 0.000000 0.022099 0.000000
# 6 0.000000 0.000000 0.000000 0.000000 0.000000 0.039075
#
#
# Mechanical properties :
#
#
# Convention : Reuss Voigt Hill
#
# Bulk Modulus (GPa) = 22.77292 26.97691 24.87492
# Shear Modulus (GPa) = 24.15500 34.09369 29.12435
#
# Velocity S-wave (km/s) = 3.05203 3.62595 3.35130
# Velocity P-wave (km/s) = 4.60453 5.28518 4.95655
#
# Compressibility (1/GPa) = 0.04391180
#
# Stress axis : x y z
#
# Youngs Moduli (GPa) = 132.99289 53.41132 66.42407
#
# Poissons Ratio (x) = -0.09775 0.05066
# Poissons Ratio (y) = -0.24340 -0.01595
# Poissons Ratio (z) = 0.10143 -0.01283
#
# Static dielectric constant tensor:
#      x y z
#    x 2.043570 0.000000 0.000000 
#    y 0.000000 1.961580 0.000000 
#    z 0.000000 0.000000 2.156890 
# 
# From -- ./inp_files/20306.got.cif
#   From: 2010.05.17/outbox.cif.g08.bks.cpg/sg62_11_cif.got.tgz:20306.got - 2010.06.03 15:25:27.
