data_PCOD9464541
_publ_section_title
;
Structure prediction by ZEFSAII (Michael W. Deem and Ramdas Pophale) SiO2 
 PCOD9464541
Probable space group: P N M A
;
_chemical_formula_sum "Si O2"
_cell_formula_units_Z 64
_cell_length_a 21.535893
_cell_length_b 8.772057
_cell_length_c 15.362566
_cell_angle_alpha 90.000000
_cell_angle_beta 90.000000
_cell_angle_gamma 90.000000
_cell_volume 2902.205037
_symmetry_space_group_name_H-M "P N M A"
_symmetry_group_IT_number 62
_symmetry_cell_setting 'orthorhombic'
loop_
_space_group_symop_operation_xyz
x,y,z
1/2-x,-y,1/2+z
1/2+x,1/2-y,1/2-z
-x,1/2+y,-z
-x,-y,-z
1/2+x,y,1/2-z
1/2-x,1/2+y,1/2+z
x,1/2-y,z
loop_
_atom_site_type_symbol
_atom_site_label
_atom_site_fract_x
_atom_site_fract_y
_atom_site_fract_z
Si Si1 0.233134 0.069202 0.245051
Si Si2 0.806544 0.566335 0.938073
Si Si3 0.303665 0.935586 0.941976
Si Si4 0.006452 0.930625 0.267929
Si Si5 0.944827 0.568573 0.557825
Si Si6 0.869269 0.081726 0.085307
Si Si7 0.488700 0.918075 0.591427
Si Si8 0.640592 0.423599 0.754681
O O1 0.227256 0.250000 0.249030
O O2 0.193573 0.016373 0.162293
O O3 0.213223 0.016890 0.341853
O O4 0.303666 0.030383 0.214787
O O5 0.809119 0.750000 0.943327
O O6 0.746376 0.506783 0.992010
O O7 0.861915 0.482634 0.989108
O O8 0.301361 0.750000 0.947249
O O9 0.374456 0.981937 0.963946
O O10 0.014995 0.750000 0.277680
O O11 0.931211 0.956947 0.277199
O O12 0.031817 0.983513 0.173845
O O13 0.040852 0.021506 0.343259
O O14 0.946657 0.750000 0.548457
O O15 0.000000 0.500000 0.500000
O O16 0.838171 0.250000 0.094453
O O17 0.939001 0.105665 0.113649
O O18 0.849653 0.948719 0.150888
O O19 0.458877 0.750000 0.584432
O O20 0.500000 0.000000 0.500000
O O21 0.652971 0.250000 0.780211
#
# Coordination Sequence:
#
# PCOD9464541 Si02
#       8
#     8   8   8   8   8   8   8   8
#     4  10  22  39  60  88 122 160 199 250 315 375
#     4  11  23  37  59  93 124 160 205 253 312 377
#     4  10  23  44  65  88 126 170 210 261 317 375
#     4  10  22  40  61  89 123 159 206 264 315 374
#     4  11  25  44  66  92 124 171 222 268 323 379
#     4  10  20  36  57  83 119 159 197 245 306 365
#     4  10  21  37  60  90 123 164 208 255 312 375
#     4  10  20  35  59  88 116 150 199 253 308 365
#
# _framework density 22.052199000000002
#
# number of rings (size 3 to 8) (size 9 to 14) (size 15 to 20)
#    0.000    1.750    1.250    2.250    1.750    6.000 
#    0.000    1.250    0.000    0.000    0.000    0.000 
#    0.000    0.000    0.000    0.000    0.000    0.000 
#
# Total GULP energy -356775.895333 kJ/mol
# GULP energy per Si atom -5574.623365 kJ/mol
# Density = 2.200201 g / cm^3
# Si number density = 22.052199 Si / 1000 Ang^3
#
#
#
# Elastic Constant Matrix: (Units=GPa)
#
#
# Indices 1 2 3 4 5 6 
#
# 1 77.8068 15.8538 6.7492 0.0000 0.0000 0.0000
# 2 15.8538 40.7371 8.7686 0.0000 0.0000 0.0000
# 3 6.7492 8.7686 74.5031 0.0000 0.0000 0.0000
# 4 0.0000 0.0000 0.0000 27.1251 0.0000 0.0000
# 5 0.0000 0.0000 0.0000 0.0000 25.2744 0.0000
# 6 0.0000 0.0000 0.0000 0.0000 0.0000 21.2136
#
#
#
# Elastic Compliance Matrix: (Units=1/GPa)
#
#
# Indices 1 2 3 4 5 6 
#
# 1 0.013989 -0.005306 -0.000643 0.000000 0.000000 0.000000
# 2 -0.005306 0.027198 -0.002720 0.000000 0.000000 0.000000
# 3 -0.000643 -0.002720 0.013801 0.000000 0.000000 0.000000
# 4 0.000000 0.000000 0.000000 0.036866 0.000000 0.000000
# 5 0.000000 0.000000 0.000000 0.000000 0.039566 0.000000
# 6 0.000000 0.000000 0.000000 0.000000 0.000000 0.047140
#
#
# Mechanical properties :
#
#
# Convention : Reuss Voigt Hill
#
# Bulk Modulus (GPa) = 26.56053 28.42111 27.49082
# Shear Modulus (GPa) = 23.98682 25.50097 24.74389
#
# Velocity S-wave (km/s) = 3.30165 3.40426 3.35335
# Velocity P-wave (km/s) = 5.15801 5.32617 5.24277
#
# Compressibility (1/GPa) = 0.03764985
#
# Stress axis : x y z
#
# Youngs Moduli (GPa) = 71.48363 36.76722 72.46020
#
# Poissons Ratio (x) = 0.19508 0.04658
# Poissons Ratio (y) = 0.37928 0.19712
# Poissons Ratio (z) = 0.04595 0.10002
#
# Static dielectric constant tensor:
#      x y z
#    x 1.947360 0.000000 0.000000 
#    y 0.000000 1.784320 0.000000 
#    z 0.000000 0.000000 1.831940 
# 
# From -- ./inp_files/20924.got.cif
#   From: 2010.05.17/outbox.cif.g08.bks.cpg/sg62_11_cif.got.tgz:20924.got - 2010.06.03 15:25:27.
