data_PCOD9464709
_publ_section_title
;
Structure prediction by ZEFSAII (Michael W. Deem and Ramdas Pophale) SiO2 
 PCOD9464709
Probable space group: P N M A
;
_chemical_formula_sum "Si O2"
_cell_formula_units_Z 40
_cell_length_a 13.795022
_cell_length_b 8.675366
_cell_length_c 18.411129
_cell_angle_alpha 90.000000
_cell_angle_beta 90.000000
_cell_angle_gamma 90.000000
_cell_volume 2203.386197
_symmetry_space_group_name_H-M "P N M A"
_symmetry_group_IT_number 62
_symmetry_cell_setting 'orthorhombic'
loop_
_space_group_symop_operation_xyz
x,y,z
1/2-x,-y,1/2+z
1/2+x,1/2-y,1/2-z
-x,1/2+y,-z
-x,-y,-z
1/2+x,y,1/2-z
1/2-x,1/2+y,1/2+z
x,1/2-y,z
loop_
_atom_site_type_symbol
_atom_site_label
_atom_site_fract_x
_atom_site_fract_y
_atom_site_fract_z
Si Si1 0.591874 0.435452 0.172298
Si Si2 0.875367 0.064911 0.375528
Si Si3 0.201205 0.064887 0.476223
Si Si4 0.677400 0.566561 0.319735
Si Si5 0.099301 0.434252 0.031730
O O1 0.597680 0.250000 0.182179
O O2 0.479966 0.475175 0.156621
O O3 0.653765 0.475199 0.100677
O O4 0.633012 0.516643 0.243329
O O5 0.866398 0.250000 0.377800
O O6 0.861723 0.000416 0.456900
O O7 0.786701 0.996213 0.329407
O O8 0.205408 0.250000 0.482499
O O9 0.308432 0.996625 0.486662
O O10 0.677461 0.750000 0.327901
O O11 0.617406 0.492695 0.386267
O O12 0.098689 0.250000 0.030512
O O13 0.000000 0.500000 0.000000
#
# Coordination Sequence:
#
# PCOD9464709 Si02
#       5
#     8   8   8   8   8
#     4  10  22  38  58  84 114 150 186 227 280 332
#     4  10  20  37  59  81 111 148 184 226 278 332
#     4  10  20  36  58  85 115 146 186 230 275 331
#     4  11  23  38  57  83 114 147 186 232 279 328
#     4  11  22  39  61  83 112 149 189 231 279 333
#
# _framework density 18.153874999999999
#
# number of rings (size 3 to 8) (size 9 to 14) (size 15 to 20)
#    0.000    1.600    0.000    7.800    0.000    4.800 
#    0.000    2.000    0.000    0.000    0.000    0.000 
#    0.000    0.000    0.000    0.000    0.000    0.000 
#
# Total GULP energy -223583.224060 kJ/mol
# GULP energy per Si atom -5589.580602 kJ/mol
# Density = 1.811256 g / cm^3
# Si number density = 18.153875 Si / 1000 Ang^3
#
#
#
# Elastic Constant Matrix: (Units=GPa)
#
#
# Indices 1 2 3 4 5 6 
#
# 1 141.8527 76.9048 122.9806 0.0000 0.0000 0.0000
# 2 76.9048 116.8503 76.7478 0.0000 0.0000 0.0000
# 3 122.9806 76.7478 142.7490 0.0000 0.0000 0.0000
# 4 0.0000 0.0000 0.0000 35.8946 0.0000 0.0000
# 5 0.0000 0.0000 0.0000 0.0000 17.7708 0.0000
# 6 0.0000 0.0000 0.0000 0.0000 0.0000 27.8421
#
#
#
# Elastic Compliance Matrix: (Units=1/GPa)
#
#
# Indices 1 2 3 4 5 6 
#
# 1 0.029100 -0.004152 -0.022838 0.000000 0.000000 0.000000
# 2 -0.004152 0.013822 -0.003854 0.000000 0.000000 0.000000
# 3 -0.022838 -0.003854 0.028753 0.000000 0.000000 0.000000
# 4 0.000000 0.000000 0.000000 0.027859 0.000000 0.000000
# 5 0.000000 0.000000 0.000000 0.000000 0.056272 0.000000
# 6 0.000000 0.000000 0.000000 0.000000 0.000000 0.035917
#
#
# Mechanical properties :
#
#
# Convention : Reuss Voigt Hill
#
# Bulk Modulus (GPa) = 100.13525 106.07981 103.10753
# Shear Modulus (GPa) = 19.47491 24.62275 22.04883
#
# Velocity S-wave (km/s) = 3.27887 3.68684 3.48882
# Velocity P-wave (km/s) = 8.34347 8.75696 8.55271
#
# Compressibility (1/GPa) = 0.00998649
#
# Stress axis : x y z
#
# Youngs Moduli (GPa) = 34.36405 72.34754 34.77939
#
# Poissons Ratio (x) = 0.30040 0.79429
# Poissons Ratio (y) = 0.14269 0.13405
# Poissons Ratio (z) = 0.78480 0.27884
#
# Static dielectric constant tensor:
#      x y z
#    x 1.603180 0.000000 0.000000 
#    y 0.000000 1.609500 0.000000 
#    z 0.000000 0.000000 1.592330 
# 
# From -- ./inp_files/18631.got.cif
#   From: 2010.05.17/outbox.cif.g08.bks.cpg/sg62_10_cif.got.tgz:18631.got - 2010.06.03 15:25:27.
