data_PCOD9464107
_publ_section_title
;
Structure prediction by ZEFSAII (Michael W. Deem and Ramdas Pophale) SiO2 
 PCOD9464107
Probable space group: P N M A
;
_chemical_formula_sum "Si O2"
_cell_formula_units_Z 48
_cell_length_a 18.369685
_cell_length_b 7.535888
_cell_length_c 15.605540
_cell_angle_alpha 90.000000
_cell_angle_beta 90.000000
_cell_angle_gamma 90.000000
_cell_volume 2160.304377
_symmetry_space_group_name_H-M "P N M A"
_symmetry_group_IT_number 62
_symmetry_cell_setting 'orthorhombic'
loop_
_space_group_symop_operation_xyz
x,y,z
1/2-x,-y,1/2+z
1/2+x,1/2-y,1/2-z
-x,1/2+y,-z
-x,-y,-z
1/2+x,y,1/2-z
1/2-x,1/2+y,1/2+z
x,1/2-y,z
loop_
_atom_site_type_symbol
_atom_site_label
_atom_site_fract_x
_atom_site_fract_y
_atom_site_fract_z
Si Si1 0.950940 0.044223 0.762604
Si Si2 0.793227 0.040316 0.723308
Si Si3 0.712828 0.032192 0.554536
Si Si4 0.534849 0.961420 0.907998
Si Si5 0.048257 0.037404 0.916796
Si Si6 0.200585 0.535772 0.612478
O O1 0.941099 0.250000 0.788267
O O2 0.870248 0.963957 0.755162
O O3 0.005470 0.966570 0.833572
O O4 0.987636 0.037408 0.669632
O O5 0.805384 0.250000 0.709397
O O6 0.763376 0.971369 0.633128
O O7 0.733051 0.018747 0.796508
O O8 0.712429 0.250000 0.554506
O O9 0.630317 0.970819 0.569872
O O10 0.746802 0.975373 0.464287
O O11 0.535711 0.750000 0.896400
O O12 0.618076 0.026264 0.902077
O O13 0.500000 0.000000 0.000000
O O14 0.055463 0.250000 0.906900
O O15 0.000000 0.000000 0.000000
O O16 0.199555 0.750000 0.610143
#
# Coordination Sequence:
#
# PCOD9464107 Si02
#       6
#     8   8   8   8   8   8
#     4  10  21  37  57  83 114 146 185 232 281 338
#     4  10  20  36  58  81 108 144 182 224 275 329
#     4   9  18  34  54  74 103 143 177 210 265 328
#     4  11  23  38  58  83 112 148 189 236 287 338
#     4  10  20  34  54  79 107 141 179 221 270 326
#     4  10  21  37  56  80 110 144 184 229 275 327
#
# _framework density 22.219090000000001
#
# number of rings (size 3 to 8) (size 9 to 14) (size 15 to 20)
#    0.000    2.000    0.000    3.500    0.000    6.667 
#    0.000    1.667    0.000    0.000    0.000    0.000 
#    0.000    0.000    0.000    0.000    0.000    0.000 
#
# Total GULP energy -268364.531961 kJ/mol
# GULP energy per Si atom -5590.927749 kJ/mol
# Density = 2.216852 g / cm^3
# Si number density = 22.219090 Si / 1000 Ang^3
#
#
#
# Elastic Constant Matrix: (Units=GPa)
#
#
# Indices 1 2 3 4 5 6 
#
# 1 87.5612 -7.9563 -20.6619 0.0000 0.0000 0.0000
# 2 -7.9563 54.8943 -25.1747 0.0000 0.0000 0.0000
# 3 -20.6619 -25.1747 71.3401 0.0000 0.0000 0.0000
# 4 0.0000 0.0000 0.0000 23.5477 0.0000 0.0000
# 5 0.0000 0.0000 0.0000 0.0000 44.7588 0.0000
# 6 0.0000 0.0000 0.0000 0.0000 0.0000 -27.0932
#
#
#
# Elastic Compliance Matrix: (Units=1/GPa)
#
#
# Indices 1 2 3 4 5 6 
#
# 1 0.013068 0.004331 0.005313 0.000000 0.000000 0.000000
# 2 0.004331 0.023169 0.009430 0.000000 0.000000 0.000000
# 3 0.005313 0.009430 0.018884 0.000000 0.000000 0.000000
# 4 0.000000 0.000000 0.000000 0.042467 0.000000 0.000000
# 5 0.000000 0.000000 0.000000 0.000000 0.022342 0.000000
# 6 0.000000 0.000000 0.000000 0.000000 0.000000 -0.036910
#
#
# Mechanical properties :
#
#
# Convention : Reuss Voigt Hill
#
# Bulk Modulus (GPa) = 10.72174 11.80109 11.26141
# Shear Modulus (GPa) = 65.82225 26.08191 45.95208
#
# Velocity S-wave (km/s) = 5.44872 3.42987 4.55261
# Velocity P-wave (km/s) = 6.66488 4.58346 5.71965
#
# Compressibility (1/GPa) = 0.09326844
#
# Stress axis : x y z
#
# Youngs Moduli (GPa) = 76.52407 43.16069 52.95518
#
# Poissons Ratio (x) = -0.18691 -0.28135
# Poissons Ratio (y) = -0.33139 -0.49938
# Poissons Ratio (z) = -0.40657 -0.40702
#
# Static dielectric constant tensor:
#      x y z
#    x 1.836160 0.000000 0.000000 
#    y 0.000000 1.855020 0.000000 
#    z 0.000000 0.000000 1.747280 
# 
# From -- ./inp_files/19522.got.cif
#   From: 2010.05.17/outbox.cif.g08.bks.cpg/sg62_10_cif.got.tgz:19522.got - 2010.06.03 15:25:27.
