data_PCOD9464026
_publ_section_title
;
Structure prediction by ZEFSAII (Michael W. Deem and Ramdas Pophale) SiO2 
 PCOD9464026
Probable space group: P N M A
;
_chemical_formula_sum "Si O2"
_cell_formula_units_Z 48
_cell_length_a 5.352504
_cell_length_b 15.848159
_cell_length_c 26.373674
_cell_angle_alpha 90.000000
_cell_angle_beta 90.000000
_cell_angle_gamma 90.000000
_cell_volume 2237.208465
_symmetry_space_group_name_H-M "P N M A"
_symmetry_group_IT_number 62
_symmetry_cell_setting 'orthorhombic'
loop_
_space_group_symop_operation_xyz
x,y,z
1/2-x,-y,1/2+z
1/2+x,1/2-y,1/2-z
-x,1/2+y,-z
-x,-y,-z
1/2+x,y,1/2-z
1/2-x,1/2+y,1/2+z
x,1/2-y,z
loop_
_atom_site_type_symbol
_atom_site_label
_atom_site_fract_x
_atom_site_fract_y
_atom_site_fract_z
Si Si1 0.806816 0.897240 0.357240
Si Si2 0.393299 0.657821 0.947564
Si Si3 0.602931 0.341927 0.516477
Si Si4 0.810037 0.010168 0.265734
Si Si5 0.083496 0.977935 0.443031
Si Si6 0.188029 0.342131 0.806281
O O1 0.795796 0.982387 0.323582
O O2 0.879543 0.922706 0.413774
O O3 0.051317 0.849340 0.335972
O O4 0.549496 0.851865 0.343447
O O5 0.371762 0.750000 0.922095
O O6 0.658474 0.659532 0.977766
O O7 0.381677 0.569499 0.917570
O O8 0.154487 0.651762 0.985564
O O9 0.603177 0.250000 0.542715
O O10 0.669264 0.421164 0.551785
O O11 0.063814 0.055573 0.252468
O O12 0.819263 0.921196 0.232696
O O13 0.000000 0.000000 0.500000
O O14 0.172403 0.250000 0.781259
#
# Coordination Sequence:
#
# PCOD9464026 Si02
#       6
#     8   8   8   8   8   8
#     4  10  21  32  47  72  97 131 176 207 245 303
#     4   9  18  33  51  67  86 120 166 205 242 291
#     4   9  18  31  47  68  92 123 161 200 244 292
#     4   8  16  30  47  67  95 127 165 205 246 295
#     4  10  21  36  52  71 101 136 169 213 261 299
#     4  10  20  34  51  73 104 137 170 210 254 304
#
# _framework density 21.455310000000001
#
# number of rings (size 3 to 8) (size 9 to 14) (size 15 to 20)
#    0.000    2.667    0.000    1.000    0.000   12.667 
#    0.000    3.333    0.000    0.000    0.000    0.000 
#    0.000   12.000    0.000    0.000    0.000   13.500 
#
# Total GULP energy -267549.628485 kJ/mol
# GULP energy per Si atom -5573.950593 kJ/mol
# Density = 2.140648 g / cm^3
# Si number density = 21.455310 Si / 1000 Ang^3
#
#
#
# Elastic Constant Matrix: (Units=GPa)
#
#
# Indices 1 2 3 4 5 6 
#
# 1 160.9337 -4.2058 11.5477 0.0000 0.0000 0.0000
# 2 -4.2058 89.8029 -12.4558 0.0000 0.0000 0.0000
# 3 11.5477 -12.4558 53.2669 0.0000 0.0000 0.0000
# 4 0.0000 0.0000 0.0000 6.7587 0.0000 0.0000
# 5 0.0000 0.0000 0.0000 0.0000 19.6458 0.0000
# 6 0.0000 0.0000 0.0000 0.0000 0.0000 5.2067
#
#
#
# Elastic Compliance Matrix: (Units=1/GPa)
#
#
# Indices 1 2 3 4 5 6 
#
# 1 0.006313 0.000109 -0.001343 0.000000 0.000000 0.000000
# 2 0.000109 0.011511 0.002668 0.000000 0.000000 0.000000
# 3 -0.001343 0.002668 0.019688 0.000000 0.000000 0.000000
# 4 0.000000 0.000000 0.000000 0.147957 0.000000 0.000000
# 5 0.000000 0.000000 0.000000 0.000000 0.050902 0.000000
# 6 0.000000 0.000000 0.000000 0.000000 0.000000 0.192061
#
#
# Mechanical properties :
#
#
# Convention : Reuss Voigt Hill
#
# Bulk Modulus (GPa) = 24.76439 32.64177 28.70308
# Shear Modulus (GPa) = 11.38892 26.93006 19.15949
#
# Velocity S-wave (km/s) = 2.30645 3.54668 2.99154
# Velocity P-wave (km/s) = 4.31976 5.65852 5.03384
#
# Compressibility (1/GPa) = 0.04038056
#
# Stress axis : x y z
#
# Youngs Moduli (GPa) = 158.40420 86.87600 50.79139
#
# Poissons Ratio (x) = -0.00950 0.06821
# Poissons Ratio (y) = -0.01733 -0.13551
# Poissons Ratio (z) = 0.21274 -0.23178
#
# Static dielectric constant tensor:
#      x y z
#    x 1.852740 0.000000 0.000000 
#    y 0.000000 1.855110 0.000000 
#    z 0.000000 0.000000 1.803710 
# 
# From -- ./inp_files/30462.got.cif
#   From: 2010.05.17/outbox.cif.g08.bks.cpg/sg62_16_cif.got.tgz:30462.got - 2010.06.03 15:25:27.
