data_PCOD9464172
_publ_section_title
;
Structure prediction by ZEFSAII (Michael W. Deem and Ramdas Pophale) SiO2 
 PCOD9464172
Probable space group: P N M A
;
_chemical_formula_sum "Si O2"
_cell_formula_units_Z 56
_cell_length_a 22.178155
_cell_length_b 8.568819
_cell_length_c 14.979667
_cell_angle_alpha 90.000000
_cell_angle_beta 90.000000
_cell_angle_gamma 90.000000
_cell_volume 2846.744844
_symmetry_space_group_name_H-M "P N M A"
_symmetry_group_IT_number 62
_symmetry_cell_setting 'orthorhombic'
loop_
_space_group_symop_operation_xyz
x,y,z
1/2-x,-y,1/2+z
1/2+x,1/2-y,1/2-z
-x,1/2+y,-z
-x,-y,-z
1/2+x,y,1/2-z
1/2-x,1/2+y,1/2+z
x,1/2-y,z
loop_
_atom_site_type_symbol
_atom_site_label
_atom_site_fract_x
_atom_site_fract_y
_atom_site_fract_z
Si Si1 0.337137 0.061459 0.887797
Si Si2 0.311995 0.561630 0.698597
Si Si3 0.023945 0.936585 0.405627
Si Si4 0.197747 0.559557 0.583797
Si Si5 0.070448 0.061560 0.091540
Si Si6 0.563685 0.435006 0.611352
Si Si7 0.084745 0.935741 0.703950
O O1 0.335949 0.250000 0.885337
O O2 0.407438 0.011119 0.889078
O O3 0.306463 0.997721 0.799067
O O4 0.307566 0.009962 0.981092
O O5 0.311597 0.750000 0.698935
O O6 0.257488 0.508206 0.635378
O O7 0.375966 0.511833 0.656571
O O8 0.024216 0.750000 0.409618
O O9 0.000000 0.000000 0.500000
O O10 0.977826 0.992015 0.330056
O O11 0.197723 0.750000 0.583575
O O12 0.138550 0.510701 0.639076
O O13 0.063032 0.250000 0.097396
O O14 0.086010 0.024472 0.988236
O O15 0.006693 0.983580 0.113087
O O16 0.569028 0.250000 0.622757
O O17 0.595688 0.518010 0.693846
O O18 0.079981 0.750000 0.696423
#
# Coordination Sequence:
#
# PCOD9464172 Si02
#       7
#     8   8   8   8   8   8   8
#     4  10  21  39  59  82 114 150 185 229 288 342
#     4  10  21  38  60  82 107 147 194 235 276 336
#     4  11  21  35  58  87 116 150 187 233 289 344
#     4   9  20  39  57  76 109 150 186 223 277 337
#     4   9  19  36  56  80 110 146 185 228 284 339
#     4  10  20  34  55  84 113 143 183 233 281 335
#     4  11  21  36  56  81 114 153 187 228 287 343
#
# _framework density 19.671589999999998
#
# number of rings (size 3 to 8) (size 9 to 14) (size 15 to 20)
#    0.000    2.000    1.429    2.143    0.000    5.714 
#    0.000    3.571    0.000    0.000    0.000    0.000 
#    0.000    0.000    0.000    0.000    0.000    0.000 
#
# Total GULP energy -312827.194899 kJ/mol
# GULP energy per Si atom -5586.199909 kJ/mol
# Density = 1.962682 g / cm^3
# Si number density = 19.671590 Si / 1000 Ang^3
#
#
#
# Elastic Constant Matrix: (Units=GPa)
#
#
# Indices 1 2 3 4 5 6 
#
# 1 61.8257 8.4110 46.3284 0.0000 0.0000 0.0000
# 2 8.4110 15.7236 14.6366 0.0000 0.0000 0.0000
# 3 46.3284 14.6366 148.9967 0.0000 0.0000 0.0000
# 4 0.0000 0.0000 0.0000 36.5321 0.0000 0.0000
# 5 0.0000 0.0000 0.0000 0.0000 25.8358 0.0000
# 6 0.0000 0.0000 0.0000 0.0000 0.0000 17.0665
#
#
#
# Elastic Compliance Matrix: (Units=1/GPa)
#
#
# Indices 1 2 3 4 5 6 
#
# 1 0.021562 -0.005826 -0.006132 0.000000 0.000000 0.000000
# 2 -0.005826 0.071574 -0.005219 0.000000 0.000000 0.000000
# 3 -0.006132 -0.005219 0.009131 0.000000 0.000000 0.000000
# 4 0.000000 0.000000 0.000000 0.027373 0.000000 0.000000
# 5 0.000000 0.000000 0.000000 0.000000 0.038706 0.000000
# 6 0.000000 0.000000 0.000000 0.000000 0.000000 0.058594
#
#
# Mechanical properties :
#
#
# Convention : Reuss Voigt Hill
#
# Bulk Modulus (GPa) = 14.72501 40.58867 27.65684
# Shear Modulus (GPa) = 17.60980 26.36488 21.98734
#
# Velocity S-wave (km/s) = 2.99522 3.66492 3.34686
# Velocity P-wave (km/s) = 4.41174 6.21182 5.38749
#
# Compressibility (1/GPa) = 0.06791169
#
# Stress axis : x y z
#
# Youngs Moduli (GPa) = 46.37760 13.97159 109.51712
#
# Poissons Ratio (x) = 0.08140 0.67157
# Poissons Ratio (y) = 0.27020 0.57162
# Poissons Ratio (z) = 0.28439 0.07292
#
# Static dielectric constant tensor:
#      x y z
#    x 1.674220 0.000000 0.000000 
#    y 0.000000 1.679870 0.000000 
#    z 0.000000 0.000000 1.694090 
# 
# From -- ./inp_files/20445.got.cif
#   From: 2010.05.17/outbox.cif.g08.bks.cpg/sg62_11_cif.got.tgz:20445.got - 2010.06.03 15:25:27.
