data_PCOD9464873
_publ_section_title
;
Structure prediction by ZEFSAII (Michael W. Deem and Ramdas Pophale) SiO2 
 PCOD9464873
Probable space group: P N M A
;
_chemical_formula_sum "Si O2"
_cell_formula_units_Z 40
_cell_length_a 8.069191
_cell_length_b 7.989911
_cell_length_c 23.865960
_cell_angle_alpha 90.000000
_cell_angle_beta 90.000000
_cell_angle_gamma 90.000000
_cell_volume 1538.688988
_symmetry_space_group_name_H-M "P N M A"
_symmetry_group_IT_number 62
_symmetry_cell_setting 'orthorhombic'
loop_
_space_group_symop_operation_xyz
x,y,z
1/2-x,-y,1/2+z
1/2+x,1/2-y,1/2-z
-x,1/2+y,-z
-x,-y,-z
1/2+x,y,1/2-z
1/2-x,1/2+y,1/2+z
x,1/2-y,z
loop_
_atom_site_type_symbol
_atom_site_label
_atom_site_fract_x
_atom_site_fract_y
_atom_site_fract_z
Si Si1 0.655010 0.560030 0.835380
Si Si2 0.834911 0.548283 0.532135
Si Si3 0.126115 0.945244 0.068790
Si Si4 0.044181 0.559191 0.234164
Si Si5 0.321777 0.057636 0.360448
O O1 0.620971 0.750000 0.852477
O O2 0.716019 0.458682 0.889197
O O3 0.508827 0.492017 0.796219
O O4 0.815706 0.553779 0.794126
O O5 0.825161 0.750000 0.534289
O O6 0.686859 0.490349 0.491184
O O7 0.815462 0.490021 0.596158
O O8 0.000000 0.500000 0.500000
O O9 0.077393 0.750000 0.066447
O O10 0.983421 0.050302 0.098675
O O11 0.101783 0.750000 0.231408
O O12 0.882808 0.541549 0.193771
O O13 0.289425 0.250000 0.344467
#
# Coordination Sequence:
#
# PCOD9464873 Si02
#       5
#     8   8   8   8   8
#     4  11  22  38  59  85 114 149 188 232 280 333
#     4  10  23  38  56  82 114 146 183 228 278 330
#     4  10  20  37  58  83 111 146 188 230 274 331
#     4  11  22  38  59  85 114 149 188 232 280 333
#     4  10  20  37  58  83 111 146 188 230 274 331
#
# _framework density 25.996155999999999
#
# number of rings (size 3 to 8) (size 9 to 14) (size 15 to 20)
#    0.000    1.600    0.000    7.800    0.000    4.800 
#    0.000    4.000    0.000    0.000    0.000    0.000 
#    0.000    0.000    0.000    0.000    0.000    0.000 
#
# Total GULP energy -224112.599209 kJ/mol
# GULP energy per Si atom -5602.814980 kJ/mol
# Density = 2.593699 g / cm^3
# Si number density = 25.996156 Si / 1000 Ang^3
#
#
#
# Elastic Constant Matrix: (Units=GPa)
#
#
# Indices 1 2 3 4 5 6 
#
# 1 76.1411 -6.3375 9.4143 0.0000 0.0000 0.0000
# 2 -6.3375 95.8552 2.0563 0.0000 0.0000 0.0000
# 3 9.4143 2.0563 153.7059 0.0000 0.0000 0.0000
# 4 0.0000 0.0000 0.0000 26.6049 0.0000 0.0000
# 5 0.0000 0.0000 0.0000 0.0000 60.1499 0.0000
# 6 0.0000 0.0000 0.0000 0.0000 0.0000 27.5240
#
#
#
# Elastic Compliance Matrix: (Units=1/GPa)
#
#
# Indices 1 2 3 4 5 6 
#
# 1 0.013311 0.000898 -0.000827 0.000000 0.000000 0.000000
# 2 0.000898 0.010496 -0.000195 0.000000 0.000000 0.000000
# 3 -0.000827 -0.000195 0.006559 0.000000 0.000000 0.000000
# 4 0.000000 0.000000 0.000000 0.037587 0.000000 0.000000
# 5 0.000000 0.000000 0.000000 0.000000 0.016625 0.000000
# 6 0.000000 0.000000 0.000000 0.000000 0.000000 0.036332
#
#
# Mechanical properties :
#
#
# Convention : Reuss Voigt Hill
#
# Bulk Modulus (GPa) = 33.20504 37.32983 35.26744
# Shear Modulus (GPa) = 38.11025 44.22703 41.16864
#
# Velocity S-wave (km/s) = 3.83299 4.12915 3.98382
# Velocity P-wave (km/s) = 5.69121 6.09295 5.89550
#
# Compressibility (1/GPa) = 0.03011591
#
# Stress axis : x y z
#
# Youngs Moduli (GPa) = 75.12852 95.27485 152.45731
#
# Poissons Ratio (x) = -0.08554 0.12612
# Poissons Ratio (y) = -0.06745 0.02979
# Poissons Ratio (z) = 0.06215 0.01862
#
# Static dielectric constant tensor:
#      x y z
#    x 2.190680 0.000000 0.000000 
#    y 0.000000 2.017940 0.000000 
#    z 0.000000 0.000000 2.049510 
# 
# From -- ./inp_files/30679.got.cif
#   From: 2010.05.17/outbox.cif.g08.bks.cpg/sg62_16_cif.got.tgz:30679.got - 2010.06.03 15:25:27.
