data_PCOD9464877
_publ_section_title
;
Structure prediction by ZEFSAII (Michael W. Deem and Ramdas Pophale) SiO2 
 PCOD9464877
Probable space group: P N M A
;
_chemical_formula_sum "Si O2"
_cell_formula_units_Z 48
_cell_length_a 17.826794
_cell_length_b 10.822412
_cell_length_c 12.715989
_cell_angle_alpha 90.000000
_cell_angle_beta 90.000000
_cell_angle_gamma 90.000000
_cell_volume 2453.281889
_symmetry_space_group_name_H-M "P N M A"
_symmetry_group_IT_number 62
_symmetry_cell_setting 'orthorhombic'
loop_
_space_group_symop_operation_xyz
x,y,z
1/2-x,-y,1/2+z
1/2+x,1/2-y,1/2-z
-x,1/2+y,-z
-x,-y,-z
1/2+x,y,1/2-z
1/2-x,1/2+y,1/2+z
x,1/2-y,z
loop_
_atom_site_type_symbol
_atom_site_label
_atom_site_fract_x
_atom_site_fract_y
_atom_site_fract_z
Si Si1 0.809187 0.607939 0.941046
Si Si2 0.261849 0.888354 0.328274
Si Si3 0.023341 0.893470 0.683020
Si Si4 0.835170 0.951947 0.384857
Si Si5 0.351755 0.610071 0.876785
Si Si6 0.023623 0.396352 0.083140
O O1 0.796662 0.750000 0.918755
O O2 0.736914 0.538271 0.901703
O O3 0.889111 0.574829 0.892802
O O4 0.812268 0.592699 0.067529
O O5 0.226689 0.750000 0.338153
O O6 0.312350 0.887250 0.224003
O O7 0.202118 0.001324 0.332692
O O8 0.038206 0.750000 0.657471
O O9 0.087266 0.976743 0.633063
O O10 0.938664 0.920690 0.645704
O O11 0.022783 0.906409 0.809477
O O12 0.841317 0.884939 0.496885
O O13 0.336581 0.750000 0.835209
O O14 0.020126 0.250000 0.048906
O O15 0.000000 0.500000 0.000000
#
# Coordination Sequence:
#
# PCOD9464877 Si02
#       6
#     8   8   8   8   8   8
#     4   9  19  35  55  78 111 150 184 224 282 343
#     4  10  21  37  57  84 114 148 191 238 290 345
#     4  10  21  36  57  86 119 155 195 236 290 356
#     4  11  20  35  59  86 114 148 192 241 286 335
#     4  10  22  40  60  85 117 153 193 239 288 345
#     4  10  20  37  58  83 113 148 190 236 285 340
#
# _framework density 19.565626999999999
#
# number of rings (size 3 to 8) (size 9 to 14) (size 15 to 20)
#    0.000    2.000    0.000    3.500    0.000    3.333 
#    0.000   10.833    0.000    0.000    0.000    0.000 
#    0.000    0.000    0.000    0.000    0.000    0.000 
#
# Total GULP energy -267611.927031 kJ/mol
# GULP energy per Si atom -5575.248480 kJ/mol
# Density = 1.952109 g / cm^3
# Si number density = 19.565627 Si / 1000 Ang^3
#
#
#
# Elastic Constant Matrix: (Units=GPa)
#
#
# Indices 1 2 3 4 5 6 
#
# 1 58.1102 56.3926 17.1274 0.0000 0.0000 0.0000
# 2 56.3926 93.1507 24.9007 0.0000 0.0000 0.0000
# 3 17.1274 24.9007 92.6687 0.0000 0.0000 0.0000
# 4 0.0000 0.0000 0.0000 -14.7420 0.0000 0.0000
# 5 0.0000 0.0000 0.0000 0.0000 32.7502 0.0000
# 6 0.0000 0.0000 0.0000 0.0000 0.0000 19.5442
#
#
#
# Elastic Compliance Matrix: (Units=1/GPa)
#
#
# Indices 1 2 3 4 5 6 
#
# 1 0.041803 -0.025041 -0.000998 0.000000 0.000000 0.000000
# 2 -0.025041 0.026566 -0.002510 0.000000 0.000000 0.000000
# 3 -0.000998 -0.002510 0.011650 0.000000 0.000000 0.000000
# 4 0.000000 0.000000 0.000000 -0.067833 0.000000 0.000000
# 5 0.000000 0.000000 0.000000 0.000000 0.030534 0.000000
# 6 0.000000 0.000000 0.000000 0.000000 0.000000 0.051166
#
#
# Mechanical properties :
#
#
# Convention : Reuss Voigt Hill
#
# Bulk Modulus (GPa) = 43.62648 48.97456 46.30052
# Shear Modulus (GPa) = 31.52116 17.21107 24.36611
#
# Velocity S-wave (km/s) = 4.01814 2.96912 3.53278
# Velocity P-wave (km/s) = 6.62368 6.06956 6.35266
#
# Compressibility (1/GPa) = 0.02292186
#
# Stress axis : x y z
#
# Youngs Moduli (GPa) = 23.92161 37.64253 85.83655
#
# Poissons Ratio (x) = 0.94259 0.08564
# Poissons Ratio (y) = 0.59901 0.21547
# Poissons Ratio (z) = 0.02387 0.09449
#
# Static dielectric constant tensor:
#      x y z
#    x 1.673340 0.000000 0.000000 
#    y 0.000000 1.682150 0.000000 
#    z 0.000000 0.000000 1.755590 
# 
# From -- ./inp_files/14121.got.cif
#   From: 2010.05.17/outbox.cif.g08.bks.cpg/sg62_8_cif.got.tgz:14121.got - 2010.06.03 15:25:27.
