data_PCOD9464316
_publ_section_title
;
Structure prediction by ZEFSAII (Michael W. Deem and Ramdas Pophale) SiO2 
 PCOD9464316
Probable space group: P N M A
;
_chemical_formula_sum "Si O2"
_cell_formula_units_Z 48
_cell_length_a 19.724132
_cell_length_b 7.442434
_cell_length_c 12.654425
_cell_angle_alpha 90.000000
_cell_angle_beta 90.000000
_cell_angle_gamma 90.000000
_cell_volume 1857.613286
_symmetry_space_group_name_H-M "P N M A"
_symmetry_group_IT_number 62
_symmetry_cell_setting 'orthorhombic'
loop_
_space_group_symop_operation_xyz
x,y,z
1/2-x,-y,1/2+z
1/2+x,1/2-y,1/2-z
-x,1/2+y,-z
-x,-y,-z
1/2+x,y,1/2-z
1/2-x,1/2+y,1/2+z
x,1/2-y,z
loop_
_atom_site_type_symbol
_atom_site_label
_atom_site_fract_x
_atom_site_fract_y
_atom_site_fract_z
Si Si1 0.070963 0.463572 0.053766
Si Si2 0.893614 0.955546 0.314282
Si Si3 0.683575 0.950268 0.608411
Si Si4 0.851858 0.453635 0.748183
Si Si5 0.736853 0.028293 0.917460
Si Si6 0.032290 0.965184 0.384470
O O1 0.082808 0.250000 0.057922
O O2 0.085920 0.543587 0.167867
O O3 0.125248 0.555863 0.978803
O O4 0.000000 0.500000 0.000000
O O5 0.903243 0.750000 0.347619
O O6 0.838433 0.036999 0.392670
O O7 0.968988 0.033004 0.311597
O O8 0.852209 0.954493 0.205224
O O9 0.702938 0.750000 0.642983
O O10 0.742228 0.030879 0.535388
O O11 0.830448 0.250000 0.723917
O O12 0.789341 0.526892 0.821841
O O13 0.893002 0.537807 0.648765
O O14 0.739125 0.250000 0.918164
O O15 0.040906 0.750000 0.373868
O O16 0.000000 0.000000 0.500000
#
# Coordination Sequence:
#
# PCOD9464316 Si02
#       6
#     8   8   8   8   8   8
#     4  11  20  31  51  79 107 137 172 217 271 331
#     4  10  20  36  56  80 110 147 187 233 283 334
#     4  10  20  35  54  79 109 143 183 230 279 334
#     4   9  18  35  54  75 105 143 183 228 278 330
#     4   8  17  34  55  77 108 146 184 228 285 336
#     4  10  22  37  55  78 108 144 184 226 276 335
#
# _framework density 25.839607999999998
#
# number of rings (size 3 to 8) (size 9 to 14) (size 15 to 20)
#    0.000    2.333    0.000    4.000    0.000    4.000 
#    0.000    4.167    0.000    0.000    0.000    0.000 
#    0.000    0.000    0.000    0.000    0.000    0.000 
#
# Total GULP energy -267719.402664 kJ/mol
# GULP energy per Si atom -5577.487556 kJ/mol
# Density = 2.578080 g / cm^3
# Si number density = 25.839608 Si / 1000 Ang^3
#
#
#
# Elastic Constant Matrix: (Units=GPa)
#
#
# Indices 1 2 3 4 5 6 
#
# 1 112.1632 1.9766 15.2749 0.0000 0.0000 0.0000
# 2 1.9766 116.5739 1.1535 0.0000 0.0000 0.0000
# 3 15.2749 1.1535 67.9085 0.0000 0.0000 0.0000
# 4 0.0000 0.0000 0.0000 25.2906 0.0000 0.0000
# 5 0.0000 0.0000 0.0000 0.0000 41.7981 0.0000
# 6 0.0000 0.0000 0.0000 0.0000 0.0000 2.1049
#
#
#
# Elastic Compliance Matrix: (Units=1/GPa)
#
#
# Indices 1 2 3 4 5 6 
#
# 1 0.009199 -0.000136 -0.002067 0.000000 0.000000 0.000000
# 2 -0.000136 0.008582 -0.000115 0.000000 0.000000 0.000000
# 3 -0.002067 -0.000115 0.015193 0.000000 0.000000 0.000000
# 4 0.000000 0.000000 0.000000 0.039540 0.000000 0.000000
# 5 0.000000 0.000000 0.000000 0.000000 0.023925 0.000000
# 6 0.000000 0.000000 0.000000 0.000000 0.000000 0.475076
#
#
# Mechanical properties :
#
#
# Convention : Reuss Voigt Hill
#
# Bulk Modulus (GPa) = 35.28811 37.05064 36.16937
# Shear Modulus (GPa) = 8.53831 32.38811 20.46321
#
# Velocity S-wave (km/s) = 1.81976 3.54422 2.81718
# Velocity P-wave (km/s) = 4.25460 5.57840 4.96085
#
# Compressibility (1/GPa) = 0.02833816
#
# Stress axis : x y z
#
# Youngs Moduli (GPa) = 108.70205 116.52724 65.82161
#
# Poissons Ratio (x) = 0.01579 0.13605
# Poissons Ratio (y) = 0.01473 0.00759
# Poissons Ratio (z) = 0.22468 0.01343
#
# Static dielectric constant tensor:
#      x y z
#    x 2.155590 0.000000 0.000000 
#    y 0.000000 1.890360 0.000000 
#    z 0.000000 0.000000 2.329570 
# 
# From -- ./inp_files/15145.got.cif
#   From: 2010.05.17/outbox.cif.g08.bks.cpg/sg62_8_cif.got.tgz:15145.got - 2010.06.03 15:25:27.
