data_PCOD9464431
_publ_section_title
;
Structure prediction by ZEFSAII (Michael W. Deem and Ramdas Pophale) SiO2 
 PCOD9464431
Probable space group: P N M A
;
_chemical_formula_sum "Si O2"
_cell_formula_units_Z 64
_cell_length_a 9.504261
_cell_length_b 11.332551
_cell_length_c 30.771577
_cell_angle_alpha 90.000000
_cell_angle_beta 90.000000
_cell_angle_gamma 90.000000
_cell_volume 3314.330322
_symmetry_space_group_name_H-M "P N M A"
_symmetry_group_IT_number 62
_symmetry_cell_setting 'orthorhombic'
loop_
_space_group_symop_operation_xyz
x,y,z
1/2-x,-y,1/2+z
1/2+x,1/2-y,1/2-z
-x,1/2+y,-z
-x,-y,-z
1/2+x,y,1/2-z
1/2-x,1/2+y,1/2+z
x,1/2-y,z
loop_
_atom_site_type_symbol
_atom_site_label
_atom_site_fract_x
_atom_site_fract_y
_atom_site_fract_z
Si Si1 0.342350 0.539093 0.393518
Si Si2 0.586201 0.616317 0.984736
Si Si3 0.502678 0.006052 0.254313
Si Si4 0.590449 0.383379 0.513342
Si Si5 0.075345 0.388667 0.153965
Si Si6 0.119588 0.891244 0.670931
Si Si7 0.584234 0.383557 0.100318
Si Si8 0.254239 0.617084 0.297371
O O1 0.393948 0.615304 0.434129
O O2 0.468907 0.457253 0.376739
O O3 0.215388 0.461295 0.412941
O O4 0.281774 0.595108 0.348845
O O5 0.547715 0.750000 0.002421
O O6 0.540017 0.621005 0.934604
O O7 0.500000 0.500000 0.000000
O O8 0.752167 0.603418 0.993286
O O9 0.639903 0.963152 0.227941
O O10 0.405530 0.903443 0.274485
O O11 0.537583 0.087939 0.295520
O O12 0.404195 0.072934 0.220096
O O13 0.500000 0.500000 0.500000
O O14 0.538804 0.250000 0.500503
O O15 0.069458 0.250000 0.144680
O O16 0.234801 0.434797 0.150799
O O17 0.122519 0.750000 0.667688
O O18 0.986341 0.933096 0.643598
O O19 0.634512 0.250000 0.108102
O O20 0.205269 0.750000 0.291792
#
# Coordination Sequence:
#
# PCOD9464431 Si02
#       8
#     8   8   8   8   8   8   8   8
#     4  11  22  40  64  87 123 158 208 253 312 373
#     4  10  21  40  66  95 126 161 201 258 319 378
#     4  11  20  38  57  82 116 157 201 246 307 358
#     4  11  26  45  68  95 131 172 214 263 325 390
#     4  10  22  36  57  88 123 162 203 253 307 367
#     4  10  20  35  56  84 120 153 192 244 300 361
#     4  10  20  35  60  92 122 154 196 250 311 376
#     4  11  23  38  59  82 114 157 206 254 299 361
#
# _framework density 19.310085000000001
#
# number of rings (size 3 to 8) (size 9 to 14) (size 15 to 20)
#    0.000    1.500    3.750    1.500    1.750    1.500 
#    0.000    0.000    0.000    0.000    0.000    0.000 
#    0.000    0.000    0.000    0.000    0.000    0.000 
#
# Total GULP energy -356526.334264 kJ/mol
# GULP energy per Si atom -5570.723973 kJ/mol
# Density = 1.926613 g / cm^3
# Si number density = 19.310085 Si / 1000 Ang^3
#
#
#
# Elastic Constant Matrix: (Units=GPa)
#
#
# Indices 1 2 3 4 5 6 
#
# 1 74.9640 45.0554 15.9125 0.0000 0.0000 0.0000
# 2 45.0554 85.8009 16.5472 0.0000 0.0000 0.0000
# 3 15.9125 16.5472 63.9904 0.0000 0.0000 0.0000
# 4 0.0000 0.0000 0.0000 14.7991 0.0000 0.0000
# 5 0.0000 0.0000 0.0000 0.0000 34.9623 0.0000
# 6 0.0000 0.0000 0.0000 0.0000 0.0000 15.8957
#
#
#
# Elastic Compliance Matrix: (Units=1/GPa)
#
#
# Indices 1 2 3 4 5 6 
#
# 1 0.019823 -0.009955 -0.002355 0.000000 0.000000 0.000000
# 2 -0.009955 0.017266 -0.001989 0.000000 0.000000 0.000000
# 3 -0.002355 -0.001989 0.016727 0.000000 0.000000 0.000000
# 4 0.000000 0.000000 0.000000 0.067571 0.000000 0.000000
# 5 0.000000 0.000000 0.000000 0.000000 0.028602 0.000000
# 6 0.000000 0.000000 0.000000 0.000000 0.000000 0.062910
#
#
# Mechanical properties :
#
#
# Convention : Reuss Voigt Hill
#
# Bulk Modulus (GPa) = 39.65510 42.19839 40.92675
# Shear Modulus (GPa) = 20.00759 22.94744 21.47751
#
# Velocity S-wave (km/s) = 3.22238 3.45101 3.33865
# Velocity P-wave (km/s) = 5.86732 6.14652 6.00854
#
# Compressibility (1/GPa) = 0.02521744
#
# Stress axis : x y z
#
# Youngs Moduli (GPa) = 50.44653 57.91680 59.78219
#
# Poissons Ratio (x) = 0.57657 0.14079
# Poissons Ratio (y) = 0.50220 0.11892
# Poissons Ratio (z) = 0.11881 0.11521
#
# Static dielectric constant tensor:
#      x y z
#    x 1.685570 0.000000 0.000000 
#    y 0.000000 1.683340 0.000000 
#    z 0.000000 0.000000 1.697280 
# 
# From -- ./inp_files/32250.got.cif
#   From: 2010.05.17/outbox.cif.g08.bks.cpg/sg62_17_cif.got.tgz:32250.got - 2010.06.03 15:25:27.
