data_PCOD9464512
_publ_section_title
;
Structure prediction by ZEFSAII (Michael W. Deem and Ramdas Pophale) SiO2 
 PCOD9464512
Probable space group: P N M A
;
_chemical_formula_sum "Si O2"
_cell_formula_units_Z 48
_cell_length_a 10.341253
_cell_length_b 8.953977
_cell_length_c 29.441334
_cell_angle_alpha 90.000000
_cell_angle_beta 90.000000
_cell_angle_gamma 90.000000
_cell_volume 2726.130376
_symmetry_space_group_name_H-M "P N M A"
_symmetry_group_IT_number 62
_symmetry_cell_setting 'orthorhombic'
loop_
_space_group_symop_operation_xyz
x,y,z
1/2-x,-y,1/2+z
1/2+x,1/2-y,1/2-z
-x,1/2+y,-z
-x,-y,-z
1/2+x,y,1/2-z
1/2-x,1/2+y,1/2+z
x,1/2-y,z
loop_
_atom_site_type_symbol
_atom_site_label
_atom_site_fract_x
_atom_site_fract_y
_atom_site_fract_z
Si Si1 0.986406 0.928186 0.219263
Si Si2 0.267789 0.071994 0.218074
Si Si3 0.482442 0.927521 0.386769
Si Si4 0.618026 0.927523 0.527668
Si Si5 0.736306 0.572431 0.888120
Si Si6 0.382277 0.572188 0.026992
O O1 0.993576 0.750000 0.226043
O O2 0.952788 0.955329 0.166139
O O3 0.127341 0.000134 0.227437
O O4 0.877975 0.999628 0.251057
O O5 0.261483 0.250000 0.225323
O O6 0.297294 0.045817 0.164650
O O7 0.488249 0.750000 0.394353
O O8 0.385384 0.002261 0.422193
O O9 0.623723 0.997497 0.395785
O O10 0.598710 0.750000 0.530349
O O11 0.750863 0.956564 0.501303
O O12 0.500000 0.000000 0.500000
O O13 0.745916 0.750000 0.895405
O O14 0.638031 0.500744 0.923693
O O15 0.398744 0.750000 0.031136
O O16 0.500000 0.500000 0.000000
#
# Coordination Sequence:
#
# PCOD9464512 Si02
#       6
#     8   8   8   8   8   8
#     4  10  21  38  60  86 117 152 192 238 287 342
#     4  10  21  38  61  88 116 151 192 237 288 343
#     4  10  20  35  58  87 115 147 191 236 282 336
#     4  11  22  36  59  87 114 148 190 234 281 334
#     4  10  20  36  60  85 113 151 192 232 283 341
#     4  11  24  40  58  83 116 153 192 235 286 340
#
# _framework density 17.607375000000001
#
# number of rings (size 3 to 8) (size 9 to 14) (size 15 to 20)
#    0.000    1.667    1.667    3.000    0.000    6.000 
#    3.000    0.000    0.000    0.000    0.000    0.000 
#    0.000    0.000    0.000    0.000    0.000    0.000 
#
# Total GULP energy -268159.952130 kJ/mol
# GULP energy per Si atom -5586.665669 kJ/mol
# Density = 1.756730 g / cm^3
# Si number density = 17.607375 Si / 1000 Ang^3
#
#
#
# Elastic Constant Matrix: (Units=GPa)
#
#
# Indices 1 2 3 4 5 6 
#
# 1 105.0273 83.2958 81.6843 0.0000 0.0000 0.0000
# 2 83.2958 108.9791 86.7010 0.0000 0.0000 0.0000
# 3 81.6843 86.7010 123.2912 0.0000 0.0000 0.0000
# 4 0.0000 0.0000 0.0000 35.8859 0.0000 0.0000
# 5 0.0000 0.0000 0.0000 0.0000 36.3564 0.0000
# 6 0.0000 0.0000 0.0000 0.0000 0.0000 32.7095
#
#
#
# Elastic Compliance Matrix: (Units=1/GPa)
#
#
# Indices 1 2 3 4 5 6 
#
# 1 0.027037 -0.014560 -0.007674 0.000000 0.000000 0.000000
# 2 -0.014560 0.028670 -0.010515 0.000000 0.000000 0.000000
# 3 -0.007674 -0.010515 0.020590 0.000000 0.000000 0.000000
# 4 0.000000 0.000000 0.000000 0.027866 0.000000 0.000000
# 5 0.000000 0.000000 0.000000 0.000000 0.027505 0.000000
# 6 0.000000 0.000000 0.000000 0.000000 0.000000 0.030572
#
#
# Mechanical properties :
#
#
# Convention : Reuss Voigt Hill
#
# Bulk Modulus (GPa) = 92.60339 93.40667 93.00503
# Shear Modulus (GPa) = 21.61339 26.69815 24.15577
#
# Velocity S-wave (km/s) = 3.50740 3.89820 3.70795
# Velocity P-wave (km/s) = 8.31325 8.56891 8.44205
#
# Compressibility (1/GPa) = 0.01079874
#
# Stress axis : x y z
#
# Youngs Moduli (GPa) = 36.98629 34.87951 48.56823
#
# Poissons Ratio (x) = 0.50784 0.37271
# Poissons Ratio (y) = 0.53852 0.51070
# Poissons Ratio (z) = 0.28383 0.36676
#
# Static dielectric constant tensor:
#      x y z
#    x 1.562220 0.000000 0.000000 
#    y 0.000000 1.584360 0.000000 
#    z 0.000000 0.000000 1.609710 
# 
# From -- ./inp_files/31899.got.cif
#   From: 2010.05.17/outbox.cif.g08.bks.cpg/sg62_16_cif.got.tgz:31899.got - 2010.06.03 15:25:27.
