data_PCOD9464315
_publ_section_title
;
Structure prediction by ZEFSAII (Michael W. Deem and Ramdas Pophale) SiO2 
 PCOD9464315
Probable space group: P N M A
;
_chemical_formula_sum "Si O2"
_cell_formula_units_Z 48
_cell_length_a 26.087900
_cell_length_b 13.652864
_cell_length_c 7.182549
_cell_angle_alpha 90.000000
_cell_angle_beta 90.000000
_cell_angle_gamma 90.000000
_cell_volume 2558.241163
_symmetry_space_group_name_H-M "P N M A"
_symmetry_group_IT_number 62
_symmetry_cell_setting 'orthorhombic'
loop_
_space_group_symop_operation_xyz
x,y,z
1/2-x,-y,1/2+z
1/2+x,1/2-y,1/2-z
-x,1/2+y,-z
-x,-y,-z
1/2+x,y,1/2-z
1/2-x,1/2+y,1/2+z
x,1/2-y,z
loop_
_atom_site_type_symbol
_atom_site_label
_atom_site_fract_x
_atom_site_fract_y
_atom_site_fract_z
Si Si1 0.310816 0.998263 0.314536
Si Si2 0.338130 0.640430 0.977048
Si Si3 0.955293 0.860761 0.416258
Si Si4 0.232888 0.135632 0.134652
Si Si5 0.011551 0.134787 0.189860
Si Si6 0.928120 0.998921 0.074077
O O1 0.277875 0.933336 0.458402
O O2 0.367693 0.012607 0.398584
O O3 0.280879 0.095706 0.254056
O O4 0.317884 0.936237 0.126029
O O5 0.321877 0.750000 0.035950
O O6 0.399334 0.638238 0.987217
O O7 0.315579 0.624936 0.773148
O O8 0.964556 0.750000 0.346374
O O9 0.950683 0.934534 0.246150
O O10 0.993144 0.881244 0.587422
O O11 0.238251 0.250000 0.084833
O O12 0.022445 0.250000 0.162113
O O13 0.959941 0.099373 0.086794
O O14 0.055437 0.064619 0.104606
#
# Coordination Sequence:
#
# PCOD9464315 Si02
#       6
#     8   8   8   8   8   8
#     4  11  21  37  56  81 113 146 187 232 277 329
#     4   9  18  33  54  80 107 142 185 229 272 318
#     4   9  17  31  54  80 106 137 179 224 264 314
#     4  11  22  36  57  81 110 148 188 229 277 329
#     4  10  20  35  54  79 109 141 179 223 273 328
#     4  10  21  34  55  81 108 144 179 224 273 325
#
# _framework density 18.762892000000001
#
# number of rings (size 3 to 8) (size 9 to 14) (size 15 to 20)
#    0.000    2.000    1.667    2.500    0.000    4.000 
#    0.000    0.000    0.000    0.000    0.000    0.000 
#    0.000    0.000    0.000    0.000    0.000    0.000 
#
# Total GULP energy -267696.269399 kJ/mol
# GULP energy per Si atom -5577.005612 kJ/mol
# Density = 1.872019 g / cm^3
# Si number density = 18.762892 Si / 1000 Ang^3
#
#
#
# Elastic Constant Matrix: (Units=GPa)
#
#
# Indices 1 2 3 4 5 6 
#
# 1 55.9576 18.5255 3.7649 0.0000 0.0000 0.0000
# 2 18.5255 40.7408 7.7343 0.0000 0.0000 0.0000
# 3 3.7649 7.7343 39.7802 0.0000 0.0000 0.0000
# 4 0.0000 0.0000 0.0000 19.8009 0.0000 0.0000
# 5 0.0000 0.0000 0.0000 0.0000 26.0617 0.0000
# 6 0.0000 0.0000 0.0000 0.0000 0.0000 20.2309
#
#
#
# Elastic Compliance Matrix: (Units=1/GPa)
#
#
# Indices 1 2 3 4 5 6 
#
# 1 0.021038 -0.009541 -0.000136 0.000000 0.000000 0.000000
# 2 -0.009541 0.029813 -0.004893 0.000000 0.000000 0.000000
# 3 -0.000136 -0.004893 0.026102 0.000000 0.000000 0.000000
# 4 0.000000 0.000000 0.000000 0.050503 0.000000 0.000000
# 5 0.000000 0.000000 0.000000 0.000000 0.038371 0.000000
# 6 0.000000 0.000000 0.000000 0.000000 0.000000 0.049429
#
#
# Mechanical properties :
#
#
# Convention : Reuss Voigt Hill
#
# Bulk Modulus (GPa) = 20.91481 21.83645 21.37563
# Shear Modulus (GPa) = 19.20607 20.31561 19.76084
#
# Velocity S-wave (km/s) = 3.20288 3.29409 3.24881
# Velocity P-wave (km/s) = 4.98488 5.11189 5.04878
#
# Compressibility (1/GPa) = 0.04781302
#
# Stress axis : x y z
#
# Youngs Moduli (GPa) = 47.53217 33.54276 38.31060
#
# Poissons Ratio (x) = 0.32002 0.00522
# Poissons Ratio (y) = 0.45349 0.18747
# Poissons Ratio (z) = 0.00647 0.16414
#
# Static dielectric constant tensor:
#      x y z
#    x 1.654460 0.000000 0.000000 
#    y 0.000000 1.657270 0.000000 
#    z 0.000000 0.000000 1.660750 
# 
# From -- ./inp_files/3201.got.cif
#   From: 2010.05.17/outbox.cif.g08.bks.cpg/sg62_2_cif.got.tgz:3201.got - 2010.06.03 15:25:27.
