data_PCOD9464123
_publ_section_title
;
Structure prediction by ZEFSAII (Michael W. Deem and Ramdas Pophale) SiO2 
 PCOD9464123
Probable space group: P N M A
;
_chemical_formula_sum "Si O2"
_cell_formula_units_Z 48
_cell_length_a 29.401796
_cell_length_b 7.556307
_cell_length_c 8.279872
_cell_angle_alpha 90.000000
_cell_angle_beta 90.000000
_cell_angle_gamma 90.000000
_cell_volume 1839.530857
_symmetry_space_group_name_H-M "P N M A"
_symmetry_group_IT_number 62
_symmetry_cell_setting 'orthorhombic'
loop_
_space_group_symop_operation_xyz
x,y,z
1/2-x,-y,1/2+z
1/2+x,1/2-y,1/2-z
-x,1/2+y,-z
-x,-y,-z
1/2+x,y,1/2-z
1/2-x,1/2+y,1/2+z
x,1/2-y,z
loop_
_atom_site_type_symbol
_atom_site_label
_atom_site_fract_x
_atom_site_fract_y
_atom_site_fract_z
Si Si1 0.905104 0.454909 0.034920
Si Si2 0.485388 0.042933 0.266882
Si Si3 0.768097 0.035863 0.532903
Si Si4 0.847550 0.455853 0.742237
Si Si5 0.181015 0.041781 0.799117
Si Si6 0.933133 0.963949 0.562396
O O1 0.913903 0.250000 0.994822
O O2 0.952923 0.534819 0.093987
O O3 0.868247 0.457667 0.179974
O O4 0.876234 0.538548 0.888893
O O5 0.491493 0.250000 0.301210
O O6 0.534260 0.972076 0.210349
O O7 0.455818 0.027135 0.102511
O O8 0.767569 0.250000 0.540418
O O9 0.800218 0.968456 0.679200
O O10 0.716643 0.975513 0.564385
O O11 0.792477 0.984620 0.367978
O O12 0.839884 0.250000 0.781143
O O13 0.882742 0.469124 0.593460
O O14 0.173687 0.250000 0.818696
O O15 0.933009 0.750000 0.559922
#
# Coordination Sequence:
#
# PCOD9464123 Si02
#       6
#     8   8   8   8   8   8
#     4  10  21  38  58  79 109 148 184 220 269 328
#     4   9  19  36  56  78 107 145 184 221 271 332
#     4  10  22  39  57  79 110 144 176 215 267 324
#     4  10  21  37  56  78 107 146 185 218 265 329
#     4  11  23  38  59  86 111 139 181 227 267 313
#     4  10  20  34  54  81 110 140 180 230 275 317
#
# _framework density 26.093610999999999
#
# number of rings (size 3 to 8) (size 9 to 14) (size 15 to 20)
#    0.000    2.000    0.000    3.000    0.000   10.000 
#    0.000    0.000    0.000    0.000    0.000    0.000 
#    0.000    0.000    0.000    0.000    0.000    0.000 
#
# Total GULP energy -268591.156552 kJ/mol
# GULP energy per Si atom -5595.649095 kJ/mol
# Density = 2.603422 g / cm^3
# Si number density = 26.093611 Si / 1000 Ang^3
#
#
#
# Elastic Constant Matrix: (Units=GPa)
#
#
# Indices 1 2 3 4 5 6 
#
# 1 129.5458 12.2994 7.6925 0.0000 0.0000 0.0000
# 2 12.2994 96.7557 6.0598 0.0000 0.0000 0.0000
# 3 7.6925 6.0598 81.0987 0.0000 0.0000 0.0000
# 4 0.0000 0.0000 0.0000 18.9214 0.0000 0.0000
# 5 0.0000 0.0000 0.0000 0.0000 54.8078 0.0000
# 6 0.0000 0.0000 0.0000 0.0000 0.0000 11.3881
#
#
#
# Elastic Compliance Matrix: (Units=1/GPa)
#
#
# Indices 1 2 3 4 5 6 
#
# 1 0.007850 -0.000956 -0.000673 0.000000 0.000000 0.000000
# 2 -0.000956 0.010500 -0.000694 0.000000 0.000000 0.000000
# 3 -0.000673 -0.000694 0.012446 0.000000 0.000000 0.000000
# 4 0.000000 0.000000 0.000000 0.052850 0.000000 0.000000
# 5 0.000000 0.000000 0.000000 0.000000 0.018246 0.000000
# 6 0.000000 0.000000 0.000000 0.000000 0.000000 0.087811
#
#
# Mechanical properties :
#
#
# Convention : Reuss Voigt Hill
#
# Bulk Modulus (GPa) = 38.23956 39.94485 39.09220
# Shear Modulus (GPa) = 24.62256 35.78004 30.20130
#
# Velocity S-wave (km/s) = 3.07518 3.70701 3.40578
# Velocity P-wave (km/s) = 5.22451 5.80208 5.52085
#
# Compressibility (1/GPa) = 0.02615093
#
# Stress axis : x y z
#
# Youngs Moduli (GPa) = 127.38873 95.23580 80.34476
#
# Poissons Ratio (x) = 0.09102 0.05409
# Poissons Ratio (y) = 0.12175 0.05575
# Poissons Ratio (z) = 0.08576 0.06609
#
# Static dielectric constant tensor:
#      x y z
#    x 2.014270 0.000000 0.000000 
#    y 0.000000 1.935470 0.000000 
#    z 0.000000 0.000000 2.153170 
# 
# From -- ./inp_files/10198.got.cif
#   From: 2010.05.17/outbox.cif.g08.bks.cpg/sg62_6_cif.got.tgz:10198.got - 2010.06.03 15:25:27.
