data_PCOD9464735
_publ_section_title
;
Structure prediction by ZEFSAII (Michael W. Deem and Ramdas Pophale) SiO2 
 PCOD9464735
Probable space group: P N M A
;
_chemical_formula_sum "Si O2"
_cell_formula_units_Z 48
_cell_length_a 7.820019
_cell_length_b 19.202333
_cell_length_c 13.813167
_cell_angle_alpha 90.000000
_cell_angle_beta 90.000000
_cell_angle_gamma 90.000000
_cell_volume 2074.221194
_symmetry_space_group_name_H-M "P N M A"
_symmetry_group_IT_number 62
_symmetry_cell_setting 'orthorhombic'
loop_
_space_group_symop_operation_xyz
x,y,z
1/2-x,-y,1/2+z
1/2+x,1/2-y,1/2-z
-x,1/2+y,-z
-x,-y,-z
1/2+x,y,1/2-z
1/2-x,1/2+y,1/2+z
x,1/2-y,z
loop_
_atom_site_type_symbol
_atom_site_label
_atom_site_fract_x
_atom_site_fract_y
_atom_site_fract_z
Si Si1 0.373808 0.949751 0.903274
Si Si2 0.744731 0.827773 0.473012
Si Si3 0.626086 0.327156 0.424451
Si Si4 0.417653 0.100146 0.699970
Si Si5 0.261375 0.049895 0.201609
Si Si6 0.787065 0.397190 0.598923
O O1 0.237490 0.937866 0.816695
O O2 0.552606 0.951640 0.846425
O O3 0.331730 0.026545 0.943557
O O4 0.358267 0.888942 0.981243
O O5 0.816429 0.750000 0.481520
O O6 0.564855 0.830074 0.532028
O O7 0.690044 0.845922 0.363916
O O8 0.656066 0.250000 0.384645
O O9 0.659872 0.387394 0.348026
O O10 0.753367 0.342908 0.514306
O O11 0.416410 0.118281 0.813625
O O12 0.606159 0.096905 0.655643
O O13 0.331167 0.024319 0.687380
#
# Coordination Sequence:
#
# PCOD9464735 Si02
#       6
#     8   8   8   8   8   8
#     4  11  22  37  59  84 110 143 184 230 276 324
#     4  10  22  39  57  80 113 150 184 222 273 329
#     4  10  22  39  57  80 113 150 184 222 273 329
#     4  10  20  36  59  84 111 145 184 227 273 322
#     4  11  22  37  59  84 110 143 184 230 276 324
#     4  10  20  36  59  84 111 145 184 227 273 322
#
# _framework density 23.141214999999999
#
# number of rings (size 3 to 8) (size 9 to 14) (size 15 to 20)
#    0.000    1.667    0.000    7.000    0.000    8.667 
#    0.000    0.000    0.000    0.000    0.000    0.000 
#    0.000    0.000    0.000    0.000    0.000    0.000 
#
# Total GULP energy -268806.522354 kJ/mol
# GULP energy per Si atom -5600.135882 kJ/mol
# Density = 2.308854 g / cm^3
# Si number density = 23.141215 Si / 1000 Ang^3
#
#
#
# Elastic Constant Matrix: (Units=GPa)
#
#
# Indices 1 2 3 4 5 6 
#
# 1 79.7567 9.0083 -7.0164 0.0000 0.0000 0.0000
# 2 9.0083 77.0389 15.2989 0.0000 0.0000 0.0000
# 3 -7.0164 15.2989 60.8017 0.0000 0.0000 0.0000
# 4 0.0000 0.0000 0.0000 17.8672 0.0000 0.0000
# 5 0.0000 0.0000 0.0000 0.0000 35.3186 0.0000
# 6 0.0000 0.0000 0.0000 0.0000 0.0000 22.1625
#
#
#
# Elastic Compliance Matrix: (Units=1/GPa)
#
#
# Indices 1 2 3 4 5 6 
#
# 1 0.012926 -0.001903 0.001970 0.000000 0.000000 0.000000
# 2 -0.001903 0.013943 -0.003728 0.000000 0.000000 0.000000
# 3 0.001970 -0.003728 0.017612 0.000000 0.000000 0.000000
# 4 0.000000 0.000000 0.000000 0.055968 0.000000 0.000000
# 5 0.000000 0.000000 0.000000 0.000000 0.028314 0.000000
# 6 0.000000 0.000000 0.000000 0.000000 0.000000 0.045121
#
#
# Mechanical properties :
#
#
# Convention : Reuss Voigt Hill
#
# Bulk Modulus (GPa) = 26.90970 28.01989 27.46479
# Shear Modulus (GPa) = 25.82736 28.42343 27.12539
#
# Velocity S-wave (km/s) = 3.34440 3.50846 3.42741
# Velocity P-wave (km/s) = 5.15432 5.34293 5.24947
#
# Compressibility (1/GPa) = 0.03716133
#
# Stress axis : x y z
#
# Youngs Moduli (GPa) = 77.36106 71.71907 56.77842
#
# Poissons Ratio (x) = 0.13647 -0.11188
# Poissons Ratio (y) = 0.14720 0.21167
# Poissons Ratio (z) = -0.15244 0.26737
#
# Static dielectric constant tensor:
#      x y z
#    x 1.927590 0.000000 0.000000 
#    y 0.000000 1.811380 0.000000 
#    z 0.000000 0.000000 1.866260 
# 
# From -- ./inp_files/16987.got.cif
#   From: 2010.05.17/outbox.cif.g08.bks.cpg/sg62_9_cif.got.tgz:16987.got - 2010.06.03 15:25:27.
