data_PCOD9464420
_publ_section_title
;
Structure prediction by ZEFSAII (Michael W. Deem and Ramdas Pophale) SiO2 
 PCOD9464420
Probable space group: P N M A
;
_chemical_formula_sum "Si O2"
_cell_formula_units_Z 56
_cell_length_a 20.736361
_cell_length_b 14.435453
_cell_length_c 9.909452
_cell_angle_alpha 90.000000
_cell_angle_beta 90.000000
_cell_angle_gamma 90.000000
_cell_volume 2966.283120
_symmetry_space_group_name_H-M "P N M A"
_symmetry_group_IT_number 62
_symmetry_cell_setting 'orthorhombic'
loop_
_space_group_symop_operation_xyz
x,y,z
1/2-x,-y,1/2+z
1/2+x,1/2-y,1/2-z
-x,1/2+y,-z
-x,-y,-z
1/2+x,y,1/2-z
1/2-x,1/2+y,1/2+z
x,1/2-y,z
loop_
_atom_site_type_symbol
_atom_site_label
_atom_site_fract_x
_atom_site_fract_y
_atom_site_fract_z
Si Si1 0.576444 0.861494 0.642738
Si Si2 0.339450 0.642073 0.395355
Si Si3 0.464374 0.984666 0.141110
Si Si4 0.820412 0.541403 0.370772
Si Si5 0.224092 0.856503 0.932326
Si Si6 0.758896 0.353550 0.369092
Si Si7 0.509230 0.140306 0.620181
O O1 0.573542 0.750000 0.670230
O O2 0.553100 0.923876 0.768849
O O3 0.650099 0.884358 0.598875
O O4 0.532533 0.882155 0.511739
O O5 0.333119 0.750000 0.352006
O O6 0.309554 0.576079 0.281968
O O7 0.301320 0.631688 0.533884
O O8 0.415152 0.622879 0.411218
O O9 0.395482 0.936482 0.106085
O O10 0.503421 0.919423 0.245734
O O11 0.500000 0.000000 0.000000
O O12 0.766418 0.587838 0.462714
O O13 0.810852 0.432506 0.392883
O O14 0.220947 0.750000 0.977953
O O15 0.259210 0.860111 0.787546
O O16 0.784807 0.250000 0.391955
O O17 0.500960 0.250000 0.646834
#
# Coordination Sequence:
#
# PCOD9464420 Si02
#       7
#     8   8   8   8   8   8   8
#     4  10  21  42  64  85 117 160 202 247 297 353
#     4   9  19  36  58  84 111 145 190 238 288 339
#     4  11  24  40  58  91 122 158 197 246 302 360
#     4  11  21  37  59  82 117 153 189 238 296 344
#     4  10  21  38  60  87 116 151 197 242 292 352
#     4  10  20  35  56  83 115 149 189 233 285 351
#     4   9  20  40  64  85 114 157 202 246 291 347
#
# _framework density 18.878844999999998
#
# number of rings (size 3 to 8) (size 9 to 14) (size 15 to 20)
#    0.000    2.000    1.429    1.714    2.000    2.286 
#    5.143    1.429    0.000    0.000    0.000    0.000 
#    0.000    0.000    0.000    0.000    0.000    0.000 
#
# Total GULP energy -312334.265155 kJ/mol
# GULP energy per Si atom -5577.397592 kJ/mol
# Density = 1.883588 g / cm^3
# Si number density = 18.878845 Si / 1000 Ang^3
#
#
#
# Elastic Constant Matrix: (Units=GPa)
#
#
# Indices 1 2 3 4 5 6 
#
# 1 73.9301 48.6508 83.7043 0.0000 0.0000 0.0000
# 2 48.6508 83.6389 69.7372 0.0000 0.0000 0.0000
# 3 83.7043 69.7372 146.5742 0.0000 0.0000 0.0000
# 4 0.0000 0.0000 0.0000 28.2771 0.0000 0.0000
# 5 0.0000 0.0000 0.0000 0.0000 34.6199 0.0000
# 6 0.0000 0.0000 0.0000 0.0000 0.0000 24.6507
#
#
#
# Elastic Compliance Matrix: (Units=1/GPa)
#
#
# Indices 1 2 3 4 5 6 
#
# 1 0.040675 -0.007114 -0.019843 0.000000 0.000000 0.000000
# 2 -0.007114 0.021062 -0.005958 0.000000 0.000000 0.000000
# 3 -0.019843 -0.005958 0.020989 0.000000 0.000000 0.000000
# 4 0.000000 0.000000 0.000000 0.035364 0.000000 0.000000
# 5 0.000000 0.000000 0.000000 0.000000 0.028885 0.000000
# 6 0.000000 0.000000 0.000000 0.000000 0.000000 0.040567
#
#
# Mechanical properties :
#
#
# Convention : Reuss Voigt Hill
#
# Bulk Modulus (GPa) = 59.19096 78.70309 68.94703
# Shear Modulus (GPa) = 19.30456 24.31293 21.80874
#
# Velocity S-wave (km/s) = 3.20120 3.59254 3.40250
# Velocity P-wave (km/s) = 6.71452 7.68033 7.21361
#
# Compressibility (1/GPa) = 0.01689447
#
# Stress axis : x y z
#
# Youngs Moduli (GPa) = 24.58522 47.47803 47.64347
#
# Poissons Ratio (x) = 0.33778 0.94540
# Poissons Ratio (y) = 0.17491 0.28387
# Poissons Ratio (z) = 0.48785 0.28288
#
# Static dielectric constant tensor:
#      x y z
#    x 1.641370 0.000000 0.000000 
#    y 0.000000 1.722190 0.000000 
#    z 0.000000 0.000000 1.721880 
# 
# From -- ./inp_files/8741.got.cif
#   From: 2010.05.17/outbox.cif.g08.bks.cpg/sg62_5_cif.got.tgz:8741.got - 2010.06.03 15:25:27.
