data_PCOD9464635
_publ_section_title
;
Structure prediction by ZEFSAII (Michael W. Deem and Ramdas Pophale) SiO2 
 PCOD9464635
Probable space group: P N M A
;
_chemical_formula_sum "Si O2"
_cell_formula_units_Z 52
_cell_length_a 13.890513
_cell_length_b 7.661838
_cell_length_c 18.710570
_cell_angle_alpha 90.000000
_cell_angle_beta 90.000000
_cell_angle_gamma 90.000000
_cell_volume 1991.307220
_symmetry_space_group_name_H-M "P N M A"
_symmetry_group_IT_number 62
_symmetry_cell_setting 'orthorhombic'
loop_
_space_group_symop_operation_xyz
x,y,z
1/2-x,-y,1/2+z
1/2+x,1/2-y,1/2-z
-x,1/2+y,-z
-x,-y,-z
1/2+x,y,1/2-z
1/2-x,1/2+y,1/2+z
x,1/2-y,z
loop_
_atom_site_type_symbol
_atom_site_label
_atom_site_fract_x
_atom_site_fract_y
_atom_site_fract_z
Si Si1 0.060109 0.950511 0.086218
Si Si2 0.541071 0.048941 0.906648
Si Si3 0.352798 0.959199 0.397366
Si Si4 0.240093 0.453306 0.525445
Si Si5 0.590483 0.250000 0.134051
Si Si6 0.860757 0.555810 0.777915
Si Si7 0.146488 0.958206 0.730863
O O1 0.058853 0.750000 0.063254
O O2 0.954619 0.025333 0.070049
O O3 0.160588 0.029863 0.058165
O O4 0.067334 0.949972 0.173050
O O5 0.518212 0.250000 0.924761
O O6 0.638970 0.979696 0.945704
O O7 0.458519 0.905524 0.914894
O O8 0.572161 0.045055 0.822490
O O9 0.348358 0.750000 0.402859
O O10 0.262864 0.036240 0.440879
O O11 0.356231 0.010041 0.314940
O O12 0.236686 0.250000 0.545507
O O13 0.622888 0.401135 0.194968
O O14 0.867732 0.750000 0.810483
O O15 0.754018 0.485478 0.789872
O O16 0.134010 0.750000 0.719608
#
# Coordination Sequence:
#
# PCOD9464635 Si02
#       7
#     8   8   8   8   4   8   8
#     4  10  20  36  56  85 129 165 204 247 302 380
#     4  11  22  38  64  94 127 163 214 263 315 381
#     4  11  24  36  57  92 124 166 208 257 312 380
#     4  10  22  39  59  88 123 171 208 251 317 375
#     4  10  22  38  60  94 118 162 214 260 320 356
#     4   9  21  36  56  88 118 161 207 250 318 364
#     4  11  21  38  60  87 124 163 208 262 314 374
#
# _framework density 26.113499999999998
#
# number of rings (size 3 to 8) (size 9 to 14) (size 15 to 20)
#    0.462    1.231    2.308    2.308    1.077    3.692 
#    0.000    0.000    0.000    0.923    0.000    0.000 
#    0.000    0.000    0.000    0.000    0.000    0.000 
#
# Total GULP energy -289666.502525 kJ/mol
# GULP energy per Si atom -5570.509664 kJ/mol
# Density = 2.605406 g / cm^3
# Si number density = 26.113500 Si / 1000 Ang^3
#
#
#
# Elastic Constant Matrix: (Units=GPa)
#
#
# Indices 1 2 3 4 5 6 
#
# 1 76.9776 15.7676 14.6450 0.0000 0.0000 0.0000
# 2 15.7676 86.5195 4.4100 0.0000 0.0000 0.0000
# 3 14.6450 4.4100 118.6001 0.0000 0.0000 0.0000
# 4 0.0000 0.0000 0.0000 26.9108 0.0000 0.0000
# 5 0.0000 0.0000 0.0000 0.0000 53.6489 0.0000
# 6 0.0000 0.0000 0.0000 0.0000 0.0000 1.0442
#
#
#
# Elastic Compliance Matrix: (Units=1/GPa)
#
#
# Indices 1 2 3 4 5 6 
#
# 1 0.013796 -0.002432 -0.001613 0.000000 0.000000 0.000000
# 2 -0.002432 0.012009 -0.000146 0.000000 0.000000 0.000000
# 3 -0.001613 -0.000146 0.008636 0.000000 0.000000 0.000000
# 4 0.000000 0.000000 0.000000 0.037160 0.000000 0.000000
# 5 0.000000 0.000000 0.000000 0.000000 0.018640 0.000000
# 6 0.000000 0.000000 0.000000 0.000000 0.000000 0.957682
#
#
# Mechanical properties :
#
#
# Convention : Reuss Voigt Hill
#
# Bulk Modulus (GPa) = 38.37551 39.08249 38.72900
# Shear Modulus (GPa) = 4.69487 32.80574 18.75031
#
# Velocity S-wave (km/s) = 1.34230 3.54824 2.68252
# Velocity P-wave (km/s) = 4.13883 5.63787 4.94548
#
# Compressibility (1/GPa) = 0.02605829
#
# Stress axis : x y z
#
# Youngs Moduli (GPa) = 72.48569 83.27263 115.78998
#
# Poissons Ratio (x) = 0.20252 0.18678
# Poissons Ratio (y) = 0.17628 0.01693
# Poissons Ratio (z) = 0.11693 0.01218
#
# Static dielectric constant tensor:
#      x y z
#    x 2.143290 0.000000 0.000000 
#    y 0.000000 1.964440 0.000000 
#    z 0.000000 0.000000 2.256520 
# 
# From -- ./inp_files/24273.got.cif
#   From: 2010.05.17/outbox.cif.g08.bks.cpg/sg62_13_cif.got.tgz:24273.got - 2010.06.03 15:25:27.
