data_PCOD9464272
_publ_section_title
;
Structure prediction by ZEFSAII (Michael W. Deem and Ramdas Pophale) SiO2 
 PCOD9464272
Probable space group: P N M A
;
_chemical_formula_sum "Si O2"
_cell_formula_units_Z 60
_cell_length_a 9.778096
_cell_length_b 12.069438
_cell_length_c 27.785047
_cell_angle_alpha 90.000000
_cell_angle_beta 90.000000
_cell_angle_gamma 90.000000
_cell_volume 3279.083536
_symmetry_space_group_name_H-M "P N M A"
_symmetry_group_IT_number 62
_symmetry_cell_setting 'orthorhombic'
loop_
_space_group_symop_operation_xyz
x,y,z
1/2-x,-y,1/2+z
1/2+x,1/2-y,1/2-z
-x,1/2+y,-z
-x,-y,-z
1/2+x,y,1/2-z
1/2-x,1/2+y,1/2+z
x,1/2-y,z
loop_
_atom_site_type_symbol
_atom_site_label
_atom_site_fract_x
_atom_site_fract_y
_atom_site_fract_z
Si Si1 0.841685 0.053404 0.894012
Si Si2 0.475031 0.623887 0.952728
Si Si3 0.814814 0.878214 0.809451
Si Si4 0.850085 0.618526 0.092004
Si Si5 0.764602 0.480867 0.495989
Si Si6 0.491207 0.120594 0.221943
Si Si7 0.424415 0.462669 0.863941
Si Si8 0.622278 0.250000 0.873584
O O1 0.737903 0.153228 0.884449
O O2 0.998068 0.092001 0.890680
O O3 0.814648 0.958669 0.854677
O O4 0.814721 0.006766 0.947436
O O5 0.467240 0.750000 0.936363
O O6 0.611195 0.603366 0.983863
O O7 0.476454 0.538051 0.908686
O O8 0.344832 0.590088 0.985137
O O9 0.821490 0.750000 0.825160
O O10 0.940531 0.900368 0.773550
O O11 0.672537 0.892056 0.780407
O O12 0.829326 0.750000 0.089966
O O13 0.733541 0.564619 0.125400
O O14 0.825144 0.567673 0.038916
O O15 0.521836 0.250000 0.209616
O O16 0.552784 0.035787 0.183370
O O17 0.508023 0.348724 0.863603
#
# Coordination Sequence:
#
# PCOD9464272 Si02
#       8
#     8   8   8   8   8   8   8   4
#     4  12  24  42  62  89 124 170 204 249 312 368
#     4  10  20  34  60  94 119 157 213 259 300 361
#     4  10  23  42  68  95 123 155 202 257 314 369
#     4  11  24  39  59  88 128 165 207 248 304 358
#     4  10  22  36  57  88 123 166 205 256 301 362
#     4  10  21  41  68  96 122 155 198 258 317 368
#     4  11  22  40  64  91 122 161 205 257 305 366
#     4  12  22  40  68  84 122 168 208 246 302 368
#
# _framework density 18.297795000000001
#
# number of rings (size 3 to 8) (size 9 to 14) (size 15 to 20)
#    0.000    1.333    4.000    1.200    2.800    2.133 
#    0.000    3.333    2.933    0.000    0.000    0.000 
#    0.000    0.000    0.000    0.000    0.000    0.000 
#
# Total GULP energy -334080.606674 kJ/mol
# GULP energy per Si atom -5568.010111 kJ/mol
# Density = 1.825615 g / cm^3
# Si number density = 18.297795 Si / 1000 Ang^3
#
#
#
# Elastic Constant Matrix: (Units=GPa)
#
#
# Indices 1 2 3 4 5 6 
#
# 1 54.0751 12.4163 -6.1607 0.0000 0.0000 0.0000
# 2 12.4163 102.2567 23.0749 0.0000 0.0000 0.0000
# 3 -6.1607 23.0749 28.9821 0.0000 0.0000 0.0000
# 4 0.0000 0.0000 0.0000 8.3256 0.0000 0.0000
# 5 0.0000 0.0000 0.0000 0.0000 19.4200 0.0000
# 6 0.0000 0.0000 0.0000 0.0000 0.0000 23.7976
#
#
#
# Elastic Compliance Matrix: (Units=1/GPa)
#
#
# Indices 1 2 3 4 5 6 
#
# 1 0.020330 -0.004198 0.007664 0.000000 0.000000 0.000000
# 2 -0.004198 0.012788 -0.011074 0.000000 0.000000 0.000000
# 3 0.007664 -0.011074 0.044950 0.000000 0.000000 0.000000
# 4 0.000000 0.000000 0.000000 0.120112 0.000000 0.000000
# 5 0.000000 0.000000 0.000000 0.000000 0.051493 0.000000
# 6 0.000000 0.000000 0.000000 0.000000 0.000000 0.042021
#
#
# Mechanical properties :
#
#
# Convention : Reuss Voigt Hill
#
# Bulk Modulus (GPa) = 15.91044 27.10830 21.50937
# Shear Modulus (GPa) = 15.25041 20.70753 17.97897
#
# Velocity S-wave (km/s) = 2.89010 3.36772 3.13801
# Velocity P-wave (km/s) = 4.45545 5.47442 4.99101
#
# Compressibility (1/GPa) = 0.06285183
#
# Stress axis : x y z
#
# Youngs Moduli (GPa) = 49.18882 78.19895 22.24700
#
# Poissons Ratio (x) = 0.32827 -0.17050
# Poissons Ratio (y) = 0.20649 0.24636
# Poissons Ratio (z) = -0.37697 0.86596
#
# Static dielectric constant tensor:
#      x y z
#    x 1.632920 0.000000 0.000000 
#    y 0.000000 1.602430 0.000000 
#    z 0.000000 0.000000 1.620870 
# 
# From -- ./inp_files/30876.got.cif
#   From: 2010.05.17/outbox.cif.g08.bks.cpg/sg62_16_cif.got.tgz:30876.got - 2010.06.03 15:25:27.
