data_PCOD9464302
_publ_section_title
;
Structure prediction by ZEFSAII (Michael W. Deem and Ramdas Pophale) SiO2 
 PCOD9464302
Probable space group: P N M A
;
_chemical_formula_sum "Si O2"
_cell_formula_units_Z 48
_cell_length_a 29.528338
_cell_length_b 7.510424
_cell_length_c 10.488222
_cell_angle_alpha 90.000000
_cell_angle_beta 90.000000
_cell_angle_gamma 90.000000
_cell_volume 2325.976542
_symmetry_space_group_name_H-M "P N M A"
_symmetry_group_IT_number 62
_symmetry_cell_setting 'orthorhombic'
loop_
_space_group_symop_operation_xyz
x,y,z
1/2-x,-y,1/2+z
1/2+x,1/2-y,1/2-z
-x,1/2+y,-z
-x,-y,-z
1/2+x,y,1/2-z
1/2-x,1/2+y,1/2+z
x,1/2-y,z
loop_
_atom_site_type_symbol
_atom_site_label
_atom_site_fract_x
_atom_site_fract_y
_atom_site_fract_z
Si Si1 0.354358 0.534600 0.735437
Si Si2 0.641600 0.958779 0.766808
Si Si3 0.197501 0.960607 0.495492
Si Si4 0.699462 0.033897 0.516993
Si Si5 0.449297 0.466528 0.357440
Si Si6 0.049719 0.459787 0.156600
O O1 0.355582 0.750000 0.731025
O O2 0.327299 0.475712 0.609433
O O3 0.406094 0.467739 0.727392
O O4 0.328307 0.482885 0.862729
O O5 0.633900 0.750000 0.793767
O O6 0.667596 0.036110 0.888652
O O7 0.592484 0.032233 0.727240
O O8 0.673663 0.973672 0.643576
O O9 0.202687 0.750000 0.521040
O O10 0.248720 0.030503 0.487178
O O11 0.699156 0.250000 0.519392
O O12 0.449529 0.250000 0.356028
O O13 0.442200 0.519597 0.504832
O O14 0.499312 0.531289 0.317550
O O15 0.047715 0.250000 0.185143
#
# Coordination Sequence:
#
# PCOD9464302 Si02
#       6
#     8   8   8   8   8   8
#     4  10  20  35  54  76 104 136 170 211 257 305
#     4  10  20  35  54  77 105 135 169 211 256 304
#     4  10  22  36  50  72 105 139 171 210 254 302
#     4  10  20  35  54  75  99 133 176 215 252 298
#     4   9  17  30  52  79 102 129 167 210 255 301
#     4   9  17  31  52  77 103 130 165 211 256 300
#
# _framework density 20.636492000000001
#
# number of rings (size 3 to 8) (size 9 to 14) (size 15 to 20)
#    0.000    2.333    1.667    1.000    0.000    4.000 
#    0.000    0.833    0.000    0.000    0.000    0.000 
#    0.000    0.000    0.000    0.000    0.000    0.000 
#
# Total GULP energy -267974.171097 kJ/mol
# GULP energy per Si atom -5582.795231 kJ/mol
# Density = 2.058952 g / cm^3
# Si number density = 20.636492 Si / 1000 Ang^3
#
#
#
# Elastic Constant Matrix: (Units=GPa)
#
#
# Indices 1 2 3 4 5 6 
#
# 1 184.2224 -6.1681 47.5375 0.0000 0.0000 0.0000
# 2 -6.1681 48.8234 -18.9522 0.0000 0.0000 0.0000
# 3 47.5375 -18.9522 84.3350 0.0000 0.0000 0.0000
# 4 0.0000 0.0000 0.0000 39.9413 0.0000 0.0000
# 5 0.0000 0.0000 0.0000 0.0000 -7.6876 0.0000
# 6 0.0000 0.0000 0.0000 0.0000 0.0000 12.9973
#
#
#
# Elastic Compliance Matrix: (Units=1/GPa)
#
#
# Indices 1 2 3 4 5 6 
#
# 1 0.006371 -0.000645 -0.003736 0.000000 0.000000 0.000000
# 2 -0.000645 0.022505 0.005421 0.000000 0.000000 0.000000
# 3 -0.003736 0.005421 0.015182 0.000000 0.000000 0.000000
# 4 0.000000 0.000000 0.000000 0.025037 0.000000 0.000000
# 5 0.000000 0.000000 0.000000 0.000000 -0.130079 0.000000
# 6 0.000000 0.000000 0.000000 0.000000 0.000000 0.076939
#
#
# Mechanical properties :
#
#
# Convention : Reuss Voigt Hill
#
# Bulk Modulus (GPa) = 21.67472 40.24614 30.96043
# Shear Modulus (GPa) = 170.92109 28.71444 99.81777
#
# Velocity S-wave (km/s) = 9.11068 3.73425 6.96237
# Velocity P-wave (km/s) = 11.00902 6.17556 8.92570
#
# Compressibility (1/GPa) = 0.04613669
#
# Stress axis : x y z
#
# Youngs Moduli (GPa) = 156.96928 44.43490 65.86897
#
# Poissons Ratio (x) = 0.02868 0.24609
# Poissons Ratio (y) = 0.10131 -0.35709
# Poissons Ratio (z) = 0.58644 -0.24089
#
# Static dielectric constant tensor:
#      x y z
#    x 1.766400 0.000000 0.000000 
#    y 0.000000 1.790160 0.000000 
#    z 0.000000 0.000000 1.671040 
# 
# From -- ./inp_files/9326.got.cif
#   From: 2010.05.17/outbox.cif.g08.bks.cpg/sg62_5_cif.got.tgz:9326.got - 2010.06.03 15:25:27.
