data_PCOD9464945
_publ_section_title
;
Structure prediction by ZEFSAII (Michael W. Deem and Ramdas Pophale) SiO2 
 PCOD9464945
Probable space group: P N M A
;
_chemical_formula_sum "Si O2"
_cell_formula_units_Z 64
_cell_length_a 34.020717
_cell_length_b 7.827941
_cell_length_c 11.197598
_cell_angle_alpha 90.000000
_cell_angle_beta 90.000000
_cell_angle_gamma 90.000000
_cell_volume 2982.056571
_symmetry_space_group_name_H-M "P N M A"
_symmetry_group_IT_number 62
_symmetry_cell_setting 'orthorhombic'
loop_
_space_group_symop_operation_xyz
x,y,z
1/2-x,-y,1/2+z
1/2+x,1/2-y,1/2-z
-x,1/2+y,-z
-x,-y,-z
1/2+x,y,1/2-z
1/2-x,1/2+y,1/2+z
x,1/2-y,z
loop_
_atom_site_type_symbol
_atom_site_label
_atom_site_fract_x
_atom_site_fract_y
_atom_site_fract_z
Si Si1 0.886048 0.946858 0.098814
Si Si2 0.828336 0.047856 0.480771
Si Si3 0.393709 0.551410 0.859792
Si Si4 0.222970 0.958698 0.289041
Si Si5 0.983957 0.045387 0.632150
Si Si6 0.310156 0.945665 0.275915
Si Si7 0.474994 0.543541 0.380481
Si Si8 0.653604 0.945826 0.365089
O O1 0.889606 0.750000 0.140351
O O2 0.849731 0.027570 0.171472
O O3 0.929891 0.020348 0.107437
O O4 0.870028 0.952546 0.964227
O O5 0.823740 0.250000 0.460435
O O6 0.801317 0.997453 0.592829
O O7 0.872892 0.007908 0.518656
O O8 0.815555 0.947807 0.365129
O O9 0.384765 0.750000 0.841050
O O10 0.439783 0.523032 0.859960
O O11 0.372728 0.448758 0.754012
O O12 0.223959 0.750000 0.281255
O O13 0.267307 0.023479 0.298777
O O14 0.196403 0.013828 0.175783
O O15 0.983176 0.250000 0.638716
O O16 0.007025 0.985540 0.752421
O O17 0.000000 0.000000 0.500000
O O18 0.308589 0.750000 0.322241
O O19 0.500000 0.500000 0.500000
O O20 0.474235 0.750000 0.377613
O O21 0.657848 0.750000 0.405962
#
# Coordination Sequence:
#
# PCOD9464945 Si02
#       8
#     8   8   8   8   8   8   8   8
#     4  10  22  38  59  87 120 155 198 246 300 364
#     4  10  21  38  59  86 119 153 196 248 298 355
#     4  11  22  39  63  88 117 156 201 246 301 364
#     4   8  18  36  56  81 116 155 194 241 296 351
#     4  11  24  41  63  93 127 164 206 258 314 375
#     4  10  21  37  58  83 117 159 198 244 299 356
#     4  10  23  42  63  90 123 160 202 254 311 371
#     4  10  20  37  60  87 121 156 198 249 295 352
#
# _framework density 21.461697999999998
#
# number of rings (size 3 to 8) (size 9 to 14) (size 15 to 20)
#    0.000    2.000    0.000    3.750    3.500    4.000 
#    0.000    3.125    0.000    0.000    0.000    0.000 
#    0.000    0.000    0.000    0.000    0.000    0.000 
#
# Total GULP energy -357151.373890 kJ/mol
# GULP energy per Si atom -5580.490217 kJ/mol
# Density = 2.141285 g / cm^3
# Si number density = 21.461698 Si / 1000 Ang^3
#
#
#
# Elastic Constant Matrix: (Units=GPa)
#
#
# Indices 1 2 3 4 5 6 
#
# 1 196.4830 2.4339 58.1941 0.0000 0.0000 0.0000
# 2 2.4339 50.3479 -3.4310 0.0000 0.0000 0.0000
# 3 58.1941 -3.4310 87.8937 0.0000 0.0000 0.0000
# 4 0.0000 0.0000 0.0000 24.7152 0.0000 0.0000
# 5 0.0000 0.0000 0.0000 0.0000 24.4774 0.0000
# 6 0.0000 0.0000 0.0000 0.0000 0.0000 -23.1601
#
#
#
# Elastic Compliance Matrix: (Units=1/GPa)
#
#
# Indices 1 2 3 4 5 6 
#
# 1 0.006349 -0.000595 -0.004227 0.000000 0.000000 0.000000
# 2 -0.000595 0.019971 0.001173 0.000000 0.000000 0.000000
# 3 -0.004227 0.001173 0.014222 0.000000 0.000000 0.000000
# 4 0.000000 0.000000 0.000000 0.040461 0.000000 0.000000
# 5 0.000000 0.000000 0.000000 0.000000 0.040854 0.000000
# 6 0.000000 0.000000 0.000000 0.000000 0.000000 -0.043178
#
#
# Mechanical properties :
#
#
# Convention : Reuss Voigt Hill
#
# Bulk Modulus (GPa) = 30.08007 49.90208 39.99108
# Shear Modulus (GPa) = 51.51670 23.70835 37.61253
#
# Velocity S-wave (km/s) = 4.90471 3.32728 4.19088
# Velocity P-wave (km/s) = 6.79124 6.16954 6.48784
#
# Compressibility (1/GPa) = 0.03324460
#
# Stress axis : x y z
#
# Youngs Moduli (GPa) = 157.51187 50.07380 70.31525
#
# Poissons Ratio (x) = 0.02979 0.29720
# Poissons Ratio (y) = 0.09371 -0.08251
# Poissons Ratio (z) = 0.66575 -0.05876
#
# Static dielectric constant tensor:
#      x y z
#    x 1.792000 0.000000 0.000000 
#    y 0.000000 1.820320 0.000000 
#    z 0.000000 0.000000 1.778180 
# 
# From -- ./inp_files/15768.got.cif
#   From: 2010.05.17/outbox.cif.g08.bks.cpg/sg62_8_cif.got.tgz:15768.got - 2010.06.03 15:25:27.
