data_PCOD9464040
_publ_section_title
;
Structure prediction by ZEFSAII (Michael W. Deem and Ramdas Pophale) SiO2 
 PCOD9464040
Probable space group: P N M A
;
_chemical_formula_sum "Si O2"
_cell_formula_units_Z 48
_cell_length_a 8.232401
_cell_length_b 24.242795
_cell_length_c 13.561635
_cell_angle_alpha 90.000000
_cell_angle_beta 90.000000
_cell_angle_gamma 90.000000
_cell_volume 2706.582424
_symmetry_space_group_name_H-M "P N M A"
_symmetry_group_IT_number 62
_symmetry_cell_setting 'orthorhombic'
loop_
_space_group_symop_operation_xyz
x,y,z
1/2-x,-y,1/2+z
1/2+x,1/2-y,1/2-z
-x,1/2+y,-z
-x,-y,-z
1/2+x,y,1/2-z
1/2-x,1/2+y,1/2+z
x,1/2-y,z
loop_
_atom_site_type_symbol
_atom_site_label
_atom_site_fract_x
_atom_site_fract_y
_atom_site_fract_z
Si Si1 0.189095 0.416654 0.429217
Si Si2 0.289417 0.813604 0.610839
Si Si3 0.180707 0.917507 0.500121
Si Si4 0.331331 0.021990 0.608426
Si Si5 0.200531 0.478254 0.818130
Si Si6 0.664553 0.813778 0.674530
O O1 0.302016 0.434202 0.521402
O O2 0.223866 0.461965 0.344588
O O3 0.230856 0.356851 0.387604
O O4 0.005563 0.421964 0.466607
O O5 0.260362 0.750000 0.582452
O O6 0.245469 0.857489 0.528027
O O7 0.477454 0.818964 0.642752
O O8 0.185734 0.825986 0.709493
O O9 0.205543 0.934601 0.386934
O O10 0.281072 0.963316 0.561798
O O11 0.514800 0.021369 0.646568
O O12 0.219762 0.033056 0.703188
O O13 0.716358 0.750000 0.660549
#
# Coordination Sequence:
#
# PCOD9464040 Si02
#       6
#     8   8   8   8   8   8
#     4  11  21  34  52  76 104 134 169 207 251 299
#     4  10  20  34  52  75 103 135 170 208 251 298
#     4  11  21  34  52  76 104 134 169 207 251 299
#     4  11  21  35  53  75 103 134 169 207 251 299
#     4  11  21  35  53  75 103 134 169 207 251 299
#     4  10  20  34  52  75 103 135 170 208 251 298
#
# _framework density 17.734542000000001
#
# number of rings (size 3 to 8) (size 9 to 14) (size 15 to 20)
#    0.000    1.333    0.000   10.000    0.000    2.000 
#    0.000    0.000    0.000    1.000    0.000    0.000 
#    0.000    0.000    0.000    0.000    0.000    0.000 
#
# Total GULP energy -268370.003975 kJ/mol
# GULP energy per Si atom -5591.041749 kJ/mol
# Density = 1.769418 g / cm^3
# Si number density = 17.734542 Si / 1000 Ang^3
#
#
#
# Elastic Constant Matrix: (Units=GPa)
#
#
# Indices 1 2 3 4 5 6 
#
# 1 48.6726 3.7610 -16.1987 0.0000 0.0000 0.0000
# 2 3.7610 79.9739 34.7233 0.0000 0.0000 0.0000
# 3 -16.1987 34.7233 67.4847 0.0000 0.0000 0.0000
# 4 0.0000 0.0000 0.0000 18.6869 0.0000 0.0000
# 5 0.0000 0.0000 0.0000 0.0000 31.0861 0.0000
# 6 0.0000 0.0000 0.0000 0.0000 0.0000 22.9347
#
#
#
# Elastic Compliance Matrix: (Units=1/GPa)
#
#
# Indices 1 2 3 4 5 6 
#
# 1 0.023569 -0.004590 0.008019 0.000000 0.000000 0.000000
# 2 -0.004590 0.016995 -0.009846 0.000000 0.000000 0.000000
# 3 0.008019 -0.009846 0.021809 0.000000 0.000000 0.000000
# 4 0.000000 0.000000 0.000000 0.053513 0.000000 0.000000
# 5 0.000000 0.000000 0.000000 0.000000 0.032169 0.000000
# 6 0.000000 0.000000 0.000000 0.000000 0.000000 0.043602
#
#
# Mechanical properties :
#
#
# Convention : Reuss Voigt Hill
#
# Bulk Modulus (GPa) = 20.18627 26.74474 23.46550
# Shear Modulus (GPa) = 22.62391 26.13127 24.37759
#
# Velocity S-wave (km/s) = 3.57557 3.84274 3.71156
# Velocity P-wave (km/s) = 5.33417 5.89934 5.62386
#
# Compressibility (1/GPa) = 0.04953863
#
# Stress axis : x y z
#
# Youngs Moduli (GPa) = 42.42866 58.84051 45.85182
#
# Poissons Ratio (x) = 0.27009 -0.36769
# Poissons Ratio (y) = 0.19476 0.45148
# Poissons Ratio (z) = -0.34024 0.57937
#
# Static dielectric constant tensor:
#      x y z
#    x 1.635680 0.000000 0.000000 
#    y 0.000000 1.589340 0.000000 
#    z 0.000000 0.000000 1.588370 
# 
# From -- ./inp_files/17069.got.cif
#   From: 2010.05.17/outbox.cif.g08.bks.cpg/sg62_9_cif.got.tgz:17069.got - 2010.06.03 15:25:27.
