data_PCOD9464549
_publ_section_title
;
Structure prediction by ZEFSAII (Michael W. Deem and Ramdas Pophale) SiO2 
 PCOD9464549
Probable space group: P N M A
;
_chemical_formula_sum "Si O2"
_cell_formula_units_Z 40
_cell_length_a 8.242235
_cell_length_b 14.354252
_cell_length_c 14.052807
_cell_angle_alpha 90.000000
_cell_angle_beta 90.000000
_cell_angle_gamma 90.000000
_cell_volume 1662.603310
_symmetry_space_group_name_H-M "P N M A"
_symmetry_group_IT_number 62
_symmetry_cell_setting 'orthorhombic'
loop_
_space_group_symop_operation_xyz
x,y,z
1/2-x,-y,1/2+z
1/2+x,1/2-y,1/2-z
-x,1/2+y,-z
-x,-y,-z
1/2+x,y,1/2-z
1/2-x,1/2+y,1/2+z
x,1/2-y,z
loop_
_atom_site_type_symbol
_atom_site_label
_atom_site_fract_x
_atom_site_fract_y
_atom_site_fract_z
Si Si1 0.201652 0.250000 0.601207
Si Si2 0.606480 0.636079 0.890044
Si Si3 0.338030 0.250000 0.806641
Si Si4 0.801299 0.901543 0.060642
Si Si5 0.195561 0.354747 0.277363
Si Si6 0.874110 0.381940 0.043562
O O1 0.322754 0.250000 0.692377
O O2 0.243911 0.163364 0.530169
O O3 0.020380 0.250000 0.647457
O O4 0.603459 0.750000 0.891901
O O5 0.444426 0.600632 0.840106
O O6 0.748689 0.600667 0.820122
O O7 0.643299 0.604102 0.994577
O O8 0.242741 0.341130 0.847216
O O9 0.852082 0.008578 0.063476
O O10 0.952988 0.858094 0.002610
O O11 0.143651 0.250000 0.254310
O O12 0.345339 0.345914 0.350005
#
# Coordination Sequence:
#
# PCOD9464549 Si02
#       6
#     4   8   4   8   8   8
#     4  12  26  46  71  98 133 180 228 278 336 400
#     4  10  20  35  59  90 122 160 201 251 313 375
#     4  12  26  46  71  98 133 180 228 278 336 400
#     4  11  24  42  66  96 131 172 218 271 330 395
#     4  10  20  35  59  90 122 160 201 251 313 375
#     4  11  24  42  66  96 131 172 218 271 330 395
#
# _framework density 24.058655999999999
#
# number of rings (size 3 to 8) (size 9 to 14) (size 15 to 20)
#    0.000    1.200    2.000    4.200    0.000    6.400 
#    0.000    0.000    0.000    0.000    0.000    0.000 
#    0.000    0.000    0.000    0.000    0.000    0.000 
#
# Total GULP energy -223383.358615 kJ/mol
# GULP energy per Si atom -5584.583965 kJ/mol
# Density = 2.400390 g / cm^3
# Si number density = 24.058656 Si / 1000 Ang^3
#
#
#
# Elastic Constant Matrix: (Units=GPa)
#
#
# Indices 1 2 3 4 5 6 
#
# 1 76.6008 -0.2434 -9.8261 0.0000 0.0000 0.0000
# 2 -0.2434 90.1248 14.3590 0.0000 0.0000 0.0000
# 3 -9.8261 14.3590 110.1629 0.0000 0.0000 0.0000
# 4 0.0000 0.0000 0.0000 5.1402 0.0000 0.0000
# 5 0.0000 0.0000 0.0000 0.0000 44.5297 0.0000
# 6 0.0000 0.0000 0.0000 0.0000 0.0000 10.9554
#
#
#
# Elastic Compliance Matrix: (Units=1/GPa)
#
#
# Indices 1 2 3 4 5 6 
#
# 1 0.013208 -0.000155 0.001198 0.000000 0.000000 0.000000
# 2 -0.000155 0.011333 -0.001491 0.000000 0.000000 0.000000
# 3 0.001198 -0.001491 0.009379 0.000000 0.000000 0.000000
# 4 0.000000 0.000000 0.000000 0.194544 0.000000 0.000000
# 5 0.000000 0.000000 0.000000 0.000000 0.022457 0.000000
# 6 0.000000 0.000000 0.000000 0.000000 0.000000 0.091280
#
#
# Mechanical properties :
#
#
# Convention : Reuss Voigt Hill
#
# Bulk Modulus (GPa) = 30.28136 31.71861 30.99998
# Shear Modulus (GPa) = 14.12017 30.29832 22.20925
#
# Velocity S-wave (km/s) = 2.42524 3.55259 3.04160
# Velocity P-wave (km/s) = 4.52285 5.48090 5.02476
#
# Compressibility (1/GPa) = 0.03302362
#
# Stress axis : x y z
#
# Youngs Moduli (GPa) = 75.71214 88.23895 106.62458
#
# Poissons Ratio (x) = 0.01370 -0.12777
# Poissons Ratio (y) = 0.01175 0.15898
# Poissons Ratio (z) = -0.09073 0.13157
#
# Static dielectric constant tensor:
#      x y z
#    x 2.048290 0.000000 0.000000 
#    y 0.000000 2.213370 0.000000 
#    z 0.000000 0.000000 1.868000 
# 
# From -- ./inp_files/16705.got.cif
#   From: 2010.05.17/outbox.cif.g08.bks.cpg/sg62_9_cif.got.tgz:16705.got - 2010.06.03 15:25:27.
