data_PCOD9464668
_publ_section_title
;
Structure prediction by ZEFSAII (Michael W. Deem and Ramdas Pophale) SiO2 
 PCOD9464668
Probable space group: P N M A
;
_chemical_formula_sum "Si O2"
_cell_formula_units_Z 48
_cell_length_a 13.293814
_cell_length_b 17.846745
_cell_length_c 10.064166
_cell_angle_alpha 90.000000
_cell_angle_beta 90.000000
_cell_angle_gamma 90.000000
_cell_volume 2387.736553
_symmetry_space_group_name_H-M "P N M A"
_symmetry_group_IT_number 62
_symmetry_cell_setting 'orthorhombic'
loop_
_space_group_symop_operation_xyz
x,y,z
1/2-x,-y,1/2+z
1/2+x,1/2-y,1/2-z
-x,1/2+y,-z
-x,-y,-z
1/2+x,y,1/2-z
1/2-x,1/2+y,1/2+z
x,1/2-y,z
loop_
_atom_site_type_symbol
_atom_site_label
_atom_site_fract_x
_atom_site_fract_y
_atom_site_fract_z
Si Si1 0.860946 0.938319 0.845045
Si Si2 0.001800 0.965637 0.355372
Si Si3 0.255727 0.160318 0.364942
Si Si4 0.120202 0.835561 0.264521
Si Si5 0.217871 0.427356 0.628644
Si Si6 0.523906 0.835958 0.529718
O O1 0.792758 0.880678 0.760807
O O2 0.934455 0.893087 0.941976
O O3 0.933313 0.983825 0.743937
O O4 0.788446 0.001607 0.906380
O O5 0.054806 0.884933 0.362517
O O6 0.886890 0.955235 0.313959
O O7 0.000000 0.000000 0.500000
O O8 0.239786 0.250000 0.363993
O O9 0.206756 0.122861 0.496518
O O10 0.376091 0.147853 0.382347
O O11 0.132772 0.750000 0.303138
O O12 0.224870 0.876697 0.236261
O O13 0.062942 0.839189 0.121865
O O14 0.492731 0.750000 0.557036
#
# Coordination Sequence:
#
# PCOD9464668 Si02
#       6
#     8   8   8   8   8   8
#     4  11  21  35  60  87 118 157 200 247 300 358
#     4  11  22  39  57  89 125 153 198 248 303 364
#     4  10  20  36  57  82 115 155 196 242 299 361
#     4   9  21  40  62  87 116 158 206 248 298 363
#     4  10  21  36  59  83 118 156 196 241 298 357
#     4   9  19  37  58  85 115 152 204 249 299 358
#
# _framework density 20.102720999999999
#
# number of rings (size 3 to 8) (size 9 to 14) (size 15 to 20)
#    0.000    2.000    1.667    3.000    0.000    8.667 
#    0.000    0.000    0.000    1.000    0.000    0.000 
#    0.000    0.000    0.000    0.000    0.000    0.000 
#
# Total GULP energy -268172.363987 kJ/mol
# GULP energy per Si atom -5586.924250 kJ/mol
# Density = 2.005697 g / cm^3
# Si number density = 20.102721 Si / 1000 Ang^3
#
#
#
# Elastic Constant Matrix: (Units=GPa)
#
#
# Indices 1 2 3 4 5 6 
#
# 1 69.9021 57.6968 15.4034 0.0000 0.0000 0.0000
# 2 57.6968 141.3754 24.1138 0.0000 0.0000 0.0000
# 3 15.4034 24.1138 22.1780 0.0000 0.0000 0.0000
# 4 0.0000 0.0000 0.0000 28.8765 0.0000 0.0000
# 5 0.0000 0.0000 0.0000 0.0000 5.7181 0.0000
# 6 0.0000 0.0000 0.0000 0.0000 0.0000 20.2203
#
#
#
# Elastic Compliance Matrix: (Units=1/GPa)
#
#
# Indices 1 2 3 4 5 6 
#
# 1 0.022400 -0.007965 -0.006897 0.000000 0.000000 0.000000
# 2 -0.007965 0.011516 -0.006989 0.000000 0.000000 0.000000
# 3 -0.006897 -0.006989 0.057479 0.000000 0.000000 0.000000
# 4 0.000000 0.000000 0.000000 0.034630 0.000000 0.000000
# 5 0.000000 0.000000 0.000000 0.000000 0.174884 0.000000
# 6 0.000000 0.000000 0.000000 0.000000 0.000000 0.049455
#
#
# Mechanical properties :
#
#
# Convention : Reuss Voigt Hill
#
# Bulk Modulus (GPa) = 20.96774 47.54261 34.25517
# Shear Modulus (GPa) = 12.19613 20.04573 16.12093
#
# Velocity S-wave (km/s) = 2.46578 3.16122 2.83490
# Velocity P-wave (km/s) = 4.30810 6.08486 5.27187
#
# Compressibility (1/GPa) = 0.04769232
#
# Stress axis : x y z
#
# Youngs Moduli (GPa) = 44.64266 86.83413 17.39757
#
# Poissons Ratio (x) = 0.69166 0.11999
# Poissons Ratio (y) = 0.35559 0.12159
# Poissons Ratio (z) = 0.30791 0.60690
#
# Static dielectric constant tensor:
#      x y z
#    x 1.686860 0.000000 0.000000 
#    y 0.000000 1.709080 0.000000 
#    z 0.000000 0.000000 1.716470 
# 
# From -- ./inp_files/12244.got.cif
#   From: 2010.05.17/outbox.cif.g08.bks.cpg/sg62_7_cif.got.tgz:12244.got - 2010.06.03 15:25:27.
