data_PCOD9464002
_publ_section_title
;
Structure prediction by ZEFSAII (Michael W. Deem and Ramdas Pophale) SiO2 
 PCOD9464002
Probable space group: P N M A
;
_chemical_formula_sum "Si O2"
_cell_formula_units_Z 40
_cell_length_a 10.860017
_cell_length_b 10.853702
_cell_length_c 18.440019
_cell_angle_alpha 90.000000
_cell_angle_beta 90.000000
_cell_angle_gamma 90.000000
_cell_volume 2173.550639
_symmetry_space_group_name_H-M "P N M A"
_symmetry_group_IT_number 62
_symmetry_cell_setting 'orthorhombic'
loop_
_space_group_symop_operation_xyz
x,y,z
1/2-x,-y,1/2+z
1/2+x,1/2-y,1/2-z
-x,1/2+y,-z
-x,-y,-z
1/2+x,y,1/2-z
1/2-x,1/2+y,1/2+z
x,1/2-y,z
loop_
_atom_site_type_symbol
_atom_site_label
_atom_site_fract_x
_atom_site_fract_y
_atom_site_fract_z
Si Si1 0.624389 0.606910 0.673708
Si Si2 0.206654 0.006715 0.035198
Si Si3 0.372531 0.892894 0.916566
Si Si4 0.970828 0.883735 0.077586
Si Si5 0.625496 0.602200 0.843486
O O1 0.580018 0.750000 0.664766
O O2 0.763297 0.603992 0.642816
O O3 0.552492 0.502653 0.628392
O O4 0.624203 0.573832 0.758362
O O5 0.108783 0.897326 0.047091
O O6 0.260189 0.051016 0.111188
O O7 0.319913 0.967170 0.984478
O O8 0.125262 0.102977 0.988885
O O9 0.390006 0.750000 0.937773
O O10 0.498626 0.939380 0.881505
O O11 0.953893 0.750000 0.112675
O O12 0.629530 0.750000 0.848551
#
# Coordination Sequence:
#
# PCOD9464002 Si02
#       5
#     8   8   8   8   8
#     4   9  20  36  57  83 112 146 185 232 279 329
#     4  10  20  34  57  80 112 148 191 229 275 328
#     4   9  18  34  53  79 112 143 184 233 279 327
#     4  10  21  37  57  83 115 151 189 230 278 330
#     4  10  20  33  56  84 109 144 190 234 276 328
#
# _framework density 18.403068000000001
#
# number of rings (size 3 to 8) (size 9 to 14) (size 15 to 20)
#    0.000    2.400    0.000    1.800    2.800    5.600 
#    0.000    2.000    0.000    2.400    0.000    0.000 
#    0.000    0.000    0.000    0.000    0.000    0.000 
#
# Total GULP energy -222976.251757 kJ/mol
# GULP energy per Si atom -5574.406294 kJ/mol
# Density = 1.836118 g / cm^3
# Si number density = 18.403068 Si / 1000 Ang^3
#
#
#
# Elastic Constant Matrix: (Units=GPa)
#
#
# Indices 1 2 3 4 5 6 
#
# 1 41.8744 25.1187 21.2006 0.0000 0.0000 0.0000
# 2 25.1187 81.7960 47.1250 0.0000 0.0000 0.0000
# 3 21.2006 47.1250 95.1744 0.0000 0.0000 0.0000
# 4 0.0000 0.0000 0.0000 21.0189 0.0000 0.0000
# 5 0.0000 0.0000 0.0000 0.0000 18.0184 0.0000
# 6 0.0000 0.0000 0.0000 0.0000 0.0000 2.3204
#
#
#
# Elastic Compliance Matrix: (Units=1/GPa)
#
#
# Indices 1 2 3 4 5 6 
#
# 1 0.029855 -0.007467 -0.002953 0.000000 0.000000 0.000000
# 2 -0.007467 0.018972 -0.007731 0.000000 0.000000 0.000000
# 3 -0.002953 -0.007731 0.014993 0.000000 0.000000 0.000000
# 4 0.000000 0.000000 0.000000 0.047576 0.000000 0.000000
# 5 0.000000 0.000000 0.000000 0.000000 0.055499 0.000000
# 6 0.000000 0.000000 0.000000 0.000000 0.000000 0.430958
#
#
# Mechanical properties :
#
#
# Convention : Reuss Voigt Hill
#
# Bulk Modulus (GPa) = 36.33899 45.08148 40.71023
# Shear Modulus (GPa) = 7.77209 16.63159 12.20184
#
# Velocity S-wave (km/s) = 2.05729 3.00949 2.57774
# Velocity P-wave (km/s) = 5.04304 6.05194 5.57038
#
# Compressibility (1/GPa) = 0.02751865
#
# Stress axis : x y z
#
# Youngs Moduli (GPa) = 33.49511 52.70813 66.69892
#
# Poissons Ratio (x) = 0.39356 0.19698
# Poissons Ratio (y) = 0.25010 0.51564
# Poissons Ratio (z) = 0.09892 0.40748
#
# Static dielectric constant tensor:
#      x y z
#    x 1.637920 0.000000 0.000000 
#    y 0.000000 1.640570 0.000000 
#    z 0.000000 0.000000 1.633990 
# 
# From -- ./inp_files/17778.got.cif
#   From: 2010.05.17/outbox.cif.g08.bks.cpg/sg62_9_cif.got.tgz:17778.got - 2010.06.03 15:25:27.
