data_PCOD9464869
_publ_section_title
;
Structure prediction by ZEFSAII (Michael W. Deem and Ramdas Pophale) SiO2 
 PCOD9464869
Probable space group: P N M A
;
_chemical_formula_sum "Si O2"
_cell_formula_units_Z 48
_cell_length_a 14.510289
_cell_length_b 16.428777
_cell_length_c 8.307640
_cell_angle_alpha 90.000000
_cell_angle_beta 90.000000
_cell_angle_gamma 90.000000
_cell_volume 1980.427579
_symmetry_space_group_name_H-M "P N M A"
_symmetry_group_IT_number 62
_symmetry_cell_setting 'orthorhombic'
loop_
_space_group_symop_operation_xyz
x,y,z
1/2-x,-y,1/2+z
1/2+x,1/2-y,1/2-z
-x,1/2+y,-z
-x,-y,-z
1/2+x,y,1/2-z
1/2-x,1/2+y,1/2+z
x,1/2-y,z
loop_
_atom_site_type_symbol
_atom_site_label
_atom_site_fract_x
_atom_site_fract_y
_atom_site_fract_z
Si Si1 0.379681 0.750000 0.741765
Si Si2 0.118173 0.082925 0.792956
Si Si3 0.815840 0.250000 0.143818
Si Si4 0.682943 0.582926 0.825840
Si Si5 0.564071 0.917719 0.144696
Si Si6 0.649074 0.250000 0.631083
Si Si7 0.901599 0.920041 0.849045
Si Si8 0.426474 0.250000 0.683720
O O1 0.296165 0.750000 0.867764
O O2 0.334982 0.750000 0.560310
O O3 0.431244 0.663452 0.741424
O O4 0.179784 0.164382 0.795306
O O5 0.046923 0.090166 0.645643
O O6 0.167729 0.996997 0.782246
O O7 0.065010 0.082976 0.965973
O O8 0.838922 0.332858 0.237658
O O9 0.870897 0.250000 0.980207
O O10 0.790859 0.583356 0.865769
O O11 0.618025 0.573695 0.979681
O O12 0.595789 0.832821 0.222665
O O13 0.577425 0.998604 0.252359
O O14 0.537423 0.250000 0.654338
#
# Coordination Sequence:
#
# PCOD9464869 Si02
#       8
#     4   8   4   8   8   4   8   4
#     4   8  18  35  55  79 109 144 186 234 277 325
#     4  10  20  38  60  84 114 152 192 232 280 340
#     4  10  21  37  58  81 111 149 190 235 286 341
#     4  11  22  37  57  85 117 147 186 242 291 330
#     4  11  22  37  58  86 116 151 191 237 285 336
#     4   8  18  37  61  85 114 151 188 229 283 341
#     4  10  20  37  58  80 113 156 192 229 282 346
#     4  10  21  37  60  85 112 150 194 230 278 349
#
# _framework density 24.237189999999998
#
# number of rings (size 3 to 8) (size 9 to 14) (size 15 to 20)
#    0.000    2.000    0.000    3.500    0.000    4.000 
#    0.000    3.333    0.000    0.000    0.000    0.000 
#    0.000    0.000    0.000    0.000    0.000    0.000 
#
# Total GULP energy -268486.627363 kJ/mol
# GULP energy per Si atom -5593.471403 kJ/mol
# Density = 2.418203 g / cm^3
# Si number density = 24.237190 Si / 1000 Ang^3
#
#
#
# Elastic Constant Matrix: (Units=GPa)
#
#
# Indices 1 2 3 4 5 6 
#
# 1 47.0601 10.3820 -3.1907 0.0000 0.0000 0.0000
# 2 10.3820 270.3665 57.6290 0.0000 0.0000 0.0000
# 3 -3.1907 57.6290 55.7896 0.0000 0.0000 0.0000
# 4 0.0000 0.0000 0.0000 41.2269 0.0000 0.0000
# 5 0.0000 0.0000 0.0000 0.0000 27.5364 0.0000
# 6 0.0000 0.0000 0.0000 0.0000 0.0000 23.0261
#
#
#
# Elastic Compliance Matrix: (Units=1/GPa)
#
#
# Indices 1 2 3 4 5 6 
#
# 1 0.021744 -0.001411 0.002701 0.000000 0.000000 0.000000
# 2 -0.001411 0.004834 -0.005075 0.000000 0.000000 0.000000
# 3 0.002701 -0.005075 0.023321 0.000000 0.000000 0.000000
# 4 0.000000 0.000000 0.000000 0.024256 0.000000 0.000000
# 5 0.000000 0.000000 0.000000 0.000000 0.036316 0.000000
# 6 0.000000 0.000000 0.000000 0.000000 0.000000 0.043429
#
#
# Mechanical properties :
#
#
# Convention : Reuss Voigt Hill
#
# Bulk Modulus (GPa) = 23.62391 55.87299 39.74845
# Shear Modulus (GPa) = 28.47728 38.91761 33.69744
#
# Velocity S-wave (km/s) = 3.43146 4.01146 3.73274
# Velocity P-wave (km/s) = 5.04659 6.67521 5.91720
#
# Compressibility (1/GPa) = 0.04232999
#
# Stress axis : x y z
#
# Youngs Moduli (GPa) = 45.99027 206.84667 42.88019
#
# Poissons Ratio (x) = 0.29178 -0.11580
# Poissons Ratio (y) = 0.06487 0.21760
# Poissons Ratio (z) = -0.12420 1.04966
#
# Static dielectric constant tensor:
#      x y z
#    x 1.964460 0.000000 0.000000 
#    y 0.000000 1.999090 0.000000 
#    z 0.000000 0.000000 1.917060 
# 
# From -- ./inp_files/7706.got.cif
#   From: 2010.05.17/outbox.cif.g08.bks.cpg/sg62_4_cif.got.tgz:7706.got - 2010.06.03 15:25:27.
