data_PCOD9464684
_publ_section_title
;
Structure prediction by ZEFSAII (Michael W. Deem and Ramdas Pophale) SiO2 
 PCOD9464684
Probable space group: P N M A
;
_chemical_formula_sum "Si O2"
_cell_formula_units_Z 64
_cell_length_a 25.326063
_cell_length_b 8.405000
_cell_length_c 14.295961
_cell_angle_alpha 90.000000
_cell_angle_beta 90.000000
_cell_angle_gamma 90.000000
_cell_volume 3043.117737
_symmetry_space_group_name_H-M "P N M A"
_symmetry_group_IT_number 62
_symmetry_cell_setting 'orthorhombic'
loop_
_space_group_symop_operation_xyz
x,y,z
1/2-x,-y,1/2+z
1/2+x,1/2-y,1/2-z
-x,1/2+y,-z
-x,-y,-z
1/2+x,y,1/2-z
1/2-x,1/2+y,1/2+z
x,1/2-y,z
loop_
_atom_site_type_symbol
_atom_site_label
_atom_site_fract_x
_atom_site_fract_y
_atom_site_fract_z
Si Si1 0.880706 0.062801 0.392040
Si Si2 0.829785 0.567969 0.568721
Si Si3 0.451979 0.055910 0.272916
Si Si4 0.336265 0.436163 0.728372
Si Si5 0.560012 0.437052 0.364287
Si Si6 0.892038 0.437676 0.042678
Si Si7 0.720047 0.065681 0.556439
Si Si8 0.281888 0.938381 0.218558
O O1 0.887015 0.250000 0.410757
O O2 0.928322 0.003737 0.326052
O O3 0.871483 0.972483 0.488652
O O4 0.827560 0.035666 0.331357
O O5 0.833953 0.750000 0.598940
O O6 0.835606 0.457761 0.659450
O O7 0.770935 0.536289 0.528338
O O8 0.450614 0.250000 0.271510
O O9 0.510911 0.007598 0.301212
O O10 0.413887 0.003611 0.357731
O O11 0.342673 0.250000 0.704661
O O12 0.385093 0.532196 0.688185
O O13 0.278045 0.487618 0.694105
O O14 0.552975 0.250000 0.382815
O O15 0.565482 0.525953 0.462769
O O16 0.883224 0.250000 0.049686
O O17 0.836401 0.516393 0.016472
O O18 0.731328 0.250000 0.537093
O O19 0.714146 0.044676 0.669022
O O20 0.288175 0.750000 0.197045
#
# Coordination Sequence:
#
# PCOD9464684 Si02
#       8
#     8   8   8   8   8   8   8   8
#     4  11  21  37  61  88 119 158 201 244 298 357
#     4  11  23  39  60  88 122 158 197 247 304 361
#     4   9  21  40  61  87 121 158 201 250 297 353
#     4  10  22  42  62  86 120 156 201 252 302 354
#     4  11  23  40  61  87 119 159 204 249 301 357
#     4  11  21  37  59  88 122 160 202 246 298 355
#     4  10  20  36  57  86 121 158 196 240 294 354
#     4   9  19  35  56  83 117 151 190 242 297 350
#
# _framework density 21.031061999999999
#
# number of rings (size 3 to 8) (size 9 to 14) (size 15 to 20)
#    0.000    1.750    1.250    4.125    1.750    2.500 
#    0.000    5.000    0.000    0.000    0.000    0.000 
#    0.000    0.000    0.000    0.000    0.000    0.000 
#
# Total GULP energy -357791.388600 kJ/mol
# GULP energy per Si atom -5590.490447 kJ/mol
# Density = 2.098319 g / cm^3
# Si number density = 21.031062 Si / 1000 Ang^3
#
#
#
# Elastic Constant Matrix: (Units=GPa)
#
#
# Indices 1 2 3 4 5 6 
#
# 1 56.8087 -5.9453 -3.9219 0.0000 0.0000 0.0000
# 2 -5.9453 27.5857 -13.1119 0.0000 0.0000 0.0000
# 3 -3.9219 -13.1119 28.2849 0.0000 0.0000 0.0000
# 4 0.0000 0.0000 0.0000 27.6687 0.0000 0.0000
# 5 0.0000 0.0000 0.0000 0.0000 30.9024 0.0000
# 6 0.0000 0.0000 0.0000 0.0000 0.0000 23.1243
#
#
#
# Elastic Compliance Matrix: (Units=1/GPa)
#
#
# Indices 1 2 3 4 5 6 
#
# 1 0.018705 0.006752 0.005723 0.000000 0.000000 0.000000
# 2 0.006752 0.048933 0.023620 0.000000 0.000000 0.000000
# 3 0.005723 0.023620 0.047097 0.000000 0.000000 0.000000
# 4 0.000000 0.000000 0.000000 0.036142 0.000000 0.000000
# 5 0.000000 0.000000 0.000000 0.000000 0.032360 0.000000
# 6 0.000000 0.000000 0.000000 0.000000 0.000000 0.043245
#
#
# Mechanical properties :
#
#
# Convention : Reuss Voigt Hill
#
# Bulk Modulus (GPa) = 5.34977 7.41345 6.38161
# Shear Modulus (GPa) = 23.08406 25.38298 24.23352
#
# Velocity S-wave (km/s) = 3.31663 3.47786 3.39820
# Velocity P-wave (km/s) = 4.14921 4.43396 4.29394
#
# Compressibility (1/GPa) = 0.18692399
#
# Stress axis : x y z
#
# Youngs Moduli (GPa) = 53.46264 20.43628 21.23260
#
# Poissons Ratio (x) = -0.13798 -0.12152
# Poissons Ratio (y) = -0.36096 -0.50151
# Poissons Ratio (z) = -0.30599 -0.48270
#
# Static dielectric constant tensor:
#      x y z
#    x 1.754100 0.000000 0.000000 
#    y 0.000000 1.728890 0.000000 
#    z 0.000000 0.000000 1.788290 
# 
# From -- ./inp_files/20772.got.cif
#   From: 2010.05.17/outbox.cif.g08.bks.cpg/sg62_11_cif.got.tgz:20772.got - 2010.06.03 15:25:27.
