data_PCOD9464366
_publ_section_title
;
Structure prediction by ZEFSAII (Michael W. Deem and Ramdas Pophale) SiO2 
 PCOD9464366
Probable space group: P N M A
;
_chemical_formula_sum "Si O2"
_cell_formula_units_Z 48
_cell_length_a 14.355660
_cell_length_b 12.985655
_cell_length_c 14.828285
_cell_angle_alpha 90.000000
_cell_angle_beta 90.000000
_cell_angle_gamma 90.000000
_cell_volume 2764.254014
_symmetry_space_group_name_H-M "P N M A"
_symmetry_group_IT_number 62
_symmetry_cell_setting 'orthorhombic'
loop_
_space_group_symop_operation_xyz
x,y,z
1/2-x,-y,1/2+z
1/2+x,1/2-y,1/2-z
-x,1/2+y,-z
-x,-y,-z
1/2+x,y,1/2-z
1/2-x,1/2+y,1/2+z
x,1/2-y,z
loop_
_atom_site_type_symbol
_atom_site_label
_atom_site_fract_x
_atom_site_fract_y
_atom_site_fract_z
Si Si1 0.145819 0.943034 0.005528
Si Si2 0.841718 0.871034 0.548196
Si Si3 0.913319 0.631347 0.347937
Si Si4 0.433039 0.972196 0.783255
Si Si5 0.199690 0.865704 0.201449
Si Si6 0.041125 0.129721 0.089664
O O1 0.160528 0.882671 0.099999
O O2 0.112240 0.057396 0.033384
O O3 0.245031 0.934120 0.956516
O O4 0.061861 0.893905 0.948837
O O5 0.817149 0.750000 0.552060
O O6 0.896777 0.887092 0.454478
O O7 0.904266 0.902950 0.632340
O O8 0.945558 0.750000 0.335681
O O9 0.810768 0.623379 0.304533
O O10 0.981765 0.547544 0.306931
O O11 0.453244 0.906813 0.693416
O O12 0.347081 0.047715 0.761363
O O13 0.177105 0.750000 0.231235
O O14 0.062149 0.250000 0.081278
#
# Coordination Sequence:
#
# PCOD9464366 Si02
#       6
#     8   8   8   8   8   8
#     4   9  19  36  58  75 102 149 185 215 266 328
#     4  10  20  36  56  76 107 150 184 216 268 332
#     4   9  19  36  54  74 105 145 187 222 262 324
#     4  11  21  31  55  82 114 137 177 226 281 322
#     4   9  18  34  54  77 104 140 184 226 266 319
#     4  10  20  35  55  83 111 136 179 231 274 317
#
# _framework density 17.364540999999999
#
# number of rings (size 3 to 8) (size 9 to 14) (size 15 to 20)
#    0.000    2.333    0.000    4.000    2.333    0.000 
#    0.000    2.500    0.000    6.000    0.000    0.000 
#    0.000    0.000    0.000    0.000    0.000    0.000 
#
# Total GULP energy -267787.087321 kJ/mol
# GULP energy per Si atom -5578.897653 kJ/mol
# Density = 1.732502 g / cm^3
# Si number density = 17.364541 Si / 1000 Ang^3
#
#
#
# Elastic Constant Matrix: (Units=GPa)
#
#
# Indices 1 2 3 4 5 6 
#
# 1 57.5514 43.5605 29.3400 0.0000 0.0000 0.0000
# 2 43.5605 116.0582 41.8466 0.0000 0.0000 0.0000
# 3 29.3400 41.8466 44.8107 0.0000 0.0000 0.0000
# 4 0.0000 0.0000 0.0000 19.6149 0.0000 0.0000
# 5 0.0000 0.0000 0.0000 0.0000 21.1439 0.0000
# 6 0.0000 0.0000 0.0000 0.0000 0.0000 21.1056
#
#
#
# Elastic Compliance Matrix: (Units=1/GPa)
#
#
# Indices 1 2 3 4 5 6 
#
# 1 0.028614 -0.006007 -0.013125 0.000000 0.000000 0.000000
# 2 -0.006007 0.014252 -0.009376 0.000000 0.000000 0.000000
# 3 -0.013125 -0.009376 0.039665 0.000000 0.000000 0.000000
# 4 0.000000 0.000000 0.000000 0.050982 0.000000 0.000000
# 5 0.000000 0.000000 0.000000 0.000000 0.047295 0.000000
# 6 0.000000 0.000000 0.000000 0.000000 0.000000 0.047381
#
#
# Mechanical properties :
#
#
# Convention : Reuss Voigt Hill
#
# Bulk Modulus (GPa) = 39.19311 49.76827 44.48069
# Shear Modulus (GPa) = 17.02363 19.28442 18.15403
#
# Velocity S-wave (km/s) = 3.13448 3.33613 3.23687
# Velocity P-wave (km/s) = 5.97660 6.60021 6.29613
#
# Compressibility (1/GPa) = 0.02551469
#
# Stress axis : x y z
#
# Youngs Moduli (GPa) = 34.94798 70.16752 25.21095
#
# Poissons Ratio (x) = 0.42151 0.33090
# Poissons Ratio (y) = 0.20994 0.23637
# Poissons Ratio (z) = 0.45870 0.65786
#
# Static dielectric constant tensor:
#      x y z
#    x 1.571460 0.000000 0.000000 
#    y 0.000000 1.573180 0.000000 
#    z 0.000000 0.000000 1.579850 
# 
# From -- ./inp_files/18901.got.cif
#   From: 2010.05.17/outbox.cif.g08.bks.cpg/sg62_10_cif.got.tgz:18901.got - 2010.06.03 15:25:27.
