data_PCOD9464687
_publ_section_title
;
Structure prediction by ZEFSAII (Michael W. Deem and Ramdas Pophale) SiO2 
 PCOD9464687
Probable space group: P N M A
;
_chemical_formula_sum "Si O2"
_cell_formula_units_Z 56
_cell_length_a 23.877991
_cell_length_b 8.983985
_cell_length_c 13.910220
_cell_angle_alpha 90.000000
_cell_angle_beta 90.000000
_cell_angle_gamma 90.000000
_cell_volume 2984.013620
_symmetry_space_group_name_H-M "P N M A"
_symmetry_group_IT_number 62
_symmetry_cell_setting 'orthorhombic'
loop_
_space_group_symop_operation_xyz
x,y,z
1/2-x,-y,1/2+z
1/2+x,1/2-y,1/2-z
-x,1/2+y,-z
-x,-y,-z
1/2+x,y,1/2-z
1/2-x,1/2+y,1/2+z
x,1/2-y,z
loop_
_atom_site_type_symbol
_atom_site_label
_atom_site_fract_x
_atom_site_fract_y
_atom_site_fract_z
Si Si1 0.633216 0.579397 0.301618
Si Si2 0.525661 0.929678 0.405112
Si Si3 0.338628 0.071813 0.192714
Si Si4 0.231741 0.428367 0.301701
Si Si5 0.039893 0.070434 0.709244
Si Si6 0.331372 0.927823 0.994768
Si Si7 0.434064 0.078413 0.901790
O O1 0.648343 0.750000 0.323945
O O2 0.589522 0.522577 0.381285
O O3 0.688378 0.488051 0.277782
O O4 0.597180 0.581613 0.202372
O O5 0.526443 0.750000 0.412416
O O6 0.488480 0.967496 0.311564
O O7 0.500000 0.000000 0.500000
O O8 0.342479 0.250000 0.190906
O O9 0.294543 0.025871 0.275079
O O10 0.399787 0.002439 0.204017
O O11 0.315511 0.011000 0.091767
O O12 0.229590 0.250000 0.300303
O O13 0.208129 0.474730 0.405690
O O14 0.044129 0.250000 0.703614
O O15 0.996525 0.025310 0.624521
O O16 0.328978 0.750000 0.006386
O O17 0.394703 0.976925 0.967086
O O18 0.435175 0.250000 0.936936
#
# Coordination Sequence:
#
# PCOD9464687 Si02
#       7
#     8   8   8   8   8   8   8
#     4   8  15  30  53  77 100 134 176 218 264 312
#     4   9  18  33  53  80 112 143 180 224 270 324
#     4  11  23  38  55  79 112 145 181 227 274 322
#     4   9  20  38  56  76 105 139 180 229 271 317
#     4   9  19  36  55  78 110 145 180 222 271 322
#     4  10  20  36  58  81 105 139 181 223 272 328
#     4   8  15  31  55  79 105 134 170 216 262 315
#
# _framework density 18.766672
#
# number of rings (size 3 to 8) (size 9 to 14) (size 15 to 20)
#    0.000    2.857    0.000    2.571    0.000    4.000 
#    2.571    2.857    0.000    0.000    0.000    0.000 
#    0.000    0.000    0.000    0.000    0.000    0.000 
#
# Total GULP energy -312282.404927 kJ/mol
# GULP energy per Si atom -5576.471517 kJ/mol
# Density = 1.872396 g / cm^3
# Si number density = 18.766672 Si / 1000 Ang^3
#
#
#
# Elastic Constant Matrix: (Units=GPa)
#
#
# Indices 1 2 3 4 5 6 
#
# 1 108.7436 23.1227 24.4380 0.0000 0.0000 0.0000
# 2 23.1227 15.2668 15.0794 0.0000 0.0000 0.0000
# 3 24.4380 15.0794 56.1887 0.0000 0.0000 0.0000
# 4 0.0000 0.0000 0.0000 27.3401 0.0000 0.0000
# 5 0.0000 0.0000 0.0000 0.0000 24.5099 0.0000
# 6 0.0000 0.0000 0.0000 0.0000 0.0000 26.0880
#
#
#
# Elastic Compliance Matrix: (Units=1/GPa)
#
#
# Indices 1 2 3 4 5 6 
#
# 1 0.013576 -0.020042 -0.000526 0.000000 0.000000 0.000000
# 2 -0.020042 0.118716 -0.023143 0.000000 0.000000 0.000000
# 3 -0.000526 -0.023143 0.024237 0.000000 0.000000 0.000000
# 4 0.000000 0.000000 0.000000 0.036576 0.000000 0.000000
# 5 0.000000 0.000000 0.000000 0.000000 0.040800 0.000000
# 6 0.000000 0.000000 0.000000 0.000000 0.000000 0.038332
#
#
# Mechanical properties :
#
#
# Convention : Reuss Voigt Hill
#
# Bulk Modulus (GPa) = 14.47036 33.94215 24.20625
# Shear Modulus (GPa) = 13.06525 23.42485 18.24505
#
# Velocity S-wave (km/s) = 2.64141 3.53684 3.12140
# Velocity P-wave (km/s) = 4.12676 5.89955 5.09091
#
# Compressibility (1/GPa) = 0.06910678
#
# Stress axis : x y z
#
# Youngs Moduli (GPa) = 73.66049 8.42344 41.25975
#
# Poissons Ratio (x) = 0.16883 0.02169
# Poissons Ratio (y) = 1.47633 0.95487
# Poissons Ratio (z) = 0.03872 0.19494
#
# Static dielectric constant tensor:
#      x y z
#    x 1.667840 0.000000 0.000000 
#    y 0.000000 1.626570 0.000000 
#    z 0.000000 0.000000 1.667840 
# 
# From -- ./inp_files/20436.got.cif
#   From: 2010.05.17/outbox.cif.g08.bks.cpg/sg62_11_cif.got.tgz:20436.got - 2010.06.03 15:25:27.
