data_PCOD9464903
_publ_section_title
;
Structure prediction by ZEFSAII (Michael W. Deem and Ramdas Pophale) SiO2 
 PCOD9464903
Probable space group: P N M A
;
_chemical_formula_sum "Si O2"
_cell_formula_units_Z 48
_cell_length_a 9.644916
_cell_length_b 7.882789
_cell_length_c 29.125660
_cell_angle_alpha 90.000000
_cell_angle_beta 90.000000
_cell_angle_gamma 90.000000
_cell_volume 2214.390079
_symmetry_space_group_name_H-M "P N M A"
_symmetry_group_IT_number 62
_symmetry_cell_setting 'orthorhombic'
loop_
_space_group_symop_operation_xyz
x,y,z
1/2-x,-y,1/2+z
1/2+x,1/2-y,1/2-z
-x,1/2+y,-z
-x,-y,-z
1/2+x,y,1/2-z
1/2-x,1/2+y,1/2+z
x,1/2-y,z
loop_
_atom_site_type_symbol
_atom_site_label
_atom_site_fract_x
_atom_site_fract_y
_atom_site_fract_z
Si Si1 0.825288 0.549562 0.276307
Si Si2 0.597617 0.045889 0.957690
Si Si3 0.980998 0.552905 0.804463
Si Si4 0.321915 0.045762 0.381099
Si Si5 0.152414 0.953971 0.985188
Si Si6 0.515935 0.954780 0.139247
O O1 0.849286 0.750000 0.270403
O O2 0.661888 0.524927 0.285588
O O3 0.894482 0.463397 0.232240
O O4 0.915314 0.488612 0.319998
O O5 0.602402 0.250000 0.953305
O O6 0.540887 0.979272 0.909589
O O7 0.745457 0.981827 0.975141
O O8 0.500000 0.000000 0.000000
O O9 0.949033 0.750000 0.811718
O O10 0.046957 0.480990 0.851648
O O11 0.333798 0.250000 0.382567
O O12 0.316333 0.981688 0.433645
O O13 0.176404 0.004287 0.356780
O O14 0.168165 0.750000 0.983335
O O15 0.000000 0.000000 0.000000
O O16 0.511087 0.750000 0.138886
#
# Coordination Sequence:
#
# PCOD9464903 Si02
#       6
#     8   8   8   8   8   8
#     4  11  24  42  64  91 122 156 197 245 300 357
#     4  10  20  37  59  85 117 154 198 242 289 345
#     4  11  24  42  64  90 121 156 199 245 299 358
#     4  10  22  40  60  86 119 156 196 244 295 349
#     4  10  22  38  57  84 119 156 198 243 292 347
#     4  10  22  38  60  89 118 153 197 243 294 352
#
# _framework density 21.676399
#
# number of rings (size 3 to 8) (size 9 to 14) (size 15 to 20)
#    0.000    1.667    1.667    2.000    2.333    6.667 
#    0.000    0.000    0.000    0.000    0.000    0.000 
#    0.000    0.000    0.000    0.000    0.000    0.000 
#
# Total GULP energy -268152.117376 kJ/mol
# GULP energy per Si atom -5586.502445 kJ/mol
# Density = 2.162706 g / cm^3
# Si number density = 21.676399 Si / 1000 Ang^3
#
#
#
# Elastic Constant Matrix: (Units=GPa)
#
#
# Indices 1 2 3 4 5 6 
#
# 1 114.4578 -12.5711 6.3780 0.0000 0.0000 0.0000
# 2 -12.5711 20.8717 -1.9513 0.0000 0.0000 0.0000
# 3 6.3780 -1.9513 68.3954 0.0000 0.0000 0.0000
# 4 0.0000 0.0000 0.0000 16.7952 0.0000 0.0000
# 5 0.0000 0.0000 0.0000 0.0000 41.7862 0.0000
# 6 0.0000 0.0000 0.0000 0.0000 0.0000 31.7977
#
#
#
# Elastic Compliance Matrix: (Units=1/GPa)
#
#
# Indices 1 2 3 4 5 6 
#
# 1 0.009391 0.005589 -0.000716 0.000000 0.000000 0.000000
# 2 0.005589 0.051366 0.000944 0.000000 0.000000 0.000000
# 3 -0.000716 0.000944 0.014715 0.000000 0.000000 0.000000
# 4 0.000000 0.000000 0.000000 0.059541 0.000000 0.000000
# 5 0.000000 0.000000 0.000000 0.000000 0.023931 0.000000
# 6 0.000000 0.000000 0.000000 0.000000 0.000000 0.031449
#
#
# Mechanical properties :
#
#
# Convention : Reuss Voigt Hill
#
# Bulk Modulus (GPa) = 11.48028 20.82621 16.15325
# Shear Modulus (GPa) = 24.06234 32.20044 28.13139
#
# Velocity S-wave (km/s) = 3.33539 3.85841 3.60639
# Velocity P-wave (km/s) = 4.48785 5.42940 4.98092
#
# Compressibility (1/GPa) = 0.08710587
#
# Stress axis : x y z
#
# Youngs Moduli (GPa) = 106.48933 19.46797 67.95974
#
# Poissons Ratio (x) = -0.10881 0.04867
# Poissons Ratio (y) = -0.59517 -0.06418
# Poissons Ratio (z) = 0.07627 -0.01838
#
# Static dielectric constant tensor:
#      x y z
#    x 1.921230 0.000000 0.000000 
#    y 0.000000 1.885790 0.000000 
#    z 0.000000 0.000000 1.835170 
# 
# From -- ./inp_files/31957.got.cif
#   From: 2010.05.17/outbox.cif.g08.bks.cpg/sg62_16_cif.got.tgz:31957.got - 2010.06.03 15:25:27.
