data_PCOD9464236
_publ_section_title
;
Structure prediction by ZEFSAII (Michael W. Deem and Ramdas Pophale) SiO2 
 PCOD9464236
Probable space group: P N M A
;
_chemical_formula_sum "Si O2"
_cell_formula_units_Z 64
_cell_length_a 29.812429
_cell_length_b 8.259834
_cell_length_c 11.540669
_cell_angle_alpha 90.000000
_cell_angle_beta 90.000000
_cell_angle_gamma 90.000000
_cell_volume 2841.840286
_symmetry_space_group_name_H-M "P N M A"
_symmetry_group_IT_number 62
_symmetry_cell_setting 'orthorhombic'
loop_
_space_group_symop_operation_xyz
x,y,z
1/2-x,-y,1/2+z
1/2+x,1/2-y,1/2-z
-x,1/2+y,-z
-x,-y,-z
1/2+x,y,1/2-z
1/2-x,1/2+y,1/2+z
x,1/2-y,z
loop_
_atom_site_type_symbol
_atom_site_label
_atom_site_fract_x
_atom_site_fract_y
_atom_site_fract_z
Si Si1 0.432970 0.946164 0.060613
Si Si2 0.318502 0.067454 0.582738
Si Si3 0.667459 0.436181 0.182707
Si Si4 0.730061 0.560530 0.984525
Si Si5 0.108052 0.058730 0.916952
Si Si6 0.153547 0.943497 0.682184
Si Si7 0.934968 0.555301 0.695807
Si Si8 0.479783 0.555734 0.297607
O O1 0.432075 0.750000 0.061880
O O2 0.460749 0.001867 0.172514
O O3 0.383018 0.010413 0.084269
O O4 0.449393 0.998954 0.934178
O O5 0.318877 0.250000 0.626059
O O6 0.311557 0.949009 0.690378
O O7 0.275583 0.039065 0.501396
O O8 0.364187 0.029382 0.515762
O O9 0.664812 0.250000 0.143020
O O10 0.696920 0.532062 0.091662
O O11 0.616637 0.497101 0.202275
O O12 0.740527 0.750000 0.977169
O O13 0.701812 0.510754 0.869741
O O14 0.106814 0.250000 0.942825
O O15 0.057182 0.999898 0.890907
O O16 0.135978 0.030948 0.797674
O O17 0.152759 0.750000 0.701436
O O18 0.935813 0.750000 0.699936
O O19 0.968700 0.495885 0.794603
O O20 0.477930 0.750000 0.299378
#
# Coordination Sequence:
#
# PCOD9464236 Si02
#       8
#     8   8   8   8   8   8   8   8
#     4   9  17  32  51  81 123 165 203 247 307 361
#     4  12  27  45  67  92 122 163 210 260 315 374
#     4  11  24  44  67  93 128 166 209 259 313 373
#     4  11  24  42  65  94 126 161 204 254 311 374
#     4  10  22  42  64  88 124 165 209 260 313 367
#     4  10  20  34  58  91 123 159 202 248 303 365
#     4  10  20  34  57  87 123 165 207 256 312 368
#     4   9  19  33  56  87 122 163 207 257 313 372
#
# _framework density 22.520619
#
# number of rings (size 3 to 8) (size 9 to 14) (size 15 to 20)
#    0.000    1.750    1.250    3.750    1.750    5.500 
#    0.000    0.625    0.000    0.000    0.000    0.000 
#    0.000    0.000    0.000    0.000    0.000    0.000 
#
# Total GULP energy -357611.937260 kJ/mol
# GULP energy per Si atom -5587.686520 kJ/mol
# Density = 2.246936 g / cm^3
# Si number density = 22.520619 Si / 1000 Ang^3
#
#
#
# Elastic Constant Matrix: (Units=GPa)
#
#
# Indices 1 2 3 4 5 6 
#
# 1 71.7523 2.4492 -6.0934 0.0000 0.0000 0.0000
# 2 2.4492 27.0014 -9.0772 0.0000 0.0000 0.0000
# 3 -6.0934 -9.0772 34.9512 0.0000 0.0000 0.0000
# 4 0.0000 0.0000 0.0000 20.3782 0.0000 0.0000
# 5 0.0000 0.0000 0.0000 0.0000 15.9580 0.0000
# 6 0.0000 0.0000 0.0000 0.0000 0.0000 31.4246
#
#
#
# Elastic Compliance Matrix: (Units=1/GPa)
#
#
# Indices 1 2 3 4 5 6 
#
# 1 0.014152 -0.000498 0.002338 0.000000 0.000000 0.000000
# 2 -0.000498 0.040595 0.010456 0.000000 0.000000 0.000000
# 3 0.002338 0.010456 0.031735 0.000000 0.000000 0.000000
# 4 0.000000 0.000000 0.000000 0.049072 0.000000 0.000000
# 5 0.000000 0.000000 0.000000 0.000000 0.062665 0.000000
# 6 0.000000 0.000000 0.000000 0.000000 0.000000 0.031822
#
#
# Mechanical properties :
#
#
# Convention : Reuss Voigt Hill
#
# Bulk Modulus (GPa) = 9.00289 12.02913 10.51601
# Shear Modulus (GPa) = 20.62084 23.31391 21.96737
#
# Velocity S-wave (km/s) = 3.02924 3.22098 3.12658
# Velocity P-wave (km/s) = 4.03006 4.38018 4.20876
#
# Compressibility (1/GPa) = 0.11107539
#
# Stress axis : x y z
#
# Youngs Moduli (GPa) = 70.65946 24.63338 31.51141
#
# Poissons Ratio (x) = 0.01226 -0.07368
# Poissons Ratio (y) = 0.03517 -0.32949
# Poissons Ratio (z) = -0.16521 -0.25757
#
# Static dielectric constant tensor:
#      x y z
#    x 1.892790 0.000000 0.000000 
#    y 0.000000 1.656590 0.000000 
#    z 0.000000 0.000000 1.837020 
# 
# From -- ./inp_files/15880.got.cif
#   From: 2010.05.17/outbox.cif.g08.bks.cpg/sg62_8_cif.got.tgz:15880.got - 2010.06.03 15:25:27.
