data_PCOD9464543
_publ_section_title
;
Structure prediction by ZEFSAII (Michael W. Deem and Ramdas Pophale) SiO2 
 PCOD9464543
Probable space group: P N M A
;
_chemical_formula_sum "Si O2"
_cell_formula_units_Z 48
_cell_length_a 11.998817
_cell_length_b 9.121719
_cell_length_c 22.492004
_cell_angle_alpha 90.000000
_cell_angle_beta 90.000000
_cell_angle_gamma 90.000000
_cell_volume 2461.746172
_symmetry_space_group_name_H-M "P N M A"
_symmetry_group_IT_number 62
_symmetry_cell_setting 'orthorhombic'
loop_
_space_group_symop_operation_xyz
x,y,z
1/2-x,-y,1/2+z
1/2+x,1/2-y,1/2-z
-x,1/2+y,-z
-x,-y,-z
1/2+x,y,1/2-z
1/2-x,1/2+y,1/2+z
x,1/2-y,z
loop_
_atom_site_type_symbol
_atom_site_label
_atom_site_fract_x
_atom_site_fract_y
_atom_site_fract_z
Si Si1 0.416097 0.585405 0.042452
Si Si2 0.230611 0.424356 0.109875
Si Si3 0.055517 0.914601 0.336306
Si Si4 0.987248 0.425749 0.064265
Si Si5 0.870704 0.423850 0.272277
Si Si6 0.188263 0.075228 0.850996
O O1 0.395661 0.750000 0.020279
O O2 0.301592 0.504054 0.058507
O O3 0.480699 0.593055 0.104973
O O4 0.500000 0.500000 0.000000
O O5 0.246467 0.250000 0.102623
O O6 0.283670 0.461621 0.174320
O O7 0.100455 0.456794 0.101801
O O8 0.057821 0.750000 0.309276
O O9 0.179859 0.953712 0.355380
O O10 0.993516 0.029645 0.294420
O O11 0.976826 0.250000 0.058524
O O12 0.883306 0.493438 0.099263
O O13 0.000000 0.500000 0.000000
O O14 0.864508 0.250000 0.261441
O O15 0.845423 0.514189 0.213404
O O16 0.170413 0.250000 0.855206
#
# Coordination Sequence:
#
# PCOD9464543 Si02
#       6
#     8   8   8   8   8   8
#     4  10  20  35  59  88 118 153 197 245 300 356
#     4   9  21  41  62  86 121 159 200 252 305 362
#     4   9  21  40  59  85 120 157 198 248 301 362
#     4  11  25  44  64  91 126 168 214 259 311 372
#     4  10  21  39  64  93 121 155 200 254 311 367
#     4  11  24  41  63  91 124 163 203 252 307 368
#
# _framework density 19.498355
#
# number of rings (size 3 to 8) (size 9 to 14) (size 15 to 20)
#    0.000    2.000    0.000    2.000    4.667    4.000 
#    0.000    0.000    0.000    0.000    0.000    0.000 
#    0.000    0.000    0.000    0.000    0.000    0.000 
#
# Total GULP energy -268039.375069 kJ/mol
# GULP energy per Si atom -5584.153647 kJ/mol
# Density = 1.945398 g / cm^3
# Si number density = 19.498355 Si / 1000 Ang^3
#
#
#
# Elastic Constant Matrix: (Units=GPa)
#
#
# Indices 1 2 3 4 5 6 
#
# 1 116.8154 49.5709 25.7146 0.0000 0.0000 0.0000
# 2 49.5709 63.5401 32.4636 0.0000 0.0000 0.0000
# 3 25.7146 32.4636 52.2902 0.0000 0.0000 0.0000
# 4 0.0000 0.0000 0.0000 35.5171 0.0000 0.0000
# 5 0.0000 0.0000 0.0000 0.0000 10.6639 0.0000
# 6 0.0000 0.0000 0.0000 0.0000 0.0000 32.9674
#
#
#
# Elastic Compliance Matrix: (Units=1/GPa)
#
#
# Indices 1 2 3 4 5 6 
#
# 1 0.012798 -0.009913 -0.000139 0.000000 0.000000 0.000000
# 2 -0.009913 0.030728 -0.014202 0.000000 0.000000 0.000000
# 3 -0.000139 -0.014202 0.028010 0.000000 0.000000 0.000000
# 4 0.000000 0.000000 0.000000 0.028155 0.000000 0.000000
# 5 0.000000 0.000000 0.000000 0.000000 0.093775 0.000000
# 6 0.000000 0.000000 0.000000 0.000000 0.000000 0.030333
#
#
# Mechanical properties :
#
#
# Convention : Reuss Voigt Hill
#
# Bulk Modulus (GPa) = 43.42780 49.79377 46.61078
# Shear Modulus (GPa) = 17.85828 24.15612 21.00720
#
# Velocity S-wave (km/s) = 3.02964 3.52359 3.28591
# Velocity P-wave (km/s) = 5.87871 6.49208 6.19299
#
# Compressibility (1/GPa) = 0.02302673
#
# Stress axis : x y z
#
# Youngs Moduli (GPa) = 78.13837 32.54378 35.70214
#
# Poissons Ratio (x) = 0.32261 0.00497
# Poissons Ratio (y) = 0.77460 0.50704
# Poissons Ratio (z) = 0.01087 0.46219
#
# Static dielectric constant tensor:
#      x y z
#    x 1.681750 0.000000 0.000000 
#    y 0.000000 1.765240 0.000000 
#    z 0.000000 0.000000 1.667450 
# 
# From -- ./inp_files/29230.got.cif
#   From: 2010.05.17/outbox.cif.g08.bks.cpg/sg62_15_cif.got.tgz:29230.got - 2010.06.03 15:25:27.
