data_PCOD9464402
_publ_section_title
;
Structure prediction by ZEFSAII (Michael W. Deem and Ramdas Pophale) SiO2 
 PCOD9464402
Probable space group: P N M A
;
_chemical_formula_sum "Si O2"
_cell_formula_units_Z 48
_cell_length_a 17.698107
_cell_length_b 17.794630
_cell_length_c 9.007758
_cell_angle_alpha 90.000000
_cell_angle_beta 90.000000
_cell_angle_gamma 90.000000
_cell_volume 2836.824629
_symmetry_space_group_name_H-M "P N M A"
_symmetry_group_IT_number 62
_symmetry_cell_setting 'orthorhombic'
loop_
_space_group_symop_operation_xyz
x,y,z
1/2-x,-y,1/2+z
1/2+x,1/2-y,1/2-z
-x,1/2+y,-z
-x,-y,-z
1/2+x,y,1/2-z
1/2-x,1/2+y,1/2+z
x,1/2-y,z
loop_
_atom_site_type_symbol
_atom_site_label
_atom_site_fract_x
_atom_site_fract_y
_atom_site_fract_z
Si Si1 0.494215 0.665342 0.800897
Si Si2 0.576579 0.539287 0.945942
Si Si3 0.833653 0.664543 0.534825
Si Si4 0.067449 0.056364 0.051504
Si Si5 0.842836 0.925526 0.238316
Si Si6 0.186127 0.012083 0.301212
O O1 0.514377 0.750000 0.764222
O O2 0.558503 0.622034 0.890827
O O3 0.419638 0.664864 0.904693
O O4 0.471839 0.618201 0.655948
O O5 0.605626 0.489867 0.810757
O O6 0.500000 0.500000 0.000000
O O7 0.636734 0.530374 0.075296
O O8 0.804023 0.750000 0.553717
O O9 0.834766 0.639264 0.362656
O O10 0.797505 0.595955 0.631112
O O11 0.132605 0.018992 0.156173
O O12 0.113851 0.092425 0.914240
O O13 0.000000 0.000000 0.000000
O O14 0.761772 0.964892 0.219398
#
# Coordination Sequence:
#
# PCOD9464402 Si02
#       6
#     8   8   8   8   8   8
#     4  10  20  35  56  83 109 141 185 233 276 320
#     4  11  17  37  58  78 105 149 190 217 261 334
#     4   9  19  36  57  78 109 149 187 223 272 330
#     4  11  19  32  56  83 110 139 183 234 272 320
#     4  11  20  33  57  86 109 142 186 228 271 328
#     4  10  21  34  56  84 110 147 188 222 274 335
#
# _framework density 16.920325999999999
#
# number of rings (size 3 to 8) (size 9 to 14) (size 15 to 20)
#    0.000    1.667    6.667    2.000    0.000    0.667 
#    0.000    1.667    0.000    2.000    0.000    0.000 
#    0.000    0.000    0.000    0.000    0.000    0.000 
#
# Total GULP energy -267417.192590 kJ/mol
# GULP energy per Si atom -5571.191512 kJ/mol
# Density = 1.688181 g / cm^3
# Si number density = 16.920326 Si / 1000 Ang^3
#
#
#
# Elastic Constant Matrix: (Units=GPa)
#
#
# Indices 1 2 3 4 5 6 
#
# 1 70.4899 49.7108 36.6474 0.0000 0.0000 0.0000
# 2 49.7108 111.6117 42.6233 0.0000 0.0000 0.0000
# 3 36.6474 42.6233 107.1620 0.0000 0.0000 0.0000
# 4 0.0000 0.0000 0.0000 12.1122 0.0000 0.0000
# 5 0.0000 0.0000 0.0000 0.0000 19.9013 0.0000
# 6 0.0000 0.0000 0.0000 0.0000 0.0000 19.0651
#
#
#
# Elastic Compliance Matrix: (Units=1/GPa)
#
#
# Indices 1 2 3 4 5 6 
#
# 1 0.022264 -0.008264 -0.004327 0.000000 0.000000 0.000000
# 2 -0.008264 0.013631 -0.002596 0.000000 0.000000 0.000000
# 3 -0.004327 -0.002596 0.011844 0.000000 0.000000 0.000000
# 4 0.000000 0.000000 0.000000 0.082561 0.000000 0.000000
# 5 0.000000 0.000000 0.000000 0.000000 0.050248 0.000000
# 6 0.000000 0.000000 0.000000 0.000000 0.000000 0.052452
#
#
# Mechanical properties :
#
#
# Convention : Reuss Voigt Hill
#
# Bulk Modulus (GPa) = 57.58312 60.80295 59.19304
# Shear Modulus (GPa) = 18.57620 20.90120 19.73870
#
# Velocity S-wave (km/s) = 3.31700 3.51846 3.41921
# Velocity P-wave (km/s) = 6.98396 7.24699 7.11669
#
# Compressibility (1/GPa) = 0.01736620
#
# Stress axis : x y z
#
# Youngs Moduli (GPa) = 44.91636 73.35951 84.43166
#
# Poissons Ratio (x) = 0.60621 0.36533
# Poissons Ratio (y) = 0.37117 0.21917
# Poissons Ratio (z) = 0.19435 0.19043
#
# Static dielectric constant tensor:
#      x y z
#    x 1.632500 0.000000 0.000000 
#    y 0.000000 1.574300 0.000000 
#    z 0.000000 0.000000 1.606400 
# 
# From -- ./inp_files/7800.got.cif
#   From: 2010.05.17/outbox.cif.g08.bks.cpg/sg62_4_cif.got.tgz:7800.got - 2010.06.03 15:25:27.
