data_PCOD9464942
_publ_section_title
;
Structure prediction by ZEFSAII (Michael W. Deem and Ramdas Pophale) SiO2 
 PCOD9464942
Probable space group: P N M A
;
_chemical_formula_sum "Si O2"
_cell_formula_units_Z 56
_cell_length_a 14.864019
_cell_length_b 7.814223
_cell_length_c 21.577189
_cell_angle_alpha 90.000000
_cell_angle_beta 90.000000
_cell_angle_gamma 90.000000
_cell_volume 2506.206883
_symmetry_space_group_name_H-M "P N M A"
_symmetry_group_IT_number 62
_symmetry_cell_setting 'orthorhombic'
loop_
_space_group_symop_operation_xyz
x,y,z
1/2-x,-y,1/2+z
1/2+x,1/2-y,1/2-z
-x,1/2+y,-z
-x,-y,-z
1/2+x,y,1/2-z
1/2-x,1/2+y,1/2+z
x,1/2-y,z
loop_
_atom_site_type_symbol
_atom_site_label
_atom_site_fract_x
_atom_site_fract_y
_atom_site_fract_z
Si Si1 0.404699 0.552084 0.823404
Si Si2 0.209328 0.548314 0.207799
Si Si3 0.413943 0.458616 0.594850
Si Si4 0.910118 0.544124 0.536320
Si Si5 0.608679 0.550757 0.632190
Si Si6 0.284746 0.041202 0.484000
Si Si7 0.405690 0.551574 0.228357
O O1 0.377774 0.750000 0.827784
O O2 0.335051 0.471256 0.775177
O O3 0.408639 0.479565 0.892808
O O4 0.504596 0.539185 0.794795
O O5 0.218752 0.750000 0.195503
O O6 0.140192 0.483200 0.156198
O O7 0.310550 0.477868 0.204742
O O8 0.421037 0.250000 0.595447
O O9 0.513561 0.532685 0.597219
O O10 0.355663 0.513079 0.535753
O O11 0.907336 0.750000 0.539327
O O12 0.817470 0.486815 0.504023
O O13 0.000000 0.500000 0.500000
O O14 0.625883 0.750000 0.646175
O O15 0.683859 0.487204 0.584446
O O16 0.600451 0.456037 0.697196
O O17 0.287284 0.250000 0.484204
O O18 0.414508 0.750000 0.209387
#
# Coordination Sequence:
#
# PCOD9464942 Si02
#       7
#     8   8   8   8   8   8   8
#     4  11  23  40  62  90 123 157 195 246 301 353
#     4  10  22  38  60  89 119 157 203 247 296 353
#     4  10  20  37  60  87 118 155 197 245 294 355
#     4  10  23  42  63  88 118 157 200 244 293 352
#     4  11  21  37  60  90 121 158 196 242 303 356
#     4   9  20  38  61  85 118 159 197 239 298 357
#     4  11  23  38  60  89 119 158 201 243 295 357
#
# _framework density 22.344524
#
# number of rings (size 3 to 8) (size 9 to 14) (size 15 to 20)
#    0.000    1.714    1.429    2.571    2.000    3.429 
#    0.000    2.857    0.000    0.000    0.000    0.000 
#    0.000    0.000    0.000    0.000    0.000    0.000 
#
# Total GULP energy -313099.340592 kJ/mol
# GULP energy per Si atom -5591.059653 kJ/mol
# Density = 2.229367 g / cm^3
# Si number density = 22.344524 Si / 1000 Ang^3
#
#
#
# Elastic Constant Matrix: (Units=GPa)
#
#
# Indices 1 2 3 4 5 6 
#
# 1 104.6665 -9.7471 -7.7771 0.0000 0.0000 0.0000
# 2 -9.7471 32.0806 -8.4746 0.0000 0.0000 0.0000
# 3 -7.7771 -8.4746 50.6852 0.0000 0.0000 0.0000
# 4 0.0000 0.0000 0.0000 5.6603 0.0000 0.0000
# 5 0.0000 0.0000 0.0000 0.0000 30.8865 0.0000
# 6 0.0000 0.0000 0.0000 0.0000 0.0000 9.0822
#
#
#
# Elastic Compliance Matrix: (Units=1/GPa)
#
#
# Indices 1 2 3 4 5 6 
#
# 1 0.010051 0.003621 0.002148 0.000000 0.000000 0.000000
# 2 0.003621 0.033916 0.006226 0.000000 0.000000 0.000000
# 3 0.002148 0.006226 0.021100 0.000000 0.000000 0.000000
# 4 0.000000 0.000000 0.000000 0.176670 0.000000 0.000000
# 5 0.000000 0.000000 0.000000 0.000000 0.032377 0.000000
# 6 0.000000 0.000000 0.000000 0.000000 0.000000 0.110106
#
#
# Mechanical properties :
#
#
# Convention : Reuss Voigt Hill
#
# Bulk Modulus (GPa) = 11.22861 15.04830 13.13846
# Shear Modulus (GPa) = 12.82331 23.35455 18.08893
#
# Velocity S-wave (km/s) = 2.39820 3.23647 2.84834
# Velocity P-wave (km/s) = 3.56435 4.55144 4.08780
#
# Compressibility (1/GPa) = 0.08905823
#
# Stress axis : x y z
#
# Youngs Moduli (GPa) = 99.49303 29.48418 47.39287
#
# Poissons Ratio (x) = -0.10677 -0.10178
# Poissons Ratio (y) = -0.36028 -0.29509
# Poissons Ratio (z) = -0.21368 -0.18358
#
# Static dielectric constant tensor:
#      x y z
#    x 1.810660 0.000000 0.000000 
#    y 0.000000 1.819050 0.000000 
#    z 0.000000 0.000000 1.812830 
# 
# From -- ./inp_files/27233.got.cif
#   From: 2010.05.17/outbox.cif.g08.bks.cpg/sg62_14_cif.got.tgz:27233.got - 2010.06.03 15:25:27.
