data_PCOD9464230
_publ_section_title
;
Structure prediction by ZEFSAII (Michael W. Deem and Ramdas Pophale) SiO2 
 PCOD9464230
Probable space group: P N M A
;
_chemical_formula_sum "Si O2"
_cell_formula_units_Z 56
_cell_length_a 14.402270
_cell_length_b 9.087744
_cell_length_c 21.329449
_cell_angle_alpha 90.000000
_cell_angle_beta 90.000000
_cell_angle_gamma 90.000000
_cell_volume 2791.686648
_symmetry_space_group_name_H-M "P N M A"
_symmetry_group_IT_number 62
_symmetry_cell_setting 'orthorhombic'
loop_
_space_group_symop_operation_xyz
x,y,z
1/2-x,-y,1/2+z
1/2+x,1/2-y,1/2-z
-x,1/2+y,-z
-x,-y,-z
1/2+x,y,1/2-z
1/2-x,1/2+y,1/2+z
x,1/2-y,z
loop_
_atom_site_type_symbol
_atom_site_label
_atom_site_fract_x
_atom_site_fract_y
_atom_site_fract_z
Si Si1 0.033875 0.922404 0.912203
Si Si2 0.501942 0.574034 0.068001
Si Si3 0.444212 0.082767 0.266406
Si Si4 0.790520 0.926020 0.401401
Si Si5 0.382461 0.920221 0.827699
Si Si6 0.849600 0.924978 0.990413
Si Si7 0.260793 0.576031 0.237401
O O1 0.049728 0.750000 0.926137
O O2 0.026599 0.940110 0.838156
O O3 0.937041 0.964202 0.945221
O O4 0.118042 0.012830 0.942690
O O5 0.512339 0.750000 0.063230
O O6 0.400547 0.542273 0.098319
O O7 0.582693 0.506141 0.111030
O O8 0.500000 0.500000 0.000000
O O9 0.404993 0.250000 0.261140
O O10 0.531368 0.074731 0.220685
O O11 0.367540 0.963773 0.249508
O O12 0.780034 0.750000 0.406914
O O13 0.744963 0.972310 0.334986
O O14 0.740215 0.003019 0.459410
O O15 0.362051 0.750000 0.842788
O O16 0.298809 0.993486 0.789674
O O17 0.839627 0.750000 0.992536
O O18 0.244004 0.750000 0.241201
#
# Coordination Sequence:
#
# PCOD9464230 Si02
#       7
#     8   8   8   8   8   8   8
#     4   9  19  36  55  82 120 156 192 243 302 357
#     4  11  24  44  66  91 124 165 212 261 316 378
#     4  10  21  38  61  87 119 157 198 249 304 363
#     4  10  22  40  61  86 120 160 202 251 310 372
#     4  11  23  41  65  94 126 163 208 261 318 375
#     4  10  20  34  57  86 116 153 200 246 293 359
#     4  11  23  39  62  91 122 159 203 254 312 374
#
# _framework density 20.059557000000002
#
# number of rings (size 3 to 8) (size 9 to 14) (size 15 to 20)
#    0.000    1.714    1.429    2.571    0.000    6.286 
#    0.000    1.429    0.000    0.000    0.000    0.000 
#    0.000    0.000    0.000    0.000    0.000    0.000 
#
# Total GULP energy -312909.729876 kJ/mol
# GULP energy per Si atom -5587.673748 kJ/mol
# Density = 2.001390 g / cm^3
# Si number density = 20.059557 Si / 1000 Ang^3
#
#
#
# Elastic Constant Matrix: (Units=GPa)
#
#
# Indices 1 2 3 4 5 6 
#
# 1 24.8468 13.4546 -10.7833 0.0000 0.0000 0.0000
# 2 13.4546 43.4422 23.6596 0.0000 0.0000 0.0000
# 3 -10.7833 23.6596 80.1067 0.0000 0.0000 0.0000
# 4 0.0000 0.0000 0.0000 31.2027 0.0000 0.0000
# 5 0.0000 0.0000 0.0000 0.0000 33.3729 0.0000
# 6 0.0000 0.0000 0.0000 0.0000 0.0000 31.7040
#
#
#
# Elastic Compliance Matrix: (Units=1/GPa)
#
#
# Indices 1 2 3 4 5 6 
#
# 1 0.063290 -0.028888 0.017052 0.000000 0.000000 0.000000
# 2 -0.028888 0.040618 -0.015885 0.000000 0.000000 0.000000
# 3 0.017052 -0.015885 0.019470 0.000000 0.000000 0.000000
# 4 0.000000 0.000000 0.000000 0.032048 0.000000 0.000000
# 5 0.000000 0.000000 0.000000 0.000000 0.029964 0.000000
# 6 0.000000 0.000000 0.000000 0.000000 0.000000 0.031542
#
#
# Mechanical properties :
#
#
# Convention : Reuss Voigt Hill
#
# Bulk Modulus (GPa) = 14.72007 22.33970 18.52989
# Shear Modulus (GPa) = 16.94795 27.39358 22.17076
#
# Velocity S-wave (km/s) = 2.90984 3.69943 3.32813
# Velocity P-wave (km/s) = 4.31783 5.42297 4.90164
#
# Compressibility (1/GPa) = 0.06793445
#
# Stress axis : x y z
#
# Youngs Moduli (GPa) = 15.80028 24.61991 51.35999
#
# Poissons Ratio (x) = 0.71123 -0.87578
# Poissons Ratio (y) = 0.45644 0.81586
# Poissons Ratio (z) = -0.26942 0.39109
#
# Static dielectric constant tensor:
#      x y z
#    x 1.699760 0.000000 0.000000 
#    y 0.000000 1.691480 0.000000 
#    z 0.000000 0.000000 1.707900 
# 
# From -- ./inp_files/27161.got.cif
#   From: 2010.05.17/outbox.cif.g08.bks.cpg/sg62_14_cif.got.tgz:27161.got - 2010.06.03 15:25:27.
