data_PCOD9464313
_publ_section_title
;
Structure prediction by ZEFSAII (Michael W. Deem and Ramdas Pophale) SiO2 
 PCOD9464313
Probable space group: P N M A
;
_chemical_formula_sum "Si O2"
_cell_formula_units_Z 60
_cell_length_a 5.024673
_cell_length_b 24.937280
_cell_length_c 23.773974
_cell_angle_alpha 90.000000
_cell_angle_beta 90.000000
_cell_angle_gamma 90.000000
_cell_volume 2978.918823
_symmetry_space_group_name_H-M "P N M A"
_symmetry_group_IT_number 62
_symmetry_cell_setting 'orthorhombic'
loop_
_space_group_symop_operation_xyz
x,y,z
1/2-x,-y,1/2+z
1/2+x,1/2-y,1/2-z
-x,1/2+y,-z
-x,-y,-z
1/2+x,y,1/2-z
1/2-x,1/2+y,1/2+z
x,1/2-y,z
loop_
_atom_site_type_symbol
_atom_site_label
_atom_site_fract_x
_atom_site_fract_y
_atom_site_fract_z
Si Si1 0.177773 0.750000 0.711849
Si Si2 0.431486 0.366653 0.211151
Si Si3 0.656591 0.467627 0.952100
Si Si4 0.766220 0.688229 0.212116
Si Si5 0.923242 0.134045 0.602349
Si Si6 0.255974 0.075728 0.103914
Si Si7 0.922411 0.312790 0.950045
Si Si8 0.226517 0.886221 0.958879
O O1 0.480576 0.750000 0.733635
O O2 0.113879 0.692781 0.684042
O O3 0.724446 0.369922 0.237022
O O4 0.359588 0.411487 0.165896
O O5 0.476373 0.427153 0.915588
O O6 0.775532 0.513107 0.911914
O O7 0.500000 0.500000 0.000000
O O8 0.839797 0.428597 0.990216
O O9 0.561323 0.682179 0.263751
O O10 0.736119 0.750000 0.190862
O O11 0.688355 0.646712 0.163864
O O12 0.706227 0.160019 0.560952
O O13 0.204381 0.163958 0.593365
O O14 0.478482 0.101228 0.062419
O O15 0.977025 0.103780 0.091110
O O16 0.945853 0.250000 0.943205
O O17 0.813789 0.329758 0.011199
#
# Coordination Sequence:
#
# PCOD9464313 Si02
#       8
#     4   8   8   8   8   8   8   8
#     4   8  16  32  54  74 102 140 180 220 266 326
#     4  10  20  37  57  82 111 146 189 233 279 338
#     4   9  20  38  60  82 111 149 192 235 277 340
#     4  10  20  35  54  78 110 146 186 231 276 329
#     4  11  22  36  58  84 110 152 195 229 282 341
#     4  11  21  37  59  83 111 147 192 233 282 336
#     4  11  21  36  56  82 117 146 182 232 286 344
#     4  10  21  37  55  84 112 147 186 232 282 345
#
# _framework density 20.141534
#
# number of rings (size 3 to 8) (size 9 to 14) (size 15 to 20)
#    0.000    1.867    0.000    5.600    0.000    4.267 
#    2.400    1.333    0.000    0.000    0.000    0.000 
#    0.000    0.000    0.000    0.000    0.000    0.000 
#
# Total GULP energy -334901.029465 kJ/mol
# GULP energy per Si atom -5581.683824 kJ/mol
# Density = 2.009569 g / cm^3
# Si number density = 20.141534 Si / 1000 Ang^3
#
#
#
# Elastic Constant Matrix: (Units=GPa)
#
#
# Indices 1 2 3 4 5 6 
#
# 1 60.2288 -5.9483 -11.5309 0.0000 0.0000 0.0000
# 2 -5.9483 59.0998 21.4064 0.0000 0.0000 0.0000
# 3 -11.5309 21.4064 49.5231 0.0000 0.0000 0.0000
# 4 0.0000 0.0000 0.0000 24.9114 0.0000 0.0000
# 5 0.0000 0.0000 0.0000 0.0000 26.4124 0.0000
# 6 0.0000 0.0000 0.0000 0.0000 0.0000 19.4117
#
#
#
# Elastic Compliance Matrix: (Units=1/GPa)
#
#
# Indices 1 2 3 4 5 6 
#
# 1 0.017384 0.000336 0.003902 0.000000 0.000000 0.000000
# 2 0.000336 0.020068 -0.008596 0.000000 0.000000 0.000000
# 3 0.003902 -0.008596 0.024817 0.000000 0.000000 0.000000
# 4 0.000000 0.000000 0.000000 0.040142 0.000000 0.000000
# 5 0.000000 0.000000 0.000000 0.000000 0.037861 0.000000
# 6 0.000000 0.000000 0.000000 0.000000 0.000000 0.051515
#
#
# Mechanical properties :
#
#
# Convention : Reuss Voigt Hill
#
# Bulk Modulus (GPa) = 18.67303 19.63402 19.15353
# Shear Modulus (GPa) = 22.89866 25.14206 24.02036
#
# Velocity S-wave (km/s) = 3.37543 3.53692 3.45712
# Velocity P-wave (km/s) = 4.94797 5.14285 5.04635
#
# Compressibility (1/GPa) = 0.05355316
#
# Stress axis : x y z
#
# Youngs Moduli (GPa) = 57.52537 49.83078 40.29524
#
# Poissons Ratio (x) = -0.01675 -0.15724
# Poissons Ratio (y) = -0.01934 0.34638
# Poissons Ratio (z) = -0.22448 0.42835
#
# Static dielectric constant tensor:
#      x y z
#    x 1.701480 0.000000 0.000000 
#    y 0.000000 1.753100 0.000000 
#    z 0.000000 0.000000 1.735050 
# 
# From -- ./inp_files/25421.got.cif
#   From: 2010.05.17/outbox.cif.g08.bks.cpg/sg62_13_cif.got.tgz:25421.got - 2010.06.03 15:25:27.
