data_PCOD9464337
_publ_section_title
;
Structure prediction by ZEFSAII (Michael W. Deem and Ramdas Pophale) SiO2 
 PCOD9464337
Probable space group: P N M A
;
_chemical_formula_sum "Si O2"
_cell_formula_units_Z 40
_cell_length_a 18.663257
_cell_length_b 13.985347
_cell_length_c 7.902492
_cell_angle_alpha 90.000000
_cell_angle_beta 90.000000
_cell_angle_gamma 90.000000
_cell_volume 2062.646232
_symmetry_space_group_name_H-M "P N M A"
_symmetry_group_IT_number 62
_symmetry_cell_setting 'orthorhombic'
loop_
_space_group_symop_operation_xyz
x,y,z
1/2-x,-y,1/2+z
1/2+x,1/2-y,1/2-z
-x,1/2+y,-z
-x,-y,-z
1/2+x,y,1/2-z
1/2-x,1/2+y,1/2+z
x,1/2-y,z
loop_
_atom_site_type_symbol
_atom_site_label
_atom_site_fract_x
_atom_site_fract_y
_atom_site_fract_z
Si Si1 0.771587 0.750000 0.772431
Si Si2 0.898611 0.250000 0.651846
Si Si3 0.044501 0.750000 0.807843
Si Si4 0.904515 0.750000 0.006728
Si Si5 0.048490 0.250000 0.531388
Si Si6 0.149904 0.887578 0.642554
Si Si7 0.148551 0.111131 0.708609
Si Si8 0.731928 0.750000 0.378606
O O1 0.851518 0.750000 0.843932
O O2 0.728689 0.657690 0.840955
O O3 0.753642 0.750000 0.574243
O O4 0.878602 0.342723 0.534842
O O5 0.849839 0.250000 0.818412
O O6 0.983831 0.250000 0.667585
O O7 0.097768 0.839440 0.783331
O O8 0.987301 0.750000 0.955570
O O9 0.992964 0.750000 0.643208
O O10 0.884272 0.656830 0.119903
O O11 0.099162 0.159673 0.563825
O O12 0.149651 0.999403 0.675306
O O13 0.227302 0.157735 0.697159
#
# Coordination Sequence:
#
# PCOD9464337 Si02
#       8
#     4   4   4   4   4   8   8   4
#     4  10  21  37  54  76 110 144 180 223 271 326
#     4   9  19  37  58  78 109 140 172 227 277 319
#     4   9  19  36  54  76 110 144 172 220 279 323
#     4  10  20  36  55  76 111 144 177 226 268 312
#     4   8  18  35  55  78 106 140 179 223 272 322
#     4   9  20  37  55  77 108 141 177 222 273 324
#     4  10  20  35  55  79 105 140 184 223 266 323
#     4  10  21  35  56  80 106 142 182 221 273 328
#
# _framework density 19.392565000000001
#
# number of rings (size 3 to 8) (size 9 to 14) (size 15 to 20)
#    0.000    3.200    0.000    3.600    0.000   10.400 
#    0.000    4.000    0.000    0.000    0.000    0.000 
#    0.000    0.000    0.000    0.000    0.000    0.000 
#
# Total GULP energy -222809.265902 kJ/mol
# GULP energy per Si atom -5570.231648 kJ/mol
# Density = 1.934843 g / cm^3
# Si number density = 19.392565 Si / 1000 Ang^3
#
#
#
# Elastic Constant Matrix: (Units=GPa)
#
#
# Indices 1 2 3 4 5 6 
#
# 1 72.7655 27.6338 -12.5283 0.0000 0.0000 0.0000
# 2 27.6338 186.3009 8.7305 0.0000 0.0000 0.0000
# 3 -12.5283 8.7305 57.4223 0.0000 0.0000 0.0000
# 4 0.0000 0.0000 0.0000 0.1715 0.0000 0.0000
# 5 0.0000 0.0000 0.0000 0.0000 37.9189 0.0000
# 6 0.0000 0.0000 0.0000 0.0000 0.0000 -0.0303
#
#
#
# Elastic Compliance Matrix: (Units=1/GPa)
#
#
# Indices 1 2 3 4 5 6 
#
# 1 0.015310 -0.002445 0.003712 0.000000 0.000000 0.000000
# 2 -0.002445 0.005797 -0.001415 0.000000 0.000000 0.000000
# 3 0.003712 -0.001415 0.018440 0.000000 0.000000 0.000000
# 4 0.000000 0.000000 0.000000 5.830455 0.000000 0.000000
# 5 0.000000 0.000000 0.000000 0.000000 0.026372 0.000000
# 6 0.000000 0.000000 0.000000 0.000000 0.000000-33.045523
#
#
# Mechanical properties :
#
#
# Convention : Reuss Voigt Hill
#
# Bulk Modulus (GPa) = 25.47658 40.46229 32.96944
# Shear Modulus (GPa) = -0.18426 27.12221 13.46898
#
# Velocity S-wave (km/s) = -0.30858 3.74383 2.63828
# Velocity P-wave (km/s) = 3.61094 6.29273 5.13017
#
# Compressibility (1/GPa) = 0.03925173
#
# Stress axis : x y z
#
# Youngs Moduli (GPa) = 65.31506 172.51454 54.23042
#
# Poissons Ratio (x) = 0.42179 -0.20131
# Poissons Ratio (y) = 0.15969 0.07672
# Poissons Ratio (z) = -0.24246 0.24406
#
# Static dielectric constant tensor:
#      x y z
#    x 1.687100 0.000000 0.000000 
#    y 0.000000 1.637930 0.000000 
#    z 0.000000 0.000000 1.774080 
# 
# From -- ./inp_files/7527.got.cif
#   From: 2010.05.17/outbox.cif.g08.bks.cpg/sg62_4_cif.got.tgz:7527.got - 2010.06.03 15:25:27.
