data_PCOD9464482
_publ_section_title
;
Structure prediction by ZEFSAII (Michael W. Deem and Ramdas Pophale) SiO2 
 PCOD9464482
Probable space group: P N M A
;
_chemical_formula_sum "Si O2"
_cell_formula_units_Z 56
_cell_length_a 14.639702
_cell_length_b 11.931554
_cell_length_c 17.684730
_cell_angle_alpha 90.000000
_cell_angle_beta 90.000000
_cell_angle_gamma 90.000000
_cell_volume 3089.069513
_symmetry_space_group_name_H-M "P N M A"
_symmetry_group_IT_number 62
_symmetry_cell_setting 'orthorhombic'
loop_
_space_group_symop_operation_xyz
x,y,z
1/2-x,-y,1/2+z
1/2+x,1/2-y,1/2-z
-x,1/2+y,-z
-x,-y,-z
1/2+x,y,1/2-z
1/2-x,1/2+y,1/2+z
x,1/2-y,z
loop_
_atom_site_type_symbol
_atom_site_label
_atom_site_fract_x
_atom_site_fract_y
_atom_site_fract_z
Si Si1 0.335976 0.380633 0.843845
Si Si2 0.700096 0.878568 0.862392
Si Si3 0.941925 0.382484 0.498781
Si Si4 0.844277 0.005520 0.205660
Si Si5 0.584790 0.873397 0.565000
Si Si6 0.112199 0.032296 0.070726
Si Si7 0.033892 0.882472 0.205144
O O1 0.313772 0.250000 0.830604
O O2 0.245202 0.451183 0.830945
O O3 0.411697 0.413861 0.781408
O O4 0.378727 0.389981 0.926800
O O5 0.706424 0.750000 0.837583
O O6 0.619567 0.888072 0.923680
O O7 0.680279 0.952487 0.788982
O O8 0.794795 0.911912 0.902414
O O9 0.980696 0.250000 0.500660
O O10 0.000000 0.500000 0.500000
O O11 0.929085 0.920288 0.209947
O O12 0.879853 0.102005 0.149143
O O13 0.611866 0.750000 0.539782
O O14 0.622333 0.967515 0.508327
O O15 0.474783 0.885816 0.563171
O O16 0.080499 0.944006 0.134543
O O17 0.039394 0.750000 0.195193
#
# Coordination Sequence:
#
# PCOD9464482 Si02
#       7
#     8   8   8   8   8   8   8
#     4  10  20  37  59  84 117 154 197 247 295 351
#     4  11  22  38  59  84 116 155 197 244 298 361
#     4  10  22  41  63  87 121 160 205 254 301 359
#     4  11  21  36  58  84 119 153 193 237 293 357
#     4  10  21  36  56  83 113 148 188 238 290 341
#     4  10  20  37  58  81 114 149 189 239 290 355
#     4  10  20  35  57  85 116 150 193 244 292 348
#
# _framework density 18.128435
#
# number of rings (size 3 to 8) (size 9 to 14) (size 15 to 20)
#    0.000    1.714    1.429    3.429    0.000    0.000 
#    0.000    9.286    0.000    0.000    0.000    0.000 
#    0.000    0.000    0.000    0.000    0.000    0.000 
#
# Total GULP energy -312364.451764 kJ/mol
# GULP energy per Si atom -5577.936639 kJ/mol
# Density = 1.808717 g / cm^3
# Si number density = 18.128435 Si / 1000 Ang^3
#
#
#
# Elastic Constant Matrix: (Units=GPa)
#
#
# Indices 1 2 3 4 5 6 
#
# 1 65.1867 35.3381 3.4503 0.0000 0.0000 0.0000
# 2 35.3381 78.1620 8.9815 0.0000 0.0000 0.0000
# 3 3.4503 8.9815 75.1101 0.0000 0.0000 0.0000
# 4 0.0000 0.0000 0.0000 17.8290 0.0000 0.0000
# 5 0.0000 0.0000 0.0000 0.0000 28.3319 0.0000
# 6 0.0000 0.0000 0.0000 0.0000 0.0000 10.6884
#
#
#
# Elastic Compliance Matrix: (Units=1/GPa)
#
#
# Indices 1 2 3 4 5 6 
#
# 1 0.020323 -0.009208 0.000167 0.000000 0.000000 0.000000
# 2 -0.009208 0.017144 -0.001627 0.000000 0.000000 0.000000
# 3 0.000167 -0.001627 0.013501 0.000000 0.000000 0.000000
# 4 0.000000 0.000000 0.000000 0.056088 0.000000 0.000000
# 5 0.000000 0.000000 0.000000 0.000000 0.035296 0.000000
# 6 0.000000 0.000000 0.000000 0.000000 0.000000 0.093559
#
#
# Mechanical properties :
#
#
# Convention : Reuss Voigt Hill
#
# Bulk Modulus (GPa) = 33.74595 34.88873 34.31734
# Shear Modulus (GPa) = 18.71796 22.74914 20.73355
#
# Velocity S-wave (km/s) = 3.21677 3.54628 3.38554
# Velocity P-wave (km/s) = 5.69668 6.00460 5.85267
#
# Compressibility (1/GPa) = 0.02963319
#
# Stress axis : x y z
#
# Youngs Moduli (GPa) = 49.20481 58.33010 74.07050
#
# Poissons Ratio (x) = 0.53708 -0.01240
# Poissons Ratio (y) = 0.45306 0.12052
# Poissons Ratio (z) = -0.00824 0.09491
#
# Static dielectric constant tensor:
#      x y z
#    x 1.595450 0.000000 0.000000 
#    y 0.000000 1.621810 0.000000 
#    z 0.000000 0.000000 1.609780 
# 
# From -- ./inp_files/19011.got.cif
#   From: 2010.05.17/outbox.cif.g08.bks.cpg/sg62_10_cif.got.tgz:19011.got - 2010.06.03 15:25:27.
