data_PCOD9464221
_publ_section_title
;
Structure prediction by ZEFSAII (Michael W. Deem and Ramdas Pophale) SiO2 
 PCOD9464221
Probable space group: P N M A
;
_chemical_formula_sum "Si O2"
_cell_formula_units_Z 48
_cell_length_a 10.103470
_cell_length_b 7.544647
_cell_length_c 31.416240
_cell_angle_alpha 90.000000
_cell_angle_beta 90.000000
_cell_angle_gamma 90.000000
_cell_volume 2394.769328
_symmetry_space_group_name_H-M "P N M A"
_symmetry_group_IT_number 62
_symmetry_cell_setting 'orthorhombic'
loop_
_space_group_symop_operation_xyz
x,y,z
1/2-x,-y,1/2+z
1/2+x,1/2-y,1/2-z
-x,1/2+y,-z
-x,-y,-z
1/2+x,y,1/2-z
1/2-x,1/2+y,1/2+z
x,1/2-y,z
loop_
_atom_site_type_symbol
_atom_site_label
_atom_site_fract_x
_atom_site_fract_y
_atom_site_fract_z
Si Si1 0.922882 0.544934 0.351833
Si Si2 0.347937 0.962447 0.988242
Si Si3 0.279361 0.035477 0.573684
Si Si4 0.299272 0.536054 0.892371
Si Si5 0.505067 0.044129 0.635915
Si Si6 0.947456 0.750000 0.794693
Si Si7 0.645122 0.750000 0.783453
O O1 0.890862 0.750000 0.342968
O O2 0.075283 0.528713 0.365558
O O3 0.890305 0.419680 0.312455
O O4 0.834214 0.485318 0.392347
O O5 0.332643 0.750000 0.986717
O O6 0.315022 0.028345 0.941099
O O7 0.256966 0.031475 0.026832
O O8 0.500000 0.000000 0.000000
O O9 0.276736 0.250000 0.571146
O O10 0.418643 0.985913 0.594788
O O11 0.302414 0.750000 0.891923
O O12 0.159557 0.476268 0.873754
O O13 0.473864 0.250000 0.644454
O O14 0.464038 0.920016 0.674828
O O15 0.801440 0.750000 0.774867
O O16 0.058861 0.750000 0.758861
#
# Coordination Sequence:
#
# PCOD9464221 Si02
#       7
#     8   8   8   8   8   4   4
#     4  11  22  41  69  94 129 178 220 261 326 400
#     4  10  20  34  56  92 133 171 222 281 317 380
#     4   9  19  38  63  90 126 174 225 262 318 387
#     4  11  22  37  63  98 135 177 225 272 331 384
#     4  11  24  45  70  92 131 181 217 269 335 401
#     4  12  28  48  72 102 134 164 220 278 336 408
#     4  12  28  46  72 102 134 170 214 280 336 402
#
# _framework density 20.043683999999999
#
# number of rings (size 3 to 8) (size 9 to 14) (size 15 to 20)
#    0.000    1.333    5.000    0.500    2.333    2.000 
#    1.500    0.000    0.000    0.000    0.000    0.000 
#    0.000    0.000    0.000    0.000    0.000    0.000 
#
# Total GULP energy -268377.041272 kJ/mol
# GULP energy per Si atom -5591.188360 kJ/mol
# Density = 1.999806 g / cm^3
# Si number density = 20.043684 Si / 1000 Ang^3
#
#
#
# Elastic Constant Matrix: (Units=GPa)
#
#
# Indices 1 2 3 4 5 6 
#
# 1 127.6652 2.4236 19.4271 0.0000 0.0000 0.0000
# 2 2.4236 97.5088 26.5572 0.0000 0.0000 0.0000
# 3 19.4271 26.5572 68.6721 0.0000 0.0000 0.0000
# 4 0.0000 0.0000 0.0000 11.4220 0.0000 0.0000
# 5 0.0000 0.0000 0.0000 0.0000 39.6476 0.0000
# 6 0.0000 0.0000 0.0000 0.0000 0.0000 11.4252
#
#
#
# Elastic Compliance Matrix: (Units=1/GPa)
#
#
# Indices 1 2 3 4 5 6 
#
# 1 0.008205 0.000479 -0.002506 0.000000 0.000000 0.000000
# 2 0.000479 0.011491 -0.004579 0.000000 0.000000 0.000000
# 3 -0.002506 -0.004579 0.017042 0.000000 0.000000 0.000000
# 4 0.000000 0.000000 0.000000 0.087550 0.000000 0.000000
# 5 0.000000 0.000000 0.000000 0.000000 0.025222 0.000000
# 6 0.000000 0.000000 0.000000 0.000000 0.000000 0.087526
#
#
# Mechanical properties :
#
#
# Convention : Reuss Voigt Hill
#
# Bulk Modulus (GPa) = 42.50942 43.40690 42.95816
# Shear Modulus (GPa) = 19.37297 28.86151 24.11724
#
# Velocity S-wave (km/s) = 3.11229 3.79876 3.47253
# Velocity P-wave (km/s) = 5.84547 6.39874 6.12836
#
# Compressibility (1/GPa) = 0.02352420
#
# Stress axis : x y z
#
# Youngs Moduli (GPa) = 121.87242 87.02648 58.67895
#
# Poissons Ratio (x) = -0.04166 0.14707
# Poissons Ratio (y) = -0.05834 0.26870
# Poissons Ratio (z) = 0.30546 0.39851
#
# Static dielectric constant tensor:
#      x y z
#    x 1.682890 0.000000 0.000000 
#    y 0.000000 1.735610 0.000000 
#    z 0.000000 0.000000 1.684020 
# 
# From -- ./inp_files/32097.got.cif
#   From: 2010.05.17/outbox.cif.g08.bks.cpg/sg62_17_cif.got.tgz:32097.got - 2010.06.03 15:25:27.
