data_PCOD9464303
_publ_section_title
;
Structure prediction by ZEFSAII (Michael W. Deem and Ramdas Pophale) SiO2 
 PCOD9464303
Probable space group: P N M A
;
_chemical_formula_sum "Si O2"
_cell_formula_units_Z 64
_cell_length_a 23.476537
_cell_length_b 7.687843
_cell_length_c 16.912483
_cell_angle_alpha 90.000000
_cell_angle_beta 90.000000
_cell_angle_gamma 90.000000
_cell_volume 3052.431409
_symmetry_space_group_name_H-M "P N M A"
_symmetry_group_IT_number 62
_symmetry_cell_setting 'orthorhombic'
loop_
_space_group_symop_operation_xyz
x,y,z
1/2-x,-y,1/2+z
1/2+x,1/2-y,1/2-z
-x,1/2+y,-z
-x,-y,-z
1/2+x,y,1/2-z
1/2-x,1/2+y,1/2+z
x,1/2-y,z
loop_
_atom_site_type_symbol
_atom_site_label
_atom_site_fract_x
_atom_site_fract_y
_atom_site_fract_z
Si Si1 0.508778 0.452659 0.250000
Si Si2 0.335282 0.457125 0.055651
Si Si3 0.164718 0.542875 0.944349
Si Si4 0.718825 0.540359 0.107322
Si Si5 0.963839 0.039909 0.420307
Si Si6 0.139703 0.961331 0.250000
Si Si7 0.218825 0.959641 0.107322
Si Si8 0.536161 0.539909 0.579693
O O1 0.491232 0.250000 0.250000
O O2 0.487828 0.525076 0.164698
O O3 0.576650 0.466505 0.250000
O O4 0.487828 0.525076 0.335302
O O5 0.341249 0.250000 0.046531
O O6 0.307765 0.527992 0.974654
O O7 0.398556 0.523940 0.071237
O O8 0.284586 0.488226 0.117784
O O9 0.158750 0.750000 0.953469
O O10 0.215414 0.511775 0.882216
O O11 0.101444 0.476060 0.928763
O O12 0.192235 0.472007 0.025346
O O13 0.718210 0.750000 0.105223
O O14 0.676322 0.483314 0.175020
O O15 0.963525 0.250000 0.416104
O O16 0.000000 0.000000 0.500000
O O17 0.135401 0.750000 0.250000
O O18 0.176322 0.016685 0.175020
O O19 0.218209 0.750000 0.105223
O O20 0.500000 0.500000 0.500000
O O21 0.536475 0.750000 0.583896
#
# Coordination Sequence:
#
# PCOD9464303 Si02
#       8
#     8   8   8   8   8   8   8   8
#     4  10  22  37  54  80 110 139 179 226 267 318
#     4   9  18  33  52  74 101 133 169 208 256 311
#     4   9  18  33  52  74 101 133 169 208 256 311
#     4   9  18  32  51  75 101 130 166 210 256 306
#     4  10  21  37  56  79 109 145 182 222 269 320
#     4  10  20  35  54  76 104 135 171 216 265 316
#     4   9  18  32  51  75 101 130 166 210 256 306
#     4  10  21  37  56  79 109 145 182 222 269 320
#
# _framework density 20.966892000000001
#
# number of rings (size 3 to 8) (size 9 to 14) (size 15 to 20)
#    0.000    2.500    0.000    1.500    0.000    6.000 
#    0.000    6.250    0.000    0.000    0.000    0.000 
#    0.000    0.000    0.000    0.000    0.000    0.000 
#
# Total GULP energy -356820.596682 kJ/mol
# GULP energy per Si atom -5575.321823 kJ/mol
# Density = 2.091917 g / cm^3
# Si number density = 20.966892 Si / 1000 Ang^3
#
#
#
# Elastic Constant Matrix: (Units=GPa)
#
#
# Indices 1 2 3 4 5 6 
#
# 1 218.7725 0.1057 100.6271 0.0000 0.0000 0.0000
# 2 0.1057 34.8026 6.4112 0.0000 0.0000 0.0000
# 3 100.6271 6.4112 137.9225 0.0000 0.0000 0.0000
# 4 0.0000 0.0000 0.0000 14.7115 0.0000 0.0000
# 5 0.0000 0.0000 0.0000 0.0000 35.5870 0.0000
# 6 0.0000 0.0000 0.0000 0.0000 0.0000 23.0236
#
#
#
# Elastic Compliance Matrix: (Units=1/GPa)
#
#
# Indices 1 2 3 4 5 6 
#
# 1 0.006908 0.000915 -0.005083 0.000000 0.000000 0.000000
# 2 0.000915 0.029103 -0.002021 0.000000 0.000000 0.000000
# 3 -0.005083 -0.002021 0.011053 0.000000 0.000000 0.000000
# 4 0.000000 0.000000 0.000000 0.067974 0.000000 0.000000
# 5 0.000000 0.000000 0.000000 0.000000 0.028100 0.000000
# 6 0.000000 0.000000 0.000000 0.000000 0.000000 0.043434
#
#
# Mechanical properties :
#
#
# Convention : Reuss Voigt Hill
#
# Bulk Modulus (GPa) = 28.82858 67.30953 48.06905
# Shear Modulus (GPa) = 23.75171 33.62131 28.68651
#
# Velocity S-wave (km/s) = 3.36939 4.00877 3.70291
# Velocity P-wave (km/s) = 5.37740 7.32116 6.42324
#
# Compressibility (1/GPa) = 0.03468779
#
# Stress axis : x y z
#
# Youngs Moduli (GPa) = 144.74997 34.36080 90.47458
#
# Poissons Ratio (x) = -0.03145 0.45987
# Poissons Ratio (y) = -0.13250 0.18282
# Poissons Ratio (z) = 0.73575 0.06943
#
# Static dielectric constant tensor:
#      x y z
#    x 1.733210 0.000000 0.000000 
#    y 0.000000 1.784010 0.000000 
#    z 0.000000 0.000000 1.785930 
# 
# From -- ./inp_files/20883.got.cif
#   From: 2010.05.17/outbox.cif.g08.bks.cpg/sg62_11_cif.got.tgz:20883.got - 2010.06.03 15:25:27.
