data_PCOD9464620
_publ_section_title
;
Structure prediction by ZEFSAII (Michael W. Deem and Ramdas Pophale) SiO2 
 PCOD9464620
Probable space group: P N M A
;
_chemical_formula_sum "Si O2"
_cell_formula_units_Z 48
_cell_length_a 9.753464
_cell_length_b 10.477371
_cell_length_c 23.734364
_cell_angle_alpha 90.000000
_cell_angle_beta 90.000000
_cell_angle_gamma 90.000000
_cell_volume 2425.430342
_symmetry_space_group_name_H-M "P N M A"
_symmetry_group_IT_number 62
_symmetry_cell_setting 'orthorhombic'
loop_
_space_group_symop_operation_xyz
x,y,z
1/2-x,-y,1/2+z
1/2+x,1/2-y,1/2-z
-x,1/2+y,-z
-x,-y,-z
1/2+x,y,1/2-z
1/2-x,1/2+y,1/2+z
x,1/2-y,z
loop_
_atom_site_type_symbol
_atom_site_label
_atom_site_fract_x
_atom_site_fract_y
_atom_site_fract_z
Si Si1 0.759051 0.750000 0.175500
Si Si2 0.375831 0.600775 0.005416
Si Si3 0.378096 0.104637 0.298244
Si Si4 0.317834 0.597380 0.702237
Si Si5 0.289319 0.989685 0.893037
Si Si6 0.458820 0.750000 0.219979
Si Si7 0.895738 0.969077 0.369612
O O1 0.748480 0.628284 0.133173
O O2 0.624339 0.750000 0.215792
O O3 0.888192 0.750000 0.218461
O O4 0.405275 0.750000 0.991325
O O5 0.273118 0.541892 0.959032
O O6 0.500000 0.500000 0.000000
O O7 0.347358 0.594747 0.072035
O O8 0.395382 0.250000 0.278360
O O9 0.528178 0.043535 0.298408
O O10 0.264324 0.048054 0.256705
O O11 0.309526 0.102410 0.358761
O O12 0.330588 0.750000 0.705109
O O13 0.221727 0.565092 0.649832
O O14 0.451847 0.971759 0.878913
O O15 0.412876 0.630726 0.181187
#
# Coordination Sequence:
#
# PCOD9464620 Si02
#       7
#     4   8   8   8   8   4   8
#     4  10  22  36  56  90 120 164 193 264 301 378
#     4  10  21  37  62  90 122 165 210 260 310 366
#     4  10  20  36  56  82 118 155 196 251 308 370
#     4  10  21  35  55  84 117 153 199 248 309 373
#     4  10  21  36  59  84 122 152 210 243 317 358
#     4  10  20  36  56  80 124 150 197 244 311 360
#     4  10  20  36  57  84 116 156 199 253 301 367
#
# _framework density 19.790303999999999
#
# number of rings (size 3 to 8) (size 9 to 14) (size 15 to 20)
#    0.000    2.000    0.833    2.500    3.500    8.667 
#    0.000    0.833    0.000    0.000    0.000    0.000 
#    0.000    0.000    0.000    0.000    0.000    0.000 
#
# Total GULP energy -267312.209271 kJ/mol
# GULP energy per Si atom -5569.004360 kJ/mol
# Density = 1.974526 g / cm^3
# Si number density = 19.790304 Si / 1000 Ang^3
#
#
#
# Elastic Constant Matrix: (Units=GPa)
#
#
# Indices 1 2 3 4 5 6 
#
# 1 84.1386 13.6838 1.6221 0.0000 0.0000 0.0000
# 2 13.6838 62.5499 3.6942 0.0000 0.0000 0.0000
# 3 1.6221 3.6942 37.1984 0.0000 0.0000 0.0000
# 4 0.0000 0.0000 0.0000 30.7026 0.0000 0.0000
# 5 0.0000 0.0000 0.0000 0.0000 23.0616 0.0000
# 6 0.0000 0.0000 0.0000 0.0000 0.0000 22.6247
#
#
#
# Elastic Compliance Matrix: (Units=1/GPa)
#
#
# Indices 1 2 3 4 5 6 
#
# 1 0.012326 -0.002681 -0.000271 0.000000 0.000000 0.000000
# 2 -0.002681 0.016665 -0.001538 0.000000 0.000000 0.000000
# 3 -0.000271 -0.001538 0.027047 0.000000 0.000000 0.000000
# 4 0.000000 0.000000 0.000000 0.032571 0.000000 0.000000
# 5 0.000000 0.000000 0.000000 0.000000 0.043362 0.000000
# 6 0.000000 0.000000 0.000000 0.000000 0.000000 0.044199
#
#
# Mechanical properties :
#
#
# Convention : Reuss Voigt Hill
#
# Bulk Modulus (GPa) = 21.25018 24.65412 22.95215
# Shear Modulus (GPa) = 24.89588 26.27023 25.58305
#
# Velocity S-wave (km/s) = 3.55065 3.64734 3.59932
# Velocity P-wave (km/s) = 5.25076 5.49747 5.37553
#
# Compressibility (1/GPa) = 0.04705842
#
# Stress axis : x y z
#
# Youngs Moduli (GPa) = 81.12711 60.00780 36.97202
#
# Poissons Ratio (x) = 0.16086 0.01003
# Poissons Ratio (y) = 0.21747 0.05687
# Poissons Ratio (z) = 0.02201 0.09230
#
# Static dielectric constant tensor:
#      x y z
#    x 1.711440 0.000000 0.000000 
#    y 0.000000 1.792580 0.000000 
#    z 0.000000 0.000000 1.735390 
# 
# From -- ./inp_files/28844.got.cif
#   From: 2010.05.17/outbox.cif.g08.bks.cpg/sg62_15_cif.got.tgz:28844.got - 2010.06.03 15:25:27.
