data_PCOD9464472
_publ_section_title
;
Structure prediction by ZEFSAII (Michael W. Deem and Ramdas Pophale) SiO2 
 PCOD9464472
Probable space group: P N M A
;
_chemical_formula_sum "Si O2"
_cell_formula_units_Z 56
_cell_length_a 21.889027
_cell_length_b 11.802339
_cell_length_c 11.217541
_cell_angle_alpha 90.000000
_cell_angle_beta 90.000000
_cell_angle_gamma 90.000000
_cell_volume 2897.958803
_symmetry_space_group_name_H-M "P N M A"
_symmetry_group_IT_number 62
_symmetry_cell_setting 'orthorhombic'
loop_
_space_group_symop_operation_xyz
x,y,z
1/2-x,-y,1/2+z
1/2+x,1/2-y,1/2-z
-x,1/2+y,-z
-x,-y,-z
1/2+x,y,1/2-z
1/2-x,1/2+y,1/2+z
x,1/2-y,z
loop_
_atom_site_type_symbol
_atom_site_label
_atom_site_fract_x
_atom_site_fract_y
_atom_site_fract_z
Si Si1 0.649828 0.621114 0.721022
Si Si2 0.339605 0.448110 0.025305
Si Si3 0.296645 0.880388 0.570390
Si Si4 0.471414 0.117444 0.941923
Si Si5 0.978700 0.121637 0.841560
Si Si6 0.910575 0.512172 0.036122
Si Si7 0.290436 0.881462 0.836854
O O1 0.643916 0.750000 0.766790
O O2 0.597681 0.591479 0.627484
O O3 0.716469 0.614475 0.659546
O O4 0.646610 0.537360 0.833951
O O5 0.399093 0.388245 0.971721
O O6 0.324504 0.554938 0.942393
O O7 0.273622 0.386755 0.029684
O O8 0.313640 0.750000 0.579086
O O9 0.303404 0.929485 0.704352
O O10 0.343796 0.938341 0.483381
O O11 0.491675 0.250000 0.973912
O O12 0.481129 0.105103 0.800011
O O13 0.500000 0.000000 0.000000
O O14 0.957451 0.250000 0.863329
O O15 0.936484 0.032477 0.911281
O O16 0.044177 0.100968 0.903119
O O17 0.307689 0.750000 0.840348
#
# Coordination Sequence:
#
# PCOD9464472 Si02
#       7
#     8   8   8   8   8   8   8
#     4  10  20  35  57  84 116 153 194 244 299 359
#     4  11  20  37  61  86 116 153 201 245 304 362
#     4  10  20  35  58  85 114 149 193 248 302 356
#     4  11  24  43  64  90 126 166 208 257 308 362
#     4  10  23  39  59  87 122 160 203 254 302 359
#     4  11  20  38  61  84 117 158 200 245 301 366
#     4   9  19  35  55  83 119 152 189 245 305 362
#
# _framework density 19.323944999999998
#
# number of rings (size 3 to 8) (size 9 to 14) (size 15 to 20)
#    0.000    1.714    1.429    4.714    0.000    0.571 
#    0.000    5.000    0.000    0.000    0.000    0.000 
#    0.000    0.000    0.000    0.000    0.000    0.000 
#
# Total GULP energy -311840.921719 kJ/mol
# GULP energy per Si atom -5568.587888 kJ/mol
# Density = 1.927996 g / cm^3
# Si number density = 19.323945 Si / 1000 Ang^3
#
#
#
# Elastic Constant Matrix: (Units=GPa)
#
#
# Indices 1 2 3 4 5 6 
#
# 1 48.3595 21.0139 29.4898 0.0000 0.0000 0.0000
# 2 21.0139 81.7517 50.0556 0.0000 0.0000 0.0000
# 3 29.4898 50.0556 78.7402 0.0000 0.0000 0.0000
# 4 0.0000 0.0000 0.0000 29.1695 0.0000 0.0000
# 5 0.0000 0.0000 0.0000 0.0000 26.0187 0.0000
# 6 0.0000 0.0000 0.0000 0.0000 0.0000 18.2625
#
#
#
# Elastic Compliance Matrix: (Units=1/GPa)
#
#
# Indices 1 2 3 4 5 6 
#
# 1 0.026873 -0.001220 -0.009289 0.000000 0.000000 0.000000
# 2 -0.001220 0.020083 -0.012310 0.000000 0.000000 0.000000
# 3 -0.009289 -0.012310 0.024004 0.000000 0.000000 0.000000
# 4 0.000000 0.000000 0.000000 0.034282 0.000000 0.000000
# 5 0.000000 0.000000 0.000000 0.000000 0.038434 0.000000
# 6 0.000000 0.000000 0.000000 0.000000 0.000000 0.054757
#
#
# Mechanical properties :
#
#
# Convention : Reuss Voigt Hill
#
# Bulk Modulus (GPa) = 39.49047 45.55224 42.52136
# Shear Modulus (GPa) = 19.80102 21.90963 20.85532
#
# Velocity S-wave (km/s) = 3.20455 3.37086 3.28875
# Velocity P-wave (km/s) = 5.84573 6.22691 6.03933
#
# Compressibility (1/GPa) = 0.02532256
#
# Stress axis : x y z
#
# Youngs Moduli (GPa) = 37.21208 49.79329 41.65906
#
# Poissons Ratio (x) = 0.06075 0.38697
# Poissons Ratio (y) = 0.04540 0.51282
# Poissons Ratio (z) = 0.34566 0.61295
#
# Static dielectric constant tensor:
#      x y z
#    x 1.675980 0.000000 0.000000 
#    y 0.000000 1.681960 0.000000 
#    z 0.000000 0.000000 1.698220 
# 
# From -- ./inp_files/14820.got.cif
#   From: 2010.05.17/outbox.cif.g08.bks.cpg/sg62_8_cif.got.tgz:14820.got - 2010.06.03 15:25:27.
