data_PCOD9464099
_publ_section_title
;
Structure prediction by ZEFSAII (Michael W. Deem and Ramdas Pophale) SiO2 
 PCOD9464099
Probable space group: P N M A
;
_chemical_formula_sum "Si O2"
_cell_formula_units_Z 56
_cell_length_a 19.687520
_cell_length_b 8.801308
_cell_length_c 19.388818
_cell_angle_alpha 90.000000
_cell_angle_beta 90.000000
_cell_angle_gamma 90.000000
_cell_volume 3359.615418
_symmetry_space_group_name_H-M "P N M A"
_symmetry_group_IT_number 62
_symmetry_cell_setting 'orthorhombic'
loop_
_space_group_symop_operation_xyz
x,y,z
1/2-x,-y,1/2+z
1/2+x,1/2-y,1/2-z
-x,1/2+y,-z
-x,-y,-z
1/2+x,y,1/2-z
1/2-x,1/2+y,1/2+z
x,1/2-y,z
loop_
_atom_site_type_symbol
_atom_site_label
_atom_site_fract_x
_atom_site_fract_y
_atom_site_fract_z
Si Si1 0.976111 0.069203 0.793292
Si Si2 0.550470 0.068442 0.442985
Si Si3 0.196321 0.931841 0.017738
Si Si4 0.272726 0.067666 0.359719
Si Si5 0.827601 0.069055 0.743573
Si Si6 0.385748 0.432078 0.246196
Si Si7 0.229296 0.931671 0.641210
O O1 0.978457 0.250000 0.804699
O O2 0.906994 0.034190 0.751821
O O3 0.971429 0.987870 0.867364
O O4 0.043075 0.014482 0.754139
O O5 0.548635 0.250000 0.445679
O O6 0.500000 0.000000 0.500000
O O7 0.626118 0.008812 0.458805
O O8 0.188629 0.750000 0.022842
O O9 0.254663 0.988285 0.069385
O O10 0.212751 0.971431 0.938686
O O11 0.263680 0.250000 0.354499
O O12 0.337094 0.028433 0.311187
O O13 0.207635 0.987178 0.326410
O O14 0.818517 0.250000 0.751093
O O15 0.787020 0.986296 0.805097
O O16 0.395807 0.250000 0.247618
O O17 0.341912 0.470030 0.178216
O O18 0.233246 0.750000 0.634006
#
# Coordination Sequence:
#
# PCOD9464099 Si02
#       7
#     8   8   8   8   8   8   8
#     4  11  22  35  53  80 110 141 179 223 271 323
#     4  12  24  36  53  77 111 150 181 217 266 327
#     4  11  21  35  55  81 111 142 179 224 271 324
#     4   9  20  36  54  77 107 140 178 222 269 322
#     4  10  20  34  54  78 106 139 180 226 267 320
#     4   9  19  35  54  77 106 142 183 223 268 322
#     4  10  20  35  55  78 105 142 184 223 267 323
#
# _framework density 16.668574
#
# number of rings (size 3 to 8) (size 9 to 14) (size 15 to 20)
#    0.000    1.714    1.429    4.714    0.000    6.857 
#    0.000    0.000    0.000    0.857    0.000    0.000 
#    0.000    0.000    0.000    0.000    0.000    0.000 
#
# Total GULP energy -312759.773134 kJ/mol
# GULP energy per Si atom -5584.995949 kJ/mol
# Density = 1.663064 g / cm^3
# Si number density = 16.668574 Si / 1000 Ang^3
#
#
#
# Elastic Constant Matrix: (Units=GPa)
#
#
# Indices 1 2 3 4 5 6 
#
# 1 104.2445 40.9933 18.5158 0.0000 0.0000 0.0000
# 2 40.9933 55.9514 11.8926 0.0000 0.0000 0.0000
# 3 18.5158 11.8926 22.1202 0.0000 0.0000 0.0000
# 4 0.0000 0.0000 0.0000 28.9721 0.0000 0.0000
# 5 0.0000 0.0000 0.0000 0.0000 22.2690 0.0000
# 6 0.0000 0.0000 0.0000 0.0000 0.0000 31.7986
#
#
#
# Elastic Compliance Matrix: (Units=1/GPa)
#
#
# Indices 1 2 3 4 5 6 
#
# 1 0.014429 -0.009037 -0.007219 0.000000 0.000000 0.000000
# 2 -0.009037 0.025838 -0.006327 0.000000 0.000000 0.000000
# 3 -0.007219 -0.006327 0.054652 0.000000 0.000000 0.000000
# 4 0.000000 0.000000 0.000000 0.034516 0.000000 0.000000
# 5 0.000000 0.000000 0.000000 0.000000 0.044906 0.000000
# 6 0.000000 0.000000 0.000000 0.000000 0.000000 0.031448
#
#
# Mechanical properties :
#
#
# Convention : Reuss Voigt Hill
#
# Bulk Modulus (GPa) = 20.09940 36.12440 28.11190
# Shear Modulus (GPa) = 18.68881 24.00222 21.34552
#
# Velocity S-wave (km/s) = 3.35207 3.79881 3.58241
# Velocity P-wave (km/s) = 5.20252 6.40004 5.83210
#
# Compressibility (1/GPa) = 0.04975272
#
# Stress axis : x y z
#
# Youngs Moduli (GPa) = 69.30592 38.70194 18.29756
#
# Poissons Ratio (x) = 0.34975 0.13209
# Poissons Ratio (y) = 0.62631 0.11577
# Poissons Ratio (z) = 0.50033 0.24488
#
# Static dielectric constant tensor:
#      x y z
#    x 1.549220 0.000000 0.000000 
#    y 0.000000 1.558940 0.000000 
#    z 0.000000 0.000000 1.551570 
# 
# From -- ./inp_files/27546.got.cif
#   From: 2010.05.17/outbox.cif.g08.bks.cpg/sg62_14_cif.got.tgz:27546.got - 2010.06.03 15:25:27.
