data_PCOD9464152
_publ_section_title
;
Structure prediction by ZEFSAII (Michael W. Deem and Ramdas Pophale) SiO2 
 PCOD9464152
Probable space group: P N M A
;
_chemical_formula_sum "Si O2"
_cell_formula_units_Z 36
_cell_length_a 8.915056
_cell_length_b 9.733983
_cell_length_c 17.017498
_cell_angle_alpha 90.000000
_cell_angle_beta 90.000000
_cell_angle_gamma 90.000000
_cell_volume 1476.761519
_symmetry_space_group_name_H-M "P N M A"
_symmetry_group_IT_number 62
_symmetry_cell_setting 'orthorhombic'
loop_
_space_group_symop_operation_xyz
x,y,z
1/2-x,-y,1/2+z
1/2+x,1/2-y,1/2-z
-x,1/2+y,-z
-x,-y,-z
1/2+x,y,1/2-z
1/2-x,1/2+y,1/2+z
x,1/2-y,z
loop_
_atom_site_type_symbol
_atom_site_label
_atom_site_fract_x
_atom_site_fract_y
_atom_site_fract_z
Si Si1 0.460513 0.750000 0.792293
Si Si2 0.215080 0.030003 0.585172
Si Si3 0.777720 0.465878 0.244349
Si Si4 0.968132 0.250000 0.629496
Si Si5 0.740843 0.750000 0.991622
Si Si6 0.924946 0.750000 0.199355
Si Si7 0.074571 0.750000 0.030546
O O1 0.583169 0.630538 0.767649
O O2 0.333855 0.872590 0.805699
O O3 0.292483 0.002281 0.669644
O O4 0.176253 0.883669 0.549785
O O5 0.322385 0.114756 0.526141
O O6 0.069958 0.121041 0.602788
O O7 0.832600 0.607883 0.207241
O O8 0.816189 0.250000 0.580442
O O9 0.969089 0.250000 0.723140
O O10 0.921210 0.750000 0.981767
O O11 0.018406 0.750000 0.120239
#
# Coordination Sequence:
#
# PCOD9464152 Si02
#       7
#     4   8   8   4   4   4   4
#     4  10  20  34  54  88 120 158 204 244 308 362
#     4  10  22  41  59  84 123 162 195 246 314 356
#     4  10  21  38  61  86 124 165 200 251 303 365
#     4   9  22  40  64  91 120 158 202 254 300 359
#     4  12  22  38  64  90 116 156 210 248 292 370
#     4  10  22  40  64  92 122 162 210 250 306 364
#     4  11  24  40  62  89 122 160 202 256 302 361
#
# _framework density 24.377666999999999
#
# number of rings (size 3 to 8) (size 9 to 14) (size 15 to 20)
#    0.000    1.778    0.000    4.667    0.000    8.000 
#    0.000    2.222    0.000   10.667    0.000    0.000 
#    0.000    0.000    0.000    0.000    0.000    0.000 
#
# Total GULP energy -200494.469390 kJ/mol
# GULP energy per Si atom -5569.290816 kJ/mol
# Density = 2.432218 g / cm^3
# Si number density = 24.377667 Si / 1000 Ang^3
#
#
#
# Elastic Constant Matrix: (Units=GPa)
#
#
# Indices 1 2 3 4 5 6 
#
# 1 69.2390 30.5446 -17.1434 0.0000 0.0000 0.0000
# 2 30.5446 222.3766 22.3898 0.0000 0.0000 0.0000
# 3 -17.1434 22.3898 42.9410 0.0000 0.0000 0.0000
# 4 0.0000 0.0000 0.0000 -0.7417 0.0000 0.0000
# 5 0.0000 0.0000 0.0000 0.0000 17.3166 0.0000
# 6 0.0000 0.0000 0.0000 0.0000 0.0000 22.9523
#
#
#
# Elastic Compliance Matrix: (Units=1/GPa)
#
#
# Indices 1 2 3 4 5 6 
#
# 1 0.018183 -0.003407 0.009036 0.000000 0.000000 0.000000
# 2 -0.003407 0.005385 -0.004168 0.000000 0.000000 0.000000
# 3 0.009036 -0.004168 0.029068 0.000000 0.000000 0.000000
# 4 0.000000 0.000000 0.000000 -1.348287 0.000000 0.000000
# 5 0.000000 0.000000 0.000000 0.000000 0.057748 0.000000
# 6 0.000000 0.000000 0.000000 0.000000 0.000000 0.043569
#
#
# Mechanical properties :
#
#
# Convention : Reuss Voigt Hill
#
# Bulk Modulus (GPa) = 17.99941 45.12650 31.56295
# Shear Modulus (GPa) = -4.24183 27.82315 11.79066
#
# Velocity S-wave (km/s) = -1.32054 3.38203 2.20163
# Velocity P-wave (km/s) = 2.25266 5.81399 4.40891
#
# Compressibility (1/GPa) = 0.05555738
#
# Stress axis : x y z
#
# Youngs Moduli (GPa) = 54.99614 185.71749 34.40170
#
# Poissons Ratio (x) = 0.63280 -0.31085
# Poissons Ratio (y) = 0.18739 0.14338
# Poissons Ratio (z) = -0.49694 0.77404
#
# Static dielectric constant tensor:
#      x y z
#    x 1.978370 0.000000 0.000000 
#    y 0.000000 1.901340 0.000000 
#    z 0.000000 0.000000 1.954570 
# 
# From -- ./inp_files/25665.got.cif
#   From: 2010.05.17/outbox.cif.g08.bks.cpg/sg62_13_cif.got.tgz:25665.got - 2010.06.03 15:25:27.
