data_PCOD9464765
_publ_section_title
;
Structure prediction by ZEFSAII (Michael W. Deem and Ramdas Pophale) SiO2 
 PCOD9464765
Probable space group: P N M A
;
_chemical_formula_sum "Si O2"
_cell_formula_units_Z 40
_cell_length_a 14.856356
_cell_length_b 11.285745
_cell_length_c 12.253268
_cell_angle_alpha 90.000000
_cell_angle_beta 90.000000
_cell_angle_gamma 90.000000
_cell_volume 2054.444736
_symmetry_space_group_name_H-M "P N M A"
_symmetry_group_IT_number 62
_symmetry_cell_setting 'orthorhombic'
loop_
_space_group_symop_operation_xyz
x,y,z
1/2-x,-y,1/2+z
1/2+x,1/2-y,1/2-z
-x,1/2+y,-z
-x,-y,-z
1/2+x,y,1/2-z
1/2-x,1/2+y,1/2+z
x,1/2-y,z
loop_
_atom_site_type_symbol
_atom_site_label
_atom_site_fract_x
_atom_site_fract_y
_atom_site_fract_z
Si Si1 0.600078 0.383088 0.918966
Si Si2 0.007513 0.121838 0.360828
Si Si3 0.743602 0.613007 0.255146
Si Si4 0.607890 0.108179 0.582402
Si Si5 0.574567 0.481975 0.344541
O O1 0.566376 0.250000 0.882813
O O2 0.547890 0.500458 0.878852
O O3 0.698292 0.391736 0.866873
O O4 0.587130 0.383996 0.049188
O O5 0.960887 0.250000 0.381481
O O6 0.040194 0.118480 0.237173
O O7 0.724975 0.750000 0.229776
O O8 0.810312 0.566448 0.160278
O O9 0.650746 0.548578 0.275965
O O10 0.607827 0.250000 0.585267
O O11 0.512241 0.061941 0.627361
O O12 0.614227 0.063715 0.458515
#
# Coordination Sequence:
#
# PCOD9464765 Si02
#       5
#     8   8   8   8   8
#     4   9  19  37  60  85 119 159 203 253 303 365
#     4  10  20  36  59  88 122 156 200 255 313 360
#     4  10  21  38  61  87 116 157 210 255 300 366
#     4  10  22  41  60  87 122 160 206 255 301 371
#     4  11  22  36  64  86 123 165 202 251 313 367
#
# _framework density 19.469982000000002
#
# number of rings (size 3 to 8) (size 9 to 14) (size 15 to 20)
#    0.000    2.000    2.000    1.200    2.800    0.800 
#    0.000    2.000    0.000    0.000    0.000    0.000 
#    0.000    0.000    0.000    0.000    0.000    0.000 
#
# Total GULP energy -222808.117682 kJ/mol
# GULP energy per Si atom -5570.202942 kJ/mol
# Density = 1.942567 g / cm^3
# Si number density = 19.469982 Si / 1000 Ang^3
#
#
#
# Elastic Constant Matrix: (Units=GPa)
#
#
# Indices 1 2 3 4 5 6 
#
# 1 62.5695 42.9992 32.0131 0.0000 0.0000 0.0000
# 2 42.9992 109.0644 26.7721 0.0000 0.0000 0.0000
# 3 32.0131 26.7721 85.8397 0.0000 0.0000 0.0000
# 4 0.0000 0.0000 0.0000 24.2015 0.0000 0.0000
# 5 0.0000 0.0000 0.0000 0.0000 19.3317 0.0000
# 6 0.0000 0.0000 0.0000 0.0000 0.0000 -1.0058
#
#
#
# Elastic Compliance Matrix: (Units=1/GPa)
#
#
# Indices 1 2 3 4 5 6 
#
# 1 0.025121 -0.008235 -0.006800 0.000000 0.000000 0.000000
# 2 -0.008235 0.012628 -0.000868 0.000000 0.000000 0.000000
# 3 -0.006800 -0.000868 0.014456 0.000000 0.000000 0.000000
# 4 0.000000 0.000000 0.000000 0.041320 0.000000 0.000000
# 5 0.000000 0.000000 0.000000 0.000000 0.051729 0.000000
# 6 0.000000 0.000000 0.000000 0.000000 0.000000 -0.994213
#
#
# Mechanical properties :
#
#
# Convention : Reuss Voigt Hill
#
# Bulk Modulus (GPa) = 49.01871 51.22692 50.12281
# Shear Modulus (GPa) = -6.17014 18.88476 6.35731
#
# Velocity S-wave (km/s) = -1.78211 3.11777 1.80894
# Velocity P-wave (km/s) = 4.58221 6.27124 5.49204
#
# Compressibility (1/GPa) = 0.02040038
#
# Stress axis : x y z
#
# Youngs Moduli (GPa) = 39.80810 79.18654 69.17413
#
# Poissons Ratio (x) = 0.65207 0.47040
# Poissons Ratio (y) = 0.32781 0.06001
# Poissons Ratio (z) = 0.27070 0.06870
#
# Static dielectric constant tensor:
#      x y z
#    x 1.671060 0.000000 0.000000 
#    y 0.000000 1.700120 0.000000 
#    z 0.000000 0.000000 1.709640 
# 
# From -- ./inp_files/12980.got.cif
#   From: 2010.05.17/outbox.cif.g08.bks.cpg/sg62_7_cif.got.tgz:12980.got - 2010.06.03 15:25:27.
