data_PCOD9464231
_publ_section_title
;
Structure prediction by ZEFSAII (Michael W. Deem and Ramdas Pophale) SiO2 
 PCOD9464231
Probable space group: P N M A
;
_chemical_formula_sum "Si O2"
_cell_formula_units_Z 48
_cell_length_a 10.493474
_cell_length_b 8.933804
_cell_length_c 28.684855
_cell_angle_alpha 90.000000
_cell_angle_beta 90.000000
_cell_angle_gamma 90.000000
_cell_volume 2689.108775
_symmetry_space_group_name_H-M "P N M A"
_symmetry_group_IT_number 62
_symmetry_cell_setting 'orthorhombic'
loop_
_space_group_symop_operation_xyz
x,y,z
1/2-x,-y,1/2+z
1/2+x,1/2-y,1/2-z
-x,1/2+y,-z
-x,-y,-z
1/2+x,y,1/2-z
1/2-x,1/2+y,1/2+z
x,1/2-y,z
loop_
_atom_site_type_symbol
_atom_site_label
_atom_site_fract_x
_atom_site_fract_y
_atom_site_fract_z
Si Si1 0.487073 0.570024 0.806626
Si Si2 0.641588 0.571834 0.554352
Si Si3 0.747689 0.929206 0.859640
Si Si4 0.504081 0.570438 0.697382
Si Si5 0.637292 0.927960 0.447122
Si Si6 0.256899 0.928170 0.355679
O O1 0.468921 0.750000 0.809675
O O2 0.618300 0.531838 0.832844
O O3 0.497164 0.532504 0.751958
O O4 0.368330 0.489889 0.830435
O O5 0.640926 0.750000 0.561975
O O6 0.498084 0.509673 0.560703
O O7 0.677163 0.541788 0.500535
O O8 0.730007 0.493503 0.592226
O O9 0.748363 0.750000 0.867248
O O10 0.870659 0.965027 0.827799
O O11 0.766086 0.011832 0.908586
O O12 0.524739 0.750000 0.693474
O O13 0.619710 0.487831 0.672195
O O14 0.618667 0.750000 0.442273
O O15 0.257114 0.750000 0.356817
#
# Coordination Sequence:
#
# PCOD9464231 Si02
#       6
#     8   8   8   8   8   8
#     4  10  22  40  60  83 115 157 199 234 277 341
#     4  10  20  36  58  83 112 149 192 234 281 344
#     4  10  20  35  59  87 114 150 193 237 284 339
#     4  10  20  38  63  86 110 150 199 239 278 338
#     4  10  20  34  57  87 115 144 184 240 294 338
#     4  12  24  37  57  88 120 152 189 238 294 336
#
# _framework density 17.849779000000002
#
# number of rings (size 3 to 8) (size 9 to 14) (size 15 to 20)
#    0.000    1.667    1.667    3.500    0.000    6.000 
#    0.000    2.500    0.000    0.000    0.000    0.000 
#    0.000    0.000    0.000    0.000    0.000    0.000 
#
# Total GULP energy -268209.973482 kJ/mol
# GULP energy per Si atom -5587.707781 kJ/mol
# Density = 1.780915 g / cm^3
# Si number density = 17.849779 Si / 1000 Ang^3
#
#
#
# Elastic Constant Matrix: (Units=GPa)
#
#
# Indices 1 2 3 4 5 6 
#
# 1 118.5555 63.1206 74.2026 0.0000 0.0000 0.0000
# 2 63.1206 66.4763 72.1880 0.0000 0.0000 0.0000
# 3 74.2026 72.1880 154.4909 0.0000 0.0000 0.0000
# 4 0.0000 0.0000 0.0000 29.6741 0.0000 0.0000
# 5 0.0000 0.0000 0.0000 0.0000 -3.1116 0.0000
# 6 0.0000 0.0000 0.0000 0.0000 0.0000 17.7102
#
#
#
# Elastic Compliance Matrix: (Units=1/GPa)
#
#
# Indices 1 2 3 4 5 6 
#
# 1 0.017182 -0.014927 -0.001278 0.000000 0.000000 0.000000
# 2 -0.014927 0.043507 -0.013160 0.000000 0.000000 0.000000
# 3 -0.001278 -0.013160 0.013236 0.000000 0.000000 0.000000
# 4 0.000000 0.000000 0.000000 0.033699 0.000000 0.000000
# 5 0.000000 0.000000 0.000000 0.000000 -0.321383 0.000000
# 6 0.000000 0.000000 0.000000 0.000000 0.000000 0.056465
#
#
# Mechanical properties :
#
#
# Convention : Reuss Voigt Hill
#
# Bulk Modulus (GPa) = 65.80884 84.28278 75.04581
# Shear Modulus (GPa) = -53.47563 17.52198 -17.97683
#
# Velocity S-wave (km/s) = -5.47939 3.13651 -3.17695
# Velocity P-wave (km/s) = 1.75598 7.77414 5.35508
#
# Compressibility (1/GPa) = 0.01519553
#
# Stress axis : x y z
#
# Youngs Moduli (GPa) = 58.20051 22.98487 75.55433
#
# Poissons Ratio (x) = 0.34310 0.09653
# Poissons Ratio (y) = 0.86877 0.99426
# Poissons Ratio (z) = 0.07436 0.30247
#
# Static dielectric constant tensor:
#      x y z
#    x 1.573240 0.000000 0.000000 
#    y 0.000000 1.595460 0.000000 
#    z 0.000000 0.000000 1.610770 
# 
# From -- ./inp_files/32034.got.cif
#   From: 2010.05.17/outbox.cif.g08.bks.cpg/sg62_17_cif.got.tgz:32034.got - 2010.06.03 15:25:27.
