data_PCOD9464013
_publ_section_title
;
Structure prediction by ZEFSAII (Michael W. Deem and Ramdas Pophale) SiO2 
 PCOD9464013
Probable space group: P N M A
;
_chemical_formula_sum "Si O2"
_cell_formula_units_Z 40
_cell_length_a 23.806860
_cell_length_b 9.929127
_cell_length_c 6.977303
_cell_angle_alpha 90.000000
_cell_angle_beta 90.000000
_cell_angle_gamma 90.000000
_cell_volume 1649.304208
_symmetry_space_group_name_H-M "P N M A"
_symmetry_group_IT_number 62
_symmetry_cell_setting 'orthorhombic'
loop_
_space_group_symop_operation_xyz
x,y,z
1/2-x,-y,1/2+z
1/2+x,1/2-y,1/2-z
-x,1/2+y,-z
-x,-y,-z
1/2+x,y,1/2-z
1/2-x,1/2+y,1/2+z
x,1/2-y,z
loop_
_atom_site_type_symbol
_atom_site_label
_atom_site_fract_x
_atom_site_fract_y
_atom_site_fract_z
Si Si1 0.100951 0.030601 0.193214
Si Si2 0.186858 0.750000 0.633562
Si Si3 0.813177 0.750000 0.833623
Si Si4 0.712981 0.250000 0.873473
Si Si5 0.156328 0.750000 0.087478
Si Si6 0.515746 0.587294 0.808649
Si Si7 0.129800 0.021104 0.619716
O O1 0.119906 0.879425 0.148678
O O2 0.106658 0.074866 0.418151
O O3 0.149070 0.124091 0.107301
O O4 0.035604 0.063986 0.162655
O O5 0.251702 0.750000 0.581390
O O6 0.159539 0.884192 0.557771
O O7 0.169772 0.750000 0.859601
O O8 0.796168 0.750000 0.606246
O O9 0.779388 0.250000 0.832775
O O10 0.677737 0.379835 0.805637
O O11 0.522189 0.750000 0.842433
O O12 0.576211 0.522373 0.753516
O O13 0.500000 0.500000 0.000000
#
# Coordination Sequence:
#
# PCOD9464013 Si02
#       7
#     8   4   4   4   4   8   8
#     4  10  20  36  58  85 110 144 186 238 279 330
#     4  11  21  36  53  79 113 155 184 225 274 342
#     4   9  18  34  57  79 111 145 186 235 284 322
#     4   9  20  36  55  85 111 145 186 239 276 334
#     4  11  23  36  53  81 119 151 190 221 278 334
#     4  10  20  33  59  91 113 136 184 241 287 330
#     4  10  20  36  61  82 111 141 189 233 286 326
#
# _framework density 24.252649999999999
#
# number of rings (size 3 to 8) (size 9 to 14) (size 15 to 20)
#    0.000    2.000    2.000    1.800    8.400    0.000 
#    0.000    4.000    0.000    0.000    0.000    0.000 
#    0.000    0.000    0.000    0.000    0.000    0.000 
#
# Total GULP energy -223235.844990 kJ/mol
# GULP energy per Si atom -5580.896125 kJ/mol
# Density = 2.419745 g / cm^3
# Si number density = 24.252650 Si / 1000 Ang^3
#
#
#
# Elastic Constant Matrix: (Units=GPa)
#
#
# Indices 1 2 3 4 5 6 
#
# 1 162.0964 29.2529 -18.0216 0.0000 0.0000 0.0000
# 2 29.2529 133.2889 -21.1508 0.0000 0.0000 0.0000
# 3 -18.0216 -21.1508 75.3077 0.0000 0.0000 0.0000
# 4 0.0000 0.0000 0.0000 7.8719 0.0000 0.0000
# 5 0.0000 0.0000 0.0000 0.0000 26.7956 0.0000
# 6 0.0000 0.0000 0.0000 0.0000 0.0000 88.7037
#
#
#
# Elastic Compliance Matrix: (Units=1/GPa)
#
#
# Indices 1 2 3 4 5 6 
#
# 1 0.006528 -0.001240 0.001214 0.000000 0.000000 0.000000
# 2 -0.001240 0.008088 0.001975 0.000000 0.000000 0.000000
# 3 0.001214 0.001975 0.014124 0.000000 0.000000 0.000000
# 4 0.000000 0.000000 0.000000 0.127034 0.000000 0.000000
# 5 0.000000 0.000000 0.000000 0.000000 0.037320 0.000000
# 6 0.000000 0.000000 0.000000 0.000000 0.000000 0.011273
#
#
# Mechanical properties :
#
#
# Convention : Reuss Voigt Hill
#
# Bulk Modulus (GPa) = 30.63982 38.98379 34.81181
# Shear Modulus (GPa) = 23.65763 50.04841 36.85302
#
# Velocity S-wave (km/s) = 3.12663 4.54764 3.90236
# Velocity P-wave (km/s) = 5.06907 6.60936 5.88979
#
# Compressibility (1/GPa) = 0.03263727
#
# Stress axis : x y z
#
# Youngs Moduli (GPa) = 153.18833 123.63950 70.80154
#
# Poissons Ratio (x) = 0.15332 -0.08594
# Poissons Ratio (y) = 0.18996 -0.13982
# Poissons Ratio (z) = -0.18595 -0.24417
#
# Static dielectric constant tensor:
#      x y z
#    x 1.958470 0.000000 0.000000 
#    y 0.000000 1.919960 0.000000 
#    z 0.000000 0.000000 2.035630 
# 
# From -- ./inp_files/9158.got.cif
#   From: 2010.05.17/outbox.cif.g08.bks.cpg/sg62_5_cif.got.tgz:9158.got - 2010.06.03 15:25:27.
