data_PCOD9464598
_publ_section_title
;
Structure prediction by ZEFSAII (Michael W. Deem and Ramdas Pophale) SiO2 
 PCOD9464598
Probable space group: P N M A
;
_chemical_formula_sum "Si O2"
_cell_formula_units_Z 64
_cell_length_a 22.499901
_cell_length_b 7.663003
_cell_length_c 18.017551
_cell_angle_alpha 90.000000
_cell_angle_beta 90.000000
_cell_angle_gamma 90.000000
_cell_volume 3106.528647
_symmetry_space_group_name_H-M "P N M A"
_symmetry_group_IT_number 62
_symmetry_cell_setting 'orthorhombic'
loop_
_space_group_symop_operation_xyz
x,y,z
1/2-x,-y,1/2+z
1/2+x,1/2-y,1/2-z
-x,1/2+y,-z
-x,-y,-z
1/2+x,y,1/2-z
1/2-x,1/2+y,1/2+z
x,1/2-y,z
loop_
_atom_site_type_symbol
_atom_site_label
_atom_site_fract_x
_atom_site_fract_y
_atom_site_fract_z
Si Si1 0.223530 0.454176 0.662473
Si Si2 0.617707 0.961668 0.729448
Si Si3 0.893947 0.535638 0.625632
Si Si4 0.927765 0.460590 0.074236
Si Si5 0.969970 0.459783 0.357080
Si Si6 0.852370 0.545418 0.783479
Si Si7 0.637738 0.458772 0.964270
Si Si8 0.563134 0.041703 0.411278
O O1 0.234123 0.250000 0.649963
O O2 0.176471 0.475543 0.729145
O O3 0.286197 0.532461 0.685136
O O4 0.189570 0.528222 0.589894
O O5 0.618898 0.750000 0.730357
O O6 0.609947 0.020021 0.644894
O O7 0.561696 0.017610 0.780565
O O8 0.893337 0.750000 0.622781
O O9 0.860701 0.476215 0.700208
O O10 0.865832 0.474834 0.548125
O O11 0.962893 0.479423 0.631465
O O12 0.928956 0.250000 0.076171
O O13 0.995595 0.526089 0.084982
O O14 0.908018 0.511020 0.991856
O O15 0.972392 0.250000 0.354322
O O16 0.924947 0.509200 0.422860
O O17 0.867205 0.750000 0.777301
O O18 0.898318 0.469692 0.843612
O O19 0.645651 0.250000 0.967096
O O20 0.558428 0.250000 0.401755
#
# Coordination Sequence:
#
# PCOD9464598 Si02
#       8
#     8   8   8   8   8   8   8   8
#     4  10  21  36  51  69 100 135 169 210 253 294
#     4   9  17  31  52  76 100 131 170 206 244 296
#     4   9  17  31  53  78 100 127 165 204 244 296
#     4   9  17  31  52  78 104 131 167 207 252 309
#     4   9  16  28  51  80 106 129 158 200 245 293
#     4  10  20  36  55  72  97 135 176 211 248 296
#     4   9  18  33  51  73 102 134 163 197 247 301
#     4   9  18  32  51  76 105 133 163 209 261 303
#
# _framework density 20.601773000000001
#
# number of rings (size 3 to 8) (size 9 to 14) (size 15 to 20)
#    0.000    2.750    0.000    1.500    0.000    4.500 
#    2.250    1.250    0.000    3.000    0.000    0.000 
#    0.000    0.000    0.000    0.000    0.000    0.000 
#
# Total GULP energy -357056.338593 kJ/mol
# GULP energy per Si atom -5579.005291 kJ/mol
# Density = 2.055488 g / cm^3
# Si number density = 20.601773 Si / 1000 Ang^3
#
#
#
# Elastic Constant Matrix: (Units=GPa)
#
#
# Indices 1 2 3 4 5 6 
#
# 1 65.6175 -7.4323 52.2113 0.0000 0.0000 0.0000
# 2 -7.4323 34.0454 -1.2051 0.0000 0.0000 0.0000
# 3 52.2113 -1.2051 124.6285 0.0000 0.0000 0.0000
# 4 0.0000 0.0000 0.0000 15.6548 0.0000 0.0000
# 5 0.0000 0.0000 0.0000 0.0000 5.2425 0.0000
# 6 0.0000 0.0000 0.0000 0.0000 0.0000 7.5264
#
#
#
# Elastic Compliance Matrix: (Units=1/GPa)
#
#
# Indices 1 2 3 4 5 6 
#
# 1 0.023622 0.004808 -0.009849 0.000000 0.000000 0.000000
# 2 0.004808 0.030361 -0.001721 0.000000 0.000000 0.000000
# 3 -0.009849 -0.001721 0.012133 0.000000 0.000000 0.000000
# 4 0.000000 0.000000 0.000000 0.063878 0.000000 0.000000
# 5 0.000000 0.000000 0.000000 0.000000 0.190748 0.000000
# 6 0.000000 0.000000 0.000000 0.000000 0.000000 0.132866
#
#
# Mechanical properties :
#
#
# Convention : Reuss Voigt Hill
#
# Bulk Modulus (GPa) = 19.01424 34.60437 26.80930
# Shear Modulus (GPa) = 10.31644 17.73257 14.02450
#
# Velocity S-wave (km/s) = 2.24018 2.93700 2.61193
# Velocity P-wave (km/s) = 3.99258 5.32302 4.70506
#
# Compressibility (1/GPa) = 0.05259217
#
# Stress axis : x y z
#
# Youngs Moduli (GPa) = 42.33428 32.93672 82.41661
#
# Poissons Ratio (x) = -0.15836 0.81175
# Poissons Ratio (y) = -0.20355 0.14181
# Poissons Ratio (z) = 0.41697 0.05667
#
# Static dielectric constant tensor:
#      x y z
#    x 1.698960 0.000000 0.000000 
#    y 0.000000 1.758550 0.000000 
#    z 0.000000 0.000000 1.754110 
# 
# From -- ./inp_files/24794.got.cif
#   From: 2010.05.17/outbox.cif.g08.bks.cpg/sg62_13_cif.got.tgz:24794.got - 2010.06.03 15:25:27.
