data_PCOD9464836
_publ_section_title
;
Structure prediction by ZEFSAII (Michael W. Deem and Ramdas Pophale) SiO2 
 PCOD9464836
Probable space group: P N M A
;
_chemical_formula_sum "Si O2"
_cell_formula_units_Z 32
_cell_length_a 9.407966
_cell_length_b 14.607029
_cell_length_c 11.660939
_cell_angle_alpha 90.000000
_cell_angle_beta 90.000000
_cell_angle_gamma 90.000000
_cell_volume 1602.474599
_symmetry_space_group_name_H-M "P N M A"
_symmetry_group_IT_number 62
_symmetry_cell_setting 'orthorhombic'
loop_
_space_group_symop_operation_xyz
x,y,z
1/2-x,-y,1/2+z
1/2+x,1/2-y,1/2-z
-x,1/2+y,-z
-x,-y,-z
1/2+x,y,1/2-z
1/2-x,1/2+y,1/2+z
x,1/2-y,z
loop_
_atom_site_type_symbol
_atom_site_label
_atom_site_fract_x
_atom_site_fract_y
_atom_site_fract_z
Si Si1 0.939458 0.951247 0.611435
Si Si2 0.224655 0.250000 0.124470
Si Si3 0.443431 0.750000 0.861638
Si Si4 0.477379 0.645622 0.482946
Si Si5 0.621807 0.985269 0.665927
O O1 0.907654 0.845574 0.580125
O O2 0.791890 0.991190 0.660729
O O3 0.055980 0.956594 0.712799
O O4 0.000000 0.000000 0.500000
O O5 0.133282 0.250000 0.239349
O O6 0.387459 0.250000 0.152818
O O7 0.172422 0.336393 0.049370
O O8 0.527618 0.750000 0.459423
O O9 0.447693 0.580803 0.375637
O O10 0.575105 0.590674 0.571857
#
# Coordination Sequence:
#
# PCOD9464836 Si02
#       5
#     8   4   4   8   8
#     4  12  27  42  67  99 133 171 220 272 322 392
#     4  10  20  36  63  92 122 171 210 266 318 380
#     4  12  22  38  61  92 132 163 222 268 318 380
#     4   9  21  41  70  88 130 173 215 264 328 377
#     4  11  24  43  67  98 130 171 222 268 325 389
#
# _framework density 19.969114000000001
#
# number of rings (size 3 to 8) (size 9 to 14) (size 15 to 20)
#    0.750    0.500    2.500    3.000    8.750    0.000 
#    2.250    0.000    0.000    0.000    0.000    0.000 
#    0.000    0.000    0.000    0.000    0.000    0.000 
#
# Total GULP energy -178625.342602 kJ/mol
# GULP energy per Si atom -5582.041956 kJ/mol
# Density = 1.992366 g / cm^3
# Si number density = 19.969114 Si / 1000 Ang^3
#
#
#
# Elastic Constant Matrix: (Units=GPa)
#
#
# Indices 1 2 3 4 5 6 
#
# 1 92.6683 -9.6820 22.1852 0.0000 0.0000 0.0000
# 2 -9.6820 139.6111 44.8896 0.0000 0.0000 0.0000
# 3 22.1852 44.8896 66.6937 0.0000 0.0000 0.0000
# 4 0.0000 0.0000 0.0000 28.3283 0.0000 0.0000
# 5 0.0000 0.0000 0.0000 0.0000 13.2228 0.0000
# 6 0.0000 0.0000 0.0000 0.0000 0.0000 19.9345
#
#
#
# Elastic Compliance Matrix: (Units=1/GPa)
#
#
# Indices 1 2 3 4 5 6 
#
# 1 0.012539 0.002821 -0.006070 0.000000 0.000000 0.000000
# 2 0.002821 0.009776 -0.007518 0.000000 0.000000 0.000000
# 3 -0.006070 -0.007518 0.022073 0.000000 0.000000 0.000000
# 4 0.000000 0.000000 0.000000 0.035300 0.000000 0.000000
# 5 0.000000 0.000000 0.000000 0.000000 0.075627 0.000000
# 6 0.000000 0.000000 0.000000 0.000000 0.000000 0.050164
#
#
# Mechanical properties :
#
#
# Convention : Reuss Voigt Hill
#
# Bulk Modulus (GPa) = 43.75532 45.97319 44.86426
# Shear Modulus (GPa) = 21.30998 28.40248 24.85623
#
# Velocity S-wave (km/s) = 3.27027 3.77546 3.53191
# Velocity P-wave (km/s) = 6.01819 6.48672 6.25684
#
# Compressibility (1/GPa) = 0.02285436
#
# Stress axis : x y z
#
# Youngs Moduli (GPa) = 79.75042 102.29368 45.30348
#
# Poissons Ratio (x) = -0.28860 0.27499
# Poissons Ratio (y) = -0.22500 0.34060
# Poissons Ratio (z) = 0.48408 0.76907
#
# Static dielectric constant tensor:
#      x y z
#    x 1.303100 0.000000 0.000000 
#    y 0.000000 1.753210 0.000000 
#    z 0.000000 0.000000 1.660380 
# 
# From -- ./inp_files/10964.got.cif
#   From: 2010.05.17/outbox.cif.g08.bks.cpg/sg62_6_cif.got.tgz:10964.got - 2010.06.03 15:25:27.
