data_PCOD9464073
_publ_section_title
;
Structure prediction by ZEFSAII (Michael W. Deem and Ramdas Pophale) SiO2 
 PCOD9464073
Probable space group: P N M A
;
_chemical_formula_sum "Si O2"
_cell_formula_units_Z 64
_cell_length_a 21.437545
_cell_length_b 18.463844
_cell_length_c 8.969006
_cell_angle_alpha 90.000000
_cell_angle_beta 90.000000
_cell_angle_gamma 90.000000
_cell_volume 3550.107350
_symmetry_space_group_name_H-M "P N M A"
_symmetry_group_IT_number 62
_symmetry_cell_setting 'orthorhombic'
loop_
_space_group_symop_operation_xyz
x,y,z
1/2-x,-y,1/2+z
1/2+x,1/2-y,1/2-z
-x,1/2+y,-z
-x,-y,-z
1/2+x,y,1/2-z
1/2-x,1/2+y,1/2+z
x,1/2-y,z
loop_
_atom_site_type_symbol
_atom_site_label
_atom_site_fract_x
_atom_site_fract_y
_atom_site_fract_z
Si Si1 0.877933 0.666463 0.931655
Si Si2 0.984613 0.338148 0.077661
Si Si3 0.643047 0.837207 0.076451
Si Si4 0.744239 0.421316 0.428765
Si Si5 0.122067 0.166463 0.431655
Si Si6 0.856953 0.162793 0.923549
Si Si7 0.744239 0.421316 0.071235
Si Si8 0.484613 0.161852 0.077661
O O1 0.868982 0.750000 0.980002
O O2 0.946713 0.639664 0.978259
O O3 0.820076 0.617464 0.977686
O O4 0.879526 0.667521 0.750000
O O5 0.986401 0.250000 0.077583
O O6 0.976444 0.360755 0.250000
O O7 0.925139 0.360462 0.981884
O O8 0.646630 0.750000 0.061648
O O9 0.650391 0.855894 0.250000
O O10 0.697502 0.873446 0.981831
O O11 0.574861 0.860462 0.018116
O O12 0.743720 0.426242 0.250000
O O13 0.750000 0.500000 0.500000
O O14 0.131018 0.250000 0.480002
O O15 0.179924 0.117464 0.477686
O O16 0.053287 0.139664 0.478259
O O17 0.853370 0.250000 0.938352
O O18 0.802498 0.126554 0.018169
O O19 0.486401 0.250000 0.077583
#
# Coordination Sequence:
#
# PCOD9464073 Si02
#       8
#     8   8   8   8   8   8   8   8
#     4   8  15  30  54  80 101 126 166 213 257 304
#     4   8  14  28  52  79 102 125 160 207 256 304
#     4  10  20  34  53  79 108 135 167 208 253 304
#     4  11  22  36  53  74 104 140 177 215 258 306
#     4   8  15  30  54  80 101 126 166 213 257 304
#     4  10  20  34  53  79 108 135 167 208 253 304
#     4  11  22  36  53  74 104 140 177 215 258 306
#     4   8  14  28  52  79 102 125 160 207 256 304
#
# _framework density 18.027622999999998
#
# number of rings (size 3 to 8) (size 9 to 14) (size 15 to 20)
#    0.000    2.750    0.000    3.750    0.000    2.500 
#    0.000    3.750    0.000    6.000    0.000    0.000 
#    0.000    0.000    0.000    0.000    0.000    0.000 
#
# Total GULP energy -356840.273548 kJ/mol
# GULP energy per Si atom -5575.629274 kJ/mol
# Density = 1.798659 g / cm^3
# Si number density = 18.027623 Si / 1000 Ang^3
#
#
#
# Elastic Constant Matrix: (Units=GPa)
#
#
# Indices 1 2 3 4 5 6 
#
# 1 145.8773 27.8949 41.5100 0.0000 0.0000 0.0000
# 2 27.8949 22.1915 23.6046 0.0000 0.0000 0.0000
# 3 41.5100 23.6046 56.3963 0.0000 0.0000 0.0000
# 4 0.0000 0.0000 0.0000 24.1803 0.0000 0.0000
# 5 0.0000 0.0000 0.0000 0.0000 12.4939 0.0000
# 6 0.0000 0.0000 0.0000 0.0000 0.0000 -7.5934
#
#
#
# Elastic Compliance Matrix: (Units=1/GPa)
#
#
# Indices 1 2 3 4 5 6 
#
# 1 0.009404 -0.008036 -0.003558 0.000000 0.000000 0.000000
# 2 -0.008036 0.088090 -0.030955 0.000000 0.000000 0.000000
# 3 -0.003558 -0.030955 0.033307 0.000000 0.000000 0.000000
# 4 0.000000 0.000000 0.000000 0.041356 0.000000 0.000000
# 5 0.000000 0.000000 0.000000 0.000000 0.080039 0.000000
# 6 0.000000 0.000000 0.000000 0.000000 0.000000 -0.131693
#
#
# Mechanical properties :
#
#
# Convention : Reuss Voigt Hill
#
# Bulk Modulus (GPa) = 21.88082 45.60935 33.74508
# Shear Modulus (GPa) = 22.64120 14.57988 18.61054
#
# Velocity S-wave (km/s) = 3.54774 2.84694 3.21648
# Velocity P-wave (km/s) = 5.38012 6.01343 5.70557
#
# Compressibility (1/GPa) = 0.04570213
#
# Stress axis : x y z
#
# Youngs Moduli (GPa) = 106.33367 11.35199 30.02382
#
# Poissons Ratio (x) = 0.09123 0.10684
# Poissons Ratio (y) = 0.85454 0.92938
# Poissons Ratio (z) = 0.37837 0.35140
#
# Static dielectric constant tensor:
#      x y z
#    x 1.629150 0.000000 0.000000 
#    y 0.000000 1.589920 0.000000 
#    z 0.000000 0.000000 1.603260 
# 
# From -- ./inp_files/8861.got.cif
#   From: 2010.05.17/outbox.cif.g08.bks.cpg/sg62_5_cif.got.tgz:8861.got - 2010.06.03 15:25:27.
