data_PCOD9464050
_publ_section_title
;
Structure prediction by ZEFSAII (Michael W. Deem and Ramdas Pophale) SiO2 
 PCOD9464050
Probable space group: P N M A
;
_chemical_formula_sum "Si O2"
_cell_formula_units_Z 64
_cell_length_a 5.294960
_cell_length_b 22.749366
_cell_length_c 22.181930
_cell_angle_alpha 90.000000
_cell_angle_beta 90.000000
_cell_angle_gamma 90.000000
_cell_volume 2671.968365
_symmetry_space_group_name_H-M "P N M A"
_symmetry_group_IT_number 62
_symmetry_cell_setting 'orthorhombic'
loop_
_space_group_symop_operation_xyz
x,y,z
1/2-x,-y,1/2+z
1/2+x,1/2-y,1/2-z
-x,1/2+y,-z
-x,-y,-z
1/2+x,y,1/2-z
1/2-x,1/2+y,1/2+z
x,1/2-y,z
loop_
_atom_site_type_symbol
_atom_site_label
_atom_site_fract_x
_atom_site_fract_y
_atom_site_fract_z
Si Si1 0.219305 0.686156 0.209390
Si Si2 0.110286 0.011106 0.313841
Si Si3 0.223931 0.981311 0.080069
Si Si4 0.969993 0.409568 0.102080
Si Si5 0.281320 0.681531 0.433739
Si Si6 0.895244 0.593539 0.156057
Si Si7 0.912569 0.879949 0.773542
Si Si8 0.703606 0.367811 0.991103
O O1 0.980634 0.685116 0.255297
O O2 0.207099 0.750000 0.177111
O O3 0.150676 0.627576 0.173586
O O4 0.884910 0.991034 0.358552
O O5 0.258968 0.950572 0.297828
O O6 0.045150 0.054760 0.258524
O O7 0.280263 0.052136 0.356946
O O8 0.968718 0.948832 0.101206
O O9 0.335484 0.935303 0.032782
O O10 0.139483 0.046522 0.061320
O O11 0.137653 0.381909 0.155211
O O12 0.802970 0.370082 0.059127
O O13 0.273247 0.750000 0.421500
O O14 0.226339 0.644732 0.372667
O O15 0.561088 0.662804 0.456018
O O16 0.058951 0.664654 0.479639
O O17 0.180387 0.851095 0.760408
#
# Coordination Sequence:
#
# PCOD9464050 Si02
#       8
#     8   8   8   8   8   8   8   8
#     4  10  23  39  54  76 104 143 200 259 306 350
#     4  10  20  35  55  83 122 155 198 233 286 351
#     4  10  20  37  53  87 119 159 196 239 286 359
#     4  10  22  36  56  86 124 164 202 240 295 359
#     4  11  24  43  64  88 117 152 205 266 312 354
#     4  10  22  37  57  83 112 159 201 245 306 355
#     4  10  20  34  52  77 118 159 193 237 277 336
#     4  11  24  39  63  89 119 159 205 244 309 368
#
# _framework density 23.952382
#
# number of rings (size 3 to 8) (size 9 to 14) (size 15 to 20)
#    0.000    1.750    2.500    1.125    3.500    3.500 
#    0.000    2.500    0.000    0.000    0.000    0.000 
#    0.000   40.000    0.000    0.000    0.000    0.000 
#
# Total GULP energy -357304.591569 kJ/mol
# GULP energy per Si atom -5582.884243 kJ/mol
# Density = 2.389787 g / cm^3
# Si number density = 23.952382 Si / 1000 Ang^3
#
#
#
# Elastic Constant Matrix: (Units=GPa)
#
#
# Indices 1 2 3 4 5 6 
#
# 1 86.9070 13.3203 6.3155 0.0000 0.0000 0.0000
# 2 13.3203 8.1160 0.0855 0.0000 0.0000 0.0000
# 3 6.3155 0.0855 65.3175 0.0000 0.0000 0.0000
# 4 0.0000 0.0000 0.0000 14.3971 0.0000 0.0000
# 5 0.0000 0.0000 0.0000 0.0000 36.8722 0.0000
# 6 0.0000 0.0000 0.0000 0.0000 0.0000 17.6122
#
#
#
# Elastic Compliance Matrix: (Units=1/GPa)
#
#
# Indices 1 2 3 4 5 6 
#
# 1 0.015513 -0.025445 -0.001467 0.000000 0.000000 0.000000
# 2 -0.025445 0.164950 0.002244 0.000000 0.000000 0.000000
# 3 -0.001467 0.002244 0.015449 0.000000 0.000000 0.000000
# 4 0.000000 0.000000 0.000000 0.069458 0.000000 0.000000
# 5 0.000000 0.000000 0.000000 0.000000 0.027121 0.000000
# 6 0.000000 0.000000 0.000000 0.000000 0.000000 0.056779
#
#
# Mechanical properties :
#
#
# Convention : Reuss Voigt Hill
#
# Bulk Modulus (GPa) = 6.82234 22.19813 14.51023
# Shear Modulus (GPa) = 11.17407 23.15090 17.16249
#
# Velocity S-wave (km/s) = 2.16223 3.11229 2.67970
# Velocity P-wave (km/s) = 3.01465 4.71199 3.95544
#
# Compressibility (1/GPa) = 0.14657729
#
# Stress axis : x y z
#
# Youngs Moduli (GPa) = 64.46145 6.06242 64.73035
#
# Poissons Ratio (x) = 0.15426 0.09494
# Poissons Ratio (y) = 1.64024 -0.14528
# Poissons Ratio (z) = 0.09454 -0.01361
#
# Static dielectric constant tensor:
#      x y z
#    x 2.015130 0.000000 0.000000 
#    y 0.000000 1.984120 0.000000 
#    z 0.000000 0.000000 1.995250 
# 
# From -- ./inp_files/28448.got.cif
#   From: 2010.05.17/outbox.cif.g08.bks.cpg/sg62_15_cif.got.tgz:28448.got - 2010.06.03 15:25:27.
