data_PCOD9464165
_publ_section_title
;
Structure prediction by ZEFSAII (Michael W. Deem and Ramdas Pophale) SiO2 
 PCOD9464165
Probable space group: P N M A
;
_chemical_formula_sum "Si O2"
_cell_formula_units_Z 64
_cell_length_a 20.509565
_cell_length_b 7.853639
_cell_length_c 19.132111
_cell_angle_alpha 90.000000
_cell_angle_beta 90.000000
_cell_angle_gamma 90.000000
_cell_volume 3081.699414
_symmetry_space_group_name_H-M "P N M A"
_symmetry_group_IT_number 62
_symmetry_cell_setting 'orthorhombic'
loop_
_space_group_symop_operation_xyz
x,y,z
1/2-x,-y,1/2+z
1/2+x,1/2-y,1/2-z
-x,1/2+y,-z
-x,-y,-z
1/2+x,y,1/2-z
1/2-x,1/2+y,1/2+z
x,1/2-y,z
loop_
_atom_site_type_symbol
_atom_site_label
_atom_site_fract_x
_atom_site_fract_y
_atom_site_fract_z
Si Si1 0.350139 0.047310 0.280002
Si Si2 0.947648 0.044403 0.441374
Si Si3 0.100884 0.044123 0.190822
Si Si4 0.431864 0.954750 0.535392
Si Si5 0.746322 0.943977 0.334398
Si Si6 0.485129 0.457976 0.213671
Si Si7 0.304518 0.053792 0.024000
Si Si8 0.813715 0.956520 0.062699
O O1 0.347129 0.250000 0.269387
O O2 0.423807 0.992559 0.262040
O O3 0.300641 0.967217 0.224679
O O4 0.329771 0.006458 0.358596
O O5 0.942756 0.250000 0.435952
O O6 0.970510 0.983177 0.364999
O O7 0.875812 0.977279 0.462054
O O8 0.000000 0.000000 0.500000
O O9 0.099284 0.250000 0.191111
O O10 0.074702 0.984619 0.115111
O O11 0.052575 0.983701 0.251740
O O12 0.175819 0.990915 0.195671
O O13 0.427594 0.750000 0.537584
O O14 0.371451 0.017085 0.488570
O O15 0.500000 0.000000 0.500000
O O16 0.745057 0.750000 0.358459
O O17 0.765755 0.051053 0.402557
O O18 0.486959 0.250000 0.212430
O O19 0.315834 0.250000 0.003482
O O20 0.255702 0.978872 0.966339
O O21 0.812555 0.750000 0.058941
#
# Coordination Sequence:
#
# PCOD9464165 Si02
#       8
#     8   8   8   8   8   8   8   8
#     4  11  22  40  64  88 118 160 203 248 306 370
#     4  10  21  39  63  90 118 155 201 250 302 360
#     4  10  20  38  61  86 117 160 201 242 300 361
#     4  10  20  34  55  82 120 160 196 241 296 356
#     4  12  24  38  60  90 121 157 205 256 300 358
#     4   9  19  37  63  88 116 156 207 250 291 362
#     4  10  20  41  66  84 119 166 204 248 307 366
#     4  10  21  37  58  88 120 154 200 253 303 356
#
# _framework density 20.767762999999999
#
# number of rings (size 3 to 8) (size 9 to 14) (size 15 to 20)
#    0.000    1.750    2.500    2.250    0.000    4.000 
#    0.000    4.375    0.000    0.000    0.000    0.000 
#    0.000    0.000    0.000    0.000    0.000    0.000 
#
# Total GULP energy -357591.612902 kJ/mol
# GULP energy per Si atom -5587.368952 kJ/mol
# Density = 2.072050 g / cm^3
# Si number density = 20.767763 Si / 1000 Ang^3
#
#
#
# Elastic Constant Matrix: (Units=GPa)
#
#
# Indices 1 2 3 4 5 6 
#
# 1 137.7745 -3.3618 32.9104 0.0000 0.0000 0.0000
# 2 -3.3618 27.4976 -7.4087 0.0000 0.0000 0.0000
# 3 32.9104 -7.4087 88.4317 0.0000 0.0000 0.0000
# 4 0.0000 0.0000 0.0000 19.4285 0.0000 0.0000
# 5 0.0000 0.0000 0.0000 0.0000 41.4683 0.0000
# 6 0.0000 0.0000 0.0000 0.0000 0.0000 16.1324
#
#
#
# Elastic Compliance Matrix: (Units=1/GPa)
#
#
# Indices 1 2 3 4 5 6 
#
# 1 0.007967 0.000179 -0.002950 0.000000 0.000000 0.000000
# 2 0.000179 0.037211 0.003051 0.000000 0.000000 0.000000
# 3 -0.002950 0.003051 0.012662 0.000000 0.000000 0.000000
# 4 0.000000 0.000000 0.000000 0.051471 0.000000 0.000000
# 5 0.000000 0.000000 0.000000 0.000000 0.024115 0.000000
# 6 0.000000 0.000000 0.000000 0.000000 0.000000 0.061987
#
#
# Mechanical properties :
#
#
# Convention : Reuss Voigt Hill
#
# Bulk Modulus (GPa) = 17.12340 33.10927 25.11634
# Shear Modulus (GPa) = 23.32970 30.84343 27.08657
#
# Velocity S-wave (km/s) = 3.35529 3.85796 3.61537
# Velocity P-wave (km/s) = 4.82429 5.98518 5.43581
#
# Compressibility (1/GPa) = 0.05839960
#
# Stress axis : x y z
#
# Youngs Moduli (GPa) = 125.51316 26.87394 78.97869
#
# Poissons Ratio (x) = -0.00482 0.23299
# Poissons Ratio (y) = -0.02249 -0.24095
# Poissons Ratio (z) = 0.37027 -0.08199
#
# Static dielectric constant tensor:
#      x y z
#    x 1.731370 0.000000 0.000000 
#    y 0.000000 1.773580 0.000000 
#    z 0.000000 0.000000 1.704060 
# 
# From -- ./inp_files/24751.got.cif
#   From: 2010.05.17/outbox.cif.g08.bks.cpg/sg62_13_cif.got.tgz:24751.got - 2010.06.03 15:25:27.
