data_PCOD9464305
_publ_section_title
;
Structure prediction by ZEFSAII (Michael W. Deem and Ramdas Pophale) SiO2 
 PCOD9464305
Probable space group: P N M A
;
_chemical_formula_sum "Si O2"
_cell_formula_units_Z 64
_cell_length_a 17.170834
_cell_length_b 7.630583
_cell_length_c 21.217527
_cell_angle_alpha 90.000000
_cell_angle_beta 90.000000
_cell_angle_gamma 90.000000
_cell_volume 2779.994098
_symmetry_space_group_name_H-M "P N M A"
_symmetry_group_IT_number 62
_symmetry_cell_setting 'orthorhombic'
loop_
_space_group_symop_operation_xyz
x,y,z
1/2-x,-y,1/2+z
1/2+x,1/2-y,1/2-z
-x,1/2+y,-z
-x,-y,-z
1/2+x,y,1/2-z
1/2-x,1/2+y,1/2+z
x,1/2-y,z
loop_
_atom_site_type_symbol
_atom_site_label
_atom_site_fract_x
_atom_site_fract_y
_atom_site_fract_z
Si Si1 0.110230 0.038191 0.696350
Si Si2 0.348778 0.962162 0.786104
Si Si3 0.571599 0.043269 0.662644
Si Si4 0.604541 0.038618 0.352200
Si Si5 0.024740 0.954857 0.391195
Si Si6 0.354593 0.047777 0.987579
Si Si7 0.731854 0.545775 0.614717
Si Si8 0.763833 0.459211 0.395799
O O1 0.103969 0.250000 0.697117
O O2 0.084755 0.972976 0.765636
O O3 0.051782 0.968382 0.641720
O O4 0.195743 0.989098 0.671825
O O5 0.352818 0.750000 0.784380
O O6 0.370937 0.025970 0.717327
O O7 0.266432 0.011778 0.817275
O O8 0.411965 0.031279 0.835422
O O9 0.582166 0.250000 0.666715
O O10 0.484906 0.008918 0.638002
O O11 0.639912 0.976162 0.617571
O O12 0.607640 0.250000 0.352185
O O13 0.674895 0.976074 0.396748
O O14 0.009587 0.750000 0.404279
O O15 0.070500 0.031661 0.451618
O O16 0.375320 0.250000 0.000845
O O17 0.282157 0.047475 0.938716
O O18 0.319888 0.963712 0.050480
O O19 0.750538 0.750000 0.606751
O O20 0.760826 0.250000 0.406122
#
# Coordination Sequence:
#
# PCOD9464305 Si02
#       8
#     8   8   8   8   8   8   8   8
#     4  10  21  35  53  82 116 145 178 222 274 330
#     4   9  17  30  51  78 105 136 174 217 270 325
#     4  11  22  36  55  83 113 142 179 223 276 334
#     4  10  20  35  54  77 108 141 177 225 276 325
#     4   9  17  32  53  78 110 145 178 219 267 321
#     4   9  19  37  58  79 109 149 191 230 270 320
#     4  10  20  35  57  83 109 141 182 228 276 326
#     4  10  22  38  56  80 110 148 189 229 274 325
#
# _framework density 23.021633000000001
#
# number of rings (size 3 to 8) (size 9 to 14) (size 15 to 20)
#    0.000    2.250    1.250    1.500    0.000    4.500 
#    0.000    0.625    0.000    0.000    0.000    0.000 
#    0.000    0.000    0.000    0.000    0.000    0.000 
#
# Total GULP energy -357281.730758 kJ/mol
# GULP energy per Si atom -5582.527043 kJ/mol
# Density = 2.296923 g / cm^3
# Si number density = 23.021633 Si / 1000 Ang^3
#
#
#
# Elastic Constant Matrix: (Units=GPa)
#
#
# Indices 1 2 3 4 5 6 
#
# 1 88.9677 -14.7283 -3.7455 0.0000 0.0000 0.0000
# 2 -14.7283 50.8776 -4.8946 0.0000 0.0000 0.0000
# 3 -3.7455 -4.8946 42.6361 0.0000 0.0000 0.0000
# 4 0.0000 0.0000 0.0000 8.3328 0.0000 0.0000
# 5 0.0000 0.0000 0.0000 0.0000 30.2260 0.0000
# 6 0.0000 0.0000 0.0000 0.0000 0.0000 64.0437
#
#
#
# Elastic Compliance Matrix: (Units=1/GPa)
#
#
# Indices 1 2 3 4 5 6 
#
# 1 0.011895 0.003583 0.001456 0.000000 0.000000 0.000000
# 2 0.003583 0.020954 0.002720 0.000000 0.000000 0.000000
# 3 0.001456 0.002720 0.023895 0.000000 0.000000 0.000000
# 4 0.000000 0.000000 0.000000 0.120008 0.000000 0.000000
# 5 0.000000 0.000000 0.000000 0.000000 0.033084 0.000000
# 6 0.000000 0.000000 0.000000 0.000000 0.000000 0.015614
#
#
# Mechanical properties :
#
#
# Convention : Reuss Voigt Hill
#
# Bulk Modulus (GPa) = 13.83830 15.08272 14.46051
# Shear Modulus (GPa) = 21.36597 34.24381 27.80489
#
# Velocity S-wave (km/s) = 3.04975 3.86095 3.47907
# Velocity P-wave (km/s) = 4.29248 5.14214 4.73640
#
# Compressibility (1/GPa) = 0.07226321
#
# Stress axis : x y z
#
# Youngs Moduli (GPa) = 84.07200 47.72343 41.85055
#
# Poissons Ratio (x) = -0.17101 -0.06095
# Poissons Ratio (y) = -0.30126 -0.11385
# Poissons Ratio (z) = -0.12243 -0.12982
#
# Static dielectric constant tensor:
#      x y z
#    x 1.888930 0.000000 0.000000 
#    y 0.000000 1.833100 0.000000 
#    z 0.000000 0.000000 1.884570 
# 
# From -- ./inp_files/27730.got.cif
#   From: 2010.05.17/outbox.cif.g08.bks.cpg/sg62_14_cif.got.tgz:27730.got - 2010.06.03 15:25:27.
