data_PCOD9464462
_publ_section_title
;
Structure prediction by ZEFSAII (Michael W. Deem and Ramdas Pophale) SiO2 
 PCOD9464462
Probable space group: P N M A
;
_chemical_formula_sum "Si O2"
_cell_formula_units_Z 64
_cell_length_a 27.411052
_cell_length_b 10.313273
_cell_length_c 11.605553
_cell_angle_alpha 90.000000
_cell_angle_beta 90.000000
_cell_angle_gamma 90.000000
_cell_volume 3280.862705
_symmetry_space_group_name_H-M "P N M A"
_symmetry_group_IT_number 62
_symmetry_cell_setting 'orthorhombic'
loop_
_space_group_symop_operation_xyz
x,y,z
1/2-x,-y,1/2+z
1/2+x,1/2-y,1/2-z
-x,1/2+y,-z
-x,-y,-z
1/2+x,y,1/2-z
1/2-x,1/2+y,1/2+z
x,1/2-y,z
loop_
_atom_site_type_symbol
_atom_site_label
_atom_site_fract_x
_atom_site_fract_y
_atom_site_fract_z
Si Si1 0.014795 0.899792 0.155433
Si Si2 0.235289 0.599502 0.954463
Si Si3 0.082758 0.510620 0.960537
Si Si4 0.670955 0.097990 0.403237
Si Si5 0.653341 0.893841 0.733357
Si Si6 0.996296 0.600472 0.397187
Si Si7 0.882957 0.899160 0.409079
Si Si8 0.342912 0.595466 0.858049
O O1 0.006107 0.750000 0.176281
O O2 0.965250 0.951937 0.098556
O O3 0.022985 0.953813 0.283303
O O4 0.059828 0.915950 0.069645
O O5 0.231714 0.750000 0.995705
O O6 0.211888 0.496446 0.042395
O O7 0.203121 0.592504 0.838031
O O8 0.290479 0.572056 0.917653
O O9 0.123324 0.415112 0.014650
O O10 0.111370 0.591858 0.864322
O O11 0.685960 0.250000 0.399041
O O12 0.657630 0.049832 0.273963
O O13 0.650770 0.750000 0.784990
O O14 0.646390 0.005440 0.826582
O O15 0.010796 0.750000 0.426475
O O16 0.938652 0.603430 0.368176
O O17 0.000000 0.500000 0.500000
O O18 0.864538 0.750000 0.403810
O O19 0.880340 0.946051 0.542082
O O20 0.349997 0.750000 0.846221
#
# Coordination Sequence:
#
# PCOD9464462 Si02
#       8
#     8   8   8   8   8   8   8   8
#     4  10  20  36  56  81 114 147 186 235 283 332
#     4   9  20  38  58  82 116 150 180 228 285 334
#     4  10  20  35  57  83 113 147 188 229 287 332
#     4  10  21  37  61  86 112 146 191 236 273 332
#     4  10  20  35  57  83 113 146 184 229 281 337
#     4  10  22  39  58  82 113 148 188 234 280 332
#     4  10  21  38  60  81 111 150 188 229 278 336
#     4   9  20  38  58  83 115 150 185 227 283 332
#
# _framework density 19.507064
#
# number of rings (size 3 to 8) (size 9 to 14) (size 15 to 20)
#    0.000    2.250    1.250    0.750    3.500    3.000 
#    0.000    1.875    0.000    0.000    0.000    0.000 
#    0.000    0.000    0.000    0.000    0.000    0.000 
#
# Total GULP energy -356649.742174 kJ/mol
# GULP energy per Si atom -5572.652221 kJ/mol
# Density = 1.946267 g / cm^3
# Si number density = 19.507064 Si / 1000 Ang^3
#
#
#
# Elastic Constant Matrix: (Units=GPa)
#
#
# Indices 1 2 3 4 5 6 
#
# 1 23.1511 -1.4994 -7.4990 0.0000 0.0000 0.0000
# 2 -1.4994 71.5694 46.7117 0.0000 0.0000 0.0000
# 3 -7.4990 46.7117 114.1338 0.0000 0.0000 0.0000
# 4 0.0000 0.0000 0.0000 32.4468 0.0000 0.0000
# 5 0.0000 0.0000 0.0000 0.0000 12.9352 0.0000
# 6 0.0000 0.0000 0.0000 0.0000 0.0000 13.9635
#
#
#
# Elastic Compliance Matrix: (Units=1/GPa)
#
#
# Indices 1 2 3 4 5 6 
#
# 1 0.044226 -0.001324 0.003447 0.000000 0.000000 0.000000
# 2 -0.001324 0.019105 -0.007906 0.000000 0.000000 0.000000
# 3 0.003447 -0.007906 0.012224 0.000000 0.000000 0.000000
# 4 0.000000 0.000000 0.000000 0.030820 0.000000 0.000000
# 5 0.000000 0.000000 0.000000 0.000000 0.077308 0.000000
# 6 0.000000 0.000000 0.000000 0.000000 0.000000 0.071615
#
#
# Mechanical properties :
#
#
# Convention : Reuss Voigt Hill
#
# Bulk Modulus (GPa) = 15.62743 31.58674 23.60709
# Shear Modulus (GPa) = 17.34956 23.27849 20.31403
#
# Velocity S-wave (km/s) = 2.98551 3.45822 3.23052
# Velocity P-wave (km/s) = 4.46239 5.67215 5.10325
#
# Compressibility (1/GPa) = 0.06399003
#
# Stress axis : x y z
#
# Youngs Moduli (GPa) = 22.61138 52.34286 81.80718
#
# Poissons Ratio (x) = 0.06928 -0.28203
# Poissons Ratio (y) = 0.02993 0.64677
# Poissons Ratio (z) = -0.07795 0.41382
#
# Static dielectric constant tensor:
#      x y z
#    x 1.683760 0.000000 0.000000 
#    y 0.000000 1.674180 0.000000 
#    z 0.000000 0.000000 1.740130 
# 
# From -- ./inp_files/10485.got.cif
#   From: 2010.05.17/outbox.cif.g08.bks.cpg/sg62_6_cif.got.tgz:10485.got - 2010.06.03 15:25:27.
