data_PCOD9464306
_publ_section_title
;
Structure prediction by ZEFSAII (Michael W. Deem and Ramdas Pophale) SiO2 
 PCOD9464306
Probable space group: P N M A
;
_chemical_formula_sum "Si O2"
_cell_formula_units_Z 48
_cell_length_a 17.106039
_cell_length_b 8.648672
_cell_length_c 18.537144
_cell_angle_alpha 90.000000
_cell_angle_beta 90.000000
_cell_angle_gamma 90.000000
_cell_volume 2742.468881
_symmetry_space_group_name_H-M "P N M A"
_symmetry_group_IT_number 62
_symmetry_cell_setting 'orthorhombic'
loop_
_space_group_symop_operation_xyz
x,y,z
1/2-x,-y,1/2+z
1/2+x,1/2-y,1/2-z
-x,1/2+y,-z
-x,-y,-z
1/2+x,y,1/2-z
1/2-x,1/2+y,1/2+z
x,1/2-y,z
loop_
_atom_site_type_symbol
_atom_site_label
_atom_site_fract_x
_atom_site_fract_y
_atom_site_fract_z
Si Si1 0.741709 0.937772 0.446292
Si Si2 0.666677 0.563786 0.668440
Si Si3 0.173573 0.063805 0.405249
Si Si4 0.584364 0.936994 0.520462
Si Si5 0.641949 0.436868 0.825974
Si Si6 0.007504 0.565370 0.419373
O O1 0.740010 0.750000 0.445137
O O2 0.797027 0.979307 0.514170
O O3 0.653973 0.988379 0.466116
O O4 0.782754 0.989704 0.372788
O O5 0.664271 0.750000 0.671170
O O6 0.755541 0.519670 0.647443
O O7 0.612355 0.516083 0.600854
O O8 0.642992 0.497090 0.744998
O O9 0.165445 0.250000 0.404095
O O10 0.090940 0.988078 0.389206
O O11 0.582475 0.750000 0.518984
O O12 0.500000 0.000000 0.500000
O O13 0.642667 0.250000 0.824647
O O14 0.564632 0.486540 0.869642
O O15 0.004333 0.750000 0.423651
O O16 0.000000 0.500000 0.500000
#
# Coordination Sequence:
#
# PCOD9464306 Si02
#       6
#     8   8   8   8   8   8
#     4   8  15  32  55  74  98 137 173 206 258 314
#     4   9  20  37  56  77 106 142 175 217 272 315
#     4   9  17  35  57  75 102 139 176 213 258 314
#     4   9  18  35  58  78 101 137 179 220 263 310
#     4  10  20  35  54  77 108 142 176 215 263 320
#     4  11  21  33  54  83 110 140 178 219 265 316
#
# _framework density 17.502476999999999
#
# number of rings (size 3 to 8) (size 9 to 14) (size 15 to 20)
#    0.000    2.667    1.667    2.500    0.000    2.667 
#    3.000    3.333    0.000    0.000    0.000    0.000 
#    0.000    0.000    0.000    0.000    0.000    0.000 
#
# Total GULP energy -267598.229536 kJ/mol
# GULP energy per Si atom -5574.963115 kJ/mol
# Density = 1.746264 g / cm^3
# Si number density = 17.502477 Si / 1000 Ang^3
#
#
#
# Elastic Constant Matrix: (Units=GPa)
#
#
# Indices 1 2 3 4 5 6 
#
# 1 171.6296 30.7756 95.6167 0.0000 0.0000 0.0000
# 2 30.7756 12.4844 26.5013 0.0000 0.0000 0.0000
# 3 95.6167 26.5013 134.6004 0.0000 0.0000 0.0000
# 4 0.0000 0.0000 0.0000 28.0156 0.0000 0.0000
# 5 0.0000 0.0000 0.0000 0.0000 22.8554 0.0000
# 6 0.0000 0.0000 0.0000 0.0000 0.0000 31.5054
#
#
#
# Elastic Compliance Matrix: (Units=1/GPa)
#
#
# Indices 1 2 3 4 5 6 
#
# 1 0.011897 -0.019564 -0.004599 0.000000 0.000000 0.000000
# 2 -0.019564 0.169790 -0.019532 0.000000 0.000000 0.000000
# 3 -0.004599 -0.019532 0.014542 0.000000 0.000000 0.000000
# 4 0.000000 0.000000 0.000000 0.035694 0.000000 0.000000
# 5 0.000000 0.000000 0.000000 0.000000 0.043753 0.000000
# 6 0.000000 0.000000 0.000000 0.000000 0.000000 0.031741
#
#
# Mechanical properties :
#
#
# Convention : Reuss Voigt Hill
#
# Bulk Modulus (GPa) = 9.18794 69.38908 39.28851
# Shear Modulus (GPa) = 11.59857 27.53000 19.56428
#
# Velocity S-wave (km/s) = 2.57705 3.97031 3.34698
# Velocity P-wave (km/s) = 3.75710 7.79417 6.11821
#
# Compressibility (1/GPa) = 0.10883838
#
# Stress axis : x y z
#
# Youngs Moduli (GPa) = 84.05482 5.88963 68.76536
#
# Poissons Ratio (x) = 0.11523 0.31627
# Poissons Ratio (y) = 1.64448 1.34310
# Poissons Ratio (z) = 0.38660 0.11503
#
# Static dielectric constant tensor:
#      x y z
#    x 1.601990 0.000000 0.000000 
#    y 0.000000 1.598810 0.000000 
#    z 0.000000 0.000000 1.577750 
# 
# From -- ./inp_files/24236.got.cif
#   From: 2010.05.17/outbox.cif.g08.bks.cpg/sg62_13_cif.got.tgz:24236.got - 2010.06.03 15:25:27.
