data_PCOD9464151
_publ_section_title
;
Structure prediction by ZEFSAII (Michael W. Deem and Ramdas Pophale) SiO2 
 PCOD9464151
Probable space group: P N M A
;
_chemical_formula_sum "Si O2"
_cell_formula_units_Z 56
_cell_length_a 22.065046
_cell_length_b 7.988416
_cell_length_c 15.376555
_cell_angle_alpha 90.000000
_cell_angle_beta 90.000000
_cell_angle_gamma 90.000000
_cell_volume 2710.344877
_symmetry_space_group_name_H-M "P N M A"
_symmetry_group_IT_number 62
_symmetry_cell_setting 'orthorhombic'
loop_
_space_group_symop_operation_xyz
x,y,z
1/2-x,-y,1/2+z
1/2+x,1/2-y,1/2-z
-x,1/2+y,-z
-x,-y,-z
1/2+x,y,1/2-z
1/2-x,1/2+y,1/2+z
x,1/2-y,z
loop_
_atom_site_type_symbol
_atom_site_label
_atom_site_fract_x
_atom_site_fract_y
_atom_site_fract_z
Si Si1 0.977428 0.952581 0.132862
Si Si2 0.311415 0.455311 0.931214
Si Si3 0.767306 0.555222 0.229820
Si Si4 0.930913 0.448056 0.485704
Si Si5 0.102069 0.047214 0.709584
Si Si6 0.596051 0.551501 0.463476
Si Si7 0.773939 0.944033 0.910561
O O1 0.976625 0.750000 0.129210
O O2 0.952156 0.004850 0.226140
O O3 0.044906 0.005684 0.105659
O O4 0.932570 0.016227 0.057661
O O5 0.312256 0.250000 0.926958
O O6 0.273956 0.516622 0.847472
O O7 0.380316 0.514430 0.946294
O O8 0.273802 0.502639 0.017251
O O9 0.777216 0.750000 0.207110
O O10 0.834313 0.484453 0.249664
O O11 0.732334 0.541921 0.320850
O O12 0.929733 0.250000 0.494575
O O13 0.908942 0.491414 0.388536
O O14 0.000000 0.500000 0.500000
O O15 0.104258 0.250000 0.708527
O O16 0.605445 0.750000 0.453472
O O17 0.659350 0.461873 0.449655
O O18 0.760859 0.750000 0.891691
#
# Coordination Sequence:
#
# PCOD9464151 Si02
#       7
#     8   8   8   8   8   8   8
#     4   9  19  36  57  81 114 155 193 233 289 354
#     4   9  20  39  61  83 115 156 194 239 298 359
#     4  10  20  36  60  86 110 145 195 243 289 347
#     4  11  23  41  62  85 117 156 202 248 300 357
#     4  10  20  37  61  86 114 152 197 242 295 359
#     4  10  20  34  54  84 117 150 192 240 288 341
#     4  11  21  37  58  82 115 152 188 233 294 351
#
# _framework density 20.661577000000001
#
# number of rings (size 3 to 8) (size 9 to 14) (size 15 to 20)
#    0.000    2.000    1.429    2.143    0.000    4.571 
#    0.000   10.000    0.000    0.000    0.000    0.000 
#    0.000    0.000    0.000    0.000    0.000    0.000 
#
# Total GULP energy -312673.519359 kJ/mol
# GULP energy per Si atom -5583.455703 kJ/mol
# Density = 2.061455 g / cm^3
# Si number density = 20.661577 Si / 1000 Ang^3
#
#
#
# Elastic Constant Matrix: (Units=GPa)
#
#
# Indices 1 2 3 4 5 6 
#
# 1 148.0547 10.4097 56.4228 0.0000 0.0000 0.0000
# 2 10.4097 18.1422 2.6791 0.0000 0.0000 0.0000
# 3 56.4228 2.6791 94.2057 0.0000 0.0000 0.0000
# 4 0.0000 0.0000 0.0000 15.2090 0.0000 0.0000
# 5 0.0000 0.0000 0.0000 0.0000 23.6799 0.0000
# 6 0.0000 0.0000 0.0000 0.0000 0.0000 6.3195
#
#
#
# Elastic Compliance Matrix: (Units=1/GPa)
#
#
# Indices 1 2 3 4 5 6 
#
# 1 0.009093 -0.004432 -0.005320 0.000000 0.000000 0.000000
# 2 -0.004432 0.057513 0.001019 0.000000 0.000000 0.000000
# 3 -0.005320 0.001019 0.013773 0.000000 0.000000 0.000000
# 4 0.000000 0.000000 0.000000 0.065750 0.000000 0.000000
# 5 0.000000 0.000000 0.000000 0.000000 0.042230 0.000000
# 6 0.000000 0.000000 0.000000 0.000000 0.000000 0.158240
#
#
# Mechanical properties :
#
#
# Convention : Reuss Voigt Hill
#
# Bulk Modulus (GPa) = 15.89527 44.38066 30.13796
# Shear Modulus (GPa) = 12.98580 21.76776 17.37678
#
# Velocity S-wave (km/s) = 2.50971 3.24935 2.90318
# Velocity P-wave (km/s) = 4.01348 5.96692 5.08489
#
# Compressibility (1/GPa) = 0.06291179
#
# Stress axis : x y z
#
# Youngs Moduli (GPa) = 109.96987 17.38747 72.60804
#
# Poissons Ratio (x) = 0.07706 0.38630
# Poissons Ratio (y) = 0.48739 -0.07398
# Poissons Ratio (z) = 0.58507 -0.01772
#
# Static dielectric constant tensor:
#      x y z
#    x 1.804100 0.000000 0.000000 
#    y 0.000000 1.760850 0.000000 
#    z 0.000000 0.000000 1.727900 
# 
# From -- ./inp_files/20289.got.cif
#   From: 2010.05.17/outbox.cif.g08.bks.cpg/sg62_11_cif.got.tgz:20289.got - 2010.06.03 15:25:27.
