data_PCOD9464039
_publ_section_title
;
Structure prediction by ZEFSAII (Michael W. Deem and Ramdas Pophale) SiO2 
 PCOD9464039
Probable space group: P N M A
;
_chemical_formula_sum "Si O2"
_cell_formula_units_Z 48
_cell_length_a 10.153091
_cell_length_b 8.697382
_cell_length_c 31.139925
_cell_angle_alpha 90.000000
_cell_angle_beta 90.000000
_cell_angle_gamma 90.000000
_cell_volume 2749.820759
_symmetry_space_group_name_H-M "P N M A"
_symmetry_group_IT_number 62
_symmetry_cell_setting 'orthorhombic'
loop_
_space_group_symop_operation_xyz
x,y,z
1/2-x,-y,1/2+z
1/2+x,1/2-y,1/2-z
-x,1/2+y,-z
-x,-y,-z
1/2+x,y,1/2-z
1/2-x,1/2+y,1/2+z
x,1/2-y,z
loop_
_atom_site_type_symbol
_atom_site_label
_atom_site_fract_x
_atom_site_fract_y
_atom_site_fract_z
Si Si1 0.659654 0.935400 0.290919
Si Si2 0.355813 0.564285 0.284238
Si Si3 0.335157 0.434234 0.377476
Si Si4 0.653511 0.564272 0.954774
Si Si5 0.362273 0.564618 0.616123
Si Si6 0.634774 0.565918 0.053177
O O1 0.664528 0.750000 0.293351
O O2 0.763982 0.985981 0.255101
O O3 0.509478 0.979029 0.278615
O O4 0.685975 0.001884 0.338076
O O5 0.349576 0.750000 0.286791
O O6 0.309415 0.496187 0.329580
O O7 0.329944 0.250000 0.377254
O O8 0.485157 0.482937 0.388936
O O9 0.232698 0.498530 0.411685
O O10 0.644592 0.750000 0.953179
O O11 0.769167 0.514134 0.922821
O O12 0.513412 0.495468 0.940969
O O13 0.676137 0.520768 0.004531
O O14 0.359854 0.750000 0.617586
O O15 0.634858 0.750000 0.055814
#
# Coordination Sequence:
#
# PCOD9464039 Si02
#       6
#     8   8   8   8   8   8
#     4   9  18  32  50  72  99 130 165 206 248 293
#     4   9  18  33  50  70  98 130 165 205 247 292
#     4  10  20  34  52  75 103 134 168 206 249 298
#     4   9  19  36  54  74 102 134 169 210 253 298
#     4   9  19  35  53  74 102 134 168 207 250 298
#     4  10  20  34  53  76 102 133 169 209 253 300
#
# _framework density 17.455684000000002
#
# number of rings (size 3 to 8) (size 9 to 14) (size 15 to 20)
#    0.000    2.667    0.000    1.000    0.000    4.667 
#    0.000    1.667    0.000    0.000    0.000    0.000 
#    0.000    0.000    0.000    0.000    0.000    0.000 
#
# Total GULP energy -267729.201407 kJ/mol
# GULP energy per Si atom -5577.691696 kJ/mol
# Density = 1.741595 g / cm^3
# Si number density = 17.455684 Si / 1000 Ang^3
#
#
#
# Elastic Constant Matrix: (Units=GPa)
#
#
# Indices 1 2 3 4 5 6 
#
# 1 -34.7679 -16.5754 -52.0426 0.0000 0.0000 0.0000
# 2 -16.5754 -0.6078 -20.4606 0.0000 0.0000 0.0000
# 3 -52.0426 -20.4606 -45.8812 0.0000 0.0000 0.0000
# 4 0.0000 0.0000 0.0000 29.1637 0.0000 0.0000
# 5 0.0000 0.0000 0.0000 0.0000 44.2386 0.0000
# 6 0.0000 0.0000 0.0000 0.0000 0.0000 -3.3235
#
#
#
# Elastic Compliance Matrix: (Units=1/GPa)
#
#
# Indices 1 2 3 4 5 6 
#
# 1 0.052363 -0.040781 -0.041208 0.000000 0.000000 0.000000
# 2 -0.040781 0.149180 -0.020269 0.000000 0.000000 0.000000
# 3 -0.041208 -0.020269 0.033985 0.000000 0.000000 0.000000
# 4 0.000000 0.000000 0.000000 0.034289 0.000000 0.000000
# 5 0.000000 0.000000 0.000000 0.000000 0.022605 0.000000
# 6 0.000000 0.000000 0.000000 0.000000 0.000000 -0.300889
#
#
# Mechanical properties :
#
#
# Convention : Reuss Voigt Hill
#
# Bulk Modulus (GPa) = 32.24570 -28.82379 1.71095
# Shear Modulus (GPa) = 24.22639 14.53721 19.38180
#
# Velocity S-wave (km/s) = 3.72947 2.88897 3.33580
# Velocity P-wave (km/s) = 6.08755 2.32813 3.97731
#
# Compressibility (1/GPa) = 0.03101189
#
# Stress axis : x y z
#
# Youngs Moduli (GPa) = 19.09761 6.70330 29.42454
#
# Poissons Ratio (x) = 0.27337 1.21253
# Poissons Ratio (y) = 0.77882 0.59640
# Poissons Ratio (z) = 0.78697 0.13587
#
# Static dielectric constant tensor:
#      x y z
#    x 1.581760 0.000000 0.000000 
#    y 0.000000 1.587100 0.000000 
#    z 0.000000 0.000000 1.568210 
# 
# From -- ./inp_files/31940.got.cif
#   From: 2010.05.17/outbox.cif.g08.bks.cpg/sg62_16_cif.got.tgz:31940.got - 2010.06.03 15:25:27.
