data_PCOD9464663
_publ_section_title
;
Structure prediction by ZEFSAII (Michael W. Deem and Ramdas Pophale) SiO2 
 PCOD9464663
Probable space group: P N M A
;
_chemical_formula_sum "Si O2"
_cell_formula_units_Z 56
_cell_length_a 14.352687
_cell_length_b 7.528223
_cell_length_c 21.344165
_cell_angle_alpha 90.000000
_cell_angle_beta 90.000000
_cell_angle_gamma 90.000000
_cell_volume 2306.241903
_symmetry_space_group_name_H-M "P N M A"
_symmetry_group_IT_number 62
_symmetry_cell_setting 'orthorhombic'
loop_
_space_group_symop_operation_xyz
x,y,z
1/2-x,-y,1/2+z
1/2+x,1/2-y,1/2-z
-x,1/2+y,-z
-x,-y,-z
1/2+x,y,1/2-z
1/2-x,1/2+y,1/2+z
x,1/2-y,z
loop_
_atom_site_type_symbol
_atom_site_label
_atom_site_fract_x
_atom_site_fract_y
_atom_site_fract_z
Si Si1 0.307541 0.469161 0.066084
Si Si2 0.334738 0.548201 0.663151
Si Si3 0.486649 0.535490 0.901324
Si Si4 0.509462 0.467605 0.244697
Si Si5 0.216363 0.946305 0.432654
Si Si6 0.002894 0.538794 0.072649
Si Si7 0.347791 0.053126 0.331401
O O1 0.303558 0.250000 0.066383
O O2 0.255768 0.530742 0.129449
O O3 0.415548 0.519247 0.069033
O O4 0.262312 0.533266 0.000417
O O5 0.310888 0.750000 0.681595
O O6 0.396992 0.469094 0.719247
O O7 0.408257 0.546679 0.605966
O O8 0.477209 0.750000 0.906730
O O9 0.490397 0.490775 0.827786
O O10 0.395111 0.449961 0.930098
O O11 0.510209 0.250000 0.251626
O O12 0.415067 0.534300 0.279421
O O13 0.256718 0.750000 0.438130
O O14 0.250938 0.003834 0.363984
O O15 0.004611 0.750000 0.083651
O O16 0.914000 0.457209 0.107511
O O17 0.000000 0.500000 0.000000
O O18 0.332714 0.250000 0.307210
#
# Coordination Sequence:
#
# PCOD9464663 Si02
#       7
#     8   8   8   8   8   8   8
#     4   9  19  34  55  78 106 143 186 229 275 323
#     4   9  17  33  54  78 106 140 181 231 280 329
#     4  10  20  37  58  80 106 145 188 231 274 322
#     4   8  17  33  57  85 109 133 176 227 276 328
#     4  11  22  36  53  80 112 146 184 228 278 333
#     4  11  20  31  49  77 111 147 182 223 273 332
#     4  10  20  36  57  82 108 140 181 231 281 333
#
# _framework density 24.281925999999999
#
# number of rings (size 3 to 8) (size 9 to 14) (size 15 to 20)
#    0.000    2.286    0.000    4.286    0.000    2.286 
#    0.000   10.000    0.000    0.000    0.000    0.000 
#    0.000    0.000    0.000    0.000    0.000    0.000 
#
# Total GULP energy -312467.950186 kJ/mol
# GULP energy per Si atom -5579.784825 kJ/mol
# Density = 2.422666 g / cm^3
# Si number density = 24.281926 Si / 1000 Ang^3
#
#
#
# Elastic Constant Matrix: (Units=GPa)
#
#
# Indices 1 2 3 4 5 6 
#
# 1 82.5968 -5.4340 6.5691 0.0000 0.0000 0.0000
# 2 -5.4340 72.9392 -4.0353 0.0000 0.0000 0.0000
# 3 6.5691 -4.0353 118.6254 0.0000 0.0000 0.0000
# 4 0.0000 0.0000 0.0000 53.9944 0.0000 0.0000
# 5 0.0000 0.0000 0.0000 0.0000 36.5309 0.0000
# 6 0.0000 0.0000 0.0000 0.0000 0.0000 11.7357
#
#
#
# Elastic Compliance Matrix: (Units=1/GPa)
#
#
# Indices 1 2 3 4 5 6 
#
# 1 0.012216 0.000874 -0.000647 0.000000 0.000000 0.000000
# 2 0.000874 0.013798 0.000421 0.000000 0.000000 0.000000
# 3 -0.000647 0.000421 0.008480 0.000000 0.000000 0.000000
# 4 0.000000 0.000000 0.000000 0.018520 0.000000 0.000000
# 5 0.000000 0.000000 0.000000 0.000000 0.027374 0.000000
# 6 0.000000 0.000000 0.000000 0.000000 0.000000 0.085210
#
#
# Mechanical properties :
#
#
# Convention : Reuss Voigt Hill
#
# Bulk Modulus (GPa) = 27.93954 29.81787 28.87871
# Shear Modulus (GPa) = 28.37163 38.92299 33.64731
#
# Velocity S-wave (km/s) = 3.42193 4.00804 3.72653
# Velocity P-wave (km/s) = 5.21000 5.80739 5.51679
#
# Compressibility (1/GPa) = 0.03579157
#
# Stress axis : x y z
#
# Youngs Moduli (GPa) = 81.86014 72.47179 117.92407
#
# Poissons Ratio (x) = -0.06336 0.07627
# Poissons Ratio (y) = -0.07157 -0.04964
# Poissons Ratio (z) = 0.05294 -0.03051
#
# Static dielectric constant tensor:
#      x y z
#    x 1.987900 0.000000 0.000000 
#    y 0.000000 1.972400 0.000000 
#    z 0.000000 0.000000 1.896220 
# 
# From -- ./inp_files/27256.got.cif
#   From: 2010.05.17/outbox.cif.g08.bks.cpg/sg62_14_cif.got.tgz:27256.got - 2010.06.03 15:25:27.
