data_PCOD9464344
_publ_section_title
;
Structure prediction by ZEFSAII (Michael W. Deem and Ramdas Pophale) SiO2 
 PCOD9464344
Probable space group: P N M A
;
_chemical_formula_sum "Si O2"
_cell_formula_units_Z 48
_cell_length_a 31.872380
_cell_length_b 7.683451
_cell_length_c 9.226617
_cell_angle_alpha 90.000000
_cell_angle_beta 90.000000
_cell_angle_gamma 90.000000
_cell_volume 2259.505038
_symmetry_space_group_name_H-M "P N M A"
_symmetry_group_IT_number 62
_symmetry_cell_setting 'orthorhombic'
loop_
_space_group_symop_operation_xyz
x,y,z
1/2-x,-y,1/2+z
1/2+x,1/2-y,1/2-z
-x,1/2+y,-z
-x,-y,-z
1/2+x,y,1/2-z
1/2-x,1/2+y,1/2+z
x,1/2-y,z
loop_
_atom_site_type_symbol
_atom_site_label
_atom_site_fract_x
_atom_site_fract_y
_atom_site_fract_z
Si Si1 0.290432 0.959844 0.908318
Si Si2 0.457503 0.540263 0.584794
Si Si3 0.626531 0.036292 0.922341
Si Si4 0.877971 0.545027 0.093172
Si Si5 0.206863 0.543079 0.068988
Si Si6 0.542450 0.459116 0.085381
O O1 0.290331 0.750000 0.918983
O O2 0.291013 0.005092 0.739374
O O3 0.332303 0.021364 0.990248
O O4 0.248342 0.024856 0.987228
O O5 0.500000 0.500000 0.500000
O O6 0.453690 0.750000 0.593353
O O7 0.417337 0.471945 0.496185
O O8 0.458835 0.474274 0.749751
O O9 0.627117 0.250000 0.922953
O O10 0.627096 0.975382 0.755927
O O11 0.583842 0.979258 0.000947
O O12 0.886611 0.750000 0.111392
O O13 0.835431 0.527310 0.002746
O O14 0.205803 0.750000 0.049661
O O15 0.545670 0.250000 0.091845
O O16 0.500000 0.500000 0.000000
#
# Coordination Sequence:
#
# PCOD9464344 Si02
#       6
#     8   8   8   8   8   8
#     4  10  21  38  58  80 110 146 182 223 272 327
#     4  10  21  36  57  83 111 147 188 230 277 329
#     4   9  18  35  59  81 103 140 187 224 263 328
#     4  10  20  37  60  82 109 148 186 224 278 336
#     4  11  23  37  57  86 114 143 183 230 276 324
#     4  10  20  35  55  80 108 140 182 227 272 324
#
# _framework density 21.243589
#
# number of rings (size 3 to 8) (size 9 to 14) (size 15 to 20)
#    0.000    2.000    0.000    3.500    0.000    8.000 
#    0.000    4.167    0.000    0.000    0.000    0.000 
#    0.000    0.000    0.000    0.000    0.000    0.000 
#
# Total GULP energy -268323.224122 kJ/mol
# GULP energy per Si atom -5590.067169 kJ/mol
# Density = 2.119524 g / cm^3
# Si number density = 21.243589 Si / 1000 Ang^3
#
#
#
# Elastic Constant Matrix: (Units=GPa)
#
#
# Indices 1 2 3 4 5 6 
#
# 1 201.8247 -16.8520 116.5322 0.0000 0.0000 0.0000
# 2 -16.8520 29.9077 -12.4754 0.0000 0.0000 0.0000
# 3 116.5322 -12.4754 225.6286 0.0000 0.0000 0.0000
# 4 0.0000 0.0000 0.0000 21.0710 0.0000 0.0000
# 5 0.0000 0.0000 0.0000 0.0000 39.6743 0.0000
# 6 0.0000 0.0000 0.0000 0.0000 0.0000 21.3854
#
#
#
# Elastic Compliance Matrix: (Units=1/GPa)
#
#
# Indices 1 2 3 4 5 6 
#
# 1 0.007250 0.002583 -0.003602 0.000000 0.000000 0.000000
# 2 0.002583 0.035146 0.000609 0.000000 0.000000 0.000000
# 3 -0.003602 0.000609 0.006326 0.000000 0.000000 0.000000
# 4 0.000000 0.000000 0.000000 0.047458 0.000000 0.000000
# 5 0.000000 0.000000 0.000000 0.000000 0.025205 0.000000
# 6 0.000000 0.000000 0.000000 0.000000 0.000000 0.046761
#
#
# Mechanical properties :
#
#
# Convention : Reuss Voigt Hill
#
# Bulk Modulus (GPa) = 20.87572 70.19672 45.53622
# Shear Modulus (GPa) = 27.03684 41.10324 34.07004
#
# Velocity S-wave (km/s) = 3.57137 4.40347 4.00907
# Velocity P-wave (km/s) = 5.18212 7.67916 6.55072
#
# Compressibility (1/GPa) = 0.04790254
#
# Stress axis : x y z
#
# Youngs Moduli (GPa) = 137.93036 28.45298 158.07928
#
# Poissons Ratio (x) = -0.07349 0.56935
# Poissons Ratio (y) = -0.35624 -0.09632
# Poissons Ratio (z) = 0.49678 -0.01734
#
# Static dielectric constant tensor:
#      x y z
#    x 1.730760 0.000000 0.000000 
#    y 0.000000 1.808570 0.000000 
#    z 0.000000 0.000000 1.730340 
# 
# From -- ./inp_files/10138.got.cif
#   From: 2010.05.17/outbox.cif.g08.bks.cpg/sg62_6_cif.got.tgz:10138.got - 2010.06.03 15:25:27.
