data_PCOD9464914
_publ_section_title
;
Structure prediction by ZEFSAII (Michael W. Deem and Ramdas Pophale) SiO2 
 PCOD9464914
Probable space group: P N M A
;
_chemical_formula_sum "Si O2"
_cell_formula_units_Z 40
_cell_length_a 14.537231
_cell_length_b 8.672859
_cell_length_c 14.803454
_cell_angle_alpha 90.000000
_cell_angle_beta 90.000000
_cell_angle_gamma 90.000000
_cell_volume 1866.409928
_symmetry_space_group_name_H-M "P N M A"
_symmetry_group_IT_number 62
_symmetry_cell_setting 'orthorhombic'
loop_
_space_group_symop_operation_xyz
x,y,z
1/2-x,-y,1/2+z
1/2+x,1/2-y,1/2-z
-x,1/2+y,-z
-x,-y,-z
1/2+x,y,1/2-z
1/2-x,1/2+y,1/2+z
x,1/2-y,z
loop_
_atom_site_type_symbol
_atom_site_label
_atom_site_fract_x
_atom_site_fract_y
_atom_site_fract_z
Si Si1 0.370637 0.934850 0.886369
Si Si2 0.299737 0.062537 0.260390
Si Si3 0.782571 0.433968 0.447089
Si Si4 0.588310 0.931919 0.449746
Si Si5 0.507082 0.435391 0.275627
O O1 0.364870 0.750000 0.896616
O O2 0.283707 0.987091 0.824272
O O3 0.460447 0.968583 0.826324
O O4 0.360078 0.009659 0.983892
O O5 0.296120 0.250000 0.259064
O O6 0.292546 0.010809 0.156288
O O7 0.401729 0.020577 0.293173
O O8 0.781243 0.250000 0.445859
O O9 0.684339 0.496475 0.481114
O O10 0.591376 0.750000 0.462372
O O11 0.500000 0.000000 0.500000
O O12 0.572495 0.979270 0.345764
O O13 0.517326 0.250000 0.289083
#
# Coordination Sequence:
#
# PCOD9464914 Si02
#       5
#     8   8   8   8   8
#     4  10  20  37  59  87 122 163 206 252 308 365
#     4   9  19  37  60  85 118 159 203 249 304 362
#     4  11  22  39  61  88 121 162 204 252 306 366
#     4  12  24  39  61  91 122 157 204 259 314 365
#     4  10  20  38  63  87 119 164 206 247 304 368
#
# _framework density 21.431519000000002
#
# number of rings (size 3 to 8) (size 9 to 14) (size 15 to 20)
#    0.000    1.600    2.000    3.600    0.000    3.200 
#    0.000    2.000    0.000    0.000    0.000    0.000 
#    0.000    0.000    0.000    0.000    0.000    0.000 
#
# Total GULP energy -223620.124721 kJ/mol
# GULP energy per Si atom -5590.503118 kJ/mol
# Density = 2.138274 g / cm^3
# Si number density = 21.431519 Si / 1000 Ang^3
#
#
#
# Elastic Constant Matrix: (Units=GPa)
#
#
# Indices 1 2 3 4 5 6 
#
# 1 33.6794 -4.5576 -20.0750 0.0000 0.0000 0.0000
# 2 -4.5576 34.7077 7.0650 0.0000 0.0000 0.0000
# 3 -20.0750 7.0650 66.8477 0.0000 0.0000 0.0000
# 4 0.0000 0.0000 0.0000 31.8071 0.0000 0.0000
# 5 0.0000 0.0000 0.0000 0.0000 35.9209 0.0000
# 6 0.0000 0.0000 0.0000 0.0000 0.0000 17.0692
#
#
#
# Elastic Compliance Matrix: (Units=1/GPa)
#
#
# Indices 1 2 3 4 5 6 
#
# 1 0.036395 0.002611 0.010654 0.000000 0.000000 0.000000
# 2 0.002611 0.029633 -0.002348 0.000000 0.000000 0.000000
# 3 0.010654 -0.002348 0.018407 0.000000 0.000000 0.000000
# 4 0.000000 0.000000 0.000000 0.031439 0.000000 0.000000
# 5 0.000000 0.000000 0.000000 0.000000 0.027839 0.000000
# 6 0.000000 0.000000 0.000000 0.000000 0.000000 0.058585
#
#
# Mechanical properties :
#
#
# Convention : Reuss Voigt Hill
#
# Bulk Modulus (GPa) = 9.41013 11.12218 10.26615
# Shear Modulus (GPa) = 23.16013 27.14628 25.15321
#
# Velocity S-wave (km/s) = 3.29090 3.56287 3.42958
# Velocity P-wave (km/s) = 4.34055 4.70386 4.52585
#
# Compressibility (1/GPa) = 0.10626848
#
# Stress axis : x y z
#
# Youngs Moduli (GPa) = 27.47602 33.74642 54.32715
#
# Poissons Ratio (x) = -0.08810 -0.57880
# Poissons Ratio (y) = -0.07173 0.12755
# Poissons Ratio (z) = -0.29273 0.07923
#
# Static dielectric constant tensor:
#      x y z
#    x 1.779440 0.000000 0.000000 
#    y 0.000000 1.726600 0.000000 
#    z 0.000000 0.000000 1.820640 
# 
# From -- ./inp_files/18588.got.cif
#   From: 2010.05.17/outbox.cif.g08.bks.cpg/sg62_10_cif.got.tgz:18588.got - 2010.06.03 15:25:27.
