data_PCOD9464457
_publ_section_title
;
Structure prediction by ZEFSAII (Michael W. Deem and Ramdas Pophale) SiO2 
 PCOD9464457
Probable space group: P N M A
;
_chemical_formula_sum "Si O2"
_cell_formula_units_Z 64
_cell_length_a 19.693151
_cell_length_b 17.501346
_cell_length_c 8.313554
_cell_angle_alpha 90.000000
_cell_angle_beta 90.000000
_cell_angle_gamma 90.000000
_cell_volume 2865.321667
_symmetry_space_group_name_H-M "P N M A"
_symmetry_group_IT_number 62
_symmetry_cell_setting 'orthorhombic'
loop_
_space_group_symop_operation_xyz
x,y,z
1/2-x,-y,1/2+z
1/2+x,1/2-y,1/2-z
-x,1/2+y,-z
-x,-y,-z
1/2+x,y,1/2-z
1/2-x,1/2+y,1/2+z
x,1/2-y,z
loop_
_atom_site_type_symbol
_atom_site_label
_atom_site_fract_x
_atom_site_fract_y
_atom_site_fract_z
Si Si1 0.275220 0.582865 0.091941
Si Si2 0.649609 0.661454 0.247536
Si Si3 0.299750 0.076765 0.248230
Si Si4 0.481103 0.343736 0.915910
Si Si5 0.052816 0.341853 0.258223
Si Si6 0.887668 0.840768 0.246338
Si Si7 0.920585 0.337635 0.094759
Si Si8 0.182066 0.342018 0.081449
O O1 0.215924 0.613774 0.210335
O O2 0.302624 0.504163 0.162424
O O3 0.337785 0.641573 0.104498
O O4 0.242219 0.574126 0.916747
O O5 0.668872 0.750000 0.213598
O O6 0.595875 0.631444 0.117041
O O7 0.605821 0.661028 0.412954
O O8 0.372198 0.110301 0.297570
O O9 0.255927 0.129571 0.128764
O O10 0.478282 0.250000 0.912997
O O11 0.536646 0.368926 0.783618
O O12 0.514370 0.368866 0.083003
O O13 0.059766 0.250000 0.274822
O O14 0.126865 0.370731 0.212219
O O15 0.999570 0.356417 0.114385
O O16 0.893512 0.750000 0.227222
O O17 0.848850 0.869610 0.088042
O O18 0.912498 0.250000 0.153052
O O19 0.182837 0.250000 0.079851
#
# Coordination Sequence:
#
# PCOD9464457 Si02
#       8
#     8   8   8   8   8   8   8   8
#     4  11  23  38  55  77 109 146 183 224 269 319
#     4   9  18  34  56  80 106 138 175 216 265 319
#     4  11  23  38  55  77 109 146 183 224 269 319
#     4   9  17  30  52  82 111 137 170 216 266 315
#     4   9  17  30  52  82 111 137 170 216 266 315
#     4  10  20  35  57  83 110 141 178 220 266 318
#     4   9  18  34  56  80 106 138 175 216 265 319
#     4  10  20  35  57  83 110 141 178 220 266 318
#
# _framework density 22.33606
#
# number of rings (size 3 to 8) (size 9 to 14) (size 15 to 20)
#    0.000    2.250    0.000    3.000    0.000    7.500 
#    0.000    3.750    0.000    7.500    0.000    0.000 
#    0.000    0.000    0.000    0.000    0.000    0.000 
#
# Total GULP energy -357529.804348 kJ/mol
# GULP energy per Si atom -5586.403193 kJ/mol
# Density = 2.228522 g / cm^3
# Si number density = 22.336060 Si / 1000 Ang^3
#
#
#
# Elastic Constant Matrix: (Units=GPa)
#
#
# Indices 1 2 3 4 5 6 
#
# 1 66.6640 -3.0127 -9.8728 0.0000 0.0000 0.0000
# 2 -3.0127 6.5660 1.2497 0.0000 0.0000 0.0000
# 3 -9.8728 1.2497 56.3423 0.0000 0.0000 0.0000
# 4 0.0000 0.0000 0.0000 42.6183 0.0000 0.0000
# 5 0.0000 0.0000 0.0000 0.0000 36.1353 0.0000
# 6 0.0000 0.0000 0.0000 0.0000 0.0000 -57.6352
#
#
#
# Elastic Compliance Matrix: (Units=1/GPa)
#
#
# Indices 1 2 3 4 5 6 
#
# 1 0.015689 0.006704 0.002600 0.000000 0.000000 0.000000
# 2 0.006704 0.155810 -0.002281 0.000000 0.000000 0.000000
# 3 0.002600 -0.002281 0.018255 0.000000 0.000000 0.000000
# 4 0.000000 0.000000 0.000000 0.023464 0.000000 0.000000
# 5 0.000000 0.000000 0.000000 0.000000 0.027674 0.000000
# 6 0.000000 0.000000 0.000000 0.000000 0.000000 -0.017351
#
#
# Mechanical properties :
#
#
# Convention : Reuss Voigt Hill
#
# Bulk Modulus (GPa) = 4.90680 11.81119 8.35899
# Shear Modulus (GPa) = 18.02266 13.63755 15.83011
#
# Velocity S-wave (km/s) = 2.84366 2.47364 2.66508
# Velocity P-wave (km/s) = 3.60325 3.66850 3.63602
#
# Compressibility (1/GPa) = 0.20379897
#
# Stress axis : x y z
#
# Youngs Moduli (GPa) = 63.74029 6.41807 54.77970
#
# Poissons Ratio (x) = -0.04302 -0.14245
# Poissons Ratio (y) = -0.42729 0.12497
# Poissons Ratio (z) = -0.16575 0.01464
#
# Static dielectric constant tensor:
#      x y z
#    x 1.802010 0.000000 0.000000 
#    y 0.000000 1.801810 0.000000 
#    z 0.000000 0.000000 1.893670 
# 
# From -- ./inp_files/8103.got.cif
#   From: 2010.05.17/outbox.cif.g08.bks.cpg/sg62_5_cif.got.tgz:8103.got - 2010.06.03 15:25:27.
