data_PCOD9464142
_publ_section_title
;
Structure prediction by ZEFSAII (Michael W. Deem and Ramdas Pophale) SiO2 
 PCOD9464142
Probable space group: P N M A
;
_chemical_formula_sum "Si O2"
_cell_formula_units_Z 48
_cell_length_a 16.015449
_cell_length_b 10.974034
_cell_length_c 14.420512
_cell_angle_alpha 90.000000
_cell_angle_beta 90.000000
_cell_angle_gamma 90.000000
_cell_volume 2534.463846
_symmetry_space_group_name_H-M "P N M A"
_symmetry_group_IT_number 62
_symmetry_cell_setting 'orthorhombic'
loop_
_space_group_symop_operation_xyz
x,y,z
1/2-x,-y,1/2+z
1/2+x,1/2-y,1/2-z
-x,1/2+y,-z
-x,-y,-z
1/2+x,y,1/2-z
1/2-x,1/2+y,1/2+z
x,1/2-y,z
loop_
_atom_site_type_symbol
_atom_site_label
_atom_site_fract_x
_atom_site_fract_y
_atom_site_fract_z
Si Si1 0.547211 0.615457 0.389658
Si Si2 0.389215 0.051528 0.413380
Si Si3 0.716475 0.892379 0.287645
Si Si4 0.766983 0.386571 0.567154
Si Si5 0.658388 0.885129 0.790674
Si Si6 0.442538 0.390585 0.036020
O O1 0.526494 0.750000 0.355554
O O2 0.575234 0.619776 0.497229
O O3 0.465015 0.535581 0.383041
O O4 0.627738 0.573611 0.332064
O O5 0.361656 0.115372 0.318563
O O6 0.307999 0.979043 0.449242
O O7 0.736157 0.750000 0.315517
O O8 0.711391 0.892247 0.176239
O O9 0.783129 0.998040 0.310937
O O10 0.736533 0.250000 0.546590
O O11 0.851384 0.406805 0.510567
O O12 0.694020 0.750000 0.814686
O O13 0.576093 0.898705 0.854160
O O14 0.470411 0.250000 0.015289
O O15 0.500000 0.500000 0.000000
#
# Coordination Sequence:
#
# PCOD9464142 Si02
#       6
#     8   8   8   8   8   8
#     4  10  20  34  54  83 112 144 187 233 274 330
#     4  10  20  34  56  80 113 148 183 226 283 334
#     4   9  19  35  57  84 111 144 186 229 272 326
#     4   9  18  35  56  79 109 145 186 229 275 329
#     4  10  21  38  56  80 114 148 185 230 282 335
#     4  10  22  38  57  81 111 146 188 233 278 328
#
# _framework density 18.938915999999999
#
# number of rings (size 3 to 8) (size 9 to 14) (size 15 to 20)
#    0.000    2.333    0.000    2.000    2.333    1.333 
#    0.000    8.333    0.000    0.000    0.000    0.000 
#    0.000    0.000    0.000    0.000    0.000    0.000 
#
# Total GULP energy -267416.925816 kJ/mol
# GULP energy per Si atom -5571.185955 kJ/mol
# Density = 1.889581 g / cm^3
# Si number density = 18.938916 Si / 1000 Ang^3
#
#
#
# Elastic Constant Matrix: (Units=GPa)
#
#
# Indices 1 2 3 4 5 6 
#
# 1 61.4333 55.7712 3.9512 0.0000 0.0000 0.0000
# 2 55.7712 102.3537 17.6631 0.0000 0.0000 0.0000
# 3 3.9512 17.6631 27.2033 0.0000 0.0000 0.0000
# 4 0.0000 0.0000 0.0000 -19.4086 0.0000 0.0000
# 5 0.0000 0.0000 0.0000 0.0000 25.7670 0.0000
# 6 0.0000 0.0000 0.0000 0.0000 0.0000 -28.9016
#
#
#
# Elastic Compliance Matrix: (Units=1/GPa)
#
#
# Indices 1 2 3 4 5 6 
#
# 1 0.033657 -0.019703 0.007905 0.000000 0.000000 0.000000
# 2 -0.019703 0.022537 -0.011772 0.000000 0.000000 0.000000
# 3 0.007905 -0.011772 0.043256 0.000000 0.000000 0.000000
# 4 0.000000 0.000000 0.000000 -0.051524 0.000000 0.000000
# 5 0.000000 0.000000 0.000000 0.000000 0.038809 0.000000
# 6 0.000000 0.000000 0.000000 0.000000 0.000000 -0.034600
#
#
# Mechanical properties :
#
#
# Convention : Reuss Voigt Hill
#
# Bulk Modulus (GPa) = 19.11708 38.41792 28.76750
# Shear Modulus (GPa) = 42.84048 3.06501 22.95274
#
# Velocity S-wave (km/s) = 4.76124 1.27353 3.48506
# Velocity P-wave (km/s) = 6.35153 4.74254 5.60507
#
# Compressibility (1/GPa) = 0.05230923
#
# Stress axis : x y z
#
# Youngs Moduli (GPa) = 29.71186 44.37052 23.11841
#
# Poissons Ratio (x) = 0.87424 -0.18274
# Poissons Ratio (y) = 0.58542 0.27214
# Poissons Ratio (z) = -0.23486 0.52232
#
# Static dielectric constant tensor:
#      x y z
#    x 1.620300 0.000000 0.000000 
#    y 0.000000 1.668130 0.000000 
#    z 0.000000 0.000000 1.683090 
# 
# From -- ./inp_files/18912.got.cif
#   From: 2010.05.17/outbox.cif.g08.bks.cpg/sg62_10_cif.got.tgz:18912.got - 2010.06.03 15:25:27.
