data_PCOD9464654
_publ_section_title
;
Structure prediction by ZEFSAII (Michael W. Deem and Ramdas Pophale) SiO2 
 PCOD9464654
Probable space group: P N M A
;
_chemical_formula_sum "Si O2"
_cell_formula_units_Z 48
_cell_length_a 17.046157
_cell_length_b 8.766703
_cell_length_c 18.426233
_cell_angle_alpha 90.000000
_cell_angle_beta 90.000000
_cell_angle_gamma 90.000000
_cell_volume 2753.590384
_symmetry_space_group_name_H-M "P N M A"
_symmetry_group_IT_number 62
_symmetry_cell_setting 'orthorhombic'
loop_
_space_group_symop_operation_xyz
x,y,z
1/2-x,-y,1/2+z
1/2+x,1/2-y,1/2-z
-x,1/2+y,-z
-x,-y,-z
1/2+x,y,1/2-z
1/2-x,1/2+y,1/2+z
x,1/2-y,z
loop_
_atom_site_type_symbol
_atom_site_label
_atom_site_fract_x
_atom_site_fract_y
_atom_site_fract_z
Si Si1 0.264837 0.067253 0.446652
Si Si2 0.667618 0.066678 0.333122
Si Si3 0.818083 0.567734 0.401390
Si Si4 0.361280 0.934834 0.830088
Si Si5 0.494037 0.566703 0.080702
Si Si6 0.084664 0.432989 0.018540
O O1 0.276949 0.250000 0.445023
O O2 0.208704 0.032950 0.515833
O O3 0.217253 0.021725 0.374781
O O4 0.347595 0.988406 0.463237
O O5 0.666352 0.250000 0.333283
O O6 0.641675 0.015269 0.253521
O O7 0.614049 0.015710 0.401122
O O8 0.755349 0.011975 0.350116
O O9 0.811766 0.750000 0.392733
O O10 0.907907 0.522707 0.389914
O O11 0.366008 0.750000 0.832976
O O12 0.436021 0.002714 0.870862
O O13 0.497703 0.750000 0.077196
O O14 0.500000 0.500000 0.000000
O O15 0.081189 0.250000 0.017767
O O16 0.000000 0.500000 0.000000
#
# Coordination Sequence:
#
# PCOD9464654 Si02
#       6
#     8   8   8   8   8   8
#     4   9  17  33  56  77 103 138 174 217 267 317
#     4   9  20  37  57  79 106 141 182 226 271 323
#     4   9  18  34  54  77 106 140 176 214 262 318
#     4  10  20  37  56  80 112 143 179 225 277 327
#     4  11  21  34  55  84 114 146 183 223 268 324
#     4  10  20  36  57  81 105 138 186 227 267 318
#
# _framework density 17.431785000000001
#
# number of rings (size 3 to 8) (size 9 to 14) (size 15 to 20)
#    0.000    2.333    1.667    1.000    0.000    3.333 
#    3.000    0.000    0.000    0.000    0.000    0.000 
#    0.000    0.000    0.000    0.000    0.000    0.000 
#
# Total GULP energy -267747.305137 kJ/mol
# GULP energy per Si atom -5578.068857 kJ/mol
# Density = 1.739211 g / cm^3
# Si number density = 17.431785 Si / 1000 Ang^3
#
#
#
# Elastic Constant Matrix: (Units=GPa)
#
#
# Indices 1 2 3 4 5 6 
#
# 1 172.9837 41.7529 86.2435 0.0000 0.0000 0.0000
# 2 41.7529 19.6674 30.6627 0.0000 0.0000 0.0000
# 3 86.2435 30.6627 122.4895 0.0000 0.0000 0.0000
# 4 0.0000 0.0000 0.0000 21.8616 0.0000 0.0000
# 5 0.0000 0.0000 0.0000 0.0000 23.4833 0.0000
# 6 0.0000 0.0000 0.0000 0.0000 0.0000 35.2369
#
#
#
# Elastic Compliance Matrix: (Units=1/GPa)
#
#
# Indices 1 2 3 4 5 6 
#
# 1 0.012762 -0.021459 -0.003614 0.000000 0.000000 0.000000
# 2 -0.021459 0.119475 -0.014799 0.000000 0.000000 0.000000
# 3 -0.003614 -0.014799 0.014413 0.000000 0.000000 0.000000
# 4 0.000000 0.000000 0.000000 0.045742 0.000000 0.000000
# 5 0.000000 0.000000 0.000000 0.000000 0.042584 0.000000
# 6 0.000000 0.000000 0.000000 0.000000 0.000000 0.028379
#
#
# Mechanical properties :
#
#
# Convention : Reuss Voigt Hill
#
# Bulk Modulus (GPa) = 14.94633 70.27320 42.60976
# Shear Modulus (GPa) = 13.68361 26.54846 20.11603
#
# Velocity S-wave (km/s) = 2.80479 3.90679 3.40072
# Velocity P-wave (km/s) = 4.36829 7.79432 6.31796
#
# Compressibility (1/GPa) = 0.06690605
#
# Stress axis : x y z
#
# Youngs Moduli (GPa) = 78.35591 8.36998 69.38200
#
# Poissons Ratio (x) = 0.17962 0.25074
# Poissons Ratio (y) = 1.68147 1.02676
# Poissons Ratio (z) = 0.28317 0.12386
#
# Static dielectric constant tensor:
#      x y z
#    x 1.572300 0.000000 0.000000 
#    y 0.000000 1.581000 0.000000 
#    z 0.000000 0.000000 1.589000 
# 
# From -- ./inp_files/23689.got.cif
#   From: 2010.05.17/outbox.cif.g08.bks.cpg/sg62_12_cif.got.tgz:23689.got - 2010.06.03 15:25:27.
