data_PCOD9464077
_publ_section_title
;
Structure prediction by ZEFSAII (Michael W. Deem and Ramdas Pophale) SiO2 
 PCOD9464077
Probable space group: P N M A
;
_chemical_formula_sum "Si O2"
_cell_formula_units_Z 64
_cell_length_a 20.111408
_cell_length_b 9.810069
_cell_length_c 15.756778
_cell_angle_alpha 90.000000
_cell_angle_beta 90.000000
_cell_angle_gamma 90.000000
_cell_volume 3108.722488
_symmetry_space_group_name_H-M "P N M A"
_symmetry_group_IT_number 62
_symmetry_cell_setting 'orthorhombic'
loop_
_space_group_symop_operation_xyz
x,y,z
1/2-x,-y,1/2+z
1/2+x,1/2-y,1/2-z
-x,1/2+y,-z
-x,-y,-z
1/2+x,y,1/2-z
1/2-x,1/2+y,1/2+z
x,1/2-y,z
loop_
_atom_site_type_symbol
_atom_site_label
_atom_site_fract_x
_atom_site_fract_y
_atom_site_fract_z
Si Si1 0.435580 0.411476 0.025550
Si Si2 0.063204 0.405547 0.016691
Si Si3 0.669575 0.602230 0.284751
Si Si4 0.790062 0.090509 0.534428
Si Si5 0.320327 0.403755 0.519019
Si Si6 0.084795 0.586957 0.725000
Si Si7 0.300240 0.906860 0.297667
Si Si8 0.560531 0.098197 0.279247
O O1 0.451935 0.250000 0.019748
O O2 0.414158 0.438557 0.123675
O O3 0.500000 0.500000 0.000000
O O4 0.368895 0.435540 0.969590
O O5 0.058532 0.250000 0.983325
O O6 0.126847 0.487897 0.981155
O O7 0.067351 0.392806 0.118851
O O8 0.000000 0.500000 0.000000
O O9 0.657730 0.750000 0.244353
O O10 0.655401 0.611330 0.384447
O O11 0.747134 0.573050 0.277585
O O12 0.620572 0.492481 0.246510
O O13 0.780648 0.250000 0.507127
O O14 0.749939 0.074603 0.622817
O O15 0.750402 0.978939 0.479792
O O16 0.319149 0.250000 0.481720
O O17 0.091434 0.750000 0.738442
O O18 0.140324 0.508530 0.778449
O O19 0.011914 0.543149 0.757107
O O20 0.323781 0.750000 0.299618
O O21 0.564895 0.250000 0.243205
#
# Coordination Sequence:
#
# PCOD9464077 Si02
#       8
#     8   8   8   8   8   8   8   8
#     4  10  23  42  65  92 126 164 206 255 307 367
#     4  10  20  34  53  79 114 154 194 240 294 355
#     4   9  19  36  57  81 109 144 190 237 286 348
#     4  10  22  39  58  86 121 156 196 246 303 362
#     4  10  20  35  56  81 109 147 194 243 291 353
#     4  10  22  40  60  88 123 158 199 248 301 357
#     4  10  22  38  58  86 117 151 195 244 297 359
#     4   9  20  36  55  81 114 149 189 237 289 349
#
# _framework density 20.587235
#
# number of rings (size 3 to 8) (size 9 to 14) (size 15 to 20)
#    0.000    2.250    0.000    1.500    3.500    3.500 
#    0.000    0.000    0.000    0.000    0.000    0.000 
#    0.000    0.000    0.000    0.000    0.000    0.000 
#
# Total GULP energy -356737.713086 kJ/mol
# GULP energy per Si atom -5574.026767 kJ/mol
# Density = 2.054038 g / cm^3
# Si number density = 20.587235 Si / 1000 Ang^3
#
#
#
# Elastic Constant Matrix: (Units=GPa)
#
#
# Indices 1 2 3 4 5 6 
#
# 1 109.4949 75.5292 14.1317 0.0000 0.0000 0.0000
# 2 75.5292 110.8868 23.9996 0.0000 0.0000 0.0000
# 3 14.1317 23.9996 54.0658 0.0000 0.0000 0.0000
# 4 0.0000 0.0000 0.0000 16.1453 0.0000 0.0000
# 5 0.0000 0.0000 0.0000 0.0000 28.3127 0.0000
# 6 0.0000 0.0000 0.0000 0.0000 0.0000 55.7401
#
#
#
# Elastic Compliance Matrix: (Units=1/GPa)
#
#
# Indices 1 2 3 4 5 6 
#
# 1 0.017257 -0.011923 0.000782 0.000000 0.000000 0.000000
# 2 -0.011923 0.018215 -0.004969 0.000000 0.000000 0.000000
# 3 0.000782 -0.004969 0.020497 0.000000 0.000000 0.000000
# 4 0.000000 0.000000 0.000000 0.061938 0.000000 0.000000
# 5 0.000000 0.000000 0.000000 0.000000 0.035320 0.000000
# 6 0.000000 0.000000 0.000000 0.000000 0.000000 0.017940
#
#
# Mechanical properties :
#
#
# Convention : Reuss Voigt Hill
#
# Bulk Modulus (GPa) = 42.10793 55.75203 48.92998
# Shear Modulus (GPa) = 23.66260 30.75874 27.21067
#
# Velocity S-wave (km/s) = 3.39393 3.86951 3.63950
# Velocity P-wave (km/s) = 5.98800 6.86322 6.44050
#
# Compressibility (1/GPa) = 0.02374850
#
# Stress axis : x y z
#
# Youngs Moduli (GPa) = 57.94867 54.89915 48.78692
#
# Poissons Ratio (x) = 0.65459 -0.03816
# Poissons Ratio (y) = 0.69095 0.24243
# Poissons Ratio (z) = -0.04533 0.27280
#
# Static dielectric constant tensor:
#      x y z
#    x 1.740510 0.000000 0.000000 
#    y 0.000000 1.753200 0.000000 
#    z 0.000000 0.000000 1.833590 
# 
# From -- ./inp_files/24823.got.cif
#   From: 2010.05.17/outbox.cif.g08.bks.cpg/sg62_13_cif.got.tgz:24823.got - 2010.06.03 15:25:27.
