data_PCOD9464900
_publ_section_title
;
Structure prediction by ZEFSAII (Michael W. Deem and Ramdas Pophale) SiO2 
 PCOD9464900
Probable space group: P N M A
;
_chemical_formula_sum "Si O2"
_cell_formula_units_Z 56
_cell_length_a 15.034875
_cell_length_b 8.242976
_cell_length_c 22.370004
_cell_angle_alpha 90.000000
_cell_angle_beta 90.000000
_cell_angle_gamma 90.000000
_cell_volume 2772.361881
_symmetry_space_group_name_H-M "P N M A"
_symmetry_group_IT_number 62
_symmetry_cell_setting 'orthorhombic'
loop_
_space_group_symop_operation_xyz
x,y,z
1/2-x,-y,1/2+z
1/2+x,1/2-y,1/2-z
-x,1/2+y,-z
-x,-y,-z
1/2+x,y,1/2-z
1/2-x,1/2+y,1/2+z
x,1/2-y,z
loop_
_atom_site_type_symbol
_atom_site_label
_atom_site_fract_x
_atom_site_fract_y
_atom_site_fract_z
Si Si1 0.006683 0.559870 0.371361
Si Si2 0.660963 0.438093 0.210647
Si Si3 0.353021 0.439850 0.656453
Si Si4 0.488698 0.946172 0.431220
Si Si5 0.360849 0.052912 0.968668
Si Si6 0.826707 0.440866 0.396876
Si Si7 0.201768 0.445912 0.879909
O O1 0.986741 0.750000 0.377720
O O2 0.083218 0.537473 0.322296
O O3 0.053367 0.494803 0.432080
O O4 0.915430 0.468838 0.358515
O O5 0.647283 0.250000 0.196789
O O6 0.652531 0.468626 0.280755
O O7 0.755434 0.490214 0.181714
O O8 0.369728 0.250000 0.668715
O O9 0.429371 0.498919 0.610860
O O10 0.257785 0.463208 0.625958
O O11 0.487870 0.750000 0.431840
O O12 0.395609 0.000645 0.401096
O O13 0.500000 0.000000 0.500000
O O14 0.364979 0.250000 0.968066
O O15 0.273596 0.007097 0.930734
O O16 0.351558 0.000873 0.036499
O O17 0.804692 0.250000 0.398767
O O18 0.200429 0.250000 0.876232
#
# Coordination Sequence:
#
# PCOD9464900 Si02
#       7
#     8   8   8   8   8   8   8
#     4  10  20  37  59  84 116 155 189 227 282 347
#     4  11  23  40  60  85 113 148 196 249 294 342
#     4  11  24  41  58  82 116 156 196 240 294 355
#     4  10  22  39  63  91 120 155 198 244 297 354
#     4   8  16  31  55  84 115 147 182 224 277 336
#     4  11  21  35  56  85 116 149 189 236 282 331
#     4   9  18  37  61  85 115 154 193 236 291 353
#
# _framework density 20.199383000000001
#
# number of rings (size 3 to 8) (size 9 to 14) (size 15 to 20)
#    0.000    2.000    0.000    4.714    0.000    4.000 
#    0.000   12.143    0.000    0.000    0.000    0.000 
#    0.000    0.000    0.000    0.000    0.000    0.000 
#
# Total GULP energy -312724.873717 kJ/mol
# GULP energy per Si atom -5584.372745 kJ/mol
# Density = 2.015341 g / cm^3
# Si number density = 20.199383 Si / 1000 Ang^3
#
#
#
# Elastic Constant Matrix: (Units=GPa)
#
#
# Indices 1 2 3 4 5 6 
#
# 1 135.0765 -1.9759 45.7166 0.0000 0.0000 0.0000
# 2 -1.9759 31.1505 -0.5679 0.0000 0.0000 0.0000
# 3 45.7166 -0.5679 106.6827 0.0000 0.0000 0.0000
# 4 0.0000 0.0000 0.0000 25.0422 0.0000 0.0000
# 5 0.0000 0.0000 0.0000 0.0000 19.1968 0.0000
# 6 0.0000 0.0000 0.0000 0.0000 0.0000 18.1278
#
#
#
# Elastic Compliance Matrix: (Units=1/GPa)
#
#
# Indices 1 2 3 4 5 6 
#
# 1 0.008666 0.000482 -0.003711 0.000000 0.000000 0.000000
# 2 0.000482 0.032132 -0.000036 0.000000 0.000000 0.000000
# 3 -0.003711 -0.000036 0.010964 0.000000 0.000000 0.000000
# 4 0.000000 0.000000 0.000000 0.039933 0.000000 0.000000
# 5 0.000000 0.000000 0.000000 0.000000 0.052092 0.000000
# 6 0.000000 0.000000 0.000000 0.000000 0.000000 0.055164
#
#
# Mechanical properties :
#
#
# Convention : Reuss Voigt Hill
#
# Bulk Modulus (GPa) = 22.10783 39.91725 31.01254
# Shear Modulus (GPa) = 22.66982 27.78916 25.22949
#
# Velocity S-wave (km/s) = 3.35371 3.71312 3.53799
# Velocity P-wave (km/s) = 5.09559 6.17961 5.66360
#
# Compressibility (1/GPa) = 0.04523285
#
# Stress axis : x y z
#
# Youngs Moduli (GPa) = 115.38929 31.12152 91.20958
#
# Poissons Ratio (x) = -0.01500 0.33850
# Poissons Ratio (y) = -0.05562 0.00324
# Poissons Ratio (z) = 0.42823 0.00111
#
# Static dielectric constant tensor:
#      x y z
#    x 1.704540 0.000000 0.000000 
#    y 0.000000 1.690850 0.000000 
#    z 0.000000 0.000000 1.708700 
# 
# From -- ./inp_files/27110.got.cif
#   From: 2010.05.17/outbox.cif.g08.bks.cpg/sg62_14_cif.got.tgz:27110.got - 2010.06.03 15:25:27.
