data_PCOD9464718
_publ_section_title
;
Structure prediction by ZEFSAII (Michael W. Deem and Ramdas Pophale) SiO2 
 PCOD9464718
Probable space group: P N M A
;
_chemical_formula_sum "Si O2"
_cell_formula_units_Z 40
_cell_length_a 5.367666
_cell_length_b 15.957307
_cell_length_c 20.420274
_cell_angle_alpha 90.000000
_cell_angle_beta 90.000000
_cell_angle_gamma 90.000000
_cell_volume 1749.067821
_symmetry_space_group_name_H-M "P N M A"
_symmetry_group_IT_number 62
_symmetry_cell_setting 'orthorhombic'
loop_
_space_group_symop_operation_xyz
x,y,z
1/2-x,-y,1/2+z
1/2+x,1/2-y,1/2-z
-x,1/2+y,-z
-x,-y,-z
1/2+x,y,1/2-z
1/2-x,1/2+y,1/2+z
x,1/2-y,z
loop_
_atom_site_type_symbol
_atom_site_label
_atom_site_fract_x
_atom_site_fract_y
_atom_site_fract_z
Si Si1 0.486088 0.350786 0.461098
Si Si2 0.508391 0.942467 0.933114
Si Si3 0.497065 0.654048 0.394263
Si Si4 0.451652 0.480984 0.218404
Si Si5 0.989325 0.154131 0.684971
O O1 0.452265 0.250000 0.456513
O O2 0.259426 0.397363 0.425554
O O3 0.460731 0.385460 0.535592
O O4 0.764855 0.376938 0.442176
O O5 0.564179 0.979566 0.860551
O O6 0.500000 0.000000 0.000000
O O7 0.432800 0.750000 0.409546
O O8 0.247118 0.626714 0.358439
O O9 0.754963 0.655853 0.355763
O O10 0.205700 0.444172 0.252027
O O11 0.470084 0.580236 0.236076
O O12 0.944131 0.250000 0.709503
#
# Coordination Sequence:
#
# PCOD9464718 Si02
#       5
#     8   8   8   8   8
#     4  11  22  39  66  98 132 169 217 278 331 384
#     4  12  25  43  70 101 134 172 220 270 328 397
#     4   9  17  31  55  89 124 156 199 257 311 356
#     4  12  26  43  63  90 130 172 209 263 331 389
#     4  10  20  36  58  86 125 173 217 250 295 378
#
# _framework density 22.869323000000001
#
# number of rings (size 3 to 8) (size 9 to 14) (size 15 to 20)
#    0.000    1.200    0.000    7.200    0.000    4.000 
#    0.000    0.000    0.000   14.400    0.000    0.000 
#    0.000    0.000    0.000    0.000    0.000    0.000 
#
# Total GULP energy -223258.429530 kJ/mol
# GULP energy per Si atom -5581.460738 kJ/mol
# Density = 2.281727 g / cm^3
# Si number density = 22.869323 Si / 1000 Ang^3
#
#
#
# Elastic Constant Matrix: (Units=GPa)
#
#
# Indices 1 2 3 4 5 6 
#
# 1 101.9066 7.3814 24.9909 0.0000 0.0000 0.0000
# 2 7.3814 47.0125 9.1122 0.0000 0.0000 0.0000
# 3 24.9909 9.1122 107.9844 0.0000 0.0000 0.0000
# 4 0.0000 0.0000 0.0000 20.1727 0.0000 0.0000
# 5 0.0000 0.0000 0.0000 0.0000 39.2948 0.0000
# 6 0.0000 0.0000 0.0000 0.0000 0.0000 38.4418
#
#
#
# Elastic Compliance Matrix: (Units=1/GPa)
#
#
# Indices 1 2 3 4 5 6 
#
# 1 0.010469 -0.001194 -0.002322 0.000000 0.000000 0.000000
# 2 -0.001194 0.021761 -0.001560 0.000000 0.000000 0.000000
# 3 -0.002322 -0.001560 0.009930 0.000000 0.000000 0.000000
# 4 0.000000 0.000000 0.000000 0.049572 0.000000 0.000000
# 5 0.000000 0.000000 0.000000 0.000000 0.025449 0.000000
# 6 0.000000 0.000000 0.000000 0.000000 0.000000 0.026013
#
#
# Mechanical properties :
#
#
# Convention : Reuss Voigt Hill
#
# Bulk Modulus (GPa) = 31.24248 37.76363 34.50306
# Shear Modulus (GPa) = 30.48524 33.94313 32.21419
#
# Velocity S-wave (km/s) = 3.65501 3.85674 3.75723
# Velocity P-wave (km/s) = 5.61277 6.03168 5.82599
#
# Compressibility (1/GPa) = 0.03200770
#
# Stress axis : x y z
#
# Youngs Moduli (GPa) = 95.52174 45.95434 100.70861
#
# Poissons Ratio (x) = 0.05485 0.23385
# Poissons Ratio (y) = 0.11402 0.15711
# Poissons Ratio (z) = 0.22181 0.07169
#
# Static dielectric constant tensor:
#      x y z
#    x 1.894680 0.000000 0.000000 
#    y 0.000000 1.873760 0.000000 
#    z 0.000000 0.000000 1.898370 
# 
# From -- ./inp_files/21500.got.cif
#   From: 2010.05.17/outbox.cif.g08.bks.cpg/sg62_11_cif.got.tgz:21500.got - 2010.06.03 15:25:27.
