data_PCOD9464218
_publ_section_title
;
Structure prediction by ZEFSAII (Michael W. Deem and Ramdas Pophale) SiO2 
 PCOD9464218
Probable space group: P N M A
;
_chemical_formula_sum "Si O2"
_cell_formula_units_Z 56
_cell_length_a 15.698594
_cell_length_b 8.465418
_cell_length_c 21.789459
_cell_angle_alpha 90.000000
_cell_angle_beta 90.000000
_cell_angle_gamma 90.000000
_cell_volume 2895.713645
_symmetry_space_group_name_H-M "P N M A"
_symmetry_group_IT_number 62
_symmetry_cell_setting 'orthorhombic'
loop_
_space_group_symop_operation_xyz
x,y,z
1/2-x,-y,1/2+z
1/2+x,1/2-y,1/2-z
-x,1/2+y,-z
-x,-y,-z
1/2+x,y,1/2-z
1/2-x,1/2+y,1/2+z
x,1/2-y,z
loop_
_atom_site_type_symbol
_atom_site_label
_atom_site_fract_x
_atom_site_fract_y
_atom_site_fract_z
Si Si1 0.441977 0.064536 0.446107
Si Si2 0.194829 0.441277 0.165430
Si Si3 0.500101 0.442196 0.312586
Si Si4 0.877992 0.938492 0.295107
Si Si5 0.868621 0.571783 0.520123
Si Si6 0.203149 0.069476 0.021906
Si Si7 0.972920 0.435770 0.413631
O O1 0.453381 0.250000 0.442249
O O2 0.469294 0.002446 0.379914
O O3 0.500000 0.000000 0.500000
O O4 0.349563 0.023939 0.471182
O O5 0.201204 0.250000 0.166350
O O6 0.278626 0.508252 0.199567
O O7 0.197655 0.488952 0.092657
O O8 0.101193 0.484286 0.192229
O O9 0.496029 0.250000 0.308658
O O10 0.432811 0.511864 0.264362
O O11 0.880650 0.750000 0.302281
O O12 0.928169 0.023189 0.350480
O O13 0.833546 0.750000 0.521296
O O14 0.798342 0.445899 0.502523
O O15 0.933478 0.554155 0.463394
O O16 0.925141 0.544317 0.580621
O O17 0.172939 0.250000 0.023024
O O18 0.957155 0.250000 0.428295
#
# Coordination Sequence:
#
# PCOD9464218 Si02
#       7
#     8   8   8   8   8   8   8
#     4  11  22  39  64  93 124 157 199 253 312 369
#     4  10  21  41  67  91 118 162 209 246 302 374
#     4  10  23  45  67  88 120 165 209 253 310 374
#     4  12  25  40  63  94 126 162 209 261 313 370
#     4  10  20  34  56  88 120 157 204 253 302 355
#     4  11  21  36  61  92 124 159 198 246 305 368
#     4  10  20  36  58  84 120 162 202 248 304 365
#
# _framework density 19.338927999999999
#
# number of rings (size 3 to 8) (size 9 to 14) (size 15 to 20)
#    0.000    1.429    2.857    3.000    0.000    4.000 
#    2.571    0.000    0.000    0.000    0.000    0.000 
#    0.000    0.000    0.000    0.000    0.000    0.000 
#
# Total GULP energy -312198.585858 kJ/mol
# GULP energy per Si atom -5574.974747 kJ/mol
# Density = 1.929491 g / cm^3
# Si number density = 19.338928 Si / 1000 Ang^3
#
#
#
# Elastic Constant Matrix: (Units=GPa)
#
#
# Indices 1 2 3 4 5 6 
#
# 1 123.2008 26.5880 64.2574 0.0000 0.0000 0.0000
# 2 26.5880 51.4692 16.6811 0.0000 0.0000 0.0000
# 3 64.2574 16.6811 88.2194 0.0000 0.0000 0.0000
# 4 0.0000 0.0000 0.0000 25.3147 0.0000 0.0000
# 5 0.0000 0.0000 0.0000 0.0000 28.8661 0.0000
# 6 0.0000 0.0000 0.0000 0.0000 0.0000 32.8719
#
#
#
# Elastic Compliance Matrix: (Units=1/GPa)
#
#
# Indices 1 2 3 4 5 6 
#
# 1 0.013873 -0.004146 -0.009321 0.000000 0.000000 0.000000
# 2 -0.004146 0.021936 -0.001128 0.000000 0.000000 0.000000
# 3 -0.009321 -0.001128 0.018338 0.000000 0.000000 0.000000
# 4 0.000000 0.000000 0.000000 0.039503 0.000000 0.000000
# 5 0.000000 0.000000 0.000000 0.000000 0.034643 0.000000
# 6 0.000000 0.000000 0.000000 0.000000 0.000000 0.030421
#
#
# Mechanical properties :
#
#
# Convention : Reuss Voigt Hill
#
# Bulk Modulus (GPa) = 40.06804 53.10469 46.58637
# Shear Modulus (GPa) = 25.48127 27.76807 26.62467
#
# Velocity S-wave (km/s) = 3.63384 3.79339 3.71447
# Velocity P-wave (km/s) = 6.19437 6.83418 6.52212
#
# Compressibility (1/GPa) = 0.02495755
#
# Stress axis : x y z
#
# Youngs Moduli (GPa) = 72.08261 45.58657 54.53179
#
# Poissons Ratio (x) = 0.18898 0.50829
# Poissons Ratio (y) = 0.29882 0.06153
# Poissons Ratio (z) = 0.67188 0.05143
#
# Static dielectric constant tensor:
#      x y z
#    x 1.347400 0.000000 0.000000 
#    y 0.000000 1.640410 0.000000 
#    z 0.000000 0.000000 1.607690 
# 
# From -- ./inp_files/27221.got.cif
#   From: 2010.05.17/outbox.cif.g08.bks.cpg/sg62_14_cif.got.tgz:27221.got - 2010.06.03 15:25:27.
