data_PCOD9464867
_publ_section_title
;
Structure prediction by ZEFSAII (Michael W. Deem and Ramdas Pophale) SiO2 
 PCOD9464867
Probable space group: P N M A
;
_chemical_formula_sum "Si O2"
_cell_formula_units_Z 40
_cell_length_a 18.684193
_cell_length_b 8.864923
_cell_length_c 13.514622
_cell_angle_alpha 90.000000
_cell_angle_beta 90.000000
_cell_angle_gamma 90.000000
_cell_volume 2238.479985
_symmetry_space_group_name_H-M "P N M A"
_symmetry_group_IT_number 62
_symmetry_cell_setting 'orthorhombic'
loop_
_space_group_symop_operation_xyz
x,y,z
1/2-x,-y,1/2+z
1/2+x,1/2-y,1/2-z
-x,1/2+y,-z
-x,-y,-z
1/2+x,y,1/2-z
1/2-x,1/2+y,1/2+z
x,1/2-y,z
loop_
_atom_site_type_symbol
_atom_site_label
_atom_site_fract_x
_atom_site_fract_y
_atom_site_fract_z
Si Si1 0.336462 0.431303 0.403190
Si Si2 0.538892 0.570615 0.093919
Si Si3 0.879694 0.930772 0.890752
Si Si4 0.819759 0.930716 0.675239
Si Si5 0.522823 0.430548 0.689969
O O1 0.342192 0.250000 0.402922
O O2 0.344547 0.493626 0.514105
O O3 0.259654 0.474160 0.357736
O O4 0.401557 0.501790 0.341355
O O5 0.541693 0.750000 0.083301
O O6 0.618579 0.507196 0.110147
O O7 0.496384 0.535869 0.195711
O O8 0.500000 0.500000 0.000000
O O9 0.882562 0.750000 0.902531
O O10 0.836731 0.966952 0.789837
O O11 0.959478 0.995228 0.874487
O O12 0.826632 0.750000 0.664753
O O13 0.522097 0.250000 0.676018
#
# Coordination Sequence:
#
# PCOD9464867 Si02
#       5
#     8   8   8   8   8
#     4  11  22  36  56  83 112 143 179 224 274 324
#     4  10  21  37  59  83 110 145 184 224 270 321
#     4  10  20  37  58  79 107 144 182 224 272 322
#     4   9  21  39  56  78 110 144 182 225 270 319
#     4  10  21  37  56  81 109 142 184 225 267 322
#
# _framework density 17.869268000000002
#
# number of rings (size 3 to 8) (size 9 to 14) (size 15 to 20)
#    0.000    2.000    0.000    3.000    0.000    6.400 
#    0.000    4.000    0.000    0.000    0.000    0.000 
#    0.000    0.000    0.000    0.000    0.000    0.000 
#
# Total GULP energy -223460.316626 kJ/mol
# GULP energy per Si atom -5586.507916 kJ/mol
# Density = 1.782860 g / cm^3
# Si number density = 17.869268 Si / 1000 Ang^3
#
#
#
# Elastic Constant Matrix: (Units=GPa)
#
#
# Indices 1 2 3 4 5 6 
#
# 1 190.5646 65.3699 98.9031 0.0000 0.0000 0.0000
# 2 65.3699 54.4408 49.7663 0.0000 0.0000 0.0000
# 3 98.9031 49.7663 94.3406 0.0000 0.0000 0.0000
# 4 0.0000 0.0000 0.0000 33.6606 0.0000 0.0000
# 5 0.0000 0.0000 0.0000 0.0000 27.0585 0.0000
# 6 0.0000 0.0000 0.0000 0.0000 0.0000 31.4858
#
#
#
# Elastic Compliance Matrix: (Units=1/GPa)
#
#
# Indices 1 2 3 4 5 6 
#
# 1 0.012392 -0.005801 -0.009931 0.000000 0.000000 0.000000
# 2 -0.005801 0.038192 -0.014065 0.000000 0.000000 0.000000
# 3 -0.009931 -0.014065 0.028430 0.000000 0.000000 0.000000
# 4 0.000000 0.000000 0.000000 0.029708 0.000000 0.000000
# 5 0.000000 0.000000 0.000000 0.000000 0.036957 0.000000
# 6 0.000000 0.000000 0.000000 0.000000 0.000000 0.031760
#
#
# Mechanical properties :
#
#
# Convention : Reuss Voigt Hill
#
# Bulk Modulus (GPa) = 51.49350 85.26942 68.38146
# Shear Modulus (GPa) = 20.53336 26.79477 23.66407
#
# Velocity S-wave (km/s) = 3.39350 3.87652 3.64303
# Velocity P-wave (km/s) = 6.65085 8.23764 7.48640
#
# Compressibility (1/GPa) = 0.01941993
#
# Stress axis : x y z
#
# Youngs Moduli (GPa) = 80.70008 26.18360 35.17388
#
# Poissons Ratio (x) = 0.15190 0.34930
# Poissons Ratio (y) = 0.46817 0.49472
# Poissons Ratio (z) = 0.80139 0.36827
#
# Static dielectric constant tensor:
#      x y z
#    x 1.577830 0.000000 0.000000 
#    y 0.000000 1.595310 0.000000 
#    z 0.000000 0.000000 1.601210 
# 
# From -- ./inp_files/13830.got.cif
#   From: 2010.05.17/outbox.cif.g08.bks.cpg/sg62_7_cif.got.tgz:13830.got - 2010.06.03 15:25:27.
