data_PCOD9464594
_publ_section_title
;
Structure prediction by ZEFSAII (Michael W. Deem and Ramdas Pophale) SiO2 
 PCOD9464594
Probable space group: P N M A
;
_chemical_formula_sum "Si O2"
_cell_formula_units_Z 48
_cell_length_a 19.569942
_cell_length_b 23.029392
_cell_length_c 5.393649
_cell_angle_alpha 90.000000
_cell_angle_beta 90.000000
_cell_angle_gamma 90.000000
_cell_volume 2430.830582
_symmetry_space_group_name_H-M "P N M A"
_symmetry_group_IT_number 62
_symmetry_cell_setting 'orthorhombic'
loop_
_space_group_symop_operation_xyz
x,y,z
1/2-x,-y,1/2+z
1/2+x,1/2-y,1/2-z
-x,1/2+y,-z
-x,-y,-z
1/2+x,y,1/2-z
1/2-x,1/2+y,1/2+z
x,1/2-y,z
loop_
_atom_site_type_symbol
_atom_site_label
_atom_site_fract_x
_atom_site_fract_y
_atom_site_fract_z
Si Si1 0.455396 0.315210 0.428041
Si Si2 0.188611 0.924501 0.164737
Si Si3 0.178464 0.456582 0.445189
Si Si4 0.457689 0.921285 0.699635
Si Si5 0.866757 0.316367 0.570929
Si Si6 0.086018 0.519652 0.824408
O O1 0.481811 0.250000 0.396480
O O2 0.516332 0.360351 0.396737
O O3 0.420324 0.317682 0.698898
O O4 0.402140 0.323475 0.197645
O O5 0.179794 0.872594 0.362115
O O6 0.197884 0.990378 0.264632
O O7 0.257071 0.916670 0.004847
O O8 0.118953 0.932579 0.007306
O O9 0.112332 0.421697 0.349230
O O10 0.147737 0.493020 0.672718
O O11 0.443585 0.965448 0.475183
O O12 0.525062 0.950007 0.828864
O O13 0.836947 0.250000 0.576074
#
# Coordination Sequence:
#
# PCOD9464594 Si02
#       6
#     8   8   8   8   8   8
#     4  10  21  39  63  89 117 157 206 253 301 354
#     4  11  21  36  58  84 122 161 204 253 305 371
#     4  11  22  34  55  87 121 158 198 247 316 366
#     4  10  21  34  57  86 118 151 198 249 302 366
#     4  10  22  39  63  89 116 159 208 251 294 357
#     4  10  20  36  54  85 116 154 196 240 312 362
#
# _framework density 19.746334999999998
#
# number of rings (size 3 to 8) (size 9 to 14) (size 15 to 20)
#    0.000    1.667    3.333    1.500    2.333    0.000 
#    0.000    0.833    0.000    1.000    0.000    0.000 
#    0.000    0.000    0.000    0.000    0.000    0.000 
#
# Total GULP energy -267480.255075 kJ/mol
# GULP energy per Si atom -5572.505314 kJ/mol
# Density = 1.970139 g / cm^3
# Si number density = 19.746335 Si / 1000 Ang^3
#
#
#
# Elastic Constant Matrix: (Units=GPa)
#
#
# Indices 1 2 3 4 5 6 
#
# 1 90.4733 29.7338 4.6229 0.0000 0.0000 0.0000
# 2 29.7338 66.2850 -0.1006 0.0000 0.0000 0.0000
# 3 4.6229 -0.1006 50.2819 0.0000 0.0000 0.0000
# 4 0.0000 0.0000 0.0000 27.7778 0.0000 0.0000
# 5 0.0000 0.0000 0.0000 0.0000 16.4557 0.0000
# 6 0.0000 0.0000 0.0000 0.0000 0.0000 3.6193
#
#
#
# Elastic Compliance Matrix: (Units=1/GPa)
#
#
# Indices 1 2 3 4 5 6 
#
# 1 0.013037 -0.005850 -0.001210 0.000000 0.000000 0.000000
# 2 -0.005850 0.017711 0.000573 0.000000 0.000000 0.000000
# 3 -0.001210 0.000573 0.020000 0.000000 0.000000 0.000000
# 4 0.000000 0.000000 0.000000 0.036000 0.000000 0.000000
# 5 0.000000 0.000000 0.000000 0.000000 0.060769 0.000000
# 6 0.000000 0.000000 0.000000 0.000000 0.000000 0.276299
#
#
# Mechanical properties :
#
#
# Convention : Reuss Voigt Hill
#
# Bulk Modulus (GPa) = 26.47262 30.61691 28.54476
# Shear Modulus (GPa) = 11.12636 21.08950 16.10793
#
# Velocity S-wave (km/s) = 2.37632 3.27160 2.85922
# Velocity P-wave (km/s) = 4.57871 5.45985 5.03858
#
# Compressibility (1/GPa) = 0.03777488
#
# Stress axis : x y z
#
# Youngs Moduli (GPa) = 76.70206 56.46062 49.99921
#
# Poissons Ratio (x) = 0.33030 0.06052
# Poissons Ratio (y) = 0.44872 -0.02866
# Poissons Ratio (z) = 0.09284 -0.03237
#
# Static dielectric constant tensor:
#      x y z
#    x 1.789560 0.000000 0.000000 
#    y 0.000000 1.708530 0.000000 
#    z 0.000000 0.000000 1.801750 
# 
# From -- ./inp_files/2193.got.cif
#   From: 2010.05.17/outbox.cif.g08.bks.cpg/sg62_2_cif.got.tgz:2193.got - 2010.06.03 15:25:27.
