data_PCOD9464583
_publ_section_title
;
Structure prediction by ZEFSAII (Michael W. Deem and Ramdas Pophale) SiO2 
 PCOD9464583
Probable space group: P N M A
;
_chemical_formula_sum "Si O2"
_cell_formula_units_Z 40
_cell_length_a 9.803950
_cell_length_b 18.769472
_cell_length_c 8.271177
_cell_angle_alpha 90.000000
_cell_angle_beta 90.000000
_cell_angle_gamma 90.000000
_cell_volume 1522.020346
_symmetry_space_group_name_H-M "P N M A"
_symmetry_group_IT_number 62
_symmetry_cell_setting 'orthorhombic'
loop_
_space_group_symop_operation_xyz
x,y,z
1/2-x,-y,1/2+z
1/2+x,1/2-y,1/2-z
-x,1/2+y,-z
-x,-y,-z
1/2+x,y,1/2-z
1/2-x,1/2+y,1/2+z
x,1/2-y,z
loop_
_atom_site_type_symbol
_atom_site_label
_atom_site_fract_x
_atom_site_fract_y
_atom_site_fract_z
Si Si1 0.896042 0.968554 0.869371
Si Si2 0.887586 0.056909 0.374032
Si Si3 0.704806 0.828043 0.614149
Si Si4 0.022933 0.332036 0.582304
Si Si5 0.065427 0.169955 0.941885
O O1 0.970807 0.974957 0.696395
O O2 0.741169 0.996104 0.887055
O O3 0.881952 0.886485 0.929188
O O4 0.000000 0.000000 0.000000
O O5 0.841205 0.108619 0.227726
O O6 0.916393 0.109236 0.523364
O O7 0.684367 0.750000 0.692714
O O8 0.598507 0.829557 0.465795
O O9 0.857164 0.832842 0.550133
O O10 0.971518 0.250000 0.592989
O O11 0.087298 0.349378 0.756322
O O12 0.115163 0.250000 0.973466
#
# Coordination Sequence:
#
# PCOD9464583 Si02
#       5
#     8   8   8   8   8
#     4  11  26  46  67  94 128 170 217 265 323 385
#     4  11  22  43  64  90 124 169 218 259 321 376
#     4   9  18  35  58  92 130 163 208 259 310 375
#     4  10  20  35  62  98 131 170 212 262 321 378
#     4   9  21  39  64  94 131 167 211 265 320 378
#
# _framework density 26.280857000000001
#
# number of rings (size 3 to 8) (size 9 to 14) (size 15 to 20)
#    0.000    2.000    2.000    0.600    2.800    4.000 
#    3.600    2.000    0.000    0.000    0.000    0.000 
#    0.000    0.000    0.000    0.000    0.000    0.000 
#
# Total GULP energy -223948.883178 kJ/mol
# GULP energy per Si atom -5598.722079 kJ/mol
# Density = 2.622104 g / cm^3
# Si number density = 26.280857 Si / 1000 Ang^3
#
#
#
# Elastic Constant Matrix: (Units=GPa)
#
#
# Indices 1 2 3 4 5 6 
#
# 1 113.4631 25.6203 10.5821 0.0000 0.0000 0.0000
# 2 25.6203 90.1605 29.5528 0.0000 0.0000 0.0000
# 3 10.5821 29.5528 72.8238 0.0000 0.0000 0.0000
# 4 0.0000 0.0000 0.0000 38.2892 0.0000 0.0000
# 5 0.0000 0.0000 0.0000 0.0000 39.6424 0.0000
# 6 0.0000 0.0000 0.0000 0.0000 0.0000 29.9424
#
#
#
# Elastic Compliance Matrix: (Units=1/GPa)
#
#
# Indices 1 2 3 4 5 6 
#
# 1 0.009424 -0.002571 -0.000326 0.000000 0.000000 0.000000
# 2 -0.002571 0.013495 -0.005103 0.000000 0.000000 0.000000
# 3 -0.000326 -0.005103 0.015850 0.000000 0.000000 0.000000
# 4 0.000000 0.000000 0.000000 0.026117 0.000000 0.000000
# 5 0.000000 0.000000 0.000000 0.000000 0.025225 0.000000
# 6 0.000000 0.000000 0.000000 0.000000 0.000000 0.033397
#
#
# Mechanical properties :
#
#
# Convention : Reuss Voigt Hill
#
# Bulk Modulus (GPa) = 43.91922 45.32862 44.62392
# Shear Modulus (GPa) = 33.99089 35.62095 34.80592
#
# Velocity S-wave (km/s) = 3.60025 3.68556 3.64316
# Velocity P-wave (km/s) = 5.83354 5.94949 5.89180
#
# Compressibility (1/GPa) = 0.02276907
#
# Stress axis : x y z
#
# Youngs Moduli (GPa) = 106.10719 74.10420 63.09203
#
# Poissons Ratio (x) = 0.19054 0.02057
# Poissons Ratio (y) = 0.27282 0.32193
# Poissons Ratio (z) = 0.03460 0.37813
#
# Static dielectric constant tensor:
#      x y z
#    x 2.156190 0.000000 0.000000 
#    y 0.000000 2.085030 0.000000 
#    z 0.000000 0.000000 1.989370 
# 
# From -- ./inp_files/4284.got.cif
#   From: 2010.05.17/outbox.cif.g08.bks.cpg/sg62_3_cif.got.tgz:4284.got - 2010.06.03 15:25:27.
