data_PCOD9464515
_publ_section_title
;
Structure prediction by ZEFSAII (Michael W. Deem and Ramdas Pophale) SiO2 
 PCOD9464515
Probable space group: P N M A
;
_chemical_formula_sum "Si O2"
_cell_formula_units_Z 40
_cell_length_a 10.922947
_cell_length_b 7.663967
_cell_length_c 20.413662
_cell_angle_alpha 90.000000
_cell_angle_beta 90.000000
_cell_angle_gamma 90.000000
_cell_volume 1708.891038
_symmetry_space_group_name_H-M "P N M A"
_symmetry_group_IT_number 62
_symmetry_cell_setting 'orthorhombic'
loop_
_space_group_symop_operation_xyz
x,y,z
1/2-x,-y,1/2+z
1/2+x,1/2-y,1/2-z
-x,1/2+y,-z
-x,-y,-z
1/2+x,y,1/2-z
1/2-x,1/2+y,1/2+z
x,1/2-y,z
loop_
_atom_site_type_symbol
_atom_site_label
_atom_site_fract_x
_atom_site_fract_y
_atom_site_fract_z
Si Si1 0.671291 0.960174 0.552855
Si Si2 0.032708 0.045170 0.706814
Si Si3 0.408399 0.542203 0.594419
Si Si4 0.055195 0.458030 0.429374
Si Si5 0.206780 0.952053 0.228569
O O1 0.671918 0.750000 0.557164
O O2 0.549883 0.021284 0.591201
O O3 0.804309 0.024018 0.575259
O O4 0.649093 0.006956 0.476803
O O5 0.031960 0.250000 0.724759
O O6 0.906647 0.965226 0.733100
O O7 0.158506 0.967851 0.734374
O O8 0.027006 0.032512 0.628658
O O9 0.408153 0.750000 0.605233
O O10 0.333095 0.457359 0.652730
O O11 0.056789 0.250000 0.421853
O O12 0.000000 0.500000 0.500000
O O13 0.216391 0.750000 0.249615
#
# Coordination Sequence:
#
# PCOD9464515 Si02
#       5
#     8   8   8   8   8
#     4   9  20  37  56  83 118 153 190 236 289 343
#     4  10  23  41  61  87 118 155 197 239 290 347
#     4  10  20  35  58  87 116 150 193 238 287 342
#     4  11  23  39  60  86 118 154 195 243 294 345
#     4  10  22  40  60  84 117 154 192 238 289 344
#
# _framework density 23.406993
#
# number of rings (size 3 to 8) (size 9 to 14) (size 15 to 20)
#    0.000    2.000    0.000    2.400    2.800    8.800 
#    0.000    0.000    0.000    0.000    0.000    0.000 
#    0.000    0.000    0.000    0.000    0.000    0.000 
#
# Total GULP energy -223653.824994 kJ/mol
# GULP energy per Si atom -5591.345625 kJ/mol
# Density = 2.335372 g / cm^3
# Si number density = 23.406993 Si / 1000 Ang^3
#
#
#
# Elastic Constant Matrix: (Units=GPa)
#
#
# Indices 1 2 3 4 5 6 
#
# 1 186.3566 12.1042 42.3885 0.0000 0.0000 0.0000
# 2 12.1042 55.1818 -13.6532 0.0000 0.0000 0.0000
# 3 42.3885 -13.6532 49.5060 0.0000 0.0000 0.0000
# 4 0.0000 0.0000 0.0000 18.2610 0.0000 0.0000
# 5 0.0000 0.0000 0.0000 0.0000 29.2635 0.0000
# 6 0.0000 0.0000 0.0000 0.0000 0.0000 11.0424
#
#
#
# Elastic Compliance Matrix: (Units=1/GPa)
#
#
# Indices 1 2 3 4 5 6 
#
# 1 0.007192 -0.003328 -0.007076 0.000000 0.000000 0.000000
# 2 -0.003328 0.020989 0.008638 0.000000 0.000000 0.000000
# 3 -0.007076 0.008638 0.028640 0.000000 0.000000 0.000000
# 4 0.000000 0.000000 0.000000 0.054762 0.000000 0.000000
# 5 0.000000 0.000000 0.000000 0.000000 0.034172 0.000000
# 6 0.000000 0.000000 0.000000 0.000000 0.000000 0.090560
#
#
# Mechanical properties :
#
#
# Convention : Reuss Voigt Hill
#
# Bulk Modulus (GPa) = 18.76515 41.41371 30.08943
# Shear Modulus (GPa) = 19.40922 28.39368 23.90145
#
# Velocity S-wave (km/s) = 2.88272 3.48665 3.19897
# Velocity P-wave (km/s) = 4.37200 5.82583 5.15047
#
# Compressibility (1/GPa) = 0.05329027
#
# Stress axis : x y z
#
# Youngs Moduli (GPa) = 139.05069 47.64339 34.91593
#
# Poissons Ratio (x) = 0.15856 0.24705
# Poissons Ratio (y) = 0.46278 -0.30161
# Poissons Ratio (z) = 0.98386 -0.41156
#
# Static dielectric constant tensor:
#      x y z
#    x 1.960170 0.000000 0.000000 
#    y 0.000000 1.861510 0.000000 
#    z 0.000000 0.000000 1.845000 
# 
# From -- ./inp_files/22794.got.cif
#   From: 2010.05.17/outbox.cif.g08.bks.cpg/sg62_12_cif.got.tgz:22794.got - 2010.06.03 15:25:27.
