data_PCOD9464720
_publ_section_title
;
Structure prediction by ZEFSAII (Michael W. Deem and Ramdas Pophale) SiO2 
 PCOD9464720
Probable space group: P N M A
;
_chemical_formula_sum "Si O2"
_cell_formula_units_Z 64
_cell_length_a 10.119675
_cell_length_b 11.415701
_cell_length_c 28.845378
_cell_angle_alpha 90.000000
_cell_angle_beta 90.000000
_cell_angle_gamma 90.000000
_cell_volume 3332.309911
_symmetry_space_group_name_H-M "P N M A"
_symmetry_group_IT_number 62
_symmetry_cell_setting 'orthorhombic'
loop_
_space_group_symop_operation_xyz
x,y,z
1/2-x,-y,1/2+z
1/2+x,1/2-y,1/2-z
-x,1/2+y,-z
-x,-y,-z
1/2+x,y,1/2-z
1/2-x,1/2+y,1/2+z
x,1/2-y,z
loop_
_atom_site_type_symbol
_atom_site_label
_atom_site_fract_x
_atom_site_fract_y
_atom_site_fract_z
Si Si1 0.117570 0.620117 0.254112
Si Si2 0.835533 0.109269 0.469384
Si Si3 0.327649 0.109492 0.371212
Si Si4 0.368208 0.477902 0.268193
Si Si5 0.834339 0.120722 0.328313
Si Si6 0.396069 0.494482 0.933122
Si Si7 0.111624 0.386474 0.101567
Si Si8 0.977657 0.622661 0.351951
O O1 0.099241 0.750000 0.234598
O O2 0.268433 0.580442 0.251897
O O3 0.076229 0.622766 0.308206
O O4 0.016042 0.528743 0.231483
O O5 0.831919 0.250000 0.471783
O O6 0.715809 0.066634 0.436190
O O7 0.975944 0.069850 0.447982
O O8 0.829386 0.053132 0.520205
O O9 0.330199 0.250000 0.370743
O O10 0.324017 0.067284 0.318045
O O11 0.205326 0.065795 0.401344
O O12 0.465701 0.063034 0.393110
O O13 0.350940 0.384704 0.226929
O O14 0.884854 0.250000 0.344621
O O15 0.687118 0.112606 0.349023
O O16 0.901641 0.000883 0.346055
O O17 0.448525 0.389873 0.900660
O O18 0.093731 0.250000 0.089091
O O19 0.906655 0.750000 0.350284
#
# Coordination Sequence:
#
# PCOD9464720 Si02
#       8
#     8   8   8   8   8   8   8   8
#     4  10  21  37  57  81 118 161 203 244 300 361
#     4  10  21  38  62  88 115 154 203 257 315 371
#     4  11  23  38  57  87 125 161 201 255 311 367
#     4  11  21  37  56  89 118 161 207 255 296 356
#     4  10  20  36  60  87 120 164 207 249 298 359
#     4  11  21  37  61  91 115 155 204 257 306 371
#     4   9  19  37  58  83 121 161 197 246 313 370
#     4  10  20  36  58  87 120 156 198 253 305 355
#
# _framework density 19.205898999999999
#
# number of rings (size 3 to 8) (size 9 to 14) (size 15 to 20)
#    0.000    1.750    2.500    2.250    0.000    1.500 
#    0.000    1.250    0.000    1.500    0.000    0.000 
#    0.000    0.000    0.000    0.000    0.000    0.000 
#
# Total GULP energy -356758.171491 kJ/mol
# GULP energy per Si atom -5574.346430 kJ/mol
# Density = 1.916219 g / cm^3
# Si number density = 19.205899 Si / 1000 Ang^3
#
#
#
# Elastic Constant Matrix: (Units=GPa)
#
#
# Indices 1 2 3 4 5 6 
#
# 1 63.8168 23.2938 31.8008 0.0000 0.0000 0.0000
# 2 23.2938 94.5840 31.3117 0.0000 0.0000 0.0000
# 3 31.8008 31.3117 122.5925 0.0000 0.0000 0.0000
# 4 0.0000 0.0000 0.0000 1.4279 0.0000 0.0000
# 5 0.0000 0.0000 0.0000 0.0000 25.2321 0.0000
# 6 0.0000 0.0000 0.0000 0.0000 0.0000 17.2637
#
#
#
# Elastic Compliance Matrix: (Units=1/GPa)
#
#
# Indices 1 2 3 4 5 6 
#
# 1 0.018900 -0.003312 -0.004057 0.000000 0.000000 0.000000
# 2 -0.003312 0.012129 -0.002239 0.000000 0.000000 0.000000
# 3 -0.004057 -0.002239 0.009781 0.000000 0.000000 0.000000
# 4 0.000000 0.000000 0.000000 0.700337 0.000000 0.000000
# 5 0.000000 0.000000 0.000000 0.000000 0.039632 0.000000
# 6 0.000000 0.000000 0.000000 0.000000 0.000000 0.057925
#
#
# Mechanical properties :
#
#
# Convention : Reuss Voigt Hill
#
# Bulk Modulus (GPa) = 46.30505 50.42287 48.36396
# Shear Modulus (GPa) = 5.77955 21.75719 13.76837
#
# Velocity S-wave (km/s) = 1.73660 3.36942 2.68037
# Velocity P-wave (km/s) = 5.30879 6.43802 5.90048
#
# Compressibility (1/GPa) = 0.02159592
#
# Stress axis : x y z
#
# Youngs Moduli (GPa) = 52.90930 82.44435 102.23540
#
# Poissons Ratio (x) = 0.27303 0.41476
# Poissons Ratio (y) = 0.17522 0.22890
# Poissons Ratio (z) = 0.21465 0.18459
#
# Static dielectric constant tensor:
#      x y z
#    x 1.679980 0.000000 0.000000 
#    y 0.000000 1.689280 0.000000 
#    z 0.000000 0.000000 1.683970 
# 
# From -- ./inp_files/32247.got.cif
#   From: 2010.05.17/outbox.cif.g08.bks.cpg/sg62_17_cif.got.tgz:32247.got - 2010.06.03 15:25:27.
