data_PCOD9464459
_publ_section_title
;
Structure prediction by ZEFSAII (Michael W. Deem and Ramdas Pophale) SiO2 
 PCOD9464459
Probable space group: P N M A
;
_chemical_formula_sum "Si O2"
_cell_formula_units_Z 48
_cell_length_a 9.604811
_cell_length_b 8.707801
_cell_length_c 31.312242
_cell_angle_alpha 90.000000
_cell_angle_beta 90.000000
_cell_angle_gamma 90.000000
_cell_volume 2618.855184
_symmetry_space_group_name_H-M "P N M A"
_symmetry_group_IT_number 62
_symmetry_cell_setting 'orthorhombic'
loop_
_space_group_symop_operation_xyz
x,y,z
1/2-x,-y,1/2+z
1/2+x,1/2-y,1/2-z
-x,1/2+y,-z
-x,-y,-z
1/2+x,y,1/2-z
1/2-x,1/2+y,1/2+z
x,1/2-y,z
loop_
_atom_site_type_symbol
_atom_site_label
_atom_site_fract_x
_atom_site_fract_y
_atom_site_fract_z
Si Si1 0.911633 0.933761 0.883649
Si Si2 0.603268 0.434235 0.882788
Si Si3 0.612676 0.431972 0.785530
Si Si4 0.411848 0.934356 0.460599
Si Si5 0.089366 0.935597 0.460884
Si Si6 0.584385 0.432036 0.285435
O O1 0.916044 0.750000 0.887912
O O2 0.948873 0.974344 0.834636
O O3 0.753121 0.989468 0.891332
O O4 0.014846 0.009514 0.917346
O O5 0.621248 0.250000 0.886352
O O6 0.562091 0.467794 0.833774
O O7 0.488044 0.482273 0.917103
O O8 0.641374 0.250000 0.783750
O O9 0.754898 0.524380 0.779120
O O10 0.505723 0.479096 0.749170
O O11 0.414837 0.750000 0.462346
O O12 0.250430 0.985072 0.462688
O O13 0.500000 0.000000 0.500000
O O14 0.088038 0.750000 0.462855
O O15 0.000000 0.000000 0.500000
O O16 0.564030 0.250000 0.280521
#
# Coordination Sequence:
#
# PCOD9464459 Si02
#       6
#     8   8   8   8   8   8
#     4  10  21  37  57  82 111 145 184 224 272 330
#     4   9  19  37  58  80 108 142 180 226 277 325
#     4  10  20  35  57  83 110 145 189 232 276 332
#     4  11  23  38  57  82 112 145 182 226 274 327
#     4  10  22  38  56  80 108 139 177 221 270 322
#     4  10  21  37  56  81 115 150 184 229 284 336
#
# _framework density 18.328617999999999
#
# number of rings (size 3 to 8) (size 9 to 14) (size 15 to 20)
#    0.000    2.000    0.000    3.000    0.000    8.667 
#    0.000    1.667    0.000    0.000    0.000    0.000 
#    0.000    0.000    0.000    0.000    0.000    0.000 
#
# Total GULP energy -268070.634877 kJ/mol
# GULP energy per Si atom -5584.804893 kJ/mol
# Density = 1.828690 g / cm^3
# Si number density = 18.328618 Si / 1000 Ang^3
#
#
#
# Elastic Constant Matrix: (Units=GPa)
#
#
# Indices 1 2 3 4 5 6 
#
# 1 126.2205 29.0668 93.7090 0.0000 0.0000 0.0000
# 2 29.0668 27.5280 30.1297 0.0000 0.0000 0.0000
# 3 93.7090 30.1297 120.0768 0.0000 0.0000 0.0000
# 4 0.0000 0.0000 0.0000 33.5424 0.0000 0.0000
# 5 0.0000 0.0000 0.0000 0.0000 41.7232 0.0000
# 6 0.0000 0.0000 0.0000 0.0000 0.0000 30.1115
#
#
#
# Elastic Compliance Matrix: (Units=1/GPa)
#
#
# Indices 1 2 3 4 5 6 
#
# 1 0.019401 -0.005396 -0.013787 0.000000 0.000000 0.000000
# 2 -0.005396 0.051581 -0.008732 0.000000 0.000000 0.000000
# 3 -0.013787 -0.008732 0.021278 0.000000 0.000000 0.000000
# 4 0.000000 0.000000 0.000000 0.029813 0.000000 0.000000
# 5 0.000000 0.000000 0.000000 0.000000 0.023967 0.000000
# 6 0.000000 0.000000 0.000000 0.000000 0.000000 0.033210
#
#
# Mechanical properties :
#
#
# Convention : Reuss Voigt Hill
#
# Bulk Modulus (GPa) = 27.44860 64.40403 45.92632
# Shear Modulus (GPa) = 20.22469 29.13674 24.68072
#
# Velocity S-wave (km/s) = 3.32542 3.99141 3.67354
# Velocity P-wave (km/s) = 5.45462 7.51376 6.56542
#
# Compressibility (1/GPa) = 0.03643173
#
# Stress axis : x y z
#
# Youngs Moduli (GPa) = 51.54470 19.38691 46.99643
#
# Poissons Ratio (x) = 0.10460 0.64792
# Poissons Ratio (y) = 0.27811 0.41037
# Poissons Ratio (z) = 0.71062 0.16929
#
# Static dielectric constant tensor:
#      x y z
#    x 1.594680 0.000000 0.000000 
#    y 0.000000 1.616590 0.000000 
#    z 0.000000 0.000000 1.625190 
# 
# From -- ./inp_files/31956.got.cif
#   From: 2010.05.17/outbox.cif.g08.bks.cpg/sg62_16_cif.got.tgz:31956.got - 2010.06.03 15:25:27.
