data_PCOD9464424
_publ_section_title
;
Structure prediction by ZEFSAII (Michael W. Deem and Ramdas Pophale) SiO2 
 PCOD9464424
Probable space group: P N M A
;
_chemical_formula_sum "Si O2"
_cell_formula_units_Z 64
_cell_length_a 26.434614
_cell_length_b 12.681929
_cell_length_c 10.113452
_cell_angle_alpha 90.000000
_cell_angle_beta 90.000000
_cell_angle_gamma 90.000000
_cell_volume 3390.452843
_symmetry_space_group_name_H-M "P N M A"
_symmetry_group_IT_number 62
_symmetry_cell_setting 'orthorhombic'
loop_
_space_group_symop_operation_xyz
x,y,z
1/2-x,-y,1/2+z
1/2+x,1/2-y,1/2-z
-x,1/2+y,-z
-x,-y,-z
1/2+x,y,1/2-z
1/2-x,1/2+y,1/2+z
x,1/2-y,z
loop_
_atom_site_type_symbol
_atom_site_label
_atom_site_fract_x
_atom_site_fract_y
_atom_site_fract_z
Si Si1 0.584391 0.963513 0.258410
Si Si2 0.238461 0.129902 0.085771
Si Si3 0.057054 0.964937 0.959879
Si Si4 0.833737 0.866657 0.682040
Si Si5 0.412971 0.366376 0.016148
Si Si6 0.495142 0.368351 0.223449
Si Si7 0.829589 0.533304 0.405005
Si Si8 0.645787 0.124944 0.618491
O O1 0.632385 0.039300 0.239112
O O2 0.537537 0.043355 0.236202
O O3 0.580154 0.917933 0.405448
O O4 0.584421 0.880447 0.140803
O O5 0.255892 0.250000 0.055597
O O6 0.217926 0.128671 0.235840
O O7 0.281578 0.043024 0.075707
O O8 0.190596 0.108631 0.989088
O O9 0.047583 0.890316 0.834768
O O10 0.095255 0.059421 0.919921
O O11 0.000000 0.000000 0.000000
O O12 0.855668 0.750000 0.708505
O O13 0.828554 0.884511 0.526006
O O14 0.393286 0.250000 0.050704
O O15 0.467792 0.375662 0.082637
O O16 0.378153 0.458659 0.072469
O O17 0.515268 0.250000 0.242025
O O18 0.834402 0.586113 0.261572
O O19 0.634732 0.250000 0.621481
#
# Coordination Sequence:
#
# PCOD9464424 Si02
#       8
#     8   8   8   8   8   8   8   8
#     4  10  20  35  59  80 114 146 190 235 285 341
#     4  10  21  37  60  84 112 152 196 240 294 349
#     4  10  21  37  58  86 116 151 193 244 299 352
#     4  10  20  35  56  84 110 145 190 236 286 343
#     4  10  21  36  56  80 114 151 189 235 287 346
#     4  10  20  36  57  82 112 149 188 230 288 350
#     4  11  21  37  58  84 118 151 192 241 294 342
#     4  11  22  39  62  89 120 155 199 245 292 349
#
# _framework density 18.876533999999999
#
# number of rings (size 3 to 8) (size 9 to 14) (size 15 to 20)
#    0.000    1.750    2.500    2.250    0.000    2.500 
#    0.000    1.875    0.000    1.500    0.000    0.000 
#    0.000    0.000    0.000    0.000    0.000    0.000 
#
# Total GULP energy -356896.618702 kJ/mol
# GULP energy per Si atom -5576.509667 kJ/mol
# Density = 1.883357 g / cm^3
# Si number density = 18.876534 Si / 1000 Ang^3
#
#
#
# Elastic Constant Matrix: (Units=GPa)
#
#
# Indices 1 2 3 4 5 6 
#
# 1 52.9492 8.2124 -3.5023 0.0000 0.0000 0.0000
# 2 8.2124 41.4906 -9.6028 0.0000 0.0000 0.0000
# 3 -3.5023 -9.6028 73.8752 0.0000 0.0000 0.0000
# 4 0.0000 0.0000 0.0000 15.8272 0.0000 0.0000
# 5 0.0000 0.0000 0.0000 0.0000 18.6177 0.0000
# 6 0.0000 0.0000 0.0000 0.0000 0.0000 60.8134
#
#
#
# Elastic Compliance Matrix: (Units=1/GPa)
#
#
# Indices 1 2 3 4 5 6 
#
# 1 0.019498 -0.003758 0.000436 0.000000 0.000000 0.000000
# 2 -0.003758 0.025574 0.003146 0.000000 0.000000 0.000000
# 3 0.000436 0.003146 0.013966 0.000000 0.000000 0.000000
# 4 0.000000 0.000000 0.000000 0.063182 0.000000 0.000000
# 5 0.000000 0.000000 0.000000 0.000000 0.053712 0.000000
# 6 0.000000 0.000000 0.000000 0.000000 0.000000 0.016444
#
#
# Mechanical properties :
#
#
# Convention : Reuss Voigt Hill
#
# Bulk Modulus (GPa) = 17.04022 17.61439 17.32731
# Shear Modulus (GPa) = 23.55261 30.59884 27.07572
#
# Velocity S-wave (km/s) = 3.53614 4.03053 3.79140
# Velocity P-wave (km/s) = 5.07141 5.56883 5.32593
#
# Compressibility (1/GPa) = 0.05868467
#
# Stress axis : x y z
#
# Youngs Moduli (GPa) = 51.28784 39.10232 71.60270
#
# Poissons Ratio (x) = 0.14696 -0.03121
# Poissons Ratio (y) = 0.19276 -0.22527
# Poissons Ratio (z) = -0.02235 -0.12302
#
# Static dielectric constant tensor:
#      x y z
#    x 1.655410 0.000000 0.000000 
#    y 0.000000 1.633910 0.000000 
#    z 0.000000 0.000000 1.673110 
# 
# From -- ./inp_files/9515.got.cif
#   From: 2010.05.17/outbox.cif.g08.bks.cpg/sg62_5_cif.got.tgz:9515.got - 2010.06.03 15:25:27.
