data_PCOD9464279
_publ_section_title
;
Structure prediction by ZEFSAII (Michael W. Deem and Ramdas Pophale) SiO2 
 PCOD9464279
Probable space group: P N M A
;
_chemical_formula_sum "Si O2"
_cell_formula_units_Z 48
_cell_length_a 18.885533
_cell_length_b 15.626876
_cell_length_c 8.895166
_cell_angle_alpha 90.000000
_cell_angle_beta 90.000000
_cell_angle_gamma 90.000000
_cell_volume 2625.158134
_symmetry_space_group_name_H-M "P N M A"
_symmetry_group_IT_number 62
_symmetry_cell_setting 'orthorhombic'
loop_
_space_group_symop_operation_xyz
x,y,z
1/2-x,-y,1/2+z
1/2+x,1/2-y,1/2-z
-x,1/2+y,-z
-x,-y,-z
1/2+x,y,1/2-z
1/2-x,1/2+y,1/2+z
x,1/2-y,z
loop_
_atom_site_type_symbol
_atom_site_label
_atom_site_fract_x
_atom_site_fract_y
_atom_site_fract_z
Si Si1 0.788275 0.912914 0.561524
Si Si2 0.441076 0.651532 0.012507
Si Si3 0.726678 0.250000 0.592472
Si Si4 0.554389 0.750000 0.551988
Si Si5 0.732880 0.913403 0.894692
Si Si6 0.578016 0.652103 0.840904
Si Si7 0.209415 0.750000 0.082234
Si Si8 0.564243 0.250000 0.697216
O O1 0.870987 0.900130 0.524690
O O2 0.775020 0.915260 0.738930
O O3 0.746741 0.832458 0.491358
O O4 0.760282 0.999199 0.485884
O O5 0.431004 0.750000 0.951347
O O6 0.448604 0.669370 0.190603
O O7 0.512256 0.617518 0.936175
O O8 0.741928 0.166298 0.494215
O O9 0.775280 0.250000 0.740875
O O10 0.645588 0.250000 0.648011
O O11 0.556251 0.669750 0.667926
O O12 0.627000 0.750000 0.458947
O O13 0.488098 0.750000 0.442446
O O14 0.650035 0.899152 0.855578
O O15 0.592599 0.750000 0.898345
#
# Coordination Sequence:
#
# PCOD9464279 Si02
#       8
#     8   8   4   4   8   8   4   4
#     4  12  23  43  64  93 126 167 212 263 314 373
#     4   9  20  38  63  87 127 164 206 248 320 375
#     4  12  24  39  67  95 126 167 211 260 318 372
#     4  10  20  34  67  95 127 161 211 254 310 381
#     4  12  26  40  66  94 126 168 218 261 315 375
#     4   9  19  40  60  92 121 166 207 251 313 380
#     4  12  21  42  67  93 127 169 199 271 314 366
#     4  10  21  35  63  99 122 163 211 253 308 391
#
# _framework density 18.284613
#
# number of rings (size 3 to 8) (size 9 to 14) (size 15 to 20)
#    1.000    0.333    5.000    1.500    4.667    0.667 
#    0.000    0.000    0.000    3.000    0.000    0.000 
#    0.000    0.000    0.000    0.000    0.000    0.000 
#
# Total GULP energy -267801.197901 kJ/mol
# GULP energy per Si atom -5579.191623 kJ/mol
# Density = 1.824300 g / cm^3
# Si number density = 18.284613 Si / 1000 Ang^3
#
#
#
# Elastic Constant Matrix: (Units=GPa)
#
#
# Indices 1 2 3 4 5 6 
#
# 1 70.1696 18.5888 49.6207 0.0000 0.0000 0.0000
# 2 18.5888 80.3534 43.3505 0.0000 0.0000 0.0000
# 3 49.6207 43.3505 155.7542 0.0000 0.0000 0.0000
# 4 0.0000 0.0000 0.0000 23.3231 0.0000 0.0000
# 5 0.0000 0.0000 0.0000 0.0000 42.0970 0.0000
# 6 0.0000 0.0000 0.0000 0.0000 0.0000 -26.5239
#
#
#
# Elastic Compliance Matrix: (Units=1/GPa)
#
#
# Indices 1 2 3 4 5 6 
#
# 1 0.018509 -0.001295 -0.005536 0.000000 0.000000 0.000000
# 2 -0.001295 0.014735 -0.003688 0.000000 0.000000 0.000000
# 3 -0.005536 -0.003688 0.009211 0.000000 0.000000 0.000000
# 4 0.000000 0.000000 0.000000 0.042876 0.000000 0.000000
# 5 0.000000 0.000000 0.000000 0.000000 0.023755 0.000000
# 6 0.000000 0.000000 0.000000 0.000000 0.000000 -0.037702
#
#
# Mechanical properties :
#
#
# Convention : Reuss Voigt Hill
#
# Bulk Modulus (GPa) = 46.69636 58.82192 52.75914
# Shear Modulus (GPa) = 50.22042 20.76040 35.49041
#
# Velocity S-wave (km/s) = 5.24648 3.37323 4.41046
# Velocity P-wave (km/s) = 7.89271 6.88561 7.40629
#
# Compressibility (1/GPa) = 0.02141494
#
# Stress axis : x y z
#
# Youngs Moduli (GPa) = 54.02698 67.86783 108.56902
#
# Poissons Ratio (x) = 0.08789 0.60107
# Poissons Ratio (y) = 0.06997 0.40045
# Poissons Ratio (z) = 0.29911 0.25032
#
# Static dielectric constant tensor:
#      x y z
#    x 1.611620 0.000000 0.000000 
#    y 0.000000 1.635030 0.000000 
#    z 0.000000 0.000000 1.617260 
# 
# From -- ./inp_files/7873.got.cif
#   From: 2010.05.17/outbox.cif.g08.bks.cpg/sg62_4_cif.got.tgz:7873.got - 2010.06.03 15:25:27.
