data_PCOD9464082
_publ_section_title
;
Structure prediction by ZEFSAII (Michael W. Deem and Ramdas Pophale) SiO2 
 PCOD9464082
Probable space group: P N M A
;
_chemical_formula_sum "Si O2"
_cell_formula_units_Z 64
_cell_length_a 9.469109
_cell_length_b 14.638624
_cell_length_c 25.962901
_cell_angle_alpha 90.000000
_cell_angle_beta 90.000000
_cell_angle_gamma 90.000000
_cell_volume 3598.840415
_symmetry_space_group_name_H-M "P N M A"
_symmetry_group_IT_number 62
_symmetry_cell_setting 'orthorhombic'
loop_
_space_group_symop_operation_xyz
x,y,z
1/2-x,-y,1/2+z
1/2+x,1/2-y,1/2-z
-x,1/2+y,-z
-x,-y,-z
1/2+x,y,1/2-z
1/2-x,1/2+y,1/2+z
x,1/2-y,z
loop_
_atom_site_type_symbol
_atom_site_label
_atom_site_fract_x
_atom_site_fract_y
_atom_site_fract_z
Si Si1 0.018051 0.143175 0.310233
Si Si2 0.604844 0.413530 0.996325
Si Si3 0.016752 0.475544 0.121077
Si Si4 0.310877 0.533910 0.893784
Si Si5 0.418153 0.854470 0.522361
Si Si6 0.641410 0.856771 0.429575
Si Si7 0.185238 0.357075 0.203653
Si Si8 0.341327 0.150352 0.950273
O O1 0.028271 0.250000 0.326053
O O2 0.079475 0.079172 0.354778
O O3 0.115405 0.131750 0.259764
O O4 0.853507 0.125087 0.297459
O O5 0.679321 0.410667 0.051896
O O6 0.500000 0.500000 0.000000
O O7 0.719034 0.407066 0.951028
O O8 0.487734 0.341154 0.980300
O O9 0.050824 0.424297 0.067424
O O10 0.067627 0.579949 0.113276
O O11 0.103577 0.423136 0.164722
O O12 0.848359 0.466096 0.127685
O O13 0.347705 0.429132 0.908110
O O14 0.405982 0.750000 0.541965
O O15 0.537438 0.856173 0.478750
O O16 0.275649 0.878878 0.492030
O O17 0.666805 0.750000 0.415643
O O18 0.164871 0.250000 0.188967
O O19 0.298274 0.250000 0.929836
#
# Coordination Sequence:
#
# PCOD9464082 Si02
#       8
#     8   8   8   8   8   8   8   8
#     4  10  23  42  62  85 113 140 179 235 290 344
#     4  10  21  35  52  79 116 156 194 236 277 328
#     4  12  21  35  58  83 113 151 191 235 278 337
#     4  11  22  35  56  83 114 151 192 230 285 337
#     4  10  20  34  53  80 115 154 195 231 271 325
#     4  11  22  36  54  82 119 159 196 231 272 328
#     4  10  23  42  63  86 110 141 181 233 292 344
#     4  10  21  36  53  79 118 157 193 231 272 325
#
# _framework density 17.783507
#
# number of rings (size 3 to 8) (size 9 to 14) (size 15 to 20)
#    0.000    1.500    2.500    3.375    5.250    3.000 
#    0.000    0.000    0.000    0.750    0.000    0.000 
#    0.000    0.000    0.000    0.000    0.000    0.000 
#
# Total GULP energy -356933.697243 kJ/mol
# GULP energy per Si atom -5577.089019 kJ/mol
# Density = 1.774303 g / cm^3
# Si number density = 17.783507 Si / 1000 Ang^3
#
#
#
# Elastic Constant Matrix: (Units=GPa)
#
#
# Indices 1 2 3 4 5 6 
#
# 1 112.0699 28.3489 17.4863 0.0000 0.0000 0.0000
# 2 28.3489 101.5196 37.2565 0.0000 0.0000 0.0000
# 3 17.4863 37.2565 45.7039 0.0000 0.0000 0.0000
# 4 0.0000 0.0000 0.0000 35.3130 0.0000 0.0000
# 5 0.0000 0.0000 0.0000 0.0000 32.1055 0.0000
# 6 0.0000 0.0000 0.0000 0.0000 0.0000 24.1480
#
#
#
# Elastic Compliance Matrix: (Units=1/GPa)
#
#
# Indices 1 2 3 4 5 6 
#
# 1 0.009748 -0.001931 -0.002155 0.000000 0.000000 0.000000
# 2 -0.001931 0.014437 -0.011030 0.000000 0.000000 0.000000
# 3 -0.002155 -0.011030 0.031696 0.000000 0.000000 0.000000
# 4 0.000000 0.000000 0.000000 0.028318 0.000000 0.000000
# 5 0.000000 0.000000 0.000000 0.000000 0.031147 0.000000
# 6 0.000000 0.000000 0.000000 0.000000 0.000000 0.041411
#
#
# Mechanical properties :
#
#
# Convention : Reuss Voigt Hill
#
# Bulk Modulus (GPa) = 38.98915 47.27520 43.13217
# Shear Modulus (GPa) = 25.57011 30.06008 27.81510
#
# Velocity S-wave (km/s) = 3.79602 4.11583 3.95915
# Velocity P-wave (km/s) = 6.41755 7.01628 6.72358
#
# Compressibility (1/GPa) = 0.02564816
#
# Stress axis : x y z
#
# Youngs Moduli (GPa) = 102.58751 69.26410 31.54961
#
# Poissons Ratio (x) = 0.13375 0.06800
# Poissons Ratio (y) = 0.19810 0.34800
# Poissons Ratio (z) = 0.22111 0.76400
#
# Static dielectric constant tensor:
#      x y z
#    x 1.647430 0.000000 0.000000 
#    y 0.000000 1.662480 0.000000 
#    z 0.000000 0.000000 1.573800 
# 
# From -- ./inp_files/28979.got.cif
#   From: 2010.05.17/outbox.cif.g08.bks.cpg/sg62_15_cif.got.tgz:28979.got - 2010.06.03 15:25:27.
