data_PCOD9464772
_publ_section_title
;
Structure prediction by ZEFSAII (Michael W. Deem and Ramdas Pophale) SiO2 
 PCOD9464772
Probable space group: P N M A
;
_chemical_formula_sum "Si O2"
_cell_formula_units_Z 48
_cell_length_a 8.919546
_cell_length_b 14.171267
_cell_length_c 15.663862
_cell_angle_alpha 90.000000
_cell_angle_beta 90.000000
_cell_angle_gamma 90.000000
_cell_volume 1979.932017
_symmetry_space_group_name_H-M "P N M A"
_symmetry_group_IT_number 62
_symmetry_cell_setting 'orthorhombic'
loop_
_space_group_symop_operation_xyz
x,y,z
1/2-x,-y,1/2+z
1/2+x,1/2-y,1/2-z
-x,1/2+y,-z
-x,-y,-z
1/2+x,y,1/2-z
1/2-x,1/2+y,1/2+z
x,1/2-y,z
loop_
_atom_site_type_symbol
_atom_site_label
_atom_site_fract_x
_atom_site_fract_y
_atom_site_fract_z
Si Si1 0.488112 0.457631 0.817857
Si Si2 0.663396 0.646939 0.813227
Si Si3 0.508263 0.143068 0.636917
Si Si4 0.993473 0.148908 0.133791
Si Si5 0.287377 0.994371 0.422620
Si Si6 0.319416 0.643453 0.051487
O O1 0.579459 0.552658 0.840413
O O2 0.509153 0.423172 0.721065
O O3 0.316718 0.480620 0.839597
O O4 0.550285 0.377235 0.880661
O O5 0.616713 0.750000 0.850276
O O6 0.619977 0.653261 0.713845
O O7 0.839568 0.637154 0.830696
O O8 0.541873 0.250000 0.662629
O O9 0.634096 0.107254 0.569531
O O10 0.341187 0.139912 0.599069
O O11 0.984717 0.250000 0.087980
O O12 0.932373 0.061312 0.083226
O O13 0.185530 0.054388 0.487264
O O14 0.335397 0.750000 0.014761
#
# Coordination Sequence:
#
# PCOD9464772 Si02
#       6
#     8   8   8   8   8   8
#     4  12  24  42  69 103 136 180 233 289 350 416
#     4  10  21  36  60  96 134 175 226 279 334 399
#     4  11  25  45  71 101 134 180 236 288 344 417
#     4  10  20  36  59  92 133 175 220 272 332 400
#     4  12  24  42  69 100 137 182 227 285 352 415
#     4  11  26  47  69  97 137 183 230 289 357 423
#
# _framework density 24.243258000000001
#
# number of rings (size 3 to 8) (size 9 to 14) (size 15 to 20)
#    0.000    1.000    1.667    5.000    0.000    5.333 
#    0.000    2.500    0.000    0.000    0.000    0.000 
#    0.000    0.000    0.000    0.000    0.000    0.000 
#
# Total GULP energy -268261.502436 kJ/mol
# GULP energy per Si atom -5588.781301 kJ/mol
# Density = 2.418808 g / cm^3
# Si number density = 24.243258 Si / 1000 Ang^3
#
#
#
# Elastic Constant Matrix: (Units=GPa)
#
#
# Indices 1 2 3 4 5 6 
#
# 1 85.5767 47.6704 16.8660 0.0000 0.0000 0.0000
# 2 47.6704 146.2170 31.6368 0.0000 0.0000 0.0000
# 3 16.8660 31.6368 63.8738 0.0000 0.0000 0.0000
# 4 0.0000 0.0000 0.0000 -53.1699 0.0000 0.0000
# 5 0.0000 0.0000 0.0000 0.0000 38.9708 0.0000
# 6 0.0000 0.0000 0.0000 0.0000 0.0000 27.4937
#
#
#
# Elastic Compliance Matrix: (Units=1/GPa)
#
#
# Indices 1 2 3 4 5 6 
#
# 1 0.014434 -0.004347 -0.001658 0.000000 0.000000 0.000000
# 2 -0.004347 0.008969 -0.003295 0.000000 0.000000 0.000000
# 3 -0.001658 -0.003295 0.017726 0.000000 0.000000 0.000000
# 4 0.000000 0.000000 0.000000 -0.018808 0.000000 0.000000
# 5 0.000000 0.000000 0.000000 0.000000 0.025660 0.000000
# 6 0.000000 0.000000 0.000000 0.000000 0.000000 0.036372
#
#
# Mechanical properties :
#
#
# Convention : Reuss Voigt Hill
#
# Bulk Modulus (GPa) = 44.38749 54.22380 49.30564
# Shear Modulus (GPa) = 45.26432 15.95854 30.61143
#
# Velocity S-wave (km/s) = 4.32567 2.56846 3.55727
# Velocity P-wave (km/s) = 6.58009 5.58669 6.10363
#
# Compressibility (1/GPa) = 0.02252887
#
# Stress axis : x y z
#
# Youngs Moduli (GPa) = 69.28231 111.49233 56.41573
#
# Poissons Ratio (x) = 0.48465 0.09355
# Poissons Ratio (y) = 0.30117 0.18587
# Poissons Ratio (z) = 0.11488 0.36733
#
# Static dielectric constant tensor:
#      x y z
#    x 1.874670 0.000000 0.000000 
#    y 0.000000 1.983040 0.000000 
#    z 0.000000 0.000000 1.973330 
# 
# From -- ./inp_files/22218.got.cif
#   From: 2010.05.17/outbox.cif.g08.bks.cpg/sg62_12_cif.got.tgz:22218.got - 2010.06.03 15:25:27.
