data_PCOD9464180
_publ_section_title
;
Structure prediction by ZEFSAII (Michael W. Deem and Ramdas Pophale) SiO2 
 PCOD9464180
Probable space group: P N M A
;
_chemical_formula_sum "Si O2"
_cell_formula_units_Z 48
_cell_length_a 12.189762
_cell_length_b 8.445501
_cell_length_c 24.659967
_cell_angle_alpha 90.000000
_cell_angle_beta 90.000000
_cell_angle_gamma 90.000000
_cell_volume 2538.710242
_symmetry_space_group_name_H-M "P N M A"
_symmetry_group_IT_number 62
_symmetry_cell_setting 'orthorhombic'
loop_
_space_group_symop_operation_xyz
x,y,z
1/2-x,-y,1/2+z
1/2+x,1/2-y,1/2-z
-x,1/2+y,-z
-x,-y,-z
1/2+x,y,1/2-z
1/2-x,1/2+y,1/2+z
x,1/2-y,z
loop_
_atom_site_type_symbol
_atom_site_label
_atom_site_fract_x
_atom_site_fract_y
_atom_site_fract_z
Si Si1 0.028299 0.557441 0.102865
Si Si2 0.740815 0.939714 0.462564
Si Si3 0.333876 0.058363 0.706206
Si Si4 0.370569 0.061796 0.139583
Si Si5 0.890646 0.441702 0.672320
Si Si6 0.218598 0.441315 0.918854
O O1 0.026056 0.750000 0.101887
O O2 0.120800 0.506839 0.059635
O O3 0.074152 0.510796 0.162000
O O4 0.906136 0.500956 0.090455
O O5 0.741631 0.750000 0.463131
O O6 0.828145 0.997304 0.418244
O O7 0.759031 0.003710 0.522503
O O8 0.329051 0.250000 0.705863
O O9 0.361546 0.005254 0.766754
O O10 0.218519 0.996643 0.683582
O O11 0.370572 0.250000 0.138000
O O12 0.490230 0.999471 0.154463
O O13 0.891429 0.250000 0.672722
O O14 0.799033 0.494078 0.629149
O O15 0.216521 0.250000 0.918160
#
# Coordination Sequence:
#
# PCOD9464180 Si02
#       6
#     8   8   8   8   8   8
#     4   8  16  32  56  85 113 142 184 234 283 334
#     4  10  20  37  59  82 112 152 193 235 284 345
#     4   9  19  37  62  86 112 148 193 236 280 341
#     4  11  23  39  59  82 115 152 190 237 287 340
#     4  10  22  37  59  86 115 152 193 235 282 341
#     4  10  20  34  55  87 117 145 186 237 288 336
#
# _framework density 18.907239000000001
#
# number of rings (size 3 to 8) (size 9 to 14) (size 15 to 20)
#    0.000    2.333    0.000    3.500    2.333    2.000 
#    0.000    3.333    0.000    0.000    0.000    0.000 
#    0.000    0.000    0.000    0.000    0.000    0.000 
#
# Total GULP energy -268005.001250 kJ/mol
# GULP energy per Si atom -5583.437526 kJ/mol
# Density = 1.886421 g / cm^3
# Si number density = 18.907239 Si / 1000 Ang^3
#
#
#
# Elastic Constant Matrix: (Units=GPa)
#
#
# Indices 1 2 3 4 5 6 
#
# 1 27.2923 4.6463 31.1669 0.0000 0.0000 0.0000
# 2 4.6463 15.0853 13.5697 0.0000 0.0000 0.0000
# 3 31.1669 13.5697 135.9244 0.0000 0.0000 0.0000
# 4 0.0000 0.0000 0.0000 23.4146 0.0000 0.0000
# 5 0.0000 0.0000 0.0000 0.0000 11.6199 0.0000
# 6 0.0000 0.0000 0.0000 0.0000 0.0000 7.1825
#
#
#
# Elastic Compliance Matrix: (Units=1/GPa)
#
#
# Indices 1 2 3 4 5 6 
#
# 1 0.050064 -0.005596 -0.010921 0.000000 0.000000 0.000000
# 2 -0.005596 0.073456 -0.006050 0.000000 0.000000 0.000000
# 3 -0.010921 -0.006050 0.010465 0.000000 0.000000 0.000000
# 4 0.000000 0.000000 0.000000 0.042708 0.000000 0.000000
# 5 0.000000 0.000000 0.000000 0.000000 0.086059 0.000000
# 6 0.000000 0.000000 0.000000 0.000000 0.000000 0.139227
#
#
# Mechanical properties :
#
#
# Convention : Reuss Voigt Hill
#
# Bulk Modulus (GPa) = 11.25480 30.78532 21.02006
# Shear Modulus (GPa) = 10.48810 17.03801 13.76306
#
# Velocity S-wave (km/s) = 2.35779 3.00515 2.70094
# Velocity P-wave (km/s) = 3.65757 5.32531 4.56819
#
# Compressibility (1/GPa) = 0.08885100
#
# Stress axis : x y z
#
# Youngs Moduli (GPa) = 19.97432 13.61364 95.55523
#
# Poissons Ratio (x) = 0.07618 1.04355
# Poissons Ratio (y) = 0.11178 0.57812
# Poissons Ratio (z) = 0.21814 0.08236
#
# Static dielectric constant tensor:
#      x y z
#    x 1.633450 0.000000 0.000000 
#    y 0.000000 1.645160 0.000000 
#    z 0.000000 0.000000 1.639940 
# 
# From -- ./inp_files/29256.got.cif
#   From: 2010.05.17/outbox.cif.g08.bks.cpg/sg62_15_cif.got.tgz:29256.got - 2010.06.03 15:25:27.
