data_PCOD9464292
_publ_section_title
;
Structure prediction by ZEFSAII (Michael W. Deem and Ramdas Pophale) SiO2 
 PCOD9464292
Probable space group: P N M A
;
_chemical_formula_sum "Si O2"
_cell_formula_units_Z 28
_cell_length_a 5.061363
_cell_length_b 19.375661
_cell_length_c 15.924987
_cell_angle_alpha 90.000000
_cell_angle_beta 90.000000
_cell_angle_gamma 90.000000
_cell_volume 1561.719740
_symmetry_space_group_name_H-M "P N M A"
_symmetry_group_IT_number 62
_symmetry_cell_setting 'orthorhombic'
loop_
_space_group_symop_operation_xyz
x,y,z
1/2-x,-y,1/2+z
1/2+x,1/2-y,1/2-z
-x,1/2+y,-z
-x,-y,-z
1/2+x,y,1/2-z
1/2-x,1/2+y,1/2+z
x,1/2-y,z
loop_
_atom_site_type_symbol
_atom_site_label
_atom_site_fract_x
_atom_site_fract_y
_atom_site_fract_z
Si Si1 0.869913 0.750000 0.307871
Si Si2 0.134079 0.075169 0.013530
Si Si3 0.161271 0.112650 0.587016
Si Si4 0.715452 0.023608 0.308954
O O1 0.580776 0.750000 0.266988
O O2 0.904398 0.681863 0.363540
O O3 0.400235 0.084693 0.960073
O O4 0.902470 0.124119 0.978396
O O5 0.207926 0.075046 0.111482
O O6 0.000000 0.000000 0.000000
O O7 0.256697 0.053429 0.651915
O O8 0.455074 0.032418 0.254483
#
# Coordination Sequence:
#
# PCOD9464292 Si02
#       4
#     4   8   8   8
#     4  12  24  38  56  84 114 150 186 216 256 324
#     4  10  20  35  53  76 107 144 182 222 272 326
#     4  11  21  36  53  77 113 148 178 216 265 330
#     4  11  19  31  52  80 106 134 171 224 272 310
#
# _framework density 17.928953
#
# number of rings (size 3 to 8) (size 9 to 14) (size 15 to 20)
#    0.000    1.143    0.000   12.000    0.000    0.000 
#    0.000    0.000    0.000    0.000    0.000   20.000 
#    0.000    0.000    0.000    0.000    0.000    0.000 
#
# Total GULP energy -156332.792888 kJ/mol
# GULP energy per Si atom -5583.314032 kJ/mol
# Density = 1.788815 g / cm^3
# Si number density = 17.928953 Si / 1000 Ang^3
#
#
#
# Elastic Constant Matrix: (Units=GPa)
#
#
# Indices 1 2 3 4 5 6 
#
# 1 161.9279 4.8023 67.3914 0.0000 0.0000 0.0000
# 2 4.8023 38.5793 30.1154 0.0000 0.0000 0.0000
# 3 67.3914 30.1154 127.0295 0.0000 0.0000 0.0000
# 4 0.0000 0.0000 0.0000 22.0183 0.0000 0.0000
# 5 0.0000 0.0000 0.0000 0.0000 57.4783 0.0000
# 6 0.0000 0.0000 0.0000 0.0000 0.0000 8.5006
#
#
#
# Elastic Compliance Matrix: (Units=1/GPa)
#
#
# Indices 1 2 3 4 5 6 
#
# 1 0.008183 0.002908 -0.005031 0.000000 0.000000 0.000000
# 2 0.002908 0.032841 -0.009329 0.000000 0.000000 0.000000
# 3 -0.005031 -0.009329 0.012753 0.000000 0.000000 0.000000
# 4 0.000000 0.000000 0.000000 0.045417 0.000000 0.000000
# 5 0.000000 0.000000 0.000000 0.000000 0.017398 0.000000
# 6 0.000000 0.000000 0.000000 0.000000 0.000000 0.117638
#
#
# Mechanical properties :
#
#
# Convention : Reuss Voigt Hill
#
# Bulk Modulus (GPa) = 32.38925 59.12831 45.75878
# Shear Modulus (GPa) = 18.69702 32.61463 25.65582
#
# Velocity S-wave (km/s) = 3.23281 4.26972 3.78692
# Velocity P-wave (km/s) = 5.66032 7.57352 6.68571
#
# Compressibility (1/GPa) = 0.03087444
#
# Stress axis : x y z
#
# Youngs Moduli (GPa) = 122.20391 30.45010 78.41494
#
# Poissons Ratio (x) = -0.08856 0.39449
# Poissons Ratio (y) = -0.35542 0.73150
# Poissons Ratio (z) = 0.61478 0.28406
#
# Static dielectric constant tensor:
#      x y z
#    x 1.617690 0.000000 0.000000 
#    y 0.000000 1.604950 0.000000 
#    z 0.000000 0.000000 1.643380 
# 
# From -- ./inp_files/10616.got.cif
#   From: 2010.05.17/outbox.cif.g08.bks.cpg/sg62_6_cif.got.tgz:10616.got - 2010.06.03 15:25:27.
