data_PCOD9464087
_publ_section_title
;
Structure prediction by ZEFSAII (Michael W. Deem and Ramdas Pophale) SiO2 
 PCOD9464087
Probable space group: P N M A
;
_chemical_formula_sum "Si O2"
_cell_formula_units_Z 64
_cell_length_a 15.634430
_cell_length_b 8.871710
_cell_length_c 24.825546
_cell_angle_alpha 90.000000
_cell_angle_beta 90.000000
_cell_angle_gamma 90.000000
_cell_volume 3443.405734
_symmetry_space_group_name_H-M "P N M A"
_symmetry_group_IT_number 62
_symmetry_cell_setting 'orthorhombic'
loop_
_space_group_symop_operation_xyz
x,y,z
1/2-x,-y,1/2+z
1/2+x,1/2-y,1/2-z
-x,1/2+y,-z
-x,-y,-z
1/2+x,y,1/2-z
1/2-x,1/2+y,1/2+z
x,1/2-y,z
loop_
_atom_site_type_symbol
_atom_site_label
_atom_site_fract_x
_atom_site_fract_y
_atom_site_fract_z
Si Si1 0.802983 0.569244 0.348117
Si Si2 0.838456 0.930471 0.926769
Si Si3 0.782687 0.929094 0.749871
Si Si4 0.691612 0.431365 0.551070
Si Si5 0.039212 0.927336 0.225701
Si Si6 0.482545 0.569219 0.390471
Si Si7 0.007602 0.071498 0.651903
Si Si8 0.172047 0.069903 0.370807
O O1 0.798463 0.750000 0.348692
O O2 0.730234 0.501384 0.386222
O O3 0.784918 0.512153 0.287588
O O4 0.898259 0.523075 0.366475
O O5 0.838419 0.750000 0.920854
O O6 0.932697 0.992822 0.913987
O O7 0.813927 0.969105 0.988132
O O8 0.769962 0.750000 0.752389
O O9 0.787851 0.977454 0.687316
O O10 0.875509 0.972870 0.774010
O O11 0.696983 0.250000 0.555878
O O12 0.603794 0.480925 0.580275
O O13 0.771350 0.503166 0.581643
O O14 0.064535 0.750000 0.222212
O O15 0.995389 0.949397 0.283286
O O16 0.982416 0.961238 0.173623
O O17 0.490057 0.750000 0.397740
O O18 0.997605 0.250000 0.641568
O O19 0.925588 0.987120 0.628492
O O20 0.172887 0.250000 0.372301
#
# Coordination Sequence:
#
# PCOD9464087 Si02
#       8
#     8   8   8   8   8   8   8   8
#     4  11  22  36  59  87 113 152 199 238 285 341
#     4  11  23  39  58  84 119 154 192 240 292 339
#     4  10  20  34  53  82 118 151 182 227 287 342
#     4  10  23  40  60  84 113 155 198 239 287 341
#     4   9  17  32  54  82 113 146 184 227 278 335
#     4  10  20  35  58  86 115 151 194 235 280 338
#     4   9  20  37  58  84 115 150 190 238 287 341
#     4  10  22  39  59  86 117 151 190 237 293 343
#
# _framework density 18.58625
#
# number of rings (size 3 to 8) (size 9 to 14) (size 15 to 20)
#    0.000    2.000    1.250    1.875    1.750    4.000 
#    0.000    0.625    0.000    0.000    0.000    0.000 
#    0.000    0.000    0.000    0.000    0.000    0.000 
#
# Total GULP energy -357370.218891 kJ/mol
# GULP energy per Si atom -5583.909670 kJ/mol
# Density = 1.854395 g / cm^3
# Si number density = 18.586250 Si / 1000 Ang^3
#
#
#
# Elastic Constant Matrix: (Units=GPa)
#
#
# Indices 1 2 3 4 5 6 
#
# 1 81.2497 16.7121 -0.8017 0.0000 0.0000 0.0000
# 2 16.7121 21.6614 9.6401 0.0000 0.0000 0.0000
# 3 -0.8017 9.6401 17.2087 0.0000 0.0000 0.0000
# 4 0.0000 0.0000 0.0000 25.2227 0.0000 0.0000
# 5 0.0000 0.0000 0.0000 0.0000 13.8440 0.0000
# 6 0.0000 0.0000 0.0000 0.0000 0.0000 2.3298
#
#
#
# Elastic Compliance Matrix: (Units=1/GPa)
#
#
# Indices 1 2 3 4 5 6 
#
# 1 0.015848 -0.016725 0.010107 0.000000 0.000000 0.000000
# 2 -0.016725 0.079147 -0.045116 0.000000 0.000000 0.000000
# 3 0.010107 -0.045116 0.083854 0.000000 0.000000 0.000000
# 4 0.000000 0.000000 0.000000 0.039647 0.000000 0.000000
# 5 0.000000 0.000000 0.000000 0.000000 0.072234 0.000000
# 6 0.000000 0.000000 0.000000 0.000000 0.000000 0.429221
#
#
# Mechanical properties :
#
#
# Convention : Reuss Voigt Hill
#
# Bulk Modulus (GPa) = 13.26587 19.02455 16.14521
# Shear Modulus (GPa) = 5.89245 14.58392 10.23819
#
# Velocity S-wave (km/s) = 1.78247 2.80422 2.34956
# Velocity P-wave (km/s) = 3.37479 4.55444 4.00825
#
# Compressibility (1/GPa) = 0.07538141
#
# Stress axis : x y z
#
# Youngs Moduli (GPa) = 63.10123 12.63476 11.92546
#
# Poissons Ratio (x) = 0.21131 -0.12053
# Poissons Ratio (y) = 1.05535 0.53803
# Poissons Ratio (z) = -0.63778 0.57003
#
# Static dielectric constant tensor:
#      x y z
#    x 1.622890 0.000000 0.000000 
#    y 0.000000 1.622950 0.000000 
#    z 0.000000 0.000000 1.642250 
# 
# From -- ./inp_files/29743.got.cif
#   From: 2010.05.17/outbox.cif.g08.bks.cpg/sg62_15_cif.got.tgz:29743.got - 2010.06.03 15:25:27.
