data_PCOD9464860
_publ_section_title
;
Structure prediction by ZEFSAII (Michael W. Deem and Ramdas Pophale) SiO2 
 PCOD9464860
Probable space group: P N M A
;
_chemical_formula_sum "Si O2"
_cell_formula_units_Z 64
_cell_length_a 14.757901
_cell_length_b 7.440038
_cell_length_c 22.838733
_cell_angle_alpha 90.000000
_cell_angle_beta 90.000000
_cell_angle_gamma 90.000000
_cell_volume 2507.677907
_symmetry_space_group_name_H-M "P N M A"
_symmetry_group_IT_number 62
_symmetry_cell_setting 'orthorhombic'
loop_
_space_group_symop_operation_xyz
x,y,z
1/2-x,-y,1/2+z
1/2+x,1/2-y,1/2-z
-x,1/2+y,-z
-x,-y,-z
1/2+x,y,1/2-z
1/2-x,1/2+y,1/2+z
x,1/2-y,z
loop_
_atom_site_type_symbol
_atom_site_label
_atom_site_fract_x
_atom_site_fract_y
_atom_site_fract_z
Si Si1 0.122451 0.032241 0.037497
Si Si2 0.921788 0.537290 0.216294
Si Si3 0.300103 0.046661 0.176279
Si Si4 0.308609 0.464595 0.995825
Si Si5 0.057914 0.457764 0.911025
Si Si6 0.867573 0.532080 0.757628
Si Si7 0.641703 0.463446 0.127406
Si Si8 0.052884 0.529636 0.583450
O O1 0.118140 0.250000 0.039487
O O2 0.051465 0.966016 0.085102
O O3 0.226550 0.975453 0.037416
O O4 0.089118 0.966298 0.973263
O O5 0.902618 0.750000 0.216984
O O6 0.856685 0.448124 0.263247
O O7 0.909869 0.464986 0.150330
O O8 0.027541 0.513822 0.232820
O O9 0.281877 0.250000 0.154875
O O10 0.203607 0.964890 0.193902
O O11 0.371821 0.969894 0.130605
O O12 0.310145 0.250000 0.999130
O O13 0.293097 0.506836 0.927793
O O14 0.403991 0.530976 0.021769
O O15 0.086272 0.250000 0.911645
O O16 0.861318 0.750000 0.759313
O O17 0.838475 0.468501 0.692414
O O18 0.632899 0.250000 0.133860
O O19 0.544688 0.535345 0.104427
O O20 0.048586 0.750000 0.583986
#
# Coordination Sequence:
#
# PCOD9464860 Si02
#       8
#     8   8   8   8   8   8   8   8
#     4   9  19  36  56  80 108 145 189 230 271 329
#     4  11  23  38  59  87 121 154 185 235 298 352
#     4  10  21  39  62  85 113 151 195 242 284 337
#     4  10  21  34  56  85 108 141 186 230 283 336
#     4   9  20  37  54  77 114 149 180 226 282 332
#     4  10  22  39  62  87 114 153 199 240 284 342
#     4  10  20  37  56  79 112 145 181 231 283 334
#     4   9  18  36  57  79 110 140 180 237 282 326
#
# _framework density 25.521618
#
# number of rings (size 3 to 8) (size 9 to 14) (size 15 to 20)
#    0.000    2.250    1.250    0.750    3.500    2.500 
#    0.000    0.625    0.000    0.000    0.000    0.000 
#    0.000    0.000    0.000    0.000    0.000    0.000 
#
# Total GULP energy -357802.207503 kJ/mol
# GULP energy per Si atom -5590.659492 kJ/mol
# Density = 2.546353 g / cm^3
# Si number density = 25.521618 Si / 1000 Ang^3
#
#
#
# Elastic Constant Matrix: (Units=GPa)
#
#
# Indices 1 2 3 4 5 6 
#
# 1 76.2002 -10.3615 -12.4564 0.0000 0.0000 0.0000
# 2 -10.3615 86.9592 -5.5656 0.0000 0.0000 0.0000
# 3 -12.4564 -5.5656 84.2955 0.0000 0.0000 0.0000
# 4 0.0000 0.0000 0.0000 8.4297 0.0000 0.0000
# 5 0.0000 0.0000 0.0000 0.0000 44.4683 0.0000
# 6 0.0000 0.0000 0.0000 0.0000 0.0000 0.8325
#
#
#
# Elastic Compliance Matrix: (Units=1/GPa)
#
#
# Indices 1 2 3 4 5 6 
#
# 1 0.013715 0.001771 0.002144 0.000000 0.000000 0.000000
# 2 0.001771 0.011777 0.001039 0.000000 0.000000 0.000000
# 3 0.002144 0.001039 0.012248 0.000000 0.000000 0.000000
# 4 0.000000 0.000000 0.000000 0.118628 0.000000 0.000000
# 5 0.000000 0.000000 0.000000 0.000000 0.022488 0.000000
# 6 0.000000 0.000000 0.000000 0.000000 0.000000 1.201249
#
#
# Mechanical properties :
#
#
# Convention : Reuss Voigt Hill
#
# Bulk Modulus (GPa) = 20.98691 21.18753 21.08722
# Shear Modulus (GPa) = 3.60730 29.13533 16.37131
#
# Velocity S-wave (km/s) = 1.19017 3.38241 2.53547
# Velocity P-wave (km/s) = 3.18272 4.85532 4.10511
#
# Compressibility (1/GPa) = 0.04764875
#
# Stress axis : x y z
#
# Youngs Moduli (GPa) = 72.91498 84.90964 81.64328
#
# Poissons Ratio (x) = -0.15040 -0.17501
# Poissons Ratio (y) = -0.12916 -0.08486
# Poissons Ratio (z) = -0.15630 -0.08825
#
# Static dielectric constant tensor:
#      x y z
#    x 2.020810 0.000000 0.000000 
#    y 0.000000 1.979950 0.000000 
#    z 0.000000 0.000000 2.020050 
# 
# From -- ./inp_files/29808.got.cif
#   From: 2010.05.17/outbox.cif.g08.bks.cpg/sg62_15_cif.got.tgz:29808.got - 2010.06.03 15:25:27.
