data_PCOD9464116
_publ_section_title
;
Structure prediction by ZEFSAII (Michael W. Deem and Ramdas Pophale) SiO2 
 PCOD9464116
Probable space group: P N M A
;
_chemical_formula_sum "Si O2"
_cell_formula_units_Z 64
_cell_length_a 17.377602
_cell_length_b 7.886892
_cell_length_c 22.125176
_cell_angle_alpha 90.000000
_cell_angle_beta 90.000000
_cell_angle_gamma 90.000000
_cell_volume 3032.371975
_symmetry_space_group_name_H-M "P N M A"
_symmetry_group_IT_number 62
_symmetry_cell_setting 'orthorhombic'
loop_
_space_group_symop_operation_xyz
x,y,z
1/2-x,-y,1/2+z
1/2+x,1/2-y,1/2-z
-x,1/2+y,-z
-x,-y,-z
1/2+x,y,1/2-z
1/2-x,1/2+y,1/2+z
x,1/2-y,z
loop_
_atom_site_type_symbol
_atom_site_label
_atom_site_fract_x
_atom_site_fract_y
_atom_site_fract_z
Si Si1 0.217581 0.048150 0.665356
Si Si2 0.638910 0.958112 0.401467
Si Si3 0.522751 0.051423 0.144564
Si Si4 0.107179 0.544563 0.555808
Si Si5 0.660101 0.550804 0.074484
Si Si6 0.824132 0.450792 0.035637
Si Si7 0.913962 0.549643 0.249737
Si Si8 0.035756 0.455704 0.880817
O O1 0.223491 0.250000 0.675239
O O2 0.303086 0.984011 0.651279
O O3 0.162617 0.976879 0.717992
O O4 0.170188 0.018425 0.603616
O O5 0.639525 0.750000 0.401762
O O6 0.670477 0.015233 0.466750
O O7 0.551243 0.012869 0.393091
O O8 0.507844 0.250000 0.151181
O O9 0.473794 0.991223 0.085698
O O10 0.611753 0.023635 0.129830
O O11 0.484457 0.968618 0.203170
O O12 0.109862 0.750000 0.553928
O O13 0.126663 0.479903 0.489108
O O14 0.645058 0.750000 0.076046
O O15 0.751286 0.523830 0.071493
O O16 0.812642 0.250000 0.032957
O O17 0.903890 0.489105 0.068732
O O18 0.900675 0.750000 0.241754
O O19 0.935365 0.480306 0.184378
O O20 0.034444 0.250000 0.879992
#
# Coordination Sequence:
#
# PCOD9464116 Si02
#       8
#     8   8   8   8   8   8   8   8
#     4   9  16  31  55  80 107 145 187 227 272 330
#     4   9  18  34  58  83 109 143 186 233 284 336
#     4  10  20  34  54  80 113 150 187 229 279 334
#     4   9  18  31  50  79 112 145 180 226 280 330
#     4  11  21  34  53  80 114 147 184 229 279 336
#     4  11  22  37  57  83 111 146 185 232 292 342
#     4   9  19  36  57  81 111 149 194 232 274 329
#     4  10  21  39  58  82 113 148 189 237 285 334
#
# _framework density 21.105589999999999
#
# number of rings (size 3 to 8) (size 9 to 14) (size 15 to 20)
#    0.000    2.250    1.250    1.875    0.000    1.500 
#    2.250    1.250    0.000    0.000    0.000    0.000 
#    0.000    0.000    0.000    0.000    0.000    0.000 
#
# Total GULP energy -357226.401313 kJ/mol
# GULP energy per Si atom -5581.662521 kJ/mol
# Density = 2.105755 g / cm^3
# Si number density = 21.105590 Si / 1000 Ang^3
#
#
#
# Elastic Constant Matrix: (Units=GPa)
#
#
# Indices 1 2 3 4 5 6 
#
# 1 108.6080 -5.0760 22.3291 0.0000 0.0000 0.0000
# 2 -5.0760 22.6342 -1.6286 0.0000 0.0000 0.0000
# 3 22.3291 -1.6286 34.6570 0.0000 0.0000 0.0000
# 4 0.0000 0.0000 0.0000 12.4670 0.0000 0.0000
# 5 0.0000 0.0000 0.0000 0.0000 1.6997 0.0000
# 6 0.0000 0.0000 0.0000 0.0000 0.0000 18.5400
#
#
#
# Elastic Compliance Matrix: (Units=1/GPa)
#
#
# Indices 1 2 3 4 5 6 
#
# 1 0.010695 0.001909 -0.006801 0.000000 0.000000 0.000000
# 2 0.001909 0.044672 0.000869 0.000000 0.000000 0.000000
# 3 -0.006801 0.000869 0.033277 0.000000 0.000000 0.000000
# 4 0.000000 0.000000 0.000000 0.080212 0.000000 0.000000
# 5 0.000000 0.000000 0.000000 0.000000 0.588340 0.000000
# 6 0.000000 0.000000 0.000000 0.000000 0.000000 0.053938
#
#
# Mechanical properties :
#
#
# Convention : Reuss Voigt Hill
#
# Bulk Modulus (GPa) = 12.40724 21.90535 17.15630
# Shear Modulus (GPa) = 5.90986 16.55965 11.23475
#
# Velocity S-wave (km/s) = 1.67518 2.80413 2.30969
# Velocity P-wave (km/s) = 3.10371 4.57008 3.90632
#
# Compressibility (1/GPa) = 0.08059812
#
# Stress axis : x y z
#
# Youngs Moduli (GPa) = 93.50292 22.38555 30.05099
#
# Poissons Ratio (x) = -0.04274 0.20437
# Poissons Ratio (y) = -0.17851 -0.02612
# Poissons Ratio (z) = 0.63590 -0.01946
#
# Static dielectric constant tensor:
#      x y z
#    x 1.774060 0.000000 0.000000 
#    y 0.000000 1.751870 0.000000 
#    z 0.000000 0.000000 1.744550 
# 
# From -- ./inp_files/29794.got.cif
#   From: 2010.05.17/outbox.cif.g08.bks.cpg/sg62_15_cif.got.tgz:29794.got - 2010.06.03 15:25:27.
