data_PCOD9464333
_publ_section_title
;
Structure prediction by ZEFSAII (Michael W. Deem and Ramdas Pophale) SiO2 
 PCOD9464333
Probable space group: P N M A
;
_chemical_formula_sum "Si O2"
_cell_formula_units_Z 40
_cell_length_a 13.882533
_cell_length_b 8.474928
_cell_length_c 18.677029
_cell_angle_alpha 90.000000
_cell_angle_beta 90.000000
_cell_angle_gamma 90.000000
_cell_volume 2197.417227
_symmetry_space_group_name_H-M "P N M A"
_symmetry_group_IT_number 62
_symmetry_cell_setting 'orthorhombic'
loop_
_space_group_symop_operation_xyz
x,y,z
1/2-x,-y,1/2+z
1/2+x,1/2-y,1/2-z
-x,1/2+y,-z
-x,-y,-z
1/2+x,y,1/2-z
1/2-x,1/2+y,1/2+z
x,1/2-y,z
loop_
_atom_site_type_symbol
_atom_site_label
_atom_site_fract_x
_atom_site_fract_y
_atom_site_fract_z
Si Si1 0.619737 0.560826 0.127105
Si Si2 0.178496 0.560492 0.818430
Si Si3 0.901690 0.560677 0.033992
Si Si4 0.196907 0.941875 0.525813
Si Si5 0.911573 0.440784 0.332030
O O1 0.618270 0.750000 0.128292
O O2 0.713533 0.502310 0.169636
O O3 0.520801 0.495569 0.157907
O O4 0.636162 0.509321 0.044303
O O5 0.180528 0.750000 0.819558
O O6 0.133913 0.506992 0.743111
O O7 0.116250 0.501147 0.885805
O O8 0.902343 0.750000 0.035614
O O9 0.807249 0.509608 0.988532
O O10 0.000000 0.500000 0.000000
O O11 0.196232 0.750000 0.527054
O O12 0.150405 0.997409 0.599639
O O13 0.910089 0.250000 0.332537
#
# Coordination Sequence:
#
# PCOD9464333 Si02
#       5
#     8   8   8   8   8
#     4  10  20  35  55  78 107 139 172 221 277 323
#     4  10  21  36  54  78 108 143 181 220 265 320
#     4  10  20  36  57  80 109 144 182 224 269 318
#     4   8  17  34  54  77 104 136 176 219 263 316
#     4  10  20  35  56  79 104 138 179 220 264 319
#
# _framework density 18.203188999999998
#
# number of rings (size 3 to 8) (size 9 to 14) (size 15 to 20)
#    0.000    2.400    0.000    3.600    0.000    3.200 
#    0.000    9.000    0.000    0.000    0.000    0.000 
#    0.000    0.000    0.000    0.000    0.000    0.000 
#
# Total GULP energy -223249.605400 kJ/mol
# GULP energy per Si atom -5581.240135 kJ/mol
# Density = 1.816176 g / cm^3
# Si number density = 18.203189 Si / 1000 Ang^3
#
#
#
# Elastic Constant Matrix: (Units=GPa)
#
#
# Indices 1 2 3 4 5 6 
#
# 1 148.6302 20.2990 137.8176 0.0000 0.0000 0.0000
# 2 20.2990 28.0748 33.9231 0.0000 0.0000 0.0000
# 3 137.8176 33.9231 183.8109 0.0000 0.0000 0.0000
# 4 0.0000 0.0000 0.0000 24.5018 0.0000 0.0000
# 5 0.0000 0.0000 0.0000 0.0000 24.5158 0.0000
# 6 0.0000 0.0000 0.0000 0.0000 0.0000 30.1069
#
#
#
# Elastic Compliance Matrix: (Units=1/GPa)
#
#
# Indices 1 2 3 4 5 6 
#
# 1 0.022682 0.005340 -0.017992 0.000000 0.000000 0.000000
# 2 0.005340 0.047099 -0.012696 0.000000 0.000000 0.000000
# 3 -0.017992 -0.012696 0.021273 0.000000 0.000000 0.000000
# 4 0.000000 0.000000 0.000000 0.040813 0.000000 0.000000
# 5 0.000000 0.000000 0.000000 0.000000 0.040790 0.000000
# 6 0.000000 0.000000 0.000000 0.000000 0.000000 0.033215
#
#
# Mechanical properties :
#
#
# Convention : Reuss Voigt Hill
#
# Bulk Modulus (GPa) = 24.77803 82.73280 53.75541
# Shear Modulus (GPa) = 18.51704 27.05665 22.78684
#
# Velocity S-wave (km/s) = 3.19288 3.85953 3.54192
# Velocity P-wave (km/s) = 5.21863 8.08762 6.80602
#
# Compressibility (1/GPa) = 0.04035833
#
# Stress axis : x y z
#
# Youngs Moduli (GPa) = 44.08820 21.23183 47.00687
#
# Poissons Ratio (x) = -0.11338 0.84574
# Poissons Ratio (y) = -0.23544 0.59681
# Poissons Ratio (z) = 0.79323 0.26957
#
# Static dielectric constant tensor:
#      x y z
#    x 1.596180 0.000000 0.000000 
#    y 0.000000 1.628610 0.000000 
#    z 0.000000 0.000000 1.618820 
# 
# From -- ./inp_files/18638.got.cif
#   From: 2010.05.17/outbox.cif.g08.bks.cpg/sg62_10_cif.got.tgz:18638.got - 2010.06.03 15:25:27.
