data_PCOD9464915
_publ_section_title
;
Structure prediction by ZEFSAII (Michael W. Deem and Ramdas Pophale) SiO2 
 PCOD9464915
Probable space group: P N M A
;
_chemical_formula_sum "Si O2"
_cell_formula_units_Z 64
_cell_length_a 18.257628
_cell_length_b 12.047870
_cell_length_c 14.748012
_cell_angle_alpha 90.000000
_cell_angle_beta 90.000000
_cell_angle_gamma 90.000000
_cell_volume 3244.054256
_symmetry_space_group_name_H-M "P N M A"
_symmetry_group_IT_number 62
_symmetry_cell_setting 'orthorhombic'
loop_
_space_group_symop_operation_xyz
x,y,z
1/2-x,-y,1/2+z
1/2+x,1/2-y,1/2-z
-x,1/2+y,-z
-x,-y,-z
1/2+x,y,1/2-z
1/2-x,1/2+y,1/2+z
x,1/2-y,z
loop_
_atom_site_type_symbol
_atom_site_label
_atom_site_fract_x
_atom_site_fract_y
_atom_site_fract_z
Si Si1 0.306720 0.378619 0.767330
Si Si2 0.443041 0.868773 0.935786
Si Si3 0.610301 0.436142 0.556501
Si Si4 0.865536 0.870717 0.260905
Si Si5 0.500737 0.628897 0.595733
Si Si6 0.621828 0.118489 0.260606
Si Si7 0.268057 0.377507 0.977277
Si Si8 0.098635 0.543365 0.588730
O O1 0.336677 0.250000 0.748146
O O2 0.222504 0.374358 0.736021
O O3 0.337337 0.497307 0.728418
O O4 0.305201 0.389316 0.877647
O O5 0.431035 0.750000 0.979848
O O6 0.395282 0.876480 0.845582
O O7 0.527920 0.878942 0.907279
O O8 0.420463 0.960958 0.006434
O O9 0.614697 0.380685 0.655104
O O10 0.566683 0.548922 0.572464
O O11 0.559644 0.374054 0.484245
O O12 0.693337 0.447871 0.520979
O O13 0.891068 0.750000 0.294171
O O14 0.894749 0.971558 0.320471
O O15 0.531937 0.750000 0.607390
O O16 0.453247 0.601511 0.684126
O O17 0.647027 0.250000 0.284572
O O18 0.243047 0.250000 0.983174
O O19 0.325583 0.401477 0.056785
#
# Coordination Sequence:
#
# PCOD9464915 Si02
#       8
#     8   8   8   8   8   8   8   8
#     4   9  19  38  58  84 121 156 200 249 300 354
#     4  10  21  37  54  81 123 156 189 244 297 350
#     4  10  21  40  62  84 118 154 200 245 299 359
#     4  10  21  38  59  83 118 156 197 251 301 354
#     4  10  21  38  62  88 118 156 201 252 303 360
#     4  10  20  37  59  87 123 160 199 246 305 357
#     4  10  20  37  60  84 116 157 199 248 298 354
#     4  11  21  35  59  88 114 153 203 236 295 366
#
# _framework density 19.728401000000002
#
# number of rings (size 3 to 8) (size 9 to 14) (size 15 to 20)
#    0.000    2.000    1.250    3.375    1.750    0.000 
#    0.000   10.625    0.000    0.000    0.000    0.000 
#    0.000    0.000    0.000    0.000    0.000    0.000 
#
# Total GULP energy -356333.792688 kJ/mol
# GULP energy per Si atom -5567.715511 kJ/mol
# Density = 1.968350 g / cm^3
# Si number density = 19.728401 Si / 1000 Ang^3
#
#
#
# Elastic Constant Matrix: (Units=GPa)
#
#
# Indices 1 2 3 4 5 6 
#
# 1 46.3007 30.4166 -4.8703 0.0000 0.0000 0.0000
# 2 30.4166 104.3503 -2.3792 0.0000 0.0000 0.0000
# 3 -4.8703 -2.3792 36.3160 0.0000 0.0000 0.0000
# 4 0.0000 0.0000 0.0000 0.2598 0.0000 0.0000
# 5 0.0000 0.0000 0.0000 0.0000 21.4748 0.0000
# 6 0.0000 0.0000 0.0000 0.0000 0.0000 24.1760
#
#
#
# Elastic Compliance Matrix: (Units=1/GPa)
#
#
# Indices 1 2 3 4 5 6 
#
# 1 0.027061 -0.007817 0.003117 0.000000 0.000000 0.000000
# 2 -0.007817 0.011855 -0.000272 0.000000 0.000000 0.000000
# 3 0.003117 -0.000272 0.027936 0.000000 0.000000 0.000000
# 4 0.000000 0.000000 0.000000 3.849691 0.000000 0.000000
# 5 0.000000 0.000000 0.000000 0.000000 0.046566 0.000000
# 6 0.000000 0.000000 0.000000 0.000000 0.000000 0.041363
#
#
# Mechanical properties :
#
#
# Convention : Reuss Voigt Hill
#
# Bulk Modulus (GPa) = 17.57167 25.92237 21.74702
# Shear Modulus (GPa) = 1.23965 20.10211 10.67088
#
# Velocity S-wave (km/s) = 0.79355 3.19555 2.32823
# Velocity P-wave (km/s) = 3.12502 5.17528 4.27489
#
# Compressibility (1/GPa) = 0.05690979
#
# Stress axis : x y z
#
# Youngs Moduli (GPa) = 36.95358 84.34969 35.79574
#
# Poissons Ratio (x) = 0.65935 -0.11158
# Poissons Ratio (y) = 0.28886 0.00972
# Poissons Ratio (z) = -0.11518 0.02291
#
# Static dielectric constant tensor:
#      x y z
#    x 1.682320 0.000000 0.000000 
#    y 0.000000 1.724610 0.000000 
#    z 0.000000 0.000000 1.687160 
# 
# From -- ./inp_files/19911.got.cif
#   From: 2010.05.17/outbox.cif.g08.bks.cpg/sg62_10_cif.got.tgz:19911.got - 2010.06.03 15:25:27.
