data_PCOD9464408
_publ_section_title
;
Structure prediction by ZEFSAII (Michael W. Deem and Ramdas Pophale) SiO2 
 PCOD9464408
Probable space group: P N M A
;
_chemical_formula_sum "Si O2"
_cell_formula_units_Z 40
_cell_length_a 15.840611
_cell_length_b 8.972526
_cell_length_c 15.954383
_cell_angle_alpha 90.000000
_cell_angle_beta 90.000000
_cell_angle_gamma 90.000000
_cell_volume 2267.601147
_symmetry_space_group_name_H-M "P N M A"
_symmetry_group_IT_number 62
_symmetry_cell_setting 'orthorhombic'
loop_
_space_group_symop_operation_xyz
x,y,z
1/2-x,-y,1/2+z
1/2+x,1/2-y,1/2-z
-x,1/2+y,-z
-x,-y,-z
1/2+x,y,1/2-z
1/2-x,1/2+y,1/2+z
x,1/2-y,z
loop_
_atom_site_type_symbol
_atom_site_label
_atom_site_fract_x
_atom_site_fract_y
_atom_site_fract_z
Si Si1 0.550490 0.573192 0.121345
Si Si2 0.430236 0.071507 0.438685
Si Si3 0.194622 0.427812 0.056137
Si Si4 0.056690 0.427843 0.199795
Si Si5 0.629709 0.426962 0.960770
O O1 0.564843 0.750000 0.114530
O O2 0.566272 0.515594 0.214526
O O3 0.453055 0.543289 0.095528
O O4 0.606978 0.488763 0.052853
O O5 0.428915 0.250000 0.448725
O O6 0.467414 0.038897 0.346637
O O7 0.500000 0.000000 0.500000
O O8 0.343654 0.001704 0.471728
O O9 0.195646 0.250000 0.046482
O O10 0.130810 0.462914 0.132875
O O11 0.287124 0.491376 0.071711
O O12 0.059579 0.250000 0.215277
O O13 0.643435 0.250000 0.963800
#
# Coordination Sequence:
#
# PCOD9464408 Si02
#       5
#     8   8   8   8   8
#     4  10  21  37  58  81 106 143 185 226 272 324
#     4   9  17  31  52  78 109 146 179 216 269 322
#     4  10  20  35  56  83 112 144 183 226 272 324
#     4   9  19  35  55  81 112 145 180 221 271 323
#     4  10  21  38  58  79 107 144 184 225 275 327
#
# _framework density 17.639786999999998
#
# number of rings (size 3 to 8) (size 9 to 14) (size 15 to 20)
#    0.000    2.400    0.000    3.600    0.000    7.200 
#    3.600    0.000    0.000    0.000    0.000    0.000 
#    0.000    0.000    0.000    0.000    0.000    0.000 
#
# Total GULP energy -223068.206741 kJ/mol
# GULP energy per Si atom -5576.705169 kJ/mol
# Density = 1.759964 g / cm^3
# Si number density = 17.639787 Si / 1000 Ang^3
#
#
#
# Elastic Constant Matrix: (Units=GPa)
#
#
# Indices 1 2 3 4 5 6 
#
# 1 71.1370 41.8175 29.8375 0.0000 0.0000 0.0000
# 2 41.8175 63.6083 45.7651 0.0000 0.0000 0.0000
# 3 29.8375 45.7651 89.0516 0.0000 0.0000 0.0000
# 4 0.0000 0.0000 0.0000 26.6703 0.0000 0.0000
# 5 0.0000 0.0000 0.0000 0.0000 9.5299 0.0000
# 6 0.0000 0.0000 0.0000 0.0000 0.0000 34.4451
#
#
#
# Elastic Compliance Matrix: (Units=1/GPa)
#
#
# Indices 1 2 3 4 5 6 
#
# 1 0.022913 -0.015137 0.000102 0.000000 0.000000 0.000000
# 2 -0.015137 0.034944 -0.012887 0.000000 0.000000 0.000000
# 3 0.000102 -0.012887 0.017818 0.000000 0.000000 0.000000
# 4 0.000000 0.000000 0.000000 0.037495 0.000000 0.000000
# 5 0.000000 0.000000 0.000000 0.000000 0.104933 0.000000
# 6 0.000000 0.000000 0.000000 0.000000 0.000000 0.029032
#
#
# Mechanical properties :
#
#
# Convention : Reuss Voigt Hill
#
# Bulk Modulus (GPa) = 50.42381 50.95968 50.69174
# Shear Modulus (GPa) = 16.15053 21.22085 18.68569
#
# Velocity S-wave (km/s) = 3.02913 3.47221 3.25821
# Velocity P-wave (km/s) = 6.39386 6.71020 6.55394
#
# Compressibility (1/GPa) = 0.01983190
#
# Stress axis : x y z
#
# Youngs Moduli (GPa) = 43.64414 28.61716 56.12291
#
# Poissons Ratio (x) = 0.43316 -0.00572
# Poissons Ratio (y) = 0.66062 0.72324
# Poissons Ratio (z) = -0.00445 0.36878
#
# Static dielectric constant tensor:
#      x y z
#    x 1.631950 0.000000 0.000000 
#    y 0.000000 1.582250 0.000000 
#    z 0.000000 0.000000 1.588510 
# 
# From -- ./inp_files/18606.got.cif
#   From: 2010.05.17/outbox.cif.g08.bks.cpg/sg62_10_cif.got.tgz:18606.got - 2010.06.03 15:25:27.
