data_PCOD9464895
_publ_section_title
;
Structure prediction by ZEFSAII (Michael W. Deem and Ramdas Pophale) SiO2 
 PCOD9464895
Probable space group: P N M A
;
_chemical_formula_sum "Si O2"
_cell_formula_units_Z 40
_cell_length_a 16.525164
_cell_length_b 14.866265
_cell_length_c 8.607358
_cell_angle_alpha 90.000000
_cell_angle_beta 90.000000
_cell_angle_gamma 90.000000
_cell_volume 2114.547839
_symmetry_space_group_name_H-M "P N M A"
_symmetry_group_IT_number 62
_symmetry_cell_setting 'orthorhombic'
loop_
_space_group_symop_operation_xyz
x,y,z
1/2-x,-y,1/2+z
1/2+x,1/2-y,1/2-z
-x,1/2+y,-z
-x,-y,-z
1/2+x,y,1/2-z
1/2-x,1/2+y,1/2+z
x,1/2-y,z
loop_
_atom_site_type_symbol
_atom_site_label
_atom_site_fract_x
_atom_site_fract_y
_atom_site_fract_z
Si Si1 0.056048 0.452229 0.626999
Si Si2 0.132313 0.150193 0.057059
Si Si3 0.817561 0.645016 0.593197
Si Si4 0.461746 0.352543 0.610244
Si Si5 0.344418 0.469369 0.405635
O O1 0.125807 0.396631 0.539247
O O2 0.101386 0.517647 0.750652
O O3 0.000000 0.500000 0.500000
O O4 0.998012 0.387999 0.728455
O O5 0.163984 0.250000 0.017085
O O6 0.137853 0.138900 0.240930
O O7 0.039402 0.146278 0.003539
O O8 0.175703 0.069463 0.967082
O O9 0.800707 0.750000 0.561290
O O10 0.735507 0.588974 0.614300
O O11 0.431748 0.250000 0.620967
O O12 0.397312 0.420338 0.537914
#
# Coordination Sequence:
#
# PCOD9464895 Si02
#       5
#     8   8   8   8   8
#     4  11  22  37  60  86 115 153 197 244 292 347
#     4   9  19  36  57  78 108 149 192 232 280 339
#     4  11  22  37  57  85 117 150 189 241 295 346
#     4  10  20  37  59  83 112 152 194 234 283 348
#     4  11  21  37  59  84 116 152 190 237 293 350
#
# _framework density 18.916573
#
# number of rings (size 3 to 8) (size 9 to 14) (size 15 to 20)
#    0.000    1.600    0.000    7.200    0.000    0.800 
#    0.000    3.000    0.000    9.600    0.000    0.000 
#    0.000    0.000    0.000    0.000    0.000    0.000 
#
# Total GULP energy -223381.630825 kJ/mol
# GULP energy per Si atom -5584.540771 kJ/mol
# Density = 1.887352 g / cm^3
# Si number density = 18.916573 Si / 1000 Ang^3
#
#
#
# Elastic Constant Matrix: (Units=GPa)
#
#
# Indices 1 2 3 4 5 6 
#
# 1 40.6587 49.7232 45.0541 0.0000 0.0000 0.0000
# 2 49.7232 136.4402 63.3864 0.0000 0.0000 0.0000
# 3 45.0541 63.3864 104.5117 0.0000 0.0000 0.0000
# 4 0.0000 0.0000 0.0000 27.2219 0.0000 0.0000
# 5 0.0000 0.0000 0.0000 0.0000 10.5895 0.0000
# 6 0.0000 0.0000 0.0000 0.0000 0.0000 21.5662
#
#
#
# Elastic Compliance Matrix: (Units=1/GPa)
#
#
# Indices 1 2 3 4 5 6 
#
# 1 0.062046 -0.014181 -0.018147 0.000000 0.000000 0.000000
# 2 -0.014181 0.013446 -0.002041 0.000000 0.000000 0.000000
# 3 -0.018147 -0.002041 0.018629 0.000000 0.000000 0.000000
# 4 0.000000 0.000000 0.000000 0.036735 0.000000 0.000000
# 5 0.000000 0.000000 0.000000 0.000000 0.094433 0.000000
# 6 0.000000 0.000000 0.000000 0.000000 0.000000 0.046369
#
#
# Mechanical properties :
#
#
# Convention : Reuss Voigt Hill
#
# Bulk Modulus (GPa) = 39.39707 66.43757 52.91732
# Shear Modulus (GPa) = 14.33250 20.10531 17.21890
#
# Velocity S-wave (km/s) = 2.75556 3.26366 3.02032
# Velocity P-wave (km/s) = 5.56742 7.02848 6.34018
#
# Compressibility (1/GPa) = 0.02538260
#
# Stress axis : x y z
#
# Youngs Moduli (GPa) = 16.11702 74.37325 53.67880
#
# Poissons Ratio (x) = 1.05470 0.97409
# Poissons Ratio (y) = 0.22856 0.10958
# Poissons Ratio (z) = 0.29247 0.15183
#
# Static dielectric constant tensor:
#      x y z
#    x 1.624800 0.000000 0.000000 
#    y 0.000000 1.682190 0.000000 
#    z 0.000000 0.000000 1.660510 
# 
# From -- ./inp_files/6091.got.cif
#   From: 2010.05.17/outbox.cif.g08.bks.cpg/sg62_4_cif.got.tgz:6091.got - 2010.06.03 15:25:27.
