data_PCOD9464035
_publ_section_title
;
Structure prediction by ZEFSAII (Michael W. Deem and Ramdas Pophale) SiO2 
 PCOD9464035
Probable space group: P N M A
;
_chemical_formula_sum "Si O2"
_cell_formula_units_Z 48
_cell_length_a 8.294111
_cell_length_b 14.108448
_cell_length_c 23.430261
_cell_angle_alpha 90.000000
_cell_angle_beta 90.000000
_cell_angle_gamma 90.000000
_cell_volume 2741.739642
_symmetry_space_group_name_H-M "P N M A"
_symmetry_group_IT_number 62
_symmetry_cell_setting 'orthorhombic'
loop_
_space_group_symop_operation_xyz
x,y,z
1/2-x,-y,1/2+z
1/2+x,1/2-y,1/2-z
-x,1/2+y,-z
-x,-y,-z
1/2+x,y,1/2-z
1/2-x,1/2+y,1/2+z
x,1/2-y,z
loop_
_atom_site_type_symbol
_atom_site_label
_atom_site_fract_x
_atom_site_fract_y
_atom_site_fract_z
Si Si1 0.303321 0.359575 0.458573
Si Si2 0.667218 0.033626 0.935616
Si Si3 0.700264 0.534893 0.105294
Si Si4 0.811510 0.140372 0.831687
Si Si5 0.178613 0.140238 0.789534
Si Si6 0.674890 0.359839 0.497261
O O1 0.273105 0.250000 0.445725
O O2 0.192154 0.397350 0.510219
O O3 0.272215 0.430873 0.406487
O O4 0.487132 0.369858 0.480664
O O5 0.484584 0.034561 0.914466
O O6 0.776598 0.072585 0.884388
O O7 0.724040 0.930944 0.957466
O O8 0.721116 0.573119 0.168766
O O9 0.795084 0.604825 0.061798
O O10 0.781534 0.250000 0.849150
O O11 0.700669 0.117902 0.777001
O O12 0.994002 0.133832 0.809361
O O13 0.232535 0.250000 0.796520
O O14 0.720425 0.250000 0.491459
#
# Coordination Sequence:
#
# PCOD9464035 Si02
#       6
#     8   8   8   8   8   8
#     4  10  20  34  52  73  99 132 168 206 247 291
#     4  11  21  32  50  75 103 133 164 202 247 296
#     4  11  21  32  50  75 103 133 164 202 247 296
#     4  10  20  34  52  74 101 132 166 204 245 291
#     4  10  20  34  52  74 101 132 166 204 245 291
#     4  10  20  34  52  73  99 132 168 206 247 291
#
# _framework density 17.507131999999999
#
# number of rings (size 3 to 8) (size 9 to 14) (size 15 to 20)
#    0.000    1.667    0.000    8.000    0.000    8.667 
#    0.000    0.000    0.000    1.000    0.000    0.000 
#    0.000    0.000    0.000    0.000    0.000    0.000 
#
# Total GULP energy -268215.589192 kJ/mol
# GULP energy per Si atom -5587.824775 kJ/mol
# Density = 1.746728 g / cm^3
# Si number density = 17.507132 Si / 1000 Ang^3
#
#
#
# Elastic Constant Matrix: (Units=GPa)
#
#
# Indices 1 2 3 4 5 6 
#
# 1 37.3697 10.0232 -10.5308 0.0000 0.0000 0.0000
# 2 10.0232 102.4426 31.2983 0.0000 0.0000 0.0000
# 3 -10.5308 31.2983 53.6949 0.0000 0.0000 0.0000
# 4 0.0000 0.0000 0.0000 11.8674 0.0000 0.0000
# 5 0.0000 0.0000 0.0000 0.0000 31.6174 0.0000
# 6 0.0000 0.0000 0.0000 0.0000 0.0000 11.6094
#
#
#
# Elastic Compliance Matrix: (Units=1/GPa)
#
#
# Indices 1 2 3 4 5 6 
#
# 1 0.031054 -0.005961 0.009565 0.000000 0.000000 0.000000
# 2 -0.005961 0.013021 -0.008759 0.000000 0.000000 0.000000
# 3 0.009565 -0.008759 0.025605 0.000000 0.000000 0.000000
# 4 0.000000 0.000000 0.000000 0.084264 0.000000 0.000000
# 5 0.000000 0.000000 0.000000 0.000000 0.031628 0.000000
# 6 0.000000 0.000000 0.000000 0.000000 0.000000 0.086137
#
#
# Mechanical properties :
#
#
# Convention : Reuss Voigt Hill
#
# Bulk Modulus (GPa) = 16.84341 28.34317 22.59329
# Shear Modulus (GPa) = 16.56681 21.86660 19.21671
#
# Velocity S-wave (km/s) = 3.07952 3.53797 3.31667
# Velocity P-wave (km/s) = 4.72084 5.73710 5.25360
#
# Compressibility (1/GPa) = 0.05937040
#
# Stress axis : x y z
#
# Youngs Moduli (GPa) = 32.20226 76.80070 39.05487
#
# Poissons Ratio (x) = 0.45778 -0.37355
# Poissons Ratio (y) = 0.19194 0.34207
# Poissons Ratio (z) = -0.30801 0.67267
#
# Static dielectric constant tensor:
#      x y z
#    x 1.626960 0.000000 0.000000 
#    y 0.000000 1.582590 0.000000 
#    z 0.000000 0.000000 1.574470 
# 
# From -- ./inp_files/25861.got.cif
#   From: 2010.05.17/outbox.cif.g08.bks.cpg/sg62_13_cif.got.tgz:25861.got - 2010.06.03 15:25:27.
