data_PCOD9464927
_publ_section_title
;
Structure prediction by ZEFSAII (Michael W. Deem and Ramdas Pophale) SiO2 
 PCOD9464927
Probable space group: P N M A
;
_chemical_formula_sum "Si O2"
_cell_formula_units_Z 48
_cell_length_a 31.616206
_cell_length_b 8.883628
_cell_length_c 9.422655
_cell_angle_alpha 90.000000
_cell_angle_beta 90.000000
_cell_angle_gamma 90.000000
_cell_volume 2646.509194
_symmetry_space_group_name_H-M "P N M A"
_symmetry_group_IT_number 62
_symmetry_cell_setting 'orthorhombic'
loop_
_space_group_symop_operation_xyz
x,y,z
1/2-x,-y,1/2+z
1/2+x,1/2-y,1/2-z
-x,1/2+y,-z
-x,-y,-z
1/2+x,y,1/2-z
1/2-x,1/2+y,1/2+z
x,1/2-y,z
loop_
_atom_site_type_symbol
_atom_site_label
_atom_site_fract_x
_atom_site_fract_y
_atom_site_fract_z
Si Si1 0.371082 0.930060 0.592806
Si Si2 0.038345 0.571411 0.415734
Si Si3 0.366952 0.068420 0.905338
Si Si4 0.960378 0.070581 0.920037
Si Si5 0.790490 0.569691 0.418978
Si Si6 0.212329 0.430351 0.913013
O O1 0.374653 0.750000 0.609402
O O2 0.332718 0.962529 0.486008
O O3 0.361698 0.003820 0.746177
O O4 0.415597 0.996599 0.539345
O O5 0.036508 0.750000 0.436574
O O6 0.085909 0.522050 0.456198
O O7 0.034299 0.541590 0.248009
O O8 0.000000 0.500000 0.500000
O O9 0.365376 0.250000 0.898301
O O10 0.330870 0.005500 0.006688
O O11 0.958502 0.250000 0.941888
O O12 0.000000 0.000000 0.000000
O O13 0.794074 0.750000 0.428791
O O14 0.787583 0.528502 0.252875
O O15 0.749065 0.514071 0.501826
O O16 0.219627 0.250000 0.922998
#
# Coordination Sequence:
#
# PCOD9464927 Si02
#       6
#     8   8   8   8   8   8
#     4  10  20  37  60  84 111 146 186 228 278 332
#     4   9  20  36  55  80 110 144 182 226 274 324
#     4  10  21  38  57  81 113 146 183 227 274 326
#     4  10  21  37  56  82 114 148 187 231 278 328
#     4  11  23  38  58  83 110 144 183 224 273 325
#     4  10  23  40  57  82 114 144 180 228 276 327
#
# _framework density 18.137098999999999
#
# number of rings (size 3 to 8) (size 9 to 14) (size 15 to 20)
#    0.000    2.000    0.000    4.000    0.000   10.667 
#    0.000    5.000    0.000    0.000    0.000    0.000 
#    0.000    0.000    0.000    0.000    0.000    0.000 
#
# Total GULP energy -268092.627371 kJ/mol
# GULP energy per Si atom -5585.263070 kJ/mol
# Density = 1.809582 g / cm^3
# Si number density = 18.137099 Si / 1000 Ang^3
#
#
#
# Elastic Constant Matrix: (Units=GPa)
#
#
# Indices 1 2 3 4 5 6 
#
# 1 197.0582 87.8209 109.6134 0.0000 0.0000 0.0000
# 2 87.8209 68.0147 65.7061 0.0000 0.0000 0.0000
# 3 109.6134 65.7061 110.4053 0.0000 0.0000 0.0000
# 4 0.0000 0.0000 0.0000 30.7027 0.0000 0.0000
# 5 0.0000 0.0000 0.0000 0.0000 40.4477 0.0000
# 6 0.0000 0.0000 0.0000 0.0000 0.0000 39.1594
#
#
#
# Elastic Compliance Matrix: (Units=1/GPa)
#
#
# Indices 1 2 3 4 5 6 
#
# 1 0.014167 -0.011068 -0.007479 0.000000 0.000000 0.000000
# 2 -0.011068 0.043236 -0.014743 0.000000 0.000000 0.000000
# 3 -0.007479 -0.014743 0.025256 0.000000 0.000000 0.000000
# 4 0.000000 0.000000 0.000000 0.032570 0.000000 0.000000
# 5 0.000000 0.000000 0.000000 0.000000 0.024723 0.000000
# 6 0.000000 0.000000 0.000000 0.000000 0.000000 0.025537
#
#
# Mechanical properties :
#
#
# Convention : Reuss Voigt Hill
#
# Bulk Modulus (GPa) = 62.18508 100.19545 81.19027
# Shear Modulus (GPa) = 21.05892 29.55113 25.30503
#
# Velocity S-wave (km/s) = 3.41118 4.04086 3.73930
# Velocity P-wave (km/s) = 7.06226 8.78264 7.96901
#
# Compressibility (1/GPa) = 0.01608103
#
# Stress axis : x y z
#
# Youngs Moduli (GPa) = 70.58593 23.12883 39.59386
#
# Poissons Ratio (x) = 0.25599 0.29611
# Poissons Ratio (y) = 0.78124 0.58372
# Poissons Ratio (z) = 0.52788 0.34098
#
# Static dielectric constant tensor:
#      x y z
#    x 1.604610 0.000000 0.000000 
#    y 0.000000 1.613190 0.000000 
#    z 0.000000 0.000000 1.561030 
# 
# From -- ./inp_files/10259.got.cif
#   From: 2010.05.17/outbox.cif.g08.bks.cpg/sg62_6_cif.got.tgz:10259.got - 2010.06.03 15:25:27.
