data_PCOD9464610
_publ_section_title
;
Structure prediction by ZEFSAII (Michael W. Deem and Ramdas Pophale) SiO2 
 PCOD9464610
Probable space group: P N M A
;
_chemical_formula_sum "Si O2"
_cell_formula_units_Z 40
_cell_length_a 17.708274
_cell_length_b 10.030250
_cell_length_c 9.555167
_cell_angle_alpha 90.000000
_cell_angle_beta 90.000000
_cell_angle_gamma 90.000000
_cell_volume 1697.173620
_symmetry_space_group_name_H-M "P N M A"
_symmetry_group_IT_number 62
_symmetry_cell_setting 'orthorhombic'
loop_
_space_group_symop_operation_xyz
x,y,z
1/2-x,-y,1/2+z
1/2+x,1/2-y,1/2-z
-x,1/2+y,-z
-x,-y,-z
1/2+x,y,1/2-z
1/2-x,1/2+y,1/2+z
x,1/2-y,z
loop_
_atom_site_type_symbol
_atom_site_label
_atom_site_fract_x
_atom_site_fract_y
_atom_site_fract_z
Si Si1 0.559854 0.250000 0.321764
Si Si2 0.870053 0.750000 0.124050
Si Si3 0.912940 0.250000 0.003570
Si Si4 0.160743 0.250000 0.491546
Si Si5 0.222794 0.456302 0.711762
Si Si6 0.782136 0.250000 0.219858
Si Si7 0.098203 0.545979 0.242299
Si Si8 0.005667 0.250000 0.631287
O O1 0.609163 0.250000 0.464048
O O2 0.473911 0.250000 0.375361
O O3 0.573549 0.394013 0.255327
O O4 0.822902 0.881379 0.165411
O O5 0.942457 0.750000 0.227075
O O6 0.921324 0.121175 0.903882
O O7 0.833078 0.250000 0.080682
O O8 0.195044 0.377317 0.574544
O O9 0.196898 0.250000 0.339130
O O10 0.070734 0.250000 0.514796
O O11 0.204900 0.612178 0.701201
O O12 0.311227 0.439639 0.746326
O O13 0.050587 0.624869 0.359211
#
# Coordination Sequence:
#
# PCOD9464610 Si02
#       8
#     4   4   4   4   8   4   8   4
#     4  12  23  29  59  94 120 136 199 246 312 351
#     4  10  20  36  55  88 115 153 192 236 292 375
#     4  11  21  34  59  84 122 154 188 239 325 350
#     4  10  22  42  58  89 116 161 200 246 291 366
#     4  10  22  38  60  84 121 158 199 237 300 356
#     4  12  22  39  64  87 122 158 204 245 297 361
#     4  11  20  38  54  87 120 154 185 254 294 353
#     4   9  20  36  59  72 117 154 193 230 299 343
#
# _framework density 23.568594999999998
#
# number of rings (size 3 to 8) (size 9 to 14) (size 15 to 20)
#    0.000    1.600    4.000    4.200    5.600    0.000 
#    0.000    1.000    0.000    0.000    0.000    0.000 
#    0.000    0.000    0.000    0.000    0.000    0.000 
#
# Total GULP energy -223875.015024 kJ/mol
# GULP energy per Si atom -5596.875376 kJ/mol
# Density = 2.351495 g / cm^3
# Si number density = 23.568595 Si / 1000 Ang^3
#
#
#
# Elastic Constant Matrix: (Units=GPa)
#
#
# Indices 1 2 3 4 5 6 
#
# 1 104.6624 28.2288 -14.6002 0.0000 0.0000 0.0000
# 2 28.2288 201.3062 24.1701 0.0000 0.0000 0.0000
# 3 -14.6002 24.1701 32.8368 0.0000 0.0000 0.0000
# 4 0.0000 0.0000 0.0000 12.2513 0.0000 0.0000
# 5 0.0000 0.0000 0.0000 0.0000 27.1170 0.0000
# 6 0.0000 0.0000 0.0000 0.0000 0.0000 -3.6344
#
#
#
# Elastic Compliance Matrix: (Units=1/GPa)
#
#
# Indices 1 2 3 4 5 6 
#
# 1 0.011124 -0.002363 0.006685 0.000000 0.000000 0.000000
# 2 -0.002363 0.005951 -0.005431 0.000000 0.000000 0.000000
# 3 0.006685 -0.005431 0.037424 0.000000 0.000000 0.000000
# 4 0.000000 0.000000 0.000000 0.081624 0.000000 0.000000
# 5 0.000000 0.000000 0.000000 0.000000 0.036877 0.000000
# 6 0.000000 0.000000 0.000000 0.000000 0.000000 -0.275148
#
#
# Mechanical properties :
#
#
# Convention : Reuss Voigt Hill
#
# Bulk Modulus (GPa) = 19.12682 46.04475 32.58579
# Shear Modulus (GPa) = -60.60328 27.21389 -16.69470
#
# Velocity S-wave (km/s) = -5.07636 3.40173 -2.66436
# Velocity P-wave (km/s) = 5.12115 5.91675 2.09543
#
# Compressibility (1/GPa) = 0.05228260
#
# Stress axis : x y z
#
# Youngs Moduli (GPa) = 89.89292 168.04122 26.72112
#
# Poissons Ratio (x) = 0.39702 -0.17864
# Poissons Ratio (y) = 0.21238 0.14512
# Poissons Ratio (z) = -0.60096 0.91260
#
# Static dielectric constant tensor:
#      x y z
#    x 1.914050 0.000000 0.000000 
#    y 0.000000 1.855820 0.000000 
#    z 0.000000 0.000000 1.901770 
# 
# From -- ./inp_files/13950.got.cif
#   From: 2010.05.17/outbox.cif.g08.bks.cpg/sg62_7_cif.got.tgz:13950.got - 2010.06.03 15:25:27.
