data_PCOD9464473
_publ_section_title
;
Structure prediction by ZEFSAII (Michael W. Deem and Ramdas Pophale) SiO2 
 PCOD9464473
Probable space group: P N M A
;
_chemical_formula_sum "Si O2"
_cell_formula_units_Z 64
_cell_length_a 9.565143
_cell_length_b 16.963744
_cell_length_c 21.843887
_cell_angle_alpha 90.000000
_cell_angle_beta 90.000000
_cell_angle_gamma 90.000000
_cell_volume 3544.403023
_symmetry_space_group_name_H-M "P N M A"
_symmetry_group_IT_number 62
_symmetry_cell_setting 'orthorhombic'
loop_
_space_group_symop_operation_xyz
x,y,z
1/2-x,-y,1/2+z
1/2+x,1/2-y,1/2-z
-x,1/2+y,-z
-x,-y,-z
1/2+x,y,1/2-z
1/2-x,1/2+y,1/2+z
x,1/2-y,z
loop_
_atom_site_type_symbol
_atom_site_label
_atom_site_fract_x
_atom_site_fract_y
_atom_site_fract_z
Si Si1 0.209571 0.340020 0.528519
Si Si2 0.916910 0.953977 0.552258
Si Si3 0.992956 0.842011 0.959884
Si Si4 0.488269 0.924739 0.251200
Si Si5 0.169101 0.074484 0.936437
Si Si6 0.352724 0.523659 0.128193
Si Si7 0.746922 0.841686 0.184196
Si Si8 0.955402 0.528167 0.865930
O O1 0.186564 0.250000 0.547829
O O2 0.111827 0.366773 0.471740
O O3 0.366558 0.346899 0.501527
O O4 0.174190 0.402038 0.582450
O O5 0.770945 0.000064 0.556213
O O6 0.000000 0.000000 0.500000
O O7 0.015120 0.969925 0.609529
O O8 0.965084 0.750000 0.949180
O O9 0.007297 0.890688 0.896648
O O10 0.871753 0.882300 0.001098
O O11 0.388621 0.945655 0.194960
O O12 0.631385 0.891367 0.221989
O O13 0.401135 0.859718 0.289108
O O14 0.509298 0.999015 0.297090
O O15 0.243895 0.129899 0.886320
O O16 0.027596 0.039140 0.907670
O O17 0.210428 0.475281 0.127381
O O18 0.713086 0.750000 0.188166
#
# Coordination Sequence:
#
# PCOD9464473 Si02
#       8
#     8   8   8   8   8   8   8   8
#     4  10  21  36  58  90 123 151 187 241 302 354
#     4  10  20  35  57  84 117 153 197 235 290 353
#     4  11  21  36  62  93 120 153 195 249 304 346
#     4  11  23  40  59  84 113 167 204 234 292 348
#     4  11  20  37  59  86 119 155 196 238 294 355
#     4  11  21  40  59  86 114 157 200 240 290 353
#     4  11  23  38  56  86 120 152 197 248 294 351
#     4  11  22  39  62  83 120 157 206 242 282 358
#
# _framework density 18.056638
#
# number of rings (size 3 to 8) (size 9 to 14) (size 15 to 20)
#    0.000    1.250    5.000    2.625    0.000    1.000 
#    0.000    3.750    0.000    1.500    0.000    0.000 
#    0.000    0.000    0.000    0.000    0.000    0.000 
#
# Total GULP energy -356763.563911 kJ/mol
# GULP energy per Si atom -5574.430686 kJ/mol
# Density = 1.801554 g / cm^3
# Si number density = 18.056638 Si / 1000 Ang^3
#
#
#
# Elastic Constant Matrix: (Units=GPa)
#
#
# Indices 1 2 3 4 5 6 
#
# 1 65.4496 24.9638 12.0900 0.0000 0.0000 0.0000
# 2 24.9638 70.3937 48.0778 0.0000 0.0000 0.0000
# 3 12.0900 48.0778 80.5027 0.0000 0.0000 0.0000
# 4 0.0000 0.0000 0.0000 11.3686 0.0000 0.0000
# 5 0.0000 0.0000 0.0000 0.0000 30.4344 0.0000
# 6 0.0000 0.0000 0.0000 0.0000 0.0000 17.1939
#
#
#
# Elastic Compliance Matrix: (Units=1/GPa)
#
#
# Indices 1 2 3 4 5 6 
#
# 1 0.017831 -0.007591 0.001855 0.000000 0.000000 0.000000
# 2 -0.007591 0.027223 -0.015118 0.000000 0.000000 0.000000
# 3 0.001855 -0.015118 0.021172 0.000000 0.000000 0.000000
# 4 0.000000 0.000000 0.000000 0.087962 0.000000 0.000000
# 5 0.000000 0.000000 0.000000 0.000000 0.032858 0.000000
# 6 0.000000 0.000000 0.000000 0.000000 0.000000 0.058160
#
#
# Mechanical properties :
#
#
# Convention : Reuss Voigt Hill
#
# Bulk Modulus (GPa) = 40.78361 42.95657 41.87009
# Shear Modulus (GPa) = 16.94415 20.54699 18.74557
#
# Velocity S-wave (km/s) = 3.06664 3.37697 3.22554
# Velocity P-wave (km/s) = 5.93081 6.24874 6.09185
#
# Compressibility (1/GPa) = 0.02451965
#
# Stress axis : x y z
#
# Youngs Moduli (GPa) = 56.08061 36.73324 47.23167
#
# Poissons Ratio (x) = 0.27884 -0.08763
# Poissons Ratio (y) = 0.42570 0.71406
# Poissons Ratio (z) = -0.10405 0.55534
#
# Static dielectric constant tensor:
#      x y z
#    x 1.548850 0.000000 0.000000 
#    y 0.000000 1.598550 0.000000 
#    z 0.000000 0.000000 1.647050 
# 
# From -- ./inp_files/28982.got.cif
#   From: 2010.05.17/outbox.cif.g08.bks.cpg/sg62_15_cif.got.tgz:28982.got - 2010.06.03 15:25:27.
