data_PCOD9464702
_publ_section_title
;
Structure prediction by ZEFSAII (Michael W. Deem and Ramdas Pophale) SiO2 
 PCOD9464702
Probable space group: P N M A
;
_chemical_formula_sum "Si O2"
_cell_formula_units_Z 40
_cell_length_a 13.750856
_cell_length_b 15.160723
_cell_length_c 8.657880
_cell_angle_alpha 90.000000
_cell_angle_beta 90.000000
_cell_angle_gamma 90.000000
_cell_volume 1804.933514
_symmetry_space_group_name_H-M "P N M A"
_symmetry_group_IT_number 62
_symmetry_cell_setting 'orthorhombic'
loop_
_space_group_symop_operation_xyz
x,y,z
1/2-x,-y,1/2+z
1/2+x,1/2-y,1/2-z
-x,1/2+y,-z
-x,-y,-z
1/2+x,y,1/2-z
1/2-x,1/2+y,1/2+z
x,1/2-y,z
loop_
_atom_site_type_symbol
_atom_site_label
_atom_site_fract_x
_atom_site_fract_y
_atom_site_fract_z
Si Si1 0.592525 0.851848 0.932316
Si Si2 0.745110 0.087950 0.217516
Si Si3 0.118724 0.918744 0.218968
Si Si4 0.073201 0.007629 0.774951
Si Si5 0.310025 0.655749 0.092396
O O1 0.561712 0.750000 0.918255
O O2 0.700873 0.862784 0.857288
O O3 0.535713 0.925197 0.829917
O O4 0.595771 0.883382 0.108318
O O5 0.836653 0.036318 0.134294
O O6 0.673386 0.012164 0.270850
O O7 0.694772 0.147632 0.091296
O O8 0.198407 0.853844 0.148147
O O9 0.013572 0.939568 0.145716
O O10 0.127759 0.076370 0.661892
O O11 0.350024 0.750000 0.142430
#
# Coordination Sequence:
#
# PCOD9464702 Si02
#       5
#     8   8   8   8   8
#     4  10  20  36  58  84 113 146 188 235 276 335
#     4   9  20  37  58  79 114 150 185 232 281 341
#     4  11  19  39  59  83 113 154 186 235 287 332
#     4   9  22  37  60  81 117 147 190 232 283 337
#     4  11  22  36  58  85 113 150 191 233 285 337
#
# _framework density 22.161480999999998
#
# number of rings (size 3 to 8) (size 9 to 14) (size 15 to 20)
#    1.200    0.800    2.000    1.800    0.000    2.400 
#    0.000    1.000    0.000    4.800    0.000    0.000 
#    0.000    0.000    0.000    0.000    0.000    0.000 
#
# Total GULP energy -222952.064475 kJ/mol
# GULP energy per Si atom -5573.801612 kJ/mol
# Density = 2.211104 g / cm^3
# Si number density = 22.161481 Si / 1000 Ang^3
#
#
#
# Elastic Constant Matrix: (Units=GPa)
#
#
# Indices 1 2 3 4 5 6 
#
# 1 89.8778 16.1228 -6.4965 0.0000 0.0000 0.0000
# 2 16.1228 138.3039 11.2262 0.0000 0.0000 0.0000
# 3 -6.4965 11.2262 25.4934 0.0000 0.0000 0.0000
# 4 0.0000 0.0000 0.0000 15.8044 0.0000 0.0000
# 5 0.0000 0.0000 0.0000 0.0000 21.9608 0.0000
# 6 0.0000 0.0000 0.0000 0.0000 0.0000 2.6060
#
#
#
# Elastic Compliance Matrix: (Units=1/GPa)
#
#
# Indices 1 2 3 4 5 6 
#
# 1 0.011693 -0.001665 0.003713 0.000000 0.000000 0.000000
# 2 -0.001665 0.007735 -0.003831 0.000000 0.000000 0.000000
# 3 0.003713 -0.003831 0.041859 0.000000 0.000000 0.000000
# 4 0.000000 0.000000 0.000000 0.063273 0.000000 0.000000
# 5 0.000000 0.000000 0.000000 0.000000 0.045536 0.000000
# 6 0.000000 0.000000 0.000000 0.000000 0.000000 0.383730
#
#
# Mechanical properties :
#
#
# Convention : Reuss Voigt Hill
#
# Bulk Modulus (GPa) = 17.32420 32.82002 25.07211
# Shear Modulus (GPa) = 8.67104 23.59574 16.13339
#
# Velocity S-wave (km/s) = 1.98019 3.26654 2.70106
# Velocity P-wave (km/s) = 3.61420 5.39154 4.58972
#
# Compressibility (1/GPa) = 0.05772273
#
# Stress axis : x y z
#
# Youngs Moduli (GPa) = 85.52000 129.27547 23.88991
#
# Poissons Ratio (x) = 0.21518 -0.08870
# Poissons Ratio (y) = 0.14235 0.09151
# Poissons Ratio (z) = -0.31751 0.49519
#
# Static dielectric constant tensor:
#      x y z
#    x 1.842550 0.000000 0.000000 
#    y 0.000000 1.780200 0.000000 
#    z 0.000000 0.000000 1.807420 
# 
# From -- ./inp_files/12051.got.cif
#   From: 2010.05.17/outbox.cif.g08.bks.cpg/sg62_7_cif.got.tgz:12051.got - 2010.06.03 15:25:27.
