data_PCOD9464381
_publ_section_title
;
Structure prediction by ZEFSAII (Michael W. Deem and Ramdas Pophale) SiO2 
 PCOD9464381
Probable space group: P N M A
;
_chemical_formula_sum "Si O2"
_cell_formula_units_Z 64
_cell_length_a 20.509032
_cell_length_b 8.814165
_cell_length_c 20.533844
_cell_angle_alpha 90.000000
_cell_angle_beta 90.000000
_cell_angle_gamma 90.000000
_cell_volume 3711.902816
_symmetry_space_group_name_H-M "P N M A"
_symmetry_group_IT_number 62
_symmetry_cell_setting 'orthorhombic'
loop_
_space_group_symop_operation_xyz
x,y,z
1/2-x,-y,1/2+z
1/2+x,1/2-y,1/2-z
-x,1/2+y,-z
-x,-y,-z
1/2+x,y,1/2-z
1/2-x,1/2+y,1/2+z
x,1/2-y,z
loop_
_atom_site_type_symbol
_atom_site_label
_atom_site_fract_x
_atom_site_fract_y
_atom_site_fract_z
Si Si1 0.681715 0.433183 0.574973
Si Si2 0.425341 0.068157 0.675616
Si Si3 0.073114 0.932354 0.325723
Si Si4 0.569315 0.568009 0.822904
Si Si5 0.574561 0.066729 0.681949
Si Si6 0.674979 0.567093 0.932172
Si Si7 0.175544 0.431734 0.074253
Si Si8 0.676104 0.069038 0.073921
O O1 0.689953 0.250000 0.576274
O O2 0.626882 0.474955 0.627211
O O3 0.662162 0.475024 0.501002
O O4 0.751243 0.508504 0.589213
O O5 0.422316 0.250000 0.671573
O O6 0.410835 0.025583 0.750658
O O7 0.500576 0.022810 0.662845
O O8 0.374839 0.000800 0.624769
O O9 0.072595 0.750000 0.330260
O O10 0.124888 0.001200 0.375194
O O11 0.000677 0.995108 0.338972
O O12 0.563224 0.750000 0.821116
O O13 0.588924 0.507308 0.751686
O O14 0.623055 0.527468 0.876872
O O15 0.575280 0.250000 0.689493
O O16 0.674015 0.750000 0.941447
O O17 0.749062 0.525009 0.912652
O O18 0.660369 0.489949 0.001188
O O19 0.171308 0.250000 0.078513
O O20 0.674789 0.250000 0.075677
#
# Coordination Sequence:
#
# PCOD9464381 Si02
#       8
#     8   8   8   8   8   8   8   8
#     4   9  19  37  56  75 105 143 177 211 261 319
#     4   9  19  34  52  76 104 136 175 215 255 305
#     4  10  21  38  56  75 106 144 175 209 261 321
#     4  10  20  35  56  81 106 134 175 224 264 303
#     4   9  19  36  55  75 105 144 179 212 259 319
#     4   9  20  38  55  74 106 142 171 207 262 319
#     4   9  18  33  53  76 104 139 174 212 259 308
#     4  11  22  35  55  82 106 132 174 222 261 304
#
# _framework density 17.241831999999999
#
# number of rings (size 3 to 8) (size 9 to 14) (size 15 to 20)
#    0.000    2.500    0.000    3.375    0.000    8.000 
#    0.000    2.500    0.000    0.000    0.000    0.000 
#    0.000    0.000    0.000    0.000    0.000    0.000 
#
# Total GULP energy -357081.289009 kJ/mol
# GULP energy per Si atom -5579.395141 kJ/mol
# Density = 1.720259 g / cm^3
# Si number density = 17.241832 Si / 1000 Ang^3
#
#
#
# Elastic Constant Matrix: (Units=GPa)
#
#
# Indices 1 2 3 4 5 6 
#
# 1 155.9389 60.3599 148.7003 0.0000 0.0000 0.0000
# 2 60.3599 43.8594 61.9710 0.0000 0.0000 0.0000
# 3 148.7003 61.9710 162.2610 0.0000 0.0000 0.0000
# 4 0.0000 0.0000 0.0000 31.4009 0.0000 0.0000
# 5 0.0000 0.0000 0.0000 0.0000 43.9761 0.0000
# 6 0.0000 0.0000 0.0000 0.0000 0.0000 29.4986
#
#
#
# Elastic Compliance Matrix: (Units=1/GPa)
#
#
# Indices 1 2 3 4 5 6 
#
# 1 0.052533 -0.009283 -0.044598 0.000000 0.000000 0.000000
# 2 -0.009283 0.051167 -0.011034 0.000000 0.000000 0.000000
# 3 -0.044598 -0.011034 0.051248 0.000000 0.000000 0.000000
# 4 0.000000 0.000000 0.000000 0.031846 0.000000 0.000000
# 5 0.000000 0.000000 0.000000 0.000000 0.022740 0.000000
# 6 0.000000 0.000000 0.000000 0.000000 0.000000 0.033900
#
#
# Mechanical properties :
#
#
# Convention : Reuss Voigt Hill
#
# Bulk Modulus (GPa) = 39.81281 100.45798 70.13539
# Shear Modulus (GPa) = 13.10147 27.04365 20.07256
#
# Velocity S-wave (km/s) = 2.75956 3.96471 3.41571
# Velocity P-wave (km/s) = 5.77014 8.90782 7.50479
#
# Compressibility (1/GPa) = 0.02511754
#
# Stress axis : x y z
#
# Youngs Moduli (GPa) = 19.03548 19.54394 19.51310
#
# Poissons Ratio (x) = 0.18143 0.87024
# Poissons Ratio (y) = 0.17671 0.21531
# Poissons Ratio (z) = 0.84894 0.21565
#
# Static dielectric constant tensor:
#      x y z
#    x 1.565810 0.000000 0.000000 
#    y 0.000000 1.580160 0.000000 
#    z 0.000000 0.000000 1.563920 
# 
# From -- ./inp_files/27736.got.cif
#   From: 2010.05.17/outbox.cif.g08.bks.cpg/sg62_14_cif.got.tgz:27736.got - 2010.06.03 15:25:27.
