data_PCOD9464495
_publ_section_title
;
Structure prediction by ZEFSAII (Michael W. Deem and Ramdas Pophale) SiO2 
 PCOD9464495
Probable space group: P N M A
;
_chemical_formula_sum "Si O2"
_cell_formula_units_Z 48
_cell_length_a 9.990948
_cell_length_b 14.703286
_cell_length_c 14.343954
_cell_angle_alpha 90.000000
_cell_angle_beta 90.000000
_cell_angle_gamma 90.000000
_cell_volume 2107.123484
_symmetry_space_group_name_H-M "P N M A"
_symmetry_group_IT_number 62
_symmetry_cell_setting 'orthorhombic'
loop_
_space_group_symop_operation_xyz
x,y,z
1/2-x,-y,1/2+z
1/2+x,1/2-y,1/2-z
-x,1/2+y,-z
-x,-y,-z
1/2+x,y,1/2-z
1/2-x,1/2+y,1/2+z
x,1/2-y,z
loop_
_atom_site_type_symbol
_atom_site_label
_atom_site_fract_x
_atom_site_fract_y
_atom_site_fract_z
Si Si1 0.740104 0.557597 0.137013
Si Si2 0.584378 0.250000 0.990099
Si Si3 0.856255 0.250000 0.637605
Si Si4 0.322646 0.750000 0.545097
Si Si5 0.549163 0.923421 0.681639
Si Si6 0.617912 0.750000 0.555538
Si Si7 0.202380 0.442984 0.075848
Si Si8 0.002702 0.577214 0.614020
O O1 0.697805 0.655206 0.177330
O O2 0.835356 0.496920 0.199890
O O3 0.607638 0.500738 0.115715
O O4 0.815019 0.561656 0.036019
O O5 0.745965 0.250000 0.996723
O O6 0.533662 0.341038 0.043951
O O7 0.512985 0.250000 0.888849
O O8 0.786212 0.250000 0.535229
O O9 0.473323 0.750000 0.504592
O O10 0.301829 0.662366 0.607244
O O11 0.608242 0.842378 0.617356
O O12 0.426616 0.977209 0.630721
O O13 0.505949 0.884630 0.780895
O O14 0.354634 0.469635 0.091925
#
# Coordination Sequence:
#
# PCOD9464495 Si02
#       8
#     8   4   4   4   8   4   8   8
#     4  11  22  41  61  86 118 164 213 258 298 363
#     4  12  21  37  61  94 130 158 193 247 311 383
#     4  10  22  41  63  87 117 164 211 254 307 350
#     4   8  16  34  52  81 118 156 194 233 290 356
#     4  11  23  38  58  90 128 163 197 253 310 372
#     4  10  21  34  56  90 131 156 186 230 304 383
#     4  10  20  35  58  83 118 164 204 243 302 360
#     4  12  22  37  61  93 125 158 203 252 314 369
#
# _framework density 22.779869999999999
#
# number of rings (size 3 to 8) (size 9 to 14) (size 15 to 20)
#    0.000    1.333    5.000    2.500    0.000    0.000 
#    0.000    0.833    0.000    0.000    0.000    0.000 
#    0.000    0.000    0.000    0.000    0.000    0.000 
#
# Total GULP energy -267806.944531 kJ/mol
# GULP energy per Si atom -5579.311344 kJ/mol
# Density = 2.272802 g / cm^3
# Si number density = 22.779870 Si / 1000 Ang^3
#
#
#
# Elastic Constant Matrix: (Units=GPa)
#
#
# Indices 1 2 3 4 5 6 
#
# 1 138.0099 29.0479 -8.7886 0.0000 0.0000 0.0000
# 2 29.0479 100.6876 -19.4923 0.0000 0.0000 0.0000
# 3 -8.7886 -19.4923 16.6814 0.0000 0.0000 0.0000
# 4 0.0000 0.0000 0.0000 6.4874 0.0000 0.0000
# 5 0.0000 0.0000 0.0000 0.0000 17.8922 0.0000
# 6 0.0000 0.0000 0.0000 0.0000 0.0000 24.2947
#
#
#
# Elastic Compliance Matrix: (Units=1/GPa)
#
#
# Indices 1 2 3 4 5 6 
#
# 1 0.007761 -0.001871 0.001903 0.000000 0.000000 0.000000
# 2 -0.001871 0.013286 0.014539 0.000000 0.000000 0.000000
# 3 0.001903 0.014539 0.077939 0.000000 0.000000 0.000000
# 4 0.000000 0.000000 0.000000 0.154144 0.000000 0.000000
# 5 0.000000 0.000000 0.000000 0.000000 0.055890 0.000000
# 6 0.000000 0.000000 0.000000 0.000000 0.000000 0.041161
#
#
# Mechanical properties :
#
#
# Convention : Reuss Voigt Hill
#
# Bulk Modulus (GPa) = 7.80460 28.54588 18.17524
# Shear Modulus (GPa) = 13.74579 26.70900 20.22739
#
# Velocity S-wave (km/s) = 2.45912 3.42787 2.98308
# Velocity P-wave (km/s) = 3.39066 5.31276 4.45657
#
# Compressibility (1/GPa) = 0.12812962
#
# Stress axis : x y z
#
# Youngs Moduli (GPa) = 128.85354 75.26691 12.83053
#
# Poissons Ratio (x) = 0.14079 -0.02442
# Poissons Ratio (y) = 0.24102 -0.18655
# Poissons Ratio (z) = -0.24521 -1.09433
#
# Static dielectric constant tensor:
#      x y z
#    x 1.932550 0.000000 0.000000 
#    y 0.000000 1.902600 0.000000 
#    z 0.000000 0.000000 1.873370 
# 
# From -- ./inp_files/22280.got.cif
#   From: 2010.05.17/outbox.cif.g08.bks.cpg/sg62_12_cif.got.tgz:22280.got - 2010.06.03 15:25:27.
