data_PCOD9464704
_publ_section_title
;
Structure prediction by ZEFSAII (Michael W. Deem and Ramdas Pophale) SiO2 
 PCOD9464704
Probable space group: P N M A
;
_chemical_formula_sum "Si O2"
_cell_formula_units_Z 48
_cell_length_a 9.752128
_cell_length_b 7.613435
_cell_length_c 29.322261
_cell_angle_alpha 90.000000
_cell_angle_beta 90.000000
_cell_angle_gamma 90.000000
_cell_volume 2177.095561
_symmetry_space_group_name_H-M "P N M A"
_symmetry_group_IT_number 62
_symmetry_cell_setting 'orthorhombic'
loop_
_space_group_symop_operation_xyz
x,y,z
1/2-x,-y,1/2+z
1/2+x,1/2-y,1/2-z
-x,1/2+y,-z
-x,-y,-z
1/2+x,y,1/2-z
1/2-x,1/2+y,1/2+z
x,1/2-y,z
loop_
_atom_site_type_symbol
_atom_site_label
_atom_site_fract_x
_atom_site_fract_y
_atom_site_fract_z
Si Si1 0.812499 0.534351 0.281910
Si Si2 0.600502 0.039577 0.958390
Si Si3 0.996750 0.456716 0.798950
Si Si4 0.323110 0.042852 0.381600
Si Si5 0.152133 0.960650 0.984591
Si Si6 0.515834 0.961921 0.137378
O O1 0.807493 0.750000 0.281888
O O2 0.656413 0.472523 0.290002
O O3 0.886120 0.474420 0.235387
O O4 0.915305 0.480353 0.322396
O O5 0.610017 0.250000 0.952600
O O6 0.541498 0.970289 0.911011
O O7 0.745218 0.970916 0.976641
O O8 0.500000 0.000000 0.000000
O O9 0.986926 0.250000 0.788918
O O10 0.054322 0.474654 0.849984
O O11 0.343502 0.250000 0.384908
O O12 0.320075 0.970591 0.433399
O O13 0.175305 0.009755 0.358790
O O14 0.172390 0.750000 0.982675
O O15 0.000000 0.000000 0.000000
O O16 0.512086 0.750000 0.137342
#
# Coordination Sequence:
#
# PCOD9464704 Si02
#       6
#     8   8   8   8   8   8
#     4   9  19  36  61  91 114 140 186 241 284 327
#     4  10  20  36  58  84 115 150 191 232 274 331
#     4  10  20  37  62  86 113 147 187 234 283 337
#     4  11  23  39  56  82 119 153 187 233 284 337
#     4  10  23  39  56  82 116 151 191 236 280 332
#     4  10  20  36  61  88 112 147 193 234 279 335
#
# _framework density 22.047720999999999
#
# number of rings (size 3 to 8) (size 9 to 14) (size 15 to 20)
#    0.000    2.000    1.667    1.500    2.333    4.667 
#    0.000    4.167    0.000    0.000    0.000    0.000 
#    0.000    0.000    0.000    0.000    0.000    0.000 
#
# Total GULP energy -268117.839541 kJ/mol
# GULP energy per Si atom -5585.788324 kJ/mol
# Density = 2.199754 g / cm^3
# Si number density = 22.047721 Si / 1000 Ang^3
#
#
#
# Elastic Constant Matrix: (Units=GPa)
#
#
# Indices 1 2 3 4 5 6 
#
# 1 143.6196 -1.5548 19.6202 0.0000 0.0000 0.0000
# 2 -1.5548 36.2184 1.6328 0.0000 0.0000 0.0000
# 3 19.6202 1.6328 76.4007 0.0000 0.0000 0.0000
# 4 0.0000 0.0000 0.0000 17.2552 0.0000 0.0000
# 5 0.0000 0.0000 0.0000 0.0000 40.4150 0.0000
# 6 0.0000 0.0000 0.0000 0.0000 0.0000 11.3505
#
#
#
# Elastic Compliance Matrix: (Units=1/GPa)
#
#
# Indices 1 2 3 4 5 6 
#
# 1 0.007222 0.000394 -0.001863 0.000000 0.000000 0.000000
# 2 0.000394 0.027658 -0.000692 0.000000 0.000000 0.000000
# 3 -0.001863 -0.000692 0.013582 0.000000 0.000000 0.000000
# 4 0.000000 0.000000 0.000000 0.057954 0.000000 0.000000
# 5 0.000000 0.000000 0.000000 0.000000 0.024743 0.000000
# 6 0.000000 0.000000 0.000000 0.000000 0.000000 0.088102
#
#
# Mechanical properties :
#
#
# Convention : Reuss Voigt Hill
#
# Bulk Modulus (GPa) = 22.65542 32.84836 27.75189
# Shear Modulus (GPa) = 20.98227 29.57350 25.27789
#
# Velocity S-wave (km/s) = 3.08827 3.66640 3.38969
# Velocity P-wave (km/s) = 4.79734 5.73188 5.28531
#
# Compressibility (1/GPa) = 0.04413955
#
# Stress axis : x y z
#
# Youngs Moduli (GPa) = 138.47336 36.15540 73.62630
#
# Poissons Ratio (x) = -0.01425 0.13716
# Poissons Ratio (y) = -0.05456 0.05097
# Poissons Ratio (z) = 0.25797 0.02503
#
# Static dielectric constant tensor:
#      x y z
#    x 2.103810 0.000000 0.000000 
#    y 0.000000 1.844500 0.000000 
#    z 0.000000 0.000000 1.822320 
# 
# From -- ./inp_files/31958.got.cif
#   From: 2010.05.17/outbox.cif.g08.bks.cpg/sg62_16_cif.got.tgz:31958.got - 2010.06.03 15:25:27.
