data_PCOD9464307
_publ_section_title
;
Structure prediction by ZEFSAII (Michael W. Deem and Ramdas Pophale) SiO2 
 PCOD9464307
Probable space group: P N M A
;
_chemical_formula_sum "Si O2"
_cell_formula_units_Z 56
_cell_length_a 15.309316
_cell_length_b 7.541517
_cell_length_c 21.423114
_cell_angle_alpha 90.000000
_cell_angle_beta 90.000000
_cell_angle_gamma 90.000000
_cell_volume 2473.415629
_symmetry_space_group_name_H-M "P N M A"
_symmetry_group_IT_number 62
_symmetry_cell_setting 'orthorhombic'
loop_
_space_group_symop_operation_xyz
x,y,z
1/2-x,-y,1/2+z
1/2+x,1/2-y,1/2-z
-x,1/2+y,-z
-x,-y,-z
1/2+x,y,1/2-z
1/2-x,1/2+y,1/2+z
x,1/2-y,z
loop_
_atom_site_type_symbol
_atom_site_label
_atom_site_fract_x
_atom_site_fract_y
_atom_site_fract_z
Si Si1 0.233895 0.966649 0.981712
Si Si2 0.493804 0.948305 0.719637
Si Si3 0.193484 0.454180 0.252939
Si Si4 0.658166 0.967890 0.649247
Si Si5 0.928074 0.539361 0.552144
Si Si6 0.945332 0.548832 0.345067
Si Si7 0.759233 0.536972 0.383266
O O1 0.233632 0.750000 0.983357
O O2 0.177169 0.019370 0.922037
O O3 0.332556 0.024801 0.965808
O O4 0.213886 0.024638 0.052672
O O5 0.471432 0.750000 0.696486
O O6 0.402879 0.035730 0.741326
O O7 0.562755 0.030204 0.671783
O O8 0.548961 0.936206 0.783236
O O9 0.178142 0.250000 0.273280
O O10 0.263579 0.525781 0.303358
O O11 0.232699 0.459308 0.183219
O O12 0.656952 0.750000 0.652748
O O13 0.922200 0.750000 0.559795
O O14 0.966600 0.464073 0.615798
O O15 0.000000 0.500000 0.500000
O O16 0.930795 0.750000 0.324400
O O17 0.863108 0.501466 0.388158
O O18 0.746912 0.750000 0.379010
#
# Coordination Sequence:
#
# PCOD9464307 Si02
#       7
#     8   8   8   8   8   8   8
#     4   9  18  34  53  76 109 145 181 222 270 330
#     4  10  20  35  57  83 105 137 185 232 277 324
#     4  10  20  35  56  82 108 138 184 230 274 328
#     4   9  17  32  55  79 104 138 179 225 272 319
#     4  11  20  32  51  77 111 144 180 223 272 330
#     4  11  21  34  52  79 111 144 181 223 277 335
#     4  10  20  35  54  77 108 146 184 220 271 332
#
# _framework density 22.640754999999999
#
# number of rings (size 3 to 8) (size 9 to 14) (size 15 to 20)
#    0.000    2.000    2.857    1.714    0.000    3.429 
#    0.000    0.714    0.000    2.571    0.000    0.000 
#    0.000    0.000    0.000    0.000    0.000    0.000 
#
# Total GULP energy -312460.216192 kJ/mol
# GULP energy per Si atom -5579.646718 kJ/mol
# Density = 2.258922 g / cm^3
# Si number density = 22.640755 Si / 1000 Ang^3
#
#
#
# Elastic Constant Matrix: (Units=GPa)
#
#
# Indices 1 2 3 4 5 6 
#
# 1 47.6808 2.5800 -11.3531 0.0000 0.0000 0.0000
# 2 2.5800 55.3227 0.3318 0.0000 0.0000 0.0000
# 3 -11.3531 0.3318 93.5963 0.0000 0.0000 0.0000
# 4 0.0000 0.0000 0.0000 16.1281 0.0000 0.0000
# 5 0.0000 0.0000 0.0000 0.0000 34.9636 0.0000
# 6 0.0000 0.0000 0.0000 0.0000 0.0000 2.2691
#
#
#
# Elastic Compliance Matrix: (Units=1/GPa)
#
#
# Indices 1 2 3 4 5 6 
#
# 1 0.021655 -0.001026 0.002630 0.000000 0.000000 0.000000
# 2 -0.001026 0.018125 -0.000189 0.000000 0.000000 0.000000
# 3 0.002630 -0.000189 0.011004 0.000000 0.000000 0.000000
# 4 0.000000 0.000000 0.000000 0.062004 0.000000 0.000000
# 5 0.000000 0.000000 0.000000 0.000000 0.028601 0.000000
# 6 0.000000 0.000000 0.000000 0.000000 0.000000 0.440700
#
#
# Mechanical properties :
#
#
# Convention : Reuss Voigt Hill
#
# Bulk Modulus (GPa) = 18.65142 19.96858 19.31000
# Shear Modulus (GPa) = 8.37342 24.34158 16.35750
#
# Velocity S-wave (km/s) = 1.92520 3.28246 2.69082
# Velocity P-wave (km/s) = 3.63287 4.81715 4.26631
#
# Compressibility (1/GPa) = 0.05361522
#
# Stress axis : x y z
#
# Youngs Moduli (GPa) = 46.17953 55.17329 90.87683
#
# Poissons Ratio (x) = 0.05659 -0.23903
# Poissons Ratio (y) = 0.04736 0.01715
# Poissons Ratio (z) = -0.12147 0.01041
#
# Static dielectric constant tensor:
#      x y z
#    x 1.871650 0.000000 0.000000 
#    y 0.000000 1.859040 0.000000 
#    z 0.000000 0.000000 1.837600 
# 
# From -- ./inp_files/27136.got.cif
#   From: 2010.05.17/outbox.cif.g08.bks.cpg/sg62_14_cif.got.tgz:27136.got - 2010.06.03 15:25:27.
