data_PCOD9464198
_publ_section_title
;
Structure prediction by ZEFSAII (Michael W. Deem and Ramdas Pophale) SiO2 
 PCOD9464198
Probable space group: P N M A
;
_chemical_formula_sum "Si O2"
_cell_formula_units_Z 56
_cell_length_a 14.875912
_cell_length_b 9.615751
_cell_length_c 21.544225
_cell_angle_alpha 90.000000
_cell_angle_beta 90.000000
_cell_angle_gamma 90.000000
_cell_volume 3081.751992
_symmetry_space_group_name_H-M "P N M A"
_symmetry_group_IT_number 62
_symmetry_cell_setting 'orthorhombic'
loop_
_space_group_symop_operation_xyz
x,y,z
1/2-x,-y,1/2+z
1/2+x,1/2-y,1/2-z
-x,1/2+y,-z
-x,-y,-z
1/2+x,y,1/2-z
1/2-x,1/2+y,1/2+z
x,1/2-y,z
loop_
_atom_site_type_symbol
_atom_site_label
_atom_site_fract_x
_atom_site_fract_y
_atom_site_fract_z
Si Si1 0.060993 0.914184 0.691068
Si Si2 0.249387 0.586956 0.760861
Si Si3 0.357374 0.913600 0.486334
Si Si4 0.954483 0.410145 0.915614
Si Si5 0.985224 0.913930 0.562266
Si Si6 0.777535 0.913337 0.594875
Si Si7 0.421188 0.413352 0.728409
O O1 0.036808 0.750000 0.696731
O O2 0.156788 0.933506 0.723957
O O3 0.054491 0.947731 0.617920
O O4 0.989015 0.007406 0.726513
O O5 0.275416 0.750000 0.754282
O O6 0.243936 0.560024 0.834862
O O7 0.325236 0.486571 0.734612
O O8 0.340242 0.750000 0.494015
O O9 0.445808 0.931606 0.442943
O O10 0.386241 0.986479 0.550337
O O11 0.275714 0.991223 0.453164
O O12 0.929024 0.250000 0.929869
O O13 0.954230 0.428512 0.842201
O O14 0.993289 0.750000 0.548329
O O15 0.884500 0.937270 0.589051
O O16 0.000000 0.000000 0.500000
O O17 0.760956 0.750000 0.581503
O O18 0.416031 0.250000 0.743286
#
# Coordination Sequence:
#
# PCOD9464198 Si02
#       7
#     8   8   8   8   8   8   8
#     4  10  21  40  63  86 116 154 200 249 295 355
#     4  10  21  38  62  87 115 153 196 244 297 356
#     4  10  20  34  56  83 111 148 196 239 276 343
#     4   9  20  37  53  79 119 153 183 232 296 344
#     4  10  22  40  60  84 116 153 196 244 292 350
#     4  10  20  37  58  82 116 154 189 237 300 354
#     4  11  22  36  58  86 119 152 186 241 296 349
#
# _framework density 18.171482999999998
#
# number of rings (size 3 to 8) (size 9 to 14) (size 15 to 20)
#    0.000    2.000    1.429    1.714    0.000    5.143 
#    0.000    2.857    0.000    0.000    0.000    0.000 
#    0.000    0.000    0.000    0.000    0.000    0.000 
#
# Total GULP energy -312653.750176 kJ/mol
# GULP energy per Si atom -5583.102682 kJ/mol
# Density = 1.813012 g / cm^3
# Si number density = 18.171483 Si / 1000 Ang^3
#
#
#
# Elastic Constant Matrix: (Units=GPa)
#
#
# Indices 1 2 3 4 5 6 
#
# 1 55.6828 47.2009 43.0945 0.0000 0.0000 0.0000
# 2 47.2009 71.4026 59.4177 0.0000 0.0000 0.0000
# 3 43.0945 59.4177 106.5368 0.0000 0.0000 0.0000
# 4 0.0000 0.0000 0.0000 31.1466 0.0000 0.0000
# 5 0.0000 0.0000 0.0000 0.0000 21.1538 0.0000
# 6 0.0000 0.0000 0.0000 0.0000 0.0000 26.7154
#
#
#
# Elastic Compliance Matrix: (Units=1/GPa)
#
#
# Indices 1 2 3 4 5 6 
#
# 1 0.041279 -0.024991 -0.002759 0.000000 0.000000 0.000000
# 2 -0.024991 0.041265 -0.012905 0.000000 0.000000 0.000000
# 3 -0.002759 -0.012905 0.017700 0.000000 0.000000 0.000000
# 4 0.000000 0.000000 0.000000 0.032106 0.000000 0.000000
# 5 0.000000 0.000000 0.000000 0.000000 0.047273 0.000000
# 6 0.000000 0.000000 0.000000 0.000000 0.000000 0.037432
#
#
# Mechanical properties :
#
#
# Convention : Reuss Voigt Hill
#
# Bulk Modulus (GPa) = 52.82022 59.22760 56.02391
# Shear Modulus (GPa) = 16.41086 21.39711 18.90399
#
# Velocity S-wave (km/s) = 3.00844 3.43521 3.22888
# Velocity P-wave (km/s) = 6.41860 6.95692 6.69317
#
# Compressibility (1/GPa) = 0.01893214
#
# Stress axis : x y z
#
# Youngs Moduli (GPa) = 24.22539 24.23382 56.49742
#
# Poissons Ratio (x) = 0.60564 0.15589
# Poissons Ratio (y) = 0.60543 0.72910
# Poissons Ratio (z) = 0.06684 0.31274
#
# Static dielectric constant tensor:
#      x y z
#    x 1.611390 0.000000 0.000000 
#    y 0.000000 1.605950 0.000000 
#    z 0.000000 0.000000 1.613080 
# 
# From -- ./inp_files/27092.got.cif
#   From: 2010.05.17/outbox.cif.g08.bks.cpg/sg62_14_cif.got.tgz:27092.got - 2010.06.03 15:25:27.
