data_PCOD9464502
_publ_section_title
;
Structure prediction by ZEFSAII (Michael W. Deem and Ramdas Pophale) SiO2 
 PCOD9464502
Probable space group: P N M A
;
_chemical_formula_sum "Si O2"
_cell_formula_units_Z 64
_cell_length_a 31.498374
_cell_length_b 10.966466
_cell_length_c 9.593195
_cell_angle_alpha 90.000000
_cell_angle_beta 90.000000
_cell_angle_gamma 90.000000
_cell_volume 3313.737513
_symmetry_space_group_name_H-M "P N M A"
_symmetry_group_IT_number 62
_symmetry_cell_setting 'orthorhombic'
loop_
_space_group_symop_operation_xyz
x,y,z
1/2-x,-y,1/2+z
1/2+x,1/2-y,1/2-z
-x,1/2+y,-z
-x,-y,-z
1/2+x,y,1/2-z
1/2-x,1/2+y,1/2+z
x,1/2-y,z
loop_
_atom_site_type_symbol
_atom_site_label
_atom_site_fract_x
_atom_site_fract_y
_atom_site_fract_z
Si Si1 0.816910 0.390346 0.284018
Si Si2 0.473571 0.382433 0.460708
Si Si3 0.068010 0.437454 0.428056
Si Si4 0.284391 0.889805 0.710196
Si Si5 0.027834 0.621632 0.636561
Si Si6 0.336342 0.887849 0.000237
Si Si7 0.817051 0.389544 0.965794
Si Si8 0.903921 0.380978 0.807743
O O1 0.828724 0.250000 0.328445
O O2 0.765922 0.391225 0.263589
O O3 0.828913 0.499343 0.391572
O O4 0.832694 0.409578 0.124824
O O5 0.500000 0.500000 0.500000
O O6 0.495150 0.250000 0.486893
O O7 0.463335 0.387908 0.299006
O O8 0.432200 0.384989 0.554657
O O9 0.051530 0.516107 0.557238
O O10 0.112996 0.380019 0.470435
O O11 0.081104 0.516984 0.295775
O O12 0.023225 0.377469 0.383676
O O13 0.295822 0.750000 0.665394
O O14 0.291219 0.994792 0.593506
O O15 0.310615 0.912124 0.854634
O O16 0.044350 0.750000 0.581733
O O17 0.323050 0.750000 0.047980
O O18 0.798228 0.250000 0.962804
O O19 0.856243 0.388728 0.859351
O O20 0.910892 0.250000 0.738511
#
# Coordination Sequence:
#
# PCOD9464502 Si02
#       8
#     8   8   8   8   8   8   8   8
#     4  10  23  40  62  90 124 161 201 246 301 365
#     4  10  20  37  58  85 114 150 193 240 296 350
#     4  11  21  38  60  84 121 157 205 242 306 358
#     4  10  21  40  63  91 122 158 200 249 304 361
#     4  10  22  37  59  86 118 157 200 250 300 355
#     4  11  24  41  63  91 126 162 203 253 304 363
#     4  10  21  39  62  89 118 156 199 246 299 357
#     4  10  20  35  58  85 115 149 196 245 292 356
#
# _framework density 19.313538999999999
#
# number of rings (size 3 to 8) (size 9 to 14) (size 15 to 20)
#    0.000    1.750    2.500    1.500    1.750    3.500 
#    0.000    1.250    0.000    0.000    0.000    0.000 
#    0.000    0.000    0.000    0.000    0.000    0.000 
#
# Total GULP energy -356298.132017 kJ/mol
# GULP energy per Si atom -5567.158313 kJ/mol
# Density = 1.926958 g / cm^3
# Si number density = 19.313539 Si / 1000 Ang^3
#
#
#
# Elastic Constant Matrix: (Units=GPa)
#
#
# Indices 1 2 3 4 5 6 
#
# 1 55.5950 20.4421 14.2538 0.0000 0.0000 0.0000
# 2 20.4421 140.8461 69.2576 0.0000 0.0000 0.0000
# 3 14.2538 69.2576 89.0476 0.0000 0.0000 0.0000
# 4 0.0000 0.0000 0.0000 33.3424 0.0000 0.0000
# 5 0.0000 0.0000 0.0000 0.0000 24.7317 0.0000
# 6 0.0000 0.0000 0.0000 0.0000 0.0000 -37.2779
#
#
#
# Elastic Compliance Matrix: (Units=1/GPa)
#
#
# Indices 1 2 3 4 5 6 
#
# 1 0.019118 -0.002056 -0.001461 0.000000 0.000000 0.000000
# 2 -0.002056 0.011718 -0.008785 0.000000 0.000000 0.000000
# 3 -0.001461 -0.008785 0.018296 0.000000 0.000000 0.000000
# 4 0.000000 0.000000 0.000000 0.029992 0.000000 0.000000
# 5 0.000000 0.000000 0.000000 0.000000 0.040434 0.000000
# 6 0.000000 0.000000 0.000000 0.000000 0.000000 -0.026826
#
#
# Mechanical properties :
#
#
# Convention : Reuss Voigt Hill
#
# Bulk Modulus (GPa) = 40.76921 54.82178 47.79549
# Shear Modulus (GPa) = 39.83676 16.26158 28.04917
#
# Velocity S-wave (km/s) = 4.54655 2.90483 3.81505
# Velocity P-wave (km/s) = 6.97972 6.30060 6.64883
#
# Compressibility (1/GPa) = 0.02452832
#
# Stress axis : x y z
#
# Youngs Moduli (GPa) = 52.30704 85.33840 54.65633
#
# Poissons Ratio (x) = 0.17549 0.07984
# Poissons Ratio (y) = 0.10757 0.48014
# Poissons Ratio (z) = 0.07641 0.74967
#
# Static dielectric constant tensor:
#      x y z
#    x 1.659440 0.000000 0.000000 
#    y 0.000000 1.742480 0.000000 
#    z 0.000000 0.000000 1.630190 
# 
# From -- ./inp_files/10455.got.cif
#   From: 2010.05.17/outbox.cif.g08.bks.cpg/sg62_6_cif.got.tgz:10455.got - 2010.06.03 15:25:27.
