data_PCOD9464944
_publ_section_title
;
Structure prediction by ZEFSAII (Michael W. Deem and Ramdas Pophale) SiO2 
 PCOD9464944
Probable space group: P N M A
;
_chemical_formula_sum "Si O2"
_cell_formula_units_Z 48
_cell_length_a 29.159968
_cell_length_b 8.423466
_cell_length_c 9.715590
_cell_angle_alpha 90.000000
_cell_angle_beta 90.000000
_cell_angle_gamma 90.000000
_cell_volume 2386.420931
_symmetry_space_group_name_H-M "P N M A"
_symmetry_group_IT_number 62
_symmetry_cell_setting 'orthorhombic'
loop_
_space_group_symop_operation_xyz
x,y,z
1/2-x,-y,1/2+z
1/2+x,1/2-y,1/2-z
-x,1/2+y,-z
-x,-y,-z
1/2+x,y,1/2-z
1/2-x,1/2+y,1/2+z
x,1/2-y,z
loop_
_atom_site_type_symbol
_atom_site_label
_atom_site_fract_x
_atom_site_fract_y
_atom_site_fract_z
Si Si1 0.802551 0.060252 0.997152
Si Si2 0.119142 0.060025 0.185331
Si Si3 0.280329 0.557951 0.195971
Si Si4 0.540215 0.441117 0.902279
Si Si5 0.638690 0.443793 0.009562
Si Si6 0.516302 0.559849 0.354013
O O1 0.801160 0.250000 0.000968
O O2 0.788562 0.000621 0.148823
O O3 0.766259 0.004974 0.880242
O O4 0.852146 0.005347 0.943302
O O5 0.120892 0.250000 0.180916
O O6 0.141253 0.005411 0.331014
O O7 0.066134 0.008444 0.183570
O O8 0.280307 0.750000 0.200646
O O9 0.321036 0.505966 0.092602
O O10 0.541775 0.250000 0.907766
O O11 0.589810 0.498427 0.949818
O O12 0.523231 0.490119 0.752469
O O13 0.500000 0.500000 0.000000
O O14 0.639181 0.250000 0.010625
O O15 0.500000 0.500000 0.500000
O O16 0.519758 0.750000 0.351035
#
# Coordination Sequence:
#
# PCOD9464944 Si02
#       6
#     8   8   8   8   8   8
#     4  11  24  41  62  93 127 156 200 255 302 361
#     4  11  22  40  65  88 119 165 206 250 308 366
#     4  10  22  41  65  90 121 160 201 248 304 367
#     4  10  20  37  60  87 120 158 203 248 294 353
#     4   9  19  37  62  89 116 156 205 247 297 363
#     4  11  24  39  59  90 126 163 206 257 307 362
#
# _framework density 20.113803999999998
#
# number of rings (size 3 to 8) (size 9 to 14) (size 15 to 20)
#    0.000    1.667    1.667    2.500    2.333    3.333 
#    0.000    2.500    0.000    0.000    0.000    0.000 
#    0.000    0.000    0.000    0.000    0.000    0.000 
#
# Total GULP energy -268123.362952 kJ/mol
# GULP energy per Si atom -5585.903395 kJ/mol
# Density = 2.006802 g / cm^3
# Si number density = 20.113804 Si / 1000 Ang^3
#
#
#
# Elastic Constant Matrix: (Units=GPa)
#
#
# Indices 1 2 3 4 5 6 
#
# 1 72.3208 6.5602 14.9398 0.0000 0.0000 0.0000
# 2 6.5602 21.4747 19.4357 0.0000 0.0000 0.0000
# 3 14.9398 19.4357 131.0380 0.0000 0.0000 0.0000
# 4 0.0000 0.0000 0.0000 29.3267 0.0000 0.0000
# 5 0.0000 0.0000 0.0000 0.0000 42.4232 0.0000
# 6 0.0000 0.0000 0.0000 0.0000 0.0000 21.9477
#
#
#
# Elastic Compliance Matrix: (Units=1/GPa)
#
#
# Indices 1 2 3 4 5 6 
#
# 1 0.014367 -0.003357 -0.001140 0.000000 0.000000 0.000000
# 2 -0.003357 0.054571 -0.007711 0.000000 0.000000 0.000000
# 3 -0.001140 -0.007711 0.008905 0.000000 0.000000 0.000000
# 4 0.000000 0.000000 0.000000 0.034099 0.000000 0.000000
# 5 0.000000 0.000000 0.000000 0.000000 0.023572 0.000000
# 6 0.000000 0.000000 0.000000 0.000000 0.000000 0.045563
#
#
# Mechanical properties :
#
#
# Convention : Reuss Voigt Hill
#
# Bulk Modulus (GPa) = 18.71729 34.07829 26.39779
# Shear Modulus (GPa) = 22.39112 30.99939 26.69525
#
# Velocity S-wave (km/s) = 3.34012 3.93007 3.64704
# Velocity P-wave (km/s) = 4.91946 6.12972 5.55763
#
# Compressibility (1/GPa) = 0.05342653
#
# Stress axis : x y z
#
# Youngs Moduli (GPa) = 69.60244 18.32470 112.29514
#
# Poissons Ratio (x) = 0.06152 0.12803
# Poissons Ratio (y) = 0.23366 0.86594
# Poissons Ratio (z) = 0.07935 0.14131
#
# Static dielectric constant tensor:
#      x y z
#    x 1.699540 0.000000 0.000000 
#    y 0.000000 1.686000 0.000000 
#    z 0.000000 0.000000 1.709790 
# 
# From -- ./inp_files/10220.got.cif
#   From: 2010.05.17/outbox.cif.g08.bks.cpg/sg62_6_cif.got.tgz:10220.got - 2010.06.03 15:25:27.
