data_PCOD9464245
_publ_section_title
;
Structure prediction by ZEFSAII (Michael W. Deem and Ramdas Pophale) SiO2 
 PCOD9464245
Probable space group: P N M A
;
_chemical_formula_sum "Si O2"
_cell_formula_units_Z 56
_cell_length_a 15.875751
_cell_length_b 7.622016
_cell_length_c 19.149738
_cell_angle_alpha 90.000000
_cell_angle_beta 90.000000
_cell_angle_gamma 90.000000
_cell_volume 2317.218415
_symmetry_space_group_name_H-M "P N M A"
_symmetry_group_IT_number 62
_symmetry_cell_setting 'orthorhombic'
loop_
_space_group_symop_operation_xyz
x,y,z
1/2-x,-y,1/2+z
1/2+x,1/2-y,1/2-z
-x,1/2+y,-z
-x,-y,-z
1/2+x,y,1/2-z
1/2-x,1/2+y,1/2+z
x,1/2-y,z
loop_
_atom_site_type_symbol
_atom_site_label
_atom_site_fract_x
_atom_site_fract_y
_atom_site_fract_z
Si Si1 0.725077 0.050416 0.604228
Si Si2 0.281690 0.450879 0.249708
Si Si3 0.029162 0.955523 0.763379
Si Si4 0.402398 0.960035 0.498489
Si Si5 0.008068 0.462482 0.605762
Si Si6 0.132869 0.465969 0.152063
Si Si7 0.139068 0.450640 0.500589
O O1 0.713957 0.250000 0.627017
O O2 0.640471 0.969851 0.571796
O O3 0.757274 0.952655 0.672366
O O4 0.786972 0.049504 0.538127
O O5 0.295183 0.250000 0.227057
O O6 0.375424 0.530080 0.260058
O O7 0.213389 0.527671 0.196617
O O8 0.037515 0.750000 0.780943
O O9 0.956114 0.026209 0.814165
O O10 0.996825 0.976712 0.684270
O O11 0.390986 0.750000 0.495531
O O12 0.363122 0.021152 0.571549
O O13 0.500000 0.000000 0.500000
O O14 0.003124 0.250000 0.602178
O O15 0.098671 0.515668 0.572934
O O16 0.937608 0.539441 0.554848
O O17 0.132210 0.250000 0.154668
O O18 0.165473 0.250000 0.509726
#
# Coordination Sequence:
#
# PCOD9464245 Si02
#       7
#     8   8   8   8   8   8   8
#     4  11  23  37  59  88 119 153 194 254 311 354
#     4  10  21  37  60  85 115 161 207 246 296 361
#     4  10  20  34  58  84 111 154 201 243 294 355
#     4  10  22  40  62  87 118 156 202 252 302 358
#     4  10  21  36  56  84 117 151 188 239 298 353
#     4   9  19  37  58  84 115 152 203 250 288 350
#     4  10  21  37  57  82 114 153 194 235 288 362
#
# _framework density 24.166906000000001
#
# number of rings (size 3 to 8) (size 9 to 14) (size 15 to 20)
#    0.000    2.000    0.000    3.000    2.000    5.714 
#    0.000    1.429    0.000    0.000    0.000    0.000 
#    0.000    0.000    0.000    0.000    0.000    0.000 
#
# Total GULP energy -312966.534716 kJ/mol
# GULP energy per Si atom -5588.688120 kJ/mol
# Density = 2.411190 g / cm^3
# Si number density = 24.166906 Si / 1000 Ang^3
#
#
#
# Elastic Constant Matrix: (Units=GPa)
#
#
# Indices 1 2 3 4 5 6 
#
# 1 85.9463 9.6194 11.3796 0.0000 0.0000 0.0000
# 2 9.6194 61.6878 0.4021 0.0000 0.0000 0.0000
# 3 11.3796 0.4021 101.4064 0.0000 0.0000 0.0000
# 4 0.0000 0.0000 0.0000 16.5024 0.0000 0.0000
# 5 0.0000 0.0000 0.0000 0.0000 40.6979 0.0000
# 6 0.0000 0.0000 0.0000 0.0000 0.0000 12.4498
#
#
#
# Elastic Compliance Matrix: (Units=1/GPa)
#
#
# Indices 1 2 3 4 5 6 
#
# 1 0.012022 -0.001866 -0.001342 0.000000 0.000000 0.000000
# 2 -0.001866 0.016501 0.000144 0.000000 0.000000 0.000000
# 3 -0.001342 0.000144 0.010011 0.000000 0.000000 0.000000
# 4 0.000000 0.000000 0.000000 0.060597 0.000000 0.000000
# 5 0.000000 0.000000 0.000000 0.000000 0.024571 0.000000
# 6 0.000000 0.000000 0.000000 0.000000 0.000000 0.080323
#
#
# Mechanical properties :
#
#
# Convention : Reuss Voigt Hill
#
# Bulk Modulus (GPa) = 30.85801 32.42697 31.64249
# Shear Modulus (GPa) = 22.62912 29.10597 25.86754
#
# Velocity S-wave (km/s) = 3.06333 3.47417 3.27520
# Velocity P-wave (km/s) = 5.03075 5.43509 5.23682
#
# Compressibility (1/GPa) = 0.03240649
#
# Stress axis : x y z
#
# Youngs Moduli (GPa) = 83.18332 60.60357 99.88716
#
# Poissons Ratio (x) = 0.11308 0.13401
# Poissons Ratio (y) = 0.15521 -0.01438
# Poissons Ratio (z) = 0.11160 -0.00872
#
# Static dielectric constant tensor:
#      x y z
#    x 1.989220 0.000000 0.000000 
#    y 0.000000 1.891330 0.000000 
#    z 0.000000 0.000000 1.902460 
# 
# From -- ./inp_files/27238.got.cif
#   From: 2010.05.17/outbox.cif.g08.bks.cpg/sg62_14_cif.got.tgz:27238.got - 2010.06.03 15:25:27.
