data_PCOD9464710
_publ_section_title
;
Structure prediction by ZEFSAII (Michael W. Deem and Ramdas Pophale) SiO2 
 PCOD9464710
Probable space group: P N M A
;
_chemical_formula_sum "Si O2"
_cell_formula_units_Z 40
_cell_length_a 19.142646
_cell_length_b 7.648188
_cell_length_c 12.875830
_cell_angle_alpha 90.000000
_cell_angle_beta 90.000000
_cell_angle_gamma 90.000000
_cell_volume 1885.105919
_symmetry_space_group_name_H-M "P N M A"
_symmetry_group_IT_number 62
_symmetry_cell_setting 'orthorhombic'
loop_
_space_group_symop_operation_xyz
x,y,z
1/2-x,-y,1/2+z
1/2+x,1/2-y,1/2-z
-x,1/2+y,-z
-x,-y,-z
1/2+x,y,1/2-z
1/2-x,1/2+y,1/2+z
x,1/2-y,z
loop_
_atom_site_type_symbol
_atom_site_label
_atom_site_fract_x
_atom_site_fract_y
_atom_site_fract_z
Si Si1 0.045193 0.960345 0.275063
Si Si2 0.075775 0.539982 0.047356
Si Si3 0.192026 0.960858 0.886087
Si Si4 0.844187 0.960048 0.547414
Si Si5 0.888981 0.959640 0.321393
O O1 0.040928 0.750000 0.266638
O O2 0.076229 0.025905 0.165727
O O3 0.966333 0.026855 0.292517
O O4 0.094687 0.001579 0.371301
O O5 0.083336 0.750000 0.050632
O O6 0.136287 0.472914 0.971385
O O7 0.000000 0.500000 0.000000
O O8 0.193056 0.750000 0.892815
O O9 0.269689 0.026071 0.910970
O O10 0.163998 0.004749 0.772057
O O11 0.838363 0.750000 0.539750
O O12 0.863067 0.027209 0.432660
O O13 0.895070 0.750000 0.330774
#
# Coordination Sequence:
#
# PCOD9464710 Si02
#       5
#     8   8   8   8   8
#     4  10  21  37  60  88 113 147 193 235 283 340
#     4  10  20  36  58  85 115 148 189 235 280 333
#     4  10  22  38  56  83 117 151 188 234 287 337
#     4  10  23  39  57  83 116 153 189 233 288 339
#     4  10  21  39  61  84 114 150 191 235 282 338
#
# _framework density 21.218968
#
# number of rings (size 3 to 8) (size 9 to 14) (size 15 to 20)
#    0.000    2.000    2.000    0.600    2.800    3.200 
#    0.000    0.000    0.000    0.000    0.000    0.000 
#    0.000    0.000    0.000    0.000    0.000    0.000 
#
# Total GULP energy -223528.785009 kJ/mol
# GULP energy per Si atom -5588.219625 kJ/mol
# Density = 2.117067 g / cm^3
# Si number density = 21.218968 Si / 1000 Ang^3
#
#
#
# Elastic Constant Matrix: (Units=GPa)
#
#
# Indices 1 2 3 4 5 6 
#
# 1 88.4914 -0.3654 68.0550 0.0000 0.0000 0.0000
# 2 -0.3654 34.1383 1.4790 0.0000 0.0000 0.0000
# 3 68.0550 1.4790 211.6032 0.0000 0.0000 0.0000
# 4 0.0000 0.0000 0.0000 0.0486 0.0000 0.0000
# 5 0.0000 0.0000 0.0000 0.0000 29.7542 0.0000
# 6 0.0000 0.0000 0.0000 0.0000 0.0000 16.0649
#
#
#
# Elastic Compliance Matrix: (Units=1/GPa)
#
#
# Indices 1 2 3 4 5 6 
#
# 1 0.015019 0.000370 -0.004833 0.000000 0.000000 0.000000
# 2 0.000370 0.029311 -0.000324 0.000000 0.000000 0.000000
# 3 -0.004833 -0.000324 0.006282 0.000000 0.000000 0.000000
# 4 0.000000 0.000000 0.000000 20.555283 0.000000 0.000000
# 5 0.000000 0.000000 0.000000 0.000000 0.033609 0.000000
# 6 0.000000 0.000000 0.000000 0.000000 0.000000 0.062248
#
#
# Mechanical properties :
#
#
# Convention : Reuss Voigt Hill
#
# Bulk Modulus (GPa) = 24.36734 52.50778 38.43756
# Shear Modulus (GPa) = 0.24125 26.84450 13.54288
#
# Velocity S-wave (km/s) = 0.33756 3.56071 2.52909
# Velocity P-wave (km/s) = 3.41476 6.45788 5.16550
#
# Compressibility (1/GPa) = 0.04103854
#
# Stress axis : x y z
#
# Youngs Moduli (GPa) = 66.58303 34.11738 159.17416
#
# Poissons Ratio (x) = -0.01263 0.76927
# Poissons Ratio (y) = -0.02465 0.05156
# Poissons Ratio (z) = 0.32179 0.01105
#
# Static dielectric constant tensor:
#      x y z
#    x 1.732570 0.000000 0.000000 
#    y 0.000000 1.790190 0.000000 
#    z 0.000000 0.000000 1.740940 
# 
# From -- ./inp_files/7289.got.cif
#   From: 2010.05.17/outbox.cif.g08.bks.cpg/sg62_4_cif.got.tgz:7289.got - 2010.06.03 15:25:27.
