data_PCOD9464621
_publ_section_title
;
Structure prediction by ZEFSAII (Michael W. Deem and Ramdas Pophale) SiO2 
 PCOD9464621
Probable space group: P N M A
;
_chemical_formula_sum "Si O2"
_cell_formula_units_Z 60
_cell_length_a 25.114419
_cell_length_b 9.294698
_cell_length_c 14.256876
_cell_angle_alpha 90.000000
_cell_angle_beta 90.000000
_cell_angle_gamma 90.000000
_cell_volume 3327.995967
_symmetry_space_group_name_H-M "P N M A"
_symmetry_group_IT_number 62
_symmetry_cell_setting 'orthorhombic'
loop_
_space_group_symop_operation_xyz
x,y,z
1/2-x,-y,1/2+z
1/2+x,1/2-y,1/2-z
-x,1/2+y,-z
-x,-y,-z
1/2+x,y,1/2-z
1/2-x,1/2+y,1/2+z
x,1/2-y,z
loop_
_atom_site_type_symbol
_atom_site_label
_atom_site_fract_x
_atom_site_fract_y
_atom_site_fract_z
Si Si1 0.103333 0.079699 0.735826
Si Si2 0.884014 0.580035 0.628912
Si Si3 0.262568 0.081629 0.555601
Si Si4 0.209909 0.584923 0.274281
Si Si5 0.999478 0.499256 0.648380
Si Si6 0.481747 0.250000 0.005184
Si Si7 0.316700 0.581244 0.397212
Si Si8 0.349004 0.423272 0.055315
O O1 0.111871 0.250000 0.716493
O O2 0.131868 0.048590 0.834131
O O3 0.131667 0.989629 0.653270
O O4 0.041091 0.043865 0.728463
O O5 0.881686 0.750000 0.609025
O O6 0.834226 0.524358 0.688538
O O7 0.940043 0.545004 0.677903
O O8 0.881392 0.493274 0.530831
O O9 0.249679 0.250000 0.536459
O O10 0.279914 0.071135 0.663741
O O11 0.306936 0.021798 0.484998
O O12 0.211143 0.980434 0.541009
O O13 0.192274 0.750000 0.294290
O O14 0.265415 0.563550 0.328848
O O15 0.993000 0.371323 0.575233
O O16 0.023373 0.627379 0.587071
O O17 0.318152 0.750000 0.425272
O O18 0.352856 0.250000 0.051427
#
# Coordination Sequence:
#
# PCOD9464621 Si02
#       8
#     8   8   8   8   8   4   8   8
#     4  11  23  39  59  82 121 162 197 238 290 349
#     4  12  25  38  57  83 121 160 199 241 288 344
#     4  11  22  41  61  85 120 153 193 245 295 343
#     4  10  22  40  60  86 117 154 195 239 291 348
#     4  11  23  37  53  85 117 159 194 238 288 351
#     4  10  20  36  56  80 124 152 196 232 286 350
#     4  10  21  40  60  86 117 154 196 239 289 348
#     4  12  24  33  56  87 120 161 195 238 285 345
#
# _framework density 18.028867000000002
#
# number of rings (size 3 to 8) (size 9 to 14) (size 15 to 20)
#    0.000    1.067    4.000    3.600    4.667    1.600 
#    0.000    0.000    0.000    0.800    0.000    0.000 
#    0.000    0.000    0.000    0.000    0.000    0.000 
#
# Total GULP energy -334156.962724 kJ/mol
# GULP energy per Si atom -5569.282712 kJ/mol
# Density = 1.798783 g / cm^3
# Si number density = 18.028867 Si / 1000 Ang^3
#
#
#
# Elastic Constant Matrix: (Units=GPa)
#
#
# Indices 1 2 3 4 5 6 
#
# 1 43.2458 15.5392 -9.4248 0.0000 0.0000 0.0000
# 2 15.5392 132.1164 21.0448 0.0000 0.0000 0.0000
# 3 -9.4248 21.0448 40.8865 0.0000 0.0000 0.0000
# 4 0.0000 0.0000 0.0000 28.3633 0.0000 0.0000
# 5 0.0000 0.0000 0.0000 0.0000 22.8590 0.0000
# 6 0.0000 0.0000 0.0000 0.0000 0.0000 56.6629
#
#
#
# Elastic Compliance Matrix: (Units=1/GPa)
#
#
# Indices 1 2 3 4 5 6 
#
# 1 0.026564 -0.004466 0.008422 0.000000 0.000000 0.000000
# 2 -0.004466 0.008996 -0.005660 0.000000 0.000000 0.000000
# 3 0.008422 -0.005660 0.029312 0.000000 0.000000 0.000000
# 4 0.000000 0.000000 0.000000 0.035257 0.000000 0.000000
# 5 0.000000 0.000000 0.000000 0.000000 0.043746 0.000000
# 6 0.000000 0.000000 0.000000 0.000000 0.000000 0.017648
#
#
# Mechanical properties :
#
#
# Convention : Reuss Voigt Hill
#
# Bulk Modulus (GPa) = 16.26956 30.06301 23.16628
# Shear Modulus (GPa) = 26.96594 34.18301 30.57448
#
# Velocity S-wave (km/s) = 3.87164 4.35905 4.12255
# Velocity P-wave (km/s) = 5.38794 6.48431 5.96138
#
# Compressibility (1/GPa) = 0.06146449
#
# Stress axis : x y z
#
# Youngs Moduli (GPa) = 37.64532 111.16202 34.11531
#
# Poissons Ratio (x) = 0.49643 -0.28731
# Poissons Ratio (y) = 0.16812 0.19308
# Poissons Ratio (z) = -0.31704 0.62914
#
# Static dielectric constant tensor:
#      x y z
#    x 1.692200 0.000000 0.000000 
#    y 0.000000 1.599020 0.000000 
#    z 0.000000 0.000000 1.581850 
# 
# From -- ./inp_files/20681.got.cif
#   From: 2010.05.17/outbox.cif.g08.bks.cpg/sg62_11_cif.got.tgz:20681.got - 2010.06.03 15:25:27.
