data_PCOD9464148
_publ_section_title
;
Structure prediction by ZEFSAII (Michael W. Deem and Ramdas Pophale) SiO2 
 PCOD9464148
Probable space group: P N M A
;
_chemical_formula_sum "Si O2"
_cell_formula_units_Z 56
_cell_length_a 5.036214
_cell_length_b 16.234493
_cell_length_c 33.137714
_cell_angle_alpha 90.000000
_cell_angle_beta 90.000000
_cell_angle_gamma 90.000000
_cell_volume 2709.352120
_symmetry_space_group_name_H-M "P N M A"
_symmetry_group_IT_number 62
_symmetry_cell_setting 'orthorhombic'
loop_
_space_group_symop_operation_xyz
x,y,z
1/2-x,-y,1/2+z
1/2+x,1/2-y,1/2-z
-x,1/2+y,-z
-x,-y,-z
1/2+x,y,1/2-z
1/2-x,1/2+y,1/2+z
x,1/2-y,z
loop_
_atom_site_type_symbol
_atom_site_label
_atom_site_fract_x
_atom_site_fract_y
_atom_site_fract_z
Si Si1 0.918883 0.649742 0.227480
Si Si2 0.884708 0.404610 0.136080
Si Si3 0.351426 0.345859 0.856018
Si Si4 0.365555 0.344334 0.089014
Si Si5 0.749849 0.988875 0.971422
Si Si6 0.376523 0.078110 0.608666
Si Si7 0.276081 0.849123 0.776083
O O1 0.715184 0.622495 0.262422
O O2 0.927536 0.750000 0.227322
O O3 0.789685 0.625683 0.185328
O O4 0.131898 0.348162 0.122407
O O5 0.991100 0.495525 0.126565
O O6 0.800870 0.391495 0.182121
O O7 0.630880 0.383236 0.108358
O O8 0.421777 0.250000 0.851392
O O9 0.619079 0.393486 0.866608
O O10 0.118373 0.357540 0.888940
O O11 0.414564 0.250000 0.077502
O O12 0.271659 0.401802 0.052088
O O13 0.775353 0.055815 0.935798
O O14 0.500000 0.000000 0.000000
O O15 0.000000 0.000000 0.000000
O O16 0.064825 0.869718 0.741125
O O17 0.263856 0.750000 0.782790
#
# Coordination Sequence:
#
# PCOD9464148 Si02
#       7
#     8   8   8   8   8   8   8
#     4   9  17  31  52  78 109 148 196 251 303 345
#     4  11  22  39  61  87 124 163 206 256 300 356
#     4  11  22  39  61  87 120 158 209 260 302 363
#     4  11  22  39  66  95 119 155 208 253 291 349
#     4  11  23  43  66  89 123 158 187 234 304 369
#     4  11  23  41  63  87 117 160 203 245 311 377
#     4  10  20  34  54  83 121 162 201 245 301 359
#
# _framework density 20.669149999999998
#
# number of rings (size 3 to 8) (size 9 to 14) (size 15 to 20)
#    0.000    1.429    0.000    7.714    0.000    3.429 
#    0.000    8.571    0.000    0.000    0.000    0.000 
#    0.000    0.000    0.000    0.000    0.000    0.000 
#
# Total GULP energy -313083.677955 kJ/mol
# GULP energy per Si atom -5590.779963 kJ/mol
# Density = 2.062211 g / cm^3
# Si number density = 20.669150 Si / 1000 Ang^3
#
#
#
# Elastic Constant Matrix: (Units=GPa)
#
#
# Indices 1 2 3 4 5 6 
#
# 1 107.2752 11.6049 12.6910 0.0000 0.0000 0.0000
# 2 11.6049 47.3909 29.6383 0.0000 0.0000 0.0000
# 3 12.6910 29.6383 87.0931 0.0000 0.0000 0.0000
# 4 0.0000 0.0000 0.0000 11.3536 0.0000 0.0000
# 5 0.0000 0.0000 0.0000 0.0000 45.5954 0.0000
# 6 0.0000 0.0000 0.0000 0.0000 0.0000 11.8094
#
#
#
# Elastic Compliance Matrix: (Units=1/GPa)
#
#
# Indices 1 2 3 4 5 6 
#
# 1 0.009615 -0.001878 -0.000762 0.000000 0.000000 0.000000
# 2 -0.001878 0.027173 -0.008973 0.000000 0.000000 0.000000
# 3 -0.000762 -0.008973 0.014647 0.000000 0.000000 0.000000
# 4 0.000000 0.000000 0.000000 0.088078 0.000000 0.000000
# 5 0.000000 0.000000 0.000000 0.000000 0.021932 0.000000
# 6 0.000000 0.000000 0.000000 0.000000 0.000000 0.084678
#
#
# Mechanical properties :
#
#
# Convention : Reuss Voigt Hill
#
# Bulk Modulus (GPa) = 35.45099 38.84751 37.14925
# Shear Modulus (GPa) = 17.93706 26.27335 22.10521
#
# Velocity S-wave (km/s) = 2.94907 3.56917 3.27384
# Velocity P-wave (km/s) = 5.36516 5.98507 5.68357
#
# Compressibility (1/GPa) = 0.02820796
#
# Stress axis : x y z
#
# Youngs Moduli (GPa) = 104.00280 36.80133 68.27468
#
# Poissons Ratio (x) = 0.06911 0.05203
# Poissons Ratio (y) = 0.19531 0.61266
# Poissons Ratio (z) = 0.07925 0.33023
#
# Static dielectric constant tensor:
#      x y z
#    x 1.716270 0.000000 0.000000 
#    y 0.000000 1.771460 0.000000 
#    z 0.000000 0.000000 1.738920 
# 
# From -- ./inp_files/31613.got.cif
#   From: 2010.05.17/outbox.cif.g08.bks.cpg/sg62_16_cif.got.tgz:31613.got - 2010.06.03 15:25:27.
