data_PCOD9464137
_publ_section_title
;
Structure prediction by ZEFSAII (Michael W. Deem and Ramdas Pophale) SiO2 
 PCOD9464137
Probable space group: P N M A
;
_chemical_formula_sum "Si O2"
_cell_formula_units_Z 64
_cell_length_a 25.347388
_cell_length_b 8.773032
_cell_length_c 14.566592
_cell_angle_alpha 90.000000
_cell_angle_beta 90.000000
_cell_angle_gamma 90.000000
_cell_volume 3239.223260
_symmetry_space_group_name_H-M "P N M A"
_symmetry_group_IT_number 62
_symmetry_cell_setting 'orthorhombic'
loop_
_space_group_symop_operation_xyz
x,y,z
1/2-x,-y,1/2+z
1/2+x,1/2-y,1/2-z
-x,1/2+y,-z
-x,-y,-z
1/2+x,y,1/2-z
1/2-x,1/2+y,1/2+z
x,1/2-y,z
loop_
_atom_site_type_symbol
_atom_site_label
_atom_site_fract_x
_atom_site_fract_y
_atom_site_fract_z
Si Si1 0.804644 0.566044 0.782651
Si Si2 0.831665 0.932288 0.990569
Si Si3 0.943695 0.065799 0.468311
Si Si4 0.588678 0.932480 0.764745
Si Si5 0.301259 0.434308 0.322377
Si Si6 0.394785 0.066124 0.847553
Si Si7 0.514476 0.575068 0.279846
Si Si8 0.444055 0.074904 0.523181
O O1 0.807791 0.750000 0.783251
O O2 0.747904 0.521778 0.741447
O O3 0.848478 0.504578 0.712330
O O4 0.814176 0.516057 0.888205
O O5 0.828836 0.750000 0.993432
O O6 0.798500 0.000667 0.074713
O O7 0.892072 0.985592 0.005782
O O8 0.948571 0.250000 0.466692
O O9 0.925188 0.013284 0.367785
O O10 0.899775 0.027520 0.545356
O O11 0.000000 0.000000 0.500000
O O12 0.591441 0.750000 0.767676
O O13 0.643893 0.987433 0.723891
O O14 0.538455 0.981451 0.704737
O O15 0.302361 0.250000 0.328101
O O16 0.392236 0.250000 0.838447
O O17 0.450686 0.015520 0.803814
O O18 0.498747 0.750000 0.262861
O O19 0.553419 0.574366 0.366139
O O20 0.441484 0.250000 0.491074
O O21 0.500000 0.000000 0.500000
#
# Coordination Sequence:
#
# PCOD9464137 Si02
#       8
#     8   8   8   8   8   8   8   8
#     4  10  23  42  64  88 117 154 200 250 294 349
#     4  11  23  40  63  91 119 154 199 246 297 357
#     4  10  20  34  55  84 117 156 195 237 290 349
#     4  10  21  36  57  84 116 156 197 241 295 352
#     4  10  23  43  62  85 119 157 198 246 298 349
#     4  10  20  36  58  85 116 153 195 241 294 348
#     4  10  20  34  54  82 116 151 189 238 292 348
#     4  11  22  36  56  85 121 159 198 245 300 358
#
# _framework density 19.757822999999998
#
# number of rings (size 3 to 8) (size 9 to 14) (size 15 to 20)
#    0.000    1.750    2.500    1.500    0.000    6.500 
#    0.000    2.500    0.000    0.000    0.000    0.000 
#    0.000    0.000    0.000    0.000    0.000    0.000 
#
# Total GULP energy -357276.566651 kJ/mol
# GULP energy per Si atom -5582.446354 kJ/mol
# Density = 1.971285 g / cm^3
# Si number density = 19.757823 Si / 1000 Ang^3
#
#
#
# Elastic Constant Matrix: (Units=GPa)
#
#
# Indices 1 2 3 4 5 6 
#
# 1 114.2858 20.5393 51.0459 0.0000 0.0000 0.0000
# 2 20.5393 19.1160 22.7141 0.0000 0.0000 0.0000
# 3 51.0459 22.7141 117.5982 0.0000 0.0000 0.0000
# 4 0.0000 0.0000 0.0000 25.8792 0.0000 0.0000
# 5 0.0000 0.0000 0.0000 0.0000 30.4094 0.0000
# 6 0.0000 0.0000 0.0000 0.0000 0.0000 23.6876
#
#
#
# Elastic Compliance Matrix: (Units=1/GPa)
#
#
# Indices 1 2 3 4 5 6 
#
# 1 0.011851 -0.008593 -0.003484 0.000000 0.000000 0.000000
# 2 -0.008593 0.074125 -0.010587 0.000000 0.000000 0.000000
# 3 -0.003484 -0.010587 0.012061 0.000000 0.000000 0.000000
# 4 0.000000 0.000000 0.000000 0.038641 0.000000 0.000000
# 5 0.000000 0.000000 0.000000 0.000000 0.032885 0.000000
# 6 0.000000 0.000000 0.000000 0.000000 0.000000 0.042216
#
#
# Mechanical properties :
#
#
# Convention : Reuss Voigt Hill
#
# Bulk Modulus (GPa) = 18.97257 48.84426 33.90842
# Shear Modulus (GPa) = 18.20322 26.44194 22.32258
#
# Velocity S-wave (km/s) = 3.03861 3.66225 3.36491
# Velocity P-wave (km/s) = 4.68341 6.53130 5.68297
#
# Compressibility (1/GPa) = 0.05270767
#
# Stress axis : x y z
#
# Youngs Moduli (GPa) = 84.38437 13.49070 82.91253
#
# Poissons Ratio (x) = 0.11592 0.28889
# Poissons Ratio (y) = 0.72510 0.87783
# Poissons Ratio (z) = 0.29402 0.14283
#
# Static dielectric constant tensor:
#      x y z
#    x 1.669160 0.000000 0.000000 
#    y 0.000000 1.678880 0.000000 
#    z 0.000000 0.000000 1.750040 
# 
# From -- ./inp_files/21002.got.cif
#   From: 2010.05.17/outbox.cif.g08.bks.cpg/sg62_11_cif.got.tgz:21002.got - 2010.06.03 15:25:27.
