data_PCOD9464731
_publ_section_title
;
Structure prediction by ZEFSAII (Michael W. Deem and Ramdas Pophale) SiO2 
 PCOD9464731
Probable space group: P N M A
;
_chemical_formula_sum "Si O2"
_cell_formula_units_Z 48
_cell_length_a 19.503829
_cell_length_b 8.625558
_cell_length_c 15.595369
_cell_angle_alpha 90.000000
_cell_angle_beta 90.000000
_cell_angle_gamma 90.000000
_cell_volume 2623.630889
_symmetry_space_group_name_H-M "P N M A"
_symmetry_group_IT_number 62
_symmetry_cell_setting 'orthorhombic'
loop_
_space_group_symop_operation_xyz
x,y,z
1/2-x,-y,1/2+z
1/2+x,1/2-y,1/2-z
-x,1/2+y,-z
-x,-y,-z
1/2+x,y,1/2-z
1/2-x,1/2+y,1/2+z
x,1/2-y,z
loop_
_atom_site_type_symbol
_atom_site_label
_atom_site_fract_x
_atom_site_fract_y
_atom_site_fract_z
Si Si1 0.174208 0.937472 0.249487
Si Si2 0.573986 0.937104 0.599428
Si Si3 0.577807 0.562829 0.092956
Si Si4 0.919608 0.564604 0.404103
Si Si5 0.827421 0.064308 0.252186
Si Si6 0.076417 0.937129 0.096441
O O1 0.176584 0.750000 0.249084
O O2 0.129913 0.985166 0.332550
O O3 0.133107 0.988228 0.164474
O O4 0.250720 0.000588 0.250463
O O5 0.571251 0.750000 0.600779
O O6 0.629425 0.988856 0.668880
O O7 0.590672 0.985667 0.501723
O O8 0.498645 0.000842 0.620498
O O9 0.579728 0.750000 0.085713
O O10 0.498980 0.519761 0.114720
O O11 0.594948 0.490924 0.000806
O O12 0.914702 0.750000 0.399627
O O13 0.868286 0.491644 0.335869
O O14 0.825381 0.250000 0.251640
O O15 0.073897 0.750000 0.098332
#
# Coordination Sequence:
#
# PCOD9464731 Si02
#       6
#     8   8   8   8   8   8
#     4  10  21  36  54  78 110 145 178 215 264 320
#     4   9  19  35  55  79 106 137 174 217 263 310
#     4   9  19  36  57  82 109 138 178 226 272 321
#     4  10  20  36  59  82 105 139 181 224 273 323
#     4  11  23  36  51  77 113 147 181 221 264 314
#     4   9  18  35  58  81 105 135 174 218 262 313
#
# _framework density 18.295256999999999
#
# number of rings (size 3 to 8) (size 9 to 14) (size 15 to 20)
#    0.000    2.333    0.000    2.000    0.000    6.000 
#    0.000    1.667    0.000    0.000    0.000    0.000 
#    0.000    0.000    0.000    0.000    0.000    0.000 
#
# Total GULP energy -267979.415458 kJ/mol
# GULP energy per Si atom -5582.904489 kJ/mol
# Density = 1.825362 g / cm^3
# Si number density = 18.295257 Si / 1000 Ang^3
#
#
#
# Elastic Constant Matrix: (Units=GPa)
#
#
# Indices 1 2 3 4 5 6 
#
# 1 170.4368 32.8607 129.1008 0.0000 0.0000 0.0000
# 2 32.8607 13.9889 31.5143 0.0000 0.0000 0.0000
# 3 129.1008 31.5143 139.0385 0.0000 0.0000 0.0000
# 4 0.0000 0.0000 0.0000 15.1121 0.0000 0.0000
# 5 0.0000 0.0000 0.0000 0.0000 -3.0029 0.0000
# 6 0.0000 0.0000 0.0000 0.0000 0.0000 29.5442
#
#
#
# Elastic Compliance Matrix: (Units=1/GPa)
#
#
# Indices 1 2 3 4 5 6 
#
# 1 0.020546 -0.010801 -0.016629 0.000000 0.000000 0.000000
# 2 -0.010801 0.151749 -0.024366 0.000000 0.000000 0.000000
# 3 -0.016629 -0.024366 0.028156 0.000000 0.000000 0.000000
# 4 0.000000 0.000000 0.000000 0.066172 0.000000 0.000000
# 5 0.000000 0.000000 0.000000 0.000000 -0.333015 0.000000
# 6 0.000000 0.000000 0.000000 0.000000 0.000000 0.033848
#
#
# Mechanical properties :
#
#
# Convention : Reuss Voigt Hill
#
# Bulk Modulus (GPa) = 10.32439 78.93508 44.62974
# Shear Modulus (GPa) = 48.38626 16.99658 32.69142
#
# Velocity S-wave (km/s) = 5.14829 3.05128 4.23174
# Velocity P-wave (km/s) = 6.40275 7.46006 6.95154
#
# Compressibility (1/GPa) = 0.09685800
#
# Stress axis : x y z
#
# Youngs Moduli (GPa) = 48.67142 6.58981 35.51652
#
# Poissons Ratio (x) = 0.07118 0.59062
# Poissons Ratio (y) = 0.52569 0.86541
# Poissons Ratio (z) = 0.80937 0.16057
#
# Static dielectric constant tensor:
#      x y z
#    x 1.579410 0.000000 0.000000 
#    y 0.000000 1.616940 0.000000 
#    z 0.000000 0.000000 1.625920 
# 
# From -- ./inp_files/19625.got.cif
#   From: 2010.05.17/outbox.cif.g08.bks.cpg/sg62_10_cif.got.tgz:19625.got - 2010.06.03 15:25:27.
