data_PCOD9464627
_publ_section_title
;
Structure prediction by ZEFSAII (Michael W. Deem and Ramdas Pophale) SiO2 
 PCOD9464627
Probable space group: P N M A
;
_chemical_formula_sum "Si O2"
_cell_formula_units_Z 64
_cell_length_a 18.375317
_cell_length_b 8.341843
_cell_length_c 21.278483
_cell_angle_alpha 90.000000
_cell_angle_beta 90.000000
_cell_angle_gamma 90.000000
_cell_volume 3261.651190
_symmetry_space_group_name_H-M "P N M A"
_symmetry_group_IT_number 62
_symmetry_cell_setting 'orthorhombic'
loop_
_space_group_symop_operation_xyz
x,y,z
1/2-x,-y,1/2+z
1/2+x,1/2-y,1/2-z
-x,1/2+y,-z
-x,-y,-z
1/2+x,y,1/2-z
1/2-x,1/2+y,1/2+z
x,1/2-y,z
loop_
_atom_site_type_symbol
_atom_site_label
_atom_site_fract_x
_atom_site_fract_y
_atom_site_fract_z
Si Si1 0.417079 0.942056 0.999269
Si Si2 0.332851 0.556160 0.625545
Si Si3 0.834880 0.442182 0.625074
Si Si4 0.917039 0.942017 0.749449
Si Si5 0.667187 0.445806 0.624997
Si Si6 0.417039 0.556201 0.500316
Si Si7 0.917086 0.943826 0.250252
Si Si8 0.333111 0.943856 0.124407
O O1 0.416994 0.750000 0.999906
O O2 0.376228 0.000181 0.937010
O O3 0.374616 0.999274 0.061617
O O4 0.500000 0.000000 0.000000
O O5 0.333269 0.750000 0.625457
O O6 0.374456 0.500727 0.688281
O O7 0.375265 0.501486 0.563062
O O8 0.249895 0.499787 0.624991
O O9 0.834670 0.250000 0.625143
O O10 0.876137 0.500105 0.687155
O O11 0.751039 0.498385 0.625002
O O12 0.917112 0.750000 0.750027
O O13 0.999852 0.000935 0.750050
O O14 0.667334 0.250000 0.625024
O O15 0.625192 0.498233 0.562278
O O16 0.625174 0.498310 0.687705
O O17 0.500000 0.500000 0.500000
O O18 0.416480 0.750000 0.500301
O O19 0.916406 0.750000 0.250367
O O20 0.875488 0.998576 0.313092
O O21 0.333798 0.750000 0.124499
#
# Coordination Sequence:
#
# PCOD9464627 Si02
#       8
#     8   8   8   8   8   8   8   8
#     4  11  23  39  59  87 119 153 193 238 284 339
#     4  10  22  38  57  82 116 153 191 234 284 339
#     4  11  22  39  62  85 111 150 192 237 291 344
#     4  11  23  38  56  84 117 150 189 237 288 342
#     4   9  19  35  58  84 111 145 190 237 282 334
#     4  10  20  36  56  82 113 147 186 229 277 334
#     4  10  20  37  59  84 112 147 191 237 283 341
#     4  10  22  38  58  84 114 147 190 237 282 335
#
# _framework density 19.621963000000001
#
# number of rings (size 3 to 8) (size 9 to 14) (size 15 to 20)
#    0.000    1.750    0.000    4.125    0.000    6.000 
#    0.000    2.500    0.000    0.000    0.000    0.000 
#    0.000    0.000    0.000    0.000    0.000    0.000 
#
# Total GULP energy -357811.303550 kJ/mol
# GULP energy per Si atom -5590.801618 kJ/mol
# Density = 1.957730 g / cm^3
# Si number density = 19.621963 Si / 1000 Ang^3
#
#
#
# Elastic Constant Matrix: (Units=GPa)
#
#
# Indices 1 2 3 4 5 6 
#
# 1 243.1582 21.4543 153.3029 0.0000 0.0000 0.0000
# 2 21.4543 15.2906 29.0743 0.0000 0.0000 0.0000
# 3 153.3029 29.0743 251.2110 0.0000 0.0000 0.0000
# 4 0.0000 0.0000 0.0000 2.7234 0.0000 0.0000
# 5 0.0000 0.0000 0.0000 0.0000 48.0728 0.0000
# 6 0.0000 0.0000 0.0000 0.0000 0.0000 33.4062
#
#
#
# Elastic Compliance Matrix: (Units=1/GPa)
#
#
# Indices 1 2 3 4 5 6 
#
# 1 0.006736 -0.002096 -0.003868 0.000000 0.000000 0.000000
# 2 -0.002096 0.084505 -0.008501 0.000000 0.000000 0.000000
# 3 -0.003868 -0.008501 0.007325 0.000000 0.000000 0.000000
# 4 0.000000 0.000000 0.000000 0.367185 0.000000 0.000000
# 5 0.000000 0.000000 0.000000 0.000000 0.020802 0.000000
# 6 0.000000 0.000000 0.000000 0.000000 0.000000 0.029935
#
#
# Mechanical properties :
#
#
# Convention : Reuss Voigt Hill
#
# Bulk Modulus (GPa) = 14.36047 101.92475 58.14261
# Shear Modulus (GPa) = 8.79303 37.22904 23.01104
#
# Velocity S-wave (km/s) = 2.11919 4.36054 3.42821
# Velocity P-wave (km/s) = 3.64998 8.79826 6.73542
#
# Compressibility (1/GPa) = 0.06963561
#
# Stress axis : x y z
#
# Youngs Moduli (GPa) = 148.44909 11.83355 136.51502
#
# Poissons Ratio (x) = 0.02481 0.52807
# Poissons Ratio (y) = 0.31122 1.16051
# Poissons Ratio (z) = 0.57424 0.10060
#
# Static dielectric constant tensor:
#      x y z
#    x 1.634130 0.000000 0.000000 
#    y 0.000000 1.680240 0.000000 
#    z 0.000000 0.000000 1.676790 
# 
# From -- ./inp_files/27745.got.cif
#   From: 2010.05.17/outbox.cif.g08.bks.cpg/sg62_14_cif.got.tgz:27745.got - 2010.06.03 15:25:27.
