data_PCOD9464669
_publ_section_title
;
Structure prediction by ZEFSAII (Michael W. Deem and Ramdas Pophale) SiO2 
 PCOD9464669
Probable space group: P N M A
;
_chemical_formula_sum "Si O2"
_cell_formula_units_Z 64
_cell_length_a 15.105364
_cell_length_b 8.857929
_cell_length_c 26.483509
_cell_angle_alpha 90.000000
_cell_angle_beta 90.000000
_cell_angle_gamma 90.000000
_cell_volume 3543.552876
_symmetry_space_group_name_H-M "P N M A"
_symmetry_group_IT_number 62
_symmetry_cell_setting 'orthorhombic'
loop_
_space_group_symop_operation_xyz
x,y,z
1/2-x,-y,1/2+z
1/2+x,1/2-y,1/2-z
-x,1/2+y,-z
-x,-y,-z
1/2+x,y,1/2-z
1/2-x,1/2+y,1/2+z
x,1/2-y,z
loop_
_atom_site_type_symbol
_atom_site_label
_atom_site_fract_x
_atom_site_fract_y
_atom_site_fract_z
Si Si1 0.169349 0.567935 0.110361
Si Si2 0.366054 0.931898 0.868762
Si Si3 0.994767 0.930038 0.444739
Si Si4 0.901539 0.432034 0.999067
Si Si5 0.493489 0.930169 0.327417
Si Si6 0.333999 0.068217 0.391266
Si Si7 0.497142 0.430351 0.217141
Si Si8 0.856897 0.430754 0.368916
O O1 0.180139 0.750000 0.111962
O O2 0.257364 0.490054 0.130905
O O3 0.083706 0.526705 0.143509
O O4 0.148661 0.523742 0.052319
O O5 0.373463 0.750000 0.876107
O O6 0.263563 0.974569 0.872160
O O7 0.415834 0.966651 0.816261
O O8 0.421576 0.013388 0.912267
O O9 0.991843 0.750000 0.447015
O O10 0.909435 0.992683 0.414996
O O11 0.000000 0.000000 0.500000
O O12 0.909255 0.250000 0.998324
O O13 0.850804 0.475886 0.050354
O O14 0.000000 0.500000 0.000000
O O15 0.487053 0.750000 0.328788
O O16 0.410671 0.999047 0.357155
O O17 0.495416 0.987073 0.270185
O O18 0.340026 0.250000 0.388667
O O19 0.495966 0.250000 0.225591
O O20 0.413068 0.468235 0.181529
O O21 0.859774 0.250000 0.374649
#
# Coordination Sequence:
#
# PCOD9464669 Si02
#       8
#     8   8   8   8   8   8   8   8
#     4  10  22  38  56  86 122 156 192 238 292 346
#     4   9  20  39  60  85 115 148 192 243 292 346
#     4  11  22  37  58  85 118 155 194 238 286 343
#     4  10  20  36  57  82 117 157 192 234 290 343
#     4  11  23  38  58  84 117 153 197 245 290 346
#     4  10  21  37  60  87 116 154 195 237 290 346
#     4   9  20  40  61  81 113 149 190 244 297 351
#     4  10  22  40  61  87 115 151 196 242 292 349
#
# _framework density 18.060970000000001
#
# number of rings (size 3 to 8) (size 9 to 14) (size 15 to 20)
#    0.000    2.000    1.250    2.625    1.750    5.500 
#    0.000    3.750    0.000    0.000    0.000    0.000 
#    0.000    0.000    0.000    0.000    0.000    0.000 
#
# Total GULP energy -357428.039160 kJ/mol
# GULP energy per Si atom -5584.813112 kJ/mol
# Density = 1.801986 g / cm^3
# Si number density = 18.060970 Si / 1000 Ang^3
#
#
#
# Elastic Constant Matrix: (Units=GPa)
#
#
# Indices 1 2 3 4 5 6 
#
# 1 175.5097 53.5680 84.1002 0.0000 0.0000 0.0000
# 2 53.5680 43.1223 51.8307 0.0000 0.0000 0.0000
# 3 84.1002 51.8307 155.9833 0.0000 0.0000 0.0000
# 4 0.0000 0.0000 0.0000 28.0589 0.0000 0.0000
# 5 0.0000 0.0000 0.0000 0.0000 1.7911 0.0000
# 6 0.0000 0.0000 0.0000 0.0000 0.0000 32.7833
#
#
#
# Elastic Compliance Matrix: (Units=1/GPa)
#
#
# Indices 1 2 3 4 5 6 
#
# 1 0.009540 -0.009438 -0.002008 0.000000 0.000000 0.000000
# 2 -0.009438 0.047948 -0.010843 0.000000 0.000000 0.000000
# 3 -0.002008 -0.010843 0.011096 0.000000 0.000000 0.000000
# 4 0.000000 0.000000 0.000000 0.035639 0.000000 0.000000
# 5 0.000000 0.000000 0.000000 0.000000 0.558309 0.000000
# 6 0.000000 0.000000 0.000000 0.000000 0.000000 0.030503
#
#
# Mechanical properties :
#
#
# Convention : Reuss Voigt Hill
#
# Bulk Modulus (GPa) = 41.65657 83.73480 62.69569
# Shear Modulus (GPa) = 6.70585 24.86775 15.78680
#
# Velocity S-wave (km/s) = 1.92898 3.71466 2.95970
# Velocity P-wave (km/s) = 5.29866 8.05364 6.81678
#
# Compressibility (1/GPa) = 0.02400582
#
# Stress axis : x y z
#
# Youngs Moduli (GPa) = 104.81710 20.85595 90.11879
#
# Poissons Ratio (x) = 0.19685 0.18092
# Poissons Ratio (y) = 0.98931 0.97720
# Poissons Ratio (z) = 0.21043 0.22615
#
# Static dielectric constant tensor:
#      x y z
#    x 1.602850 0.000000 0.000000 
#    y 0.000000 1.613970 0.000000 
#    z 0.000000 0.000000 1.599490 
# 
# From -- ./inp_files/29900.got.cif
#   From: 2010.05.17/outbox.cif.g08.bks.cpg/sg62_15_cif.got.tgz:29900.got - 2010.06.03 15:25:27.
