data_PCOD9464433
_publ_section_title
;
Structure prediction by ZEFSAII (Michael W. Deem and Ramdas Pophale) SiO2 
 PCOD9464433
Probable space group: P N M A
;
_chemical_formula_sum "Si O2"
_cell_formula_units_Z 64
_cell_length_a 9.809255
_cell_length_b 11.077090
_cell_length_c 31.282196
_cell_angle_alpha 90.000000
_cell_angle_beta 90.000000
_cell_angle_gamma 90.000000
_cell_volume 3399.060868
_symmetry_space_group_name_H-M "P N M A"
_symmetry_group_IT_number 62
_symmetry_cell_setting 'orthorhombic'
loop_
_space_group_symop_operation_xyz
x,y,z
1/2-x,-y,1/2+z
1/2+x,1/2-y,1/2-z
-x,1/2+y,-z
-x,-y,-z
1/2+x,y,1/2-z
1/2-x,1/2+y,1/2+z
x,1/2-y,z
loop_
_atom_site_type_symbol
_atom_site_label
_atom_site_fract_x
_atom_site_fract_y
_atom_site_fract_z
Si Si1 0.844700 0.484394 0.250759
Si Si2 0.225569 0.609901 0.658024
Si Si3 0.234679 0.888463 0.900931
Si Si4 0.393900 0.110583 0.493477
Si Si5 0.083928 0.112278 0.521758
Si Si6 0.474501 0.393476 0.333044
Si Si7 0.494197 0.041744 0.887183
Si Si8 0.910299 0.385396 0.707516
O O1 0.810866 0.403668 0.291896
O O2 0.933906 0.416752 0.215395
O O3 0.706981 0.529514 0.227553
O O4 0.945197 0.586669 0.269678
O O5 0.223068 0.750000 0.646139
O O6 0.377904 0.557852 0.654515
O O7 0.118908 0.538416 0.629757
O O8 0.269148 0.750000 0.890240
O O9 0.145824 0.889573 0.943533
O O10 0.143764 0.942705 0.863142
O O11 0.372777 0.960113 0.905314
O O12 0.440438 0.250000 0.503970
O O13 0.246802 0.090596 0.516339
O O14 0.500000 0.000000 0.500000
O O15 0.057655 0.250000 0.504004
O O16 0.045126 0.115090 0.571882
O O17 0.000000 0.000000 0.500000
O O18 0.480888 0.250000 0.340156
O O19 0.435850 0.100671 0.843453
O O20 0.866637 0.250000 0.716715
#
# Coordination Sequence:
#
# PCOD9464433 Si02
#       8
#     8   8   8   8   8   8   8   8
#     4  11  20  38  57  79 113 152 198 246 303 355
#     4  10  22  36  57  88 119 157 200 246 302 367
#     4  10  20  37  61  89 121 157 194 247 307 365
#     4  10  23  43  65  93 128 165 206 254 310 377
#     4  11  24  43  68  96 129 165 211 265 318 380
#     4  10  20  35  56  85 118 148 191 245 297 356
#     4  11  22  39  62  88 123 155 203 250 309 370
#     4  11  23  38  57  79 112 156 204 251 299 360
#
# _framework density 18.82873
#
# number of rings (size 3 to 8) (size 9 to 14) (size 15 to 20)
#    0.000    1.500    3.750    1.500    1.750    1.000 
#    0.000    0.000    0.000    0.000    0.000    0.000 
#    0.000    0.000    0.000    0.000    0.000    0.000 
#
# Total GULP energy -356677.159323 kJ/mol
# GULP energy per Si atom -5573.080614 kJ/mol
# Density = 1.878588 g / cm^3
# Si number density = 18.828730 Si / 1000 Ang^3
#
#
#
# Elastic Constant Matrix: (Units=GPa)
#
#
# Indices 1 2 3 4 5 6 
#
# 1 99.5992 56.5707 22.2464 0.0000 0.0000 0.0000
# 2 56.5707 83.8621 17.0349 0.0000 0.0000 0.0000
# 3 22.2464 17.0349 71.8127 0.0000 0.0000 0.0000
# 4 0.0000 0.0000 0.0000 10.5486 0.0000 0.0000
# 5 0.0000 0.0000 0.0000 0.0000 32.0685 0.0000
# 6 0.0000 0.0000 0.0000 0.0000 0.0000 10.0182
#
#
#
# Elastic Compliance Matrix: (Units=1/GPa)
#
#
# Indices 1 2 3 4 5 6 
#
# 1 0.016737 -0.010756 -0.002634 0.000000 0.000000 0.000000
# 2 -0.010756 0.019440 -0.001279 0.000000 0.000000 0.000000
# 3 -0.002634 -0.001279 0.015044 0.000000 0.000000 0.000000
# 4 0.000000 0.000000 0.000000 0.094799 0.000000 0.000000
# 5 0.000000 0.000000 0.000000 0.000000 0.031183 0.000000
# 6 0.000000 0.000000 0.000000 0.000000 0.000000 0.099819
#
#
# Mechanical properties :
#
#
# Convention : Reuss Voigt Hill
#
# Bulk Modulus (GPa) = 45.69494 49.66420 47.67957
# Shear Modulus (GPa) = 15.94110 21.15520 18.54815
#
# Velocity S-wave (km/s) = 2.91286 3.35559 3.14203
# Velocity P-wave (km/s) = 5.96946 6.43797 6.20813
#
# Compressibility (1/GPa) = 0.02188426
#
# Stress axis : x y z
#
# Youngs Moduli (GPa) = 59.74610 51.44135 66.46966
#
# Poissons Ratio (x) = 0.55328 0.17506
# Poissons Ratio (y) = 0.64261 0.08504
# Poissons Ratio (z) = 0.15735 0.06581
#
# Static dielectric constant tensor:
#      x y z
#    x 1.654960 0.000000 0.000000 
#    y 0.000000 1.642410 0.000000 
#    z 0.000000 0.000000 1.658620 
# 
# From -- ./inp_files/32254.got.cif
#   From: 2010.05.17/outbox.cif.g08.bks.cpg/sg62_17_cif.got.tgz:32254.got - 2010.06.03 15:25:27.
