data_PCOD9464987
_publ_section_title
;
Structure prediction by ZEFSAII (Michael W. Deem and Ramdas Pophale) SiO2 
 PCOD9464987
Probable space group: P N M A
;
_chemical_formula_sum "Si O2"
_cell_formula_units_Z 56
_cell_length_a 24.467378
_cell_length_b 22.334457
_cell_length_c 5.151395
_cell_angle_alpha 90.000000
_cell_angle_beta 90.000000
_cell_angle_gamma 90.000000
_cell_volume 2815.060169
_symmetry_space_group_name_H-M "P N M A"
_symmetry_group_IT_number 62
_symmetry_cell_setting 'orthorhombic'
loop_
_space_group_symop_operation_xyz
x,y,z
1/2-x,-y,1/2+z
1/2+x,1/2-y,1/2-z
-x,1/2+y,-z
-x,-y,-z
1/2+x,y,1/2-z
1/2-x,1/2+y,1/2+z
x,1/2-y,z
loop_
_atom_site_type_symbol
_atom_site_label
_atom_site_fract_x
_atom_site_fract_y
_atom_site_fract_z
Si Si1 0.207418 0.915028 0.251063
Si Si2 0.695235 0.450497 0.434707
Si Si3 0.548571 0.250000 0.416727
Si Si4 0.516873 0.866121 0.735742
Si Si5 0.035164 0.017181 0.251752
Si Si6 0.913035 0.100942 0.735800
Si Si7 0.877665 0.750000 0.421304
Si Si8 0.681305 0.378453 0.925116
O O1 0.241005 0.932828 0.510714
O O2 0.150082 0.882871 0.290824
O O3 0.252653 0.875494 0.103809
O O4 0.197216 0.978378 0.105332
O O5 0.665484 0.424614 0.692056
O O6 0.672076 0.413257 0.193354
O O7 0.510069 0.305395 0.351257
O O8 0.574416 0.250000 0.703920
O O9 0.597543 0.250000 0.209388
O O10 0.465249 0.911840 0.749142
O O11 0.559953 0.883522 0.511150
O O12 0.549211 0.871669 0.007907
O O13 0.085048 0.972047 0.274128
O O14 0.000000 0.000000 0.500000
O O15 0.000000 0.000000 0.000000
O O16 0.844790 0.687073 0.394673
#
# Coordination Sequence:
#
# PCOD9464987 Si02
#       8
#     8   8   4   8   8   8   4   8
#     4  10  21  37  64  94 132 162 199 249 319 378
#     4  10  20  37  61  90 136 159 197 255 305 364
#     4  12  26  46  68  81 121 158 222 264 314 358
#     4  10  22  41  56  89 117 155 204 265 287 365
#     4   8  16  33  52  82 116 145 185 241 292 345
#     4  10  21  34  65  85 123 158 193 237 323 365
#     4  12  26  44  66  89 111 176 208 264 320 362
#     4  10  22  39  59  90 131 156 216 257 299 373
#
# _framework density 19.893003
#
# number of rings (size 3 to 8) (size 9 to 14) (size 15 to 20)
#    0.857    1.143    1.429    1.714    2.000    2.286 
#    0.000    7.143    0.000    0.000    0.000    0.000 
#    0.000    0.000    0.000    0.000    0.000    0.000 
#
# Total GULP energy -311873.717895 kJ/mol
# GULP energy per Si atom -5569.173534 kJ/mol
# Density = 1.984773 g / cm^3
# Si number density = 19.893003 Si / 1000 Ang^3
#
#
#
# Elastic Constant Matrix: (Units=GPa)
#
#
# Indices 1 2 3 4 5 6 
#
# 1 62.3144 -2.9163 -12.8707 0.0000 0.0000 0.0000
# 2 -2.9163 85.1106 -14.2771 0.0000 0.0000 0.0000
# 3 -12.8707 -14.2771 103.3186 0.0000 0.0000 0.0000
# 4 0.0000 0.0000 0.0000 21.2809 0.0000 0.0000
# 5 0.0000 0.0000 0.0000 0.0000 19.6081 0.0000
# 6 0.0000 0.0000 0.0000 0.0000 0.0000 16.4197
#
#
#
# Elastic Compliance Matrix: (Units=1/GPa)
#
#
# Indices 1 2 3 4 5 6 
#
# 1 0.016544 0.000934 0.002190 0.000000 0.000000 0.000000
# 2 0.000934 0.012081 0.001786 0.000000 0.000000 0.000000
# 3 0.002190 0.001786 0.010198 0.000000 0.000000 0.000000
# 4 0.000000 0.000000 0.000000 0.046990 0.000000 0.000000
# 5 0.000000 0.000000 0.000000 0.000000 0.050999 0.000000
# 6 0.000000 0.000000 0.000000 0.000000 0.000000 0.060903
#
#
# Mechanical properties :
#
#
# Convention : Reuss Voigt Hill
#
# Bulk Modulus (GPa) = 20.55790 21.17950 20.86870
# Shear Modulus (GPa) = 24.49661 30.18225 27.33943
#
# Velocity S-wave (km/s) = 3.51296 3.89939 3.71121
# Velocity P-wave (km/s) = 5.17796 5.56268 5.37376
#
# Compressibility (1/GPa) = 0.04864310
#
# Stress axis : x y z
#
# Youngs Moduli (GPa) = 60.44598 82.77466 98.05478
#
# Poissons Ratio (x) = -0.07733 -0.21474
# Poissons Ratio (y) = -0.05647 -0.17511
# Poissons Ratio (z) = -0.13238 -0.14782
#
# Static dielectric constant tensor:
#      x y z
#    x 1.718680 0.000000 0.000000 
#    y 0.000000 1.708380 0.000000 
#    z 0.000000 0.000000 1.712840 
# 
# From -- ./inp_files/2883.got.cif
#   From: 2010.05.17/outbox.cif.g08.bks.cpg/sg62_2_cif.got.tgz:2883.got - 2010.06.03 15:25:27.
