data_PCOD9464041
_publ_section_title
;
Structure prediction by ZEFSAII (Michael W. Deem and Ramdas Pophale) SiO2 
 PCOD9464041
Probable space group: P N M A
;
_chemical_formula_sum "Si O2"
_cell_formula_units_Z 64
_cell_length_a 11.497294
_cell_length_b 7.790923
_cell_length_c 35.259792
_cell_angle_alpha 90.000000
_cell_angle_beta 90.000000
_cell_angle_gamma 90.000000
_cell_volume 3158.379376
_symmetry_space_group_name_H-M "P N M A"
_symmetry_group_IT_number 62
_symmetry_cell_setting 'orthorhombic'
loop_
_space_group_symop_operation_xyz
x,y,z
1/2-x,-y,1/2+z
1/2+x,1/2-y,1/2-z
-x,1/2+y,-z
-x,-y,-z
1/2+x,y,1/2-z
1/2-x,1/2+y,1/2+z
x,1/2-y,z
loop_
_atom_site_type_symbol
_atom_site_label
_atom_site_fract_x
_atom_site_fract_y
_atom_site_fract_z
Si Si1 0.239078 0.459745 0.434309
Si Si2 0.641096 0.448207 0.345679
Si Si3 0.384923 0.052660 0.737732
Si Si4 0.987049 0.044988 0.455706
Si Si5 0.869115 0.043592 0.990426
Si Si6 0.885962 0.043041 0.137373
Si Si7 0.247954 0.447493 0.582873
Si Si8 0.147722 0.454363 0.775595
O O1 0.245300 0.250000 0.434654
O O2 0.291941 0.519177 0.474380
O O3 0.310580 0.521100 0.397921
O O4 0.104598 0.507136 0.434343
O O5 0.628605 0.250000 0.334304
O O6 0.648746 0.549796 0.306740
O O7 0.521844 0.501973 0.366654
O O8 0.741639 0.465169 0.376472
O O9 0.394496 0.250000 0.750994
O O10 0.519054 0.980311 0.738856
O O11 0.270086 0.976106 0.758515
O O12 0.973229 0.250000 0.452853
O O13 0.877081 0.958637 0.436503
O O14 0.000000 0.000000 0.500000
O O15 0.854058 0.250000 0.988562
O O16 0.831721 0.974519 0.949471
O O17 0.000000 0.000000 0.000000
O O18 0.877078 0.250000 0.137458
O O19 0.850148 0.981221 0.179089
O O20 0.279388 0.250000 0.589597
O O21 0.146333 0.250000 0.767895
#
# Coordination Sequence:
#
# PCOD9464041 Si02
#       8
#     8   8   8   8   8   8   8   8
#     4   9  18  35  54  73 104 140 174 218 271 318
#     4  10  20  35  57  83 109 140 179 222 268 323
#     4   9  18  35  57  80 110 146 179 220 272 325
#     4  11  21  37  57  75 105 145 186 227 274 327
#     4  10  20  34  52  76 104 136 175 221 268 316
#     4   9  18  34  57  80 107 140 176 219 269 320
#     4  11  22  37  55  77 107 143 182 224 272 323
#     4   9  18  34  56  80 110 144 179 219 270 324
#
# _framework density 20.263558
#
# number of rings (size 3 to 8) (size 9 to 14) (size 15 to 20)
#    0.000    2.250    1.250    1.875    0.000    3.000 
#    2.250    1.875    0.000    0.000    0.000    0.000 
#    0.000    0.000    0.000    0.000    0.000    0.000 
#
# Total GULP energy -356899.862703 kJ/mol
# GULP energy per Si atom -5576.560355 kJ/mol
# Density = 2.021744 g / cm^3
# Si number density = 20.263558 Si / 1000 Ang^3
#
#
#
# Elastic Constant Matrix: (Units=GPa)
#
#
# Indices 1 2 3 4 5 6 
#
# 1 53.9698 0.6675 18.3907 0.0000 0.0000 0.0000
# 2 0.6675 34.0815 -0.5102 0.0000 0.0000 0.0000
# 3 18.3907 -0.5102 59.8229 0.0000 0.0000 0.0000
# 4 0.0000 0.0000 0.0000 22.0042 0.0000 0.0000
# 5 0.0000 0.0000 0.0000 0.0000 42.8710 0.0000
# 6 0.0000 0.0000 0.0000 0.0000 0.0000 15.8871
#
#
#
# Elastic Compliance Matrix: (Units=1/GPa)
#
#
# Indices 1 2 3 4 5 6 
#
# 1 0.020706 -0.000501 -0.006370 0.000000 0.000000 0.000000
# 2 -0.000501 0.029357 0.000404 0.000000 0.000000 0.000000
# 3 -0.006370 0.000404 0.018678 0.000000 0.000000 0.000000
# 4 0.000000 0.000000 0.000000 0.045446 0.000000 0.000000
# 5 0.000000 0.000000 0.000000 0.000000 0.023326 0.000000
# 6 0.000000 0.000000 0.000000 0.000000 0.000000 0.062944
#
#
# Mechanical properties :
#
#
# Convention : Reuss Voigt Hill
#
# Bulk Modulus (GPa) = 17.91846 20.55222 19.23534
# Shear Modulus (GPa) = 21.55255 24.77422 23.16338
#
# Velocity S-wave (km/s) = 3.26484 3.50036 3.38465
# Velocity P-wave (km/s) = 4.80356 5.14793 4.97872
#
# Compressibility (1/GPa) = 0.05580836
#
# Stress axis : x y z
#
# Youngs Moduli (GPa) = 48.29627 34.06305 53.54019
#
# Poissons Ratio (x) = 0.01706 0.34103
# Poissons Ratio (y) = 0.02419 -0.02165
# Poissons Ratio (z) = 0.30762 -0.01377
#
# Static dielectric constant tensor:
#      x y z
#    x 1.762030 0.000000 0.000000 
#    y 0.000000 1.735670 0.000000 
#    z 0.000000 0.000000 1.694500 
# 
# From -- ./inp_files/32448.got.cif
#   From: 2010.05.17/outbox.cif.g08.bks.cpg/sg62_17_cif.got.tgz:32448.got - 2010.06.03 15:25:27.
