data_PCOD9464290
_publ_section_title
;
Structure prediction by ZEFSAII (Michael W. Deem and Ramdas Pophale) SiO2 
 PCOD9464290
Probable space group: P N M A
;
_chemical_formula_sum "Si O2"
_cell_formula_units_Z 48
_cell_length_a 8.121218
_cell_length_b 7.745254
_cell_length_c 28.947038
_cell_angle_alpha 90.000000
_cell_angle_beta 90.000000
_cell_angle_gamma 90.000000
_cell_volume 1820.794633
_symmetry_space_group_name_H-M "P N M A"
_symmetry_group_IT_number 62
_symmetry_cell_setting 'orthorhombic'
loop_
_space_group_symop_operation_xyz
x,y,z
1/2-x,-y,1/2+z
1/2+x,1/2-y,1/2-z
-x,1/2+y,-z
-x,-y,-z
1/2+x,y,1/2-z
1/2-x,1/2+y,1/2+z
x,1/2-y,z
loop_
_atom_site_type_symbol
_atom_site_label
_atom_site_fract_x
_atom_site_fract_y
_atom_site_fract_z
Si Si1 0.562937 0.452061 0.567411
Si Si2 0.531550 0.049546 0.903058
Si Si3 0.260091 0.542320 0.016741
Si Si4 0.755540 0.543192 0.823436
Si Si5 0.773056 0.055193 0.156673
Si Si6 0.065699 0.459794 0.261550
O O1 0.545302 0.250000 0.563031
O O2 0.401965 0.530711 0.543449
O O3 0.720425 0.501578 0.536134
O O4 0.591528 0.491886 0.620705
O O5 0.477326 0.250000 0.905898
O O6 0.585759 0.979580 0.953095
O O7 0.696245 0.042882 0.870795
O O8 0.393203 0.948260 0.874992
O O9 0.267224 0.750000 0.020801
O O10 0.765068 0.750000 0.831828
O O11 0.604164 0.508804 0.787738
O O12 0.908140 0.484234 0.791319
O O13 0.819233 0.250000 0.168503
O O14 0.706744 0.970332 0.203559
O O15 0.082765 0.250000 0.260377
#
# Coordination Sequence:
#
# PCOD9464290 Si02
#       6
#     8   8   8   8   8   8
#     4  10  20  35  55  78 103 132 169 214 260 305
#     4  10  20  35  53  75 104 136 170 210 255 301
#     4   9  20  37  54  74 103 136 170 209 254 308
#     4   9  17  32  51  72  99 131 169 210 250 294
#     4  10  20  35  54  77 105 137 173 211 253 303
#     4   8  16  30  49  71  96 128 165 204 244 292
#
# _framework density 26.362116
#
# number of rings (size 3 to 8) (size 9 to 14) (size 15 to 20)
#    0.000    2.667    0.000    2.500    0.000    4.000 
#    0.000    5.833    0.000    0.000    0.000    0.000 
#    0.000    0.000    0.000    0.000    0.000    0.000 
#
# Total GULP energy -268318.371511 kJ/mol
# GULP energy per Si atom -5589.966073 kJ/mol
# Density = 2.630211 g / cm^3
# Si number density = 26.362116 Si / 1000 Ang^3
#
#
#
# Elastic Constant Matrix: (Units=GPa)
#
#
# Indices 1 2 3 4 5 6 
#
# 1 52.4468 2.7350 17.9915 0.0000 0.0000 0.0000
# 2 2.7350 46.7813 -14.1363 0.0000 0.0000 0.0000
# 3 17.9915 -14.1363 164.5742 0.0000 0.0000 0.0000
# 4 0.0000 0.0000 0.0000 20.5835 0.0000 0.0000
# 5 0.0000 0.0000 0.0000 0.0000 41.6282 0.0000
# 6 0.0000 0.0000 0.0000 0.0000 0.0000 14.2738
#
#
#
# Elastic Compliance Matrix: (Units=1/GPa)
#
#
# Indices 1 2 3 4 5 6 
#
# 1 0.019969 -0.001876 -0.002344 0.000000 0.000000 0.000000
# 2 -0.001876 0.022122 0.002105 0.000000 0.000000 0.000000
# 3 -0.002344 0.002105 0.006513 0.000000 0.000000 0.000000
# 4 0.000000 0.000000 0.000000 0.048583 0.000000 0.000000
# 5 0.000000 0.000000 0.000000 0.000000 0.024022 0.000000
# 6 0.000000 0.000000 0.000000 0.000000 0.000000 0.070058
#
#
# Mechanical properties :
#
#
# Convention : Reuss Voigt Hill
#
# Bulk Modulus (GPa) = 22.53532 30.77584 26.65558
# Shear Modulus (GPa) = 23.77686 32.44456 28.11071
#
# Velocity S-wave (km/s) = 3.00648 3.51198 3.26901
# Velocity P-wave (km/s) = 4.54079 5.30518 4.93780
#
# Compressibility (1/GPa) = 0.04437480
#
# Stress axis : x y z
#
# Youngs Moduli (GPa) = 50.07783 45.20414 153.53003
#
# Poissons Ratio (x) = 0.08479 0.35990
# Poissons Ratio (y) = 0.09394 -0.32322
# Poissons Ratio (z) = 0.11739 -0.09517
#
# Static dielectric constant tensor:
#      x y z
#    x 2.225870 0.000000 0.000000 
#    y 0.000000 1.956200 0.000000 
#    z 0.000000 0.000000 2.062080 
# 
# From -- ./inp_files/32023.got.cif
#   From: 2010.05.17/outbox.cif.g08.bks.cpg/sg62_17_cif.got.tgz:32023.got - 2010.06.03 15:25:27.
