data_PCOD9464037
_publ_section_title
;
Structure prediction by ZEFSAII (Michael W. Deem and Ramdas Pophale) SiO2 
 PCOD9464037
Probable space group: P N M A
;
_chemical_formula_sum "Si O2"
_cell_formula_units_Z 56
_cell_length_a 21.574010
_cell_length_b 7.337190
_cell_length_c 14.428055
_cell_angle_alpha 90.000000
_cell_angle_beta 90.000000
_cell_angle_gamma 90.000000
_cell_volume 2283.854489
_symmetry_space_group_name_H-M "P N M A"
_symmetry_group_IT_number 62
_symmetry_cell_setting 'orthorhombic'
loop_
_space_group_symop_operation_xyz
x,y,z
1/2-x,-y,1/2+z
1/2+x,1/2-y,1/2-z
-x,1/2+y,-z
-x,-y,-z
1/2+x,y,1/2-z
1/2-x,1/2+y,1/2+z
x,1/2-y,z
loop_
_atom_site_type_symbol
_atom_site_label
_atom_site_fract_x
_atom_site_fract_y
_atom_site_fract_z
Si Si1 0.437620 0.466660 0.557336
Si Si2 0.869948 0.028696 0.767322
Si Si3 0.406459 0.457517 0.926665
Si Si4 0.255016 0.530490 0.119494
Si Si5 0.952210 0.473419 0.380666
Si Si6 0.314039 0.471745 0.447692
Si Si7 0.358978 0.044958 0.257397
O O1 0.500000 0.500000 0.500000
O O2 0.432437 0.250000 0.564067
O O3 0.425118 0.533396 0.662693
O O4 0.378401 0.526166 0.496996
O O5 0.873650 0.250000 0.760407
O O6 0.806232 0.985891 0.820138
O O7 0.871872 0.959123 0.661949
O O8 0.384804 0.250000 0.937898
O O9 0.478350 0.459384 0.893744
O O10 0.412103 0.536705 0.029904
O O11 0.261726 0.750000 0.120811
O O12 0.313143 0.448697 0.170763
O O13 0.241367 0.468683 0.014657
O O14 0.953414 0.250000 0.382295
O O15 0.921188 0.536832 0.285122
O O16 0.309535 0.250000 0.448476
O O17 0.321267 0.536844 0.342877
O O18 0.375862 0.250000 0.287317
#
# Coordination Sequence:
#
# PCOD9464037 Si02
#       7
#     8   8   8   8   8   8   8
#     4   9  17  30  48  71  96 126 160 195 240 295
#     4   8  16  31  50  69  94 128 161 197 246 295
#     4   9  17  32  51  70  97 130 163 203 246 292
#     4   9  18  35  54  72  96 130 173 208 242 297
#     4   9  19  32  47  71 100 129 162 201 248 297
#     4   8  17  34  51  68 100 138 162 192 252 314
#     4  10  20  34  52  74 102 135 167 206 257 301
#
# _framework density 24.519950000000001
#
# number of rings (size 3 to 8) (size 9 to 14) (size 15 to 20)
#    0.000    3.143    0.000    1.714    2.000    1.714 
#    0.000    6.429    0.000    0.000    0.000    0.000 
#    0.000    0.000    0.000    0.000    0.000    0.000 
#
# Total GULP energy -312499.994297 kJ/mol
# GULP energy per Si atom -5580.357041 kJ/mol
# Density = 2.446414 g / cm^3
# Si number density = 24.519950 Si / 1000 Ang^3
#
#
#
# Elastic Constant Matrix: (Units=GPa)
#
#
# Indices 1 2 3 4 5 6 
#
# 1 18.8473 -8.1174 0.1020 0.0000 0.0000 0.0000
# 2 -8.1174 98.8011 1.0380 0.0000 0.0000 0.0000
# 3 0.1020 1.0380 103.5038 0.0000 0.0000 0.0000
# 4 0.0000 0.0000 0.0000 0.0651 0.0000 0.0000
# 5 0.0000 0.0000 0.0000 0.0000 27.4428 0.0000
# 6 0.0000 0.0000 0.0000 0.0000 0.0000 4.0378
#
#
#
# Elastic Compliance Matrix: (Units=1/GPa)
#
#
# Indices 1 2 3 4 5 6 
#
# 1 0.055005 0.004520 -0.000100 0.000000 0.000000 0.000000
# 2 0.004520 0.010494 -0.000110 0.000000 0.000000 0.000000
# 3 -0.000100 -0.000110 0.009663 0.000000 0.000000 0.000000
# 4 0.000000 0.000000 0.000000 15.359956 0.000000 0.000000
# 5 0.000000 0.000000 0.000000 0.000000 0.036439 0.000000
# 6 0.000000 0.000000 0.000000 0.000000 0.000000 0.247659
#
#
# Mechanical properties :
#
#
# Convention : Reuss Voigt Hill
#
# Bulk Modulus (GPa) = 11.93546 23.02192 17.47869
# Shear Modulus (GPa) = 0.31769 21.51778 10.91774
#
# Velocity S-wave (km/s) = 0.36034 2.96558 2.11241
# Velocity P-wave (km/s) = 2.24752 4.59735 3.61850
#
# Compressibility (1/GPa) = 0.08378398
#
# Stress axis : x y z
#
# Youngs Moduli (GPa) = 18.18004 95.29369 103.49098
#
# Poissons Ratio (x) = -0.43075 0.01030
# Poissons Ratio (y) = -0.08218 0.01135
# Poissons Ratio (z) = 0.00181 0.01045
#
# Static dielectric constant tensor:
#      x y z
#    x 1.923390 0.000000 0.000000 
#    y 0.000000 1.959290 0.000000 
#    z 0.000000 0.000000 2.005430 
# 
# From -- ./inp_files/15267.got.cif
#   From: 2010.05.17/outbox.cif.g08.bks.cpg/sg62_8_cif.got.tgz:15267.got - 2010.06.03 15:25:27.
