data_PCOD9464586
_publ_section_title
;
Structure prediction by ZEFSAII (Michael W. Deem and Ramdas Pophale) SiO2 
 PCOD9464586
Probable space group: P N M A
;
_chemical_formula_sum "Si O2"
_cell_formula_units_Z 60
_cell_length_a 28.207926
_cell_length_b 20.205316
_cell_length_c 5.162411
_cell_angle_alpha 90.000000
_cell_angle_beta 90.000000
_cell_angle_gamma 90.000000
_cell_volume 2942.316452
_symmetry_space_group_name_H-M "P N M A"
_symmetry_group_IT_number 62
_symmetry_cell_setting 'orthorhombic'
loop_
_space_group_symop_operation_xyz
x,y,z
1/2-x,-y,1/2+z
1/2+x,1/2-y,1/2-z
-x,1/2+y,-z
-x,-y,-z
1/2+x,y,1/2-z
1/2-x,1/2+y,1/2+z
x,1/2-y,z
loop_
_atom_site_type_symbol
_atom_site_label
_atom_site_fract_x
_atom_site_fract_y
_atom_site_fract_z
Si Si1 0.955244 0.977066 0.673343
Si Si2 0.240273 0.829928 0.789734
Si Si3 0.298173 0.830260 0.295411
Si Si4 0.867756 0.329549 0.243397
Si Si5 0.519058 0.143362 0.516559
Si Si6 0.939129 0.750000 0.701514
Si Si7 0.101366 0.362523 0.596825
Si Si8 0.920352 0.379506 0.744708
O O1 0.973418 0.930340 0.906696
O O2 0.920307 0.930848 0.504775
O O3 0.927601 0.041751 0.764376
O O4 0.000000 0.000000 0.500000
O O5 0.238772 0.750000 0.777227
O O6 0.277207 0.851297 0.570488
O O7 0.186866 0.851917 0.729885
O O8 0.259775 0.846301 0.073167
O O9 0.305616 0.750000 0.295524
O O10 0.347478 0.864353 0.223196
O O11 0.869782 0.250000 0.265848
O O12 0.901157 0.360500 0.463391
O O13 0.885558 0.351383 0.961986
O O14 0.521704 0.192279 0.275436
O O15 0.563430 0.165045 0.693669
O O16 0.472048 0.149101 0.684135
O O17 0.900479 0.808426 0.629636
#
# Coordination Sequence:
#
# PCOD9464586 Si02
#       8
#     8   8   8   8   8   4   8   8
#     4  11  24  45  62  89 128 184 231 260 311 387
#     4   9  20  39  62  92 129 164 206 268 331 399
#     4  10  20  35  65  95 129 165 205 262 340 391
#     4  11  25  43  66  99 129 164 221 281 339 390
#     4  11  25  38  64  89 137 171 215 267 321 394
#     4  10  24  38  56  96 140 166 198 272 342 374
#     4  11  23  38  64  95 135 166 222 269 318 405
#     4  12  25  41  68  92 128 179 223 269 319 397
#
# _framework density 20.392095000000001
#
# number of rings (size 3 to 8) (size 9 to 14) (size 15 to 20)
#    0.000    1.333    2.000    2.800    9.333    2.133 
#    0.000    0.000    0.000    3.200    0.000    0.000 
#    0.000    0.000    0.000    0.000    0.000    0.000 
#
# Total GULP energy -334433.089635 kJ/mol
# GULP energy per Si atom -5573.884827 kJ/mol
# Density = 2.034568 g / cm^3
# Si number density = 20.392095 Si / 1000 Ang^3
#
#
#
# Elastic Constant Matrix: (Units=GPa)
#
#
# Indices 1 2 3 4 5 6 
#
# 1 76.5301 5.8066 -16.7548 0.0000 0.0000 0.0000
# 2 5.8066 67.6940 -15.5516 0.0000 0.0000 0.0000
# 3 -16.7548 -15.5516 32.4879 0.0000 0.0000 0.0000
# 4 0.0000 0.0000 0.0000 -48.5323 0.0000 0.0000
# 5 0.0000 0.0000 0.0000 0.0000 35.7611 0.0000
# 6 0.0000 0.0000 0.0000 0.0000 0.0000 12.6812
#
#
#
# Elastic Compliance Matrix: (Units=1/GPa)
#
#
# Indices 1 2 3 4 5 6 
#
# 1 0.014748 0.000542 0.007865 0.000000 0.000000 0.000000
# 2 0.000542 0.016618 0.008234 0.000000 0.000000 0.000000
# 3 0.007865 0.008234 0.038778 0.000000 0.000000 0.000000
# 4 0.000000 0.000000 0.000000 -0.020605 0.000000 0.000000
# 5 0.000000 0.000000 0.000000 0.000000 0.027963 0.000000
# 6 0.000000 0.000000 0.000000 0.000000 0.000000 0.078857
#
#
# Mechanical properties :
#
#
# Convention : Reuss Voigt Hill
#
# Bulk Modulus (GPa) = 9.66879 13.74582 11.70731
# Shear Modulus (GPa) = 31.73556 13.52947 22.63251
#
# Velocity S-wave (km/s) = 3.94924 2.57858 3.33508
# Velocity P-wave (km/s) = 5.05441 3.95232 4.53695
#
# Compressibility (1/GPa) = 0.10342557
#
# Stress axis : x y z
#
# Youngs Moduli (GPa) = 67.80791 60.17745 25.78749
#
# Poissons Ratio (x) = -0.03261 -0.20282
# Poissons Ratio (y) = -0.03674 -0.21234
# Poissons Ratio (z) = -0.53331 -0.49551
#
# Static dielectric constant tensor:
#      x y z
#    x 1.745240 0.000000 0.000000 
#    y 0.000000 1.722300 0.000000 
#    z 0.000000 0.000000 1.827080 
# 
# From -- ./inp_files/2853.got.cif
#   From: 2010.05.17/outbox.cif.g08.bks.cpg/sg62_2_cif.got.tgz:2853.got - 2010.06.03 15:25:27.
