data_PCOD9464528
_publ_section_title
;
Structure prediction by ZEFSAII (Michael W. Deem and Ramdas Pophale) SiO2 
 PCOD9464528
Probable space group: P N M A
;
_chemical_formula_sum "Si O2"
_cell_formula_units_Z 48
_cell_length_a 15.260705
_cell_length_b 8.797720
_cell_length_c 20.064286
_cell_angle_alpha 90.000000
_cell_angle_beta 90.000000
_cell_angle_gamma 90.000000
_cell_volume 2693.819192
_symmetry_space_group_name_H-M "P N M A"
_symmetry_group_IT_number 62
_symmetry_cell_setting 'orthorhombic'
loop_
_space_group_symop_operation_xyz
x,y,z
1/2-x,-y,1/2+z
1/2+x,1/2-y,1/2-z
-x,1/2+y,-z
-x,-y,-z
1/2+x,y,1/2-z
1/2-x,1/2+y,1/2+z
x,1/2-y,z
loop_
_atom_site_type_symbol
_atom_site_label
_atom_site_fract_x
_atom_site_fract_y
_atom_site_fract_z
Si Si1 0.379657 0.432034 0.187811
Si Si2 0.914485 0.067952 0.465794
Si Si3 0.771896 0.431702 0.988594
Si Si4 0.990339 0.567797 0.806888
Si Si5 0.805908 0.430775 0.832600
Si Si6 0.563507 0.068446 0.556470
O O1 0.366243 0.250000 0.190950
O O2 0.412709 0.468246 0.113254
O O3 0.450768 0.474280 0.243188
O O4 0.285940 0.511783 0.196968
O O5 0.912181 0.250000 0.473152
O O6 0.826013 0.995192 0.495290
O O7 0.000000 0.000000 0.500000
O O8 0.773654 0.250000 0.997265
O O9 0.801749 0.465322 0.912200
O O10 0.839655 0.511127 0.038002
O O11 0.991145 0.750000 0.813829
O O12 0.890597 0.511071 0.802111
O O13 0.031903 0.493164 0.872571
O O14 0.813590 0.250000 0.825459
O O15 0.558327 0.250000 0.554894
O O16 0.500000 0.000000 0.500000
#
# Coordination Sequence:
#
# PCOD9464528 Si02
#       6
#     8   8   8   8   8   8
#     4   9  21  40  60  83 113 153 195 235 287 348
#     4  10  20  38  62  87 115 151 195 240 288 344
#     4  10  20  36  58  85 115 149 189 236 287 342
#     4  11  22  38  60  84 115 155 194 241 290 345
#     4  10  20  35  59  85 112 149 190 237 288 342
#     4  12  23  36  57  87 119 152 190 236 288 346
#
# _framework density 17.818567999999999
#
# number of rings (size 3 to 8) (size 9 to 14) (size 15 to 20)
#    0.000    1.667    1.667    3.500    0.000    3.333 
#    3.000    0.000    0.000    0.000    0.000    0.000 
#    0.000    0.000    0.000    0.000    0.000    0.000 
#
# Total GULP energy -268198.255093 kJ/mol
# GULP energy per Si atom -5587.463648 kJ/mol
# Density = 1.777801 g / cm^3
# Si number density = 17.818568 Si / 1000 Ang^3
#
#
#
# Elastic Constant Matrix: (Units=GPa)
#
#
# Indices 1 2 3 4 5 6 
#
# 1 182.9103 74.5347 79.1372 0.0000 0.0000 0.0000
# 2 74.5347 79.8284 45.9540 0.0000 0.0000 0.0000
# 3 79.1372 45.9540 73.1479 0.0000 0.0000 0.0000
# 4 0.0000 0.0000 0.0000 25.6583 0.0000 0.0000
# 5 0.0000 0.0000 0.0000 0.0000 34.9804 0.0000
# 6 0.0000 0.0000 0.0000 0.0000 0.0000 38.1930
#
#
#
# Elastic Compliance Matrix: (Units=1/GPa)
#
#
# Indices 1 2 3 4 5 6 
#
# 1 0.011736 -0.005716 -0.009106 0.000000 0.000000 0.000000
# 2 -0.005716 0.022407 -0.007893 0.000000 0.000000 0.000000
# 3 -0.009106 -0.007893 0.028482 0.000000 0.000000 0.000000
# 4 0.000000 0.000000 0.000000 0.038974 0.000000 0.000000
# 5 0.000000 0.000000 0.000000 0.000000 0.028587 0.000000
# 6 0.000000 0.000000 0.000000 0.000000 0.000000 0.026183
#
#
# Mechanical properties :
#
#
# Convention : Reuss Voigt Hill
#
# Bulk Modulus (GPa) = 58.15798 81.68204 69.92001
# Shear Modulus (GPa) = 24.09269 28.85039 26.47154
#
# Velocity S-wave (km/s) = 3.68110 4.02819 3.85855
# Velocity P-wave (km/s) = 7.12581 8.22044 7.69262
#
# Compressibility (1/GPa) = 0.01719455
#
# Stress axis : x y z
#
# Youngs Moduli (GPa) = 85.20643 44.62792 35.11022
#
# Poissons Ratio (x) = 0.25508 0.31972
# Poissons Ratio (y) = 0.48702 0.27714
# Poissons Ratio (z) = 0.77592 0.35226
#
# Static dielectric constant tensor:
#      x y z
#    x 1.593450 0.000000 0.000000 
#    y 0.000000 1.650960 0.000000 
#    z 0.000000 0.000000 1.589820 
# 
# From -- ./inp_files/23766.got.cif
#   From: 2010.05.17/outbox.cif.g08.bks.cpg/sg62_12_cif.got.tgz:23766.got - 2010.06.03 15:25:27.
