data_PCOD9464153
_publ_section_title
;
Structure prediction by ZEFSAII (Michael W. Deem and Ramdas Pophale) SiO2 
 PCOD9464153
Probable space group: P N M A
;
_chemical_formula_sum "Si O2"
_cell_formula_units_Z 52
_cell_length_a 21.336106
_cell_length_b 22.414123
_cell_length_c 4.963581
_cell_angle_alpha 90.000000
_cell_angle_beta 90.000000
_cell_angle_gamma 90.000000
_cell_volume 2373.733859
_symmetry_space_group_name_H-M "P N M A"
_symmetry_group_IT_number 62
_symmetry_cell_setting 'orthorhombic'
loop_
_space_group_symop_operation_xyz
x,y,z
1/2-x,-y,1/2+z
1/2+x,1/2-y,1/2-z
-x,1/2+y,-z
-x,-y,-z
1/2+x,y,1/2-z
1/2-x,1/2+y,1/2+z
x,1/2-y,z
loop_
_atom_site_type_symbol
_atom_site_label
_atom_site_fract_x
_atom_site_fract_y
_atom_site_fract_z
Si Si1 0.554084 0.821709 0.891946
Si Si2 0.577062 0.365366 0.326652
Si Si3 0.669684 0.250000 0.374016
Si Si4 0.133635 0.678666 0.106474
Si Si5 0.128985 0.425559 0.687163
Si Si6 0.283976 0.475462 0.270449
Si Si7 0.250193 0.861843 0.444954
O O1 0.544957 0.750000 0.875718
O O2 0.490943 0.851971 0.791985
O O3 0.610913 0.837248 0.690547
O O4 0.576288 0.836030 0.191939
O O5 0.615539 0.303183 0.347488
O O6 0.576785 0.399621 0.611128
O O7 0.613458 0.407583 0.115389
O O8 0.723709 0.302129 0.417471
O O9 0.142580 0.750000 0.114090
O O10 0.195636 0.651114 0.232293
O O11 0.148467 0.494353 0.722402
O O12 0.190197 0.389216 0.787710
O O13 0.236796 0.513171 0.075498
O O14 0.273322 0.409531 0.162841
#
# Coordination Sequence:
#
# PCOD9464153 Si02
#       7
#     8   8   4   8   8   8   8
#     4  10  21  38  57  79 113 157 196 226 279 344
#     4  11  21  38  58  85 117 145 193 244 282 337
#     4  10  20  34  54  90 112 142 176 236 298 326
#     4  10  21  37  56  82 115 156 189 226 281 348
#     4  10  22  36  59  87 113 154 187 238 290 336
#     4  10  20  37  57  81 117 157 190 222 285 354
#     4  10  21  38  58  88 123 146 187 238 289 351
#
# _framework density 21.906414999999999
#
# number of rings (size 3 to 8) (size 9 to 14) (size 15 to 20)
#    0.000    1.846    1.538    3.692    0.000    7.385 
#    2.769    0.000    0.000    5.538    0.000    0.000 
#    0.000    0.000    0.000    0.000    0.000    0.000 
#
# Total GULP energy -289657.421194 kJ/mol
# GULP energy per Si atom -5570.335023 kJ/mol
# Density = 2.185656 g / cm^3
# Si number density = 21.906415 Si / 1000 Ang^3
#
#
#
# Elastic Constant Matrix: (Units=GPa)
#
#
# Indices 1 2 3 4 5 6 
#
# 1 61.2608 16.2092 -12.7856 0.0000 0.0000 0.0000
# 2 16.2092 67.5003 8.7352 0.0000 0.0000 0.0000
# 3 -12.7856 8.7352 58.5540 0.0000 0.0000 0.0000
# 4 0.0000 0.0000 0.0000 17.3691 0.0000 0.0000
# 5 0.0000 0.0000 0.0000 0.0000 26.5994 0.0000
# 6 0.0000 0.0000 0.0000 0.0000 0.0000 15.8372
#
#
#
# Elastic Compliance Matrix: (Units=1/GPa)
#
#
# Indices 1 2 3 4 5 6 
#
# 1 0.018688 -0.005114 0.004844 0.000000 0.000000 0.000000
# 2 -0.005114 0.016506 -0.003579 0.000000 0.000000 0.000000
# 3 0.004844 -0.003579 0.018670 0.000000 0.000000 0.000000
# 4 0.000000 0.000000 0.000000 0.057573 0.000000 0.000000
# 5 0.000000 0.000000 0.000000 0.000000 0.037595 0.000000
# 6 0.000000 0.000000 0.000000 0.000000 0.000000 0.063143
#
#
# Mechanical properties :
#
#
# Convention : Reuss Voigt Hill
#
# Bulk Modulus (GPa) = 21.66204 23.51472 22.58838
# Shear Modulus (GPa) = 21.25287 23.63824 22.44556
#
# Velocity S-wave (km/s) = 3.11813 3.28846 3.20443
# Velocity P-wave (km/s) = 4.78263 5.01758 4.90151
#
# Compressibility (1/GPa) = 0.04616371
#
# Stress axis : x y z
#
# Youngs Moduli (GPa) = 53.51096 60.58377 53.56233
#
# Poissons Ratio (x) = 0.30985 -0.25943
# Poissons Ratio (y) = 0.27368 0.19171
# Poissons Ratio (z) = -0.25918 0.21684
#
# Static dielectric constant tensor:
#      x y z
#    x 1.806100 0.000000 0.000000 
#    y 0.000000 1.799500 0.000000 
#    z 0.000000 0.000000 1.807190 
# 
# From -- ./inp_files/2229.got.cif
#   From: 2010.05.17/outbox.cif.g08.bks.cpg/sg62_2_cif.got.tgz:2229.got - 2010.06.03 15:25:27.
