data_PCOD9464674
_publ_section_title
;
Structure prediction by ZEFSAII (Michael W. Deem and Ramdas Pophale) SiO2 
 PCOD9464674
Probable space group: P N M A
;
_chemical_formula_sum "Si O2"
_cell_formula_units_Z 56
_cell_length_a 21.560009
_cell_length_b 8.217322
_cell_length_c 15.197737
_cell_angle_alpha 90.000000
_cell_angle_beta 90.000000
_cell_angle_gamma 90.000000
_cell_volume 2692.515226
_symmetry_space_group_name_H-M "P N M A"
_symmetry_group_IT_number 62
_symmetry_cell_setting 'orthorhombic'
loop_
_space_group_symop_operation_xyz
x,y,z
1/2-x,-y,1/2+z
1/2+x,1/2-y,1/2-z
-x,1/2+y,-z
-x,-y,-z
1/2+x,y,1/2-z
1/2-x,1/2+y,1/2+z
x,1/2-y,z
loop_
_atom_site_type_symbol
_atom_site_label
_atom_site_fract_x
_atom_site_fract_y
_atom_site_fract_z
Si Si1 0.020887 0.561383 0.271152
Si Si2 0.153805 0.944547 0.325455
Si Si3 0.610357 0.557490 0.736946
Si Si4 0.240358 0.443623 0.688984
Si Si5 0.041671 0.062756 0.080663
Si Si6 0.773998 0.941958 0.509878
Si Si7 0.133634 0.940768 0.957536
O O1 0.014691 0.750000 0.295459
O O2 0.083803 0.490497 0.313485
O O3 0.034188 0.543068 0.167128
O O4 0.953816 0.480795 0.286220
O O5 0.150080 0.750000 0.312083
O O6 0.204536 0.007110 0.253221
O O7 0.178349 0.977250 0.423389
O O8 0.621926 0.750000 0.738703
O O9 0.672288 0.471557 0.770576
O O10 0.602340 0.510581 0.634235
O O11 0.251800 0.250000 0.681032
O O12 0.234921 0.508185 0.589034
O O13 0.027287 0.250000 0.101683
O O14 0.109867 0.042752 0.039737
O O15 0.000000 0.000000 0.000000
O O16 0.789453 0.750000 0.503576
O O17 0.706662 0.956689 0.554284
O O18 0.120142 0.750000 0.975494
#
# Coordination Sequence:
#
# PCOD9464674 Si02
#       7
#     8   8   8   8   8   8   8
#     4  11  23  40  60  84 121 162 200 248 305 361
#     4  10  22  40  63  90 121 158 199 249 304 360
#     4  11  22  37  60  88 119 156 199 246 296 354
#     4  10  21  39  63  89 121 160 200 243 303 363
#     4  12  23  34  53  83 117 155 195 238 294 359
#     4  10  21  39  63  89 119 157 199 250 304 359
#     4  10  20  36  57  83 119 155 192 242 300 355
#
# _framework density 20.798396
#
# number of rings (size 3 to 8) (size 9 to 14) (size 15 to 20)
#    0.000    1.429    2.857    3.000    0.000    5.143 
#    0.000    2.143    0.000    0.000    0.000    0.000 
#    0.000    0.000    0.000    0.000    0.000    0.000 
#
# Total GULP energy -312616.636226 kJ/mol
# GULP energy per Si atom -5582.439933 kJ/mol
# Density = 2.075106 g / cm^3
# Si number density = 20.798396 Si / 1000 Ang^3
#
#
#
# Elastic Constant Matrix: (Units=GPa)
#
#
# Indices 1 2 3 4 5 6 
#
# 1 61.8375 0.0112 3.9718 0.0000 0.0000 0.0000
# 2 0.0112 10.9910 0.0330 0.0000 0.0000 0.0000
# 3 3.9718 0.0330 51.8290 0.0000 0.0000 0.0000
# 4 0.0000 0.0000 0.0000 24.2914 0.0000 0.0000
# 5 0.0000 0.0000 0.0000 0.0000 30.1888 0.0000
# 6 0.0000 0.0000 0.0000 0.0000 0.0000 19.7728
#
#
#
# Elastic Compliance Matrix: (Units=1/GPa)
#
#
# Indices 1 2 3 4 5 6 
#
# 1 0.016251 -0.000013 -0.001245 0.000000 0.000000 0.000000
# 2 -0.000013 0.090984 -0.000057 0.000000 0.000000 0.000000
# 3 -0.001245 -0.000057 0.019390 0.000000 0.000000 0.000000
# 4 0.000000 0.000000 0.000000 0.041167 0.000000 0.000000
# 5 0.000000 0.000000 0.000000 0.000000 0.033125 0.000000
# 6 0.000000 0.000000 0.000000 0.000000 0.000000 0.050574
#
#
# Mechanical properties :
#
#
# Convention : Reuss Voigt Hill
#
# Bulk Modulus (GPa) = 8.06487 14.74327 11.40407
# Shear Modulus (GPa) = 16.92319 22.89338 19.90828
#
# Velocity S-wave (km/s) = 2.85560 3.32132 3.09723
# Velocity P-wave (km/s) = 3.84170 4.67036 4.27615
#
# Compressibility (1/GPa) = 0.12399457
#
# Stress axis : x y z
#
# Youngs Moduli (GPa) = 61.53316 10.99098 51.57378
#
# Poissons Ratio (x) = 0.00014 0.06423
# Poissons Ratio (y) = 0.00079 0.00293
# Poissons Ratio (z) = 0.07663 0.00063
#
# Static dielectric constant tensor:
#      x y z
#    x 1.815260 0.000000 0.000000 
#    y 0.000000 1.756030 0.000000 
#    z 0.000000 0.000000 1.744880 
# 
# From -- ./inp_files/20229.got.cif
#   From: 2010.05.17/outbox.cif.g08.bks.cpg/sg62_11_cif.got.tgz:20229.got - 2010.06.03 15:25:27.
