data_PCOD9464174
_publ_section_title
;
Structure prediction by ZEFSAII (Michael W. Deem and Ramdas Pophale) SiO2 
 PCOD9464174
Probable space group: P N M A
;
_chemical_formula_sum "Si O2"
_cell_formula_units_Z 48
_cell_length_a 8.496047
_cell_length_b 8.444616
_cell_length_c 29.833129
_cell_angle_alpha 90.000000
_cell_angle_beta 90.000000
_cell_angle_gamma 90.000000
_cell_volume 2140.403331
_symmetry_space_group_name_H-M "P N M A"
_symmetry_group_IT_number 62
_symmetry_cell_setting 'orthorhombic'
loop_
_space_group_symop_operation_xyz
x,y,z
1/2-x,-y,1/2+z
1/2+x,1/2-y,1/2-z
-x,1/2+y,-z
-x,-y,-z
1/2+x,y,1/2-z
1/2-x,1/2+y,1/2+z
x,1/2-y,z
loop_
_atom_site_type_symbol
_atom_site_label
_atom_site_fract_x
_atom_site_fract_y
_atom_site_fract_z
Si Si1 0.272333 0.057334 0.352601
Si Si2 0.782816 0.934766 0.311446
Si Si3 0.094858 0.438013 0.266059
Si Si4 0.397360 0.562094 0.607736
Si Si5 0.752953 0.935599 0.475461
Si Si6 0.920218 0.941660 0.563142
O O1 0.276652 0.250000 0.352356
O O2 0.225023 0.009803 0.302774
O O3 0.437642 0.001901 0.372408
O O4 0.136682 0.012303 0.387726
O O5 0.817725 0.750000 0.310837
O O6 0.632896 0.974278 0.279931
O O7 0.739413 0.989721 0.361306
O O8 0.928219 0.026646 0.289045
O O9 0.107129 0.250000 0.257944
O O10 0.391695 0.750000 0.613448
O O11 0.371632 0.523624 0.555670
O O12 0.719932 0.750000 0.473284
O O13 0.782016 0.979166 0.527255
O O14 0.922488 0.973708 0.453046
O O15 0.945276 0.750000 0.561482
#
# Coordination Sequence:
#
# PCOD9464174 Si02
#       6
#     8   8   8   8   8   8
#     4   9  20  37  59  84 110 147 196 241 280 338
#     4  12  25  41  61  89 122 153 192 245 299 346
#     4  11  22  40  65  90 117 154 198 240 290 353
#     4  11  22  38  59  83 114 154 198 240 289 352
#     4  10  20  34  55  85 117 149 190 241 295 349
#     4   9  18  36  59  82 112 151 194 240 291 348
#
# _framework density 22.42568
#
# number of rings (size 3 to 8) (size 9 to 14) (size 15 to 20)
#    0.000    1.667    0.000    5.000    0.000    4.000 
#    0.000    5.000    0.000    0.000    0.000    0.000 
#    0.000    0.000    0.000    0.000    0.000    0.000 
#
# Total GULP energy -268482.022300 kJ/mol
# GULP energy per Si atom -5593.375465 kJ/mol
# Density = 2.237464 g / cm^3
# Si number density = 22.425680 Si / 1000 Ang^3
#
#
#
# Elastic Constant Matrix: (Units=GPa)
#
#
# Indices 1 2 3 4 5 6 
#
# 1 43.0649 -11.3172 -23.5687 0.0000 0.0000 0.0000
# 2 -11.3172 35.2976 5.1533 0.0000 0.0000 0.0000
# 3 -23.5687 5.1533 67.1491 0.0000 0.0000 0.0000
# 4 0.0000 0.0000 0.0000 28.3642 0.0000 0.0000
# 5 0.0000 0.0000 0.0000 0.0000 33.2427 0.0000
# 6 0.0000 0.0000 0.0000 0.0000 0.0000 18.3212
#
#
#
# Elastic Compliance Matrix: (Units=1/GPa)
#
#
# Indices 1 2 3 4 5 6 
#
# 1 0.031054 0.008460 0.010250 0.000000 0.000000 0.000000
# 2 0.008460 0.030956 0.000594 0.000000 0.000000 0.000000
# 3 0.010250 0.000594 0.018444 0.000000 0.000000 0.000000
# 4 0.000000 0.000000 0.000000 0.035256 0.000000 0.000000
# 5 0.000000 0.000000 0.000000 0.000000 0.030082 0.000000
# 6 0.000000 0.000000 0.000000 0.000000 0.000000 0.054581
#
#
# Mechanical properties :
#
#
# Convention : Reuss Voigt Hill
#
# Bulk Modulus (GPa) = 8.39891 9.56069 8.97980
# Shear Modulus (GPa) = 24.81968 27.66857 26.24412
#
# Velocity S-wave (km/s) = 3.33040 3.51634 3.42463
# Velocity P-wave (km/s) = 4.30605 4.55618 4.43288
#
# Compressibility (1/GPa) = 0.11906311
#
# Stress axis : x y z
#
# Youngs Moduli (GPa) = 32.20205 32.30356 54.21682
#
# Poissons Ratio (x) = -0.27329 -0.55574
# Poissons Ratio (y) = -0.27243 -0.03219
# Poissons Ratio (z) = -0.33008 -0.01918
#
# Static dielectric constant tensor:
#      x y z
#    x 1.865280 0.000000 0.000000 
#    y 0.000000 1.757020 0.000000 
#    z 0.000000 0.000000 1.807860 
# 
# From -- ./inp_files/31994.got.cif
#   From: 2010.05.17/outbox.cif.g08.bks.cpg/sg62_16_cif.got.tgz:31994.got - 2010.06.03 15:25:27.
