data_PCOD9464841
_publ_section_title
;
Structure prediction by ZEFSAII (Michael W. Deem and Ramdas Pophale) SiO2 
 PCOD9464841
Probable space group: P N M A
;
_chemical_formula_sum "Si O2"
_cell_formula_units_Z 40
_cell_length_a 13.501682
_cell_length_b 15.024610
_cell_length_c 9.279581
_cell_angle_alpha 90.000000
_cell_angle_beta 90.000000
_cell_angle_gamma 90.000000
_cell_volume 1882.432662
_symmetry_space_group_name_H-M "P N M A"
_symmetry_group_IT_number 62
_symmetry_cell_setting 'orthorhombic'
loop_
_space_group_symop_operation_xyz
x,y,z
1/2-x,-y,1/2+z
1/2+x,1/2-y,1/2-z
-x,1/2+y,-z
-x,-y,-z
1/2+x,y,1/2-z
1/2-x,1/2+y,1/2+z
x,1/2-y,z
loop_
_atom_site_type_symbol
_atom_site_label
_atom_site_fract_x
_atom_site_fract_y
_atom_site_fract_z
Si Si1 0.571615 0.095489 0.176574
Si Si2 0.076597 0.900170 0.451874
Si Si3 0.685967 0.655608 0.322220
Si Si4 0.560304 0.919125 0.567435
Si Si5 0.720829 0.963036 0.790966
O O1 0.507051 0.126380 0.311804
O O2 0.683913 0.093221 0.234548
O O3 0.551389 0.991062 0.136487
O O4 0.521496 0.136568 0.032790
O O5 0.130784 0.843846 0.330938
O O6 0.158324 0.923317 0.575555
O O7 0.739618 0.750000 0.342926
O O8 0.604059 0.643850 0.446235
O O9 0.747946 0.564029 0.327719
O O10 0.650080 0.963298 0.653959
O O11 0.500000 0.000000 0.500000
#
# Coordination Sequence:
#
# PCOD9464841 Si02
#       5
#     8   8   8   8   8
#     4   9  18  32  58  84 109 148 205 240 277 351
#     4   9  18  34  59  85 109 154 204 239 286 360
#     4  11  22  37  58  90 123 149 194 269 313 337
#     4  11  20  37  61  87 117 158 207 241 294 370
#     4  10  20  36  64  84 114 159 207 239 290 376
#
# _framework density 21.249099999999999
#
# number of rings (size 3 to 8) (size 9 to 14) (size 15 to 20)
#    0.000    2.000    4.000    2.400    0.000    0.000 
#    0.000    5.000    0.000    6.000    0.000    0.000 
#    0.000    0.000    0.000    0.000    0.000    0.000 
#
# Total GULP energy -222869.166136 kJ/mol
# GULP energy per Si atom -5571.729153 kJ/mol
# Density = 2.120074 g / cm^3
# Si number density = 21.249100 Si / 1000 Ang^3
#
#
#
# Elastic Constant Matrix: (Units=GPa)
#
#
# Indices 1 2 3 4 5 6 
#
# 1 116.9431 16.6618 50.5250 0.0000 0.0000 0.0000
# 2 16.6618 49.8197 26.4316 0.0000 0.0000 0.0000
# 3 50.5250 26.4316 142.5412 0.0000 0.0000 0.0000
# 4 0.0000 0.0000 0.0000 -17.4239 0.0000 0.0000
# 5 0.0000 0.0000 0.0000 0.0000 40.6502 0.0000
# 6 0.0000 0.0000 0.0000 0.0000 0.0000 -5.0055
#
#
#
# Elastic Compliance Matrix: (Units=1/GPa)
#
#
# Indices 1 2 3 4 5 6 
#
# 1 0.010220 -0.001659 -0.003315 0.000000 0.000000 0.000000
# 2 -0.001659 0.022532 -0.003590 0.000000 0.000000 0.000000
# 3 -0.003315 -0.003590 0.008856 0.000000 0.000000 0.000000
# 4 0.000000 0.000000 0.000000 -0.057393 0.000000 0.000000
# 5 0.000000 0.000000 0.000000 0.000000 0.024600 0.000000
# 6 0.000000 0.000000 0.000000 0.000000 0.000000 -0.199781
#
#
# Mechanical properties :
#
#
# Convention : Reuss Voigt Hill
#
# Bulk Modulus (GPa) = 40.85004 55.17120 48.01062
# Shear Modulus (GPa) = -30.17910 18.02322 -6.07794
#
# Velocity S-wave (km/s) = -3.77271 2.91553 -1.69309
# Velocity P-wave (km/s) = 0.53691 6.11180 4.33834
#
# Compressibility (1/GPa) = 0.02447978
#
# Stress axis : x y z
#
# Youngs Moduli (GPa) = 97.85003 44.38136 112.91563
#
# Poissons Ratio (x) = 0.07364 0.37429
# Poissons Ratio (y) = 0.16236 0.40537
# Poissons Ratio (z) = 0.32435 0.15933
#
# Static dielectric constant tensor:
#      x y z
#    x 1.825850 0.000000 0.000000 
#    y 0.000000 1.883860 0.000000 
#    z 0.000000 0.000000 1.805640 
# 
# From -- ./inp_files/6252.got.cif
#   From: 2010.05.17/outbox.cif.g08.bks.cpg/sg62_4_cif.got.tgz:6252.got - 2010.06.03 15:25:27.
