data_PCOD9464693
_publ_section_title
;
Structure prediction by ZEFSAII (Michael W. Deem and Ramdas Pophale) SiO2 
 PCOD9464693
Probable space group: P N M A
;
_chemical_formula_sum "Si O2"
_cell_formula_units_Z 64
_cell_length_a 18.367200
_cell_length_b 7.644858
_cell_length_c 21.231643
_cell_angle_alpha 90.000000
_cell_angle_beta 90.000000
_cell_angle_gamma 90.000000
_cell_volume 2981.233421
_symmetry_space_group_name_H-M "P N M A"
_symmetry_group_IT_number 62
_symmetry_cell_setting 'orthorhombic'
loop_
_space_group_symop_operation_xyz
x,y,z
1/2-x,-y,1/2+z
1/2+x,1/2-y,1/2-z
-x,1/2+y,-z
-x,-y,-z
1/2+x,y,1/2-z
1/2-x,1/2+y,1/2+z
x,1/2-y,z
loop_
_atom_site_type_symbol
_atom_site_label
_atom_site_fract_x
_atom_site_fract_y
_atom_site_fract_z
Si Si1 0.414670 0.541447 0.004557
Si Si2 0.338022 0.542442 0.634608
Si Si3 0.832647 0.456171 0.622963
Si Si4 0.921868 0.045102 0.740122
Si Si5 0.667794 0.464710 0.616567
Si Si6 0.415239 0.539955 0.508086
Si Si7 0.914238 0.964310 0.243135
Si Si8 0.332630 0.961095 0.130059
O O1 0.407045 0.750000 0.004450
O O2 0.373247 0.473215 0.943183
O O3 0.500000 0.500000 0.000000
O O4 0.377017 0.475234 0.068834
O O5 0.349414 0.750000 0.638087
O O6 0.371163 0.467469 0.698746
O O7 0.381151 0.473298 0.573425
O O8 0.252155 0.509218 0.627753
O O9 0.823925 0.250000 0.636872
O O10 0.880930 0.532308 0.679588
O O11 0.750941 0.526743 0.619411
O O12 0.934114 0.250000 0.726010
O O13 0.002392 0.973654 0.753112
O O14 0.667475 0.250000 0.615481
O O15 0.628810 0.524323 0.552749
O O16 0.624303 0.519811 0.678714
O O17 0.500000 0.500000 0.500000
O O18 0.407232 0.750000 0.509337
O O19 0.913641 0.750000 0.242299
O O20 0.870002 0.020695 0.305040
O O21 0.336712 0.750000 0.130060
#
# Coordination Sequence:
#
# PCOD9464693 Si02
#       8
#     8   8   8   8   8   8   8   8
#     4  11  23  38  58  84 115 150 188 234 285 339
#     4  11  23  37  55  83 118 151 185 233 289 338
#     4  10  20  36  58  82 110 147 190 234 281 334
#     4  10  20  36  60  85 111 148 190 231 277 335
#     4   9  17  31  53  78 105 139 179 226 278 327
#     4  10  21  36  54  78 108 143 183 228 280 335
#     4   9  17  32  56  83 107 137 185 236 274 319
#     4  10  21  38  59  83 111 147 193 236 277 335
#
# _framework density 21.467625999999999
#
# number of rings (size 3 to 8) (size 9 to 14) (size 15 to 20)
#    0.000    2.000    0.000    3.750    0.000    8.500 
#    0.000    1.250    0.000    3.000    0.000    0.000 
#    0.000    0.000    0.000    0.000    0.000    0.000 
#
# Total GULP energy -357766.143226 kJ/mol
# GULP energy per Si atom -5590.095988 kJ/mol
# Density = 2.141876 g / cm^3
# Si number density = 21.467626 Si / 1000 Ang^3
#
#
#
# Elastic Constant Matrix: (Units=GPa)
#
#
# Indices 1 2 3 4 5 6 
#
# 1 123.5328 -16.0305 22.7941 0.0000 0.0000 0.0000
# 2 -16.0305 34.7148 -14.8902 0.0000 0.0000 0.0000
# 3 22.7941 -14.8902 113.8870 0.0000 0.0000 0.0000
# 4 0.0000 0.0000 0.0000 3.3792 0.0000 0.0000
# 5 0.0000 0.0000 0.0000 0.0000 44.2670 0.0000
# 6 0.0000 0.0000 0.0000 0.0000 0.0000 17.2408
#
#
#
# Elastic Compliance Matrix: (Units=1/GPa)
#
#
# Indices 1 2 3 4 5 6 
#
# 1 0.008789 0.003501 -0.001301 0.000000 0.000000 0.000000
# 2 0.003501 0.031912 0.003472 0.000000 0.000000 0.000000
# 3 -0.001301 0.003472 0.009495 0.000000 0.000000 0.000000
# 4 0.000000 0.000000 0.000000 0.295932 0.000000 0.000000
# 5 0.000000 0.000000 0.000000 0.000000 0.022590 0.000000
# 6 0.000000 0.000000 0.000000 0.000000 0.000000 0.058002
#
#
# Mechanical properties :
#
#
# Convention : Reuss Voigt Hill
#
# Bulk Modulus (GPa) = 16.25024 28.43126 22.34075
# Shear Modulus (GPa) = 11.47075 31.66149 21.56612
#
# Velocity S-wave (km/s) = 2.31406 3.84454 3.17296
# Velocity P-wave (km/s) = 3.83744 5.74281 4.88394
#
# Compressibility (1/GPa) = 0.06153756
#
# Stress axis : x y z
#
# Youngs Moduli (GPa) = 113.77316 31.33645 105.31826
#
# Poissons Ratio (x) = -0.10969 0.13707
# Poissons Ratio (y) = -0.39826 -0.36563
# Poissons Ratio (z) = 0.14808 -0.10879
#
# Static dielectric constant tensor:
#      x y z
#    x 1.724370 0.000000 0.000000 
#    y 0.000000 1.813560 0.000000 
#    z 0.000000 0.000000 1.740100 
# 
# From -- ./inp_files/27742.got.cif
#   From: 2010.05.17/outbox.cif.g08.bks.cpg/sg62_14_cif.got.tgz:27742.got - 2010.06.03 15:25:27.
