data_PCOD9464856
_publ_section_title
;
Structure prediction by ZEFSAII (Michael W. Deem and Ramdas Pophale) SiO2 
 PCOD9464856
Probable space group: P N M A
;
_chemical_formula_sum "Si O2"
_cell_formula_units_Z 56
_cell_length_a 17.742548
_cell_length_b 18.673993
_cell_length_c 9.707064
_cell_angle_alpha 90.000000
_cell_angle_beta 90.000000
_cell_angle_gamma 90.000000
_cell_volume 3216.185381
_symmetry_space_group_name_H-M "P N M A"
_symmetry_group_IT_number 62
_symmetry_cell_setting 'orthorhombic'
loop_
_space_group_symop_operation_xyz
x,y,z
1/2-x,-y,1/2+z
1/2+x,1/2-y,1/2-z
-x,1/2+y,-z
-x,-y,-z
1/2+x,y,1/2-z
1/2-x,1/2+y,1/2+z
x,1/2-y,z
loop_
_atom_site_type_symbol
_atom_site_label
_atom_site_fract_x
_atom_site_fract_y
_atom_site_fract_z
Si Si1 0.681211 0.028041 0.387623
Si Si2 0.945971 0.433002 0.825331
Si Si3 0.757045 0.624548 0.319617
Si Si4 0.826238 0.395652 0.314238
Si Si5 0.131272 0.666295 0.391900
Si Si6 0.856205 0.170950 0.026041
Si Si7 0.121323 0.044648 0.805874
O O1 0.736338 0.089170 0.330738
O O2 0.667740 0.037424 0.550726
O O3 0.600038 0.008207 0.322525
O O4 0.726952 0.955629 0.352101
O O5 0.925630 0.384837 0.692466
O O6 0.034090 0.444773 0.838616
O O7 0.909836 0.387677 0.952440
O O8 0.709647 0.655919 0.192095
O O9 0.725337 0.666417 0.450774
O O10 0.842790 0.611270 0.278116
O O11 0.856548 0.362255 0.454874
O O12 0.844334 0.346340 0.184477
O O13 0.865712 0.471639 0.279059
O O14 0.110463 0.750000 0.388309
O O15 0.887652 0.250000 0.002760
#
# Coordination Sequence:
#
# PCOD9464856 Si02
#       7
#     8   8   8   8   8   8   8
#     4   9  18  32  54  81 110 129 172 230 272 315
#     4  10  21  34  58  80 108 146 174 225 275 324
#     4   9  18  33  56  78 101 140 178 226 259 309
#     4  11  20  33  58  84 107 140 179 229 277 311
#     4  10  20  37  53  75 108 145 184 215 261 327
#     4  10  20  37  56  78 106 147 188 218 263 327
#     4  11  19  34  57  86 110 135 183 226 278 322
#
# _framework density 17.411930999999999
#
# number of rings (size 3 to 8) (size 9 to 14) (size 15 to 20)
#    0.000    2.286    4.286    2.571    0.000    0.571 
#    0.000    2.857    0.000    0.000    0.000    0.000 
#    0.000    0.000    0.000    0.000    0.000    0.000 
#
# Total GULP energy -311755.382580 kJ/mol
# GULP energy per Si atom -5567.060403 kJ/mol
# Density = 1.737230 g / cm^3
# Si number density = 17.411931 Si / 1000 Ang^3
#
#
#
# Elastic Constant Matrix: (Units=GPa)
#
#
# Indices 1 2 3 4 5 6 
#
# 1 62.9959 2.1870 17.5064 0.0000 0.0000 0.0000
# 2 2.1870 35.2029 19.1042 0.0000 0.0000 0.0000
# 3 17.5064 19.1042 120.9031 0.0000 0.0000 0.0000
# 4 0.0000 0.0000 0.0000 -129.9707 0.0000 0.0000
# 5 0.0000 0.0000 0.0000 0.0000 11.0597 0.0000
# 6 0.0000 0.0000 0.0000 0.0000 0.0000 3.2222
#
#
#
# Elastic Compliance Matrix: (Units=1/GPa)
#
#
# Indices 1 2 3 4 5 6 
#
# 1 0.016542 0.000298 -0.002442 0.000000 0.000000 0.000000
# 2 0.000298 0.031076 -0.004954 0.000000 0.000000 0.000000
# 3 -0.002442 -0.004954 0.009407 0.000000 0.000000 0.000000
# 4 0.000000 0.000000 0.000000 -0.007694 0.000000 0.000000
# 5 0.000000 0.000000 0.000000 0.000000 0.090418 0.000000
# 6 0.000000 0.000000 0.000000 0.000000 0.000000 0.310351
#
#
# Mechanical properties :
#
#
# Convention : Reuss Voigt Hill
#
# Bulk Modulus (GPa) = 23.34812 32.96634 28.15723
# Shear Modulus (GPa) = 10.44769 -11.11748 -0.33489
#
# Velocity S-wave (km/s) = 2.45221 -2.52959 -0.43904
# Velocity P-wave (km/s) = 4.63208 3.23149 3.99366
#
# Compressibility (1/GPa) = 0.04282999
#
# Stress axis : x y z
#
# Youngs Moduli (GPa) = 60.45057 32.17867 106.29858
#
# Poissons Ratio (x) = -0.00958 0.25962
# Poissons Ratio (y) = -0.01800 0.52656
# Poissons Ratio (z) = 0.14764 0.15940
#
# Static dielectric constant tensor:
#      x y z
#    x 1.607190 0.000000 0.000000 
#    y 0.000000 1.623550 0.000000 
#    z 0.000000 0.000000 1.600820 
# 
# From -- ./inp_files/8061.got.cif
#   From: 2010.05.17/outbox.cif.g08.bks.cpg/sg62_5_cif.got.tgz:8061.got - 2010.06.03 15:25:27.
