data_PCOD9464036
_publ_section_title
;
Structure prediction by ZEFSAII (Michael W. Deem and Ramdas Pophale) SiO2 
 PCOD9464036
Probable space group: P N M A
;
_chemical_formula_sum "Si O2"
_cell_formula_units_Z 64
_cell_length_a 25.257302
_cell_length_b 7.342184
_cell_length_c 13.857994
_cell_angle_alpha 90.000000
_cell_angle_beta 90.000000
_cell_angle_gamma 90.000000
_cell_volume 2569.878494
_symmetry_space_group_name_H-M "P N M A"
_symmetry_group_IT_number 62
_symmetry_cell_setting 'orthorhombic'
loop_
_space_group_symop_operation_xyz
x,y,z
1/2-x,-y,1/2+z
1/2+x,1/2-y,1/2-z
-x,1/2+y,-z
-x,-y,-z
1/2+x,y,1/2-z
1/2-x,1/2+y,1/2+z
x,1/2-y,z
loop_
_atom_site_type_symbol
_atom_site_label
_atom_site_fract_x
_atom_site_fract_y
_atom_site_fract_z
Si Si1 0.665189 0.469095 0.126531
Si Si2 0.164178 0.964770 0.601234
Si Si3 0.398419 0.538365 0.370581
Si Si4 0.056055 0.472794 0.279551
Si Si5 0.054983 0.545765 0.676280
Si Si6 0.394712 0.527526 0.589792
Si Si7 0.279417 0.469052 0.380747
Si Si8 0.278727 0.540364 0.609023
O O1 0.664443 0.250000 0.135272
O O2 0.610782 0.533835 0.172619
O O3 0.723257 0.528278 0.164691
O O4 0.664340 0.518343 0.014041
O O5 0.164424 0.750000 0.628509
O O6 0.108305 0.043476 0.635827
O O7 0.221313 0.039226 0.635229
O O8 0.412811 0.750000 0.371393
O O9 0.433778 0.444511 0.290679
O O10 0.402730 0.466842 0.479966
O O11 0.336425 0.523516 0.340353
O O12 0.054298 0.250000 0.283003
O O13 0.061132 0.523816 0.167021
O O14 0.003054 0.537901 0.332005
O O15 0.052623 0.750000 0.634419
O O16 0.391726 0.750000 0.586762
O O17 0.337085 0.465057 0.629385
O O18 0.279211 0.250000 0.384084
O O19 0.279106 0.539097 0.491340
O O20 0.278680 0.750000 0.643179
#
# Coordination Sequence:
#
# PCOD9464036 Si02
#       8
#     8   8   8   8   8   8   8   8
#     4   9  18  32  53  78 102 132 168 206 249 300
#     4   9  18  32  50  73 102 133 164 204 255 306
#     4  10  20  34  52  74 101 133 168 208 257 307
#     4   9  18  33  51  73 101 132 172 215 250 295
#     4  10  21  35  51  73 100 134 176 215 251 296
#     4   8  15  29  50  72  94 126 163 200 247 299
#     4   9  16  28  49  77 104 127 159 203 251 304
#     4   8  14  27  48  72  98 128 162 198 244 303
#
# _framework density 24.9039
#
# number of rings (size 3 to 8) (size 9 to 14) (size 15 to 20)
#    0.000    3.000    0.000    1.500    0.000    3.000 
#    0.000    4.375    0.000    6.750    0.000    0.000 
#    0.000    0.000    0.000    0.000    0.000    0.000 
#
# Total GULP energy -357348.944633 kJ/mol
# GULP energy per Si atom -5583.577260 kJ/mol
# Density = 2.484722 g / cm^3
# Si number density = 24.903900 Si / 1000 Ang^3
#
#
#
# Elastic Constant Matrix: (Units=GPa)
#
#
# Indices 1 2 3 4 5 6 
#
# 1 91.1912 -6.0977 1.7533 0.0000 0.0000 0.0000
# 2 -6.0977 104.5834 -10.1405 0.0000 0.0000 0.0000
# 3 1.7533 -10.1405 37.4625 0.0000 0.0000 0.0000
# 4 0.0000 0.0000 0.0000 17.9529 0.0000 0.0000
# 5 0.0000 0.0000 0.0000 0.0000 22.5878 0.0000
# 6 0.0000 0.0000 0.0000 0.0000 0.0000 3.1890
#
#
#
# Elastic Compliance Matrix: (Units=1/GPa)
#
#
# Indices 1 2 3 4 5 6 
#
# 1 0.011013 0.000608 -0.000351 0.000000 0.000000 0.000000
# 2 0.000608 0.009853 0.002639 0.000000 0.000000 0.000000
# 3 -0.000351 0.002639 0.027424 0.000000 0.000000 0.000000
# 4 0.000000 0.000000 0.000000 0.055701 0.000000 0.000000
# 5 0.000000 0.000000 0.000000 0.000000 0.044272 0.000000
# 6 0.000000 0.000000 0.000000 0.000000 0.000000 0.313574
#
#
# Mechanical properties :
#
#
# Convention : Reuss Voigt Hill
#
# Bulk Modulus (GPa) = 18.49036 22.69635 20.59335
# Shear Modulus (GPa) = 10.54690 25.26076 17.90383
#
# Velocity S-wave (km/s) = 2.06015 3.18831 2.68417
# Velocity P-wave (km/s) = 3.61936 4.76310 4.23006
#
# Compressibility (1/GPa) = 0.05408225
#
# Stress axis : x y z
#
# Youngs Moduli (GPa) = 90.79865 101.49149 36.46436
#
# Poissons Ratio (x) = -0.06172 0.01279
# Poissons Ratio (y) = -0.05522 -0.09621
# Poissons Ratio (z) = 0.03185 -0.26780
#
# Static dielectric constant tensor:
#      x y z
#    x 1.974890 0.000000 0.000000 
#    y 0.000000 2.130720 0.000000 
#    z 0.000000 0.000000 1.962900 
# 
# From -- ./inp_files/20991.got.cif
#   From: 2010.05.17/outbox.cif.g08.bks.cpg/sg62_11_cif.got.tgz:20991.got - 2010.06.03 15:25:27.
