data_PCOD9464703
_publ_section_title
;
Structure prediction by ZEFSAII (Michael W. Deem and Ramdas Pophale) SiO2 
 PCOD9464703
Probable space group: P N M A
;
_chemical_formula_sum "Si O2"
_cell_formula_units_Z 40
_cell_length_a 18.944057
_cell_length_b 11.734077
_cell_length_c 7.476023
_cell_angle_alpha 90.000000
_cell_angle_beta 90.000000
_cell_angle_gamma 90.000000
_cell_volume 1661.852805
_symmetry_space_group_name_H-M "P N M A"
_symmetry_group_IT_number 62
_symmetry_cell_setting 'orthorhombic'
loop_
_space_group_symop_operation_xyz
x,y,z
1/2-x,-y,1/2+z
1/2+x,1/2-y,1/2-z
-x,1/2+y,-z
-x,-y,-z
1/2+x,y,1/2-z
1/2-x,1/2+y,1/2+z
x,1/2-y,z
loop_
_atom_site_type_symbol
_atom_site_label
_atom_site_fract_x
_atom_site_fract_y
_atom_site_fract_z
Si Si1 0.075564 0.872200 0.354527
Si Si2 0.385489 0.376610 0.467204
Si Si3 0.165685 0.053101 0.519984
Si Si4 0.749010 0.628267 0.794529
Si Si5 0.923040 0.875337 0.168397
O O1 0.083501 0.750000 0.446588
O O2 0.099482 0.970542 0.483833
O O3 0.997387 0.878692 0.274282
O O4 0.126138 0.875791 0.180422
O O5 0.421554 0.250000 0.435487
O O6 0.317537 0.371921 0.341080
O O7 0.418813 0.502127 0.431268
O O8 0.232030 0.973104 0.571055
O O9 0.184712 0.114339 0.336234
O O10 0.141334 0.124085 0.689876
O O11 0.752463 0.750000 0.888864
O O12 0.920810 0.750000 0.074654
#
# Coordination Sequence:
#
# PCOD9464703 Si02
#       5
#     8   8   8   8   8
#     4  10  20  36  58  84 113 147 187 231 280 333
#     4   9  19  37  60  84 112 147 186 228 278 336
#     4  11  21  37  56  81 111 148 187 231 280 331
#     4  10  21  37  56  79 108 144 188 234 279 330
#     4  10  21  37  58  86 118 148 184 230 278 332
#
# _framework density 24.069521000000002
#
# number of rings (size 3 to 8) (size 9 to 14) (size 15 to 20)
#    0.000    2.000    0.000    3.600    0.000    0.800 
#    0.000   17.000    0.000    0.000    0.000    0.000 
#    0.000    0.000    0.000    0.000    0.000    0.000 
#
# Total GULP energy -223123.907072 kJ/mol
# GULP energy per Si atom -5578.097677 kJ/mol
# Density = 2.401474 g / cm^3
# Si number density = 24.069521 Si / 1000 Ang^3
#
#
#
# Elastic Constant Matrix: (Units=GPa)
#
#
# Indices 1 2 3 4 5 6 
#
# 1 37.6920 23.3267 -8.3704 0.0000 0.0000 0.0000
# 2 23.3267 208.0303 27.2975 0.0000 0.0000 0.0000
# 3 -8.3704 27.2975 35.8442 0.0000 0.0000 0.0000
# 4 0.0000 0.0000 0.0000 -21.1875 0.0000 0.0000
# 5 0.0000 0.0000 0.0000 0.0000 40.5662 0.0000
# 6 0.0000 0.0000 0.0000 0.0000 0.0000 2.3501
#
#
#
# Elastic Compliance Matrix: (Units=1/GPa)
#
#
# Indices 1 2 3 4 5 6 
#
# 1 0.032231 -0.005113 0.011420 0.000000 0.000000 0.000000
# 2 -0.005113 0.006152 -0.005879 0.000000 0.000000 0.000000
# 3 0.011420 -0.005879 0.035043 0.000000 0.000000 0.000000
# 4 0.000000 0.000000 0.000000 -0.047198 0.000000 0.000000
# 5 0.000000 0.000000 0.000000 0.000000 0.024651 0.000000
# 6 0.000000 0.000000 0.000000 0.000000 0.000000 0.425523
#
#
# Mechanical properties :
#
#
# Convention : Reuss Voigt Hill
#
# Bulk Modulus (GPa) = 13.46202 40.67490 27.06846
# Shear Modulus (GPa) = 9.99391 20.29994 15.14693
#
# Velocity S-wave (km/s) = 2.03988 2.90726 2.51130
# Velocity P-wave (km/s) = 3.33965 5.31086 4.43613
#
# Compressibility (1/GPa) = 0.07428303
#
# Stress axis : x y z
#
# Youngs Moduli (GPa) = 31.02592 162.55678 28.53673
#
# Poissons Ratio (x) = 0.83110 -0.32590
# Poissons Ratio (y) = 0.15863 0.16776
# Poissons Ratio (z) = -0.35433 0.95564
#
# Static dielectric constant tensor:
#      x y z
#    x 1.928730 0.000000 0.000000 
#    y 0.000000 2.008150 0.000000 
#    z 0.000000 0.000000 1.874620 
# 
# From -- ./inp_files/7270.got.cif
#   From: 2010.05.17/outbox.cif.g08.bks.cpg/sg62_4_cif.got.tgz:7270.got - 2010.06.03 15:25:27.
