data_PCOD9464750
_publ_section_title
;
Structure prediction by ZEFSAII (Michael W. Deem and Ramdas Pophale) SiO2 
 PCOD9464750
Probable space group: P N M A
;
_chemical_formula_sum "Si O2"
_cell_formula_units_Z 56
_cell_length_a 15.260247
_cell_length_b 7.837445
_cell_length_c 21.533086
_cell_angle_alpha 90.000000
_cell_angle_beta 90.000000
_cell_angle_gamma 90.000000
_cell_volume 2575.386081
_symmetry_space_group_name_H-M "P N M A"
_symmetry_group_IT_number 62
_symmetry_cell_setting 'orthorhombic'
loop_
_space_group_symop_operation_xyz
x,y,z
1/2-x,-y,1/2+z
1/2+x,1/2-y,1/2-z
-x,1/2+y,-z
-x,-y,-z
1/2+x,y,1/2-z
1/2-x,1/2+y,1/2+z
x,1/2-y,z
loop_
_atom_site_type_symbol
_atom_site_label
_atom_site_fract_x
_atom_site_fract_y
_atom_site_fract_z
Si Si1 0.494817 0.445675 0.722097
Si Si2 0.041778 0.050158 0.352168
Si Si3 0.580282 0.447879 0.956153
Si Si4 0.272015 0.556814 0.521655
Si Si5 0.690817 0.041603 0.742003
Si Si6 0.727983 0.956600 0.108960
Si Si7 0.670490 0.548030 0.344485
O O1 0.511407 0.250000 0.702413
O O2 0.445336 0.452229 0.787980
O O3 0.590387 0.521040 0.737127
O O4 0.424639 0.524752 0.674851
O O5 0.030468 0.250000 0.340838
O O6 0.128779 0.023195 0.392746
O O7 0.957817 0.976789 0.387500
O O8 0.601965 0.250000 0.965083
O O9 0.667106 0.553997 0.967887
O O10 0.500000 0.500000 0.000000
O O11 0.305083 0.750000 0.520952
O O12 0.281151 0.483473 0.451919
O O13 0.310634 0.471571 0.582898
O O14 0.687892 0.250000 0.746660
O O15 0.733684 0.995534 0.675814
O O16 0.750989 0.981058 0.799771
O O17 0.725263 0.750000 0.105850
O O18 0.665960 0.750000 0.330902
#
# Coordination Sequence:
#
# PCOD9464750 Si02
#       7
#     8   8   8   8   8   8   8
#     4  10  20  37  62  87 113 153 204 251 296 354
#     4  12  23  35  56  86 118 154 191 241 302 358
#     4  12  23  36  55  82 117 153 192 238 291 361
#     4  11  23  37  57  84 119 159 195 246 302 355
#     4   9  18  36  62  87 109 148 203 250 294 348
#     4  10  20  38  60  82 114 154 197 244 296 354
#     4  10  20  36  59  86 118 157 199 250 303 357
#
# _framework density 21.744312999999998
#
# number of rings (size 3 to 8) (size 9 to 14) (size 15 to 20)
#    0.000    1.429    2.857    3.857    0.000    2.286 
#    0.000    1.429    0.000    0.000    0.000    0.000 
#    0.000    0.000    0.000    0.000    0.000    0.000 
#
# Total GULP energy -312678.621160 kJ/mol
# GULP energy per Si atom -5583.546806 kJ/mol
# Density = 2.169482 g / cm^3
# Si number density = 21.744313 Si / 1000 Ang^3
#
#
#
# Elastic Constant Matrix: (Units=GPa)
#
#
# Indices 1 2 3 4 5 6 
#
# 1 59.9576 3.3289 4.1956 0.0000 0.0000 0.0000
# 2 3.3289 47.4246 -0.8138 0.0000 0.0000 0.0000
# 3 4.1956 -0.8138 84.5452 0.0000 0.0000 0.0000
# 4 0.0000 0.0000 0.0000 22.4003 0.0000 0.0000
# 5 0.0000 0.0000 0.0000 0.0000 34.7033 0.0000
# 6 0.0000 0.0000 0.0000 0.0000 0.0000 5.9150
#
#
#
# Elastic Compliance Matrix: (Units=1/GPa)
#
#
# Indices 1 2 3 4 5 6 
#
# 1 0.016804 -0.001194 -0.000845 0.000000 0.000000 0.000000
# 2 -0.001194 0.021174 0.000263 0.000000 0.000000 0.000000
# 3 -0.000845 0.000263 0.011872 0.000000 0.000000 0.000000
# 4 0.000000 0.000000 0.000000 0.044642 0.000000 0.000000
# 5 0.000000 0.000000 0.000000 0.000000 0.028816 0.000000
# 6 0.000000 0.000000 0.000000 0.000000 0.000000 0.169063
#
#
# Mechanical properties :
#
#
# Convention : Reuss Voigt Hill
#
# Bulk Modulus (GPa) = 21.59916 22.81653 22.20785
# Shear Modulus (GPa) = 16.05872 24.95149 20.50511
#
# Velocity S-wave (km/s) = 2.72053 3.39114 3.07418
# Velocity P-wave (km/s) = 4.45232 5.08419 4.77871
#
# Compressibility (1/GPa) = 0.04629809
#
# Stress axis : x y z
#
# Youngs Moduli (GPa) = 59.50993 47.22678 84.22842
#
# Poissons Ratio (x) = 0.05639 0.07121
# Poissons Ratio (y) = 0.07106 -0.02216
# Poissons Ratio (z) = 0.05031 -0.01242
#
# Static dielectric constant tensor:
#      x y z
#    x 1.923140 0.000000 0.000000 
#    y 0.000000 1.783780 0.000000 
#    z 0.000000 0.000000 1.875420 
# 
# From -- ./inp_files/27156.got.cif
#   From: 2010.05.17/outbox.cif.g08.bks.cpg/sg62_14_cif.got.tgz:27156.got - 2010.06.03 15:25:27.
