data_PCOD9464694
_publ_section_title
;
Structure prediction by ZEFSAII (Michael W. Deem and Ramdas Pophale) SiO2 
 PCOD9464694
Probable space group: P N M A
;
_chemical_formula_sum "Si O2"
_cell_formula_units_Z 56
_cell_length_a 17.938614
_cell_length_b 8.747150
_cell_length_c 19.937344
_cell_angle_alpha 90.000000
_cell_angle_beta 90.000000
_cell_angle_gamma 90.000000
_cell_volume 3128.403487
_symmetry_space_group_name_H-M "P N M A"
_symmetry_group_IT_number 62
_symmetry_cell_setting 'orthorhombic'
loop_
_space_group_symop_operation_xyz
x,y,z
1/2-x,-y,1/2+z
1/2+x,1/2-y,1/2-z
-x,1/2+y,-z
-x,-y,-z
1/2+x,y,1/2-z
1/2-x,1/2+y,1/2+z
x,1/2-y,z
loop_
_atom_site_type_symbol
_atom_site_label
_atom_site_fract_x
_atom_site_fract_y
_atom_site_fract_z
Si Si1 0.648763 0.065194 0.945322
Si Si2 0.025774 0.065826 0.663353
Si Si3 0.925370 0.934442 0.188465
Si Si4 0.709821 0.933113 0.612121
Si Si5 0.621119 0.433132 0.098913
Si Si6 0.808594 0.567682 0.964089
Si Si7 0.536654 0.933315 0.432468
O O1 0.656561 0.250000 0.944147
O O2 0.589292 0.017466 0.889607
O O3 0.730030 0.992521 0.935901
O O4 0.620682 0.022742 0.020059
O O5 0.024199 0.250000 0.662733
O O6 0.046896 0.016635 0.738365
O O7 0.946099 0.006963 0.638953
O O8 0.917188 0.750000 0.188290
O O9 0.985373 0.974264 0.131003
O O10 0.847259 0.008604 0.167550
O O11 0.705185 0.750000 0.604548
O O12 0.796222 0.973445 0.625187
O O13 0.688130 0.008759 0.541056
O O14 0.613687 0.250000 0.101998
O O15 0.811243 0.750000 0.963316
O O16 0.880235 0.499035 0.927076
O O17 0.539403 0.750000 0.437792
O O18 0.500000 0.000000 0.500000
#
# Coordination Sequence:
#
# PCOD9464694 Si02
#       7
#     8   8   8   8   8   8   8
#     4   9  19  37  59  83 114 147 185 234 284 331
#     4  10  21  38  58  83 113 149 189 232 283 336
#     4  10  22  38  56  81 112 148 190 230 278 338
#     4  10  20  36  58  82 111 146 183 228 283 333
#     4   9  19  35  57  85 112 144 185 230 280 335
#     4  11  21  34  56  86 113 141 186 233 280 333
#     4  11  21  35  57  82 112 146 188 234 279 331
#
# _framework density 17.900504999999999
#
# number of rings (size 3 to 8) (size 9 to 14) (size 15 to 20)
#    0.000    2.000    1.429    3.429    0.000    4.571 
#    2.571    0.000    0.000    0.000    0.000    0.000 
#    0.000    0.000    0.000    0.000    0.000    0.000 
#
# Total GULP energy -312709.153221 kJ/mol
# GULP energy per Si atom -5584.092022 kJ/mol
# Density = 1.785976 g / cm^3
# Si number density = 17.900505 Si / 1000 Ang^3
#
#
#
# Elastic Constant Matrix: (Units=GPa)
#
#
# Indices 1 2 3 4 5 6 
#
# 1 174.5741 50.7822 110.6873 0.0000 0.0000 0.0000
# 2 50.7822 40.3884 43.2878 0.0000 0.0000 0.0000
# 3 110.6873 43.2878 130.3558 0.0000 0.0000 0.0000
# 4 0.0000 0.0000 0.0000 19.9404 0.0000 0.0000
# 5 0.0000 0.0000 0.0000 0.0000 19.3429 0.0000
# 6 0.0000 0.0000 0.0000 0.0000 0.0000 35.9009
#
#
#
# Elastic Compliance Matrix: (Units=1/GPa)
#
#
# Indices 1 2 3 4 5 6 
#
# 1 0.013694 -0.007383 -0.009176 0.000000 0.000000 0.000000
# 2 -0.007383 0.042422 -0.007818 0.000000 0.000000 0.000000
# 3 -0.009176 -0.007818 0.018059 0.000000 0.000000 0.000000
# 4 0.000000 0.000000 0.000000 0.050149 0.000000 0.000000
# 5 0.000000 0.000000 0.000000 0.000000 0.051699 0.000000
# 6 0.000000 0.000000 0.000000 0.000000 0.000000 0.027854
#
#
# Mechanical properties :
#
#
# Convention : Reuss Voigt Hill
#
# Bulk Modulus (GPa) = 39.33824 83.87033 61.60428
# Shear Modulus (GPa) = 19.14933 24.40755 21.77844
#
# Velocity S-wave (km/s) = 3.27427 3.69658 3.49182
# Velocity P-wave (km/s) = 6.02646 8.07310 7.12367
#
# Compressibility (1/GPa) = 0.02542056
#
# Stress axis : x y z
#
# Youngs Moduli (GPa) = 73.02539 23.57245 55.37444
#
# Poissons Ratio (x) = 0.17404 0.50811
# Poissons Ratio (y) = 0.53917 0.43292
# Poissons Ratio (z) = 0.67007 0.18429
#
# Static dielectric constant tensor:
#      x y z
#    x 1.602790 0.000000 0.000000 
#    y 0.000000 1.603790 0.000000 
#    z 0.000000 0.000000 1.594260 
# 
# From -- ./inp_files/27240.got.cif
#   From: 2010.05.17/outbox.cif.g08.bks.cpg/sg62_14_cif.got.tgz:27240.got - 2010.06.03 15:25:27.
