data_PCOD9464933
_publ_section_title
;
Structure prediction by ZEFSAII (Michael W. Deem and Ramdas Pophale) SiO2 
 PCOD9464933
Probable space group: P N M A
;
_chemical_formula_sum "Si O2"
_cell_formula_units_Z 48
_cell_length_a 15.802829
_cell_length_b 15.078001
_cell_length_c 9.139375
_cell_angle_alpha 90.000000
_cell_angle_beta 90.000000
_cell_angle_gamma 90.000000
_cell_volume 2177.685231
_symmetry_space_group_name_H-M "P N M A"
_symmetry_group_IT_number 62
_symmetry_cell_setting 'orthorhombic'
loop_
_space_group_symop_operation_xyz
x,y,z
1/2-x,-y,1/2+z
1/2+x,1/2-y,1/2-z
-x,1/2+y,-z
-x,-y,-z
1/2+x,y,1/2-z
1/2-x,1/2+y,1/2+z
x,1/2-y,z
loop_
_atom_site_type_symbol
_atom_site_label
_atom_site_fract_x
_atom_site_fract_y
_atom_site_fract_z
Si Si1 0.244737 0.973455 0.015921
Si Si2 0.990053 0.904315 0.425305
Si Si3 0.628553 0.348840 0.165919
Si Si4 0.992821 0.355788 0.116808
Si Si5 0.135250 0.500963 0.758579
Si Si6 0.894076 0.353998 0.827809
O O1 0.186567 0.024895 0.902341
O O2 0.304643 0.913242 0.910926
O O3 0.184774 0.911090 0.115470
O O4 0.302293 0.027914 0.126947
O O5 0.071920 0.877167 0.333520
O O6 0.950926 0.845435 0.552893
O O7 0.000000 0.000000 0.500000
O O8 0.916996 0.919288 0.305449
O O9 0.663965 0.250000 0.183906
O O10 0.584864 0.380114 0.317349
O O11 0.982421 0.250000 0.143490
O O12 0.925792 0.417933 0.200214
O O13 0.969194 0.370743 0.947192
O O14 0.873552 0.250000 0.834724
#
# Coordination Sequence:
#
# PCOD9464933 Si02
#       6
#     8   8   8   8   8   8
#     4  10  23  35  60  85 123 155 192 242 300 353
#     4  11  22  37  60  85 114 151 203 242 288 351
#     4  10  20  37  60  85 117 155 195 242 291 349
#     4   9  19  37  60  85 115 157 205 245 291 349
#     4  10  22  37  55  87 118 153 196 243 290 351
#     4  10  22  40  61  86 116 154 198 245 298 355
#
# _framework density 22.041753
#
# number of rings (size 3 to 8) (size 9 to 14) (size 15 to 20)
#    0.000    2.000    1.667    1.000    4.667    4.667 
#    0.000    0.000    0.000    2.000    0.000    0.000 
#    0.000    0.000    0.000    0.000    0.000    0.000 
#
# Total GULP energy -268034.190458 kJ/mol
# GULP energy per Si atom -5584.045635 kJ/mol
# Density = 2.199158 g / cm^3
# Si number density = 22.041753 Si / 1000 Ang^3
#
#
#
# Elastic Constant Matrix: (Units=GPa)
#
#
# Indices 1 2 3 4 5 6 
#
# 1 45.9985 -2.7963 21.8240 0.0000 0.0000 0.0000
# 2 -2.7963 26.9919 17.5835 0.0000 0.0000 0.0000
# 3 21.8240 17.5835 75.0563 0.0000 0.0000 0.0000
# 4 0.0000 0.0000 0.0000 27.1423 0.0000 0.0000
# 5 0.0000 0.0000 0.0000 0.0000 55.5289 0.0000
# 6 0.0000 0.0000 0.0000 0.0000 0.0000 11.9071
#
#
#
# Elastic Compliance Matrix: (Units=1/GPa)
#
#
# Indices 1 2 3 4 5 6 
#
# 1 0.027087 0.009366 -0.010070 0.000000 0.000000 0.000000
# 2 0.009366 0.046959 -0.013725 0.000000 0.000000 0.000000
# 3 -0.010070 -0.013725 0.019467 0.000000 0.000000 0.000000
# 4 0.000000 0.000000 0.000000 0.036843 0.000000 0.000000
# 5 0.000000 0.000000 0.000000 0.000000 0.018009 0.000000
# 6 0.000000 0.000000 0.000000 0.000000 0.000000 0.083984
#
#
# Mechanical properties :
#
#
# Convention : Reuss Voigt Hill
#
# Bulk Modulus (GPa) = 15.46649 24.58544 20.02596
# Shear Modulus (GPa) = 17.68301 26.34469 22.01385
#
# Velocity S-wave (km/s) = 2.83548 3.46094 3.16370
# Velocity P-wave (km/s) = 4.21332 5.21048 4.73820
#
# Compressibility (1/GPa) = 0.06465590
#
# Stress axis : x y z
#
# Youngs Moduli (GPa) = 36.91792 21.29507 51.36969
#
# Poissons Ratio (x) = -0.19946 0.51731
# Poissons Ratio (y) = -0.34579 0.70503
# Poissons Ratio (z) = 0.37178 0.29227
#
# Static dielectric constant tensor:
#      x y z
#    x 1.877300 0.000000 0.000000 
#    y 0.000000 1.798410 0.000000 
#    z 0.000000 0.000000 1.851270 
# 
# From -- ./inp_files/6425.got.cif
#   From: 2010.05.17/outbox.cif.g08.bks.cpg/sg62_4_cif.got.tgz:6425.got - 2010.06.03 15:25:27.
