data_PCOD9464060
_publ_section_title
;
Structure prediction by ZEFSAII (Michael W. Deem and Ramdas Pophale) SiO2 
 PCOD9464060
Probable space group: P N M A
;
_chemical_formula_sum "Si O2"
_cell_formula_units_Z 48
_cell_length_a 29.431270
_cell_length_b 7.291976
_cell_length_c 8.346991
_cell_angle_alpha 90.000000
_cell_angle_beta 90.000000
_cell_angle_gamma 90.000000
_cell_volume 1791.365388
_symmetry_space_group_name_H-M "P N M A"
_symmetry_group_IT_number 62
_symmetry_cell_setting 'orthorhombic'
loop_
_space_group_symop_operation_xyz
x,y,z
1/2-x,-y,1/2+z
1/2+x,1/2-y,1/2-z
-x,1/2+y,-z
-x,-y,-z
1/2+x,y,1/2-z
1/2-x,1/2+y,1/2+z
x,1/2-y,z
loop_
_atom_site_type_symbol
_atom_site_label
_atom_site_fract_x
_atom_site_fract_y
_atom_site_fract_z
Si Si1 0.985797 0.528557 0.246184
Si Si2 0.099555 0.026006 0.581805
Si Si3 0.850013 0.526571 0.736878
Si Si4 0.180704 0.040676 0.784785
Si Si5 0.263447 0.971541 0.587352
Si Si6 0.429867 0.960166 0.560275
O O1 0.988496 0.750000 0.246317
O O2 0.952665 0.470678 0.390125
O O3 0.036685 0.462516 0.215055
O O4 0.958100 0.462046 0.087609
O O5 0.099931 0.250000 0.581616
O O6 0.124936 0.963632 0.422621
O O7 0.132337 0.966254 0.728246
O O8 0.850883 0.750000 0.735631
O O9 0.798477 0.473429 0.770967
O O10 0.881843 0.464479 0.884339
O O11 0.172151 0.250000 0.834463
O O12 0.213698 0.041393 0.629754
O O13 0.211515 0.961198 0.926627
O O14 0.260108 0.750000 0.582095
O O15 0.422166 0.750000 0.514756
#
# Coordination Sequence:
#
# PCOD9464060 Si02
#       6
#     8   8   8   8   8   8
#     4   9  17  30  48  69  93 122 157 196 238 285
#     4   9  17  30  49  71  95 126 163 199 237 286
#     4   9  17  30  49  71  95 126 163 199 237 286
#     4  10  20  34  53  76 101 130 165 204 246 293
#     4  10  20  34  53  76 101 130 165 204 246 293
#     4   9  17  30  48  69  93 122 157 196 238 285
#
# _framework density 26.795203999999998
#
# number of rings (size 3 to 8) (size 9 to 14) (size 15 to 20)
#    0.000    2.667    0.000    2.000    0.000    6.667 
#    0.000    1.667    0.000    6.000    0.000    0.000 
#    0.000    0.000    0.000    0.000    0.000    0.000 
#
# Total GULP energy -268477.849604 kJ/mol
# GULP energy per Si atom -5593.288533 kJ/mol
# Density = 2.673422 g / cm^3
# Si number density = 26.795204 Si / 1000 Ang^3
#
#
#
# Elastic Constant Matrix: (Units=GPa)
#
#
# Indices 1 2 3 4 5 6 
#
# 1 139.9160 -6.2281 -9.5701 0.0000 0.0000 0.0000
# 2 -6.2281 122.7646 -7.3466 0.0000 0.0000 0.0000
# 3 -9.5701 -7.3466 63.9083 0.0000 0.0000 0.0000
# 4 0.0000 0.0000 0.0000 18.9562 0.0000 0.0000
# 5 0.0000 0.0000 0.0000 0.0000 51.7963 0.0000
# 6 0.0000 0.0000 0.0000 0.0000 0.0000 4.6847
#
#
#
# Elastic Compliance Matrix: (Units=1/GPa)
#
#
# Indices 1 2 3 4 5 6 
#
# 1 0.007244 0.000435 0.001135 0.000000 0.000000 0.000000
# 2 0.000435 0.008228 0.001011 0.000000 0.000000 0.000000
# 3 0.001135 0.001011 0.015934 0.000000 0.000000 0.000000
# 4 0.000000 0.000000 0.000000 0.052753 0.000000 0.000000
# 5 0.000000 0.000000 0.000000 0.000000 0.019306 0.000000
# 6 0.000000 0.000000 0.000000 0.000000 0.000000 0.213463
#
#
# Mechanical properties :
#
#
# Convention : Reuss Voigt Hill
#
# Bulk Modulus (GPa) = 27.34577 31.14436 29.24507
# Shear Modulus (GPa) = 15.43424 38.40301 26.91862
#
# Velocity S-wave (km/s) = 2.40262 3.78988 3.17299
# Velocity P-wave (km/s) = 4.23372 5.54970 4.93577
#
# Compressibility (1/GPa) = 0.03656872
#
# Stress axis : x y z
#
# Youngs Moduli (GPa) = 138.04246 121.53225 62.76051
#
# Poissons Ratio (x) = -0.05292 -0.07122
# Poissons Ratio (y) = -0.06011 -0.06346
# Poissons Ratio (z) = -0.15666 -0.12288
#
# Static dielectric constant tensor:
#      x y z
#    x 2.000980 0.000000 0.000000 
#    y 0.000000 2.026090 0.000000 
#    z 0.000000 0.000000 2.174990 
# 
# From -- ./inp_files/9769.got.cif
#   From: 2010.05.17/outbox.cif.g08.bks.cpg/sg62_5_cif.got.tgz:9769.got - 2010.06.03 15:25:27.
