data_PCOD9464184
_publ_section_title
;
Structure prediction by ZEFSAII (Michael W. Deem and Ramdas Pophale) SiO2 
 PCOD9464184
Probable space group: P N M A
;
_chemical_formula_sum "Si O2"
_cell_formula_units_Z 48
_cell_length_a 10.385291
_cell_length_b 13.405705
_cell_length_c 19.121564
_cell_angle_alpha 90.000000
_cell_angle_beta 90.000000
_cell_angle_gamma 90.000000
_cell_volume 2662.145203
_symmetry_space_group_name_H-M "P N M A"
_symmetry_group_IT_number 62
_symmetry_cell_setting 'orthorhombic'
loop_
_space_group_symop_operation_xyz
x,y,z
1/2-x,-y,1/2+z
1/2+x,1/2-y,1/2-z
-x,1/2+y,-z
-x,-y,-z
1/2+x,y,1/2-z
1/2-x,1/2+y,1/2+z
x,1/2-y,z
loop_
_atom_site_type_symbol
_atom_site_label
_atom_site_fract_x
_atom_site_fract_y
_atom_site_fract_z
Si Si1 0.670382 0.951220 0.345697
Si Si2 0.026948 0.639562 0.552891
Si Si3 0.042514 0.424726 0.601626
Si Si4 0.586151 0.368424 0.589140
Si Si5 0.310899 0.365744 0.805666
Si Si6 0.664989 0.363551 0.438251
O O1 0.552562 0.890022 0.378712
O O2 0.676240 0.931984 0.263339
O O3 0.809951 0.919906 0.374977
O O4 0.646236 0.063682 0.372873
O O5 0.987638 0.750000 0.578101
O O6 0.970920 0.619091 0.476108
O O7 0.182079 0.639761 0.546484
O O8 0.998914 0.541425 0.598441
O O9 0.944802 0.369694 0.652666
O O10 0.606621 0.250000 0.583129
O O11 0.698084 0.402943 0.642267
O O12 0.602765 0.405718 0.509662
O O13 0.283330 0.250000 0.785965
O O14 0.621159 0.250000 0.425136
#
# Coordination Sequence:
#
# PCOD9464184 Si02
#       6
#     8   8   8   8   8   8
#     4  11  22  33  53  84 109 136 177 227 262 309
#     4   9  17  33  57  81 104 136 179 222 262 308
#     4  10  20  34  56  81 105 138 179 220 260 312
#     4  10  20  35  55  78 109 143 174 215 271 324
#     4  11  22  37  55  77 111 146 172 211 276 332
#     4   9  18  36  57  76 103 147 183 211 261 323
#
# _framework density 18.030571999999999
#
# number of rings (size 3 to 8) (size 9 to 14) (size 15 to 20)
#    0.000    2.000    1.667    2.500    0.000    4.000 
#    0.000    0.833    0.000    3.000    0.000    0.000 
#    0.000    0.000    0.000    0.000    0.000    0.000 
#
# Total GULP energy -267649.353395 kJ/mol
# GULP energy per Si atom -5576.028196 kJ/mol
# Density = 1.798953 g / cm^3
# Si number density = 18.030572 Si / 1000 Ang^3
#
#
#
# Elastic Constant Matrix: (Units=GPa)
#
#
# Indices 1 2 3 4 5 6 
#
# 1 55.1131 17.0140 35.7173 0.0000 0.0000 0.0000
# 2 17.0140 62.0944 39.4041 0.0000 0.0000 0.0000
# 3 35.7173 39.4041 93.5611 0.0000 0.0000 0.0000
# 4 0.0000 0.0000 0.0000 20.2612 0.0000 0.0000
# 5 0.0000 0.0000 0.0000 0.0000 8.4432 0.0000
# 6 0.0000 0.0000 0.0000 0.0000 0.0000 20.6252
#
#
#
# Elastic Compliance Matrix: (Units=1/GPa)
#
#
# Indices 1 2 3 4 5 6 
#
# 1 0.024159 -0.001047 -0.008782 0.000000 0.000000 0.000000
# 2 -0.001047 0.022024 -0.008876 0.000000 0.000000 0.000000
# 3 -0.008782 -0.008876 0.017779 0.000000 0.000000 0.000000
# 4 0.000000 0.000000 0.000000 0.049356 0.000000 0.000000
# 5 0.000000 0.000000 0.000000 0.000000 0.118438 0.000000
# 6 0.000000 0.000000 0.000000 0.000000 0.000000 0.048484
#
#
# Mechanical properties :
#
#
# Convention : Reuss Voigt Hill
#
# Bulk Modulus (GPa) = 37.66123 43.89328 40.77725
# Shear Modulus (GPa) = 15.31396 17.77480 16.54438
#
# Velocity S-wave (km/s) = 2.91749 3.14317 3.03243
# Velocity P-wave (km/s) = 5.68171 6.12939 5.90979
#
# Compressibility (1/GPa) = 0.02655251
#
# Stress axis : x y z
#
# Youngs Moduli (GPa) = 41.39249 45.40537 56.24633
#
# Poissons Ratio (x) = 0.04753 0.49395
# Poissons Ratio (y) = 0.04333 0.49924
# Poissons Ratio (z) = 0.36351 0.40302
#
# Static dielectric constant tensor:
#      x y z
#    x 1.591380 0.000000 0.000000 
#    y 0.000000 1.663070 0.000000 
#    z 0.000000 0.000000 1.605570 
# 
# From -- ./inp_files/22230.got.cif
#   From: 2010.05.17/outbox.cif.g08.bks.cpg/sg62_12_cif.got.tgz:22230.got - 2010.06.03 15:25:27.
