data_PCOD9464297
_publ_section_title
;
Structure prediction by ZEFSAII (Michael W. Deem and Ramdas Pophale) SiO2 
 PCOD9464297
Probable space group: P N M A
;
_chemical_formula_sum "Si O2"
_cell_formula_units_Z 64
_cell_length_a 26.693048
_cell_length_b 8.519466
_cell_length_c 15.187457
_cell_angle_alpha 90.000000
_cell_angle_beta 90.000000
_cell_angle_gamma 90.000000
_cell_volume 3453.787416
_symmetry_space_group_name_H-M "P N M A"
_symmetry_group_IT_number 62
_symmetry_cell_setting 'orthorhombic'
loop_
_space_group_symop_operation_xyz
x,y,z
1/2-x,-y,1/2+z
1/2+x,1/2-y,1/2-z
-x,1/2+y,-z
-x,-y,-z
1/2+x,y,1/2-z
1/2-x,1/2+y,1/2+z
x,1/2-y,z
loop_
_atom_site_type_symbol
_atom_site_label
_atom_site_fract_x
_atom_site_fract_y
_atom_site_fract_z
Si Si1 0.672286 0.941551 0.008885
Si Si2 0.444516 0.437660 0.487550
Si Si3 0.999227 0.438578 0.399639
Si Si4 0.389617 0.439382 0.162415
Si Si5 0.867240 0.562483 0.147562
Si Si6 0.863418 0.439078 0.866013
Si Si7 0.713056 0.439487 0.502822
Si Si8 0.103572 0.940259 0.327474
O O1 0.672603 0.750000 0.009209
O O2 0.640564 0.990610 0.093998
O O3 0.643552 0.991680 0.920694
O O4 0.729817 0.994181 0.010069
O O5 0.500000 0.500000 0.500000
O O6 0.444888 0.250000 0.481246
O O7 0.417394 0.506755 0.401948
O O8 0.409768 0.483130 0.570584
O O9 0.999798 0.250000 0.402118
O O10 0.048095 0.498709 0.348639
O O11 0.000000 0.500000 0.500000
O O12 0.947151 0.489625 0.354028
O O13 0.389344 0.250000 0.163688
O O14 0.367721 0.498970 0.254008
O O15 0.865937 0.750000 0.149594
O O16 0.821295 0.507169 0.085288
O O17 0.859600 0.250000 0.865626
O O18 0.814320 0.505530 0.913807
O O19 0.875112 0.491597 0.767054
O O20 0.713034 0.250000 0.503498
O O21 0.101548 0.750000 0.327425
#
# Coordination Sequence:
#
# PCOD9464297 Si02
#       8
#     8   8   8   8   8   8   8   8
#     4   9  18  36  59  80 108 147 186 222 276 336
#     4  10  20  35  53  79 111 146 186 229 279 333
#     4  11  22  37  57  82 112 148 186 228 277 330
#     4  10  21  37  56  81 111 149 186 221 275 335
#     4  10  21  36  55  82 111 144 186 233 279 325
#     4   9  20  36  56  81 110 143 181 227 278 327
#     4   9  19  37  59  80 108 146 185 228 275 328
#     4  10  20  37  58  82 112 148 184 225 277 333
#
# _framework density 18.530381999999999
#
# number of rings (size 3 to 8) (size 9 to 14) (size 15 to 20)
#    0.000    2.250    1.250    1.125    1.750    3.500 
#    0.000    2.500    0.000    0.000    0.000    0.000 
#    0.000    0.000    0.000    0.000    0.000    0.000 
#
# Total GULP energy -357257.970986 kJ/mol
# GULP energy per Si atom -5582.155797 kJ/mol
# Density = 1.848821 g / cm^3
# Si number density = 18.530382 Si / 1000 Ang^3
#
#
#
# Elastic Constant Matrix: (Units=GPa)
#
#
# Indices 1 2 3 4 5 6 
#
# 1 155.1927 20.3762 67.5367 0.0000 0.0000 0.0000
# 2 20.3762 12.8678 22.4021 0.0000 0.0000 0.0000
# 3 67.5367 22.4021 159.4014 0.0000 0.0000 0.0000
# 4 0.0000 0.0000 0.0000 25.7927 0.0000 0.0000
# 5 0.0000 0.0000 0.0000 0.0000 6.4382 0.0000
# 6 0.0000 0.0000 0.0000 0.0000 0.0000 22.9336
#
#
#
# Elastic Compliance Matrix: (Units=1/GPa)
#
#
# Indices 1 2 3 4 5 6 
#
# 1 0.008742 -0.009790 -0.002328 0.000000 0.000000 0.000000
# 2 -0.009790 0.113851 -0.011852 0.000000 0.000000 0.000000
# 3 -0.002328 -0.011852 0.008926 0.000000 0.000000 0.000000
# 4 0.000000 0.000000 0.000000 0.038771 0.000000 0.000000
# 5 0.000000 0.000000 0.000000 0.000000 0.155322 0.000000
# 6 0.000000 0.000000 0.000000 0.000000 0.000000 0.043604
#
#
# Mechanical properties :
#
#
# Convention : Reuss Voigt Hill
#
# Bulk Modulus (GPa) = 11.96499 60.89913 36.43206
# Shear Modulus (GPa) = 11.23554 25.50936 18.37245
#
# Velocity S-wave (km/s) = 2.46505 3.71431 3.15219
# Velocity P-wave (km/s) = 3.81745 7.16454 5.74037
#
# Compressibility (1/GPa) = 0.08357715
#
# Stress axis : x y z
#
# Youngs Moduli (GPa) = 114.38840 8.78341 112.03764
#
# Poissons Ratio (x) = 0.08599 0.26083
# Poissons Ratio (y) = 1.11989 1.32792
# Poissons Ratio (z) = 0.26630 0.10411
#
# Static dielectric constant tensor:
#      x y z
#    x 1.623120 0.000000 0.000000 
#    y 0.000000 1.636010 0.000000 
#    z 0.000000 0.000000 1.621740 
# 
# From -- ./inp_files/20934.got.cif
#   From: 2010.05.17/outbox.cif.g08.bks.cpg/sg62_11_cif.got.tgz:20934.got - 2010.06.03 15:25:27.
