data_PCOD9464444
_publ_section_title
;
Structure prediction by ZEFSAII (Michael W. Deem and Ramdas Pophale) SiO2 
 PCOD9464444
Probable space group: P N M A
;
_chemical_formula_sum "Si O2"
_cell_formula_units_Z 52
_cell_length_a 16.859750
_cell_length_b 16.700834
_cell_length_c 7.894426
_cell_angle_alpha 90.000000
_cell_angle_beta 90.000000
_cell_angle_gamma 90.000000
_cell_volume 2222.848418
_symmetry_space_group_name_H-M "P N M A"
_symmetry_group_IT_number 62
_symmetry_cell_setting 'orthorhombic'
loop_
_space_group_symop_operation_xyz
x,y,z
1/2-x,-y,1/2+z
1/2+x,1/2-y,1/2-z
-x,1/2+y,-z
-x,-y,-z
1/2+x,y,1/2-z
1/2-x,1/2+y,1/2+z
x,1/2-y,z
loop_
_atom_site_type_symbol
_atom_site_label
_atom_site_fract_x
_atom_site_fract_y
_atom_site_fract_z
Si Si1 0.023042 0.409974 0.437367
Si Si2 0.833007 0.962914 0.733644
Si Si3 0.607359 0.387218 0.725934
Si Si4 0.446714 0.158874 0.570116
Si Si5 0.673229 0.954475 0.596996
Si Si6 0.135032 0.630212 0.432251
Si Si7 0.274794 0.750000 0.418077
O O1 0.082884 0.417415 0.280271
O O2 0.076269 0.370993 0.585276
O O3 0.000000 0.500000 0.500000
O O4 0.938709 0.366164 0.438891
O O5 0.755594 0.918406 0.663753
O O6 0.818769 0.999079 0.917954
O O7 0.841344 0.039110 0.608667
O O8 0.528015 0.386543 0.612028
O O9 0.645430 0.475165 0.721573
O O10 0.666466 0.320529 0.658027
O O11 0.463415 0.250000 0.520665
O O12 0.392970 0.111386 0.438601
O O13 0.398229 0.159703 0.748697
O O14 0.210756 0.680960 0.478499
#
# Coordination Sequence:
#
# PCOD9464444 Si02
#       7
#     8   8   8   8   8   8   4
#     4   9  20  37  59  89 123 155 204 259 327 379
#     4  10  20  36  59  92 119 161 208 262 311 386
#     4  11  22  38  63  92 118 168 210 267 317 382
#     4  10  20  35  56  87 122 152 202 261 309 373
#     4  11  22  37  64  92 123 166 214 260 321 378
#     4   9  19  34  56  88 119 152 199 266 308 364
#     4  12  20  34  64  94 122 158 224 268 312 368
#
# _framework density 23.393408999999998
#
# number of rings (size 3 to 8) (size 9 to 14) (size 15 to 20)
#    0.000    1.846    3.077    2.308    2.154    0.000 
#    0.000    0.000    3.385    0.000    2.000    0.000 
#    0.000    0.000    0.000    0.000    0.000    0.000 
#
# Total GULP energy -289731.874012 kJ/mol
# GULP energy per Si atom -5571.766808 kJ/mol
# Density = 2.334016 g / cm^3
# Si number density = 23.393409 Si / 1000 Ang^3
#
#
#
# Elastic Constant Matrix: (Units=GPa)
#
#
# Indices 1 2 3 4 5 6 
#
# 1 114.5629 14.8518 34.3582 0.0000 0.0000 0.0000
# 2 14.8518 49.6224 -6.4015 0.0000 0.0000 0.0000
# 3 34.3582 -6.4015 89.2479 0.0000 0.0000 0.0000
# 4 0.0000 0.0000 0.0000 2.7598 0.0000 0.0000
# 5 0.0000 0.0000 0.0000 0.0000 16.6247 0.0000
# 6 0.0000 0.0000 0.0000 0.0000 0.0000 36.3775
#
#
#
# Elastic Compliance Matrix: (Units=1/GPa)
#
#
# Indices 1 2 3 4 5 6 
#
# 1 0.010500 -0.003698 -0.004308 0.000000 0.000000 0.000000
# 2 -0.003698 0.021643 0.002976 0.000000 0.000000 0.000000
# 3 -0.004308 0.002976 0.013077 0.000000 0.000000 0.000000
# 4 0.000000 0.000000 0.000000 0.362351 0.000000 0.000000
# 5 0.000000 0.000000 0.000000 0.000000 0.060151 0.000000
# 6 0.000000 0.000000 0.000000 0.000000 0.000000 0.027490
#
#
# Mechanical properties :
#
#
# Convention : Reuss Voigt Hill
#
# Bulk Modulus (GPa) = 28.44125 37.67224 33.05675
# Shear Modulus (GPa) = 9.67134 25.19404 17.43269
#
# Velocity S-wave (km/s) = 2.03548 3.28528 2.73279
# Velocity P-wave (km/s) = 4.20814 5.52535 4.91111
#
# Compressibility (1/GPa) = 0.03516019
#
# Stress axis : x y z
#
# Youngs Moduli (GPa) = 95.23672 46.20426 76.47291
#
# Poissons Ratio (x) = 0.17088 0.32941
# Poissons Ratio (y) = 0.35222 -0.22760
# Poissons Ratio (z) = 0.41024 -0.13751
#
# Static dielectric constant tensor:
#      x y z
#    x 1.911400 0.000000 0.000000 
#    y 0.000000 1.927810 0.000000 
#    z 0.000000 0.000000 1.935900 
# 
# From -- ./inp_files/6680.got.cif
#   From: 2010.05.17/outbox.cif.g08.bks.cpg/sg62_4_cif.got.tgz:6680.got - 2010.06.03 15:25:27.
