data_PCOD9464365
_publ_section_title
;
Structure prediction by ZEFSAII (Michael W. Deem and Ramdas Pophale) SiO2 
 PCOD9464365
Probable space group: P N M A
;
_chemical_formula_sum "Si O2"
_cell_formula_units_Z 64
_cell_length_a 25.165326
_cell_length_b 7.743126
_cell_length_c 14.642768
_cell_angle_alpha 90.000000
_cell_angle_beta 90.000000
_cell_angle_gamma 90.000000
_cell_volume 2853.264734
_symmetry_space_group_name_H-M "P N M A"
_symmetry_group_IT_number 62
_symmetry_cell_setting 'orthorhombic'
loop_
_space_group_symop_operation_xyz
x,y,z
1/2-x,-y,1/2+z
1/2+x,1/2-y,1/2-z
-x,1/2+y,-z
-x,-y,-z
1/2+x,y,1/2-z
1/2-x,1/2+y,1/2+z
x,1/2-y,z
loop_
_atom_site_type_symbol
_atom_site_label
_atom_site_fract_x
_atom_site_fract_y
_atom_site_fract_z
Si Si1 0.443796 0.454050 0.875289
Si Si2 0.668572 0.041938 0.432889
Si Si3 0.600521 0.544447 0.941722
Si Si4 0.784844 0.953324 0.413110
Si Si5 0.164762 0.039936 0.277188
Si Si6 0.887375 0.549279 0.105475
Si Si7 0.718536 0.550490 0.703630
Si Si8 0.042326 0.047844 0.735896
O O1 0.455161 0.250000 0.884859
O O2 0.386504 0.475730 0.829603
O O3 0.489409 0.529444 0.810051
O O4 0.437173 0.525038 0.977738
O O5 0.665190 0.250000 0.432447
O O6 0.661034 0.983208 0.328817
O O7 0.626534 0.973319 0.506475
O O8 0.728968 0.996090 0.460001
O O9 0.593894 0.750000 0.933906
O O10 0.661768 0.506815 0.964376
O O11 0.585718 0.464293 0.844694
O O12 0.786782 0.750000 0.396995
O O13 0.785447 0.043895 0.313966
O O14 0.165307 0.250000 0.279097
O O15 0.222067 0.982735 0.315652
O O16 0.901487 0.750000 0.091591
O O17 0.831398 0.543370 0.159706
O O18 0.931964 0.471186 0.172295
O O19 0.715209 0.750000 0.674328
O O20 0.031825 0.250000 0.754449
#
# Coordination Sequence:
#
# PCOD9464365 Si02
#       8
#     8   8   8   8   8   8   8   8
#     4  10  23  39  57  81 113 151 194 239 287 339
#     4   9  20  38  57  82 116 151 187 235 288 343
#     4  11  22  36  55  82 114 152 187 232 288 341
#     4  11  21  34  54  82 114 150 187 228 281 340
#     4   9  20  38  57  79 112 150 189 236 285 334
#     4  10  20  35  59  85 113 150 189 232 290 344
#     4  10  20  35  55  82 116 148 185 234 284 338
#     4  10  21  39  59  84 114 148 192 239 283 339
#
# _framework density 22.430444999999999
#
# number of rings (size 3 to 8) (size 9 to 14) (size 15 to 20)
#    0.000    2.000    1.250    3.000    1.750    4.500 
#    0.000    0.625    0.000    0.000    0.000    0.000 
#    0.000    0.000    0.000    0.000    0.000    0.000 
#
# Total GULP energy -357513.837224 kJ/mol
# GULP energy per Si atom -5586.153707 kJ/mol
# Density = 2.237939 g / cm^3
# Si number density = 22.430445 Si / 1000 Ang^3
#
#
#
# Elastic Constant Matrix: (Units=GPa)
#
#
# Indices 1 2 3 4 5 6 
#
# 1 43.5535 -12.1222 -9.9593 0.0000 0.0000 0.0000
# 2 -12.1222 45.5976 -7.7939 0.0000 0.0000 0.0000
# 3 -9.9593 -7.7939 37.7482 0.0000 0.0000 0.0000
# 4 0.0000 0.0000 0.0000 12.3861 0.0000 0.0000
# 5 0.0000 0.0000 0.0000 0.0000 34.1244 0.0000
# 6 0.0000 0.0000 0.0000 0.0000 0.0000 7.5747
#
#
#
# Elastic Compliance Matrix: (Units=1/GPa)
#
#
# Indices 1 2 3 4 5 6 
#
# 1 0.027506 0.008866 0.009088 0.000000 0.000000 0.000000
# 2 0.008866 0.025591 0.007623 0.000000 0.000000 0.000000
# 3 0.009088 0.007623 0.030463 0.000000 0.000000 0.000000
# 4 0.000000 0.000000 0.000000 0.080735 0.000000 0.000000
# 5 0.000000 0.000000 0.000000 0.000000 0.029305 0.000000
# 6 0.000000 0.000000 0.000000 0.000000 0.000000 0.132019
#
#
# Mechanical properties :
#
#
# Convention : Reuss Voigt Hill
#
# Bulk Modulus (GPa) = 7.42323 7.46094 7.44208
# Shear Modulus (GPa) = 15.65581 21.26869 18.46225
#
# Velocity S-wave (km/s) = 2.64478 3.08264 2.87206
# Velocity P-wave (km/s) = 3.55572 4.00046 3.78463
#
# Compressibility (1/GPa) = 0.13471233
#
# Stress axis : x y z
#
# Youngs Moduli (GPa) = 36.35577 39.07635 32.82685
#
# Poissons Ratio (x) = -0.34644 -0.29832
# Poissons Ratio (y) = -0.32232 -0.25024
# Poissons Ratio (z) = -0.33039 -0.29787
#
# Static dielectric constant tensor:
#      x y z
#    x 1.838480 0.000000 0.000000 
#    y 0.000000 1.815110 0.000000 
#    z 0.000000 0.000000 1.858100 
# 
# From -- ./inp_files/20905.got.cif
#   From: 2010.05.17/outbox.cif.g08.bks.cpg/sg62_11_cif.got.tgz:20905.got - 2010.06.03 15:25:27.
