data_PCOD9464678
_publ_section_title
;
Structure prediction by ZEFSAII (Michael W. Deem and Ramdas Pophale) SiO2 
 PCOD9464678
Probable space group: P N M A
;
_chemical_formula_sum "Si O2"
_cell_formula_units_Z 56
_cell_length_a 12.028395
_cell_length_b 15.379022
_cell_length_c 13.964189
_cell_angle_alpha 90.000000
_cell_angle_beta 90.000000
_cell_angle_gamma 90.000000
_cell_volume 2583.164823
_symmetry_space_group_name_H-M "P N M A"
_symmetry_group_IT_number 62
_symmetry_cell_setting 'orthorhombic'
loop_
_space_group_symop_operation_xyz
x,y,z
1/2-x,-y,1/2+z
1/2+x,1/2-y,1/2-z
-x,1/2+y,-z
-x,-y,-z
1/2+x,y,1/2-z
1/2-x,1/2+y,1/2+z
x,1/2-y,z
loop_
_atom_site_type_symbol
_atom_site_label
_atom_site_fract_x
_atom_site_fract_y
_atom_site_fract_z
Si Si1 0.227476 0.351883 0.867974
Si Si2 0.735792 0.431748 0.317062
Si Si3 0.415707 0.009533 0.847140
Si Si4 0.128069 0.156017 0.453234
Si Si5 0.078373 0.351537 0.037194
Si Si6 0.354767 0.599273 0.160326
Si Si7 0.133638 0.648609 0.850115
O O1 0.253086 0.250000 0.889352
O O2 0.327924 0.418930 0.885665
O O3 0.195358 0.359815 0.756250
O O4 0.124348 0.381756 0.934688
O O5 0.641229 0.463170 0.243400
O O6 0.680480 0.364930 0.389478
O O7 0.778308 0.517556 0.369375
O O8 0.835006 0.396738 0.249770
O O9 0.524601 0.060799 0.817949
O O10 0.437234 0.929856 0.919964
O O11 0.085130 0.250000 0.417543
O O12 0.134495 0.157223 0.567135
O O13 0.252808 0.145530 0.411556
O O14 0.053417 0.250000 0.023680
O O15 0.968330 0.389302 0.088008
O O16 0.109291 0.750000 0.829473
#
# Coordination Sequence:
#
# PCOD9464678 Si02
#       7
#     8   8   8   8   8   8   8
#     4  10  23  40  59  88 123 160 204 248 298 368
#     4  10  20  36  57  85 115 150 196 249 300 362
#     4  10  22  40  60  86 120 157 201 255 309 360
#     4  10  21  38  60  86 118 156 203 257 305 358
#     4  10  20  36  59  86 119 157 195 245 305 361
#     4  11  22  38  58  84 119 162 206 250 302 359
#     4   9  19  36  58  85 115 150 196 248 305 362
#
# _framework density 21.678833999999998
#
# number of rings (size 3 to 8) (size 9 to 14) (size 15 to 20)
#    0.000    2.000    0.000    3.000    0.000    4.000 
#    0.000   12.143    0.000    0.857    0.000    0.000 
#    0.000    0.000    0.000    0.000    0.000    0.000 
#
# Total GULP energy -312604.861197 kJ/mol
# GULP energy per Si atom -5582.229664 kJ/mol
# Density = 2.162949 g / cm^3
# Si number density = 21.678834 Si / 1000 Ang^3
#
#
#
# Elastic Constant Matrix: (Units=GPa)
#
#
# Indices 1 2 3 4 5 6 
#
# 1 24.7789 6.8532 -6.1892 0.0000 0.0000 0.0000
# 2 6.8532 82.2319 16.5075 0.0000 0.0000 0.0000
# 3 -6.1892 16.5075 38.5614 0.0000 0.0000 0.0000
# 4 0.0000 0.0000 0.0000 16.4671 0.0000 0.0000
# 5 0.0000 0.0000 0.0000 0.0000 18.7992 0.0000
# 6 0.0000 0.0000 0.0000 0.0000 0.0000 20.0248
#
#
#
# Elastic Compliance Matrix: (Units=1/GPa)
#
#
# Indices 1 2 3 4 5 6 
#
# 1 0.044279 -0.005598 0.009503 0.000000 0.000000 0.000000
# 2 -0.005598 0.014012 -0.006897 0.000000 0.000000 0.000000
# 3 0.009503 -0.006897 0.030410 0.000000 0.000000 0.000000
# 4 0.000000 0.000000 0.000000 0.060727 0.000000 0.000000
# 5 0.000000 0.000000 0.000000 0.000000 0.053194 0.000000
# 6 0.000000 0.000000 0.000000 0.000000 0.000000 0.049938
#
#
# Mechanical properties :
#
#
# Convention : Reuss Voigt Hill
#
# Bulk Modulus (GPa) = 12.08924 19.99057 16.03990
# Shear Modulus (GPa) = 17.47547 19.61826 18.54687
#
# Velocity S-wave (km/s) = 2.84228 3.01150 2.92812
# Velocity P-wave (km/s) = 4.04476 4.61882 4.34128
#
# Compressibility (1/GPa) = 0.08271821
#
# Stress axis : x y z
#
# Youngs Moduli (GPa) = 22.58417 71.36890 32.88363
#
# Poissons Ratio (x) = 0.39952 -0.31250
# Poissons Ratio (y) = 0.12642 0.22679
# Poissons Ratio (z) = -0.21462 0.49221
#
# Static dielectric constant tensor:
#      x y z
#    x 1.789470 0.000000 0.000000 
#    y 0.000000 1.804820 0.000000 
#    z 0.000000 0.000000 1.793130 
# 
# From -- ./inp_files/18094.got.cif
#   From: 2010.05.17/outbox.cif.g08.bks.cpg/sg62_10_cif.got.tgz:18094.got - 2010.06.03 15:25:27.
