data_PCOD9464008
_publ_section_title
;
Structure prediction by ZEFSAII (Michael W. Deem and Ramdas Pophale) SiO2 
 PCOD9464008
Probable space group: P N M A
;
_chemical_formula_sum "Si O2"
_cell_formula_units_Z 60
_cell_length_a 16.140833
_cell_length_b 9.558977
_cell_length_c 17.290697
_cell_angle_alpha 90.000000
_cell_angle_beta 90.000000
_cell_angle_gamma 90.000000
_cell_volume 2667.779071
_symmetry_space_group_name_H-M "P N M A"
_symmetry_group_IT_number 62
_symmetry_cell_setting 'orthorhombic'
loop_
_space_group_symop_operation_xyz
x,y,z
1/2-x,-y,1/2+z
1/2+x,1/2-y,1/2-z
-x,1/2+y,-z
-x,-y,-z
1/2+x,y,1/2-z
1/2-x,1/2+y,1/2+z
x,1/2-y,z
loop_
_atom_site_type_symbol
_atom_site_label
_atom_site_fract_x
_atom_site_fract_y
_atom_site_fract_z
Si Si1 0.880422 0.404007 0.555163
Si Si2 0.017709 0.250000 0.025040
Si Si3 0.588893 0.992157 0.576531
Si Si4 0.264222 0.584785 0.323905
Si Si5 0.363681 0.583400 0.715122
Si Si6 0.873500 0.908998 0.411103
Si Si7 0.499180 0.910812 0.203135
Si Si8 0.177092 0.905156 0.076564
O O1 0.880169 0.250000 0.519827
O O2 0.792417 0.423426 0.598113
O O3 0.899200 0.509716 0.487324
O O4 0.945772 0.409883 0.624423
O O5 0.049579 0.371737 0.963319
O O6 0.979614 0.127204 0.082535
O O7 0.649648 0.925568 0.511060
O O8 0.645066 0.032376 0.650339
O O9 0.265956 0.750000 0.300385
O O10 0.211585 0.492874 0.262721
O O11 0.361087 0.750000 0.724709
O O12 0.449156 0.513789 0.743626
O O13 0.353091 0.533991 0.627366
O O14 0.902915 0.750000 0.417305
O O15 0.775048 0.906763 0.412997
O O16 0.910693 0.959700 0.329685
O O17 0.496311 0.750000 0.233008
O O18 0.145740 0.750000 0.101662
#
# Coordination Sequence:
#
# PCOD9464008 Si02
#       8
#     8   4   8   8   8   8   8   8
#     4   9  17  29  52  88 119 155 186 235 297 350
#     4  10  24  38  62  98 126 162 216 272 324 378
#     4  11  21  41  67  96 129 163 213 269 324 381
#     4  10  20  38  64  91 125 165 202 252 317 382
#     4  11  25  40  63  90 121 167 214 262 316 378
#     4  10  20  33  57  90 118 154 197 245 294 368
#     4   9  19  38  57  81 123 159 197 243 305 373
#     4  11  23  41  65  91 126 169 209 259 322 384
#
# _framework density 22.490618000000001
#
# number of rings (size 3 to 8) (size 9 to 14) (size 15 to 20)
#    0.000    1.867    2.667    2.400    1.867    3.200 
#    0.000    2.667    2.933    0.000    0.000    0.000 
#    0.000    0.000    0.000    0.000    0.000    0.000 
#
# Total GULP energy -334257.701396 kJ/mol
# GULP energy per Si atom -5570.961690 kJ/mol
# Density = 2.243943 g / cm^3
# Si number density = 22.490618 Si / 1000 Ang^3
#
#
#
# Elastic Constant Matrix: (Units=GPa)
#
#
# Indices 1 2 3 4 5 6 
#
# 1 74.7622 29.5568 8.4218 0.0000 0.0000 0.0000
# 2 29.5568 128.7859 23.2150 0.0000 0.0000 0.0000
# 3 8.4218 23.2150 66.5275 0.0000 0.0000 0.0000
# 4 0.0000 0.0000 0.0000 13.8133 0.0000 0.0000
# 5 0.0000 0.0000 0.0000 0.0000 9.3104 0.0000
# 6 0.0000 0.0000 0.0000 0.0000 0.0000 15.8430
#
#
#
# Elastic Compliance Matrix: (Units=1/GPa)
#
#
# Indices 1 2 3 4 5 6 
#
# 1 0.014744 -0.003252 -0.000732 0.000000 0.000000 0.000000
# 2 -0.003252 0.009003 -0.002730 0.000000 0.000000 0.000000
# 3 -0.000732 -0.002730 0.016077 0.000000 0.000000 0.000000
# 4 0.000000 0.000000 0.000000 0.072394 0.000000 0.000000
# 5 0.000000 0.000000 0.000000 0.000000 0.107407 0.000000
# 6 0.000000 0.000000 0.000000 0.000000 0.000000 0.063119
#
#
# Mechanical properties :
#
#
# Convention : Reuss Voigt Hill
#
# Bulk Modulus (GPa) = 37.88381 43.60696 40.74538
# Shear Modulus (GPa) = 16.39506 21.71881 19.05694
#
# Velocity S-wave (km/s) = 2.70288 3.11092 2.91405
# Velocity P-wave (km/s) = 5.15961 5.68637 5.42938
#
# Compressibility (1/GPa) = 0.02639650
#
# Stress axis : x y z
#
# Youngs Moduli (GPa) = 67.82534 111.07092 62.20190
#
# Poissons Ratio (x) = 0.36119 0.04551
# Poissons Ratio (y) = 0.22056 0.16982
# Poissons Ratio (z) = 0.04963 0.30323
#
# Static dielectric constant tensor:
#      x y z
#    x 1.947950 0.000000 0.000000 
#    y 0.000000 1.789790 0.000000 
#    z 0.000000 0.000000 1.814500 
# 
# From -- ./inp_files/24378.got.cif
#   From: 2010.05.17/outbox.cif.g08.bks.cpg/sg62_13_cif.got.tgz:24378.got - 2010.06.03 15:25:27.
