data_PCOD9464111
_publ_section_title
;
Structure prediction by ZEFSAII (Michael W. Deem and Ramdas Pophale) SiO2 
 PCOD9464111
Probable space group: P N M A
;
_chemical_formula_sum "Si O2"
_cell_formula_units_Z 60
_cell_length_a 5.315131
_cell_length_b 15.738127
_cell_length_c 30.843921
_cell_angle_alpha 90.000000
_cell_angle_beta 90.000000
_cell_angle_gamma 90.000000
_cell_volume 2580.100367
_symmetry_space_group_name_H-M "P N M A"
_symmetry_group_IT_number 62
_symmetry_cell_setting 'orthorhombic'
loop_
_space_group_symop_operation_xyz
x,y,z
1/2-x,-y,1/2+z
1/2+x,1/2-y,1/2-z
-x,1/2+y,-z
-x,-y,-z
1/2+x,y,1/2-z
1/2-x,1/2+y,1/2+z
x,1/2-y,z
loop_
_atom_site_type_symbol
_atom_site_label
_atom_site_fract_x
_atom_site_fract_y
_atom_site_fract_z
Si Si1 0.192887 0.430435 0.481151
Si Si2 0.414060 0.445441 0.566543
Si Si3 0.939680 0.842524 0.294716
Si Si4 0.911613 0.089506 0.401511
Si Si5 0.052807 0.988604 0.767096
Si Si6 0.605177 0.845202 0.638994
Si Si7 0.558188 0.750000 0.722585
Si Si8 0.441891 0.892647 0.342230
O O1 0.323618 0.393395 0.524264
O O2 0.405469 0.480798 0.453473
O O3 0.000000 0.500000 0.500000
O O4 0.027691 0.377246 0.447195
O O5 0.176298 0.493019 0.588866
O O6 0.549616 0.399569 0.606135
O O7 0.949246 0.750000 0.273164
O O8 0.691570 0.847705 0.324226
O O9 0.184947 0.853497 0.324531
O O10 0.936385 0.920654 0.260827
O O11 0.656443 0.131367 0.384183
O O12 0.147430 0.098877 0.369580
O O13 0.307196 0.946108 0.751876
O O14 0.039250 0.016197 0.817080
O O15 0.680120 0.750000 0.623322
O O16 0.547707 0.829515 0.689346
O O17 0.322509 0.750000 0.753657
#
# Coordination Sequence:
#
# PCOD9464111 Si02
#       8
#     8   8   8   8   8   8   4   8
#     4   9  20  36  62  87 112 150 200 248 304 348
#     4  10  21  37  59  92 115 158 198 249 308 361
#     4  10  20  34  54  80 108 151 201 241 279 335
#     4  11  19  38  59  91 122 148 200 259 287 362
#     4   8  16  30  47  74 101 138 183 230 279 320
#     4  10  22  35  63  95 119 157 201 245 300 363
#     4  10  20  38  62  90 126 162 198 250 300 376
#     4  10  21  32  55  80 110 145 190 246 294 339
#
# _framework density 23.254909999999999
#
# number of rings (size 3 to 8) (size 9 to 14) (size 15 to 20)
#    0.400    1.867    1.333    1.600    3.733    4.800 
#    0.000    0.000    0.000   19.200    0.000    0.000 
#    0.000    0.000    0.000    0.000    0.000    0.000 
#
# Total GULP energy -335071.645658 kJ/mol
# GULP energy per Si atom -5584.527428 kJ/mol
# Density = 2.320198 g / cm^3
# Si number density = 23.254910 Si / 1000 Ang^3
#
#
#
# Elastic Constant Matrix: (Units=GPa)
#
#
# Indices 1 2 3 4 5 6 
#
# 1 186.3484 21.1777 58.1681 0.0000 0.0000 0.0000
# 2 21.1777 51.0732 21.4799 0.0000 0.0000 0.0000
# 3 58.1681 21.4799 139.4786 0.0000 0.0000 0.0000
# 4 0.0000 0.0000 0.0000 23.7536 0.0000 0.0000
# 5 0.0000 0.0000 0.0000 0.0000 51.3303 0.0000
# 6 0.0000 0.0000 0.0000 0.0000 0.0000 20.0386
#
#
#
# Elastic Compliance Matrix: (Units=1/GPa)
#
#
# Indices 1 2 3 4 5 6 
#
# 1 0.006291 -0.001609 -0.002376 0.000000 0.000000 0.000000
# 2 -0.001609 0.021347 -0.002616 0.000000 0.000000 0.000000
# 3 -0.002376 -0.002616 0.008563 0.000000 0.000000 0.000000
# 4 0.000000 0.000000 0.000000 0.042099 0.000000 0.000000
# 5 0.000000 0.000000 0.000000 0.000000 0.019482 0.000000
# 6 0.000000 0.000000 0.000000 0.000000 0.000000 0.049904
#
#
# Mechanical properties :
#
#
# Convention : Reuss Voigt Hill
#
# Bulk Modulus (GPa) = 43.48081 64.28352 53.88217
# Shear Modulus (GPa) = 29.66401 37.42948 33.54675
#
# Velocity S-wave (km/s) = 3.57543 4.01625 3.80223
# Velocity P-wave (km/s) = 5.98189 7.01498 6.51893
#
# Compressibility (1/GPa) = 0.02299865
#
# Stress axis : x y z
#
# Youngs Moduli (GPa) = 158.96379 46.84406 116.77850
#
# Poissons Ratio (x) = 0.07539 0.27742
# Poissons Ratio (y) = 0.25583 0.30554
# Poissons Ratio (z) = 0.37764 0.12256
#
# Static dielectric constant tensor:
#      x y z
#    x 1.887660 0.000000 0.000000 
#    y 0.000000 1.971570 0.000000 
#    z 0.000000 0.000000 1.927090 
# 
# From -- ./inp_files/31684.got.cif
#   From: 2010.05.17/outbox.cif.g08.bks.cpg/sg62_16_cif.got.tgz:31684.got - 2010.06.03 15:25:27.
