data_PCOD9464752
_publ_section_title
;
Structure prediction by ZEFSAII (Michael W. Deem and Ramdas Pophale) SiO2 
 PCOD9464752
Probable space group: P N M A
;
_chemical_formula_sum "Si O2"
_cell_formula_units_Z 48
_cell_length_a 9.777369
_cell_length_b 7.482508
_cell_length_c 26.669164
_cell_angle_alpha 90.000000
_cell_angle_beta 90.000000
_cell_angle_gamma 90.000000
_cell_volume 1951.095817
_symmetry_space_group_name_H-M "P N M A"
_symmetry_group_IT_number 62
_symmetry_cell_setting 'orthorhombic'
loop_
_space_group_symop_operation_xyz
x,y,z
1/2-x,-y,1/2+z
1/2+x,1/2-y,1/2-z
-x,1/2+y,-z
-x,-y,-z
1/2+x,y,1/2-z
1/2-x,1/2+y,1/2+z
x,1/2-y,z
loop_
_atom_site_type_symbol
_atom_site_label
_atom_site_fract_x
_atom_site_fract_y
_atom_site_fract_z
Si Si1 0.539084 0.454802 0.576351
Si Si2 0.729194 0.466505 0.926760
Si Si3 0.338329 0.967898 0.765940
Si Si4 0.822458 0.545356 0.534330
Si Si5 0.474141 0.960454 0.868630
Si Si6 0.444490 0.033569 0.309690
O O1 0.535421 0.250000 0.559093
O O2 0.385621 0.529994 0.574008
O O3 0.660068 0.545731 0.545794
O O4 0.577438 0.462097 0.634895
O O5 0.732794 0.250000 0.927365
O O6 0.634146 0.520977 0.880536
O O7 0.661162 0.532104 0.978811
O O8 0.342799 0.750000 0.764615
O O9 0.421441 0.028929 0.815438
O O10 0.181813 0.018256 0.774193
O O11 0.415551 0.027338 0.716074
O O12 0.868989 0.750000 0.531177
O O13 0.895893 0.461355 0.582662
O O14 0.439339 0.750000 0.867478
O O15 0.443927 0.250000 0.313777
#
# Coordination Sequence:
#
# PCOD9464752 Si02
#       6
#     8   8   8   8   8   8
#     4  11  23  38  56  84 119 152 192 234 282 343
#     4  10  23  38  55  84 119 154 190 232 284 343
#     4   9  19  35  59  87 109 139 186 236 280 332
#     4  10  20  39  62  82 112 152 194 240 285 334
#     4  10  20  36  59  87 113 143 190 238 285 339
#     4  10  20  38  61  84 113 146 187 237 286 335
#
# _framework density 24.601559999999999
#
# number of rings (size 3 to 8) (size 9 to 14) (size 15 to 20)
#    0.000    2.000    1.667    1.500    2.333    2.667 
#    0.000    1.667    0.000    0.000    0.000    0.000 
#    0.000    0.000    0.000    0.000    0.000    0.000 
#
# Total GULP energy -268482.631722 kJ/mol
# GULP energy per Si atom -5593.388161 kJ/mol
# Density = 2.454557 g / cm^3
# Si number density = 24.601560 Si / 1000 Ang^3
#
#
#
# Elastic Constant Matrix: (Units=GPa)
#
#
# Indices 1 2 3 4 5 6 
#
# 1 79.5050 -0.5950 -8.4039 0.0000 0.0000 0.0000
# 2 -0.5950 73.5082 -4.9536 0.0000 0.0000 0.0000
# 3 -8.4039 -4.9536 26.4908 0.0000 0.0000 0.0000
# 4 0.0000 0.0000 0.0000 4.2290 0.0000 0.0000
# 5 0.0000 0.0000 0.0000 0.0000 49.0784 0.0000
# 6 0.0000 0.0000 0.0000 0.0000 0.0000 6.0350
#
#
#
# Elastic Compliance Matrix: (Units=1/GPa)
#
#
# Indices 1 2 3 4 5 6 
#
# 1 0.013025 0.000389 0.004205 0.000000 0.000000 0.000000
# 2 0.000389 0.013789 0.002702 0.000000 0.000000 0.000000
# 3 0.004205 0.002702 0.039588 0.000000 0.000000 0.000000
# 4 0.000000 0.000000 0.000000 0.236464 0.000000 0.000000
# 5 0.000000 0.000000 0.000000 0.000000 0.020376 0.000000
# 6 0.000000 0.000000 0.000000 0.000000 0.000000 0.165700
#
#
# Mechanical properties :
#
#
# Convention : Reuss Voigt Hill
#
# Bulk Modulus (GPa) = 12.34673 16.84434 14.59554
# Shear Modulus (GPa) = 9.97310 24.76558 17.36934
#
# Velocity S-wave (km/s) = 2.01560 3.17624 2.66000
# Velocity P-wave (km/s) = 3.23210 4.50700 3.92170
#
# Compressibility (1/GPa) = 0.08099307
#
# Stress axis : x y z
#
# Youngs Moduli (GPa) = 76.77429 72.52083 25.26016
#
# Poissons Ratio (x) = -0.02819 -0.10621
# Poissons Ratio (y) = -0.02985 -0.06825
# Poissons Ratio (z) = -0.32282 -0.19594
#
# Static dielectric constant tensor:
#      x y z
#    x 1.957440 0.000000 0.000000 
#    y 0.000000 1.961190 0.000000 
#    z 0.000000 0.000000 1.914370 
# 
# From -- ./inp_files/31916.got.cif
#   From: 2010.05.17/outbox.cif.g08.bks.cpg/sg62_16_cif.got.tgz:31916.got - 2010.06.03 15:25:27.
