data_PCOD9464639
_publ_section_title
;
Structure prediction by ZEFSAII (Michael W. Deem and Ramdas Pophale) SiO2 
 PCOD9464639
Probable space group: P N M A
;
_chemical_formula_sum "Si O2"
_cell_formula_units_Z 64
_cell_length_a 27.244792
_cell_length_b 17.667359
_cell_length_c 6.589960
_cell_angle_alpha 90.000000
_cell_angle_beta 90.000000
_cell_angle_gamma 90.000000
_cell_volume 3172.034551
_symmetry_space_group_name_H-M "P N M A"
_symmetry_group_IT_number 62
_symmetry_cell_setting 'orthorhombic'
loop_
_space_group_symop_operation_xyz
x,y,z
1/2-x,-y,1/2+z
1/2+x,1/2-y,1/2-z
-x,1/2+y,-z
-x,-y,-z
1/2+x,y,1/2-z
1/2-x,1/2+y,1/2+z
x,1/2-y,z
loop_
_atom_site_type_symbol
_atom_site_label
_atom_site_fract_x
_atom_site_fract_y
_atom_site_fract_z
Si Si1 0.852781 0.661780 0.700744
Si Si2 0.182754 0.451462 0.987485
Si Si3 0.396078 0.425823 0.632586
Si Si4 0.322842 0.165045 0.850969
Si Si5 0.562347 0.452224 0.067340
Si Si6 0.252834 0.164067 0.491231
Si Si7 0.291185 0.450936 0.164639
Si Si8 0.529915 0.963728 0.686883
O O1 0.866086 0.750000 0.715865
O O2 0.835816 0.627469 0.919656
O O3 0.896150 0.609297 0.615265
O O4 0.804500 0.655552 0.558632
O O5 0.146165 0.513393 0.079941
O O6 0.237947 0.464470 0.068176
O O7 0.185376 0.472669 0.750761
O O8 0.368993 0.350715 0.706207
O O9 0.425145 0.469293 0.812666
O O10 0.429015 0.416079 0.431797
O O11 0.323628 0.250000 0.935114
O O12 0.272760 0.156591 0.719555
O O13 0.323224 0.096616 0.009012
O O14 0.510611 0.425887 0.166991
O O15 0.555284 0.473792 0.832277
O O16 0.265678 0.250000 0.429550
O O17 0.281323 0.105306 0.351401
O O18 0.500000 0.000000 0.500000
#
# Coordination Sequence:
#
# PCOD9464639 Si02
#       8
#     8   8   8   8   8   8   8   8
#     4   9  19  38  63  93 126 161 205 258 317 378
#     4  10  21  34  56  86 118 160 212 256 302 361
#     4  10  20  36  56  90 114 152 203 252 298 364
#     4  11  23  37  55  83 122 168 209 250 308 365
#     4   9  19  36  64  91 117 155 196 249 310 369
#     4   9  19  36  55  79 119 163 202 248 307 367
#     4  11  21  36  52  81 119 163 212 259 299 352
#     4   9  19  37  61  89 117 146 194 250 308 364
#
# _framework density 20.176324000000001
#
# number of rings (size 3 to 8) (size 9 to 14) (size 15 to 20)
#    0.000    2.250    1.250    1.125    1.750    1.500 
#    0.000    0.625    0.000   16.500    0.000    0.000 
#    0.000    0.000    0.000    0.000    0.000    0.000 
#
# Total GULP energy -357032.087448 kJ/mol
# GULP energy per Si atom -5578.626366 kJ/mol
# Density = 2.013040 g / cm^3
# Si number density = 20.176324 Si / 1000 Ang^3
#
#
#
# Elastic Constant Matrix: (Units=GPa)
#
#
# Indices 1 2 3 4 5 6 
#
# 1 83.0304 37.5272 39.5104 0.0000 0.0000 0.0000
# 2 37.5272 81.7544 47.2361 0.0000 0.0000 0.0000
# 3 39.5104 47.2361 93.1951 0.0000 0.0000 0.0000
# 4 0.0000 0.0000 0.0000 19.4962 0.0000 0.0000
# 5 0.0000 0.0000 0.0000 0.0000 16.5523 0.0000
# 6 0.0000 0.0000 0.0000 0.0000 0.0000 19.5150
#
#
#
# Elastic Compliance Matrix: (Units=1/GPa)
#
#
# Indices 1 2 3 4 5 6 
#
# 1 0.016398 -0.004964 -0.004436 0.000000 0.000000 0.000000
# 2 -0.004964 0.018800 -0.007424 0.000000 0.000000 0.000000
# 3 -0.004436 -0.007424 0.016374 0.000000 0.000000 0.000000
# 4 0.000000 0.000000 0.000000 0.051292 0.000000 0.000000
# 5 0.000000 0.000000 0.000000 0.000000 0.060415 0.000000
# 6 0.000000 0.000000 0.000000 0.000000 0.000000 0.051243
#
#
# Mechanical properties :
#
#
# Convention : Reuss Voigt Hill
#
# Bulk Modulus (GPa) = 55.79331 56.28081 56.03706
# Shear Modulus (GPa) = 19.67384 20.02646 19.85015
#
# Velocity S-wave (km/s) = 3.12604 3.15393 3.14002
# Velocity P-wave (km/s) = 6.38298 6.42013 6.40158
#
# Compressibility (1/GPa) = 0.01792330
#
# Stress axis : x y z
#
# Youngs Moduli (GPa) = 60.98174 53.19146 61.07311
#
# Poissons Ratio (x) = 0.26405 0.27092
# Poissons Ratio (y) = 0.30273 0.45342
# Poissons Ratio (z) = 0.27052 0.39491
#
# Static dielectric constant tensor:
#      x y z
#    x 1.760360 0.000000 0.000000 
#    y 0.000000 1.705700 0.000000 
#    z 0.000000 0.000000 1.789260 
# 
# From -- ./inp_files/3702.got.cif
#   From: 2010.05.17/outbox.cif.g08.bks.cpg/sg62_2_cif.got.tgz:3702.got - 2010.06.03 15:25:27.
