data_PCOD9464326
_publ_section_title
;
Structure prediction by ZEFSAII (Michael W. Deem and Ramdas Pophale) SiO2 
 PCOD9464326
Probable space group: P N M A
;
_chemical_formula_sum "Si O2"
_cell_formula_units_Z 64
_cell_length_a 23.843500
_cell_length_b 15.258519
_cell_length_c 9.249458
_cell_angle_alpha 90.000000
_cell_angle_beta 90.000000
_cell_angle_gamma 90.000000
_cell_volume 3365.105416
_symmetry_space_group_name_H-M "P N M A"
_symmetry_group_IT_number 62
_symmetry_cell_setting 'orthorhombic'
loop_
_space_group_symop_operation_xyz
x,y,z
1/2-x,-y,1/2+z
1/2+x,1/2-y,1/2-z
-x,1/2+y,-z
-x,-y,-z
1/2+x,y,1/2-z
1/2-x,1/2+y,1/2+z
x,1/2-y,z
loop_
_atom_site_type_symbol
_atom_site_label
_atom_site_fract_x
_atom_site_fract_y
_atom_site_fract_z
Si Si1 0.401737 0.027489 0.949155
Si Si2 0.799311 0.906737 0.222544
Si Si3 0.605697 0.847630 0.476381
Si Si4 0.595045 0.348366 0.899263
Si Si5 0.270800 0.848105 0.599729
Si Si6 0.520032 0.850778 0.245013
Si Si7 0.183369 0.972635 0.204092
Si Si8 0.848225 0.404540 0.270693
O O1 0.391464 0.072256 0.102849
O O2 0.412453 0.925407 0.983663
O O3 0.447572 0.079128 0.855136
O O4 0.343189 0.034596 0.862736
O O5 0.845657 0.857761 0.317545
O O6 0.742308 0.923421 0.309565
O O7 0.825082 0.004215 0.202806
O O8 0.781081 0.863244 0.071696
O O9 0.624431 0.750000 0.428842
O O10 0.543440 0.858534 0.408666
O O11 0.640801 0.923503 0.399938
O O12 0.618961 0.854604 0.644954
O O13 0.589668 0.250000 0.958589
O O14 0.545838 0.361510 0.780677
O O15 0.288840 0.750000 0.637480
O O16 0.206600 0.859978 0.656351
O O17 0.306123 0.925919 0.671744
O O18 0.533654 0.750000 0.199038
#
# Coordination Sequence:
#
# PCOD9464326 Si02
#       8
#     8   8   8   8   8   8   8   8
#     4  10  20  37  62  83 116 153 190 241 296 334
#     4  10  20  36  55  80 116 154 184 232 294 344
#     4  10  20  36  59  83 112 150 193 241 292 337
#     4  10  21  37  60  87 118 154 198 236 284 353
#     4  11  21  33  55  83 117 152 185 232 291 350
#     4   9  20  38  60  86 115 152 196 243 288 343
#     4  10  21  38  55  83 120 147 189 238 283 353
#     4  10  20  35  54  86 113 144 191 241 284 344
#
# _framework density 19.018720999999999
#
# number of rings (size 3 to 8) (size 9 to 14) (size 15 to 20)
#    0.000    2.000    2.500    1.125    0.000    2.500 
#    0.000    2.500    2.750    0.000    0.000    0.000 
#    0.000    0.000    0.000    0.000    0.000    0.000 
#
# Total GULP energy -356611.849834 kJ/mol
# GULP energy per Si atom -5572.060154 kJ/mol
# Density = 1.897543 g / cm^3
# Si number density = 19.018721 Si / 1000 Ang^3
#
#
#
# Elastic Constant Matrix: (Units=GPa)
#
#
# Indices 1 2 3 4 5 6 
#
# 1 46.2192 26.2945 1.5806 0.0000 0.0000 0.0000
# 2 26.2945 94.3695 27.0360 0.0000 0.0000 0.0000
# 3 1.5806 27.0360 64.7598 0.0000 0.0000 0.0000
# 4 0.0000 0.0000 0.0000 18.1156 0.0000 0.0000
# 5 0.0000 0.0000 0.0000 0.0000 15.7197 0.0000
# 6 0.0000 0.0000 0.0000 0.0000 0.0000 20.7415
#
#
#
# Elastic Compliance Matrix: (Units=1/GPa)
#
#
# Indices 1 2 3 4 5 6 
#
# 1 0.026129 -0.008062 0.002728 0.000000 0.000000 0.000000
# 2 -0.008062 0.014524 -0.005867 0.000000 0.000000 0.000000
# 3 0.002728 -0.005867 0.017824 0.000000 0.000000 0.000000
# 4 0.000000 0.000000 0.000000 0.055201 0.000000 0.000000
# 5 0.000000 0.000000 0.000000 0.000000 0.063615 0.000000
# 6 0.000000 0.000000 0.000000 0.000000 0.000000 0.048212
#
#
# Mechanical properties :
#
#
# Convention : Reuss Voigt Hill
#
# Bulk Modulus (GPa) = 27.71925 35.01898 31.36911
# Shear Modulus (GPa) = 19.23580 20.94452 20.09016
#
# Velocity S-wave (km/s) = 3.18372 3.32212 3.25366
# Velocity P-wave (km/s) = 5.30294 5.75918 5.53576
#
# Compressibility (1/GPa) = 0.03607602
#
# Stress axis : x y z
#
# Youngs Moduli (GPa) = 38.27122 68.85279 56.10315
#
# Poissons Ratio (x) = 0.55509 -0.15305
# Poissons Ratio (y) = 0.30854 0.32914
# Poissons Ratio (z) = -0.10440 0.40393
#
# Static dielectric constant tensor:
#      x y z
#    x 1.652320 0.000000 0.000000 
#    y 0.000000 1.677300 0.000000 
#    z 0.000000 0.000000 1.664980 
# 
# From -- ./inp_files/9476.got.cif
#   From: 2010.05.17/outbox.cif.g08.bks.cpg/sg62_5_cif.got.tgz:9476.got - 2010.06.03 15:25:27.
