data_PCOD9464958
_publ_section_title
;
Structure prediction by ZEFSAII (Michael W. Deem and Ramdas Pophale) SiO2 
 PCOD9464958
Probable space group: P N M A
;
_chemical_formula_sum "Si O2"
_cell_formula_units_Z 48
_cell_length_a 8.941762
_cell_length_b 24.444090
_cell_length_c 10.074471
_cell_angle_alpha 90.000000
_cell_angle_beta 90.000000
_cell_angle_gamma 90.000000
_cell_volume 2202.009718
_symmetry_space_group_name_H-M "P N M A"
_symmetry_group_IT_number 62
_symmetry_cell_setting 'orthorhombic'
loop_
_space_group_symop_operation_xyz
x,y,z
1/2-x,-y,1/2+z
1/2+x,1/2-y,1/2-z
-x,1/2+y,-z
-x,-y,-z
1/2+x,y,1/2-z
1/2-x,1/2+y,1/2+z
x,1/2-y,z
loop_
_atom_site_type_symbol
_atom_site_label
_atom_site_fract_x
_atom_site_fract_y
_atom_site_fract_z
Si Si1 0.480554 0.844476 0.432030
Si Si2 0.559003 0.952065 0.596037
Si Si3 0.716657 0.307719 0.330337
Si Si4 0.629664 0.410995 0.157542
Si Si5 0.221743 0.811870 0.265458
Si Si6 0.491322 0.811666 0.994178
O O1 0.518060 0.898901 0.510342
O O2 0.392629 0.809407 0.542527
O O3 0.357495 0.849810 0.314126
O O4 0.635086 0.822319 0.371277
O O5 0.484938 0.942902 0.743360
O O6 0.737769 0.951482 0.615510
O O7 0.500000 0.000000 0.500000
O O8 0.689483 0.250000 0.259879
O O9 0.694911 0.362172 0.248495
O O10 0.887292 0.308119 0.376482
O O11 0.579007 0.371720 0.034645
O O12 0.281662 0.750000 0.269948
O O13 0.092249 0.815891 0.374921
O O14 0.419803 0.750000 0.003123
#
# Coordination Sequence:
#
# PCOD9464958 Si02
#       6
#     8   8   8   8   8   8
#     4  10  22  38  61  90 132 170 215 264 307 374
#     4  11  27  47  68  93 121 167 224 278 322 368
#     4   9  17  34  59  92 130 167 200 248 313 383
#     4  11  21  43  66  92 127 159 213 268 321 380
#     4  10  20  37  60  94 139 176 208 251 315 392
#     4   9  18  33  58  95 132 169 203 245 315 384
#
# _framework density 21.798271
#
# number of rings (size 3 to 8) (size 9 to 14) (size 15 to 20)
#    0.000    2.000    1.667    3.000    2.333    1.333 
#    0.000    4.167    0.000    0.000    0.000    0.000 
#    0.000    0.000    0.000    0.000    0.000    0.000 
#
# Total GULP energy -267359.504953 kJ/mol
# GULP energy per Si atom -5569.989687 kJ/mol
# Density = 2.174866 g / cm^3
# Si number density = 21.798271 Si / 1000 Ang^3
#
#
#
# Elastic Constant Matrix: (Units=GPa)
#
#
# Indices 1 2 3 4 5 6 
#
# 1 57.2268 -3.5768 25.6959 0.0000 0.0000 0.0000
# 2 -3.5768 30.9206 -0.8083 0.0000 0.0000 0.0000
# 3 25.6959 -0.8083 50.8135 0.0000 0.0000 0.0000
# 4 0.0000 0.0000 0.0000 9.5052 0.0000 0.0000
# 5 0.0000 0.0000 0.0000 0.0000 49.4075 0.0000
# 6 0.0000 0.0000 0.0000 0.0000 0.0000 -19.5702
#
#
#
# Elastic Compliance Matrix: (Units=1/GPa)
#
#
# Indices 1 2 3 4 5 6 
#
# 1 0.022775 0.002334 -0.011480 0.000000 0.000000 0.000000
# 2 0.002334 0.032594 -0.000662 0.000000 0.000000 0.000000
# 3 -0.011480 -0.000662 0.025475 0.000000 0.000000 0.000000
# 4 0.000000 0.000000 0.000000 0.105206 0.000000 0.000000
# 5 0.000000 0.000000 0.000000 0.000000 0.020240 0.000000
# 6 0.000000 0.000000 0.000000 0.000000 0.000000 -0.051098
#
#
# Mechanical properties :
#
#
# Convention : Reuss Voigt Hill
#
# Bulk Modulus (GPa) = 16.33239 20.17585 18.25412
# Shear Modulus (GPa) = 25.61273 15.71182 20.66227
#
# Velocity S-wave (km/s) = 3.43153 2.68765 3.08212
# Velocity P-wave (km/s) = 4.81760 4.34823 4.58892
#
# Compressibility (1/GPa) = 0.06122801
#
# Stress axis : x y z
#
# Youngs Moduli (GPa) = 43.90792 30.68087 39.25482
#
# Poissons Ratio (x) = -0.07162 0.45064
# Poissons Ratio (y) = -0.10250 0.02599
# Poissons Ratio (z) = 0.50406 0.02031
#
# Static dielectric constant tensor:
#      x y z
#    x 1.853000 0.000000 0.000000 
#    y 0.000000 1.693510 0.000000 
#    z 0.000000 0.000000 1.859670 
# 
# From -- ./inp_files/11313.got.cif
#   From: 2010.05.17/outbox.cif.g08.bks.cpg/sg62_6_cif.got.tgz:11313.got - 2010.06.03 15:25:27.
