data_PCOD9464847
_publ_section_title
;
Structure prediction by ZEFSAII (Michael W. Deem and Ramdas Pophale) SiO2 
 PCOD9464847
Probable space group: P N M A
;
_chemical_formula_sum "Si O2"
_cell_formula_units_Z 56
_cell_length_a 9.766726
_cell_length_b 13.912007
_cell_length_c 19.617800
_cell_angle_alpha 90.000000
_cell_angle_beta 90.000000
_cell_angle_gamma 90.000000
_cell_volume 2665.563876
_symmetry_space_group_name_H-M "P N M A"
_symmetry_group_IT_number 62
_symmetry_cell_setting 'orthorhombic'
loop_
_space_group_symop_operation_xyz
x,y,z
1/2-x,-y,1/2+z
1/2+x,1/2-y,1/2-z
-x,1/2+y,-z
-x,-y,-z
1/2+x,y,1/2-z
1/2-x,1/2+y,1/2+z
x,1/2-y,z
loop_
_atom_site_type_symbol
_atom_site_label
_atom_site_fract_x
_atom_site_fract_y
_atom_site_fract_z
Si Si1 0.905459 0.482731 0.763957
Si Si2 0.347941 0.858321 0.225762
Si Si3 0.533158 0.637681 0.954071
Si Si4 0.519155 0.364269 0.376669
Si Si5 0.342164 0.641519 0.070584
Si Si6 0.722690 0.447801 0.121320
Si Si7 0.197084 0.468859 0.020855
O O1 0.806772 0.394335 0.782259
O O2 0.907981 0.571364 0.817219
O O3 0.841042 0.511441 0.690982
O O4 0.057055 0.437310 0.761282
O O5 0.356996 0.750000 0.254037
O O6 0.392541 0.857551 0.147344
O O7 0.562255 0.750000 0.952049
O O8 0.405339 0.612376 0.907131
O O9 0.673398 0.583194 0.943426
O O10 0.472816 0.608839 0.027385
O O11 0.549181 0.250000 0.373885
O O12 0.357188 0.383015 0.367362
O O13 0.568128 0.411837 0.448784
O O14 0.309006 0.750000 0.049566
O O15 0.213707 0.575545 0.051670
O O16 0.772931 0.521058 0.060321
#
# Coordination Sequence:
#
# PCOD9464847 Si02
#       7
#     8   8   8   8   8   8   8
#     4  12  24  45  65  99 136 180 228 283 343 409
#     4  11  22  41  68  95 129 169 222 281 342 409
#     4  10  20  36  64  98 128 164 217 269 332 400
#     4  12  27  45  66  97 142 186 231 280 349 422
#     4   9  18  34  60  92 121 158 208 268 326 387
#     4  11  24  43  68  94 139 181 227 284 343 400
#     4  11  21  42  68  98 130 173 223 286 340 402
#
# _framework density 21.008689
#
# number of rings (size 3 to 8) (size 9 to 14) (size 15 to 20)
#    0.000    1.143    2.857    5.143    0.000    1.714 
#    0.000    2.143    0.000    0.000    0.000    0.000 
#    0.000    0.000    0.000    0.000    0.000    0.000 
#
# Total GULP energy -312286.127795 kJ/mol
# GULP energy per Si atom -5576.537996 kJ/mol
# Density = 2.096087 g / cm^3
# Si number density = 21.008689 Si / 1000 Ang^3
#
#
#
# Elastic Constant Matrix: (Units=GPa)
#
#
# Indices 1 2 3 4 5 6 
#
# 1 73.8256 16.0666 -14.7960 0.0000 0.0000 0.0000
# 2 16.0666 109.0438 19.4747 0.0000 0.0000 0.0000
# 3 -14.7960 19.4747 56.8375 0.0000 0.0000 0.0000
# 4 0.0000 0.0000 0.0000 15.2747 0.0000 0.0000
# 5 0.0000 0.0000 0.0000 0.0000 18.3220 0.0000
# 6 0.0000 0.0000 0.0000 0.0000 0.0000 22.0144
#
#
#
# Elastic Compliance Matrix: (Units=1/GPa)
#
#
# Indices 1 2 3 4 5 6 
#
# 1 0.015242 -0.003147 0.005046 0.000000 0.000000 0.000000
# 2 -0.003147 0.010418 -0.004389 0.000000 0.000000 0.000000
# 3 0.005046 -0.004389 0.020411 0.000000 0.000000 0.000000
# 4 0.000000 0.000000 0.000000 0.065468 0.000000 0.000000
# 5 0.000000 0.000000 0.000000 0.000000 0.054579 0.000000
# 6 0.000000 0.000000 0.000000 0.000000 0.000000 0.045425
#
#
# Mechanical properties :
#
#
# Convention : Reuss Voigt Hill
#
# Bulk Modulus (GPa) = 24.33590 31.24415 27.79003
# Shear Modulus (GPa) = 21.71839 25.71966 23.71902
#
# Velocity S-wave (km/s) = 3.21874 3.50271 3.36372
# Velocity P-wave (km/s) = 5.04208 5.59133 5.32379
#
# Compressibility (1/GPa) = 0.04109155
#
# Stress axis : x y z
#
# Youngs Moduli (GPa) = 65.60991 95.98661 48.99227
#
# Poissons Ratio (x) = 0.30206 -0.24721
# Poissons Ratio (y) = 0.20647 0.21502
# Poissons Ratio (z) = -0.33107 0.42127
#
# Static dielectric constant tensor:
#      x y z
#    x 1.812860 0.000000 0.000000 
#    y 0.000000 1.799820 0.000000 
#    z 0.000000 0.000000 1.856340 
# 
# From -- ./inp_files/26021.got.cif
#   From: 2010.05.17/outbox.cif.g08.bks.cpg/sg62_14_cif.got.tgz:26021.got - 2010.06.03 15:25:27.
