data_PCOD9464952
_publ_section_title
;
Structure prediction by ZEFSAII (Michael W. Deem and Ramdas Pophale) SiO2 
 PCOD9464952
Probable space group: P N M A
;
_chemical_formula_sum "Si O2"
_cell_formula_units_Z 44
_cell_length_a 14.823676
_cell_length_b 7.266219
_cell_length_c 17.151544
_cell_angle_alpha 90.000000
_cell_angle_beta 90.000000
_cell_angle_gamma 90.000000
_cell_volume 1847.428414
_symmetry_space_group_name_H-M "P N M A"
_symmetry_group_IT_number 62
_symmetry_cell_setting 'orthorhombic'
loop_
_space_group_symop_operation_xyz
x,y,z
1/2-x,-y,1/2+z
1/2+x,1/2-y,1/2-z
-x,1/2+y,-z
-x,-y,-z
1/2+x,y,1/2-z
1/2-x,1/2+y,1/2+z
x,1/2-y,z
loop_
_atom_site_type_symbol
_atom_site_label
_atom_site_fract_x
_atom_site_fract_y
_atom_site_fract_z
Si Si1 0.906379 0.032082 0.456886
Si Si2 0.175605 0.028034 0.263107
Si Si3 0.246686 0.959875 0.929351
Si Si4 0.494711 0.528657 0.658368
Si Si5 0.367829 0.472131 0.211446
Si Si6 0.083417 0.250000 0.940585
O O1 0.891069 0.250000 0.453518
O O2 0.912363 0.964061 0.368157
O O3 0.821094 0.954862 0.502789
O O4 0.000000 0.000000 0.500000
O O5 0.169283 0.250000 0.266756
O O6 0.198420 0.972225 0.351809
O O7 0.264016 0.975098 0.214703
O O8 0.087613 0.973490 0.215257
O O9 0.215483 0.750000 0.912769
O O10 0.163438 0.089889 0.949606
O O11 0.489565 0.750000 0.644379
O O12 0.582122 0.472444 0.710017
O O13 0.507784 0.410710 0.581918
O O14 0.373322 0.250000 0.212897
#
# Coordination Sequence:
#
# PCOD9464952 Si02
#       6
#     8   8   8   8   8   4
#     4  11  22  38  59  91 129 164 203 250 310 375
#     4   9  18  36  62  87 117 158 199 252 309 354
#     4  11  22  40  60  87 124 166 203 248 309 363
#     4  10  20  37  60  90 120 153 199 253 305 359
#     4   9  18  36  60  88 122 159 197 251 306 357
#     4  12  22  36  60  90 118 158 202 252 292 368
#
# _framework density 23.816887999999999
#
# number of rings (size 3 to 8) (size 9 to 14) (size 15 to 20)
#    0.000    1.818    2.727    2.182    0.000    3.636 
#    6.545    0.000    0.000    1.091    0.000    0.000 
#    0.000    0.000    0.000    0.000    0.000    0.000 
#
# Total GULP energy -244984.814005 kJ/mol
# GULP energy per Si atom -5567.836682 kJ/mol
# Density = 2.376268 g / cm^3
# Si number density = 23.816888 Si / 1000 Ang^3
#
#
#
# Elastic Constant Matrix: (Units=GPa)
#
#
# Indices 1 2 3 4 5 6 
#
# 1 47.9241 -4.4742 -18.7366 0.0000 0.0000 0.0000
# 2 -4.4742 138.8906 3.1515 0.0000 0.0000 0.0000
# 3 -18.7366 3.1515 66.0147 0.0000 0.0000 0.0000
# 4 0.0000 0.0000 0.0000 2.7654 0.0000 0.0000
# 5 0.0000 0.0000 0.0000 0.0000 22.0696 0.0000
# 6 0.0000 0.0000 0.0000 0.0000 0.0000 1.8932
#
#
#
# Elastic Compliance Matrix: (Units=1/GPa)
#
#
# Indices 1 2 3 4 5 6 
#
# 1 0.023522 0.000607 0.006647 0.000000 0.000000 0.000000
# 2 0.000607 0.007223 -0.000173 0.000000 0.000000 0.000000
# 3 0.006647 -0.000173 0.017043 0.000000 0.000000 0.000000
# 4 0.000000 0.000000 0.000000 0.361607 0.000000 0.000000
# 5 0.000000 0.000000 0.000000 0.000000 0.045311 0.000000
# 6 0.000000 0.000000 0.000000 0.000000 0.000000 0.528203
#
#
# Mechanical properties :
#
#
# Convention : Reuss Voigt Hill
#
# Bulk Modulus (GPa) = 16.14183 23.63455 19.88819
# Shear Modulus (GPa) = 5.05358 23.53823 14.29591
#
# Velocity S-wave (km/s) = 1.45824 3.14713 2.45264
# Velocity P-wave (km/s) = 3.10282 4.81154 4.04836
#
# Compressibility (1/GPa) = 0.06195083
#
# Stress axis : x y z
#
# Youngs Moduli (GPa) = 42.51388 138.43934 58.67521
#
# Poissons Ratio (x) = -0.08402 -0.39002
# Poissons Ratio (y) = -0.02580 0.01013
# Poissons Ratio (z) = -0.28259 0.02389
#
# Static dielectric constant tensor:
#      x y z
#    x 1.800290 0.000000 0.000000 
#    y 0.000000 1.947870 0.000000 
#    z 0.000000 0.000000 1.841070 
# 
# From -- ./inp_files/23569.got.cif
#   From: 2010.05.17/outbox.cif.g08.bks.cpg/sg62_12_cif.got.tgz:23569.got - 2010.06.03 15:25:27.
