data_PCOD9464839
_publ_section_title
;
Structure prediction by ZEFSAII (Michael W. Deem and Ramdas Pophale) SiO2 
 PCOD9464839
Probable space group: P N M A
;
_chemical_formula_sum "Si O2"
_cell_formula_units_Z 36
_cell_length_a 9.956448
_cell_length_b 18.308258
_cell_length_c 8.171566
_cell_angle_alpha 90.000000
_cell_angle_beta 90.000000
_cell_angle_gamma 90.000000
_cell_volume 1489.555696
_symmetry_space_group_name_H-M "P N M A"
_symmetry_group_IT_number 62
_symmetry_cell_setting 'orthorhombic'
loop_
_space_group_symop_operation_xyz
x,y,z
1/2-x,-y,1/2+z
1/2+x,1/2-y,1/2-z
-x,1/2+y,-z
-x,-y,-z
1/2+x,y,1/2-z
1/2-x,1/2+y,1/2+z
x,1/2-y,z
loop_
_atom_site_type_symbol
_atom_site_label
_atom_site_fract_x
_atom_site_fract_y
_atom_site_fract_z
Si Si1 0.864218 0.127635 0.549839
Si Si2 0.391245 0.560449 0.541393
Si Si3 0.727053 0.250000 0.312337
Si Si4 0.390068 0.165456 0.575172
Si Si5 0.357357 0.890606 0.886500
O O1 0.752971 0.063775 0.543904
O O2 0.809619 0.185803 0.416529
O O3 0.873907 0.161248 0.730513
O O4 0.011200 0.102387 0.496368
O O5 0.500000 0.500000 0.500000
O O6 0.466730 0.635078 0.482242
O O7 0.365818 0.555258 0.734346
O O8 0.647003 0.313158 0.207381
O O9 0.375482 0.250000 0.518127
O O10 0.276953 0.114885 0.493411
#
# Coordination Sequence:
#
# PCOD9464839 Si02
#       5
#     8   8   4   8   8
#     4  11  24  43  69 104 146 186 238 299 361 438
#     4  11  27  48  71 102 144 196 249 301 367 443
#     4  10  20  36  64 100 138 174 222 288 352 416
#     4  12  26  43  72 109 147 189 245 307 376 435
#     4  11  24  43  72 103 142 190 240 298 370 432
#
# _framework density 24.168282000000001
#
# number of rings (size 3 to 8) (size 9 to 14) (size 15 to 20)
#    0.000    0.889    2.222    4.667    6.222    5.333 
#    0.000    3.333    0.000    0.000    0.000    0.000 
#    0.000    0.000    0.000    0.000    0.000    0.000 
#
# Total GULP energy -200526.163441 kJ/mol
# GULP energy per Si atom -5570.171207 kJ/mol
# Density = 2.411327 g / cm^3
# Si number density = 24.168282 Si / 1000 Ang^3
#
#
#
# Elastic Constant Matrix: (Units=GPa)
#
#
# Indices 1 2 3 4 5 6 
#
# 1 158.1805 16.6139 53.4483 0.0000 0.0000 0.0000
# 2 16.6139 50.0534 11.1357 0.0000 0.0000 0.0000
# 3 53.4483 11.1357 73.1675 0.0000 0.0000 0.0000
# 4 0.0000 0.0000 0.0000 21.5878 0.0000 0.0000
# 5 0.0000 0.0000 0.0000 0.0000 51.0224 0.0000
# 6 0.0000 0.0000 0.0000 0.0000 0.0000 72.7307
#
#
#
# Elastic Compliance Matrix: (Units=1/GPa)
#
#
# Indices 1 2 3 4 5 6 
#
# 1 0.008500 -0.001490 -0.005982 0.000000 0.000000 0.000000
# 2 -0.001490 0.020940 -0.002098 0.000000 0.000000 0.000000
# 3 -0.005982 -0.002098 0.018357 0.000000 0.000000 0.000000
# 4 0.000000 0.000000 0.000000 0.046322 0.000000 0.000000
# 5 0.000000 0.000000 0.000000 0.000000 0.019599 0.000000
# 6 0.000000 0.000000 0.000000 0.000000 0.000000 0.013749
#
#
# Mechanical properties :
#
#
# Convention : Reuss Voigt Hill
#
# Bulk Modulus (GPa) = 34.89811 49.31078 42.10444
# Shear Modulus (GPa) = 32.01828 42.41508 37.21668
#
# Velocity S-wave (km/s) = 3.64374 4.19380 3.92841
# Velocity P-wave (km/s) = 5.67216 6.62556 6.16731
#
# Compressibility (1/GPa) = 0.02865485
#
# Stress axis : x y z
#
# Youngs Moduli (GPa) = 117.65017 47.75507 54.47647
#
# Poissons Ratio (x) = 0.07117 0.32589
# Poissons Ratio (y) = 0.17534 0.11431
# Poissons Ratio (z) = 0.70381 0.10020
#
# Static dielectric constant tensor:
#      x y z
#    x 1.894250 0.000000 0.000000 
#    y 0.000000 1.992430 0.000000 
#    z 0.000000 0.000000 2.088170 
# 
# From -- ./inp_files/4178.got.cif
#   From: 2010.05.17/outbox.cif.g08.bks.cpg/sg62_3_cif.got.tgz:4178.got - 2010.06.03 15:25:27.
