data_PCOD9464095
_publ_section_title
;
Structure prediction by ZEFSAII (Michael W. Deem and Ramdas Pophale) SiO2 
 PCOD9464095
Probable space group: P N M A
;
_chemical_formula_sum "Si O2"
_cell_formula_units_Z 40
_cell_length_a 7.454629
_cell_length_b 13.817477
_cell_length_c 20.967350
_cell_angle_alpha 90.000000
_cell_angle_beta 90.000000
_cell_angle_gamma 90.000000
_cell_volume 2159.724374
_symmetry_space_group_name_H-M "P N M A"
_symmetry_group_IT_number 62
_symmetry_cell_setting 'orthorhombic'
loop_
_space_group_symop_operation_xyz
x,y,z
1/2-x,-y,1/2+z
1/2+x,1/2-y,1/2-z
-x,1/2+y,-z
-x,-y,-z
1/2+x,y,1/2-z
1/2-x,1/2+y,1/2+z
x,1/2-y,z
loop_
_atom_site_type_symbol
_atom_site_label
_atom_site_fract_x
_atom_site_fract_y
_atom_site_fract_z
Si Si1 0.306276 0.358371 0.697988
Si Si2 0.636804 0.862101 0.528997
Si Si3 0.388859 0.141974 0.842616
Si Si4 0.644197 0.499116 0.405340
Si Si5 0.540306 0.467573 0.071878
O O1 0.384112 0.250000 0.688896
O O2 0.103480 0.356389 0.671174
O O3 0.302717 0.375730 0.773498
O O4 0.404380 0.441700 0.658331
O O5 0.599691 0.750000 0.518285
O O6 0.488277 0.916068 0.571389
O O7 0.825946 0.878340 0.565051
O O8 0.646889 0.920195 0.461942
O O9 0.338212 0.250000 0.865436
O O10 0.359989 0.056085 0.892302
O O11 0.844424 0.455300 0.397723
O O12 0.500000 0.500000 0.000000
#
# Coordination Sequence:
#
# PCOD9464095 Si02
#       5
#     8   8   8   8   8
#     4   9  17  30  50  77 108 135 163 208 265 317
#     4  10  20  34  54  77 103 137 179 214 254 308
#     4   9  18  31  50  80 108 134 167 208 264 320
#     4   9  19  35  52  78 107 137 169 213 264 305
#     4   9  19  34  51  75 106 139 171 211 257 304
#
# _framework density 18.520882
#
# number of rings (size 3 to 8) (size 9 to 14) (size 15 to 20)
#    0.000    2.800    0.000    0.600    2.800    5.600 
#    0.000    8.000    0.000    1.200    0.000    0.000 
#    0.000    0.000    0.000    0.000    0.000    0.000 
#
# Total GULP energy -223002.330161 kJ/mol
# GULP energy per Si atom -5575.058254 kJ/mol
# Density = 1.847873 g / cm^3
# Si number density = 18.520882 Si / 1000 Ang^3
#
#
#
# Elastic Constant Matrix: (Units=GPa)
#
#
# Indices 1 2 3 4 5 6 
#
# 1 49.9459 28.7103 -0.8596 0.0000 0.0000 0.0000
# 2 28.7103 91.0224 21.0447 0.0000 0.0000 0.0000
# 3 -0.8596 21.0447 43.5808 0.0000 0.0000 0.0000
# 4 0.0000 0.0000 0.0000 25.0833 0.0000 0.0000
# 5 0.0000 0.0000 0.0000 0.0000 18.9314 0.0000
# 6 0.0000 0.0000 0.0000 0.0000 0.0000 20.2994
#
#
#
# Elastic Compliance Matrix: (Units=1/GPa)
#
#
# Indices 1 2 3 4 5 6 
#
# 1 0.025356 -0.009133 0.004910 0.000000 0.000000 0.000000
# 2 -0.009133 0.015657 -0.007741 0.000000 0.000000 0.000000
# 3 0.004910 -0.007741 0.026781 0.000000 0.000000 0.000000
# 4 0.000000 0.000000 0.000000 0.039867 0.000000 0.000000
# 5 0.000000 0.000000 0.000000 0.000000 0.052822 0.000000
# 6 0.000000 0.000000 0.000000 0.000000 0.000000 0.049263
#
#
# Mechanical properties :
#
#
# Convention : Reuss Voigt Hill
#
# Bulk Modulus (GPa) = 22.79625 31.37108 27.08366
# Shear Modulus (GPa) = 20.13736 21.90638 21.02187
#
# Velocity S-wave (km/s) = 3.30097 3.44291 3.37268
# Velocity P-wave (km/s) = 5.18301 5.72537 5.46093
#
# Compressibility (1/GPa) = 0.04386687
#
# Stress axis : x y z
#
# Youngs Moduli (GPa) = 39.43809 63.87019 37.34045
#
# Poissons Ratio (x) = 0.58334 -0.18336
# Poissons Ratio (y) = 0.36019 0.28904
# Poissons Ratio (z) = -0.19366 0.49439
#
# Static dielectric constant tensor:
#      x y z
#    x 1.722530 0.000000 0.000000 
#    y 0.000000 1.621070 0.000000 
#    z 0.000000 0.000000 1.632390 
# 
# From -- ./inp_files/21901.got.cif
#   From: 2010.05.17/outbox.cif.g08.bks.cpg/sg62_11_cif.got.tgz:21901.got - 2010.06.03 15:25:27.
