data_PCOD9464480
_publ_section_title
;
Structure prediction by ZEFSAII (Michael W. Deem and Ramdas Pophale) SiO2 
 PCOD9464480
Probable space group: P N M A
;
_chemical_formula_sum "Si O2"
_cell_formula_units_Z 48
_cell_length_a 23.853303
_cell_length_b 9.601030
_cell_length_c 11.300887
_cell_angle_alpha 90.000000
_cell_angle_beta 90.000000
_cell_angle_gamma 90.000000
_cell_volume 2588.087075
_symmetry_space_group_name_H-M "P N M A"
_symmetry_group_IT_number 62
_symmetry_cell_setting 'orthorhombic'
loop_
_space_group_symop_operation_xyz
x,y,z
1/2-x,-y,1/2+z
1/2+x,1/2-y,1/2-z
-x,1/2+y,-z
-x,-y,-z
1/2+x,y,1/2-z
1/2-x,1/2+y,1/2+z
x,1/2-y,z
loop_
_atom_site_type_symbol
_atom_site_label
_atom_site_fract_x
_atom_site_fract_y
_atom_site_fract_z
Si Si1 0.859224 0.912010 0.644991
Si Si2 0.375171 0.090027 0.227729
Si Si3 0.556391 0.583133 0.538165
Si Si4 0.945654 0.409296 0.516064
Si Si5 0.788447 0.909392 0.405931
Si Si6 0.337470 0.087839 0.633839
O O1 0.874736 0.750000 0.658025
O O2 0.819248 0.925104 0.531380
O O3 0.910784 0.012219 0.615822
O O4 0.833655 0.977021 0.761622
O O5 0.359648 0.250000 0.256302
O O6 0.415158 0.040849 0.335596
O O7 0.319538 0.004692 0.191596
O O8 0.411535 0.089273 0.107199
O O9 0.500000 0.500000 0.500000
O O10 0.543894 0.750000 0.544258
O O11 0.607258 0.563409 0.444607
O O12 0.957539 0.250000 0.547423
O O13 0.000000 0.500000 0.500000
O O14 0.796379 0.750000 0.366167
O O15 0.722553 0.929308 0.429144
O O16 0.340171 0.250000 0.675097
#
# Coordination Sequence:
#
# PCOD9464480 Si02
#       6
#     8   8   8   8   8   8
#     4  10  21  37  58  85 114 148 193 238 285 349
#     4   9  20  38  60  84 114 150 190 236 287 345
#     4  10  23  41  60  84 118 158 198 240 291 349
#     4  10  20  35  57  85 115 148 188 237 289 341
#     4   9  20  38  60  87 116 147 188 237 293 349
#     4  10  22  39  59  85 118 153 188 239 297 346
#
# _framework density 18.546517000000001
#
# number of rings (size 3 to 8) (size 9 to 14) (size 15 to 20)
#    0.000    2.333    0.000    1.000    4.667    3.333 
#    0.000    0.000    0.000    0.000    0.000    0.000 
#    0.000    0.000    0.000    0.000    0.000    0.000 
#
# Total GULP energy -267478.915327 kJ/mol
# GULP energy per Si atom -5572.477403 kJ/mol
# Density = 1.850430 g / cm^3
# Si number density = 18.546517 Si / 1000 Ang^3
#
#
#
# Elastic Constant Matrix: (Units=GPa)
#
#
# Indices 1 2 3 4 5 6 
#
# 1 104.9753 60.4027 -3.5073 0.0000 0.0000 0.0000
# 2 60.4027 110.2919 29.0940 0.0000 0.0000 0.0000
# 3 -3.5073 29.0940 22.3321 0.0000 0.0000 0.0000
# 4 0.0000 0.0000 0.0000 25.0787 0.0000 0.0000
# 5 0.0000 0.0000 0.0000 0.0000 17.9704 0.0000
# 6 0.0000 0.0000 0.0000 0.0000 0.0000 34.1597
#
#
#
# Elastic Compliance Matrix: (Units=1/GPa)
#
#
# Indices 1 2 3 4 5 6 
#
# 1 0.021688 -0.019466 0.028766 0.000000 0.000000 0.000000
# 2 -0.019466 0.031286 -0.043816 0.000000 0.000000 0.000000
# 3 0.028766 -0.043816 0.106379 0.000000 0.000000 0.000000
# 4 0.000000 0.000000 0.000000 0.039875 0.000000 0.000000
# 5 0.000000 0.000000 0.000000 0.000000 0.055647 0.000000
# 6 0.000000 0.000000 0.000000 0.000000 0.000000 0.029274
#
#
# Mechanical properties :
#
#
# Convention : Reuss Voigt Hill
#
# Bulk Modulus (GPa) = 11.07165 45.50868 28.29016
# Shear Modulus (GPa) = 13.04509 25.54907 19.29708
#
# Velocity S-wave (km/s) = 2.65499 3.71559 3.22913
# Velocity P-wave (km/s) = 3.92190 6.55731 5.40276
#
# Compressibility (1/GPa) = 0.09032078
#
# Stress axis : x y z
#
# Youngs Moduli (GPa) = 46.10915 31.96358 9.40039
#
# Poissons Ratio (x) = 0.62219 -0.27041
# Poissons Ratio (y) = 0.89754 0.41188
# Poissons Ratio (z) = -1.32636 1.40050
#
# Static dielectric constant tensor:
#      x y z
#    x 1.740080 0.000000 0.000000 
#    y 0.000000 1.633380 0.000000 
#    z 0.000000 0.000000 1.679690 
# 
# From -- ./inp_files/15094.got.cif
#   From: 2010.05.17/outbox.cif.g08.bks.cpg/sg62_8_cif.got.tgz:15094.got - 2010.06.03 15:25:27.
