data_PCOD9464595
_publ_section_title
;
Structure prediction by ZEFSAII (Michael W. Deem and Ramdas Pophale) SiO2 
 PCOD9464595
Probable space group: P N M A
;
_chemical_formula_sum "Si O2"
_cell_formula_units_Z 56
_cell_length_a 5.484141
_cell_length_b 16.691369
_cell_length_c 29.953546
_cell_angle_alpha 90.000000
_cell_angle_beta 90.000000
_cell_angle_gamma 90.000000
_cell_volume 2741.882334
_symmetry_space_group_name_H-M "P N M A"
_symmetry_group_IT_number 62
_symmetry_cell_setting 'orthorhombic'
loop_
_space_group_symop_operation_xyz
x,y,z
1/2-x,-y,1/2+z
1/2+x,1/2-y,1/2-z
-x,1/2+y,-z
-x,-y,-z
1/2+x,y,1/2-z
1/2-x,1/2+y,1/2+z
x,1/2-y,z
loop_
_atom_site_type_symbol
_atom_site_label
_atom_site_fract_x
_atom_site_fract_y
_atom_site_fract_z
Si Si1 0.900081 0.750000 0.338285
Si Si2 0.564591 0.505139 0.861939
Si Si3 0.688983 0.341149 0.106486
Si Si4 0.218152 0.912008 0.429330
Si Si5 0.914483 0.156259 0.487709
Si Si6 0.336645 0.907906 0.221783
Si Si7 0.943292 0.556217 0.932435
Si Si8 0.092649 0.250000 0.895549
O O1 0.670635 0.750000 0.372189
O O2 0.864245 0.672946 0.306978
O O3 0.165659 0.750000 0.362809
O O4 0.448122 0.593344 0.863959
O O5 0.374845 0.439240 0.880652
O O6 0.657530 0.479472 0.814202
O O7 0.761951 0.506208 0.901387
O O8 0.667965 0.250000 0.120996
O O9 0.588770 0.347504 0.055338
O O10 0.960038 0.373909 0.100484
O O11 0.015155 0.884307 0.465434
O O12 0.380000 0.832502 0.423275
O O13 0.349771 0.993150 0.445646
O O14 0.862518 0.250000 0.494426
O O15 0.683895 0.103728 0.472063
O O16 0.078813 0.910734 0.247467
#
# Coordination Sequence:
#
# PCOD9464595 Si02
#       8
#     4   8   8   8   8   8   8   4
#     4  12  24  45  66  96 134 172 226 258 326 377
#     4  10  23  40  62  88 123 161 207 263 327 396
#     4   9  20  38  62  88 122 162 210 265 321 385
#     4  11  22  37  57  87 126 176 215 266 319 375
#     4  10  20  36  54  87 126 165 222 265 318 373
#     4  12  26  43  70  98 131 167 213 269 326 390
#     4  10  21  36  60  85 122 163 218 264 327 377
#     4  12  24  41  66  92 138 180 220 268 314 391
#
# _framework density 20.423926000000002
#
# number of rings (size 3 to 8) (size 9 to 14) (size 15 to 20)
#    0.000    1.429    2.143    3.000    4.000    6.857 
#    0.000    0.000    0.000    0.857    0.000    0.000 
#    0.000    0.000    0.000    0.000    0.000    0.000 
#
# Total GULP energy -312437.448438 kJ/mol
# GULP energy per Si atom -5579.240151 kJ/mol
# Density = 2.037744 g / cm^3
# Si number density = 20.423926 Si / 1000 Ang^3
#
#
#
# Elastic Constant Matrix: (Units=GPa)
#
#
# Indices 1 2 3 4 5 6 
#
# 1 43.8632 14.8722 6.6753 0.0000 0.0000 0.0000
# 2 14.8722 142.6582 37.8508 0.0000 0.0000 0.0000
# 3 6.6753 37.8508 39.8553 0.0000 0.0000 0.0000
# 4 0.0000 0.0000 0.0000 20.4751 0.0000 0.0000
# 5 0.0000 0.0000 0.0000 0.0000 17.5805 0.0000
# 6 0.0000 0.0000 0.0000 0.0000 0.0000 16.7598
#
#
#
# Elastic Compliance Matrix: (Units=1/GPa)
#
#
# Indices 1 2 3 4 5 6 
#
# 1 0.023774 -0.001901 -0.002177 0.000000 0.000000 0.000000
# 2 -0.001901 0.009523 -0.008726 0.000000 0.000000 0.000000
# 3 -0.002177 -0.008726 0.033742 0.000000 0.000000 0.000000
# 4 0.000000 0.000000 0.000000 0.048840 0.000000 0.000000
# 5 0.000000 0.000000 0.000000 0.000000 0.056881 0.000000
# 6 0.000000 0.000000 0.000000 0.000000 0.000000 0.059667
#
#
# Mechanical properties :
#
#
# Convention : Reuss Voigt Hill
#
# Bulk Modulus (GPa) = 24.13550 38.35260 31.24405
# Shear Modulus (GPa) = 18.39288 22.09497 20.24392
#
# Velocity S-wave (km/s) = 3.00418 3.29267 3.15173
# Velocity P-wave (km/s) = 4.88635 5.76841 5.34560
#
# Compressibility (1/GPa) = 0.04143275
#
# Stress axis : x y z
#
# Youngs Moduli (GPa) = 42.06292 105.00789 29.63648
#
# Poissons Ratio (x) = 0.19962 0.06450
# Poissons Ratio (y) = 0.07996 0.25860
# Poissons Ratio (z) = 0.09155 0.91627
#
# Static dielectric constant tensor:
#      x y z
#    x 1.835510 0.000000 0.000000 
#    y 0.000000 1.706680 0.000000 
#    z 0.000000 0.000000 1.725540 
# 
# From -- ./inp_files/31629.got.cif
#   From: 2010.05.17/outbox.cif.g08.bks.cpg/sg62_16_cif.got.tgz:31629.got - 2010.06.03 15:25:27.
