data_PCOD9464247
_publ_section_title
;
Structure prediction by ZEFSAII (Michael W. Deem and Ramdas Pophale) SiO2 
 PCOD9464247
Probable space group: P N M A
;
_chemical_formula_sum "Si O2"
_cell_formula_units_Z 56
_cell_length_a 15.435963
_cell_length_b 7.639720
_cell_length_c 21.889696
_cell_angle_alpha 90.000000
_cell_angle_beta 90.000000
_cell_angle_gamma 90.000000
_cell_volume 2581.373818
_symmetry_space_group_name_H-M "P N M A"
_symmetry_group_IT_number 62
_symmetry_cell_setting 'orthorhombic'
loop_
_space_group_symop_operation_xyz
x,y,z
1/2-x,-y,1/2+z
1/2+x,1/2-y,1/2-z
-x,1/2+y,-z
-x,-y,-z
1/2+x,y,1/2-z
1/2-x,1/2+y,1/2+z
x,1/2-y,z
loop_
_atom_site_type_symbol
_atom_site_label
_atom_site_fract_x
_atom_site_fract_y
_atom_site_fract_z
Si Si1 0.419005 0.458818 0.686213
Si Si2 0.853556 0.953395 0.511956
Si Si3 0.255160 0.460653 0.762633
Si Si4 0.515690 0.957004 0.570641
Si Si5 0.067163 0.036022 0.725314
Si Si6 0.208162 0.538711 0.900012
Si Si7 0.979554 0.963321 0.410164
O O1 0.416872 0.250000 0.694381
O O2 0.334770 0.527727 0.721755
O O3 0.437158 0.488249 0.614968
O O4 0.503566 0.526172 0.721734
O O5 0.834313 0.750000 0.499311
O O6 0.769104 0.028924 0.544916
O O7 0.897078 0.025071 0.450224
O O8 0.932880 0.966434 0.559869
O O9 0.255825 0.250000 0.757317
O O10 0.164114 0.526048 0.736347
O O11 0.252506 0.497968 0.834965
O O12 0.521294 0.750000 0.575804
O O13 0.609368 0.028454 0.593756
O O14 0.500000 0.000000 0.500000
O O15 0.068881 0.250000 0.726559
O O16 0.030873 0.985514 0.659613
O O17 0.205918 0.750000 0.904295
O O18 0.983268 0.750000 0.414011
#
# Coordination Sequence:
#
# PCOD9464247 Si02
#       7
#     8   8   8   8   8   8   8
#     4  10  20  36  58  85 115 148 191 239 289 347
#     4   9  18  32  51  76 107 140 176 222 271 327
#     4  10  20  34  58  85 109 145 189 234 284 337
#     4  11  24  41  61  84 113 153 195 242 297 349
#     4   9  17  31  52  79 108 138 178 227 271 320
#     4  10  21  37  56  81 112 150 192 233 288 347
#     4   9  17  31  51  76 107 141 177 219 269 325
#
# _framework density 21.693875999999999
#
# number of rings (size 3 to 8) (size 9 to 14) (size 15 to 20)
#    0.000    2.286    1.429    1.286    0.000    4.000 
#    0.000    5.714    0.000    3.429    0.000    0.000 
#    0.000    0.000    0.000    0.000    0.000    0.000 
#
# Total GULP energy -312571.721534 kJ/mol
# GULP energy per Si atom -5581.637885 kJ/mol
# Density = 2.164450 g / cm^3
# Si number density = 21.693876 Si / 1000 Ang^3
#
#
#
# Elastic Constant Matrix: (Units=GPa)
#
#
# Indices 1 2 3 4 5 6 
#
# 1 89.0397 4.2691 27.6416 0.0000 0.0000 0.0000
# 2 4.2691 42.8802 -11.0031 0.0000 0.0000 0.0000
# 3 27.6416 -11.0031 110.9434 0.0000 0.0000 0.0000
# 4 0.0000 0.0000 0.0000 23.3938 0.0000 0.0000
# 5 0.0000 0.0000 0.0000 0.0000-2404.1884 0.0000
# 6 0.0000 0.0000 0.0000 0.0000 0.0000 9.1924
#
#
#
# Elastic Compliance Matrix: (Units=1/GPa)
#
#
# Indices 1 2 3 4 5 6 
#
# 1 0.012349 -0.002072 -0.003282 0.000000 0.000000 0.000000
# 2 -0.002072 0.024277 0.002924 0.000000 0.000000 0.000000
# 3 -0.003282 0.002924 0.010121 0.000000 0.000000 0.000000
# 4 0.000000 0.000000 0.000000 0.042746 0.000000 0.000000
# 5 0.000000 0.000000 0.000000 0.000000 -0.000416 0.000000
# 6 0.000000 0.000000 0.000000 0.000000 0.000000 0.108786
#
#
# Mechanical properties :
#
#
# Convention : Reuss Voigt Hill
#
# Bulk Modulus (GPa) = 23.87330 31.63095 27.75212
# Shear Modulus (GPa) = 23.07475 -459.52340 -218.22433
#
# Velocity S-wave (km/s) = 3.26491 -14.56989 -10.04047
# Velocity P-wave (km/s) = 5.02408 16.38383 11.02698
#
# Compressibility (1/GPa) = 0.04188781
#
# Stress axis : x y z
#
# Youngs Moduli (GPa) = 80.97672 41.19068 98.80083
#
# Poissons Ratio (x) = 0.08534 0.32429
# Poissons Ratio (y) = 0.16776 -0.28889
# Poissons Ratio (z) = 0.26579 -0.12044
#
# Static dielectric constant tensor:
#      x y z
#    x 1.798550 0.000000 0.000000 
#    y 0.000000 1.806390 0.000000 
#    z 0.000000 0.000000 1.767910 
# 
# From -- ./inp_files/27163.got.cif
#   From: 2010.05.17/outbox.cif.g08.bks.cpg/sg62_14_cif.got.tgz:27163.got - 2010.06.03 15:25:27.
