data_PCOD9464155
_publ_section_title
;
Structure prediction by ZEFSAII (Michael W. Deem and Ramdas Pophale) SiO2 
 PCOD9464155
Probable space group: P N M A
;
_chemical_formula_sum "Si O2"
_cell_formula_units_Z 40
_cell_length_a 19.127032
_cell_length_b 14.014096
_cell_length_c 8.480708
_cell_angle_alpha 90.000000
_cell_angle_beta 90.000000
_cell_angle_gamma 90.000000
_cell_volume 2273.237349
_symmetry_space_group_name_H-M "P N M A"
_symmetry_group_IT_number 62
_symmetry_cell_setting 'orthorhombic'
loop_
_space_group_symop_operation_xyz
x,y,z
1/2-x,-y,1/2+z
1/2+x,1/2-y,1/2-z
-x,1/2+y,-z
-x,-y,-z
1/2+x,y,1/2-z
1/2-x,1/2+y,1/2+z
x,1/2-y,z
loop_
_atom_site_type_symbol
_atom_site_label
_atom_site_fract_x
_atom_site_fract_y
_atom_site_fract_z
Si Si1 0.238921 0.250000 0.659659
Si Si2 0.532244 0.750000 0.169137
Si Si3 0.136028 0.112575 0.162153
Si Si4 0.895147 0.750000 0.120005
Si Si5 0.533390 0.250000 0.174454
Si Si6 0.747757 0.250000 0.216440
Si Si7 0.102232 0.750000 0.888355
Si Si8 0.135378 0.613331 0.171958
O O1 0.230146 0.250000 0.470474
O O2 0.288045 0.340894 0.700465
O O3 0.166940 0.250000 0.752607
O O4 0.469674 0.750000 0.295925
O O5 0.581834 0.841132 0.202365
O O6 0.497919 0.750000 0.998675
O O7 0.113762 0.158813 0.995148
O O8 0.210992 0.158653 0.205083
O O9 0.082185 0.159055 0.287419
O O10 0.135825 0.999617 0.166507
O O11 0.469796 0.250000 0.297657
O O12 0.831076 0.250000 0.226944
O O13 0.111022 0.659650 0.005249
#
# Coordination Sequence:
#
# PCOD9464155 Si02
#       8
#     4   4   8   4   4   4   4   8
#     4   9  19  36  54  76 108 138 168 214 261 305
#     4  10  21  37  54  76 106 138 174 217 261 306
#     4  10  20  35  55  78 104 138 176 212 256 311
#     4  10  20  34  55  78 105 138 173 212 258 310
#     4  10  21  35  54  78 106 138 174 217 261 304
#     4   8  18  35  53  74 108 138 169 217 260 302
#     4   9  19  37  54  76 107 138 170 213 261 307
#     4   9  20  37  55  76 105 139 174 212 258 310
#
# _framework density 17.596050999999999
#
# number of rings (size 3 to 8) (size 9 to 14) (size 15 to 20)
#    0.000    3.200    0.000    3.600    0.000   10.400 
#    0.000    2.000    0.000    0.000    0.000    0.000 
#    0.000    0.000    0.000    0.000    0.000    0.000 
#
# Total GULP energy -223022.661871 kJ/mol
# GULP energy per Si atom -5575.566547 kJ/mol
# Density = 1.755600 g / cm^3
# Si number density = 17.596051 Si / 1000 Ang^3
#
#
#
# Elastic Constant Matrix: (Units=GPa)
#
#
# Indices 1 2 3 4 5 6 
#
# 1 62.2708 23.7304 -8.3043 0.0000 0.0000 0.0000
# 2 23.7304 178.9192 8.3971 0.0000 0.0000 0.0000
# 3 -8.3043 8.3971 24.6404 0.0000 0.0000 0.0000
# 4 0.0000 0.0000 0.0000 0.2403 0.0000 0.0000
# 5 0.0000 0.0000 0.0000 0.0000 44.1233 0.0000
# 6 0.0000 0.0000 0.0000 0.0000 0.0000 3.2888
#
#
#
# Elastic Compliance Matrix: (Units=1/GPa)
#
#
# Indices 1 2 3 4 5 6 
#
# 1 0.018029 -0.002720 0.007003 0.000000 0.000000 0.000000
# 2 -0.002720 0.006090 -0.002992 0.000000 0.000000 0.000000
# 3 0.007003 -0.002992 0.043964 0.000000 0.000000 0.000000
# 4 0.000000 0.000000 0.000000 4.162168 0.000000 0.000000
# 5 0.000000 0.000000 0.000000 0.000000 0.022664 0.000000
# 6 0.000000 0.000000 0.000000 0.000000 0.000000 0.304062
#
#
# Mechanical properties :
#
#
# Convention : Reuss Voigt Hill
#
# Bulk Modulus (GPa) = 14.15119 34.83075 24.49097
# Shear Modulus (GPa) = 1.09219 25.66428 13.37824
#
# Velocity S-wave (km/s) = 0.78870 3.82321 2.76034
# Velocity P-wave (km/s) = 2.98146 6.27111 4.90999
#
# Compressibility (1/GPa) = 0.07066541
#
# Stress axis : x y z
#
# Youngs Moduli (GPa) = 55.46510 164.19561 22.74609
#
# Poissons Ratio (x) = 0.44660 -0.15929
# Poissons Ratio (y) = 0.15086 0.06806
# Poissons Ratio (z) = -0.38843 0.49130
#
# Static dielectric constant tensor:
#      x y z
#    x 1.607000 0.000000 0.000000 
#    y 0.000000 1.562990 0.000000 
#    z 0.000000 0.000000 1.612400 
# 
# From -- ./inp_files/7525.got.cif
#   From: 2010.05.17/outbox.cif.g08.bks.cpg/sg62_4_cif.got.tgz:7525.got - 2010.06.03 15:25:27.
