data_PCOD9464447
_publ_section_title
;
Structure prediction by ZEFSAII (Michael W. Deem and Ramdas Pophale) SiO2 
 PCOD9464447
Probable space group: P N M A
;
_chemical_formula_sum "Si O2"
_cell_formula_units_Z 64
_cell_length_a 15.141032
_cell_length_b 31.609834
_cell_length_c 7.057579
_cell_angle_alpha 90.000000
_cell_angle_beta 90.000000
_cell_angle_gamma 90.000000
_cell_volume 3377.796183
_symmetry_space_group_name_H-M "P N M A"
_symmetry_group_IT_number 62
_symmetry_cell_setting 'orthorhombic'
loop_
_space_group_symop_operation_xyz
x,y,z
1/2-x,-y,1/2+z
1/2+x,1/2-y,1/2-z
-x,1/2+y,-z
-x,-y,-z
1/2+x,y,1/2-z
1/2-x,1/2+y,1/2+z
x,1/2-y,z
loop_
_atom_site_type_symbol
_atom_site_label
_atom_site_fract_x
_atom_site_fract_y
_atom_site_fract_z
Si Si1 0.628488 0.856401 0.645919
Si Si2 0.011363 0.799888 0.580024
Si Si3 0.868908 0.925239 0.861456
Si Si4 0.398563 0.911253 0.199047
Si Si5 0.097504 0.489257 0.439562
Si Si6 0.081023 0.633888 0.291792
Si Si7 0.669260 0.922451 0.936730
Si Si8 0.337654 0.849688 0.905301
O O1 0.568113 0.821860 0.751977
O O2 0.599233 0.861709 0.429296
O O3 0.615551 0.900480 0.763746
O O4 0.734215 0.844607 0.649105
O O5 0.024318 0.750000 0.577094
O O6 0.049364 0.822965 0.391473
O O7 0.906677 0.811055 0.595378
O O8 0.906380 0.967114 0.764487
O O9 0.764213 0.929931 0.850075
O O10 0.885010 0.883590 0.735704
O O11 0.891218 0.918234 0.078625
O O12 0.369636 0.952831 0.083744
O O13 0.501050 0.898979 0.165008
O O14 0.343540 0.872451 0.110461
O O15 0.146373 0.533313 0.465926
O O16 0.000000 0.500000 0.500000
O O17 0.163744 0.613844 0.403070
#
# Coordination Sequence:
#
# PCOD9464447 Si02
#       8
#     8   8   8   8   8   8   8   8
#     4  10  21  38  65  84 114 158 200 230 291 358
#     4  10  22  39  61  91 122 142 180 244 297 354
#     4  10  22  36  57  78 111 156 197 237 285 342
#     4  10  20  35  57  78 112 155 198 243 292 341
#     4  11  23  36  49  80 117 147 196 247 287 330
#     4  10  20  37  61  82 110 152 193 237 286 353
#     4  10  22  38  52  81 115 152 197 246 283 331
#     4   9  20  40  59  86 116 155 194 239 287 351
#
# _framework density 18.947265999999999
#
# number of rings (size 3 to 8) (size 9 to 14) (size 15 to 20)
#    0.000    2.000    1.250    1.500    5.250    2.500 
#    0.000    0.000    0.000    0.000    0.000    0.000 
#    0.000    0.000    0.000    0.000    0.000    0.000 
#
# Total GULP energy -356676.977377 kJ/mol
# GULP energy per Si atom -5573.077772 kJ/mol
# Density = 1.890414 g / cm^3
# Si number density = 18.947266 Si / 1000 Ang^3
#
#
#
# Elastic Constant Matrix: (Units=GPa)
#
#
# Indices 1 2 3 4 5 6 
#
# 1 48.7590 21.5591 2.6581 0.0000 0.0000 0.0000
# 2 21.5591 108.0016 30.1335 0.0000 0.0000 0.0000
# 3 2.6581 30.1335 128.6988 0.0000 0.0000 0.0000
# 4 0.0000 0.0000 0.0000 74.7302 0.0000 0.0000
# 5 0.0000 0.0000 0.0000 0.0000 43.4557 0.0000
# 6 0.0000 0.0000 0.0000 0.0000 0.0000 20.4871
#
#
#
# Elastic Compliance Matrix: (Units=1/GPa)
#
#
# Indices 1 2 3 4 5 6 
#
# 1 0.022542 -0.004675 0.000629 0.000000 0.000000 0.000000
# 2 -0.004675 0.010876 -0.002450 0.000000 0.000000 0.000000
# 3 0.000629 -0.002450 0.008331 0.000000 0.000000 0.000000
# 4 0.000000 0.000000 0.000000 0.013381 0.000000 0.000000
# 5 0.000000 0.000000 0.000000 0.000000 0.023012 0.000000
# 6 0.000000 0.000000 0.000000 0.000000 0.000000 0.048811
#
#
# Mechanical properties :
#
#
# Convention : Reuss Voigt Hill
#
# Bulk Modulus (GPa) = 34.77495 43.79565 39.28530
# Shear Modulus (GPa) = 33.43786 43.14183 38.28985
#
# Velocity S-wave (km/s) = 4.20549 4.77691 4.50028
# Velocity P-wave (km/s) = 6.47881 7.32051 6.91248
#
# Compressibility (1/GPa) = 0.02875634
#
# Stress axis : x y z
#
# Youngs Moduli (GPa) = 44.36171 91.94592 120.03778
#
# Poissons Ratio (x) = 0.42988 -0.07552
# Poissons Ratio (y) = 0.20741 0.29408
# Poissons Ratio (z) = -0.02791 0.22526
#
# Static dielectric constant tensor:
#      x y z
#    x 1.721470 0.000000 0.000000 
#    y 0.000000 1.708370 0.000000 
#    z 0.000000 0.000000 1.500680 
# 
# From -- ./inp_files/1877.got.cif
#   From: 2010.05.17/outbox.cif.g08.bks.cpg/sg62_1_cif.got.tgz:1877.got - 2010.06.03 15:25:27.
