data_PCOD9464448
_publ_section_title
;
Structure prediction by ZEFSAII (Michael W. Deem and Ramdas Pophale) SiO2 
 PCOD9464448
Probable space group: P N M A
;
_chemical_formula_sum "Si O2"
_cell_formula_units_Z 48
_cell_length_a 18.303903
_cell_length_b 12.621712
_cell_length_c 11.547558
_cell_angle_alpha 90.000000
_cell_angle_beta 90.000000
_cell_angle_gamma 90.000000
_cell_volume 2667.792972
_symmetry_space_group_name_H-M "P N M A"
_symmetry_group_IT_number 62
_symmetry_cell_setting 'orthorhombic'
loop_
_space_group_symop_operation_xyz
x,y,z
1/2-x,-y,1/2+z
1/2+x,1/2-y,1/2-z
-x,1/2+y,-z
-x,-y,-z
1/2+x,y,1/2-z
1/2-x,1/2+y,1/2+z
x,1/2-y,z
loop_
_atom_site_type_symbol
_atom_site_label
_atom_site_fract_x
_atom_site_fract_y
_atom_site_fract_z
Si Si1 0.960044 0.370489 0.914555
Si Si2 0.598664 0.010939 0.615855
Si Si3 0.140230 0.628583 0.469309
Si Si4 0.888222 0.973115 0.735973
Si Si5 0.546260 0.626383 0.813540
Si Si6 0.200077 0.372587 0.059324
O O1 0.940015 0.250000 0.918279
O O2 0.914530 0.433808 0.820742
O O3 0.044061 0.389399 0.881520
O O4 0.943474 0.424425 0.037030
O O5 0.667256 0.052079 0.542377
O O6 0.598091 0.952727 0.738942
O O7 0.139046 0.750000 0.420284
O O8 0.141610 0.534871 0.375673
O O9 0.070620 0.616828 0.553174
O O10 0.212844 0.622051 0.547865
O O11 0.831976 0.907400 0.815919
O O12 0.961887 0.907111 0.706568
O O13 0.556366 0.750000 0.780235
O O14 0.178288 0.250000 0.039156
#
# Coordination Sequence:
#
# PCOD9464448 Si02
#       6
#     8   8   8   8   8   8
#     4   9  16  28  48  76 104 132 173 221 267 310
#     4   9  18  29  51  80 105 140 175 221 269 319
#     4  10  22  37  55  79 110 147 183 223 275 332
#     4  10  20  35  57  79 105 145 183 226 271 324
#     4  10  20  35  57  84 112 145 187 228 271 323
#     4  10  21  36  56  81 110 146 183 227 280 329
#
# _framework density 17.9924
#
# number of rings (size 3 to 8) (size 9 to 14) (size 15 to 20)
#    0.000    2.333    0.000    3.500    2.333    0.000 
#    0.000    0.000    0.000    6.000    0.000    0.000 
#    0.000    0.000    0.000    0.000    0.000    0.000 
#
# Total GULP energy -267301.571082 kJ/mol
# GULP energy per Si atom -5568.782731 kJ/mol
# Density = 1.795145 g / cm^3
# Si number density = 17.992400 Si / 1000 Ang^3
#
#
#
# Elastic Constant Matrix: (Units=GPa)
#
#
# Indices 1 2 3 4 5 6 
#
# 1 49.2210 17.6563 21.8277 0.0000 0.0000 0.0000
# 2 17.6563 69.3754 17.9400 0.0000 0.0000 0.0000
# 3 21.8277 17.9400 60.8049 0.0000 0.0000 0.0000
# 4 0.0000 0.0000 0.0000 23.3875 0.0000 0.0000
# 5 0.0000 0.0000 0.0000 0.0000 21.6824 0.0000
# 6 0.0000 0.0000 0.0000 0.0000 0.0000 14.9230
#
#
#
# Elastic Compliance Matrix: (Units=1/GPa)
#
#
# Indices 1 2 3 4 5 6 
#
# 1 0.025366 -0.004440 -0.007796 0.000000 0.000000 0.000000
# 2 -0.004440 0.016382 -0.003240 0.000000 0.000000 0.000000
# 3 -0.007796 -0.003240 0.020200 0.000000 0.000000 0.000000
# 4 0.000000 0.000000 0.000000 0.042758 0.000000 0.000000
# 5 0.000000 0.000000 0.000000 0.000000 0.046120 0.000000
# 6 0.000000 0.000000 0.000000 0.000000 0.000000 0.067010
#
#
# Mechanical properties :
#
#
# Convention : Reuss Voigt Hill
#
# Bulk Modulus (GPa) = 32.26022 32.69439 32.47731
# Shear Modulus (GPa) = 19.29599 20.13041 19.71320
#
# Velocity S-wave (km/s) = 3.27838 3.34852 3.31364
# Velocity P-wave (km/s) = 5.68324 5.75854 5.72101
#
# Compressibility (1/GPa) = 0.03099793
#
# Stress axis : x y z
#
# Youngs Moduli (GPa) = 39.42215 61.04254 49.50375
#
# Poissons Ratio (x) = 0.27102 0.38594
# Poissons Ratio (y) = 0.17503 0.16037
# Poissons Ratio (z) = 0.30734 0.19775
#
# Static dielectric constant tensor:
#      x y z
#    x 1.630790 0.000000 0.000000 
#    y 0.000000 1.613600 0.000000 
#    z 0.000000 0.000000 1.680760 
# 
# From -- ./inp_files/14091.got.cif
#   From: 2010.05.17/outbox.cif.g08.bks.cpg/sg62_8_cif.got.tgz:14091.got - 2010.06.03 15:25:27.
