data_PCOD9464321
_publ_section_title
;
Structure prediction by ZEFSAII (Michael W. Deem and Ramdas Pophale) SiO2 
 PCOD9464321
Probable space group: P N M A
;
_chemical_formula_sum "Si O2"
_cell_formula_units_Z 64
_cell_length_a 11.771067
_cell_length_b 7.428250
_cell_length_c 31.394545
_cell_angle_alpha 90.000000
_cell_angle_beta 90.000000
_cell_angle_gamma 90.000000
_cell_volume 2745.089676
_symmetry_space_group_name_H-M "P N M A"
_symmetry_group_IT_number 62
_symmetry_cell_setting 'orthorhombic'
loop_
_space_group_symop_operation_xyz
x,y,z
1/2-x,-y,1/2+z
1/2+x,1/2-y,1/2-z
-x,1/2+y,-z
-x,-y,-z
1/2+x,y,1/2-z
1/2-x,1/2+y,1/2+z
x,1/2-y,z
loop_
_atom_site_type_symbol
_atom_site_label
_atom_site_fract_x
_atom_site_fract_y
_atom_site_fract_z
Si Si1 0.201543 0.457140 0.691957
Si Si2 0.302374 0.544566 0.027692
Si Si3 0.568310 0.028871 0.890755
Si Si4 0.688035 0.965444 0.552561
Si Si5 0.548739 0.033947 0.334052
Si Si6 0.559519 0.468320 0.433281
Si Si7 0.680255 0.534924 0.137064
Si Si8 0.181606 0.039635 0.785083
O O1 0.160980 0.250000 0.692757
O O2 0.147579 0.532194 0.648542
O O3 0.336666 0.464448 0.687315
O O4 0.171863 0.539407 0.737788
O O5 0.341344 0.750000 0.021082
O O6 0.383843 0.464537 0.063767
O O7 0.175244 0.543566 0.047526
O O8 0.279584 0.461414 0.981263
O O9 0.572584 0.250000 0.892599
O O10 0.441172 0.970452 0.879604
O O11 0.684321 0.750000 0.546786
O O12 0.559168 0.030458 0.545904
O O13 0.727637 0.999161 0.600476
O O14 0.549549 0.250000 0.332693
O O15 0.550876 0.980823 0.383577
O O16 0.437225 0.970624 0.309687
O O17 0.565799 0.250000 0.435920
O O18 0.670485 0.750000 0.141428
O O19 0.724593 0.463054 0.182311
O O20 0.211342 0.250000 0.778931
#
# Coordination Sequence:
#
# PCOD9464321 Si02
#       8
#     8   8   8   8   8   8   8   8
#     4  10  21  38  62  86 113 147 190 238 279 329
#     4  10  20  35  58  83 109 146 189 230 279 337
#     4   9  19  36  56  81 111 142 180 235 285 323
#     4  10  21  37  55  80 113 148 185 228 282 337
#     4  11  22  37  59  85 119 152 181 227 285 341
#     4  10  20  35  54  80 116 148 180 228 280 329
#     4  10  21  37  56  80 110 144 187 233 279 331
#     4  10  22  37  60  87 110 146 192 234 276 330
#
# _framework density 23.314357999999999
#
# number of rings (size 3 to 8) (size 9 to 14) (size 15 to 20)
#    0.000    2.000    2.500    0.750    1.750    2.500 
#    0.000    1.250    0.000    0.000    0.000    0.000 
#    0.000    0.000    0.000    0.000    0.000    0.000 
#
# Total GULP energy -357651.601926 kJ/mol
# GULP energy per Si atom -5588.306280 kJ/mol
# Density = 2.326129 g / cm^3
# Si number density = 23.314358 Si / 1000 Ang^3
#
#
#
# Elastic Constant Matrix: (Units=GPa)
#
#
# Indices 1 2 3 4 5 6 
#
# 1 48.2300 -17.8596 -34.1742 0.0000 0.0000 0.0000
# 2 -17.8596 76.8599 -3.3207 0.0000 0.0000 0.0000
# 3 -34.1742 -3.3207 61.2336 0.0000 0.0000 0.0000
# 4 0.0000 0.0000 0.0000 -18.7347 0.0000 0.0000
# 5 0.0000 0.0000 0.0000 0.0000 20.8207 0.0000
# 6 0.0000 0.0000 0.0000 0.0000 0.0000 -29.7130
#
#
#
# Elastic Compliance Matrix: (Units=1/GPa)
#
#
# Indices 1 2 3 4 5 6 
#
# 1 0.041511 0.010672 0.023746 0.000000 0.000000 0.000000
# 2 0.010672 0.015785 0.006812 0.000000 0.000000 0.000000
# 3 0.023746 0.006812 0.029953 0.000000 0.000000 0.000000
# 4 0.000000 0.000000 0.000000 -0.053377 0.000000 0.000000
# 5 0.000000 0.000000 0.000000 0.000000 0.048029 0.000000
# 6 0.000000 0.000000 0.000000 0.000000 0.000000 -0.033655
#
#
# Mechanical properties :
#
#
# Convention : Reuss Voigt Hill
#
# Bulk Modulus (GPa) = 5.89246 8.40162 7.14704
# Shear Modulus (GPa) = 223.65232 10.58647 117.11939
#
# Velocity S-wave (km/s) = 9.80496 2.13322 7.09535
# Velocity P-wave (km/s) = 11.43311 3.11110 8.37839
#
# Compressibility (1/GPa) = 0.16970842
#
# Stress axis : x y z
#
# Youngs Moduli (GPa) = 24.08976 63.35237 33.38575
#
# Poissons Ratio (x) = -0.67608 -0.79278
# Poissons Ratio (y) = -0.25708 -0.22742
# Poissons Ratio (z) = -0.57204 -0.43155
#
# Static dielectric constant tensor:
#      x y z
#    x 1.828610 0.000000 0.000000 
#    y 0.000000 1.849990 0.000000 
#    z 0.000000 0.000000 1.893570 
# 
# From -- ./inp_files/32597.got.cif
#   From: 2010.05.17/outbox.cif.g08.bks.cpg/sg62_17_cif.got.tgz:32597.got - 2010.06.03 15:25:27.
