data_PCOD9464630
_publ_section_title
;
Structure prediction by ZEFSAII (Michael W. Deem and Ramdas Pophale) SiO2 
 PCOD9464630
Probable space group: P N M A
;
_chemical_formula_sum "Si O2"
_cell_formula_units_Z 48
_cell_length_a 9.138878
_cell_length_b 8.203881
_cell_length_c 31.824041
_cell_angle_alpha 90.000000
_cell_angle_beta 90.000000
_cell_angle_gamma 90.000000
_cell_volume 2385.984166
_symmetry_space_group_name_H-M "P N M A"
_symmetry_group_IT_number 62
_symmetry_cell_setting 'orthorhombic'
loop_
_space_group_symop_operation_xyz
x,y,z
1/2-x,-y,1/2+z
1/2+x,1/2-y,1/2-z
-x,1/2+y,-z
-x,-y,-z
1/2+x,y,1/2-z
1/2-x,1/2+y,1/2+z
x,1/2-y,z
loop_
_atom_site_type_symbol
_atom_site_label
_atom_site_fract_x
_atom_site_fract_y
_atom_site_fract_z
Si Si1 0.417714 0.553136 0.958022
Si Si2 0.081741 0.947105 0.957860
Si Si3 0.425841 0.441718 0.287758
Si Si4 0.917775 0.949047 0.873472
Si Si5 0.099572 0.939335 0.292238
Si Si6 0.919861 0.052471 0.373246
O O1 0.415775 0.750000 0.957050
O O2 0.249778 0.495757 0.957815
O O3 0.503245 0.497817 0.916365
O O4 0.500000 0.500000 0.000000
O O5 0.083291 0.750000 0.956781
O O6 0.996819 0.003953 0.916142
O O7 0.000000 0.000000 0.000000
O O8 0.459034 0.250000 0.283336
O O9 0.495068 0.499519 0.331810
O O10 0.500150 0.529810 0.248539
O O11 0.252027 0.465515 0.288403
O O12 0.919010 0.750000 0.874079
O O13 0.748971 0.001255 0.871741
O O14 0.136312 0.750000 0.295444
O O15 0.009971 0.993220 0.333194
O O16 0.920752 0.250000 0.372681
#
# Coordination Sequence:
#
# PCOD9464630 Si02
#       6
#     8   8   8   8   8   8
#     4  10  21  36  58  85 116 152 196 245 295 352
#     4  10  20  36  56  83 114 148 189 237 289 343
#     4  11  22  40  64  87 114 156 201 239 286 356
#     4   9  19  36  61  86 109 142 193 243 281 333
#     4  12  25  40  59  89 124 154 189 245 303 349
#     4  10  20  38  62  86 112 152 199 241 289 357
#
# _framework density 20.117487000000001
#
# number of rings (size 3 to 8) (size 9 to 14) (size 15 to 20)
#    0.000    1.667    0.000    5.000    0.000    6.667 
#    0.000    5.000    0.000    0.000    0.000    0.000 
#    0.000    0.000    0.000    0.000    0.000    0.000 
#
# Total GULP energy -268399.825038 kJ/mol
# GULP energy per Si atom -5591.663022 kJ/mol
# Density = 2.007170 g / cm^3
# Si number density = 20.117487 Si / 1000 Ang^3
#
#
#
# Elastic Constant Matrix: (Units=GPa)
#
#
# Indices 1 2 3 4 5 6 
#
# 1 152.2275 -6.0980 82.8395 0.0000 0.0000 0.0000
# 2 -6.0980 15.8696 0.6573 0.0000 0.0000 0.0000
# 3 82.8395 0.6573 191.1851 0.0000 0.0000 0.0000
# 4 0.0000 0.0000 0.0000 31.1565 0.0000 0.0000
# 5 0.0000 0.0000 0.0000 0.0000 45.4731 0.0000
# 6 0.0000 0.0000 0.0000 0.0000 0.0000 19.2155
#
#
#
# Elastic Compliance Matrix: (Units=1/GPa)
#
#
# Indices 1 2 3 4 5 6 
#
# 1 0.008790 0.003536 -0.003821 0.000000 0.000000 0.000000
# 2 0.003536 0.064445 -0.001754 0.000000 0.000000 0.000000
# 3 -0.003821 -0.001754 0.006892 0.000000 0.000000 0.000000
# 4 0.000000 0.000000 0.000000 0.032096 0.000000 0.000000
# 5 0.000000 0.000000 0.000000 0.000000 0.021991 0.000000
# 6 0.000000 0.000000 0.000000 0.000000 0.000000 0.052041
#
#
# Mechanical properties :
#
#
# Convention : Reuss Voigt Hill
#
# Bulk Modulus (GPa) = 13.14924 57.11994 35.13459
# Shear Modulus (GPa) = 23.18223 37.96127 30.57175
#
# Velocity S-wave (km/s) = 3.39830 4.34865 3.90251
# Velocity P-wave (km/s) = 4.68491 7.32592 6.14888
#
# Compressibility (1/GPa) = 0.07604999
#
# Stress axis : x y z
#
# Youngs Moduli (GPa) = 113.76605 15.51710 145.09377
#
# Poissons Ratio (x) = -0.05487 0.55437
# Poissons Ratio (y) = -0.40226 0.25444
# Poissons Ratio (z) = 0.43468 0.02721
#
# Static dielectric constant tensor:
#      x y z
#    x 1.676650 0.000000 0.000000 
#    y 0.000000 1.715830 0.000000 
#    z 0.000000 0.000000 1.664360 
# 
# From -- ./inp_files/32014.got.cif
#   From: 2010.05.17/outbox.cif.g08.bks.cpg/sg62_17_cif.got.tgz:32014.got - 2010.06.03 15:25:27.
