data_PCOD9464817
_publ_section_title
;
Structure prediction by ZEFSAII (Michael W. Deem and Ramdas Pophale) SiO2 
 PCOD9464817
Probable space group: P N M A
;
_chemical_formula_sum "Si O2"
_cell_formula_units_Z 48
_cell_length_a 9.113023
_cell_length_b 16.805662
_cell_length_c 14.405848
_cell_angle_alpha 90.000000
_cell_angle_beta 90.000000
_cell_angle_gamma 90.000000
_cell_volume 2206.261158
_symmetry_space_group_name_H-M "P N M A"
_symmetry_group_IT_number 62
_symmetry_cell_setting 'orthorhombic'
loop_
_space_group_symop_operation_xyz
x,y,z
1/2-x,-y,1/2+z
1/2+x,1/2-y,1/2-z
-x,1/2+y,-z
-x,-y,-z
1/2+x,y,1/2-z
1/2-x,1/2+y,1/2+z
x,1/2-y,z
loop_
_atom_site_type_symbol
_atom_site_label
_atom_site_fract_x
_atom_site_fract_y
_atom_site_fract_z
Si Si1 0.481550 0.095671 0.080574
Si Si2 0.250556 0.982304 0.002579
Si Si3 0.474121 0.154041 0.870608
Si Si4 0.818020 0.658770 0.220992
Si Si5 0.437725 0.750000 0.616348
Si Si6 0.518351 0.118620 0.541733
Si Si7 0.606695 0.750000 0.803962
O O1 0.459561 0.168430 0.151202
O O2 0.351681 0.030250 0.076430
O O3 0.638364 0.051251 0.076140
O O4 0.472785 0.132506 0.977282
O O5 0.148469 0.911231 0.039718
O O6 0.130865 0.044931 0.965721
O O7 0.472956 0.250000 0.866409
O O8 0.329054 0.122808 0.819952
O O9 0.610113 0.122869 0.811732
O O10 0.782390 0.750000 0.243793
O O11 0.937886 0.658724 0.138592
O O12 0.451525 0.675238 0.546438
O O13 0.562964 0.750000 0.695526
O O14 0.279290 0.750000 0.667947
#
# Coordination Sequence:
#
# PCOD9464817 Si02
#       7
#     8   8   8   8   4   8   4
#     4  11  22  46  67  93 134 176 221 274 335 397
#     4  10  24  40  70  94 130 180 220 268 340 404
#     4  10  20  36  61  93 122 156 201 257 317 377
#     4  10  20  36  61  93 122 156 201 257 317 377
#     4  12  26  46  73 100 134 183 236 291 331 395
#     4  11  22  46  67  93 134 176 221 274 335 397
#     4  12  26  46  73 100 134 183 236 291 331 395
#
# _framework density 21.756263000000001
#
# number of rings (size 3 to 8) (size 9 to 14) (size 15 to 20)
#    0.000    1.333    5.000    0.000    4.667    0.000 
#    0.000   10.000    0.000    0.000    0.000    0.000 
#    0.000    0.000    0.000    0.000    0.000    0.000 
#
# Total GULP energy -268001.122852 kJ/mol
# GULP energy per Si atom -5583.356726 kJ/mol
# Density = 2.170675 g / cm^3
# Si number density = 21.756263 Si / 1000 Ang^3
#
#
#
# Elastic Constant Matrix: (Units=GPa)
#
#
# Indices 1 2 3 4 5 6 
#
# 1 118.1095 41.6292 33.8208 0.0000 0.0000 0.0000
# 2 41.6292 81.4573 18.0257 0.0000 0.0000 0.0000
# 3 33.8208 18.0257 84.9048 0.0000 0.0000 0.0000
# 4 0.0000 0.0000 0.0000 12.1558 0.0000 0.0000
# 5 0.0000 0.0000 0.0000 0.0000 22.6248 0.0000
# 6 0.0000 0.0000 0.0000 0.0000 0.0000 36.9809
#
#
#
# Elastic Compliance Matrix: (Units=1/GPa)
#
#
# Indices 1 2 3 4 5 6 
#
# 1 0.011192 -0.004966 -0.003404 0.000000 0.000000 0.000000
# 2 -0.004966 0.015085 -0.001224 0.000000 0.000000 0.000000
# 3 -0.003404 -0.001224 0.013394 0.000000 0.000000 0.000000
# 4 0.000000 0.000000 0.000000 0.082265 0.000000 0.000000
# 5 0.000000 0.000000 0.000000 0.000000 0.044199 0.000000
# 6 0.000000 0.000000 0.000000 0.000000 0.000000 0.027041
#
#
# Mechanical properties :
#
#
# Convention : Reuss Voigt Hill
#
# Bulk Modulus (GPa) = 48.82374 52.38033 50.60203
# Shear Modulus (GPa) = 22.81095 27.08536 24.94815
#
# Velocity S-wave (km/s) = 3.24153 3.53221 3.38999
# Velocity P-wave (km/s) = 6.04152 6.38463 6.21545
#
# Compressibility (1/GPa) = 0.02048184
#
# Stress axis : x y z
#
# Youngs Moduli (GPa) = 89.35048 66.28906 74.66207
#
# Poissons Ratio (x) = 0.32922 0.25413
# Poissons Ratio (y) = 0.44376 0.09141
# Poissons Ratio (z) = 0.30413 0.08116
#
# Static dielectric constant tensor:
#      x y z
#    x 1.829890 0.000000 0.000000 
#    y 0.000000 1.830170 0.000000 
#    z 0.000000 0.000000 1.753870 
# 
# From -- ./inp_files/17014.got.cif
#   From: 2010.05.17/outbox.cif.g08.bks.cpg/sg62_9_cif.got.tgz:17014.got - 2010.06.03 15:25:27.
