data_PCOD9464044
_publ_section_title
;
Structure prediction by ZEFSAII (Michael W. Deem and Ramdas Pophale) SiO2 
 PCOD9464044
Probable space group: P N M A
;
_chemical_formula_sum "Si O2"
_cell_formula_units_Z 48
_cell_length_a 12.251962
_cell_length_b 7.455184
_cell_length_c 23.509890
_cell_angle_alpha 90.000000
_cell_angle_beta 90.000000
_cell_angle_gamma 90.000000
_cell_volume 2147.408189
_symmetry_space_group_name_H-M "P N M A"
_symmetry_group_IT_number 62
_symmetry_cell_setting 'orthorhombic'
loop_
_space_group_symop_operation_xyz
x,y,z
1/2-x,-y,1/2+z
1/2+x,1/2-y,1/2-z
-x,1/2+y,-z
-x,-y,-z
1/2+x,y,1/2-z
1/2-x,1/2+y,1/2+z
x,1/2-y,z
loop_
_atom_site_type_symbol
_atom_site_label
_atom_site_fract_x
_atom_site_fract_y
_atom_site_fract_z
Si Si1 0.351017 0.041588 0.041965
Si Si2 0.763188 0.460073 0.575340
Si Si3 0.316672 0.031987 0.640156
Si Si4 0.933070 0.970455 0.147507
Si Si5 0.144860 0.040985 0.730761
Si Si6 0.022197 0.034651 0.367168
O O1 0.378995 0.250000 0.032082
O O2 0.451933 0.965575 0.078433
O O3 0.248586 0.029738 0.084560
O O4 0.316099 0.960034 0.981803
O O5 0.745123 0.250000 0.563374
O O6 0.648494 0.531494 0.597909
O O7 0.853906 0.476461 0.624521
O O8 0.313418 0.250000 0.640138
O O9 0.441728 0.974552 0.640995
O O10 0.246536 0.967076 0.694579
O O11 0.932965 0.750000 0.147877
O O12 0.884985 0.033561 0.207881
O O13 0.169637 0.250000 0.739876
O O14 0.040245 0.027966 0.689095
O O15 0.017733 0.250000 0.366911
#
# Coordination Sequence:
#
# PCOD9464044 Si02
#       6
#     8   8   8   8   8   8
#     4   9  19  35  53  75 106 141 174 212 263 312
#     4  10  20  34  54  79 106 138 176 218 259 305
#     4   9  18  33  53  77 102 133 173 215 260 308
#     4   9  19  33  53  80 104 131 175 222 257 302
#     4   9  18  33  55  76  99 133 171 214 260 307
#     4  10  20  34  52  77 107 138 173 216 260 310
#
# _framework density 22.352526000000001
#
# number of rings (size 3 to 8) (size 9 to 14) (size 15 to 20)
#    0.000    2.667    0.000    1.000    2.333    2.000 
#    0.000    2.500    0.000    0.000    0.000    0.000 
#    0.000    0.000    0.000    0.000    0.000    0.000 
#
# Total GULP energy -268062.425885 kJ/mol
# GULP energy per Si atom -5584.633873 kJ/mol
# Density = 2.230165 g / cm^3
# Si number density = 22.352526 Si / 1000 Ang^3
#
#
#
# Elastic Constant Matrix: (Units=GPa)
#
#
# Indices 1 2 3 4 5 6 
#
# 1 111.4533 -13.5646 11.0239 0.0000 0.0000 0.0000
# 2 -13.5646 68.4171 -6.6474 0.0000 0.0000 0.0000
# 3 11.0239 -6.6474 49.7133 0.0000 0.0000 0.0000
# 4 0.0000 0.0000 0.0000 0.3288 0.0000 0.0000
# 5 0.0000 0.0000 0.0000 0.0000 2.8055 0.0000
# 6 0.0000 0.0000 0.0000 0.0000 0.0000 -23.2203
#
#
#
# Elastic Compliance Matrix: (Units=1/GPa)
#
#
# Indices 1 2 3 4 5 6 
#
# 1 0.009359 0.001676 -0.001851 0.000000 0.000000 0.000000
# 2 0.001676 0.015109 0.001649 0.000000 0.000000 0.000000
# 3 -0.001851 0.001649 0.020746 0.000000 0.000000 0.000000
# 4 0.000000 0.000000 0.000000 3.041299 0.000000 0.000000
# 5 0.000000 0.000000 0.000000 0.000000 0.356444 0.000000
# 6 0.000000 0.000000 0.000000 0.000000 0.000000 -0.043066
#
#
# Mechanical properties :
#
#
# Convention : Reuss Voigt Hill
#
# Bulk Modulus (GPa) = 20.76392 23.46750 22.11571
# Shear Modulus (GPa) = 1.46499 11.90092 6.68295
#
# Velocity S-wave (km/s) = 0.81045 2.30992 1.73098
# Velocity P-wave (km/s) = 3.19143 4.19952 3.72969
#
# Compressibility (1/GPa) = 0.04816047
#
# Stress axis : x y z
#
# Youngs Moduli (GPa) = 106.84401 66.18724 48.20130
#
# Poissons Ratio (x) = -0.11091 0.08924
# Poissons Ratio (y) = -0.17904 -0.07947
# Poissons Ratio (z) = 0.19781 -0.10912
#
# Static dielectric constant tensor:
#      x y z
#    x 1.793530 0.000000 0.000000 
#    y 0.000000 1.858250 0.000000 
#    z 0.000000 0.000000 1.817270 
# 
# From -- ./inp_files/29220.got.cif
#   From: 2010.05.17/outbox.cif.g08.bks.cpg/sg62_15_cif.got.tgz:29220.got - 2010.06.03 15:25:27.
