data_PCOD9464953
_publ_section_title
;
Structure prediction by ZEFSAII (Michael W. Deem and Ramdas Pophale) SiO2 
 PCOD9464953
Probable space group: P N M A
;
_chemical_formula_sum "Si O2"
_cell_formula_units_Z 48
_cell_length_a 20.580179
_cell_length_b 8.571257
_cell_length_c 14.723797
_cell_angle_alpha 90.000000
_cell_angle_beta 90.000000
_cell_angle_gamma 90.000000
_cell_volume 2597.248392
_symmetry_space_group_name_H-M "P N M A"
_symmetry_group_IT_number 62
_symmetry_cell_setting 'orthorhombic'
loop_
_space_group_symop_operation_xyz
x,y,z
1/2-x,-y,1/2+z
1/2+x,1/2-y,1/2-z
-x,1/2+y,-z
-x,-y,-z
1/2+x,y,1/2-z
1/2-x,1/2+y,1/2+z
x,1/2-y,z
loop_
_atom_site_type_symbol
_atom_site_label
_atom_site_fract_x
_atom_site_fract_y
_atom_site_fract_z
Si Si1 0.298122 0.060276 0.776733
Si Si2 0.670113 0.436678 0.834331
Si Si3 0.076708 0.936576 0.161401
Si Si4 0.439708 0.434442 0.290291
Si Si5 0.622511 0.436184 0.525997
Si Si6 0.225393 0.561782 0.481884
O O1 0.297592 0.250000 0.776549
O O2 0.232292 0.010459 0.725957
O O3 0.361476 0.010519 0.721060
O O4 0.297243 0.011619 0.881617
O O5 0.665611 0.250000 0.827196
O O6 0.605881 0.510698 0.791875
O O7 0.685464 0.485872 0.936854
O O8 0.079895 0.750000 0.150886
O O9 0.082397 0.012974 0.062197
O O10 0.009565 0.983554 0.207924
O O11 0.448500 0.250000 0.288103
O O12 0.403706 0.483420 0.383487
O O13 0.618586 0.250000 0.538865
O O14 0.698093 0.477907 0.509674
O O15 0.220071 0.750000 0.488143
#
# Coordination Sequence:
#
# PCOD9464953 Si02
#       6
#     8   8   8   8   8   8
#     4   9  19  37  61  86 117 153 195 242 292 346
#     4  11  21  39  62  89 119 154 197 244 293 350
#     4  11  22  39  61  87 120 160 200 245 299 357
#     4  12  25  40  58  86 121 160 201 245 298 356
#     4  11  21  36  60  90 124 157 192 244 299 356
#     4  10  20  37  60  90 121 152 191 242 293 346
#
# _framework density 18.481097999999999
#
# number of rings (size 3 to 8) (size 9 to 14) (size 15 to 20)
#    0.000    1.333    3.333    3.500    0.000    0.667 
#    0.000    2.500    0.000    0.000    0.000    0.000 
#    0.000    0.000    0.000    0.000    0.000    0.000 
#
# Total GULP energy -268333.563507 kJ/mol
# GULP energy per Si atom -5590.282573 kJ/mol
# Density = 1.843903 g / cm^3
# Si number density = 18.481098 Si / 1000 Ang^3
#
#
#
# Elastic Constant Matrix: (Units=GPa)
#
#
# Indices 1 2 3 4 5 6 
#
# 1 39.5288 -5.5563 -10.4222 0.0000 0.0000 0.0000
# 2 -5.5563 15.9362 -3.1917 0.0000 0.0000 0.0000
# 3 -10.4222 -3.1917 75.5360 0.0000 0.0000 0.0000
# 4 0.0000 0.0000 0.0000 25.7210 0.0000 0.0000
# 5 0.0000 0.0000 0.0000 0.0000 27.7180 0.0000
# 6 0.0000 0.0000 0.0000 0.0000 0.0000 18.2860
#
#
#
# Elastic Compliance Matrix: (Units=1/GPa)
#
#
# Indices 1 2 3 4 5 6 
#
# 1 0.027921 0.010596 0.004300 0.000000 0.000000 0.000000
# 2 0.010596 0.067307 0.004306 0.000000 0.000000 0.000000
# 3 0.004300 0.004306 0.014014 0.000000 0.000000 0.000000
# 4 0.000000 0.000000 0.000000 0.038879 0.000000 0.000000
# 5 0.000000 0.000000 0.000000 0.000000 0.036078 0.000000
# 6 0.000000 0.000000 0.000000 0.000000 0.000000 0.054687
#
#
# Mechanical properties :
#
#
# Convention : Reuss Voigt Hill
#
# Bulk Modulus (GPa) = 6.77290 10.29564 8.53427
# Shear Modulus (GPa) = 20.02434 24.35641 22.19037
#
# Velocity S-wave (km/s) = 3.29523 3.63424 3.46888
# Velocity P-wave (km/s) = 4.26038 4.81594 4.54665
#
# Compressibility (1/GPa) = 0.14764714
#
# Stress axis : x y z
#
# Youngs Moduli (GPa) = 35.81501 14.85728 71.35729
#
# Poissons Ratio (x) = -0.15743 -0.30685
# Poissons Ratio (y) = -0.37950 -0.30727
# Poissons Ratio (z) = -0.15401 -0.06398
#
# Static dielectric constant tensor:
#      x y z
#    x 1.625830 0.000000 0.000000 
#    y 0.000000 1.621400 0.000000 
#    z 0.000000 0.000000 1.611880 
# 
# From -- ./inp_files/19581.got.cif
#   From: 2010.05.17/outbox.cif.g08.bks.cpg/sg62_10_cif.got.tgz:19581.got - 2010.06.03 15:25:27.
