data_PCOD9464729
_publ_section_title
;
Structure prediction by ZEFSAII (Michael W. Deem and Ramdas Pophale) SiO2 
 PCOD9464729
Probable space group: P N M A
;
_chemical_formula_sum "Si O2"
_cell_formula_units_Z 56
_cell_length_a 22.364299
_cell_length_b 24.182878
_cell_length_c 5.185658
_cell_angle_alpha 90.000000
_cell_angle_beta 90.000000
_cell_angle_gamma 90.000000
_cell_volume 2804.575566
_symmetry_space_group_name_H-M "P N M A"
_symmetry_group_IT_number 62
_symmetry_cell_setting 'orthorhombic'
loop_
_space_group_symop_operation_xyz
x,y,z
1/2-x,-y,1/2+z
1/2+x,1/2-y,1/2-z
-x,1/2+y,-z
-x,-y,-z
1/2+x,y,1/2-z
1/2-x,1/2+y,1/2+z
x,1/2-y,z
loop_
_atom_site_type_symbol
_atom_site_label
_atom_site_fract_x
_atom_site_fract_y
_atom_site_fract_z
Si Si1 0.889271 0.436098 0.874032
Si Si2 0.044742 0.904173 0.641338
Si Si3 0.754515 0.461615 0.933747
Si Si4 0.659975 0.129356 0.109927
Si Si5 0.568446 0.059233 0.416180
Si Si6 0.657161 0.250000 0.056938
Si Si7 0.961581 0.645409 0.304108
Si Si8 0.922103 0.750000 0.046709
O O1 0.913285 0.427419 0.584794
O O2 0.818057 0.433178 0.881629
O O3 0.907880 0.498268 0.956316
O O4 0.918575 0.398069 0.095303
O O5 0.984740 0.939956 0.705113
O O6 0.013466 0.850669 0.513990
O O7 0.740030 0.499354 0.685856
O O8 0.704471 0.415561 0.991694
O O9 0.625153 0.098770 0.345744
O O10 0.688051 0.191081 0.130771
O O11 0.603038 0.142349 0.933023
O O12 0.535293 0.087505 0.654542
O O13 0.601493 0.250000 0.257231
O O14 0.632826 0.250000 0.759999
O O15 0.959752 0.695587 0.107381
#
# Coordination Sequence:
#
# PCOD9464729 Si02
#       8
#     8   8   8   8   8   4   8   4
#     4  12  24  37  56  84 123 159 200 236 293 364
#     4  11  24  37  56  86 119 158 194 238 293 359
#     4  12  25  42  61  86 123 166 205 251 305 365
#     4  10  22  37  61  92 120 157 200 253 313 360
#     4  11  20  36  60  86 122 150 193 244 299 364
#     4  10  20  36  60  88 121 149 196 254 309 360
#     4  10  21  37  62  88 122 150 197 248 305 368
#     4  10  20  36  58  92 117 153 186 254 313 352
#
# _framework density 19.967369000000001
#
# number of rings (size 3 to 8) (size 9 to 14) (size 15 to 20)
#    0.000    1.143    4.286    2.571    4.000    0.000 
#    0.000    0.000    0.000    1.714    0.000    0.000 
#    0.000    0.000    0.000    0.000    0.000    0.000 
#
# Total GULP energy -312244.563191 kJ/mol
# GULP energy per Si atom -5575.795771 kJ/mol
# Density = 1.992192 g / cm^3
# Si number density = 19.967369 Si / 1000 Ang^3
#
#
#
# Elastic Constant Matrix: (Units=GPa)
#
#
# Indices 1 2 3 4 5 6 
#
# 1 73.1233 2.7931 8.3928 0.0000 0.0000 0.0000
# 2 2.7931 52.8079 3.9250 0.0000 0.0000 0.0000
# 3 8.3928 3.9250 85.5830 0.0000 0.0000 0.0000
# 4 0.0000 0.0000 0.0000 21.3316 0.0000 0.0000
# 5 0.0000 0.0000 0.0000 0.0000 22.4398 0.0000
# 6 0.0000 0.0000 0.0000 0.0000 0.0000 7.2969
#
#
#
# Elastic Compliance Matrix: (Units=1/GPa)
#
#
# Indices 1 2 3 4 5 6 
#
# 1 0.013852 -0.000634 -0.001329 0.000000 0.000000 0.000000
# 2 -0.000634 0.019030 -0.000811 0.000000 0.000000 0.000000
# 3 -0.001329 -0.000811 0.011852 0.000000 0.000000 0.000000
# 4 0.000000 0.000000 0.000000 0.046879 0.000000 0.000000
# 5 0.000000 0.000000 0.000000 0.000000 0.044564 0.000000
# 6 0.000000 0.000000 0.000000 0.000000 0.000000 0.137044
#
#
# Mechanical properties :
#
#
# Convention : Reuss Voigt Hill
#
# Bulk Modulus (GPa) = 25.51862 26.85956 26.18909
# Shear Modulus (GPa) = 17.13316 23.30720 20.22018
#
# Velocity S-wave (km/s) = 2.93244 3.42023 3.18569
# Velocity P-wave (km/s) = 4.92682 5.39242 5.16487
#
# Compressibility (1/GPa) = 0.03918707
#
# Stress axis : x y z
#
# Youngs Moduli (GPa) = 72.19008 52.54766 84.37316
#
# Poissons Ratio (x) = 0.03331 0.11216
# Poissons Ratio (y) = 0.04576 0.06839
# Poissons Ratio (z) = 0.09597 0.04260
#
# Static dielectric constant tensor:
#      x y z
#    x 1.716920 0.000000 0.000000 
#    y 0.000000 1.762780 0.000000 
#    z 0.000000 0.000000 1.755170 
# 
# From -- ./inp_files/2308.got.cif
#   From: 2010.05.17/outbox.cif.g08.bks.cpg/sg62_2_cif.got.tgz:2308.got - 2010.06.03 15:25:27.
