data_PCOD9464055
_publ_section_title
;
Structure prediction by ZEFSAII (Michael W. Deem and Ramdas Pophale) SiO2 
 PCOD9464055
Probable space group: P N M A
;
_chemical_formula_sum "Si O2"
_cell_formula_units_Z 64
_cell_length_a 18.779771
_cell_length_b 12.981605
_cell_length_c 15.324442
_cell_angle_alpha 90.000000
_cell_angle_beta 90.000000
_cell_angle_gamma 90.000000
_cell_volume 3735.969761
_symmetry_space_group_name_H-M "P N M A"
_symmetry_group_IT_number 62
_symmetry_cell_setting 'orthorhombic'
loop_
_space_group_symop_operation_xyz
x,y,z
1/2-x,-y,1/2+z
1/2+x,1/2-y,1/2-z
-x,1/2+y,-z
-x,-y,-z
1/2+x,y,1/2-z
1/2-x,1/2+y,1/2+z
x,1/2-y,z
loop_
_atom_site_type_symbol
_atom_site_label
_atom_site_fract_x
_atom_site_fract_y
_atom_site_fract_z
Si Si1 0.038753 0.632153 0.188090
Si Si2 0.856827 0.367321 0.167922
Si Si3 0.789706 0.127775 0.349540
Si Si4 0.385861 0.484694 0.012464
Si Si5 0.763925 0.633339 0.525229
Si Si6 0.661537 0.998126 0.406158
Si Si7 0.499786 0.626173 0.109630
Si Si8 0.064197 0.461877 0.940063
O O1 0.064865 0.750000 0.184150
O O2 0.099694 0.556048 0.150496
O O3 0.016503 0.609409 0.287804
O O4 0.969996 0.621224 0.124634
O O5 0.884830 0.250000 0.169301
O O6 0.834850 0.400642 0.264056
O O7 0.785081 0.366745 0.110650
O O8 0.909726 0.444842 0.120860
O O9 0.780281 0.250000 0.349198
O O10 0.836094 0.090301 0.431161
O O11 0.713586 0.071949 0.352684
O O12 0.433329 0.558081 0.075482
O O13 0.331757 0.560920 0.963425
O O14 0.435407 0.418435 0.948575
O O15 0.785252 0.750000 0.504900
O O16 0.712922 0.588232 0.449255
O O17 0.626555 0.058127 0.489353
O O18 0.490235 0.750000 0.096594
O O19 0.000000 0.500000 0.000000
#
# Coordination Sequence:
#
# PCOD9464055 Si02
#       8
#     8   8   8   8   8   8   8   8
#     4  10  20  34  53  74 102 137 172 215 258 306
#     4   9  18  32  52  76 102 133 169 210 253 307
#     4  10  20  34  53  76 105 136 168 209 259 310
#     4  10  20  34  53  73 100 139 166 214 259 304
#     4   9  17  31  52  76  99 130 173 210 251 305
#     4   9  19  33  52  77 104 136 168 215 258 311
#     4  10  21  35  52  75 101 132 174 213 256 308
#     4   9  18  33  52  77 104 135 173 210 258 302
#
# _framework density 17.130759000000001
#
# number of rings (size 3 to 8) (size 9 to 14) (size 15 to 20)
#    0.000    2.500    0.000    1.875    1.750    3.500 
#    0.000    1.875    0.000    2.250    0.000    0.000 
#    0.000    0.000    0.000    0.000    0.000    0.000 
#
# Total GULP energy -356519.216233 kJ/mol
# GULP energy per Si atom -5570.612754 kJ/mol
# Density = 1.709177 g / cm^3
# Si number density = 17.130759 Si / 1000 Ang^3
#
#
#
# Elastic Constant Matrix: (Units=GPa)
#
#
# Indices 1 2 3 4 5 6 
#
# 1 58.5514 25.7086 13.8946 0.0000 0.0000 0.0000
# 2 25.7086 54.5657 34.8000 0.0000 0.0000 0.0000
# 3 13.8946 34.8000 70.7486 0.0000 0.0000 0.0000
# 4 0.0000 0.0000 0.0000 18.6187 0.0000 0.0000
# 5 0.0000 0.0000 0.0000 0.0000 16.7061 0.0000
# 6 0.0000 0.0000 0.0000 0.0000 0.0000 24.5170
#
#
#
# Elastic Compliance Matrix: (Units=1/GPa)
#
#
# Indices 1 2 3 4 5 6 
#
# 1 0.021594 -0.010883 0.001112 0.000000 0.000000 0.000000
# 2 -0.010883 0.032189 -0.013696 0.000000 0.000000 0.000000
# 3 0.001112 -0.013696 0.020653 0.000000 0.000000 0.000000
# 4 0.000000 0.000000 0.000000 0.053710 0.000000 0.000000
# 5 0.000000 0.000000 0.000000 0.000000 0.059859 0.000000
# 6 0.000000 0.000000 0.000000 0.000000 0.000000 0.040788
#
#
# Mechanical properties :
#
#
# Convention : Reuss Voigt Hill
#
# Bulk Modulus (GPa) = 36.36090 36.96359 36.66224
# Shear Modulus (GPa) = 17.55052 19.26584 18.40818
#
# Velocity S-wave (km/s) = 3.20426 3.35719 3.28162
# Velocity P-wave (km/s) = 5.91281 6.05408 5.98386
#
# Compressibility (1/GPa) = 0.02750207
#
# Stress axis : x y z
#
# Youngs Moduli (GPa) = 46.30992 31.06670 48.41964
#
# Poissons Ratio (x) = 0.33811 -0.05386
# Poissons Ratio (y) = 0.50401 0.66314
# Poissons Ratio (z) = -0.05152 0.42548
#
# Static dielectric constant tensor:
#      x y z
#    x 1.571620 0.000000 0.000000 
#    y 0.000000 1.571070 0.000000 
#    z 0.000000 0.000000 1.577360 
# 
# From -- ./inp_files/19923.got.cif
#   From: 2010.05.17/outbox.cif.g08.bks.cpg/sg62_10_cif.got.tgz:19923.got - 2010.06.03 15:25:27.
