data_PCOD9464197
_publ_section_title
;
Structure prediction by ZEFSAII (Michael W. Deem and Ramdas Pophale) SiO2 
 PCOD9464197
Probable space group: P N M A
;
_chemical_formula_sum "Si O2"
_cell_formula_units_Z 56
_cell_length_a 8.433290
_cell_length_b 16.025371
_cell_length_c 19.111994
_cell_angle_alpha 90.000000
_cell_angle_beta 90.000000
_cell_angle_gamma 90.000000
_cell_volume 2582.921027
_symmetry_space_group_name_H-M "P N M A"
_symmetry_group_IT_number 62
_symmetry_cell_setting 'orthorhombic'
loop_
_space_group_symop_operation_xyz
x,y,z
1/2-x,-y,1/2+z
1/2+x,1/2-y,1/2-z
-x,1/2+y,-z
-x,-y,-z
1/2+x,y,1/2-z
1/2-x,1/2+y,1/2+z
x,1/2-y,z
loop_
_atom_site_type_symbol
_atom_site_label
_atom_site_fract_x
_atom_site_fract_y
_atom_site_fract_z
Si Si1 0.640154 0.847766 0.028567
Si Si2 0.392507 0.845126 0.907006
Si Si3 0.621312 0.654340 0.782648
Si Si4 0.822393 0.993770 0.089934
Si Si5 0.306624 0.077712 0.763234
Si Si6 0.933878 0.842865 0.339365
Si Si7 0.935533 0.937105 0.824649
O O1 0.687825 0.750000 0.041282
O O2 0.504602 0.870228 0.086350
O O3 0.776208 0.916891 0.039551
O O4 0.549211 0.850889 0.955545
O O5 0.328252 0.750000 0.916695
O O6 0.461352 0.852704 0.828713
O O7 0.280103 0.922984 0.924835
O O8 0.670610 0.750000 0.780699
O O9 0.571197 0.624318 0.705485
O O10 0.763430 0.604477 0.819467
O O11 0.002902 0.023652 0.102933
O O12 0.774214 0.958054 0.167034
O O13 0.412835 0.154480 0.788854
O O14 0.194575 0.101272 0.699072
O O15 0.423966 0.008640 0.733678
O O16 0.870640 0.750000 0.347252
#
# Coordination Sequence:
#
# PCOD9464197 Si02
#       7
#     8   8   8   8   8   8   8
#     4   9  21  40  63  86 113 154 205 243 280 346
#     4  10  21  40  64  86 113 153 202 245 285 345
#     4  11  22  36  58  84 114 153 193 240 296 353
#     4  11  21  36  59  87 114 155 186 241 291 348
#     4  11  19  34  53  81 117 146 181 232 291 344
#     4  10  20  34  56  83 111 147 191 237 289 343
#     4  12  21  36  54  84 122 146 187 237 296 354
#
# _framework density 21.680879999999998
#
# number of rings (size 3 to 8) (size 9 to 14) (size 15 to 20)
#    0.000    1.429    4.286    1.286    2.000    2.857 
#    0.000    0.714    0.000    0.000    0.000    0.000 
#    0.000    0.000    0.000    0.000    0.000    0.000 
#
# Total GULP energy -312381.289282 kJ/mol
# GULP energy per Si atom -5578.237309 kJ/mol
# Density = 2.163153 g / cm^3
# Si number density = 21.680880 Si / 1000 Ang^3
#
#
#
# Elastic Constant Matrix: (Units=GPa)
#
#
# Indices 1 2 3 4 5 6 
#
# 1 35.4135 3.0734 -9.9101 0.0000 0.0000 0.0000
# 2 3.0734 73.4891 4.7492 0.0000 0.0000 0.0000
# 3 -9.9101 4.7492 44.8019 0.0000 0.0000 0.0000
# 4 0.0000 0.0000 0.0000 25.7731 0.0000 0.0000
# 5 0.0000 0.0000 0.0000 0.0000 29.9296 0.0000
# 6 0.0000 0.0000 0.0000 0.0000 0.0000 26.0476
#
#
#
# Elastic Compliance Matrix: (Units=1/GPa)
#
#
# Indices 1 2 3 4 5 6 
#
# 1 0.030314 -0.001713 0.006887 0.000000 0.000000 0.000000
# 2 -0.001713 0.013798 -0.001842 0.000000 0.000000 0.000000
# 3 0.006887 -0.001842 0.024039 0.000000 0.000000 0.000000
# 4 0.000000 0.000000 0.000000 0.038800 0.000000 0.000000
# 5 0.000000 0.000000 0.000000 0.000000 0.033412 0.000000
# 6 0.000000 0.000000 0.000000 0.000000 0.000000 0.038391
#
#
# Mechanical properties :
#
#
# Convention : Reuss Voigt Hill
#
# Bulk Modulus (GPa) = 13.36615 16.61441 14.99028
# Shear Modulus (GPa) = 25.37717 26.73619 26.05668
#
# Velocity S-wave (km/s) = 3.42495 3.51546 3.47050
# Velocity P-wave (km/s) = 4.67105 4.91505 4.79460
#
# Compressibility (1/GPa) = 0.07481585
#
# Stress axis : x y z
#
# Youngs Moduli (GPa) = 32.98841 72.47377 41.59902
#
# Poissons Ratio (x) = 0.12414 -0.28649
# Poissons Ratio (y) = 0.05650 0.07661
# Poissons Ratio (z) = -0.22719 0.13346
#
# Static dielectric constant tensor:
#      x y z
#    x 1.822340 0.000000 0.000000 
#    y 0.000000 1.807670 0.000000 
#    z 0.000000 0.000000 1.773940 
# 
# From -- ./inp_files/25999.got.cif
#   From: 2010.05.17/outbox.cif.g08.bks.cpg/sg62_13_cif.got.tgz:25999.got - 2010.06.03 15:25:27.
