data_PCOD9464821
_publ_section_title
;
Structure prediction by ZEFSAII (Michael W. Deem and Ramdas Pophale) SiO2 
 PCOD9464821
Probable space group: P N M A
;
_chemical_formula_sum "Si O2"
_cell_formula_units_Z 52
_cell_length_a 5.211355
_cell_length_b 19.226624
_cell_length_c 21.297630
_cell_angle_alpha 90.000000
_cell_angle_beta 90.000000
_cell_angle_gamma 90.000000
_cell_volume 2133.953588
_symmetry_space_group_name_H-M "P N M A"
_symmetry_group_IT_number 62
_symmetry_cell_setting 'orthorhombic'
loop_
_space_group_symop_operation_xyz
x,y,z
1/2-x,-y,1/2+z
1/2+x,1/2-y,1/2-z
-x,1/2+y,-z
-x,-y,-z
1/2+x,y,1/2-z
1/2-x,1/2+y,1/2+z
x,1/2-y,z
loop_
_atom_site_type_symbol
_atom_site_label
_atom_site_fract_x
_atom_site_fract_y
_atom_site_fract_z
Si Si1 0.850371 0.093690 0.705325
Si Si2 0.176330 0.167324 0.290222
Si Si3 0.266310 0.905139 0.998851
Si Si4 0.080005 0.996661 0.603155
Si Si5 0.471435 0.893448 0.619777
Si Si6 0.629949 0.250000 0.409720
Si Si7 0.621358 0.250000 0.009678
Si Si8 0.793173 0.250000 0.709366
O O1 0.094030 0.085772 0.752550
O O2 0.888948 0.039118 0.648490
O O3 0.843852 0.174029 0.679229
O O4 0.917639 0.152274 0.254612
O O5 0.181345 0.250000 0.305077
O O6 0.252964 0.119275 0.348667
O O7 0.340993 0.826608 0.018230
O O8 0.013781 0.900800 0.955259
O O9 0.453085 0.946509 0.950095
O O10 0.258057 0.948477 0.061866
O O11 0.291074 0.954084 0.642247
O O12 0.333359 0.819451 0.629138
O O13 0.342881 0.250000 0.436691
O O14 0.836695 0.250000 0.463683
O O15 0.999153 0.250000 0.766817
#
# Coordination Sequence:
#
# PCOD9464821 Si02
#       8
#     8   8   8   8   8   4   4   4
#     4  10  23  43  68  98 129 170 215 263 327 389
#     4  10  23  39  60  92 125 165 222 271 310 367
#     4  10  24  42  64  96 126 175 217 267 332 386
#     4  11  24  41  65  94 136 167 213 273 328 399
#     4  11  22  40  64  86 128 175 217 267 324 384
#     4  10  20  36  62  88 112 171 212 258 305 371
#     4  10  20  41  64  89 124 161 221 257 309 387
#     4   8  16  37  66  91 122 160 205 257 314 378
#
# _framework density 24.367913999999999
#
# number of rings (size 3 to 8) (size 9 to 14) (size 15 to 20)
#    0.000    1.846    2.308    0.462    4.308    1.846 
#    0.000    0.000    0.000    3.692    0.000    0.000 
#    0.000    0.000    0.000    0.000    0.000    0.000 
#
# Total GULP energy -290521.350280 kJ/mol
# GULP energy per Si atom -5586.949044 kJ/mol
# Density = 2.431245 g / cm^3
# Si number density = 24.367914 Si / 1000 Ang^3
#
#
#
# Elastic Constant Matrix: (Units=GPa)
#
#
# Indices 1 2 3 4 5 6 
#
# 1 80.8889 17.5785 15.8489 0.0000 0.0000 0.0000
# 2 17.5785 156.9136 34.8688 0.0000 0.0000 0.0000
# 3 15.8489 34.8688 45.3188 0.0000 0.0000 0.0000
# 4 0.0000 0.0000 0.0000 31.0693 0.0000 0.0000
# 5 0.0000 0.0000 0.0000 0.0000 20.7307 0.0000
# 6 0.0000 0.0000 0.0000 0.0000 0.0000 20.6468
#
#
#
# Elastic Compliance Matrix: (Units=1/GPa)
#
#
# Indices 1 2 3 4 5 6 
#
# 1 0.013311 -0.000551 -0.004231 0.000000 0.000000 0.000000
# 2 -0.000551 0.007710 -0.005740 0.000000 0.000000 0.000000
# 3 -0.004231 -0.005740 0.027962 0.000000 0.000000 0.000000
# 4 0.000000 0.000000 0.000000 0.032186 0.000000 0.000000
# 5 0.000000 0.000000 0.000000 0.000000 0.048238 0.000000
# 6 0.000000 0.000000 0.000000 0.000000 0.000000 0.048434
#
#
# Mechanical properties :
#
#
# Convention : Reuss Voigt Hill
#
# Bulk Modulus (GPa) = 35.79158 46.63487 41.21322
# Shear Modulus (GPa) = 24.01564 28.81103 26.41333
#
# Velocity S-wave (km/s) = 3.14274 3.44224 3.29589
# Velocity P-wave (km/s) = 5.28100 5.91422 5.60656
#
# Compressibility (1/GPa) = 0.02793954
#
# Stress axis : x y z
#
# Youngs Moduli (GPa) = 75.12336 129.70030 35.76311
#
# Poissons Ratio (x) = 0.07146 0.15133
# Poissons Ratio (y) = 0.04139 0.20526
# Poissons Ratio (z) = 0.31787 0.74442
#
# Static dielectric constant tensor:
#      x y z
#    x 1.977770 0.000000 0.000000 
#    y 0.000000 2.051730 0.000000 
#    z 0.000000 0.000000 1.923650 
# 
# From -- ./inp_files/25353.got.cif
#   From: 2010.05.17/outbox.cif.g08.bks.cpg/sg62_13_cif.got.tgz:25353.got - 2010.06.03 15:25:27.
