data_PCOD9464183
_publ_section_title
;
Structure prediction by ZEFSAII (Michael W. Deem and Ramdas Pophale) SiO2 
 PCOD9464183
Probable space group: P N M A
;
_chemical_formula_sum "Si O2"
_cell_formula_units_Z 64
_cell_length_a 9.159339
_cell_length_b 18.074050
_cell_length_c 20.862296
_cell_angle_alpha 90.000000
_cell_angle_beta 90.000000
_cell_angle_gamma 90.000000
_cell_volume 3453.676977
_symmetry_space_group_name_H-M "P N M A"
_symmetry_group_IT_number 62
_symmetry_cell_setting 'orthorhombic'
loop_
_space_group_symop_operation_xyz
x,y,z
1/2-x,-y,1/2+z
1/2+x,1/2-y,1/2-z
-x,1/2+y,-z
-x,-y,-z
1/2+x,y,1/2-z
1/2-x,1/2+y,1/2+z
x,1/2-y,z
loop_
_atom_site_type_symbol
_atom_site_label
_atom_site_fract_x
_atom_site_fract_y
_atom_site_fract_z
Si Si1 0.747137 0.161214 0.928356
Si Si2 0.693614 0.959759 0.329467
Si Si3 0.246978 0.396334 0.091395
Si Si4 0.003311 0.412399 0.491894
Si Si5 0.805454 0.615534 0.633607
Si Si6 0.554221 0.666568 0.550134
Si Si7 0.375096 0.483322 0.287386
Si Si8 0.575269 0.833302 0.790684
O O1 0.742176 0.250000 0.922850
O O2 0.794040 0.118751 0.864289
O O3 0.590883 0.129814 0.952696
O O4 0.863181 0.142132 0.985196
O O5 0.752657 0.020654 0.380403
O O6 0.795790 0.968555 0.267085
O O7 0.528163 0.982899 0.310457
O O8 0.341832 0.386382 0.027217
O O9 0.315156 0.346749 0.148869
O O10 0.081302 0.380442 0.073731
O O11 0.000000 0.500000 0.500000
O O12 0.091677 0.397538 0.426875
O O13 0.673521 0.663378 0.606366
O O14 0.740303 0.537377 0.657382
O O15 0.909028 0.654677 0.685103
O O16 0.502910 0.750000 0.540048
O O17 0.400165 0.401175 0.257447
O O18 0.593861 0.750000 0.766227
#
# Coordination Sequence:
#
# PCOD9464183 Si02
#       8
#     8   8   8   8   8   8   8   8
#     4  10  23  41  62  87 118 154 193 245 303 352
#     4  11  22  40  60  81 117 151 203 248 286 346
#     4  10  20  34  57  88 115 155 190 228 289 350
#     4  10  20  36  62  87 115 148 186 229 291 364
#     4  10  20  35  53  80 115 150 194 228 290 341
#     4  10  20  34  55  88 123 150 185 234 292 355
#     4  11  22  38  55  82 110 158 200 244 286 336
#     4  10  21  35  51  77 118 158 194 230 278 345
#
# _framework density 18.530975000000002
#
# number of rings (size 3 to 8) (size 9 to 14) (size 15 to 20)
#    0.000    1.750    3.750    0.750    0.000    6.000 
#    0.000    0.625    0.000    0.000    0.000    0.000 
#    0.000    0.000    0.000    0.000    0.000    0.000 
#
# Total GULP energy -357064.080198 kJ/mol
# GULP energy per Si atom -5579.126253 kJ/mol
# Density = 1.848880 g / cm^3
# Si number density = 18.530975 Si / 1000 Ang^3
#
#
#
# Elastic Constant Matrix: (Units=GPa)
#
#
# Indices 1 2 3 4 5 6 
#
# 1 79.2065 20.1698 3.2922 0.0000 0.0000 0.0000
# 2 20.1698 66.0817 17.2484 0.0000 0.0000 0.0000
# 3 3.2922 17.2484 29.1225 0.0000 0.0000 0.0000
# 4 0.0000 0.0000 0.0000 22.4121 0.0000 0.0000
# 5 0.0000 0.0000 0.0000 0.0000 14.3488 0.0000
# 6 0.0000 0.0000 0.0000 0.0000 0.0000 10.9606
#
#
#
# Elastic Compliance Matrix: (Units=1/GPa)
#
#
# Indices 1 2 3 4 5 6 
#
# 1 0.013719 -0.004474 0.001099 0.000000 0.000000 0.000000
# 2 -0.004474 0.019359 -0.010960 0.000000 0.000000 0.000000
# 3 0.001099 -0.010960 0.040705 0.000000 0.000000 0.000000
# 4 0.000000 0.000000 0.000000 0.044619 0.000000 0.000000
# 5 0.000000 0.000000 0.000000 0.000000 0.069692 0.000000
# 6 0.000000 0.000000 0.000000 0.000000 0.000000 0.091236
#
#
# Mechanical properties :
#
#
# Convention : Reuss Voigt Hill
#
# Bulk Modulus (GPa) = 22.16682 28.42571 25.29626
# Shear Modulus (GPa) = 15.47803 18.45764 16.96784
#
# Velocity S-wave (km/s) = 2.89321 3.15944 3.02925
# Velocity P-wave (km/s) = 4.81133 5.35558 5.09073
#
# Compressibility (1/GPa) = 0.04511248
#
# Stress axis : x y z
#
# Youngs Moduli (GPa) = 72.89217 51.65498 24.56706
#
# Poissons Ratio (x) = 0.23112 -0.02700
# Poissons Ratio (y) = 0.32614 0.26926
# Poissons Ratio (z) = -0.08012 0.56615
#
# Static dielectric constant tensor:
#      x y z
#    x 1.681510 0.000000 0.000000 
#    y 0.000000 1.603560 0.000000 
#    z 0.000000 0.000000 1.678250 
# 
# From -- ./inp_files/29056.got.cif
#   From: 2010.05.17/outbox.cif.g08.bks.cpg/sg62_15_cif.got.tgz:29056.got - 2010.06.03 15:25:27.
