data_PCOD9464000
_publ_section_title
;
Structure prediction by ZEFSAII (Michael W. Deem and Ramdas Pophale) SiO2 
 PCOD9464000
Probable space group: P N M A
;
_chemical_formula_sum "Si O2"
_cell_formula_units_Z 64
_cell_length_a 11.395170
_cell_length_b 13.402718
_cell_length_c 18.245497
_cell_angle_alpha 90.000000
_cell_angle_beta 90.000000
_cell_angle_gamma 90.000000
_cell_volume 2786.566338
_symmetry_space_group_name_H-M "P N M A"
_symmetry_group_IT_number 62
_symmetry_cell_setting 'orthorhombic'
loop_
_space_group_symop_operation_xyz
x,y,z
1/2-x,-y,1/2+z
1/2+x,1/2-y,1/2-z
-x,1/2+y,-z
-x,-y,-z
1/2+x,y,1/2-z
1/2-x,1/2+y,1/2+z
x,1/2-y,z
loop_
_atom_site_type_symbol
_atom_site_label
_atom_site_fract_x
_atom_site_fract_y
_atom_site_fract_z
Si Si1 0.602786 0.559426 0.102538
Si Si2 0.951766 0.469909 0.768563
Si Si3 0.335354 0.991494 0.358698
Si Si4 0.625795 0.068461 0.975007
Si Si5 0.506055 0.632957 0.540468
Si Si6 0.301689 0.862455 0.748947
Si Si7 0.645566 0.861848 0.398385
Si Si8 0.766007 0.363662 0.417586
O O1 0.562977 0.565774 0.186348
O O2 0.741765 0.583343 0.103878
O O3 0.495392 0.607869 0.058483
O O4 0.611424 0.450621 0.061609
O O5 0.929844 0.588916 0.765479
O O6 0.856293 0.430800 0.827076
O O7 0.073334 0.439410 0.804586
O O8 0.409337 0.061219 0.413284
O O9 0.261215 0.065265 0.306132
O O10 0.737027 0.128377 0.946603
O O11 0.655682 0.955543 0.945465
O O12 0.529432 0.750000 0.557108
O O13 0.540690 0.616940 0.455641
O O14 0.368962 0.615894 0.557164
O O15 0.309411 0.750000 0.775412
O O16 0.236190 0.863238 0.670778
O O17 0.632251 0.750000 0.371430
O O18 0.796907 0.250000 0.441508
#
# Coordination Sequence:
#
# PCOD9464000 Si02
#       8
#     8   8   8   8   8   8   8   8
#     4  10  25  39  65  94 123 173 216 262 329 402
#     4  11  23  40  64  93 129 165 216 269 327 387
#     4  11  20  36  61  93 127 169 207 260 332 392
#     4  11  21  45  63  90 132 166 217 269 328 395
#     4  10  20  35  58  94 125 160 218 264 314 382
#     4  10  20  33  55  92 130 165 200 250 324 397
#     4  11  24  42  68  95 126 174 225 280 328 380
#     4  10  20  36  61  92 126 164 204 260 329 390
#
# _framework density 22.967334000000001
#
# number of rings (size 3 to 8) (size 9 to 14) (size 15 to 20)
#    0.000    1.500    3.750    1.125    3.500    1.500 
#    0.000    8.125    0.000    0.750    0.000    0.000 
#    0.000    0.000    0.000    0.000    0.000    0.000 
#
# Total GULP energy -357226.635936 kJ/mol
# GULP energy per Si atom -5581.666186 kJ/mol
# Density = 2.291506 g / cm^3
# Si number density = 22.967334 Si / 1000 Ang^3
#
#
#
# Elastic Constant Matrix: (Units=GPa)
#
#
# Indices 1 2 3 4 5 6 
#
# 1 98.3260 3.7007 19.8455 0.0000 0.0000 0.0000
# 2 3.7007 61.5115 -1.9502 0.0000 0.0000 0.0000
# 3 19.8455 -1.9502 101.7889 0.0000 0.0000 0.0000
# 4 0.0000 0.0000 0.0000 12.8261 0.0000 0.0000
# 5 0.0000 0.0000 0.0000 0.0000 41.7350 0.0000
# 6 0.0000 0.0000 0.0000 0.0000 0.0000 14.6635
#
#
#
# Elastic Compliance Matrix: (Units=1/GPa)
#
#
# Indices 1 2 3 4 5 6 
#
# 1 0.010617 -0.000705 -0.002084 0.000000 0.000000 0.000000
# 2 -0.000705 0.016314 0.000450 0.000000 0.000000 0.000000
# 3 -0.002084 0.000450 0.010239 0.000000 0.000000 0.000000
# 4 0.000000 0.000000 0.000000 0.077966 0.000000 0.000000
# 5 0.000000 0.000000 0.000000 0.000000 0.023961 0.000000
# 6 0.000000 0.000000 0.000000 0.000000 0.000000 0.068197
#
#
# Mechanical properties :
#
#
# Convention : Reuss Voigt Hill
#
# Bulk Modulus (GPa) = 30.77543 33.86870 32.32206
# Shear Modulus (GPa) = 22.44148 29.84694 26.14421
#
# Velocity S-wave (km/s) = 3.12926 3.60882 3.37756
# Velocity P-wave (km/s) = 5.14637 5.66950 5.41426
#
# Compressibility (1/GPa) = 0.03249345
#
# Stress axis : x y z
#
# Youngs Moduli (GPa) = 94.18588 61.29784 97.66485
#
# Poissons Ratio (x) = 0.04320 0.20349
# Poissons Ratio (y) = 0.06638 -0.04395
# Poissons Ratio (z) = 0.19624 -0.02758
#
# Static dielectric constant tensor:
#      x y z
#    x 1.924510 0.000000 0.000000 
#    y 0.000000 1.844670 0.000000 
#    z 0.000000 0.000000 1.888240 
# 
# From -- ./inp_files/23225.got.cif
#   From: 2010.05.17/outbox.cif.g08.bks.cpg/sg62_12_cif.got.tgz:23225.got - 2010.06.03 15:25:27.
