data_PCOD9464706
_publ_section_title
;
Structure prediction by ZEFSAII (Michael W. Deem and Ramdas Pophale) SiO2 
 PCOD9464706
Probable space group: P N M A
;
_chemical_formula_sum "Si O2"
_cell_formula_units_Z 64
_cell_length_a 17.725950
_cell_length_b 8.876857
_cell_length_c 23.042224
_cell_angle_alpha 90.000000
_cell_angle_beta 90.000000
_cell_angle_gamma 90.000000
_cell_volume 3625.710614
_symmetry_space_group_name_H-M "P N M A"
_symmetry_group_IT_number 62
_symmetry_cell_setting 'orthorhombic'
loop_
_space_group_symop_operation_xyz
x,y,z
1/2-x,-y,1/2+z
1/2+x,1/2-y,1/2-z
-x,1/2+y,-z
-x,-y,-z
1/2+x,y,1/2-z
1/2-x,1/2+y,1/2+z
x,1/2-y,z
loop_
_atom_site_type_symbol
_atom_site_label
_atom_site_fract_x
_atom_site_fract_y
_atom_site_fract_z
Si Si1 0.086542 0.569980 0.776497
Si Si2 0.123298 0.430098 0.652342
Si Si3 0.821030 0.933085 0.120422
Si Si4 0.558927 0.579258 0.333973
Si Si5 0.266348 0.069637 0.988395
Si Si6 0.567980 0.569334 0.963683
Si Si7 0.461329 0.916026 0.449140
Si Si8 0.208677 0.930739 0.104975
O O1 0.087589 0.750000 0.778562
O O2 0.102785 0.507446 0.712670
O O3 0.152632 0.505390 0.819160
O O4 0.003487 0.511064 0.796991
O O5 0.113693 0.250000 0.656284
O O6 0.073822 0.497322 0.600077
O O7 0.210590 0.460407 0.634939
O O8 0.824818 0.750000 0.127924
O O9 0.887134 0.987105 0.077142
O O10 0.750071 0.970195 0.079235
O O11 0.567465 0.750000 0.309693
O O12 0.518584 0.593421 0.396120
O O13 0.640970 0.515848 0.352426
O O14 0.256102 0.250000 0.992379
O O15 0.352199 0.032966 0.005289
O O16 0.214599 0.998308 0.039757
O O17 0.561414 0.750000 0.959870
O O18 0.500000 0.500000 0.000000
O O19 0.439968 0.750000 0.469398
O O20 0.500000 0.000000 0.500000
O O21 0.198857 0.750000 0.099334
#
# Coordination Sequence:
#
# PCOD9464706 Si02
#       8
#     8   8   8   8   8   8   8   8
#     4  11  22  35  52  76 104 140 182 221 260 310
#     4  10  20  37  59  80 104 138 174 216 269 323
#     4   9  18  33  49  69 100 138 172 205 250 304
#     4   9  18  33  49  70 101 135 170 211 255 307
#     4   9  18  32  53  79 108 139 173 215 264 313
#     4  10  20  36  58  85 111 137 173 220 270 321
#     4   9  16  24  39  63  94 128 160 194 235 282
#     4   9  18  32  54  80 103 131 171 214 263 318
#
# _framework density 17.651712
#
# number of rings (size 3 to 8) (size 9 to 14) (size 15 to 20)
#    0.000    2.500    0.000    3.375    0.000    4.000 
#    0.000    1.250    0.000    3.000    0.000    0.000 
#    0.000    0.000    0.000    0.000    0.000    0.000 
#
# Total GULP energy -356310.752125 kJ/mol
# GULP energy per Si atom -5567.355502 kJ/mol
# Density = 1.761154 g / cm^3
# Si number density = 17.651712 Si / 1000 Ang^3
#
#
#
# Elastic Constant Matrix: (Units=GPa)
#
#
# Indices 1 2 3 4 5 6 
#
# 1 77.2943 37.7692 63.4906 0.0000 0.0000 0.0000
# 2 37.7692 61.7704 60.3900 0.0000 0.0000 0.0000
# 3 63.4906 60.3900 147.8075 0.0000 0.0000 0.0000
# 4 0.0000 0.0000 0.0000 29.7003 0.0000 0.0000
# 5 0.0000 0.0000 0.0000 0.0000 24.0361 0.0000
# 6 0.0000 0.0000 0.0000 0.0000 0.0000 16.6189
#
#
#
# Elastic Compliance Matrix: (Units=1/GPa)
#
#
# Indices 1 2 3 4 5 6 
#
# 1 0.021622 -0.006894 -0.006471 0.000000 0.000000 0.000000
# 2 -0.006894 0.029155 -0.008950 0.000000 0.000000 0.000000
# 3 -0.006471 -0.008950 0.013202 0.000000 0.000000 0.000000
# 4 0.000000 0.000000 0.000000 0.033670 0.000000 0.000000
# 5 0.000000 0.000000 0.000000 0.000000 0.041604 0.000000
# 6 0.000000 0.000000 0.000000 0.000000 0.000000 0.060172
#
#
# Mechanical properties :
#
#
# Convention : Reuss Voigt Hill
#
# Bulk Modulus (GPa) = 51.68624 67.79686 59.74155
# Shear Modulus (GPa) = 19.95974 22.41923 21.18949
#
# Velocity S-wave (km/s) = 3.36632 3.56770 3.46847
# Velocity P-wave (km/s) = 6.66740 7.44733 7.06813
#
# Compressibility (1/GPa) = 0.01934751
#
# Stress axis : x y z
#
# Youngs Moduli (GPa) = 46.25025 34.29966 75.74654
#
# Poissons Ratio (x) = 0.23647 0.49013
# Poissons Ratio (y) = 0.31886 0.67796
# Poissons Ratio (z) = 0.29927 0.30700
#
# Static dielectric constant tensor:
#      x y z
#    x 1.632590 0.000000 0.000000 
#    y 0.000000 1.621990 0.000000 
#    z 0.000000 0.000000 1.604770 
# 
# From -- ./inp_files/27651.got.cif
#   From: 2010.05.17/outbox.cif.g08.bks.cpg/sg62_14_cif.got.tgz:27651.got - 2010.06.03 15:25:27.
