data_PCOD9464171
_publ_section_title
;
Structure prediction by ZEFSAII (Michael W. Deem and Ramdas Pophale) SiO2 
 PCOD9464171
Probable space group: P N M A
;
_chemical_formula_sum "Si O2"
_cell_formula_units_Z 64
_cell_length_a 33.024567
_cell_length_b 9.461110
_cell_length_c 10.900200
_cell_angle_alpha 90.000000
_cell_angle_beta 90.000000
_cell_angle_gamma 90.000000
_cell_volume 3405.757256
_symmetry_space_group_name_H-M "P N M A"
_symmetry_group_IT_number 62
_symmetry_cell_setting 'orthorhombic'
loop_
_space_group_symop_operation_xyz
x,y,z
1/2-x,-y,1/2+z
1/2+x,1/2-y,1/2-z
-x,1/2+y,-z
-x,-y,-z
1/2+x,y,1/2-z
1/2-x,1/2+y,1/2+z
x,1/2-y,z
loop_
_atom_site_type_symbol
_atom_site_label
_atom_site_fract_x
_atom_site_fract_y
_atom_site_fract_z
Si Si1 0.994776 0.585488 0.371829
Si Si2 0.282113 0.087180 0.028427
Si Si3 0.117367 0.579164 0.145332
Si Si4 0.636963 0.580397 0.080965
Si Si5 0.299329 0.085800 0.529504
Si Si6 0.472263 0.077746 0.601393
Si Si7 0.399420 0.912537 0.145529
Si Si8 0.838441 0.407316 0.232044
O O1 0.006242 0.750000 0.395033
O O2 0.016769 0.541531 0.244317
O O3 0.947250 0.579159 0.339325
O O4 0.000000 0.500000 0.500000
O O5 0.270752 0.250000 0.005162
O O6 0.309060 0.080544 0.151396
O O7 0.242322 0.995907 0.045028
O O8 0.315154 0.042221 0.925811
O O9 0.118888 0.750000 0.132341
O O10 0.117345 0.546775 0.289358
O O11 0.160347 0.526515 0.094685
O O12 0.075063 0.536575 0.084373
O O13 0.635116 0.750000 0.061557
O O14 0.613520 0.501661 0.973495
O O15 0.293912 0.250000 0.566899
O O16 0.311387 0.080651 0.387263
O O17 0.476316 0.250000 0.590784
O O18 0.500000 0.000000 0.500000
O O19 0.387749 0.750000 0.128104
O O20 0.373875 0.979678 0.255908
O O21 0.856930 0.250000 0.233031
#
# Coordination Sequence:
#
# PCOD9464171 Si02
#       8
#     8   8   8   8   8   8   8   8
#     4  10  22  38  59  88 118 148 190 243 292 347
#     4   9  19  34  52  78 109 143 178 223 277 322
#     4   9  19  36  58  81 106 144 189 226 266 327
#     4   9  18  36  59  81 112 150 185 223 273 333
#     4  10  21  35  55  80 105 140 187 226 261 323
#     4  10  22  40  60  85 118 152 192 239 289 345
#     4  10  20  34  55  84 113 141 180 228 278 326
#     4   9  20  37  54  76 109 144 183 221 265 328
#
# _framework density 18.791709000000001
#
# number of rings (size 3 to 8) (size 9 to 14) (size 15 to 20)
#    0.000    2.500    0.000    1.875    3.500    5.000 
#    0.000    1.875    0.000    0.000    0.000    0.000 
#    0.000    0.000    0.000    0.000    0.000    0.000 
#
# Total GULP energy -356694.300437 kJ/mol
# GULP energy per Si atom -5573.348444 kJ/mol
# Density = 1.874894 g / cm^3
# Si number density = 18.791709 Si / 1000 Ang^3
#
#
#
# Elastic Constant Matrix: (Units=GPa)
#
#
# Indices 1 2 3 4 5 6 
#
# 1 94.2621 31.2556 14.6044 0.0000 0.0000 0.0000
# 2 31.2556 42.0901 17.6283 0.0000 0.0000 0.0000
# 3 14.6044 17.6283 46.2557 0.0000 0.0000 0.0000
# 4 0.0000 0.0000 0.0000 16.5275 0.0000 0.0000
# 5 0.0000 0.0000 0.0000 0.0000 11.4530 0.0000
# 6 0.0000 0.0000 0.0000 0.0000 0.0000 26.5320
#
#
#
# Elastic Compliance Matrix: (Units=1/GPa)
#
#
# Indices 1 2 3 4 5 6 
#
# 1 0.014086 -0.010230 -0.000549 0.000000 0.000000 0.000000
# 2 -0.010230 0.035701 -0.010376 0.000000 0.000000 0.000000
# 3 -0.000549 -0.010376 0.025746 0.000000 0.000000 0.000000
# 4 0.000000 0.000000 0.000000 0.060505 0.000000 0.000000
# 5 0.000000 0.000000 0.000000 0.000000 0.087314 0.000000
# 6 0.000000 0.000000 0.000000 0.000000 0.000000 0.037690
#
#
# Mechanical properties :
#
#
# Convention : Reuss Voigt Hill
#
# Bulk Modulus (GPa) = 30.09867 34.39830 32.24848
# Shear Modulus (GPa) = 15.90197 18.84380 17.37289
#
# Velocity S-wave (km/s) = 2.91215 3.17009 3.04385
# Velocity P-wave (km/s) = 5.23060 5.63419 5.43614
#
# Compressibility (1/GPa) = 0.03322406
#
# Stress axis : x y z
#
# Youngs Moduli (GPa) = 70.99312 28.01038 38.84032
#
# Poissons Ratio (x) = 0.28655 0.02131
# Poissons Ratio (y) = 0.72628 0.40300
# Poissons Ratio (z) = 0.03894 0.29063
#
# Static dielectric constant tensor:
#      x y z
#    x 1.673740 0.000000 0.000000 
#    y 0.000000 1.660010 0.000000 
#    z 0.000000 0.000000 1.687600 
# 
# From -- ./inp_files/15903.got.cif
#   From: 2010.05.17/outbox.cif.g08.bks.cpg/sg62_8_cif.got.tgz:15903.got - 2010.06.03 15:25:27.
