data_PCOD9464162
_publ_section_title
;
Structure prediction by ZEFSAII (Michael W. Deem and Ramdas Pophale) SiO2 
 PCOD9464162
Probable space group: P N M A
;
_chemical_formula_sum "Si O2"
_cell_formula_units_Z 64
_cell_length_a 20.741183
_cell_length_b 8.731963
_cell_length_c 15.652743
_cell_angle_alpha 90.000000
_cell_angle_beta 90.000000
_cell_angle_gamma 90.000000
_cell_volume 2834.887734
_symmetry_space_group_name_H-M "P N M A"
_symmetry_group_IT_number 62
_symmetry_cell_setting 'orthorhombic'
loop_
_space_group_symop_operation_xyz
x,y,z
1/2-x,-y,1/2+z
1/2+x,1/2-y,1/2-z
-x,1/2+y,-z
-x,-y,-z
1/2+x,y,1/2-z
1/2-x,1/2+y,1/2+z
x,1/2-y,z
loop_
_atom_site_type_symbol
_atom_site_label
_atom_site_fract_x
_atom_site_fract_y
_atom_site_fract_z
Si Si1 0.081364 0.565906 0.569946
Si Si2 0.555078 0.068390 0.295643
Si Si3 0.933757 0.565567 0.607747
Si Si4 0.205880 0.571947 0.656261
Si Si5 0.257129 0.079558 0.494499
Si Si6 0.571789 0.071622 0.651047
Si Si7 0.725109 0.428071 0.675910
Si Si8 0.910285 0.423016 0.975393
O O1 0.083703 0.750000 0.565929
O O2 0.099402 0.502016 0.476383
O O3 0.132698 0.516245 0.640721
O O4 0.009007 0.520175 0.594013
O O5 0.565130 0.250000 0.303370
O O6 0.583726 0.016906 0.204058
O O7 0.478405 0.031999 0.297158
O O8 0.580965 0.985568 0.379999
O O9 0.929600 0.750000 0.604577
O O10 0.206307 0.750000 0.680134
O O11 0.235436 0.543906 0.563516
O O12 0.242223 0.477995 0.728738
O O13 0.231159 0.250000 0.513000
O O14 0.334197 0.084917 0.505115
O O15 0.243418 0.029479 0.397826
O O16 0.557450 0.250000 0.666057
O O17 0.647348 0.046412 0.670027
O O18 0.562148 0.028757 0.551022
O O19 0.737682 0.250000 0.660228
O O20 0.936059 0.250000 0.983001
#
# Coordination Sequence:
#
# PCOD9464162 Si02
#       8
#     8   8   8   8   8   8   8   8
#     4   9  19  36  57  81 110 144 182 227 277 328
#     4  11  21  33  52  80 113 149 187 227 276 339
#     4   9  19  35  54  79 112 147 182 224 274 328
#     4  11  22  38  62  89 116 151 192 237 288 345
#     4  10  22  41  61  83 113 151 193 243 294 341
#     4  10  20  34  55  82 112 146 186 232 280 334
#     4  10  21  38  61  88 115 147 190 240 290 344
#     4  10  21  37  55  76 108 147 186 232 284 335
#
# _framework density 22.575849999999999
#
# number of rings (size 3 to 8) (size 9 to 14) (size 15 to 20)
#    0.000    2.000    0.000    3.375    0.000    6.000 
#    2.250    2.500    0.000    0.000    0.000    0.000 
#    0.000    0.000    0.000    0.000    0.000    0.000 
#
# Total GULP energy -357712.350621 kJ/mol
# GULP energy per Si atom -5589.255478 kJ/mol
# Density = 2.252447 g / cm^3
# Si number density = 22.575850 Si / 1000 Ang^3
#
#
#
# Elastic Constant Matrix: (Units=GPa)
#
#
# Indices 1 2 3 4 5 6 
#
# 1 14.7008 -1.8919 -7.0114 0.0000 0.0000 0.0000
# 2 -1.8919 32.4171 12.8684 0.0000 0.0000 0.0000
# 3 -7.0114 12.8684 138.0009 0.0000 0.0000 0.0000
# 4 0.0000 0.0000 0.0000 33.4769 0.0000 0.0000
# 5 0.0000 0.0000 0.0000 0.0000 22.7271 0.0000
# 6 0.0000 0.0000 0.0000 0.0000 0.0000 20.8726
#
#
#
# Elastic Compliance Matrix: (Units=1/GPa)
#
#
# Indices 1 2 3 4 5 6 
#
# 1 0.069952 0.002774 0.003295 0.000000 0.000000 0.000000
# 2 0.002774 0.032144 -0.002856 0.000000 0.000000 0.000000
# 3 0.003295 -0.002856 0.007680 0.000000 0.000000 0.000000
# 4 0.000000 0.000000 0.000000 0.029871 0.000000 0.000000
# 5 0.000000 0.000000 0.000000 0.000000 0.044000 0.000000
# 6 0.000000 0.000000 0.000000 0.000000 0.000000 0.047910
#
#
# Mechanical properties :
#
#
# Convention : Reuss Voigt Hill
#
# Bulk Modulus (GPa) = 8.60565 21.44988 15.02776
# Shear Modulus (GPa) = 18.94908 27.49223 23.22066
#
# Velocity S-wave (km/s) = 2.90030 3.49344 3.21060
# Velocity P-wave (km/s) = 3.87760 5.07879 4.51829
#
# Compressibility (1/GPa) = 0.11620269
#
# Stress axis : x y z
#
# Youngs Moduli (GPa) = 14.29547 31.11028 130.20640
#
# Poissons Ratio (x) = -0.08631 -0.42908
# Poissons Ratio (y) = -0.03966 0.37192
# Poissons Ratio (z) = -0.04711 0.08886
#
# Static dielectric constant tensor:
#      x y z
#    x 1.909200 0.000000 0.000000 
#    y 0.000000 1.754820 0.000000 
#    z 0.000000 0.000000 1.826670 
# 
# From -- ./inp_files/20767.got.cif
#   From: 2010.05.17/outbox.cif.g08.bks.cpg/sg62_11_cif.got.tgz:20767.got - 2010.06.03 15:25:27.
