data_PCOD9464631
_publ_section_title
;
Structure prediction by ZEFSAII (Michael W. Deem and Ramdas Pophale) SiO2 
 PCOD9464631
Probable space group: P N M A
;
_chemical_formula_sum "Si O2"
_cell_formula_units_Z 64
_cell_length_a 19.791828
_cell_length_b 8.697221
_cell_length_c 21.088642
_cell_angle_alpha 90.000000
_cell_angle_beta 90.000000
_cell_angle_gamma 90.000000
_cell_volume 3630.070238
_symmetry_space_group_name_H-M "P N M A"
_symmetry_group_IT_number 62
_symmetry_cell_setting 'orthorhombic'
loop_
_space_group_symop_operation_xyz
x,y,z
1/2-x,-y,1/2+z
1/2+x,1/2-y,1/2-z
-x,1/2+y,-z
-x,-y,-z
1/2+x,y,1/2-z
1/2-x,1/2+y,1/2+z
x,1/2-y,z
loop_
_atom_site_type_symbol
_atom_site_label
_atom_site_fract_x
_atom_site_fract_y
_atom_site_fract_z
Si Si1 0.456190 0.434634 0.814583
Si Si2 0.036416 0.564354 0.061591
Si Si3 0.180134 0.434339 0.760111
Si Si4 0.461529 0.936925 0.310640
Si Si5 0.325091 0.567617 0.757902
Si Si6 0.467304 0.067272 0.063538
Si Si7 0.670211 0.433615 0.889844
Si Si8 0.822918 0.435947 0.883780
O O1 0.458752 0.250000 0.818186
O O2 0.497003 0.484928 0.751523
O O3 0.380155 0.490688 0.803330
O O4 0.491476 0.503285 0.876201
O O5 0.034077 0.750000 0.059551
O O6 0.115012 0.519994 0.071065
O O7 0.996871 0.512058 0.124890
O O8 0.000000 0.500000 0.000000
O O9 0.190223 0.250000 0.765803
O O10 0.116137 0.482891 0.801671
O O11 0.249246 0.519072 0.776014
O O12 0.163091 0.462948 0.685832
O O13 0.462694 0.750000 0.310641
O O14 0.332794 0.750000 0.758309
O O15 0.334983 0.504223 0.686214
O O16 0.471221 0.250000 0.062270
O O17 0.389548 0.015759 0.072961
O O18 0.500000 0.000000 0.000000
O O19 0.663497 0.250000 0.899066
O O20 0.747433 0.479601 0.905846
O O21 0.823227 0.250000 0.876770
#
# Coordination Sequence:
#
# PCOD9464631 Si02
#       8
#     8   8   8   8   8   8   8   8
#     4  11  20  38  62  83 109 147 190 236 284 340
#     4  10  20  36  56  83 114 150 190 232 280 332
#     4   9  17  33  56  82 110 149 191 231 281 339
#     4   9  17  33  59  82 106 143 191 231 274 335
#     4  11  21  32  51  86 120 146 182 237 292 338
#     4  12  25  40  58  85 118 152 189 234 287 345
#     4   9  17  33  58  84 108 145 192 234 280 338
#     4   9  18  35  58  79 108 153 196 229 277 342
#
# _framework density 17.630513000000001
#
# number of rings (size 3 to 8) (size 9 to 14) (size 15 to 20)
#    0.000    2.000    2.500    3.375    0.000    2.500 
#    0.000    1.875    0.000    3.000    0.000    0.000 
#    0.000    0.000    0.000    0.000    0.000    0.000 
#
# Total GULP energy -357205.844411 kJ/mol
# GULP energy per Si atom -5581.341319 kJ/mol
# Density = 1.759039 g / cm^3
# Si number density = 17.630513 Si / 1000 Ang^3
#
#
#
# Elastic Constant Matrix: (Units=GPa)
#
#
# Indices 1 2 3 4 5 6 
#
# 1 167.7443 52.8780 85.5026 0.0000 0.0000 0.0000
# 2 52.8780 57.2649 40.0225 0.0000 0.0000 0.0000
# 3 85.5026 40.0225 117.5701 0.0000 0.0000 0.0000
# 4 0.0000 0.0000 0.0000 25.8747 0.0000 0.0000
# 5 0.0000 0.0000 0.0000 0.0000 27.0038 0.0000
# 6 0.0000 0.0000 0.0000 0.0000 0.0000 23.8015
#
#
#
# Elastic Compliance Matrix: (Units=1/GPa)
#
#
# Indices 1 2 3 4 5 6 
#
# 1 0.010798 -0.005882 -0.005850 0.000000 0.000000 0.000000
# 2 -0.005882 0.026118 -0.004614 0.000000 0.000000 0.000000
# 3 -0.005850 -0.004614 0.014331 0.000000 0.000000 0.000000
# 4 0.000000 0.000000 0.000000 0.038648 0.000000 0.000000
# 5 0.000000 0.000000 0.000000 0.000000 0.037032 0.000000
# 6 0.000000 0.000000 0.000000 0.000000 0.000000 0.042014
#
#
# Mechanical properties :
#
#
# Convention : Reuss Voigt Hill
#
# Bulk Modulus (GPa) = 53.89265 77.70950 65.80108
# Shear Modulus (GPa) = 24.05971 26.28109 25.17040
#
# Velocity S-wave (km/s) = 3.69814 3.86509 3.78254
# Velocity P-wave (km/s) = 6.99065 8.00569 7.51532
#
# Compressibility (1/GPa) = 0.01855541
#
# Stress axis : x y z
#
# Youngs Moduli (GPa) = 92.61393 38.28750 69.78011
#
# Poissons Ratio (x) = 0.22519 0.40823
# Poissons Ratio (y) = 0.54471 0.32194
# Poissons Ratio (z) = 0.54182 0.17665
#
# Static dielectric constant tensor:
#      x y z
#    x 1.620470 0.000000 0.000000 
#    y 0.000000 1.595520 0.000000 
#    z 0.000000 0.000000 1.567060 
# 
# From -- ./inp_files/27701.got.cif
#   From: 2010.05.17/outbox.cif.g08.bks.cpg/sg62_14_cif.got.tgz:27701.got - 2010.06.03 15:25:27.
