data_PCOD9464967
_publ_section_title
;
Structure prediction by ZEFSAII (Michael W. Deem and Ramdas Pophale) SiO2 
 PCOD9464967
Probable space group: P N M A
;
_chemical_formula_sum "Si O2"
_cell_formula_units_Z 64
_cell_length_a 33.468893
_cell_length_b 7.862130
_cell_length_c 11.575072
_cell_angle_alpha 90.000000
_cell_angle_beta 90.000000
_cell_angle_gamma 90.000000
_cell_volume 3045.827264
_symmetry_space_group_name_H-M "P N M A"
_symmetry_group_IT_number 62
_symmetry_cell_setting 'orthorhombic'
loop_
_space_group_symop_operation_xyz
x,y,z
1/2-x,-y,1/2+z
1/2+x,1/2-y,1/2-z
-x,1/2+y,-z
-x,-y,-z
1/2+x,y,1/2-z
1/2-x,1/2+y,1/2+z
x,1/2-y,z
loop_
_atom_site_type_symbol
_atom_site_label
_atom_site_fract_x
_atom_site_fract_y
_atom_site_fract_z
Si Si1 0.883843 0.957797 0.092139
Si Si2 0.833397 0.048579 0.517086
Si Si3 0.403565 0.552304 0.845987
Si Si4 0.227450 0.952291 0.291380
Si Si5 0.992097 0.058227 0.632922
Si Si6 0.314807 0.956147 0.239581
Si Si7 0.524510 0.455777 0.617647
Si Si8 0.656973 0.044651 0.355094
O O1 0.884916 0.750000 0.091401
O O2 0.854287 0.013404 0.193502
O O3 0.929571 0.013782 0.102238
O O4 0.861942 0.011838 0.974792
O O5 0.838199 0.250000 0.536457
O O6 0.800754 0.977890 0.607301
O O7 0.876225 0.964698 0.540821
O O8 0.817942 0.014123 0.390849
O O9 0.413355 0.750000 0.825176
O O10 0.444424 0.452548 0.853009
O O11 0.374034 0.490384 0.744741
O O12 0.230326 0.750000 0.309012
O O13 0.272398 0.018785 0.289044
O O14 0.201326 0.983065 0.176125
O O15 0.007491 0.250000 0.633491
O O16 0.008851 0.981130 0.755280
O O17 0.000000 0.000000 0.500000
O O18 0.314305 0.750000 0.244056
O O19 0.500000 0.500000 0.500000
O O20 0.523546 0.250000 0.622201
O O21 0.658393 0.250000 0.353917
#
# Coordination Sequence:
#
# PCOD9464967 Si02
#       8
#     8   8   8   8   8   8   8   8
#     4   9  19  36  59  84 113 148 190 234 286 349
#     4  10  21  37  57  83 115 148 189 241 292 343
#     4  10  20  37  61  86 114 151 194 238 291 353
#     4   9  20  36  54  80 113 149 188 235 289 339
#     4  11  24  39  60  91 124 160 202 251 308 365
#     4  10  21  36  56  80 111 153 192 232 287 347
#     4  10  22  41  64  91 121 157 198 249 308 367
#     4   9  18  34  60  86 108 146 194 237 282 344
#
# _framework density 21.012356
#
# number of rings (size 3 to 8) (size 9 to 14) (size 15 to 20)
#    0.000    2.250    0.000    1.875    3.500    3.500 
#    0.000    1.875    0.000    0.000    0.000    0.000 
#    0.000    0.000    0.000    0.000    0.000    0.000 
#
# Total GULP energy -356938.980705 kJ/mol
# GULP energy per Si atom -5577.171574 kJ/mol
# Density = 2.096453 g / cm^3
# Si number density = 21.012356 Si / 1000 Ang^3
#
#
#
# Elastic Constant Matrix: (Units=GPa)
#
#
# Indices 1 2 3 4 5 6 
#
# 1 137.7758 -0.5668 62.1993 0.0000 0.0000 0.0000
# 2 -0.5668 26.0267 6.4039 0.0000 0.0000 0.0000
# 3 62.1993 6.4039 129.0246 0.0000 0.0000 0.0000
# 4 0.0000 0.0000 0.0000 20.8534 0.0000 0.0000
# 5 0.0000 0.0000 0.0000 0.0000 25.3340 0.0000
# 6 0.0000 0.0000 0.0000 0.0000 0.0000 20.1236
#
#
#
# Elastic Compliance Matrix: (Units=1/GPa)
#
#
# Indices 1 2 3 4 5 6 
#
# 1 0.009322 0.001325 -0.004560 0.000000 0.000000 0.000000
# 2 0.001325 0.039085 -0.002579 0.000000 0.000000 0.000000
# 3 -0.004560 -0.002579 0.010077 0.000000 0.000000 0.000000
# 4 0.000000 0.000000 0.000000 0.047954 0.000000 0.000000
# 5 0.000000 0.000000 0.000000 0.000000 0.039473 0.000000
# 6 0.000000 0.000000 0.000000 0.000000 0.000000 0.049693
#
#
# Mechanical properties :
#
#
# Convention : Reuss Voigt Hill
#
# Bulk Modulus (GPa) = 21.34143 47.65553 34.49848
# Shear Modulus (GPa) = 22.43671 28.24827 25.34249
#
# Velocity S-wave (km/s) = 3.27125 3.67054 3.47663
# Velocity P-wave (km/s) = 4.94436 6.37909 5.70699
#
# Compressibility (1/GPa) = 0.04685722
#
# Stress axis : x y z
#
# Youngs Moduli (GPa) = 107.27193 25.58503 99.24031
#
# Poissons Ratio (x) = -0.03390 0.45251
# Poissons Ratio (y) = -0.14213 0.25591
# Poissons Ratio (z) = 0.48913 0.06597
#
# Static dielectric constant tensor:
#      x y z
#    x 1.728500 0.000000 0.000000 
#    y 0.000000 1.795190 0.000000 
#    z 0.000000 0.000000 1.775270 
# 
# From -- ./inp_files/15769.got.cif
#   From: 2010.05.17/outbox.cif.g08.bks.cpg/sg62_8_cif.got.tgz:15769.got - 2010.06.03 15:25:27.
