data_PCOD9464173
_publ_section_title
;
Structure prediction by ZEFSAII (Michael W. Deem and Ramdas Pophale) SiO2 
 PCOD9464173
Probable space group: P N M A
;
_chemical_formula_sum "Si O2"
_cell_formula_units_Z 48
_cell_length_a 31.746192
_cell_length_b 8.537852
_cell_length_c 9.515429
_cell_angle_alpha 90.000000
_cell_angle_beta 90.000000
_cell_angle_gamma 90.000000
_cell_volume 2579.102686
_symmetry_space_group_name_H-M "P N M A"
_symmetry_group_IT_number 62
_symmetry_cell_setting 'orthorhombic'
loop_
_space_group_symop_operation_xyz
x,y,z
1/2-x,-y,1/2+z
1/2+x,1/2-y,1/2-z
-x,1/2+y,-z
-x,-y,-z
1/2+x,y,1/2-z
1/2-x,1/2+y,1/2+z
x,1/2-y,z
loop_
_atom_site_type_symbol
_atom_site_label
_atom_site_fract_x
_atom_site_fract_y
_atom_site_fract_z
Si Si1 0.038471 0.063894 0.093091
Si Si2 0.381348 0.060003 0.091415
Si Si3 0.383543 0.437572 0.418169
Si Si4 0.039230 0.561537 0.409895
Si Si5 0.707925 0.437448 0.579821
Si Si6 0.787321 0.439712 0.393489
O O1 0.035414 0.250000 0.100575
O O2 0.036938 0.996249 0.250277
O O3 0.081378 0.013754 0.015713
O O4 0.000000 0.000000 0.000000
O O5 0.382409 0.250000 0.091067
O O6 0.388824 0.012600 0.254123
O O7 0.333733 0.013496 0.050730
O O8 0.417887 0.006211 0.987271
O O9 0.387721 0.250000 0.423696
O O10 0.336446 0.485851 0.462466
O O11 0.038742 0.750000 0.410704
O O12 0.000000 0.500000 0.500000
O O13 0.703840 0.250000 0.571620
O O14 0.747802 0.487318 0.487143
O O15 0.716245 0.489130 0.739138
O O16 0.787249 0.250000 0.382673
#
# Coordination Sequence:
#
# PCOD9464173 Si02
#       6
#     8   8   8   8   8   8
#     4  12  25  41  60  86 117 150 191 236 285 342
#     4   8  17  35  58  80 106 144 188 232 280 336
#     4  10  20  38  61  84 113 150 189 233 287 342
#     4  11  22  38  60  86 116 152 193 237 287 341
#     4  10  20  34  55  84 114 147 190 237 285 339
#     4   9  19  36  55  78 111 149 190 235 282 334
#
# _framework density 18.611122999999999
#
# number of rings (size 3 to 8) (size 9 to 14) (size 15 to 20)
#    0.000    2.000    0.000    5.000    0.000    4.000 
#    0.000    9.167    0.000    0.000    0.000    0.000 
#    0.000    0.000    0.000    0.000    0.000    0.000 
#
# Total GULP energy -268057.443354 kJ/mol
# GULP energy per Si atom -5584.530070 kJ/mol
# Density = 1.856876 g / cm^3
# Si number density = 18.611123 Si / 1000 Ang^3
#
#
#
# Elastic Constant Matrix: (Units=GPa)
#
#
# Indices 1 2 3 4 5 6 
#
# 1 169.8073 43.2122 109.3252 0.0000 0.0000 0.0000
# 2 43.2122 65.0248 35.6544 0.0000 0.0000 0.0000
# 3 109.3252 35.6544 122.4689 0.0000 0.0000 0.0000
# 4 0.0000 0.0000 0.0000 31.3092 0.0000 0.0000
# 5 0.0000 0.0000 0.0000 0.0000 40.9156 0.0000
# 6 0.0000 0.0000 0.0000 0.0000 0.0000 31.2325
#
#
#
# Elastic Compliance Matrix: (Units=1/GPa)
#
#
# Indices 1 2 3 4 5 6 
#
# 1 0.014318 -0.002983 -0.011913 0.000000 0.000000 0.000000
# 2 -0.002983 0.018921 -0.002846 0.000000 0.000000 0.000000
# 3 -0.011913 -0.002846 0.019628 0.000000 0.000000 0.000000
# 4 0.000000 0.000000 0.000000 0.031939 0.000000 0.000000
# 5 0.000000 0.000000 0.000000 0.000000 0.024441 0.000000
# 6 0.000000 0.000000 0.000000 0.000000 0.000000 0.032018
#
#
# Mechanical properties :
#
#
# Convention : Reuss Voigt Hill
#
# Bulk Modulus (GPa) = 57.52298 81.52050 69.52174
# Shear Modulus (GPa) = 27.39082 31.96540 29.67811
#
# Velocity S-wave (km/s) = 3.84049 4.14882 3.99763
# Velocity P-wave (km/s) = 7.11624 8.17603 7.66447
#
# Compressibility (1/GPa) = 0.01738436
#
# Stress axis : x y z
#
# Youngs Moduli (GPa) = 69.84351 52.85004 50.94753
#
# Poissons Ratio (x) = 0.15764 0.60692
# Poissons Ratio (y) = 0.20833 0.14499
# Poissons Ratio (z) = 0.83202 0.15040
#
# Static dielectric constant tensor:
#      x y z
#    x 1.642980 0.000000 0.000000 
#    y 0.000000 1.635880 0.000000 
#    z 0.000000 0.000000 1.658890 
# 
# From -- ./inp_files/10136.got.cif
#   From: 2010.05.17/outbox.cif.g08.bks.cpg/sg62_6_cif.got.tgz:10136.got - 2010.06.03 15:25:27.
