data_PCOD9464298
_publ_section_title
;
Structure prediction by ZEFSAII (Michael W. Deem and Ramdas Pophale) SiO2 
 PCOD9464298
Probable space group: P N M A
;
_chemical_formula_sum "Si O2"
_cell_formula_units_Z 44
_cell_length_a 9.366439
_cell_length_b 27.313835
_cell_length_c 8.324471
_cell_angle_alpha 90.000000
_cell_angle_beta 90.000000
_cell_angle_gamma 90.000000
_cell_volume 2129.677464
_symmetry_space_group_name_H-M "P N M A"
_symmetry_group_IT_number 62
_symmetry_cell_setting 'orthorhombic'
loop_
_space_group_symop_operation_xyz
x,y,z
1/2-x,-y,1/2+z
1/2+x,1/2-y,1/2-z
-x,1/2+y,-z
-x,-y,-z
1/2+x,y,1/2-z
1/2-x,1/2+y,1/2+z
x,1/2-y,z
loop_
_atom_site_type_symbol
_atom_site_label
_atom_site_fract_x
_atom_site_fract_y
_atom_site_fract_z
Si Si1 0.444179 0.674657 0.751968
Si Si2 0.021403 0.428129 0.416944
Si Si3 0.201229 0.750000 0.825154
Si Si4 0.878717 0.608711 0.039108
Si Si5 0.631079 0.920124 0.249680
Si Si6 0.237762 0.471872 0.200414
O O1 0.488278 0.627630 0.857099
O O2 0.326051 0.707382 0.838103
O O3 0.578513 0.707454 0.704649
O O4 0.375952 0.652112 0.589028
O O5 0.976759 0.430465 0.601135
O O6 0.903726 0.459983 0.320705
O O7 0.173433 0.449090 0.363847
O O8 0.758457 0.612630 0.176525
O O9 0.035330 0.603793 0.113379
O O10 0.837918 0.559051 0.942338
O O11 0.697772 0.971712 0.300939
#
# Coordination Sequence:
#
# PCOD9464298 Si02
#       6
#     8   8   4   8   8   8
#     4  10  21  40  62  93 111 145 189 251 297 350
#     4  10  21  35  56  83 118 151 201 242 284 340
#     4  10  20  38  70  84 108 140 192 236 298 364
#     4  10  23  37  55  84 125 153 198 241 283 340
#     4  11  21  35  55  83 120 166 194 233 283 338
#     4  10  20  35  53  82 119 165 206 236 266 330
#
# _framework density 20.660406999999999
#
# number of rings (size 3 to 8) (size 9 to 14) (size 15 to 20)
#    0.000    1.818    0.000    5.455    0.000   10.182 
#    0.000    0.000    0.000   19.636    0.000    0.000 
#    0.000    0.000    0.000    0.000    0.000    0.000 
#
# Total GULP energy -245029.876932 kJ/mol
# GULP energy per Si atom -5568.860839 kJ/mol
# Density = 2.061338 g / cm^3
# Si number density = 20.660407 Si / 1000 Ang^3
#
#
#
# Elastic Constant Matrix: (Units=GPa)
#
#
# Indices 1 2 3 4 5 6 
#
# 1 62.1466 11.7544 14.7454 0.0000 0.0000 0.0000
# 2 11.7544 79.1249 22.0970 0.0000 0.0000 0.0000
# 3 14.7454 22.0970 45.3401 0.0000 0.0000 0.0000
# 4 0.0000 0.0000 0.0000 -3.0568 0.0000 0.0000
# 5 0.0000 0.0000 0.0000 0.0000 41.2402 0.0000
# 6 0.0000 0.0000 0.0000 0.0000 0.0000 34.7935
#
#
#
# Elastic Compliance Matrix: (Units=1/GPa)
#
#
# Indices 1 2 3 4 5 6 
#
# 1 0.017530 -0.001171 -0.005130 0.000000 0.000000 0.000000
# 2 -0.001171 0.014708 -0.006787 0.000000 0.000000 0.000000
# 3 -0.005130 -0.006787 0.027032 0.000000 0.000000 0.000000
# 4 0.000000 0.000000 0.000000 -0.327135 0.000000 0.000000
# 5 0.000000 0.000000 0.000000 0.000000 0.024248 0.000000
# 6 0.000000 0.000000 0.000000 0.000000 0.000000 0.028741
#
#
# Mechanical properties :
#
#
# Convention : Reuss Voigt Hill
#
# Bulk Modulus (GPa) = 30.21876 31.53392 30.87634
# Shear Modulus (GPa) = -28.14220 23.79635 -2.17292
#
# Velocity S-wave (km/s) = -3.69471 3.39748 -1.02665
# Velocity P-wave (km/s) = 1.88229 5.53955 3.68399
#
# Compressibility (1/GPa) = 0.03309203
#
# Stress axis : x y z
#
# Youngs Moduli (GPa) = 57.04587 67.99179 36.99374
#
# Poissons Ratio (x) = 0.07965 0.18978
# Poissons Ratio (y) = 0.06683 0.25107
# Poissons Ratio (z) = 0.29265 0.46146
#
# Static dielectric constant tensor:
#      x y z
#    x 1.757980 0.000000 0.000000 
#    y 0.000000 1.697040 0.000000 
#    z 0.000000 0.000000 1.781670 
# 
# From -- ./inp_files/4475.got.cif
#   From: 2010.05.17/outbox.cif.g08.bks.cpg/sg62_3_cif.got.tgz:4475.got - 2010.06.03 15:25:27.
