data_PCOD9464047
_publ_section_title
;
Structure prediction by ZEFSAII (Michael W. Deem and Ramdas Pophale) SiO2 
 PCOD9464047
Probable space group: P N M A
;
_chemical_formula_sum "Si O2"
_cell_formula_units_Z 56
_cell_length_a 22.047936
_cell_length_b 9.175507
_cell_length_c 14.788888
_cell_angle_alpha 90.000000
_cell_angle_beta 90.000000
_cell_angle_gamma 90.000000
_cell_volume 2991.806700
_symmetry_space_group_name_H-M "P N M A"
_symmetry_group_IT_number 62
_symmetry_cell_setting 'orthorhombic'
loop_
_space_group_symop_operation_xyz
x,y,z
1/2-x,-y,1/2+z
1/2+x,1/2-y,1/2-z
-x,1/2+y,-z
-x,-y,-z
1/2+x,y,1/2-z
1/2-x,1/2+y,1/2+z
x,1/2-y,z
loop_
_atom_site_type_symbol
_atom_site_label
_atom_site_fract_x
_atom_site_fract_y
_atom_site_fract_z
Si Si1 0.460722 0.420366 0.650960
Si Si2 0.727106 0.075583 0.323326
Si Si3 0.384398 0.574975 0.801467
Si Si4 0.645786 0.080056 0.829769
Si Si5 0.566015 0.426236 0.003002
Si Si6 0.345284 0.418940 0.521808
Si Si7 0.405120 0.919638 0.368031
O O1 0.467693 0.250000 0.676330
O O2 0.435518 0.507702 0.736459
O O3 0.409597 0.429184 0.574310
O O4 0.526060 0.471973 0.617302
O O5 0.727883 0.250000 0.326925
O O6 0.680353 0.030901 0.242701
O O7 0.793894 0.012046 0.313760
O O8 0.700180 0.009941 0.416032
O O9 0.387211 0.750000 0.796114
O O10 0.398496 0.533532 0.904630
O O11 0.662833 0.250000 0.844162
O O12 0.606207 0.032643 0.915878
O O13 0.606844 0.072304 0.738503
O O14 0.558665 0.250000 0.001703
O O15 0.500000 0.500000 0.000000
O O16 0.327065 0.250000 0.517225
O O17 0.357238 0.487296 0.424338
O O18 0.400314 0.750000 0.396714
#
# Coordination Sequence:
#
# PCOD9464047 Si02
#       7
#     8   8   8   8   8   8   8
#     4   9  18  33  54  81 111 141 173 213 265 323
#     4  10  21  38  57  79 108 142 183 228 275 329
#     4   9  19  35  56  80 107 141 180 224 271 322
#     4  10  22  38  55  78 111 147 182 227 277 324
#     4  10  21  38  59  84 114 148 186 229 279 331
#     4  10  20  34  55  81 108 141 180 221 267 321
#     4  10  20  34  52  77 110 144 177 216 266 320
#
# _framework density 18.717786
#
# number of rings (size 3 to 8) (size 9 to 14) (size 15 to 20)
#    0.000    2.286    0.000    2.143    0.000    5.714 
#    0.000    1.429    0.000    0.000    0.000    0.000 
#    0.000    0.000    0.000    0.000    0.000    0.000 
#
# Total GULP energy -312525.383278 kJ/mol
# GULP energy per Si atom -5580.810416 kJ/mol
# Density = 1.867518 g / cm^3
# Si number density = 18.717786 Si / 1000 Ang^3
#
#
#
# Elastic Constant Matrix: (Units=GPa)
#
#
# Indices 1 2 3 4 5 6 
#
# 1 70.2320 22.7233 7.2488 0.0000 0.0000 0.0000
# 2 22.7233 36.1518 22.9503 0.0000 0.0000 0.0000
# 3 7.2488 22.9503 90.6865 0.0000 0.0000 0.0000
# 4 0.0000 0.0000 0.0000 27.4267 0.0000 0.0000
# 5 0.0000 0.0000 0.0000 0.0000 12.1206 0.0000
# 6 0.0000 0.0000 0.0000 0.0000 0.0000 32.7685
#
#
#
# Elastic Compliance Matrix: (Units=1/GPa)
#
#
# Indices 1 2 3 4 5 6 
#
# 1 0.018092 -0.012455 0.001706 0.000000 0.000000 0.000000
# 2 -0.012455 0.041530 -0.009515 0.000000 0.000000 0.000000
# 3 0.001706 -0.009515 0.013299 0.000000 0.000000 0.000000
# 4 0.000000 0.000000 0.000000 0.036461 0.000000 0.000000
# 5 0.000000 0.000000 0.000000 0.000000 0.082504 0.000000
# 6 0.000000 0.000000 0.000000 0.000000 0.000000 0.030517
#
#
# Mechanical properties :
#
#
# Convention : Reuss Voigt Hill
#
# Bulk Modulus (GPa) = 30.87040 33.65722 32.26381
# Shear Modulus (GPa) = 18.26633 24.07301 21.16967
#
# Velocity S-wave (km/s) = 3.12730 3.59012 3.36667
# Velocity P-wave (km/s) = 5.43768 5.93344 5.69096
#
# Compressibility (1/GPa) = 0.03239349
#
# Stress axis : x y z
#
# Youngs Moduli (GPa) = 55.27252 24.07909 75.19637
#
# Poissons Ratio (x) = 0.29990 -0.12827
# Poissons Ratio (y) = 0.68841 0.71546
# Poissons Ratio (z) = -0.09429 0.22910
#
# Static dielectric constant tensor:
#      x y z
#    x 1.639470 0.000000 0.000000 
#    y 0.000000 1.637530 0.000000 
#    z 0.000000 0.000000 1.644960 
# 
# From -- ./inp_files/20316.got.cif
#   From: 2010.05.17/outbox.cif.g08.bks.cpg/sg62_11_cif.got.tgz:20316.got - 2010.06.03 15:25:27.
