data_PCOD9464802
_publ_section_title
;
Structure prediction by ZEFSAII (Michael W. Deem and Ramdas Pophale) SiO2 
 PCOD9464802
Probable space group: P N M A
;
_chemical_formula_sum "Si O2"
_cell_formula_units_Z 40
_cell_length_a 24.885648
_cell_length_b 10.359572
_cell_length_c 7.091346
_cell_angle_alpha 90.000000
_cell_angle_beta 90.000000
_cell_angle_gamma 90.000000
_cell_volume 1828.182060
_symmetry_space_group_name_H-M "P N M A"
_symmetry_group_IT_number 62
_symmetry_cell_setting 'orthorhombic'
loop_
_space_group_symop_operation_xyz
x,y,z
1/2-x,-y,1/2+z
1/2+x,1/2-y,1/2-z
-x,1/2+y,-z
-x,-y,-z
1/2+x,y,1/2-z
1/2-x,1/2+y,1/2+z
x,1/2-y,z
loop_
_atom_site_type_symbol
_atom_site_label
_atom_site_fract_x
_atom_site_fract_y
_atom_site_fract_z
Si Si1 0.543009 0.605066 0.440366
Si Si2 0.618203 0.966944 0.140502
Si Si3 0.177187 0.250000 0.758965
Si Si4 0.727511 0.750000 0.748874
Si Si5 0.702658 0.750000 0.192383
Si Si6 0.352902 0.750000 0.838872
Si Si7 0.644623 0.530812 0.693294
O O1 0.500000 0.500000 0.500000
O O2 0.522888 0.750000 0.469768
O O3 0.563319 0.588943 0.225045
O O4 0.595942 0.581254 0.567349
O O5 0.666134 0.876275 0.219971
O O6 0.622269 0.113149 0.215418
O O7 0.625754 0.963563 0.914038
O O8 0.240337 0.250000 0.705411
O O9 0.144474 0.250000 0.565558
O O10 0.162190 0.384779 0.855506
O O11 0.790287 0.750000 0.712480
O O12 0.695913 0.624505 0.674701
O O13 0.719335 0.750000 0.973369
#
# Coordination Sequence:
#
# PCOD9464802 Si02
#       7
#     8   8   4   4   4   4   8
#     4  12  28  46  72  96 122 170 222 276 335 374
#     4  10  23  43  63  94 135 169 212 269 320 385
#     4  10  22  36  62  97 133 176 214 252 315 388
#     4  10  20  36  60  93 133 178 212 252 321 380
#     4  10  20  36  60  93 133 178 212 252 321 380
#     4  10  22  36  62  97 133 176 214 252 315 388
#     4  10  23  43  63  94 135 169 212 269 320 385
#
# _framework density 21.879657000000002
#
# number of rings (size 3 to 8) (size 9 to 14) (size 15 to 20)
#    0.000    1.600    2.000    1.200    8.400    0.800 
#    0.000    0.000    0.000    0.000    0.000    0.000 
#    0.000    0.000    0.000    0.000    0.000    0.000 
#
# Total GULP energy -223644.090416 kJ/mol
# GULP energy per Si atom -5591.102260 kJ/mol
# Density = 2.182986 g / cm^3
# Si number density = 21.879657 Si / 1000 Ang^3
#
#
#
# Elastic Constant Matrix: (Units=GPa)
#
#
# Indices 1 2 3 4 5 6 
#
# 1 31.1307 13.8873 -4.0983 0.0000 0.0000 0.0000
# 2 13.8873 184.6622 6.0400 0.0000 0.0000 0.0000
# 3 -4.0983 6.0400 61.2362 0.0000 0.0000 0.0000
# 4 0.0000 0.0000 0.0000 1.3321 0.0000 0.0000
# 5 0.0000 0.0000 0.0000 0.0000 15.7805 0.0000
# 6 0.0000 0.0000 0.0000 0.0000 0.0000 44.3954
#
#
#
# Elastic Compliance Matrix: (Units=1/GPa)
#
#
# Indices 1 2 3 4 5 6 
#
# 1 0.033617 -0.002610 0.002507 0.000000 0.000000 0.000000
# 2 -0.002610 0.005635 -0.000731 0.000000 0.000000 0.000000
# 3 0.002507 -0.000731 0.016570 0.000000 0.000000 0.000000
# 4 0.000000 0.000000 0.000000 0.750696 0.000000 0.000000
# 5 0.000000 0.000000 0.000000 0.000000 0.063369 0.000000
# 6 0.000000 0.000000 0.000000 0.000000 0.000000 0.022525
#
#
# Mechanical properties :
#
#
# Convention : Reuss Voigt Hill
#
# Bulk Modulus (GPa) = 18.46519 34.29856 26.38187
# Shear Modulus (GPa) = 5.48166 29.71495 17.59831
#
# Velocity S-wave (km/s) = 1.58455 3.68925 2.83914
# Velocity P-wave (km/s) = 3.43591 5.81872 4.77823
#
# Compressibility (1/GPa) = 0.05415596
#
# Stress axis : x y z
#
# Youngs Moduli (GPa) = 29.74676 177.44712 60.34973
#
# Poissons Ratio (x) = 0.46316 -0.15132
# Poissons Ratio (y) = 0.07764 0.04409
# Poissons Ratio (z) = -0.07459 0.12963
#
# Static dielectric constant tensor:
#      x y z
#    x 1.740620 0.000000 0.000000 
#    y 0.000000 1.812750 0.000000 
#    z 0.000000 0.000000 1.844950 
# 
# From -- ./inp_files/9157.got.cif
#   From: 2010.05.17/outbox.cif.g08.bks.cpg/sg62_5_cif.got.tgz:9157.got - 2010.06.03 15:25:27.
