data_PCOD9464961
_publ_section_title
;
Structure prediction by ZEFSAII (Michael W. Deem and Ramdas Pophale) SiO2 
 PCOD9464961
Probable space group: P N M A
;
_chemical_formula_sum "Si O2"
_cell_formula_units_Z 64
_cell_length_a 9.020896
_cell_length_b 13.412043
_cell_length_c 28.995907
_cell_angle_alpha 90.000000
_cell_angle_beta 90.000000
_cell_angle_gamma 90.000000
_cell_volume 3508.175500
_symmetry_space_group_name_H-M "P N M A"
_symmetry_group_IT_number 62
_symmetry_cell_setting 'orthorhombic'
loop_
_space_group_symop_operation_xyz
x,y,z
1/2-x,-y,1/2+z
1/2+x,1/2-y,1/2-z
-x,1/2+y,-z
-x,-y,-z
1/2+x,y,1/2-z
1/2-x,1/2+y,1/2+z
x,1/2-y,z
loop_
_atom_site_type_symbol
_atom_site_label
_atom_site_fract_x
_atom_site_fract_y
_atom_site_fract_z
Si Si1 0.097738 0.513506 0.152514
Si Si2 0.070811 0.003937 0.389292
Si Si3 0.967684 0.860324 0.980072
Si Si4 0.150506 0.133006 0.304456
Si Si5 0.789905 0.132948 0.406524
Si Si6 0.125796 0.461231 0.931889
Si Si7 0.121714 0.132191 0.676997
Si Si8 0.579927 0.528562 0.745504
O O1 0.194105 0.419037 0.134269
O O2 0.215859 0.602423 0.158081
O O3 0.023294 0.491210 0.201405
O O4 0.971779 0.536484 0.114670
O O5 0.200510 0.960652 0.420897
O O6 0.996006 0.917478 0.358240
O O7 0.147694 0.082373 0.354408
O O8 0.937389 0.066788 0.412173
O O9 0.023459 0.750000 0.970919
O O10 0.816145 0.874155 0.951028
O O11 0.930156 0.876295 0.033472
O O12 0.083850 0.939512 0.960659
O O13 0.178651 0.250000 0.306524
O O14 0.270820 0.075393 0.274067
O O15 0.994802 0.107186 0.280329
O O16 0.821038 0.250000 0.397384
O O17 0.102899 0.250000 0.681733
O O18 0.103726 0.071889 0.725012
#
# Coordination Sequence:
#
# PCOD9464961 Si02
#       8
#     8   8   8   8   8   8   8   8
#     4  10  20  38  57  79 110 147 193 233 279 339
#     4  10  21  37  58  86 117 145 194 235 283 340
#     4   9  20  37  57  84 114 148 186 225 286 351
#     4  11  22  35  55  83 116 149 184 232 284 339
#     4   9  19  36  57  81 114 150 181 227 290 350
#     4  10  20  37  61  84 115 145 180 242 286 328
#     4  10  23  41  58  77 112 156 197 238 279 328
#     4  11  21  39  53  81 115 148 192 234 279 338
#
# _framework density 18.243100999999999
#
# number of rings (size 3 to 8) (size 9 to 14) (size 15 to 20)
#    0.000    2.000    2.500    0.750    0.000    4.000 
#    0.000    0.000    0.000    0.000    0.000    0.000 
#    0.000    0.000    0.000    0.000    0.000    0.000 
#
# Total GULP energy -357093.460412 kJ/mol
# GULP energy per Si atom -5579.585319 kJ/mol
# Density = 1.820158 g / cm^3
# Si number density = 18.243101 Si / 1000 Ang^3
#
#
#
# Elastic Constant Matrix: (Units=GPa)
#
#
# Indices 1 2 3 4 5 6 
#
# 1 55.2716 11.9218 -4.7227 0.0000 0.0000 0.0000
# 2 11.9218 94.1285 10.8929 0.0000 0.0000 0.0000
# 3 -4.7227 10.8929 39.6366 0.0000 0.0000 0.0000
# 4 0.0000 0.0000 0.0000 12.4255 0.0000 0.0000
# 5 0.0000 0.0000 0.0000 0.0000 15.8276 0.0000
# 6 0.0000 0.0000 0.0000 0.0000 0.0000 7.8277
#
#
#
# Elastic Compliance Matrix: (Units=1/GPa)
#
#
# Indices 1 2 3 4 5 6 
#
# 1 0.018943 -0.002748 0.003012 0.000000 0.000000 0.000000
# 2 -0.002748 0.011371 -0.003452 0.000000 0.000000 0.000000
# 3 0.003012 -0.003452 0.026537 0.000000 0.000000 0.000000
# 4 0.000000 0.000000 0.000000 0.080480 0.000000 0.000000
# 5 0.000000 0.000000 0.000000 0.000000 0.063181 0.000000
# 6 0.000000 0.000000 0.000000 0.000000 0.000000 0.127752
#
#
# Mechanical properties :
#
#
# Convention : Reuss Voigt Hill
#
# Bulk Modulus (GPa) = 19.81195 25.02453 22.41824
# Shear Modulus (GPa) = 14.22620 18.61246 16.41933
#
# Velocity S-wave (km/s) = 2.79554 3.19760 3.00330
# Velocity P-wave (km/s) = 4.61558 5.23258 4.93373
#
# Compressibility (1/GPa) = 0.05047459
#
# Stress axis : x y z
#
# Youngs Moduli (GPa) = 52.79127 87.94061 37.68342
#
# Poissons Ratio (x) = 0.24164 -0.11351
# Poissons Ratio (y) = 0.14506 0.13010
# Poissons Ratio (z) = -0.15901 0.30361
#
# Static dielectric constant tensor:
#      x y z
#    x 1.648570 0.000000 0.000000 
#    y 0.000000 1.596300 0.000000 
#    z 0.000000 0.000000 1.626140 
# 
# From -- ./inp_files/32253.got.cif
#   From: 2010.05.17/outbox.cif.g08.bks.cpg/sg62_17_cif.got.tgz:32253.got - 2010.06.03 15:25:27.
