data_PCOD9464850
_publ_section_title
;
Structure prediction by ZEFSAII (Michael W. Deem and Ramdas Pophale) SiO2 
 PCOD9464850
Probable space group: P N M A
;
_chemical_formula_sum "Si O2"
_cell_formula_units_Z 48
_cell_length_a 17.300335
_cell_length_b 22.008878
_cell_length_c 5.173324
_cell_angle_alpha 90.000000
_cell_angle_beta 90.000000
_cell_angle_gamma 90.000000
_cell_volume 1969.799825
_symmetry_space_group_name_H-M "P N M A"
_symmetry_group_IT_number 62
_symmetry_cell_setting 'orthorhombic'
loop_
_space_group_symop_operation_xyz
x,y,z
1/2-x,-y,1/2+z
1/2+x,1/2-y,1/2-z
-x,1/2+y,-z
-x,-y,-z
1/2+x,y,1/2-z
1/2-x,1/2+y,1/2+z
x,1/2-y,z
loop_
_atom_site_type_symbol
_atom_site_label
_atom_site_fract_x
_atom_site_fract_y
_atom_site_fract_z
Si Si1 0.904996 0.367704 0.119833
Si Si2 0.391415 0.530190 0.821476
Si Si3 0.986304 0.092893 0.636002
Si Si4 0.172497 0.379800 0.973308
Si Si5 0.746782 0.923043 0.532131
Si Si6 0.202364 0.750000 0.862809
Si Si7 0.309387 0.750000 0.362197
O O1 0.942274 0.375069 0.398746
O O2 0.853104 0.308039 0.099387
O O3 0.968630 0.370792 0.895614
O O4 0.844189 0.423560 0.073033
O O5 0.445042 0.472330 0.821933
O O6 0.385799 0.565825 0.550229
O O7 0.429033 0.578267 0.023281
O O8 0.302589 0.519209 0.911083
O O9 0.230935 0.397915 0.746522
O O10 0.144256 0.312433 0.907625
O O11 0.219852 0.378765 0.243666
O O12 0.241465 0.750000 0.579370
O O13 0.268547 0.750000 0.083198
#
# Coordination Sequence:
#
# PCOD9464850 Si02
#       7
#     8   8   8   8   8   4   4
#     4  12  24  41  64 100 125 168 218 270 328 384
#     4   9  25  44  66  89 133 175 220 263 326 390
#     4  11  26  41  68  91 130 179 215 260 336 400
#     4  10  20  36  65  92 119 164 215 262 310 380
#     4  10  21  39  64  93 125 160 211 272 309 378
#     4  12  22  40  64  89 141 162 207 265 337 393
#     4  12  18  38  66  95 121 174 211 261 325 399
#
# _framework density 24.367958999999999
#
# number of rings (size 3 to 8) (size 9 to 14) (size 15 to 20)
#    1.000    0.333    3.333    2.000    4.667    2.667 
#    0.000    1.667    0.000    0.000    0.000    0.000 
#    0.000    0.000    0.000    0.000    0.000    0.000 
#
# Total GULP energy -268298.442718 kJ/mol
# GULP energy per Si atom -5589.550890 kJ/mol
# Density = 2.431250 g / cm^3
# Si number density = 24.367959 Si / 1000 Ang^3
#
#
#
# Elastic Constant Matrix: (Units=GPa)
#
#
# Indices 1 2 3 4 5 6 
#
# 1 83.4666 2.9313 19.0732 0.0000 0.0000 0.0000
# 2 2.9313 94.6243 20.8300 0.0000 0.0000 0.0000
# 3 19.0732 20.8300 144.6521 0.0000 0.0000 0.0000
# 4 0.0000 0.0000 0.0000 24.5010 0.0000 0.0000
# 5 0.0000 0.0000 0.0000 0.0000 34.6970 0.0000
# 6 0.0000 0.0000 0.0000 0.0000 0.0000 29.3464
#
#
#
# Elastic Compliance Matrix: (Units=1/GPa)
#
#
# Indices 1 2 3 4 5 6 
#
# 1 0.012353 -0.000025 -0.001625 0.000000 0.000000 0.000000
# 2 -0.000025 0.010914 -0.001568 0.000000 0.000000 0.000000
# 3 -0.001625 -0.001568 0.007353 0.000000 0.000000 0.000000
# 4 0.000000 0.000000 0.000000 0.040815 0.000000 0.000000
# 5 0.000000 0.000000 0.000000 0.000000 0.028821 0.000000
# 6 0.000000 0.000000 0.000000 0.000000 0.000000 0.034076
#
#
# Mechanical properties :
#
#
# Convention : Reuss Voigt Hill
#
# Bulk Modulus (GPa) = 41.35051 45.37912 43.36481
# Shear Modulus (GPa) = 33.59538 36.36945 34.98241
#
# Velocity S-wave (km/s) = 3.71707 3.86749 3.79303
# Velocity P-wave (km/s) = 5.95216 6.21339 6.08418
#
# Compressibility (1/GPa) = 0.02418350
#
# Stress axis : x y z
#
# Youngs Moduli (GPa) = 80.95132 91.62431 135.99375
#
# Poissons Ratio (x) = 0.00228 0.22102
# Poissons Ratio (y) = 0.00202 0.21329
# Poissons Ratio (z) = 0.13157 0.14370
#
# Static dielectric constant tensor:
#      x y z
#    x 2.032460 0.000000 0.000000 
#    y 0.000000 2.010610 0.000000 
#    z 0.000000 0.000000 1.942930 
# 
# From -- ./inp_files/2273.got.cif
#   From: 2010.05.17/outbox.cif.g08.bks.cpg/sg62_2_cif.got.tgz:2273.got - 2010.06.03 15:25:27.
