data_PCOD9464734
_publ_section_title
;
Structure prediction by ZEFSAII (Michael W. Deem and Ramdas Pophale) SiO2 
 PCOD9464734
Probable space group: P N M A
;
_chemical_formula_sum "Si O2"
_cell_formula_units_Z 56
_cell_length_a 20.082664
_cell_length_b 7.683500
_cell_length_c 16.030864
_cell_angle_alpha 90.000000
_cell_angle_beta 90.000000
_cell_angle_gamma 90.000000
_cell_volume 2473.644856
_symmetry_space_group_name_H-M "P N M A"
_symmetry_group_IT_number 62
_symmetry_cell_setting 'orthorhombic'
loop_
_space_group_symop_operation_xyz
x,y,z
1/2-x,-y,1/2+z
1/2+x,1/2-y,1/2-z
-x,1/2+y,-z
-x,-y,-z
1/2+x,y,1/2-z
1/2-x,1/2+y,1/2+z
x,1/2-y,z
loop_
_atom_site_type_symbol
_atom_site_label
_atom_site_fract_x
_atom_site_fract_y
_atom_site_fract_z
Si Si1 0.782812 0.963533 0.494300
Si Si2 0.371441 0.460207 0.503163
Si Si3 0.142538 0.443445 0.669230
Si Si4 0.071537 0.543620 0.829478
Si Si5 0.358317 0.546962 0.840735
Si Si6 0.076883 0.457226 0.184642
Si Si7 0.491249 0.049903 0.095190
O O1 0.789865 0.750000 0.493459
O O2 0.705801 0.010984 0.496727
O O3 0.815696 0.025189 0.407087
O O4 0.818218 0.025828 0.579912
O O5 0.373255 0.250000 0.501074
O O6 0.406891 0.526579 0.419399
O O7 0.405277 0.517253 0.588579
O O8 0.169430 0.250000 0.682641
O O9 0.129264 0.521743 0.760413
O O10 0.067606 0.438714 0.633128
O O11 0.062014 0.750000 0.838598
O O12 0.998639 0.473998 0.802864
O O13 0.336623 0.750000 0.834947
O O14 0.365275 0.472161 0.746898
O O15 0.435941 0.537262 0.866110
O O16 0.075290 0.250000 0.201801
O O17 0.469424 0.250000 0.105071
O O18 0.500000 0.000000 0.000000
#
# Coordination Sequence:
#
# PCOD9464734 Si02
#       7
#     8   8   8   8   8   8   8
#     4   9  19  36  55  80 114 153 186 219 281 347
#     4  10  22  39  58  78 109 151 194 234 275 335
#     4  11  21  34  57  86 115 149 186 230 286 340
#     4  10  21  38  59  85 112 143 187 239 286 332
#     4   9  17  32  55  79 109 146 178 219 278 338
#     4  10  20  36  59  84 111 142 183 236 289 330
#     4  11  19  32  54  83 117 148 184 230 281 334
#
# _framework density 22.638658
#
# number of rings (size 3 to 8) (size 9 to 14) (size 15 to 20)
#    0.000    2.000    2.857    1.286    0.000    2.286 
#    0.000    2.857    0.000    0.000    0.000    0.000 
#    0.000    0.000    0.000    0.000    0.000    0.000 
#
# Total GULP energy -312391.630127 kJ/mol
# GULP energy per Si atom -5578.421967 kJ/mol
# Density = 2.258713 g / cm^3
# Si number density = 22.638658 Si / 1000 Ang^3
#
#
#
# Elastic Constant Matrix: (Units=GPa)
#
#
# Indices 1 2 3 4 5 6 
#
# 1 67.8318 5.7657 39.9089 0.0000 0.0000 0.0000
# 2 5.7657 35.4110 -6.3896 0.0000 0.0000 0.0000
# 3 39.9089 -6.3896 177.7932 0.0000 0.0000 0.0000
# 4 0.0000 0.0000 0.0000 14.8896 0.0000 0.0000
# 5 0.0000 0.0000 0.0000 0.0000 27.0687 0.0000
# 6 0.0000 0.0000 0.0000 0.0000 0.0000 7.1153
#
#
#
# Elastic Compliance Matrix: (Units=1/GPa)
#
#
# Indices 1 2 3 4 5 6 
#
# 1 0.017422 -0.003565 -0.004039 0.000000 0.000000 0.000000
# 2 -0.003565 0.029154 0.001848 0.000000 0.000000 0.000000
# 3 -0.004039 0.001848 0.006597 0.000000 0.000000 0.000000
# 4 0.000000 0.000000 0.000000 0.067161 0.000000 0.000000
# 5 0.000000 0.000000 0.000000 0.000000 0.036943 0.000000
# 6 0.000000 0.000000 0.000000 0.000000 0.000000 0.140541
#
#
# Mechanical properties :
#
#
# Convention : Reuss Voigt Hill
#
# Bulk Modulus (GPa) = 24.00342 39.95626 31.97984
# Shear Modulus (GPa) = 15.46948 25.93146 20.70047
#
# Velocity S-wave (km/s) = 2.61688 3.38812 3.02716
# Velocity P-wave (km/s) = 4.44484 5.74402 5.13567
#
# Compressibility (1/GPa) = 0.04166073
#
# Stress axis : x y z
#
# Youngs Moduli (GPa) = 57.40002 34.30086 151.57273
#
# Poissons Ratio (x) = 0.12230 0.61216
# Poissons Ratio (y) = 0.20465 -0.28011
# Poissons Ratio (z) = 0.23182 -0.06339
#
# Static dielectric constant tensor:
#      x y z
#    x 1.789880 0.000000 0.000000 
#    y 0.000000 1.850190 0.000000 
#    z 0.000000 0.000000 1.908740 
# 
# From -- ./inp_files/20218.got.cif
#   From: 2010.05.17/outbox.cif.g08.bks.cpg/sg62_11_cif.got.tgz:20218.got - 2010.06.03 15:25:27.
