data_PCOD9464083
_publ_section_title
;
Structure prediction by ZEFSAII (Michael W. Deem and Ramdas Pophale) SiO2 
 PCOD9464083
Probable space group: P N M A
;
_chemical_formula_sum "Si O2"
_cell_formula_units_Z 64
_cell_length_a 24.450544
_cell_length_b 7.628366
_cell_length_c 15.587424
_cell_angle_alpha 90.000000
_cell_angle_beta 90.000000
_cell_angle_gamma 90.000000
_cell_volume 2907.330451
_symmetry_space_group_name_H-M "P N M A"
_symmetry_group_IT_number 62
_symmetry_cell_setting 'orthorhombic'
loop_
_space_group_symop_operation_xyz
x,y,z
1/2-x,-y,1/2+z
1/2+x,1/2-y,1/2-z
-x,1/2+y,-z
-x,-y,-z
1/2+x,y,1/2-z
1/2-x,1/2+y,1/2+z
x,1/2-y,z
loop_
_atom_site_type_symbol
_atom_site_label
_atom_site_fract_x
_atom_site_fract_y
_atom_site_fract_z
Si Si1 0.363712 0.540174 0.185829
Si Si2 0.468785 0.960201 0.912416
Si Si3 0.525801 0.540164 0.742193
Si Si4 0.752960 0.954169 0.075445
Si Si5 0.637286 0.037133 0.003990
Si Si6 0.241904 0.537935 0.230340
Si Si7 0.335186 0.540115 0.568757
Si Si8 0.460052 0.539066 0.578634
O O1 0.361134 0.750000 0.184238
O O2 0.409468 0.493336 0.254982
O O3 0.381291 0.480082 0.090923
O O4 0.302318 0.477617 0.201515
O O5 0.466565 0.750000 0.904022
O O6 0.499703 0.031667 0.829951
O O7 0.406776 0.022470 0.926213
O O8 0.500000 0.000000 0.000000
O O9 0.519838 0.750000 0.742247
O O10 0.491607 0.471061 0.662470
O O11 0.767200 0.750000 0.089480
O O12 0.738775 0.025578 0.170594
O O13 0.800118 0.029559 0.012942
O O14 0.697210 0.968596 0.022365
O O15 0.639469 0.250000 0.004961
O O16 0.240581 0.750000 0.231179
O O17 0.197061 0.487930 0.158768
O O18 0.337600 0.750000 0.557899
O O19 0.397647 0.473299 0.570608
O O20 0.500000 0.500000 0.500000
O O21 0.455887 0.750000 0.585926
#
# Coordination Sequence:
#
# PCOD9464083 Si02
#       8
#     8   8   8   8   8   8   8   8
#     4  10  20  36  59  85 115 150 192 238 288 349
#     4  10  20  34  53  80 116 151 185 227 278 339
#     4  10  22  38  57  84 117 152 193 242 287 340
#     4  10  22  38  58  85 115 151 192 236 292 350
#     4  10  20  35  56  83 114 151 190 230 282 345
#     4  10  22  39  59  87 120 152 192 243 294 350
#     4  10  22  41  64  88 119 156 197 244 297 353
#     4  10  24  44  64  87 116 157 206 253 298 347
#
# _framework density 22.013321000000001
#
# number of rings (size 3 to 8) (size 9 to 14) (size 15 to 20)
#    0.000    2.000    2.500    0.000    3.500    3.000 
#    0.000    0.000    0.000    0.000    0.000    0.000 
#    0.000    0.000    0.000    0.000    0.000    0.000 
#
# Total GULP energy -357241.354325 kJ/mol
# GULP energy per Si atom -5581.896161 kJ/mol
# Density = 2.196322 g / cm^3
# Si number density = 22.013321 Si / 1000 Ang^3
#
#
#
# Elastic Constant Matrix: (Units=GPa)
#
#
# Indices 1 2 3 4 5 6 
#
# 1 184.7951 -1.8949 79.0607 0.0000 0.0000 0.0000
# 2 -1.8949 41.4959 -1.7832 0.0000 0.0000 0.0000
# 3 79.0607 -1.7832 140.4606 0.0000 0.0000 0.0000
# 4 0.0000 0.0000 0.0000 17.8705 0.0000 0.0000
# 5 0.0000 0.0000 0.0000 0.0000 31.5132 0.0000
# 6 0.0000 0.0000 0.0000 0.0000 0.0000 1.8818
#
#
#
# Elastic Compliance Matrix: (Units=1/GPa)
#
#
# Indices 1 2 3 4 5 6 
#
# 1 0.007129 0.000153 -0.004011 0.000000 0.000000 0.000000
# 2 0.000153 0.024115 0.000220 0.000000 0.000000 0.000000
# 3 -0.004011 0.000220 0.009380 0.000000 0.000000 0.000000
# 4 0.000000 0.000000 0.000000 0.055958 0.000000 0.000000
# 5 0.000000 0.000000 0.000000 0.000000 0.031733 0.000000
# 6 0.000000 0.000000 0.000000 0.000000 0.000000 0.531417
#
#
# Mechanical properties :
#
#
# Convention : Reuss Voigt Hill
#
# Bulk Modulus (GPa) = 29.98620 57.50186 43.74403
# Shear Modulus (GPa) = 7.37329 29.67769 18.52549
#
# Velocity S-wave (km/s) = 1.83214 3.67573 2.90411
# Velocity P-wave (km/s) = 4.25759 6.64776 5.58210
#
# Compressibility (1/GPa) = 0.03334867
#
# Stress axis : x y z
#
# Youngs Moduli (GPa) = 140.27522 41.46762 106.61334
#
# Poissons Ratio (x) = -0.00635 0.42759
# Poissons Ratio (y) = -0.02149 -0.02345
# Poissons Ratio (z) = 0.56259 -0.00912
#
# Static dielectric constant tensor:
#      x y z
#    x 1.797290 0.000000 0.000000 
#    y 0.000000 1.817490 0.000000 
#    z 0.000000 0.000000 1.822420 
# 
# From -- ./inp_files/20930.got.cif
#   From: 2010.05.17/outbox.cif.g08.bks.cpg/sg62_11_cif.got.tgz:20930.got - 2010.06.03 15:25:27.
