data_PCOD9464546
_publ_section_title
;
Structure prediction by ZEFSAII (Michael W. Deem and Ramdas Pophale) SiO2 
 PCOD9464546
Probable space group: P N M A
;
_chemical_formula_sum "Si O2"
_cell_formula_units_Z 64
_cell_length_a 23.595625
_cell_length_b 15.478766
_cell_length_c 9.096508
_cell_angle_alpha 90.000000
_cell_angle_beta 90.000000
_cell_angle_gamma 90.000000
_cell_volume 3322.328151
_symmetry_space_group_name_H-M "P N M A"
_symmetry_group_IT_number 62
_symmetry_cell_setting 'orthorhombic'
loop_
_space_group_symop_operation_xyz
x,y,z
1/2-x,-y,1/2+z
1/2+x,1/2-y,1/2-z
-x,1/2+y,-z
-x,-y,-z
1/2+x,y,1/2-z
1/2-x,1/2+y,1/2+z
x,1/2-y,z
loop_
_atom_site_type_symbol
_atom_site_label
_atom_site_fract_x
_atom_site_fract_y
_atom_site_fract_z
Si Si1 0.267764 0.653028 0.960425
Si Si2 0.249525 0.651465 0.311994
Si Si3 0.134813 0.570202 0.238188
Si Si4 0.572300 0.014431 0.761878
Si Si5 0.681642 0.504966 0.564084
Si Si6 0.514961 0.845773 0.902139
Si Si7 0.520267 0.651762 0.257437
Si Si8 0.607437 0.091992 0.069730
O O1 0.249257 0.750000 0.923718
O O2 0.225794 0.581197 0.895875
O O3 0.332244 0.637367 0.912591
O O4 0.265799 0.644843 0.138671
O O5 0.258009 0.750000 0.358193
O O6 0.183458 0.625047 0.318567
O O7 0.286464 0.584326 0.403833
O O8 0.082931 0.629453 0.185347
O O9 0.109441 0.497733 0.343515
O O10 0.164767 0.521507 0.103792
O O11 0.623854 0.993234 0.655377
O O12 0.544253 0.926448 0.822606
O O13 0.524561 0.078528 0.695629
O O14 0.597583 0.067361 0.899899
O O15 0.534182 0.750000 0.855642
O O16 0.447346 0.854989 0.880415
O O17 0.524092 0.852902 0.078621
O O18 0.503386 0.750000 0.295259
#
# Coordination Sequence:
#
# PCOD9464546 Si02
#       8
#     8   8   8   8   8   8   8   8
#     4  10  21  38  63  88 115 155 203 247 291 352
#     4  10  21  39  61  86 117 160 201 239 293 359
#     4  11  21  38  63  86 119 156 197 248 302 351
#     4  11  21  38  61  88 118 158 196 244 297 358
#     4  11  24  37  61  89 123 156 198 243 302 358
#     4  10  20  35  59  90 116 152 201 249 293 348
#     4  10  20  37  62  90 116 154 208 248 287 353
#     4  11  18  37  64  84 115 154 199 243 298 347
#
# _framework density 19.263601000000001
#
# number of rings (size 3 to 8) (size 9 to 14) (size 15 to 20)
#    0.000    1.500    5.000    1.500    0.000    2.500 
#    0.000    1.250    0.000    0.000    0.000    0.000 
#    0.000    0.000    0.000    0.000    0.000    0.000 
#
# Total GULP energy -357324.597047 kJ/mol
# GULP energy per Si atom -5583.196829 kJ/mol
# Density = 1.921976 g / cm^3
# Si number density = 19.263601 Si / 1000 Ang^3
#
#
#
# Elastic Constant Matrix: (Units=GPa)
#
#
# Indices 1 2 3 4 5 6 
#
# 1 114.1147 56.5143 12.3884 0.0000 0.0000 0.0000
# 2 56.5143 150.8608 13.8025 0.0000 0.0000 0.0000
# 3 12.3884 13.8025 8.2970 0.0000 0.0000 0.0000
# 4 0.0000 0.0000 0.0000 20.5645 0.0000 0.0000
# 5 0.0000 0.0000 0.0000 0.0000 24.2593 0.0000
# 6 0.0000 0.0000 0.0000 0.0000 0.0000 15.5993
#
#
#
# Elastic Compliance Matrix: (Units=1/GPa)
#
#
# Indices 1 2 3 4 5 6 
#
# 1 0.011691 -0.003282 -0.011996 0.000000 0.000000 0.000000
# 2 -0.003282 0.008740 -0.009639 0.000000 0.000000 0.000000
# 3 -0.011996 -0.009639 0.154473 0.000000 0.000000 0.000000
# 4 0.000000 0.000000 0.000000 0.048628 0.000000 0.000000
# 5 0.000000 0.000000 0.000000 0.000000 0.041221 0.000000
# 6 0.000000 0.000000 0.000000 0.000000 0.000000 0.064105
#
#
# Mechanical properties :
#
#
# Convention : Reuss Voigt Hill
#
# Bulk Modulus (GPa) = 7.99556 48.74254 28.36905
# Shear Modulus (GPa) = 11.89395 24.78910 18.34152
#
# Velocity S-wave (km/s) = 2.48751 3.59114 3.08901
# Velocity P-wave (km/s) = 3.52277 6.52326 5.24227
#
# Compressibility (1/GPa) = 0.12506936
#
# Stress axis : x y z
#
# Youngs Moduli (GPa) = 85.53763 114.41654 6.47363
#
# Poissons Ratio (x) = 0.37551 0.07766
# Poissons Ratio (y) = 0.28073 0.06240
# Poissons Ratio (z) = 1.02610 1.10288
#
# Static dielectric constant tensor:
#      x y z
#    x 1.685690 0.000000 0.000000 
#    y 0.000000 1.668560 0.000000 
#    z 0.000000 0.000000 1.659010 
# 
# From -- ./inp_files/9498.got.cif
#   From: 2010.05.17/outbox.cif.g08.bks.cpg/sg62_5_cif.got.tgz:9498.got - 2010.06.03 15:25:27.
