data_PCOD9464875
_publ_section_title
;
Structure prediction by ZEFSAII (Michael W. Deem and Ramdas Pophale) SiO2 
 PCOD9464875
Probable space group: P N M A
;
_chemical_formula_sum "Si O2"
_cell_formula_units_Z 40
_cell_length_a 8.774503
_cell_length_b 17.042963
_cell_length_c 13.125058
_cell_angle_alpha 90.000000
_cell_angle_beta 90.000000
_cell_angle_gamma 90.000000
_cell_volume 1962.767504
_symmetry_space_group_name_H-M "P N M A"
_symmetry_group_IT_number 62
_symmetry_cell_setting 'orthorhombic'
loop_
_space_group_symop_operation_xyz
x,y,z
1/2-x,-y,1/2+z
1/2+x,1/2-y,1/2-z
-x,1/2+y,-z
-x,-y,-z
1/2+x,y,1/2-z
1/2-x,1/2+y,1/2+z
x,1/2-y,z
loop_
_atom_site_type_symbol
_atom_site_label
_atom_site_fract_x
_atom_site_fract_y
_atom_site_fract_z
Si Si1 0.510859 0.344535 0.609185
Si Si2 0.502259 0.021641 0.881994
Si Si3 0.012566 0.344465 0.122140
Si Si4 0.179033 0.155884 0.691631
Si Si5 0.746359 0.933212 0.740398
O O1 0.506271 0.250000 0.605351
O O2 0.536729 0.371958 0.494466
O O3 0.639550 0.364716 0.691313
O O4 0.345292 0.369429 0.652042
O O5 0.638132 0.978783 0.819491
O O6 0.351578 0.991141 0.825653
O O7 0.545773 0.112959 0.870827
O O8 0.500000 0.000000 0.000000
O O9 0.005572 0.250000 0.124723
O O10 0.145475 0.376545 0.194101
O O11 0.858227 0.382319 0.165092
O O12 0.169711 0.250000 0.681543
#
# Coordination Sequence:
#
# PCOD9464875 Si02
#       5
#     8   8   8   8   8
#     4   9  19  34  57  84 112 144 187 237 285 331
#     4  11  23  40  59  86 120 154 191 238 294 345
#     4  10  20  39  61  85 116 156 198 240 287 344
#     4  10  20  37  58  83 112 149 192 236 281 343
#     4  10  23  38  58  86 117 153 195 243 292 343
#
# _framework density 20.379387999999999
#
# number of rings (size 3 to 8) (size 9 to 14) (size 15 to 20)
#    0.000    2.000    0.000    3.000    0.000    3.200 
#    0.000   12.000    0.000    0.000    0.000    0.000 
#    0.000    0.000    0.000    0.000    0.000    0.000 
#
# Total GULP energy -223506.054775 kJ/mol
# GULP energy per Si atom -5587.651369 kJ/mol
# Density = 2.033300 g / cm^3
# Si number density = 20.379388 Si / 1000 Ang^3
#
#
#
# Elastic Constant Matrix: (Units=GPa)
#
#
# Indices 1 2 3 4 5 6 
#
# 1 71.2649 29.8985 28.2267 0.0000 0.0000 0.0000
# 2 29.8985 70.7414 25.5450 0.0000 0.0000 0.0000
# 3 28.2267 25.5450 145.2276 0.0000 0.0000 0.0000
# 4 0.0000 0.0000 0.0000 26.7230 0.0000 0.0000
# 5 0.0000 0.0000 0.0000 0.0000 21.9071 0.0000
# 6 0.0000 0.0000 0.0000 0.0000 0.0000 29.5456
#
#
#
# Elastic Compliance Matrix: (Units=1/GPa)
#
#
# Indices 1 2 3 4 5 6 
#
# 1 0.017732 -0.006674 -0.002273 0.000000 0.000000 0.000000
# 2 -0.006674 0.017607 -0.001800 0.000000 0.000000 0.000000
# 3 -0.002273 -0.001800 0.007644 0.000000 0.000000 0.000000
# 4 0.000000 0.000000 0.000000 0.037421 0.000000 0.000000
# 5 0.000000 0.000000 0.000000 0.000000 0.045647 0.000000
# 6 0.000000 0.000000 0.000000 0.000000 0.000000 0.033846
#
#
# Mechanical properties :
#
#
# Convention : Reuss Voigt Hill
#
# Bulk Modulus (GPa) = 46.53228 50.50826 48.52027
# Shear Modulus (GPa) = 26.51779 29.20607 27.86193
#
# Velocity S-wave (km/s) = 3.61114 3.78976 3.70153
# Velocity P-wave (km/s) = 6.34584 6.63231 6.49065
#
# Compressibility (1/GPa) = 0.02149046
#
# Stress axis : x y z
#
# Youngs Moduli (GPa) = 56.39462 56.79706 130.82113
#
# Poissons Ratio (x) = 0.37905 0.29730
# Poissons Ratio (y) = 0.37637 0.23545
# Poissons Ratio (z) = 0.12816 0.10222
#
# Static dielectric constant tensor:
#      x y z
#    x 1.714830 0.000000 0.000000 
#    y 0.000000 1.750400 0.000000 
#    z 0.000000 0.000000 1.699580 
# 
# From -- ./inp_files/11055.got.cif
#   From: 2010.05.17/outbox.cif.g08.bks.cpg/sg62_6_cif.got.tgz:11055.got - 2010.06.03 15:25:27.
