data_PCOD9464179
_publ_section_title
;
Structure prediction by ZEFSAII (Michael W. Deem and Ramdas Pophale) SiO2 
 PCOD9464179
Probable space group: P N M A
;
_chemical_formula_sum "Si O2"
_cell_formula_units_Z 64
_cell_length_a 11.866889
_cell_length_b 8.979271
_cell_length_c 33.494158
_cell_angle_alpha 90.000000
_cell_angle_beta 90.000000
_cell_angle_gamma 90.000000
_cell_volume 3569.003910
_symmetry_space_group_name_H-M "P N M A"
_symmetry_group_IT_number 62
_symmetry_cell_setting 'orthorhombic'
loop_
_space_group_symop_operation_xyz
x,y,z
1/2-x,-y,1/2+z
1/2+x,1/2-y,1/2-z
-x,1/2+y,-z
-x,-y,-z
1/2+x,y,1/2-z
1/2-x,1/2+y,1/2+z
x,1/2-y,z
loop_
_atom_site_type_symbol
_atom_site_label
_atom_site_fract_x
_atom_site_fract_y
_atom_site_fract_z
Si Si1 0.199323 0.572439 0.327341
Si Si2 0.961223 0.571957 0.865008
Si Si3 0.920468 0.072774 0.441805
Si Si4 0.048395 0.070953 0.699968
Si Si5 0.095711 0.572345 0.784607
Si Si6 0.165602 0.427457 0.907911
Si Si7 0.716463 0.071210 0.869674
Si Si8 0.349533 0.072011 0.968583
O O1 0.209201 0.750000 0.320621
O O2 0.281879 0.489060 0.296983
O O3 0.246644 0.543006 0.371630
O O4 0.069896 0.530138 0.320925
O O5 0.951648 0.750000 0.867322
O O6 0.840699 0.496935 0.870466
O O7 0.013230 0.532070 0.821499
O O8 0.052191 0.513817 0.897117
O O9 0.921589 0.250000 0.435146
O O10 0.858837 0.043232 0.484260
O O11 0.856687 0.990712 0.406312
O O12 0.046991 0.012100 0.447625
O O13 0.050033 0.250000 0.704451
O O14 0.151245 0.028838 0.671060
O O15 0.057569 0.997541 0.743102
O O16 0.098770 0.750000 0.781647
O O17 0.142526 0.250000 0.908147
O O18 0.231340 0.468790 0.948203
O O19 0.721439 0.250000 0.871679
O O20 0.365296 0.250000 0.962362
#
# Coordination Sequence:
#
# PCOD9464179 Si02
#       8
#     8   8   8   8   8   8   8   8
#     4   9  18  34  55  78 104 134 175 223 264 313
#     4  10  22  39  56  79 112 146 182 228 281 336
#     4  10  20  34  55  86 120 151 182 228 284 333
#     4  10  22  37  56  80 104 138 184 228 269 321
#     4  10  22  37  54  78 109 140 174 221 277 330
#     4   9  17  34  59  82 106 142 186 228 269 320
#     4  11  23  39  58  80 109 148 190 231 276 331
#     4   9  18  34  58  86 117 149 186 229 275 331
#
# _framework density 17.932175000000001
#
# number of rings (size 3 to 8) (size 9 to 14) (size 15 to 20)
#    0.000    2.250    0.000    2.250    1.750    6.000 
#    0.000    3.125    0.000    0.000    0.000    0.000 
#    0.000    0.000    0.000    0.000    0.000    0.000 
#
# Total GULP energy -357298.773254 kJ/mol
# GULP energy per Si atom -5582.793332 kJ/mol
# Density = 1.789136 g / cm^3
# Si number density = 17.932175 Si / 1000 Ang^3
#
#
#
# Elastic Constant Matrix: (Units=GPa)
#
#
# Indices 1 2 3 4 5 6 
#
# 1 61.5097 23.3350 20.0700 0.0000 0.0000 0.0000
# 2 23.3350 30.3039 25.9474 0.0000 0.0000 0.0000
# 3 20.0700 25.9474 53.6650 0.0000 0.0000 0.0000
# 4 0.0000 0.0000 0.0000 23.6948 0.0000 0.0000
# 5 0.0000 0.0000 0.0000 0.0000 16.4602 0.0000
# 6 0.0000 0.0000 0.0000 0.0000 0.0000 25.1086
#
#
#
# Elastic Compliance Matrix: (Units=1/GPa)
#
#
# Indices 1 2 3 4 5 6 
#
# 1 0.022967 -0.017629 -0.000066 0.000000 0.000000 0.000000
# 2 -0.017629 0.069844 -0.027177 0.000000 0.000000 0.000000
# 3 -0.000066 -0.027177 0.031799 0.000000 0.000000 0.000000
# 4 0.000000 0.000000 0.000000 0.042203 0.000000 0.000000
# 5 0.000000 0.000000 0.000000 0.000000 0.060753 0.000000
# 6 0.000000 0.000000 0.000000 0.000000 0.000000 0.039827
#
#
# Mechanical properties :
#
#
# Convention : Reuss Voigt Hill
#
# Bulk Modulus (GPa) = 28.68081 31.57593 30.12837
# Shear Modulus (GPa) = 13.55904 18.12781 15.84343
#
# Velocity S-wave (km/s) = 2.75276 3.18293 2.97563
# Velocity P-wave (km/s) = 5.11198 5.58165 5.35197
#
# Compressibility (1/GPa) = 0.03486652
#
# Stress axis : x y z
#
# Youngs Moduli (GPa) = 43.54082 14.31766 31.44776
#
# Poissons Ratio (x) = 0.25241 0.00206
# Poissons Ratio (y) = 0.76759 0.85465
# Poissons Ratio (z) = 0.00285 0.38911
#
# Static dielectric constant tensor:
#      x y z
#    x 1.590200 0.000000 0.000000 
#    y 0.000000 1.595040 0.000000 
#    z 0.000000 0.000000 1.606980 
# 
# From -- ./inp_files/32451.got.cif
#   From: 2010.05.17/outbox.cif.g08.bks.cpg/sg62_17_cif.got.tgz:32451.got - 2010.06.03 15:25:27.
