data_PCOD9464081
_publ_section_title
;
Structure prediction by ZEFSAII (Michael W. Deem and Ramdas Pophale) SiO2 
 PCOD9464081
Probable space group: P N M A
;
_chemical_formula_sum "Si O2"
_cell_formula_units_Z 64
_cell_length_a 7.744249
_cell_length_b 18.871883
_cell_length_c 17.673176
_cell_angle_alpha 90.000000
_cell_angle_beta 90.000000
_cell_angle_gamma 90.000000
_cell_volume 2582.909242
_symmetry_space_group_name_H-M "P N M A"
_symmetry_group_IT_number 62
_symmetry_cell_setting 'orthorhombic'
loop_
_space_group_symop_operation_xyz
x,y,z
1/2-x,-y,1/2+z
1/2+x,1/2-y,1/2-z
-x,1/2+y,-z
-x,-y,-z
1/2+x,y,1/2-z
1/2-x,1/2+y,1/2+z
x,1/2-y,z
loop_
_atom_site_type_symbol
_atom_site_label
_atom_site_fract_x
_atom_site_fract_y
_atom_site_fract_z
Si Si1 0.764509 0.452284 0.472258
Si Si2 0.391020 0.171132 0.469563
Si Si3 0.728791 0.047240 0.245067
Si Si4 0.503814 0.169960 0.635643
Si Si5 0.376511 0.668411 0.208848
Si Si6 0.124268 0.533815 0.906389
Si Si7 0.052481 0.469281 0.647742
Si Si8 0.727667 0.169644 0.368211
O O1 0.572218 0.467480 0.436744
O O2 0.730617 0.467404 0.560451
O O3 0.892224 0.508895 0.435263
O O4 0.816752 0.377026 0.435243
O O5 0.314972 0.250000 0.480427
O O6 0.476113 0.146995 0.549233
O O7 0.284827 0.103993 0.441473
O O8 0.536373 0.177098 0.404264
O O9 0.881627 0.044729 0.182585
O O10 0.727041 0.120702 0.292577
O O11 0.771135 0.985354 0.304189
O O12 0.576430 0.023976 0.188317
O O13 0.569662 0.250000 0.625482
O O14 0.616989 0.140335 0.704466
O O15 0.312773 0.170257 0.672467
O O16 0.441417 0.750000 0.208542
O O17 0.485330 0.612687 0.160161
O O18 0.793774 0.250000 0.356274
#
# Coordination Sequence:
#
# PCOD9464081 Si02
#       8
#     8   8   8   8   8   8   8   8
#     4   9  20  37  57  83 113 151 194 241 301 363
#     4   9  17  32  57  85 112 151 199 243 291 355
#     4  11  23  37  58  87 115 153 196 247 309 358
#     4   9  18  32  53  83 115 149 192 237 290 352
#     4  10  20  34  53  80 114 152 192 238 292 354
#     4  10  20  37  60  83 115 153 196 244 299 367
#     4  11  21  36  55  81 117 148 190 240 294 362
#     4   9  19  37  59  85 118 155 205 259 301 354
#
# _framework density 24.778262000000002
#
# number of rings (size 3 to 8) (size 9 to 14) (size 15 to 20)
#    0.000    2.250    0.000    3.750    0.000    5.000 
#    0.000    6.250    0.000    2.250    0.000    3.500 
#    0.000    0.000    0.000    0.000    0.000    0.000 
#
# Total GULP energy -356772.391034 kJ/mol
# GULP energy per Si atom -5574.568610 kJ/mol
# Density = 2.472187 g / cm^3
# Si number density = 24.778262 Si / 1000 Ang^3
#
#
#
# Elastic Constant Matrix: (Units=GPa)
#
#
# Indices 1 2 3 4 5 6 
#
# 1 38.2391 9.0516 10.8632 0.0000 0.0000 0.0000
# 2 9.0516 160.6185 54.0598 0.0000 0.0000 0.0000
# 3 10.8632 54.0598 174.7030 0.0000 0.0000 0.0000
# 4 0.0000 0.0000 0.0000 39.6036 0.0000 0.0000
# 5 0.0000 0.0000 0.0000 0.0000 29.0744 0.0000
# 6 0.0000 0.0000 0.0000 0.0000 0.0000 16.8917
#
#
#
# Elastic Compliance Matrix: (Units=1/GPa)
#
#
# Indices 1 2 3 4 5 6 
#
# 1 0.026782 -0.001059 -0.001338 0.000000 0.000000 0.000000
# 2 -0.001059 0.006992 -0.002098 0.000000 0.000000 0.000000
# 3 -0.001338 -0.002098 0.006456 0.000000 0.000000 0.000000
# 4 0.000000 0.000000 0.000000 0.025250 0.000000 0.000000
# 5 0.000000 0.000000 0.000000 0.000000 0.034395 0.000000
# 6 0.000000 0.000000 0.000000 0.000000 0.000000 0.059201
#
#
# Mechanical properties :
#
#
# Convention : Reuss Voigt Hill
#
# Bulk Modulus (GPa) = 32.00901 57.94556 44.97728
# Shear Modulus (GPa) = 28.01469 37.08632 32.55051
#
# Velocity S-wave (km/s) = 3.36611 3.87295 3.62839
# Velocity P-wave (km/s) = 5.29659 6.59061 5.97871
#
# Compressibility (1/GPa) = 0.03124120
#
# Stress axis : x y z
#
# Youngs Moduli (GPa) = 37.33857 143.02837 154.88850
#
# Poissons Ratio (x) = 0.15148 0.20718
# Poissons Ratio (y) = 0.03954 0.32490
# Poissons Ratio (z) = 0.04994 0.30002
#
# Static dielectric constant tensor:
#      x y z
#    x 2.117050 0.000000 0.000000 
#    y 0.000000 2.055900 0.000000 
#    z 0.000000 0.000000 2.003500 
# 
# From -- ./inp_files/22586.got.cif
#   From: 2010.05.17/outbox.cif.g08.bks.cpg/sg62_12_cif.got.tgz:22586.got - 2010.06.03 15:25:27.
