data_PCOD9464827
_publ_section_title
;
Structure prediction by ZEFSAII (Michael W. Deem and Ramdas Pophale) SiO2 
 PCOD9464827
Probable space group: P N M A
;
_chemical_formula_sum "Si O2"
_cell_formula_units_Z 44
_cell_length_a 14.605986
_cell_length_b 9.354270
_cell_length_c 14.707643
_cell_angle_alpha 90.000000
_cell_angle_beta 90.000000
_cell_angle_gamma 90.000000
_cell_volume 2009.480799
_symmetry_space_group_name_H-M "P N M A"
_symmetry_group_IT_number 62
_symmetry_cell_setting 'orthorhombic'
loop_
_space_group_symop_operation_xyz
x,y,z
1/2-x,-y,1/2+z
1/2+x,1/2-y,1/2-z
-x,1/2+y,-z
-x,-y,-z
1/2+x,y,1/2-z
1/2-x,1/2+y,1/2+z
x,1/2-y,z
loop_
_atom_site_type_symbol
_atom_site_label
_atom_site_fract_x
_atom_site_fract_y
_atom_site_fract_z
Si Si1 0.938496 0.415001 0.684684
Si Si2 0.532616 0.475586 0.373039
Si Si3 0.460597 0.750000 0.483365
Si Si4 0.158109 0.417295 0.658522
Si Si5 0.201636 0.921935 0.473467
Si Si6 0.175441 0.587842 0.838537
O O1 0.914650 0.250000 0.703757
O O2 0.883886 0.455209 0.594136
O O3 0.918968 0.503394 0.776101
O O4 0.047292 0.422158 0.666546
O O5 0.507462 0.626038 0.418460
O O6 0.578131 0.374297 0.446542
O O7 0.433644 0.405303 0.352055
O O8 0.185245 0.250000 0.657479
O O9 0.187531 0.500994 0.568888
O O10 0.194011 0.499705 0.747025
O O11 0.210712 0.750000 0.480898
O O12 0.284575 0.994101 0.419741
O O13 0.211387 0.750000 0.837561
#
# Coordination Sequence:
#
# PCOD9464827 Si02
#       6
#     8   8   4   8   8   8
#     4   9  19  38  63  87 119 153 200 252 296 350
#     4  10  20  39  60  89 120 160 200 254 300 355
#     4  10  20  36  62  90 116 156 210 240 300 366
#     4  10  21  41  66  88 117 158 196 248 308 358
#     4  11  23  40  61  92 121 159 203 247 300 360
#     4  11  23  42  60  86 124 162 199 246 303 361
#
# _framework density 21.896203
#
# number of rings (size 3 to 8) (size 9 to 14) (size 15 to 20)
#    0.000    1.818    1.818    2.182    2.545    0.000 
#    9.818    0.000    0.000    0.000    0.000    0.000 
#    0.000    0.000    0.000    0.000    0.000    0.000 
#
# Total GULP energy -244992.414559 kJ/mol
# GULP energy per Si atom -5568.009422 kJ/mol
# Density = 2.184637 g / cm^3
# Si number density = 21.896203 Si / 1000 Ang^3
#
#
#
# Elastic Constant Matrix: (Units=GPa)
#
#
# Indices 1 2 3 4 5 6 
#
# 1 42.7573 20.8069 27.7825 0.0000 0.0000 0.0000
# 2 20.8069 193.0427 106.2284 0.0000 0.0000 0.0000
# 3 27.7825 106.2284 173.2732 0.0000 0.0000 0.0000
# 4 0.0000 0.0000 0.0000 -916.3227 0.0000 0.0000
# 5 0.0000 0.0000 0.0000 0.0000 8.3186 0.0000
# 6 0.0000 0.0000 0.0000 0.0000 0.0000 9.6336
#
#
#
# Elastic Compliance Matrix: (Units=1/GPa)
#
#
# Indices 1 2 3 4 5 6 
#
# 1 0.026184 -0.000773 -0.003725 0.000000 0.000000 0.000000
# 2 -0.000773 0.007840 -0.004683 0.000000 0.000000 0.000000
# 3 -0.003725 -0.004683 0.009239 0.000000 0.000000 0.000000
# 4 0.000000 0.000000 0.000000 -0.001091 0.000000 0.000000
# 5 0.000000 0.000000 0.000000 0.000000 0.120212 0.000000
# 6 0.000000 0.000000 0.000000 0.000000 0.000000 0.103804
#
#
# Mechanical properties :
#
#
# Convention : Reuss Voigt Hill
#
# Bulk Modulus (GPa) = 40.15496 79.85652 60.00574
# Shear Modulus (GPa) = 17.07362 -162.72374 -72.82506
#
# Velocity S-wave (km/s) = 2.79543 -8.63002 -5.77334
# Velocity P-wave (km/s) = 5.36636 7.92170 4.12041
#
# Compressibility (1/GPa) = 0.02490352
#
# Stress axis : x y z
#
# Youngs Moduli (GPa) = 38.19135 127.54546 108.23309
#
# Poissons Ratio (x) = 0.09854 0.40313
# Poissons Ratio (y) = 0.02951 0.50683
# Poissons Ratio (z) = 0.14225 0.59727
#
# Static dielectric constant tensor:
#      x y z
#    x 1.875400 0.000000 0.000000 
#    y 0.000000 1.752270 0.000000 
#    z 0.000000 0.000000 1.791530 
# 
# From -- ./inp_files/19408.got.cif
#   From: 2010.05.17/outbox.cif.g08.bks.cpg/sg62_10_cif.got.tgz:19408.got - 2010.06.03 15:25:27.
