data_PCOD9464450
_publ_section_title
;
Structure prediction by ZEFSAII (Michael W. Deem and Ramdas Pophale) SiO2 
 PCOD9464450
Probable space group: P N M A
;
_chemical_formula_sum "Si O2"
_cell_formula_units_Z 48
_cell_length_a 16.948881
_cell_length_b 8.762761
_cell_length_c 18.482560
_cell_angle_alpha 90.000000
_cell_angle_beta 90.000000
_cell_angle_gamma 90.000000
_cell_volume 2745.011207
_symmetry_space_group_name_H-M "P N M A"
_symmetry_group_IT_number 62
_symmetry_cell_setting 'orthorhombic'
loop_
_space_group_symop_operation_xyz
x,y,z
1/2-x,-y,1/2+z
1/2+x,1/2-y,1/2-z
-x,1/2+y,-z
-x,-y,-z
1/2+x,y,1/2-z
1/2-x,1/2+y,1/2+z
x,1/2-y,z
loop_
_atom_site_type_symbol
_atom_site_label
_atom_site_fract_x
_atom_site_fract_y
_atom_site_fract_z
Si Si1 0.491358 0.566866 0.580468
Si Si2 0.325324 0.431895 0.593712
Si Si3 0.916555 0.066969 0.477297
Si Si4 0.753535 0.067094 0.548770
Si Si5 0.148294 0.933608 0.831810
Si Si6 0.826353 0.434203 0.333423
O O1 0.500000 0.500000 0.500000
O O2 0.487935 0.750000 0.576387
O O3 0.409927 0.502536 0.611880
O O4 0.567020 0.523145 0.628321
O O5 0.329599 0.250000 0.592375
O O6 0.299467 0.492459 0.514418
O O7 0.256775 0.489785 0.646695
O O8 0.922488 0.250000 0.478192
O O9 0.843948 0.024196 0.530448
O O10 0.887668 0.021087 0.396729
O O11 0.000000 0.000000 0.500000
O O12 0.746990 0.250000 0.543126
O O13 0.719887 0.009890 0.624616
O O14 0.156278 0.750000 0.837259
O O15 0.147697 0.974262 0.747358
O O16 0.817252 0.250000 0.337946
#
# Coordination Sequence:
#
# PCOD9464450 Si02
#       6
#     8   8   8   8   8   8
#     4  11  21  34  56  86 117 149 186 230 277 335
#     4  11  21  35  56  82 110 147 190 226 272 335
#     4   9  19  36  58  81 107 142 184 230 275 327
#     4  10  20  35  57  81 111 145 182 229 280 330
#     4  10  21  37  58  83 112 145 188 231 281 342
#     4   9  20  40  59  79 110 147 186 234 286 332
#
# _framework density 17.486266000000001
#
# number of rings (size 3 to 8) (size 9 to 14) (size 15 to 20)
#    0.000    2.000    1.667    3.500    0.000    4.667 
#    3.000    0.000    0.000    0.000    0.000    0.000 
#    0.000    0.000    0.000    0.000    0.000    0.000 
#
# Total GULP energy -267937.820114 kJ/mol
# GULP energy per Si atom -5582.037919 kJ/mol
# Density = 1.744647 g / cm^3
# Si number density = 17.486266 Si / 1000 Ang^3
#
#
#
# Elastic Constant Matrix: (Units=GPa)
#
#
# Indices 1 2 3 4 5 6 
#
# 1 160.7139 48.9814 93.4551 0.0000 0.0000 0.0000
# 2 48.9814 43.9224 43.9782 0.0000 0.0000 0.0000
# 3 93.4551 43.9782 135.4687 0.0000 0.0000 0.0000
# 4 0.0000 0.0000 0.0000 26.5046 0.0000 0.0000
# 5 0.0000 0.0000 0.0000 0.0000 22.1499 0.0000
# 6 0.0000 0.0000 0.0000 0.0000 0.0000 32.9668
#
#
#
# Elastic Compliance Matrix: (Units=1/GPa)
#
#
# Indices 1 2 3 4 5 6 
#
# 1 0.011832 -0.007440 -0.005747 0.000000 0.000000 0.000000
# 2 -0.007440 0.038411 -0.007337 0.000000 0.000000 0.000000
# 3 -0.005747 -0.007337 0.013728 0.000000 0.000000 0.000000
# 4 0.000000 0.000000 0.000000 0.037729 0.000000 0.000000
# 5 0.000000 0.000000 0.000000 0.000000 0.045147 0.000000
# 6 0.000000 0.000000 0.000000 0.000000 0.000000 0.030334
#
#
# Mechanical properties :
#
#
# Convention : Reuss Voigt Hill
#
# Bulk Modulus (GPa) = 43.62481 79.21493 61.41987
# Shear Modulus (GPa) = 22.13674 26.57029 24.35351
#
# Velocity S-wave (km/s) = 3.56188 3.90230 3.73597
# Velocity P-wave (km/s) = 6.47442 8.10577 7.33559
#
# Compressibility (1/GPa) = 0.02292274
#
# Stress axis : x y z
#
# Youngs Moduli (GPa) = 84.51926 26.03437 72.84324
#
# Poissons Ratio (x) = 0.19370 0.41862
# Poissons Ratio (y) = 0.62885 0.53443
# Poissons Ratio (z) = 0.48572 0.19101
#
# Static dielectric constant tensor:
#      x y z
#    x 1.589120 0.000000 0.000000 
#    y 0.000000 1.588170 0.000000 
#    z 0.000000 0.000000 1.586390 
# 
# From -- ./inp_files/23762.got.cif
#   From: 2010.05.17/outbox.cif.g08.bks.cpg/sg62_12_cif.got.tgz:23762.got - 2010.06.03 15:25:27.
