data_PCOD9464574
_publ_section_title
;
Structure prediction by ZEFSAII (Michael W. Deem and Ramdas Pophale) SiO2 
 PCOD9464574
Probable space group: P N M A
;
_chemical_formula_sum "Si O2"
_cell_formula_units_Z 56
_cell_length_a 15.060946
_cell_length_b 8.357308
_cell_length_c 21.834706
_cell_angle_alpha 90.000000
_cell_angle_beta 90.000000
_cell_angle_gamma 90.000000
_cell_volume 2748.311834
_symmetry_space_group_name_H-M "P N M A"
_symmetry_group_IT_number 62
_symmetry_cell_setting 'orthorhombic'
loop_
_space_group_symop_operation_xyz
x,y,z
1/2-x,-y,1/2+z
1/2+x,1/2-y,1/2-z
-x,1/2+y,-z
-x,-y,-z
1/2+x,y,1/2-z
1/2-x,1/2+y,1/2+z
x,1/2-y,z
loop_
_atom_site_type_symbol
_atom_site_label
_atom_site_fract_x
_atom_site_fract_y
_atom_site_fract_z
Si Si1 0.585763 0.559755 0.964008
Si Si2 0.807048 0.444122 0.212253
Si Si3 0.400335 0.056483 0.621290
Si Si4 0.903213 0.559545 0.090557
Si Si5 0.390156 0.557023 0.760748
Si Si6 0.275259 0.439906 0.515260
Si Si7 0.428569 0.445170 0.175097
O O1 0.580820 0.750000 0.961300
O O2 0.586145 0.497284 0.893896
O O3 0.500000 0.500000 0.000000
O O4 0.678412 0.511879 0.994799
O O5 0.811301 0.250000 0.207580
O O6 0.861487 0.516763 0.156282
O O7 0.704302 0.494395 0.211775
O O8 0.852829 0.491513 0.276409
O O9 0.399653 0.250000 0.622237
O O10 0.494236 0.005492 0.591694
O O11 0.319543 0.000157 0.578637
O O12 0.395494 0.996131 0.690408
O O13 0.901453 0.750000 0.081537
O O14 0.843779 0.479794 0.038530
O O15 0.391262 0.750000 0.761672
O O16 0.476296 0.501484 0.798149
O O17 0.265378 0.250000 0.519267
O O18 0.429059 0.250000 0.173924
#
# Coordination Sequence:
#
# PCOD9464574 Si02
#       7
#     8   8   8   8   8   8   8
#     4  11  24  43  65  93 127 164 211 259 306 363
#     4  10  20  36  60  89 119 157 202 247 300 362
#     4  10  22  40  61  91 126 158 199 255 315 369
#     4  11  23  39  60  91 124 156 200 257 315 370
#     4  10  20  35  61  90 117 157 201 243 296 364
#     4  11  24  42  63  87 120 165 209 253 309 370
#     4   9  19  37  59  87 121 157 198 244 295 359
#
# _framework density 20.376144
#
# number of rings (size 3 to 8) (size 9 to 14) (size 15 to 20)
#    0.000    1.714    1.429    2.571    2.000    3.429 
#    0.000    2.857    0.000    0.000    0.000    0.000 
#    0.000    0.000    0.000    0.000    0.000    0.000 
#
# Total GULP energy -313033.858347 kJ/mol
# GULP energy per Si atom -5589.890328 kJ/mol
# Density = 2.032977 g / cm^3
# Si number density = 20.376144 Si / 1000 Ang^3
#
#
#
# Elastic Constant Matrix: (Units=GPa)
#
#
# Indices 1 2 3 4 5 6 
#
# 1 104.6877 11.6471 -12.8163 0.0000 0.0000 0.0000
# 2 11.6471 16.5195 -1.7191 0.0000 0.0000 0.0000
# 3 -12.8163 -1.7191 38.6980 0.0000 0.0000 0.0000
# 4 0.0000 0.0000 0.0000 30.6262 0.0000 0.0000
# 5 0.0000 0.0000 0.0000 0.0000 30.9785 0.0000
# 6 0.0000 0.0000 0.0000 0.0000 0.0000 19.5720
#
#
#
# Elastic Compliance Matrix: (Units=1/GPa)
#
#
# Indices 1 2 3 4 5 6 
#
# 1 0.010755 -0.007246 0.003240 0.000000 0.000000 0.000000
# 2 -0.007246 0.065697 0.000519 0.000000 0.000000 0.000000
# 3 0.003240 0.000519 0.026937 0.000000 0.000000 0.000000
# 4 0.000000 0.000000 0.000000 0.032652 0.000000 0.000000
# 5 0.000000 0.000000 0.000000 0.000000 0.032280 0.000000
# 6 0.000000 0.000000 0.000000 0.000000 0.000000 0.051093
#
#
# Mechanical properties :
#
#
# Convention : Reuss Voigt Hill
#
# Bulk Modulus (GPa) = 10.37175 17.12540 13.74858
# Shear Modulus (GPa) = 19.34032 27.08824 23.21428
#
# Velocity S-wave (km/s) = 3.08419 3.65006 3.37899
# Velocity P-wave (km/s) = 4.21713 5.11731 4.68887
#
# Compressibility (1/GPa) = 0.09641575
#
# Stress axis : x y z
#
# Youngs Moduli (GPa) = 92.98006 15.22137 37.12334
#
# Poissons Ratio (x) = 0.11029 -0.12028
# Poissons Ratio (y) = 0.67370 -0.01926
# Poissons Ratio (z) = -0.30126 -0.00790
#
# Static dielectric constant tensor:
#      x y z
#    x 1.722700 0.000000 0.000000 
#    y 0.000000 1.700670 0.000000 
#    z 0.000000 0.000000 1.700670 
# 
# From -- ./inp_files/27106.got.cif
#   From: 2010.05.17/outbox.cif.g08.bks.cpg/sg62_14_cif.got.tgz:27106.got - 2010.06.03 15:25:27.
