data_PCOD9464133
_publ_section_title
;
Structure prediction by ZEFSAII (Michael W. Deem and Ramdas Pophale) SiO2 
 PCOD9464133
Probable space group: P N M A
;
_chemical_formula_sum "Si O2"
_cell_formula_units_Z 56
_cell_length_a 12.554743
_cell_length_b 16.864793
_cell_length_c 13.732712
_cell_angle_alpha 90.000000
_cell_angle_beta 90.000000
_cell_angle_gamma 90.000000
_cell_volume 2907.670258
_symmetry_space_group_name_H-M "P N M A"
_symmetry_group_IT_number 62
_symmetry_cell_setting 'orthorhombic'
loop_
_space_group_symop_operation_xyz
x,y,z
1/2-x,-y,1/2+z
1/2+x,1/2-y,1/2-z
-x,1/2+y,-z
-x,-y,-z
1/2+x,y,1/2-z
1/2-x,1/2+y,1/2+z
x,1/2-y,z
loop_
_atom_site_type_symbol
_atom_site_label
_atom_site_fract_x
_atom_site_fract_y
_atom_site_fract_z
Si Si1 0.661553 0.475987 0.672497
Si Si2 0.900859 0.655710 0.844261
Si Si3 0.121402 0.916272 0.346885
Si Si4 0.573302 0.576751 0.519554
Si Si5 0.819924 0.155304 0.448296
Si Si6 0.491266 0.435913 0.175485
Si Si7 0.511896 0.843104 0.335888
O O1 0.776719 0.452035 0.708593
O O2 0.668246 0.536681 0.580770
O O3 0.590752 0.522297 0.750179
O O4 0.594694 0.395795 0.649922
O O5 0.896204 0.750000 0.829906
O O6 0.791273 0.629545 0.897130
O O7 0.000885 0.633783 0.913425
O O8 0.925088 0.611778 0.742826
O O9 0.168084 0.873054 0.440921
O O10 0.057277 0.861842 0.271262
O O11 0.049602 0.991250 0.376897
O O12 0.500000 0.500000 0.500000
O O13 0.591310 0.621837 0.418544
O O14 0.821409 0.250000 0.444813
O O15 0.921190 0.120386 0.391485
O O16 0.494064 0.750000 0.349714
#
# Coordination Sequence:
#
# PCOD9464133 Si02
#       7
#     8   8   8   8   8   8   8
#     4   9  20  35  56  80 106 141 183 225 267 322
#     4  10  20  35  59  86 108 137 181 231 280 325
#     4  11  22  36  55  80 111 150 189 219 260 325
#     4   9  17  32  53  80 109 137 175 222 270 320
#     4  11  22  36  56  81 110 144 181 223 272 326
#     4  10  21  38  57  81 110 142 180 229 277 320
#     4  10  20  34  54  82 114 143 175 223 277 324
#
# _framework density 19.259405000000001
#
# number of rings (size 3 to 8) (size 9 to 14) (size 15 to 20)
#    0.000    2.000    0.000    5.143    0.000    3.429 
#    0.000    0.000    0.000    6.000    0.000    0.000 
#    0.000    0.000    0.000    0.000    0.000    0.000 
#
# Total GULP energy -312368.785716 kJ/mol
# GULP energy per Si atom -5578.014031 kJ/mol
# Density = 1.921557 g / cm^3
# Si number density = 19.259405 Si / 1000 Ang^3
#
#
#
# Elastic Constant Matrix: (Units=GPa)
#
#
# Indices 1 2 3 4 5 6 
#
# 1 58.8632 29.9115 21.1189 0.0000 0.0000 0.0000
# 2 29.9115 101.2258 33.6763 0.0000 0.0000 0.0000
# 3 21.1189 33.6763 60.1002 0.0000 0.0000 0.0000
# 4 0.0000 0.0000 0.0000 29.3891 0.0000 0.0000
# 5 0.0000 0.0000 0.0000 0.0000 17.8896 0.0000
# 6 0.0000 0.0000 0.0000 0.0000 0.0000 17.0111
#
#
#
# Elastic Compliance Matrix: (Units=1/GPa)
#
#
# Indices 1 2 3 4 5 6 
#
# 1 0.021064 -0.004624 -0.004811 0.000000 0.000000 0.000000
# 2 -0.004624 0.013157 -0.005748 0.000000 0.000000 0.000000
# 3 -0.004811 -0.005748 0.021550 0.000000 0.000000 0.000000
# 4 0.000000 0.000000 0.000000 0.034026 0.000000 0.000000
# 5 0.000000 0.000000 0.000000 0.000000 0.055898 0.000000
# 6 0.000000 0.000000 0.000000 0.000000 0.000000 0.058785
#
#
# Mechanical properties :
#
#
# Convention : Reuss Voigt Hill
#
# Bulk Modulus (GPa) = 39.35982 43.28918 41.32450
# Shear Modulus (GPa) = 20.54945 21.89012 21.21979
#
# Velocity S-wave (km/s) = 3.27001 3.37500 3.32292
# Velocity P-wave (km/s) = 5.89393 6.14111 6.01878
#
# Compressibility (1/GPa) = 0.02540662
#
# Stress axis : x y z
#
# Youngs Moduli (GPa) = 47.47391 76.00288 46.40342
#
# Poissons Ratio (x) = 0.35142 0.22325
# Poissons Ratio (y) = 0.21951 0.26672
# Poissons Ratio (z) = 0.22840 0.43685
#
# Static dielectric constant tensor:
#      x y z
#    x 1.692110 0.000000 0.000000 
#    y 0.000000 1.646260 0.000000 
#    z 0.000000 0.000000 1.719320 
# 
# From -- ./inp_files/18085.got.cif
#   From: 2010.05.17/outbox.cif.g08.bks.cpg/sg62_10_cif.got.tgz:18085.got - 2010.06.03 15:25:27.
