data_PCOD9464466
_publ_section_title
;
Structure prediction by ZEFSAII (Michael W. Deem and Ramdas Pophale) SiO2 
 PCOD9464466
Probable space group: P N M A
;
_chemical_formula_sum "Si O2"
_cell_formula_units_Z 48
_cell_length_a 19.478415
_cell_length_b 8.497567
_cell_length_c 15.686485
_cell_angle_alpha 90.000000
_cell_angle_beta 90.000000
_cell_angle_gamma 90.000000
_cell_volume 2596.413452
_symmetry_space_group_name_H-M "P N M A"
_symmetry_group_IT_number 62
_symmetry_cell_setting 'orthorhombic'
loop_
_space_group_symop_operation_xyz
x,y,z
1/2-x,-y,1/2+z
1/2+x,1/2-y,1/2-z
-x,1/2+y,-z
-x,-y,-z
1/2+x,y,1/2-z
1/2-x,1/2+y,1/2+z
x,1/2-y,z
loop_
_atom_site_type_symbol
_atom_site_label
_atom_site_fract_x
_atom_site_fract_y
_atom_site_fract_z
Si Si1 0.327967 0.438763 0.149682
Si Si2 0.422678 0.938518 0.998849
Si Si3 0.174809 0.938704 0.153009
Si Si4 0.422718 0.059641 0.498662
Si Si5 0.328120 0.058695 0.343821
Si Si6 0.670960 0.440417 0.158419
O O1 0.329864 0.250000 0.147160
O O2 0.380364 0.505779 0.081082
O O3 0.250256 0.494431 0.132153
O O4 0.344365 0.490058 0.246947
O O5 0.423592 0.750000 0.997569
O O6 0.381530 0.992710 0.914367
O O7 0.500000 0.000000 0.000000
O O8 0.179089 0.750000 0.151966
O O9 0.119958 0.989540 0.082241
O O10 0.155426 0.995517 0.247605
O O11 0.423495 0.250000 0.497284
O O12 0.381204 0.004051 0.415029
O O13 0.500000 0.000000 0.500000
O O14 0.329008 0.250000 0.344977
O O15 0.249443 0.011800 0.363153
O O16 0.669877 0.250000 0.162377
#
# Coordination Sequence:
#
# PCOD9464466 Si02
#       6
#     8   8   8   8   8   8
#     4  10  20  36  59  84 108 141 185 227 272 329
#     4  11  23  38  56  80 113 150 186 228 280 334
#     4  10  20  35  57  84 111 141 180 229 278 322
#     4  10  21  36  53  76 109 145 179 217 265 320
#     4   8  16  34  57  77 101 137 179 219 263 319
#     4   9  19  37  59  79 103 142 186 226 274 330
#
# _framework density 18.48704
#
# number of rings (size 3 to 8) (size 9 to 14) (size 15 to 20)
#    0.000    2.333    0.000    3.500    0.000    6.667 
#    0.000    9.167    0.000    0.000    0.000    0.000 
#    0.000    0.000    0.000    0.000    0.000    0.000 
#
# Total GULP energy -267965.735388 kJ/mol
# GULP energy per Si atom -5582.619487 kJ/mol
# Density = 1.844496 g / cm^3
# Si number density = 18.487040 Si / 1000 Ang^3
#
#
#
# Elastic Constant Matrix: (Units=GPa)
#
#
# Indices 1 2 3 4 5 6 
#
# 1 176.9023 33.5355 150.8484 0.0000 0.0000 0.0000
# 2 33.5355 27.8900 33.7713 0.0000 0.0000 0.0000
# 3 150.8484 33.7713 172.0738 0.0000 0.0000 0.0000
# 4 0.0000 0.0000 0.0000 28.2476 0.0000 0.0000
# 5 0.0000 0.0000 0.0000 0.0000 -3.1100 0.0000
# 6 0.0000 0.0000 0.0000 0.0000 0.0000 33.4222
#
#
#
# Elastic Compliance Matrix: (Units=1/GPa)
#
#
# Indices 1 2 3 4 5 6 
#
# 1 0.022761 -0.004207 -0.019128 0.000000 0.000000 0.000000
# 2 -0.004207 0.047810 -0.005695 0.000000 0.000000 0.000000
# 3 -0.019128 -0.005695 0.023698 0.000000 0.000000 0.000000
# 4 0.000000 0.000000 0.000000 0.035401 0.000000 0.000000
# 5 0.000000 0.000000 0.000000 0.000000 -0.321544 0.000000
# 6 0.000000 0.000000 0.000000 0.000000 0.000000 0.029920
#
#
# Mechanical properties :
#
#
# Convention : Reuss Voigt Hill
#
# Bulk Modulus (GPa) = 27.61776 90.35295 58.98536
# Shear Modulus (GPa) = -54.45122 22.29270 -16.07926
#
# Velocity S-wave (km/s) = -5.43302 3.47631 -2.95237
# Velocity P-wave (km/s) = 4.93817 8.06801 4.51150
#
# Compressibility (1/GPa) = 0.03620858
#
# Stress axis : x y z
#
# Youngs Moduli (GPa) = 43.93486 20.91622 42.19853
#
# Poissons Ratio (x) = 0.08799 0.80716
# Poissons Ratio (y) = 0.18483 0.24033
# Poissons Ratio (z) = 0.84037 0.11912
#
# Static dielectric constant tensor:
#      x y z
#    x 1.603100 0.000000 0.000000 
#    y 0.000000 1.636220 0.000000 
#    z 0.000000 0.000000 1.632940 
# 
# From -- ./inp_files/19554.got.cif
#   From: 2010.05.17/outbox.cif.g08.bks.cpg/sg62_10_cif.got.tgz:19554.got - 2010.06.03 15:25:27.
