data_PCOD9464413
_publ_section_title
;
Structure prediction by ZEFSAII (Michael W. Deem and Ramdas Pophale) SiO2 
 PCOD9464413
Probable space group: P N M A
;
_chemical_formula_sum "Si O2"
_cell_formula_units_Z 56
_cell_length_a 22.811039
_cell_length_b 9.297663
_cell_length_c 12.668204
_cell_angle_alpha 90.000000
_cell_angle_beta 90.000000
_cell_angle_gamma 90.000000
_cell_volume 2686.791194
_symmetry_space_group_name_H-M "P N M A"
_symmetry_group_IT_number 62
_symmetry_cell_setting 'orthorhombic'
loop_
_space_group_symop_operation_xyz
x,y,z
1/2-x,-y,1/2+z
1/2+x,1/2-y,1/2-z
-x,1/2+y,-z
-x,-y,-z
1/2+x,y,1/2-z
1/2-x,1/2+y,1/2+z
x,1/2-y,z
loop_
_atom_site_type_symbol
_atom_site_label
_atom_site_fract_x
_atom_site_fract_y
_atom_site_fract_z
Si Si1 0.346389 0.412855 0.011310
Si Si2 0.261716 0.419653 0.816616
Si Si3 0.057910 0.412541 0.400394
Si Si4 0.151357 0.583618 0.754638
Si Si5 0.140047 0.084424 0.189775
Si Si6 0.455540 0.413574 0.574441
Si Si7 0.034160 0.088256 0.716285
O O1 0.368926 0.250000 0.991620
O O2 0.294289 0.436532 0.928809
O O3 0.397621 0.524126 0.985759
O O4 0.328195 0.421677 0.132208
O O5 0.257206 0.250000 0.793371
O O6 0.198854 0.494432 0.818959
O O7 0.303325 0.498036 0.730616
O O8 0.039100 0.250000 0.422058
O O9 0.096910 0.410544 0.292211
O O10 0.003138 0.514163 0.376092
O O11 0.148060 0.750000 0.786986
O O12 0.088054 0.509877 0.752446
O O13 0.153619 0.250000 0.161088
O O14 0.103936 0.001168 0.099124
O O15 0.500000 0.500000 0.500000
O O16 0.444571 0.250000 0.536626
O O17 0.489572 0.402667 0.685578
O O18 0.053586 0.250000 0.690093
#
# Coordination Sequence:
#
# PCOD9464413 Si02
#       7
#     8   8   8   8   8   8   8
#     4   9  20  38  59  82 110 147 188 231 284 341
#     4  10  20  38  60  81 109 147 190 237 284 340
#     4   9  17  31  56  85 111 141 180 225 272 330
#     4  11  23  39  58  83 115 151 191 240 288 337
#     4   9  17  32  55  81 108 142 183 230 278 328
#     4  10  20  35  56  83 114 149 190 235 286 342
#     4  10  21  37  56  81 115 152 185 230 288 341
#
# _framework density 20.842707999999998
#
# number of rings (size 3 to 8) (size 9 to 14) (size 15 to 20)
#    0.000    2.286    0.000    2.571    0.000    7.429 
#    2.571    0.000    0.000    0.000    0.000    0.000 
#    0.000    0.000    0.000    0.000    0.000    0.000 
#
# Total GULP energy -312920.843070 kJ/mol
# GULP energy per Si atom -5587.872198 kJ/mol
# Density = 2.079527 g / cm^3
# Si number density = 20.842708 Si / 1000 Ang^3
#
#
#
# Elastic Constant Matrix: (Units=GPa)
#
#
# Indices 1 2 3 4 5 6 
#
# 1 78.2438 46.9834 -11.9990 0.0000 0.0000 0.0000
# 2 46.9834 154.3894 11.1207 0.0000 0.0000 0.0000
# 3 -11.9990 11.1207 20.2711 0.0000 0.0000 0.0000
# 4 0.0000 0.0000 0.0000 22.5891 0.0000 0.0000
# 5 0.0000 0.0000 0.0000 0.0000 17.8839 0.0000
# 6 0.0000 0.0000 0.0000 0.0000 0.0000 39.3442
#
#
#
# Elastic Compliance Matrix: (Units=1/GPa)
#
#
# Indices 1 2 3 4 5 6 
#
# 1 0.019308 -0.006975 0.015255 0.000000 0.000000 0.000000
# 2 -0.006975 0.009263 -0.009210 0.000000 0.000000 0.000000
# 3 0.015255 -0.009210 0.063414 0.000000 0.000000 0.000000
# 4 0.000000 0.000000 0.000000 0.044269 0.000000 0.000000
# 5 0.000000 0.000000 0.000000 0.000000 0.055916 0.000000
# 6 0.000000 0.000000 0.000000 0.000000 0.000000 0.025417
#
#
# Mechanical properties :
#
#
# Convention : Reuss Voigt Hill
#
# Bulk Modulus (GPa) = 11.09557 38.34606 24.72082
# Shear Modulus (GPa) = 20.04101 29.75004 24.89552
#
# Velocity S-wave (km/s) = 3.10423 3.78214 3.45983
# Velocity P-wave (km/s) = 4.26419 6.12459 5.27702
#
# Compressibility (1/GPa) = 0.09012605
#
# Stress axis : x y z
#
# Youngs Moduli (GPa) = 51.79177 107.95590 15.76938
#
# Poissons Ratio (x) = 0.75295 -0.24057
# Poissons Ratio (y) = 0.36123 0.14524
# Poissons Ratio (z) = -0.79010 0.99429
#
# Static dielectric constant tensor:
#      x y z
#    x 1.713020 0.000000 0.000000 
#    y 0.000000 1.732210 0.000000 
#    z 0.000000 0.000000 1.772530 
# 
# From -- ./inp_files/20274.got.cif
#   From: 2010.05.17/outbox.cif.g08.bks.cpg/sg62_11_cif.got.tgz:20274.got - 2010.06.03 15:25:27.
