data_PCOD9464233
_publ_section_title
;
Structure prediction by ZEFSAII (Michael W. Deem and Ramdas Pophale) SiO2 
 PCOD9464233
Probable space group: P N M A
;
_chemical_formula_sum "Si O2"
_cell_formula_units_Z 48
_cell_length_a 16.947069
_cell_length_b 8.833047
_cell_length_c 18.233805
_cell_angle_alpha 90.000000
_cell_angle_beta 90.000000
_cell_angle_gamma 90.000000
_cell_volume 2729.495892
_symmetry_space_group_name_H-M "P N M A"
_symmetry_group_IT_number 62
_symmetry_cell_setting 'orthorhombic'
loop_
_space_group_symop_operation_xyz
x,y,z
1/2-x,-y,1/2+z
1/2+x,1/2-y,1/2-z
-x,1/2+y,-z
-x,-y,-z
1/2+x,y,1/2-z
1/2-x,1/2+y,1/2+z
x,1/2-y,z
loop_
_atom_site_type_symbol
_atom_site_label
_atom_site_fract_x
_atom_site_fract_y
_atom_site_fract_z
Si Si1 0.257570 0.070169 0.440735
Si Si2 0.664711 0.070304 0.334779
Si Si3 0.817174 0.569588 0.400759
Si Si4 0.354838 0.068775 0.824334
Si Si5 0.506537 0.432105 0.919234
Si Si6 0.916398 0.432026 0.977066
O O1 0.255800 0.250000 0.425495
O O2 0.204481 0.043618 0.513605
O O3 0.346262 0.027953 0.465421
O O4 0.219851 0.982359 0.373082
O O5 0.655915 0.250000 0.337665
O O6 0.754214 0.021950 0.353892
O O7 0.645100 0.007166 0.254884
O O8 0.611715 0.994880 0.398447
O O9 0.806314 0.750000 0.387631
O O10 0.907635 0.527076 0.387465
O O11 0.354890 0.250000 0.816622
O O12 0.433148 0.021502 0.869218
O O13 0.505014 0.250000 0.925536
O O14 0.500000 0.500000 0.000000
O O15 0.919977 0.250000 0.973767
O O16 0.000000 0.500000 0.000000
#
# Coordination Sequence:
#
# PCOD9464233 Si02
#       6
#     8   8   8   8   8   8
#     4   9  18  34  58  83 112 147 182 227 280 337
#     4  11  23  39  59  82 113 154 194 239 291 338
#     4   9  18  36  58  81 112 148 185 231 281 335
#     4  11  22  36  56  85 118 152 190 235 286 342
#     4  10  20  34  57  87 117 149 187 231 280 337
#     4  10  21  40  64  88 115 148 193 241 286 342
#
# _framework density 17.585666
#
# number of rings (size 3 to 8) (size 9 to 14) (size 15 to 20)
#    0.000    2.000    1.667    3.500    0.000    4.667 
#    3.000    0.000    0.000    0.000    0.000    0.000 
#    0.000    0.000    0.000    0.000    0.000    0.000 
#
# Total GULP energy -267970.496352 kJ/mol
# GULP energy per Si atom -5582.718674 kJ/mol
# Density = 1.754564 g / cm^3
# Si number density = 17.585666 Si / 1000 Ang^3
#
#
#
# Elastic Constant Matrix: (Units=GPa)
#
#
# Indices 1 2 3 4 5 6 
#
# 1 157.2333 59.3489 86.1689 0.0000 0.0000 0.0000
# 2 59.3489 66.5547 57.7959 0.0000 0.0000 0.0000
# 3 86.1689 57.7959 123.9595 0.0000 0.0000 0.0000
# 4 0.0000 0.0000 0.0000 31.3398 0.0000 0.0000
# 5 0.0000 0.0000 0.0000 0.0000 19.7255 0.0000
# 6 0.0000 0.0000 0.0000 0.0000 0.0000 28.9658
#
#
#
# Elastic Compliance Matrix: (Units=1/GPa)
#
#
# Indices 1 2 3 4 5 6 
#
# 1 0.011357 -0.005497 -0.005331 0.000000 0.000000 0.000000
# 2 -0.005497 0.027909 -0.009191 0.000000 0.000000 0.000000
# 3 -0.005331 -0.009191 0.016058 0.000000 0.000000 0.000000
# 4 0.000000 0.000000 0.000000 0.031908 0.000000 0.000000
# 5 0.000000 0.000000 0.000000 0.000000 0.050696 0.000000
# 6 0.000000 0.000000 0.000000 0.000000 0.000000 0.034523
#
#
# Mechanical properties :
#
#
# Convention : Reuss Voigt Hill
#
# Bulk Modulus (GPa) = 65.42552 83.81943 74.62248
# Shear Modulus (GPa) = 22.97939 25.63513 24.30726
#
# Velocity S-wave (km/s) = 3.61877 3.82216 3.72186
# Velocity P-wave (km/s) = 7.39901 8.20034 7.80996
#
# Compressibility (1/GPa) = 0.01528455
#
# Stress axis : x y z
#
# Youngs Moduli (GPa) = 88.05309 35.83079 62.27250
#
# Poissons Ratio (x) = 0.19698 0.33200
# Poissons Ratio (y) = 0.48407 0.57235
# Poissons Ratio (z) = 0.46944 0.32932
#
# Static dielectric constant tensor:
#      x y z
#    x 1.606860 0.000000 0.000000 
#    y 0.000000 1.588240 0.000000 
#    z 0.000000 0.000000 1.564080 
# 
# From -- ./inp_files/23686.got.cif
#   From: 2010.05.17/outbox.cif.g08.bks.cpg/sg62_12_cif.got.tgz:23686.got - 2010.06.03 15:25:27.
