data_PCOD9464251
_publ_section_title
;
Structure prediction by ZEFSAII (Michael W. Deem and Ramdas Pophale) SiO2 
 PCOD9464251
Probable space group: P N M A
;
_chemical_formula_sum "Si O2"
_cell_formula_units_Z 64
_cell_length_a 22.665425
_cell_length_b 15.172381
_cell_length_c 8.240194
_cell_angle_alpha 90.000000
_cell_angle_beta 90.000000
_cell_angle_gamma 90.000000
_cell_volume 2833.707655
_symmetry_space_group_name_H-M "P N M A"
_symmetry_group_IT_number 62
_symmetry_cell_setting 'orthorhombic'
loop_
_space_group_symop_operation_xyz
x,y,z
1/2-x,-y,1/2+z
1/2+x,1/2-y,1/2-z
-x,1/2+y,-z
-x,-y,-z
1/2+x,y,1/2-z
1/2-x,1/2+y,1/2+z
x,1/2-y,z
loop_
_atom_site_type_symbol
_atom_site_label
_atom_site_fract_x
_atom_site_fract_y
_atom_site_fract_z
Si Si1 0.661160 0.523547 0.234464
Si Si2 0.271374 0.342255 0.181658
Si Si3 0.336147 0.656985 0.419348
Si Si4 0.411348 0.647180 0.726459
Si Si5 0.983618 0.017222 0.185540
Si Si6 0.950993 0.353741 0.683691
Si Si7 0.724177 0.002014 0.581255
Si Si8 0.091851 0.654094 0.678480
O O1 0.633382 0.426329 0.203058
O O2 0.608635 0.595485 0.244931
O O3 0.709367 0.540427 0.095464
O O4 0.695535 0.520702 0.407557
O O5 0.260160 0.250000 0.269534
O O6 0.267794 0.416763 0.312691
O O7 0.339550 0.341636 0.130840
O O8 0.219902 0.343520 0.045749
O O9 0.337063 0.750000 0.331278
O O10 0.392515 0.649800 0.535475
O O11 0.320398 0.569174 0.326894
O O12 0.409953 0.750000 0.781041
O O13 0.472406 0.595810 0.742930
O O14 0.922390 0.067913 0.214970
O O15 0.997008 0.923560 0.271820
O O16 0.000000 0.000000 0.000000
O O17 0.956823 0.250000 0.736848
O O18 0.943042 0.352132 0.490349
O O19 0.077863 0.750000 0.757669
#
# Coordination Sequence:
#
# PCOD9464251 Si02
#       8
#     8   8   8   8   8   8   8   8
#     4  10  22  34  57  89 121 160 200 250 304 363
#     4  10  20  34  58  88 118 153 200 248 296 365
#     4   9  18  34  56  80 113 158 197 233 292 366
#     4   9  18  36  56  79 113 154 198 239 292 361
#     4  11  24  39  62  94 122 156 206 264 322 371
#     4  10  23  43  63  89 123 163 210 262 315 370
#     4  11  19  34  54  85 119 155 194 242 299 355
#     4  10  22  40  65  89 117 164 210 254 312 378
#
# _framework density 22.585251
#
# number of rings (size 3 to 8) (size 9 to 14) (size 15 to 20)
#    0.000    2.000    2.500    1.500    5.250    3.000 
#    0.000    0.000    0.000    0.000    0.000    0.000 
#    0.000    0.000    0.000    0.000    0.000    0.000 
#
# Total GULP energy -356328.346082 kJ/mol
# GULP energy per Si atom -5567.630408 kJ/mol
# Density = 2.253385 g / cm^3
# Si number density = 22.585251 Si / 1000 Ang^3
#
#
#
# Elastic Constant Matrix: (Units=GPa)
#
#
# Indices 1 2 3 4 5 6 
#
# 1 55.5361 26.4007 1.3351 0.0000 0.0000 0.0000
# 2 26.4007 180.7673 12.3767 0.0000 0.0000 0.0000
# 3 1.3351 12.3767 30.0423 0.0000 0.0000 0.0000
# 4 0.0000 0.0000 0.0000 27.1774 0.0000 0.0000
# 5 0.0000 0.0000 0.0000 0.0000 26.1091 0.0000
# 6 0.0000 0.0000 0.0000 0.0000 0.0000 4.9320
#
#
#
# Elastic Compliance Matrix: (Units=1/GPa)
#
#
# Indices 1 2 3 4 5 6 
#
# 1 0.019353 -0.002848 0.000313 0.000000 0.000000 0.000000
# 2 -0.002848 0.006112 -0.002391 0.000000 0.000000 0.000000
# 3 0.000313 -0.002391 0.034258 0.000000 0.000000 0.000000
# 4 0.000000 0.000000 0.000000 0.036795 0.000000 0.000000
# 5 0.000000 0.000000 0.000000 0.000000 0.038301 0.000000
# 6 0.000000 0.000000 0.000000 0.000000 0.000000 0.202757
#
#
# Mechanical properties :
#
#
# Convention : Reuss Voigt Hill
#
# Bulk Modulus (GPa) = 20.05214 38.50785 29.27999
# Shear Modulus (GPa) = 13.73436 26.72592 20.23014
#
# Velocity S-wave (km/s) = 2.46867 3.44370 2.99611
# Velocity P-wave (km/s) = 4.12595 5.73577 4.99612
#
# Compressibility (1/GPa) = 0.04986999
#
# Stress axis : x y z
#
# Youngs Moduli (GPa) = 51.67270 163.62267 29.19056
#
# Poissons Ratio (x) = 0.46597 -0.00914
# Poissons Ratio (y) = 0.14716 0.06980
# Poissons Ratio (z) = -0.01618 0.39127
#
# Static dielectric constant tensor:
#      x y z
#    x 1.956260 0.000000 0.000000 
#    y 0.000000 1.976450 0.000000 
#    z 0.000000 0.000000 1.830670 
# 
# From -- ./inp_files/9494.got.cif
#   From: 2010.05.17/outbox.cif.g08.bks.cpg/sg62_5_cif.got.tgz:9494.got - 2010.06.03 15:25:27.
