data_PCOD9464249
_publ_section_title
;
Structure prediction by ZEFSAII (Michael W. Deem and Ramdas Pophale) SiO2 
 PCOD9464249
Probable space group: P N M A
;
_chemical_formula_sum "Si O2"
_cell_formula_units_Z 64
_cell_length_a 21.407274
_cell_length_b 8.405794
_cell_length_c 17.251006
_cell_angle_alpha 90.000000
_cell_angle_beta 90.000000
_cell_angle_gamma 90.000000
_cell_volume 3104.234610
_symmetry_space_group_name_H-M "P N M A"
_symmetry_group_IT_number 62
_symmetry_cell_setting 'orthorhombic'
loop_
_space_group_symop_operation_xyz
x,y,z
1/2-x,-y,1/2+z
1/2+x,1/2-y,1/2-z
-x,1/2+y,-z
-x,-y,-z
1/2+x,y,1/2-z
1/2-x,1/2+y,1/2+z
x,1/2-y,z
loop_
_atom_site_type_symbol
_atom_site_label
_atom_site_fract_x
_atom_site_fract_y
_atom_site_fract_z
Si Si1 0.890875 0.936218 0.965051
Si Si2 0.333048 0.560179 0.943330
Si Si3 0.304997 0.559893 0.400220
Si Si4 0.707081 0.938290 0.345511
Si Si5 0.350719 0.559566 0.115921
Si Si6 0.612079 0.560919 0.726392
Si Si7 0.518369 0.057952 0.338990
Si Si8 0.883717 0.061893 0.712718
O O1 0.902971 0.750000 0.979502
O O2 0.951003 0.004229 0.919362
O O3 0.835704 0.957697 0.901995
O O4 0.859563 0.005623 0.042274
O O5 0.330896 0.750000 0.946952
O O6 0.262429 0.502842 0.925983
O O7 0.376413 0.507436 0.872473
O O8 0.356704 0.502620 0.027423
O O9 0.302692 0.750000 0.406868
O O10 0.327584 0.514390 0.314689
O O11 0.696539 0.750000 0.363345
O O12 0.778903 0.972601 0.360169
O O13 0.681380 0.964652 0.259159
O O14 0.360312 0.750000 0.118302
O O15 0.391541 0.482087 0.183183
O O16 0.615861 0.750000 0.718176
O O17 0.550421 0.500160 0.682007
O O18 0.517077 0.250000 0.343918
O O19 0.563708 0.011939 0.268014
O O20 0.894130 0.250000 0.708140
#
# Coordination Sequence:
#
# PCOD9464249 Si02
#       8
#     8   8   8   8   8   8   8   8
#     4   9  18  33  56  83 112 148 184 228 279 329
#     4  11  22  37  59  87 117 150 185 231 290 346
#     4  11  22  36  57  87 121 151 187 235 286 344
#     4   9  17  32  53  79 110 142 178 222 279 338
#     4  10  21  37  57  81 114 149 185 235 292 345
#     4  11  24  39  58  82 112 154 197 239 288 342
#     4   9  20  40  59  80 113 152 199 243 281 337
#     4  10  20  34  58  87 113 147 188 236 287 340
#
# _framework density 20.616997000000001
#
# number of rings (size 3 to 8) (size 9 to 14) (size 15 to 20)
#    0.000    2.000    1.250    2.250    0.000    5.000 
#    0.000    0.625    0.000    0.000    0.000    0.000 
#    0.000    0.000    0.000    0.000    0.000    0.000 
#
# Total GULP energy -357296.715838 kJ/mol
# GULP energy per Si atom -5582.761185 kJ/mol
# Density = 2.057007 g / cm^3
# Si number density = 20.616997 Si / 1000 Ang^3
#
#
#
# Elastic Constant Matrix: (Units=GPa)
#
#
# Indices 1 2 3 4 5 6 
#
# 1 40.9274 -2.8303 3.8227 0.0000 0.0000 0.0000
# 2 -2.8303 7.6394 -2.2894 0.0000 0.0000 0.0000
# 3 3.8227 -2.2894 95.4629 0.0000 0.0000 0.0000
# 4 0.0000 0.0000 0.0000 24.4440 0.0000 0.0000
# 5 0.0000 0.0000 0.0000 0.0000 25.7437 0.0000
# 6 0.0000 0.0000 0.0000 0.0000 0.0000 14.7938
#
#
#
# Elastic Compliance Matrix: (Units=1/GPa)
#
#
# Indices 1 2 3 4 5 6 
#
# 1 0.025135 0.009076 -0.000789 0.000000 0.000000 0.000000
# 2 0.009076 0.135126 0.002877 0.000000 0.000000 0.000000
# 3 -0.000789 0.002877 0.010576 0.000000 0.000000 0.000000
# 4 0.000000 0.000000 0.000000 0.040910 0.000000 0.000000
# 5 0.000000 0.000000 0.000000 0.000000 0.038844 0.000000
# 6 0.000000 0.000000 0.000000 0.000000 0.000000 0.067596
#
#
# Mechanical properties :
#
#
# Convention : Reuss Voigt Hill
#
# Bulk Modulus (GPa) = 5.17692 15.71506 10.44599
# Shear Modulus (GPa) = 13.87939 22.68477 18.28208
#
# Velocity S-wave (km/s) = 2.59743 3.32067 2.98106
# Velocity P-wave (km/s) = 3.39293 4.72667 4.11420
#
# Compressibility (1/GPa) = 0.19316513
#
# Stress axis : x y z
#
# Youngs Moduli (GPa) = 39.78541 7.40051 94.55495
#
# Poissons Ratio (x) = -0.06717 0.07459
# Poissons Ratio (y) = -0.36109 -0.27205
# Poissons Ratio (z) = 0.03138 -0.02129
#
# Static dielectric constant tensor:
#      x y z
#    x 1.739480 0.000000 0.000000 
#    y 0.000000 1.713970 0.000000 
#    z 0.000000 0.000000 1.763440 
# 
# From -- ./inp_files/20798.got.cif
#   From: 2010.05.17/outbox.cif.g08.bks.cpg/sg62_11_cif.got.tgz:20798.got - 2010.06.03 15:25:27.
