data_PCOD9464861
_publ_section_title
;
Structure prediction by ZEFSAII (Michael W. Deem and Ramdas Pophale) SiO2 
 PCOD9464861
Probable space group: P N M A
;
_chemical_formula_sum "Si O2"
_cell_formula_units_Z 56
_cell_length_a 14.732982
_cell_length_b 8.458382
_cell_length_c 25.548990
_cell_angle_alpha 90.000000
_cell_angle_beta 90.000000
_cell_angle_gamma 90.000000
_cell_volume 3183.843335
_symmetry_space_group_name_H-M "P N M A"
_symmetry_group_IT_number 62
_symmetry_cell_setting 'orthorhombic'
loop_
_space_group_symop_operation_xyz
x,y,z
1/2-x,-y,1/2+z
1/2+x,1/2-y,1/2-z
-x,1/2+y,-z
-x,-y,-z
1/2+x,y,1/2-z
1/2-x,1/2+y,1/2+z
x,1/2-y,z
loop_
_atom_site_type_symbol
_atom_site_label
_atom_site_fract_x
_atom_site_fract_y
_atom_site_fract_z
Si Si1 0.104953 0.940126 0.498810
Si Si2 0.469621 0.941329 0.832567
Si Si3 0.702051 0.439908 0.105574
Si Si4 0.150647 0.940829 0.612814
Si Si5 0.737729 0.939089 0.287853
Si Si6 0.345699 0.561367 0.317955
Si Si7 0.467649 0.560329 0.715941
O O1 0.100412 0.750000 0.497567
O O2 0.157714 0.987570 0.552234
O O3 0.162428 0.000985 0.449447
O O4 0.000000 0.000000 0.500000
O O5 0.466946 0.750000 0.831416
O O6 0.372890 0.996543 0.852200
O O7 0.547964 0.986656 0.872066
O O8 0.491569 0.995844 0.774728
O O9 0.703935 0.250000 0.104342
O O10 0.795105 0.501685 0.129957
O O11 0.159254 0.750000 0.616058
O O12 0.212098 0.012135 0.658495
O O13 0.733625 0.750000 0.284473
O O14 0.792472 0.996726 0.235398
O O15 0.635572 0.005518 0.291749
O O16 0.342872 0.750000 0.316457
O O17 0.449962 0.505583 0.318050
O O18 0.469596 0.750000 0.713458
#
# Coordination Sequence:
#
# PCOD9464861 Si02
#       7
#     8   8   8   8   8   8   8
#     4  11  22  36  56  84 116 152 191 236 285 336
#     4   9  17  30  52  81 112 146 187 228 266 326
#     4  11  21  37  57  82 114 153 194 232 280 341
#     4  10  20  37  56  79 113 153 193 227 273 338
#     4  11  23  36  54  84 117 148 185 235 288 332
#     4  11  23  37  54  83 118 150 186 235 288 336
#     4  11  21  36  58  81 111 153 193 231 277 336
#
# _framework density 17.588804
#
# number of rings (size 3 to 8) (size 9 to 14) (size 15 to 20)
#    0.000    1.429    4.286    2.143    0.000    2.286 
#    0.000    0.000    0.000    0.857    0.000    0.000 
#    0.000    0.000    0.000    0.000    0.000    0.000 
#
# Total GULP energy -312320.527772 kJ/mol
# GULP energy per Si atom -5577.152282 kJ/mol
# Density = 1.754877 g / cm^3
# Si number density = 17.588804 Si / 1000 Ang^3
#
#
#
# Elastic Constant Matrix: (Units=GPa)
#
#
# Indices 1 2 3 4 5 6 
#
# 1 63.8749 12.0709 11.9233 0.0000 0.0000 0.0000
# 2 12.0709 48.7795 15.1875 0.0000 0.0000 0.0000
# 3 11.9233 15.1875 67.9837 0.0000 0.0000 0.0000
# 4 0.0000 0.0000 0.0000 25.1656 0.0000 0.0000
# 5 0.0000 0.0000 0.0000 0.0000 28.9591 0.0000
# 6 0.0000 0.0000 0.0000 0.0000 0.0000 26.7376
#
#
#
# Elastic Compliance Matrix: (Units=1/GPa)
#
#
# Indices 1 2 3 4 5 6 
#
# 1 0.016713 -0.003464 -0.002157 0.000000 0.000000 0.000000
# 2 -0.003464 0.022751 -0.004475 0.000000 0.000000 0.000000
# 3 -0.002157 -0.004475 0.016087 0.000000 0.000000 0.000000
# 4 0.000000 0.000000 0.000000 0.039737 0.000000 0.000000
# 5 0.000000 0.000000 0.000000 0.000000 0.034532 0.000000
# 6 0.000000 0.000000 0.000000 0.000000 0.000000 0.037401
#
#
# Mechanical properties :
#
#
# Convention : Reuss Voigt Hill
#
# Bulk Modulus (GPa) = 28.28169 28.77793 28.52981
# Shear Modulus (GPa) = 25.10052 25.60288 25.35170
#
# Velocity S-wave (km/s) = 3.78176 3.81942 3.80064
# Velocity P-wave (km/s) = 5.93155 5.98729 5.95948
#
# Compressibility (1/GPa) = 0.03535857
#
# Stress axis : x y z
#
# Youngs Moduli (GPa) = 59.83392 43.95434 62.16020
#
# Poissons Ratio (x) = 0.15226 0.13410
# Poissons Ratio (y) = 0.20727 0.27817
# Poissons Ratio (z) = 0.12908 0.19669
#
# Static dielectric constant tensor:
#      x y z
#    x 1.596270 0.000000 0.000000 
#    y 0.000000 1.602750 0.000000 
#    z 0.000000 0.000000 1.614450 
# 
# From -- ./inp_files/27283.got.cif
#   From: 2010.05.17/outbox.cif.g08.bks.cpg/sg62_14_cif.got.tgz:27283.got - 2010.06.03 15:25:27.
