data_PCOD9464143
_publ_section_title
;
Structure prediction by ZEFSAII (Michael W. Deem and Ramdas Pophale) SiO2 
 PCOD9464143
Probable space group: P N M A
;
_chemical_formula_sum "Si O2"
_cell_formula_units_Z 64
_cell_length_a 19.296373
_cell_length_b 19.061157
_cell_length_c 10.071071
_cell_angle_alpha 90.000000
_cell_angle_beta 90.000000
_cell_angle_gamma 90.000000
_cell_volume 3704.252662
_symmetry_space_group_name_H-M "P N M A"
_symmetry_group_IT_number 62
_symmetry_cell_setting 'orthorhombic'
loop_
_space_group_symop_operation_xyz
x,y,z
1/2-x,-y,1/2+z
1/2+x,1/2-y,1/2-z
-x,1/2+y,-z
-x,-y,-z
1/2+x,y,1/2-z
1/2-x,1/2+y,1/2+z
x,1/2-y,z
loop_
_atom_site_type_symbol
_atom_site_label
_atom_site_fract_x
_atom_site_fract_y
_atom_site_fract_z
Si Si1 0.377317 0.832073 0.397429
Si Si2 0.977626 0.166639 0.756140
Si Si3 0.815601 0.572234 0.873890
Si Si4 0.367231 0.893939 0.907748
Si Si5 0.514574 0.917230 0.979513
Si Si6 0.334431 0.051187 0.003100
Si Si7 0.288348 0.670772 0.134029
Si Si8 0.158603 0.584635 0.194215
O O1 0.367925 0.750000 0.433851
O O2 0.456167 0.842145 0.350646
O O3 0.353230 0.882861 0.513587
O O4 0.330847 0.845992 0.267195
O O5 0.968111 0.250000 0.731585
O O6 0.990442 0.125127 0.618110
O O7 0.909945 0.131013 0.819138
O O8 0.827855 0.607687 0.731309
O O9 0.848184 0.494594 0.857476
O O10 0.734817 0.563724 0.913306
O O11 0.349099 0.968545 0.979044
O O12 0.450459 0.891027 0.890690
O O13 0.339452 0.836973 0.010090
O O14 0.595240 0.914743 0.937026
O O15 0.500000 0.000000 0.000000
O O16 0.326124 0.080787 0.853034
O O17 0.262599 0.750000 0.145779
O O18 0.223506 0.619713 0.122877
#
# Coordination Sequence:
#
# PCOD9464143 Si02
#       8
#     8   8   8   8   8   8   8   8
#     4  10  22  38  58  83 115 155 194 236 292 358
#     4  10  20  37  60  86 116 153 199 244 291 349
#     4  11  21  36  58  85 120 153 190 239 302 348
#     4  10  20  34  54  83 113 146 195 238 288 346
#     4   9  18  34  55  82 113 150 198 244 287 340
#     4   9  18  34  55  79 112 151 188 237 283 341
#     4  11  20  34  56  82 112 150 196 243 289 343
#     4  10  20  35  57  86 112 151 198 247 285 338
#
# _framework density 17.277439999999999
#
# number of rings (size 3 to 8) (size 9 to 14) (size 15 to 20)
#    0.000    2.000    3.750    1.125    0.000    1.000 
#    0.000    1.250    0.000    0.000    0.000    0.000 
#    0.000    0.000    0.000    0.000    0.000    0.000 
#
# Total GULP energy -356759.066721 kJ/mol
# GULP energy per Si atom -5574.360418 kJ/mol
# Density = 1.723812 g / cm^3
# Si number density = 17.277440 Si / 1000 Ang^3
#
#
#
# Elastic Constant Matrix: (Units=GPa)
#
#
# Indices 1 2 3 4 5 6 
#
# 1 116.7068 43.8457 41.5322 0.0000 0.0000 0.0000
# 2 43.8457 63.9125 45.6117 0.0000 0.0000 0.0000
# 3 41.5322 45.6117 79.3372 0.0000 0.0000 0.0000
# 4 0.0000 0.0000 0.0000 29.1883 0.0000 0.0000
# 5 0.0000 0.0000 0.0000 0.0000 23.5940 0.0000
# 6 0.0000 0.0000 0.0000 0.0000 0.0000 24.9001
#
#
#
# Elastic Compliance Matrix: (Units=1/GPa)
#
#
# Indices 1 2 3 4 5 6 
#
# 1 0.011850 -0.006278 -0.002594 0.000000 0.000000 0.000000
# 2 -0.006278 0.029859 -0.013879 0.000000 0.000000 0.000000
# 3 -0.002594 -0.013879 0.021942 0.000000 0.000000 0.000000
# 4 0.000000 0.000000 0.000000 0.034260 0.000000 0.000000
# 5 0.000000 0.000000 0.000000 0.000000 0.042384 0.000000
# 6 0.000000 0.000000 0.000000 0.000000 0.000000 0.040161
#
#
# Mechanical properties :
#
#
# Convention : Reuss Voigt Hill
#
# Bulk Modulus (GPa) = 55.10492 57.99286 56.54889
# Shear Modulus (GPa) = 21.55096 24.13425 22.84260
#
# Velocity S-wave (km/s) = 3.53561 3.74152 3.64002
# Velocity P-wave (km/s) = 6.97358 7.23214 7.10403
#
# Compressibility (1/GPa) = 0.01814720
#
# Stress axis : x y z
#
# Youngs Moduli (GPa) = 84.38569 33.49102 45.57515
#
# Poissons Ratio (x) = 0.21027 0.11822
# Poissons Ratio (y) = 0.52981 0.63256
# Poissons Ratio (z) = 0.21890 0.46484
#
# Static dielectric constant tensor:
#      x y z
#    x 1.605140 0.000000 0.000000 
#    y 0.000000 1.590920 0.000000 
#    z 0.000000 0.000000 1.557680 
# 
# From -- ./inp_files/8916.got.cif
#   From: 2010.05.17/outbox.cif.g08.bks.cpg/sg62_5_cif.got.tgz:8916.got - 2010.06.03 15:25:27.
