data_PCOD9464852
_publ_section_title
;
Structure prediction by ZEFSAII (Michael W. Deem and Ramdas Pophale) SiO2 
 PCOD9464852
Probable space group: P N M A
;
_chemical_formula_sum "Si O2"
_cell_formula_units_Z 56
_cell_length_a 16.090040
_cell_length_b 13.878372
_cell_length_c 12.050068
_cell_angle_alpha 90.000000
_cell_angle_beta 90.000000
_cell_angle_gamma 90.000000
_cell_volume 2690.823090
_symmetry_space_group_name_H-M "P N M A"
_symmetry_group_IT_number 62
_symmetry_cell_setting 'orthorhombic'
loop_
_space_group_symop_operation_xyz
x,y,z
1/2-x,-y,1/2+z
1/2+x,1/2-y,1/2-z
-x,1/2+y,-z
-x,-y,-z
1/2+x,y,1/2-z
1/2-x,1/2+y,1/2+z
x,1/2-y,z
loop_
_atom_site_type_symbol
_atom_site_label
_atom_site_fract_x
_atom_site_fract_y
_atom_site_fract_z
Si Si1 0.875272 0.563102 0.463534
Si Si2 0.856456 0.365948 0.750357
Si Si3 0.671964 0.139646 0.732919
Si Si4 0.913014 0.861367 0.014708
Si Si5 0.022405 0.465889 0.337900
Si Si6 0.184044 0.542953 0.019901
Si Si7 0.565619 0.637656 0.633619
O O1 0.860963 0.631311 0.357454
O O2 0.916170 0.593083 0.580041
O O3 0.782125 0.528556 0.484198
O O4 0.940730 0.488091 0.411739
O O5 0.870985 0.250000 0.730646
O O6 0.763998 0.402410 0.710902
O O7 0.926816 0.436816 0.699008
O O8 0.843853 0.384373 0.882130
O O9 0.689196 0.250000 0.712009
O O10 0.601566 0.114252 0.643889
O O11 0.889911 0.750000 0.993324
O O12 0.006024 0.872702 0.973598
O O13 0.857214 0.940091 0.954106
O O14 0.986640 0.409825 0.232480
O O15 0.149346 0.585140 0.904236
O O16 0.579849 0.750000 0.656261
#
# Coordination Sequence:
#
# PCOD9464852 Si02
#       7
#     8   8   8   8   8   8   8
#     4  10  24  40  64  89 125 170 215 250 318 372
#     4  10  21  37  62  93 125 164 209 261 317 369
#     4   9  19  36  60  94 128 163 212 258 305 371
#     4  10  20  36  65  98 124 159 207 261 315 370
#     4  11  23  43  62  92 129 167 207 264 309 381
#     4  11  21  41  64  91 126 164 206 264 309 378
#     4  11  24  41  64  96 128 164 210 259 321 380
#
# _framework density 20.811477
#
# number of rings (size 3 to 8) (size 9 to 14) (size 15 to 20)
#    0.000    1.714    1.429    2.571    2.000    2.857 
#    0.000    2.857    0.000    0.000    0.000    0.000 
#    0.000    0.000    0.000    0.000    0.000    0.000 
#
# Total GULP energy -311925.265339 kJ/mol
# GULP energy per Si atom -5570.094024 kJ/mol
# Density = 2.076411 g / cm^3
# Si number density = 20.811477 Si / 1000 Ang^3
#
#
#
# Elastic Constant Matrix: (Units=GPa)
#
#
# Indices 1 2 3 4 5 6 
#
# 1 129.2669 42.1977 42.1415 0.0000 0.0000 0.0000
# 2 42.1977 66.1779 28.5212 0.0000 0.0000 0.0000
# 3 42.1415 28.5212 90.2577 0.0000 0.0000 0.0000
# 4 0.0000 0.0000 0.0000 20.2606 0.0000 0.0000
# 5 0.0000 0.0000 0.0000 0.0000 13.2708 0.0000
# 6 0.0000 0.0000 0.0000 0.0000 0.0000 16.2973
#
#
#
# Elastic Compliance Matrix: (Units=1/GPa)
#
#
# Indices 1 2 3 4 5 6 
#
# 1 0.010526 -0.005318 -0.003234 0.000000 0.000000 0.000000
# 2 -0.005318 0.020180 -0.003894 0.000000 0.000000 0.000000
# 3 -0.003234 -0.003894 0.013820 0.000000 0.000000 0.000000
# 4 0.000000 0.000000 0.000000 0.049357 0.000000 0.000000
# 5 0.000000 0.000000 0.000000 0.000000 0.075353 0.000000
# 6 0.000000 0.000000 0.000000 0.000000 0.000000 0.061360
#
#
# Mechanical properties :
#
#
# Convention : Reuss Voigt Hill
#
# Bulk Modulus (GPa) = 50.93233 56.82481 53.87857
# Shear Modulus (GPa) = 19.08154 21.48855 20.28505
#
# Velocity S-wave (km/s) = 3.03128 3.21679 3.12541
# Velocity P-wave (km/s) = 6.06448 6.41567 6.24254
#
# Compressibility (1/GPa) = 0.01963389
#
# Stress axis : x y z
#
# Youngs Moduli (GPa) = 94.99953 49.55406 72.35951
#
# Poissons Ratio (x) = 0.26354 0.23403
# Poissons Ratio (y) = 0.50522 0.28175
# Poissons Ratio (z) = 0.30725 0.19295
#
# Static dielectric constant tensor:
#      x y z
#    x 1.800910 0.000000 0.000000 
#    y 0.000000 1.762760 0.000000 
#    z 0.000000 0.000000 1.818620 
# 
# From -- ./inp_files/13379.got.cif
#   From: 2010.05.17/outbox.cif.g08.bks.cpg/sg62_7_cif.got.tgz:13379.got - 2010.06.03 15:25:27.
