data_PCOD9464103
_publ_section_title
;
Structure prediction by ZEFSAII (Michael W. Deem and Ramdas Pophale) SiO2 
 PCOD9464103
Probable space group: P N M A
;
_chemical_formula_sum "Si O2"
_cell_formula_units_Z 64
_cell_length_a 11.722937
_cell_length_b 7.862818
_cell_length_c 34.894767
_cell_angle_alpha 90.000000
_cell_angle_beta 90.000000
_cell_angle_gamma 90.000000
_cell_volume 3216.436317
_symmetry_space_group_name_H-M "P N M A"
_symmetry_group_IT_number 62
_symmetry_cell_setting 'orthorhombic'
loop_
_space_group_symop_operation_xyz
x,y,z
1/2-x,-y,1/2+z
1/2+x,1/2-y,1/2-z
-x,1/2+y,-z
-x,-y,-z
1/2+x,y,1/2-z
1/2-x,1/2+y,1/2+z
x,1/2-y,z
loop_
_atom_site_type_symbol
_atom_site_label
_atom_site_fract_x
_atom_site_fract_y
_atom_site_fract_z
Si Si1 0.237593 0.548282 0.430645
Si Si2 0.639564 0.443043 0.345496
Si Si3 0.385852 0.055457 0.738479
Si Si4 0.998173 0.955308 0.455328
Si Si5 0.870126 0.453004 0.993202
Si Si6 0.893637 0.955972 0.138062
Si Si7 0.237261 0.044124 0.581083
Si Si8 0.144196 0.457435 0.773582
O O1 0.227624 0.750000 0.423680
O O2 0.297830 0.524809 0.471531
O O3 0.311531 0.480106 0.395461
O O4 0.111160 0.476684 0.434982
O O5 0.646724 0.250000 0.332052
O O6 0.635740 0.554234 0.307262
O O7 0.520339 0.474046 0.367037
O O8 0.734980 0.481147 0.376661
O O9 0.392149 0.250000 0.752727
O O10 0.517689 0.985267 0.742507
O O11 0.266380 0.983244 0.756024
O O12 0.998594 0.750000 0.453283
O O13 0.884364 0.014237 0.434606
O O14 0.000000 0.000000 0.500000
O O15 0.856331 0.250000 0.994070
O O16 0.826486 0.512152 0.951677
O O17 0.000000 0.500000 0.000000
O O18 0.900339 0.750000 0.136163
O O19 0.856013 0.000635 0.181204
O O20 0.240272 0.250000 0.582458
O O21 0.142122 0.250000 0.770170
#
# Coordination Sequence:
#
# PCOD9464103 Si02
#       8
#     8   8   8   8   8   8   8   8
#     4  10  20  34  54  79 106 135 172 218 267 315
#     4  11  22  35  54  80 106 140 179 219 264 316
#     4   9  17  34  57  83 110 142 176 219 266 317
#     4  10  20  36  55  76 103 140 179 217 267 319
#     4  11  22  34  51  75 103 136 175 219 264 313
#     4   9  18  35  56  80 109 138 170 217 266 312
#     4  10  21  37  53  73 103 140 177 217 265 313
#     4   8  15  30  55  82 107 136 175 213 259 314
#
# _framework density 19.897798000000002
#
# number of rings (size 3 to 8) (size 9 to 14) (size 15 to 20)
#    0.000    2.250    1.250    3.000    0.000    5.000 
#    2.250    2.500    0.000    0.000    0.000    0.000 
#    0.000    0.000    0.000    0.000    0.000    0.000 
#
# Total GULP energy -356837.274572 kJ/mol
# GULP energy per Si atom -5575.582415 kJ/mol
# Density = 1.985251 g / cm^3
# Si number density = 19.897798 Si / 1000 Ang^3
#
#
#
# Elastic Constant Matrix: (Units=GPa)
#
#
# Indices 1 2 3 4 5 6 
#
# 1 74.3707 4.5464 14.1382 0.0000 0.0000 0.0000
# 2 4.5464 25.0835 -0.7866 0.0000 0.0000 0.0000
# 3 14.1382 -0.7866 47.0408 0.0000 0.0000 0.0000
# 4 0.0000 0.0000 0.0000 13.8110 0.0000 0.0000
# 5 0.0000 0.0000 0.0000 0.0000 42.5497 0.0000
# 6 0.0000 0.0000 0.0000 0.0000 0.0000 0.4000
#
#
#
# Elastic Compliance Matrix: (Units=1/GPa)
#
#
# Indices 1 2 3 4 5 6 
#
# 1 0.014449 -0.002757 -0.004389 0.000000 0.000000 0.000000
# 2 -0.002757 0.040414 0.001504 0.000000 0.000000 0.000000
# 3 -0.004389 0.001504 0.022602 0.000000 0.000000 0.000000
# 4 0.000000 0.000000 0.000000 0.072406 0.000000 0.000000
# 5 0.000000 0.000000 0.000000 0.000000 0.023502 0.000000
# 6 0.000000 0.000000 0.000000 0.000000 0.000000 2.500272
#
#
# Mechanical properties :
#
#
# Convention : Reuss Voigt Hill
#
# Bulk Modulus (GPa) = 15.10964 20.25457 17.68210
# Shear Modulus (GPa) = 1.84707 19.92526 10.88617
#
# Velocity S-wave (km/s) = 0.96452 3.16789 2.34156
# Velocity P-wave (km/s) = 2.97498 4.85614 4.02695
#
# Compressibility (1/GPa) = 0.06618292
#
# Stress axis : x y z
#
# Youngs Moduli (GPa) = 69.20898 24.74409 44.24318
#
# Poissons Ratio (x) = 0.06821 0.19417
# Poissons Ratio (y) = 0.19078 -0.06655
# Poissons Ratio (z) = 0.30374 -0.03722
#
# Static dielectric constant tensor:
#      x y z
#    x 1.736500 0.000000 0.000000 
#    y 0.000000 1.760130 0.000000 
#    z 0.000000 0.000000 1.667940 
# 
# From -- ./inp_files/32450.got.cif
#   From: 2010.05.17/outbox.cif.g08.bks.cpg/sg62_17_cif.got.tgz:32450.got - 2010.06.03 15:25:27.
