data_PCOD9464430
_publ_section_title
;
Structure prediction by ZEFSAII (Michael W. Deem and Ramdas Pophale) SiO2 
 PCOD9464430
Probable space group: P N M A
;
_chemical_formula_sum "Si O2"
_cell_formula_units_Z 64
_cell_length_a 14.642876
_cell_length_b 8.510400
_cell_length_c 25.676449
_cell_angle_alpha 90.000000
_cell_angle_beta 90.000000
_cell_angle_gamma 90.000000
_cell_volume 3199.715161
_symmetry_space_group_name_H-M "P N M A"
_symmetry_group_IT_number 62
_symmetry_cell_setting 'orthorhombic'
loop_
_space_group_symop_operation_xyz
x,y,z
1/2-x,-y,1/2+z
1/2+x,1/2-y,1/2-z
-x,1/2+y,-z
-x,-y,-z
1/2+x,y,1/2-z
1/2-x,1/2+y,1/2+z
x,1/2-y,z
loop_
_atom_site_type_symbol
_atom_site_label
_atom_site_fract_x
_atom_site_fract_y
_atom_site_fract_z
Si Si1 0.721102 0.060288 0.047591
Si Si2 0.031855 0.437718 0.403409
Si Si3 0.454199 0.067682 0.791606
Si Si4 0.125581 0.934529 0.874737
Si Si5 0.248210 0.436494 0.169470
Si Si6 0.340434 0.060006 0.060906
Si Si7 0.766091 0.569391 0.219609
Si Si8 0.545981 0.563234 0.323375
O O1 0.721065 0.250000 0.050593
O O2 0.629683 0.000719 0.077205
O O3 0.811608 0.006602 0.077771
O O4 0.712059 0.008498 0.988261
O O5 0.034225 0.250000 0.408549
O O6 0.945831 0.495209 0.436949
O O7 0.016338 0.476245 0.342817
O O8 0.479354 0.250000 0.798401
O O9 0.343555 0.058061 0.787661
O O10 0.487450 0.013389 0.734732
O O11 0.107017 0.750000 0.881330
O O12 0.186056 0.961689 0.822962
O O13 0.031346 0.023416 0.864789
O O14 0.259661 0.250000 0.176197
O O15 0.296219 0.485106 0.116022
O O16 0.285441 0.521321 0.221048
O O17 0.141065 0.477841 0.165716
O O18 0.338833 0.250000 0.057542
O O19 0.794090 0.750000 0.210562
O O20 0.563154 0.750000 0.320518
#
# Coordination Sequence:
#
# PCOD9464430 Si02
#       8
#     8   8   8   8   8   8   8   8
#     4  10  22  39  59  85 117 153 198 242 291 351
#     4  10  20  36  56  84 119 154 191 235 284 345
#     4   9  19  34  53  82 116 151 189 229 282 342
#     4  11  22  37  59  88 118 155 198 243 296 352
#     4  10  21  39  59  85 118 154 198 247 298 353
#     4  10  23  39  59  85 114 153 200 244 294 350
#     4  10  20  35  56  84 119 156 193 239 291 348
#     4  10  22  39  58  86 119 154 197 243 298 356
#
# _framework density 20.00178
#
# number of rings (size 3 to 8) (size 9 to 14) (size 15 to 20)
#    0.000    2.000    1.250    2.625    1.750    5.500 
#    0.000    0.625    0.000    0.000    0.000    0.000 
#    0.000    0.000    0.000    0.000    0.000    0.000 
#
# Total GULP energy -357554.285921 kJ/mol
# GULP energy per Si atom -5586.785718 kJ/mol
# Density = 1.995625 g / cm^3
# Si number density = 20.001780 Si / 1000 Ang^3
#
#
#
# Elastic Constant Matrix: (Units=GPa)
#
#
# Indices 1 2 3 4 5 6 
#
# 1 26.8411 -4.0303 2.0679 0.0000 0.0000 0.0000
# 2 -4.0303 4.3844 -3.2896 0.0000 0.0000 0.0000
# 3 2.0679 -3.2896 69.1424 0.0000 0.0000 0.0000
# 4 0.0000 0.0000 0.0000 32.0489 0.0000 0.0000
# 5 0.0000 0.0000 0.0000 0.0000 31.3096 0.0000
# 6 0.0000 0.0000 0.0000 0.0000 0.0000 7.4654
#
#
#
# Elastic Compliance Matrix: (Units=1/GPa)
#
#
# Indices 1 2 3 4 5 6 
#
# 1 0.043248 0.040220 0.000620 0.000000 0.000000 0.000000
# 2 0.040220 0.273927 0.011830 0.000000 0.000000 0.000000
# 3 0.000620 0.011830 0.015007 0.000000 0.000000 0.000000
# 4 0.000000 0.000000 0.000000 0.031202 0.000000 0.000000
# 5 0.000000 0.000000 0.000000 0.000000 0.031939 0.000000
# 6 0.000000 0.000000 0.000000 0.000000 0.000000 0.133951
#
#
# Mechanical properties :
#
#
# Convention : Reuss Voigt Hill
#
# Bulk Modulus (GPa) = 2.28560 9.98489 6.13524
# Shear Modulus (GPa) = 8.77539 21.20612 14.99076
#
# Velocity S-wave (km/s) = 2.09686 3.25962 2.74062
# Velocity P-wave (km/s) = 2.64719 4.37832 3.61782
#
# Compressibility (1/GPa) = 0.43752110
#
# Stress axis : x y z
#
# Youngs Moduli (GPa) = 23.12268 3.65061 66.63476
#
# Poissons Ratio (x) = -0.14683 -0.04132
# Poissons Ratio (y) = -0.92999 -0.78828
# Poissons Ratio (z) = -0.01434 -0.04319
#
# Static dielectric constant tensor:
#      x y z
#    x 1.731830 0.000000 0.000000 
#    y 0.000000 1.678230 0.000000 
#    z 0.000000 0.000000 1.687180 
# 
# From -- ./inp_files/29739.got.cif
#   From: 2010.05.17/outbox.cif.g08.bks.cpg/sg62_15_cif.got.tgz:29739.got - 2010.06.03 15:25:27.
