data_PCOD9464689
_publ_section_title
;
Structure prediction by ZEFSAII (Michael W. Deem and Ramdas Pophale) SiO2 
 PCOD9464689
Probable space group: P N M A
;
_chemical_formula_sum "Si O2"
_cell_formula_units_Z 64
_cell_length_a 18.472257
_cell_length_b 11.519134
_cell_length_c 16.301979
_cell_angle_alpha 90.000000
_cell_angle_beta 90.000000
_cell_angle_gamma 90.000000
_cell_volume 3468.806880
_symmetry_space_group_name_H-M "P N M A"
_symmetry_group_IT_number 62
_symmetry_cell_setting 'orthorhombic'
loop_
_space_group_symop_operation_xyz
x,y,z
1/2-x,-y,1/2+z
1/2+x,1/2-y,1/2-z
-x,1/2+y,-z
-x,-y,-z
1/2+x,y,1/2-z
1/2-x,1/2+y,1/2+z
x,1/2-y,z
loop_
_atom_site_type_symbol
_atom_site_label
_atom_site_fract_x
_atom_site_fract_y
_atom_site_fract_z
Si Si1 0.179288 0.487635 0.696677
Si Si2 0.576233 0.617290 0.928766
Si Si3 0.275041 0.879632 0.830338
Si Si4 0.635641 0.614341 0.559563
Si Si5 0.683110 0.888760 0.377705
Si Si6 0.411165 0.616742 0.340669
Si Si7 0.564219 0.883184 0.254603
Si Si8 0.922953 0.522789 0.596076
O O1 0.119955 0.562187 0.647486
O O2 0.231901 0.560194 0.756471
O O3 0.235032 0.431608 0.632286
O O4 0.138278 0.401009 0.759189
O O5 0.598982 0.750000 0.939677
O O6 0.489347 0.611059 0.916218
O O7 0.590402 0.542852 0.010693
O O8 0.292227 0.750000 0.803344
O O9 0.215828 0.878592 0.902702
O O10 0.347971 0.931729 0.867336
O O11 0.605817 0.750000 0.569740
O O12 0.644552 0.586693 0.463842
O O13 0.601336 0.499867 0.603921
O O14 0.685085 0.750000 0.371210
O O15 0.632011 0.934943 0.304397
O O16 0.397658 0.750000 0.373220
O O17 0.494040 0.612220 0.311719
O O18 0.582277 0.750000 0.238190
O O19 0.548422 0.939012 0.167615
#
# Coordination Sequence:
#
# PCOD9464689 Si02
#       8
#     8   8   8   8   8   8   8   8
#     4  11  20  37  58  86 120 152 196 242 293 357
#     4  11  24  38  59  88 120 156 196 250 307 357
#     4  10  20  36  58  81 116 157 196 244 294 352
#     4   9  20  38  59  86 117 155 195 239 295 351
#     4  10  20  36  60  85 113 152 195 239 289 353
#     4  10  21  38  60  87 117 153 196 245 295 348
#     4  10  20  37  59  84 115 148 192 245 290 344
#     4  11  21  40  58  85 117 154 200 241 298 363
#
# _framework density 18.450147999999999
#
# number of rings (size 3 to 8) (size 9 to 14) (size 15 to 20)
#    0.000    1.750    2.500    2.250    0.000    1.000 
#    0.000    5.625    0.000    0.000    0.000    0.000 
#    0.000    0.000    0.000    0.000    0.000    0.000 
#
# Total GULP energy -356313.573002 kJ/mol
# GULP energy per Si atom -5567.399578 kJ/mol
# Density = 1.840815 g / cm^3
# Si number density = 18.450148 Si / 1000 Ang^3
#
#
#
# Elastic Constant Matrix: (Units=GPa)
#
#
# Indices 1 2 3 4 5 6 
#
# 1 60.2523 21.3635 19.3107 0.0000 0.0000 0.0000
# 2 21.3635 78.8803 27.6234 0.0000 0.0000 0.0000
# 3 19.3107 27.6234 70.8577 0.0000 0.0000 0.0000
# 4 0.0000 0.0000 0.0000 11.4282 0.0000 0.0000
# 5 0.0000 0.0000 0.0000 0.0000 23.6356 0.0000
# 6 0.0000 0.0000 0.0000 0.0000 0.0000 18.5508
#
#
#
# Elastic Compliance Matrix: (Units=1/GPa)
#
#
# Indices 1 2 3 4 5 6 
#
# 1 0.019165 -0.003893 -0.003705 0.000000 0.000000 0.000000
# 2 -0.003893 0.015473 -0.004971 0.000000 0.000000 0.000000
# 3 -0.003705 -0.004971 0.017060 0.000000 0.000000 0.000000
# 4 0.000000 0.000000 0.000000 0.087503 0.000000 0.000000
# 5 0.000000 0.000000 0.000000 0.000000 0.042309 0.000000
# 6 0.000000 0.000000 0.000000 0.000000 0.000000 0.053906
#
#
# Mechanical properties :
#
#
# Convention : Reuss Voigt Hill
#
# Bulk Modulus (GPa) = 37.65136 38.50950 38.08043
# Shear Modulus (GPa) = 18.55929 20.16910 19.36420
#
# Velocity S-wave (km/s) = 3.17506 3.30990 3.24318
# Velocity P-wave (km/s) = 5.82174 5.96026 5.89141
#
# Compressibility (1/GPa) = 0.02655947
#
# Stress axis : x y z
#
# Youngs Moduli (GPa) = 52.17933 64.63060 58.61501
#
# Poissons Ratio (x) = 0.25160 0.21719
# Poissons Ratio (y) = 0.20313 0.29137
# Poissons Ratio (z) = 0.19334 0.32128
#
# Static dielectric constant tensor:
#      x y z
#    x 1.652050 0.000000 0.000000 
#    y 0.000000 1.675620 0.000000 
#    z 0.000000 0.000000 1.641510 
# 
# From -- ./inp_files/19870.got.cif
#   From: 2010.05.17/outbox.cif.g08.bks.cpg/sg62_10_cif.got.tgz:19870.got - 2010.06.03 15:25:27.
