data_PCOD9464519
_publ_section_title
;
Structure prediction by ZEFSAII (Michael W. Deem and Ramdas Pophale) SiO2 
 PCOD9464519
Probable space group: P N M A
;
_chemical_formula_sum "Si O2"
_cell_formula_units_Z 48
_cell_length_a 23.117402
_cell_length_b 8.925862
_cell_length_c 12.215270
_cell_angle_alpha 90.000000
_cell_angle_beta 90.000000
_cell_angle_gamma 90.000000
_cell_volume 2520.532282
_symmetry_space_group_name_H-M "P N M A"
_symmetry_group_IT_number 62
_symmetry_cell_setting 'orthorhombic'
loop_
_space_group_symop_operation_xyz
x,y,z
1/2-x,-y,1/2+z
1/2+x,1/2-y,1/2-z
-x,1/2+y,-z
-x,-y,-z
1/2+x,y,1/2-z
1/2-x,1/2+y,1/2+z
x,1/2-y,z
loop_
_atom_site_type_symbol
_atom_site_label
_atom_site_fract_x
_atom_site_fract_y
_atom_site_fract_z
Si Si1 0.838716 0.079797 0.557056
Si Si2 0.383234 0.068377 0.274368
Si Si3 0.563794 0.568744 0.492538
Si Si4 0.956756 0.082524 0.420084
Si Si5 0.779222 0.928701 0.362447
Si Si6 0.350986 0.067841 0.697258
O O1 0.815280 0.250000 0.568780
O O2 0.896821 0.089697 0.486339
O O3 0.855095 0.020639 0.676519
O O4 0.796467 0.980521 0.484266
O O5 0.379790 0.250000 0.263924
O O6 0.398638 0.031309 0.398994
O O7 0.436758 0.016570 0.196466
O O8 0.324508 0.000908 0.223750
O O9 0.500000 0.500000 0.500000
O O10 0.558797 0.750000 0.489646
O O11 0.599160 0.516546 0.385325
O O12 0.979206 0.250000 0.400761
O O13 0.000000 0.000000 0.500000
O O14 0.783666 0.750000 0.353302
O O15 0.713315 0.974646 0.340749
O O16 0.354035 0.250000 0.695966
#
# Coordination Sequence:
#
# PCOD9464519 Si02
#       6
#     8   8   8   8   8   8
#     4   9  19  37  55  76 109 146 179 219 278 337
#     4   9  20  38  57  79 113 151 182 223 283 341
#     4  10  22  40  60  83 115 154 193 232 282 341
#     4   9  18  31  51  76 102 137 177 217 265 317
#     4  10  20  35  58  88 111 139 187 236 278 329
#     4   9  20  37  58  82 113 148 181 227 286 339
#
# _framework density 19.043596000000001
#
# number of rings (size 3 to 8) (size 9 to 14) (size 15 to 20)
#    0.000    2.667    0.000    1.500    4.667    3.333 
#    0.000    3.333    0.000    0.000    0.000    0.000 
#    0.000    0.000    0.000    0.000    0.000    0.000 
#
# Total GULP energy -267534.973467 kJ/mol
# GULP energy per Si atom -5573.645281 kJ/mol
# Density = 1.900025 g / cm^3
# Si number density = 19.043596 Si / 1000 Ang^3
#
#
#
# Elastic Constant Matrix: (Units=GPa)
#
#
# Indices 1 2 3 4 5 6 
#
# 1 63.4439 14.5740 34.7434 0.0000 0.0000 0.0000
# 2 14.5740 21.1576 14.1489 0.0000 0.0000 0.0000
# 3 34.7434 14.1489 142.2710 0.0000 0.0000 0.0000
# 4 0.0000 0.0000 0.0000 20.6251 0.0000 0.0000
# 5 0.0000 0.0000 0.0000 0.0000 13.2780 0.0000
# 6 0.0000 0.0000 0.0000 0.0000 0.0000 24.4470
#
#
#
# Elastic Compliance Matrix: (Units=1/GPa)
#
#
# Indices 1 2 3 4 5 6 
#
# 1 0.020534 -0.011560 -0.003865 0.000000 0.000000 0.000000
# 2 -0.011560 0.057139 -0.002860 0.000000 0.000000 0.000000
# 3 -0.003865 -0.002860 0.008257 0.000000 0.000000 0.000000
# 4 0.000000 0.000000 0.000000 0.048485 0.000000 0.000000
# 5 0.000000 0.000000 0.000000 0.000000 0.075313 0.000000
# 6 0.000000 0.000000 0.000000 0.000000 0.000000 0.040905
#
#
# Mechanical properties :
#
#
# Convention : Reuss Voigt Hill
#
# Bulk Modulus (GPa) = 20.25857 39.31167 29.78512
# Shear Modulus (GPa) = 16.46607 22.56377 19.51492
#
# Velocity S-wave (km/s) = 2.94369 3.44590 3.20464
# Velocity P-wave (km/s) = 4.71326 6.04318 5.41917
#
# Compressibility (1/GPa) = 0.04936181
#
# Stress axis : x y z
#
# Youngs Moduli (GPa) = 48.69996 17.50109 121.10870
#
# Poissons Ratio (x) = 0.20231 0.46807
# Poissons Ratio (y) = 0.56296 0.34632
# Poissons Ratio (z) = 0.18822 0.05005
#
# Static dielectric constant tensor:
#      x y z
#    x 1.644070 0.000000 0.000000 
#    y 0.000000 1.657780 0.000000 
#    z 0.000000 0.000000 1.696320 
# 
# From -- ./inp_files/15149.got.cif
#   From: 2010.05.17/outbox.cif.g08.bks.cpg/sg62_8_cif.got.tgz:15149.got - 2010.06.03 15:25:27.
