data_PCOD9464188
_publ_section_title
;
Structure prediction by ZEFSAII (Michael W. Deem and Ramdas Pophale) SiO2 
 PCOD9464188
Probable space group: P N M A
;
_chemical_formula_sum "Si O2"
_cell_formula_units_Z 64
_cell_length_a 22.959198
_cell_length_b 8.414284
_cell_length_c 16.702163
_cell_angle_alpha 90.000000
_cell_angle_beta 90.000000
_cell_angle_gamma 90.000000
_cell_volume 3226.610906
_symmetry_space_group_name_H-M "P N M A"
_symmetry_group_IT_number 62
_symmetry_cell_setting 'orthorhombic'
loop_
_space_group_symop_operation_xyz
x,y,z
1/2-x,-y,1/2+z
1/2+x,1/2-y,1/2-z
-x,1/2+y,-z
-x,-y,-z
1/2+x,y,1/2-z
1/2-x,1/2+y,1/2+z
x,1/2-y,z
loop_
_atom_site_type_symbol
_atom_site_label
_atom_site_fract_x
_atom_site_fract_y
_atom_site_fract_z
Si Si1 0.490451 0.932766 0.910483
Si Si2 0.254817 0.064784 0.795371
Si Si3 0.704588 0.429968 0.978724
Si Si4 0.049755 0.559235 0.752341
Si Si5 0.631288 0.930876 0.115084
Si Si6 0.680334 0.939450 0.556307
Si Si7 0.171764 0.929687 0.680175
Si Si8 0.045883 0.557485 0.933447
O O1 0.509021 0.750000 0.915272
O O2 0.521905 0.003612 0.830965
O O3 0.422522 0.952570 0.891140
O O4 0.500000 0.000000 0.000000
O O5 0.247289 0.250000 0.773751
O O6 0.322176 0.037357 0.815544
O O7 0.214654 0.027461 0.872564
O O8 0.231186 0.950205 0.727770
O O9 0.695976 0.250000 0.008828
O O10 0.676052 0.451397 0.893031
O O11 0.670558 0.548583 0.036320
O O12 0.774227 0.459512 0.982519
O O13 0.038702 0.750000 0.753034
O O14 0.118701 0.535501 0.739860
O O15 0.032728 0.501903 0.841491
O O16 0.609600 0.750000 0.120978
O O17 0.678714 0.750000 0.575378
O O18 0.613230 0.989906 0.546991
O O19 0.163810 0.750000 0.650612
O O20 0.044426 0.750000 0.933076
O O21 0.000000 0.500000 0.000000
#
# Coordination Sequence:
#
# PCOD9464188 Si02
#       8
#     8   8   8   8   8   8   8   8
#     4  11  22  38  61  88 120 160 201 247 299 358
#     4  10  20  34  56  82 111 143 185 238 285 338
#     4  10  20  34  56  87 115 145 186 236 288 353
#     4   9  20  38  60  83 114 154 199 243 290 349
#     4  10  21  38  56  79 114 153 189 232 288 348
#     4   9  18  36  59  79 110 148 184 229 295 356
#     4  11  20  35  58  83 113 150 188 232 293 355
#     4  10  20  39  61  83 111 151 198 248 298 352
#
# _framework density 19.835052999999998
#
# number of rings (size 3 to 8) (size 9 to 14) (size 15 to 20)
#    0.000    2.000    1.250    2.625    0.000    3.500 
#    2.250    3.125    0.000    0.000    0.000    0.000 
#    0.000    0.000    0.000    0.000    0.000    0.000 
#
# Total GULP energy -356599.641664 kJ/mol
# GULP energy per Si atom -5571.869401 kJ/mol
# Density = 1.978991 g / cm^3
# Si number density = 19.835053 Si / 1000 Ang^3
#
#
#
# Elastic Constant Matrix: (Units=GPa)
#
#
# Indices 1 2 3 4 5 6 
#
# 1 65.3549 15.3052 24.6392 0.0000 0.0000 0.0000
# 2 15.3052 22.3404 12.3462 0.0000 0.0000 0.0000
# 3 24.6392 12.3462 89.2987 0.0000 0.0000 0.0000
# 4 0.0000 0.0000 0.0000 19.4819 0.0000 0.0000
# 5 0.0000 0.0000 0.0000 0.0000 25.1500 0.0000
# 6 0.0000 0.0000 0.0000 0.0000 0.0000 19.8995
#
#
#
# Elastic Compliance Matrix: (Units=1/GPa)
#
#
# Indices 1 2 3 4 5 6 
#
# 1 0.019344 -0.011155 -0.003795 0.000000 0.000000 0.000000
# 2 -0.011155 0.054898 -0.004512 0.000000 0.000000 0.000000
# 3 -0.003795 -0.004512 0.012869 0.000000 0.000000 0.000000
# 4 0.000000 0.000000 0.000000 0.051330 0.000000 0.000000
# 5 0.000000 0.000000 0.000000 0.000000 0.039761 0.000000
# 6 0.000000 0.000000 0.000000 0.000000 0.000000 0.050252
#
#
# Mechanical properties :
#
#
# Convention : Reuss Voigt Hill
#
# Bulk Modulus (GPa) = 20.75268 31.28613 26.01940
# Shear Modulus (GPa) = 17.64028 21.21986 19.43007
#
# Velocity S-wave (km/s) = 2.98543 3.27435 3.13322
# Velocity P-wave (km/s) = 4.72960 5.48658 5.12209
#
# Compressibility (1/GPa) = 0.04818655
#
# Stress axis : x y z
#
# Youngs Moduli (GPa) = 51.69488 18.21563 77.70403
#
# Poissons Ratio (x) = 0.20320 0.29490
# Poissons Ratio (y) = 0.57667 0.35061
# Poissons Ratio (z) = 0.19619 0.08219
#
# Static dielectric constant tensor:
#      x y z
#    x 1.714250 0.000000 0.000000 
#    y 0.000000 1.695430 0.000000 
#    z 0.000000 0.000000 1.748830 
# 
# From -- ./inp_files/24685.got.cif
#   From: 2010.05.17/outbox.cif.g08.bks.cpg/sg62_13_cif.got.tgz:24685.got - 2010.06.03 15:25:27.
