data_PCOD9464200
_publ_section_title
;
Structure prediction by ZEFSAII (Michael W. Deem and Ramdas Pophale) SiO2 
 PCOD9464200
Probable space group: P N M A
;
_chemical_formula_sum "Si O2"
_cell_formula_units_Z 64
_cell_length_a 30.508762
_cell_length_b 11.837793
_cell_length_c 9.219963
_cell_angle_alpha 90.000000
_cell_angle_beta 90.000000
_cell_angle_gamma 90.000000
_cell_volume 3329.848730
_symmetry_space_group_name_H-M "P N M A"
_symmetry_group_IT_number 62
_symmetry_cell_setting 'orthorhombic'
loop_
_space_group_symop_operation_xyz
x,y,z
1/2-x,-y,1/2+z
1/2+x,1/2-y,1/2-z
-x,1/2+y,-z
-x,-y,-z
1/2+x,y,1/2-z
1/2-x,1/2+y,1/2+z
x,1/2-y,z
loop_
_atom_site_type_symbol
_atom_site_label
_atom_site_fract_x
_atom_site_fract_y
_atom_site_fract_z
Si Si1 0.595590 0.620857 0.873803
Si Si2 0.774742 0.623080 0.528970
Si Si3 0.569092 0.042487 0.423071
Si Si4 0.790086 0.459473 0.786758
Si Si5 0.617288 0.626683 0.209928
Si Si6 0.024101 0.875560 0.848735
Si Si7 0.161414 0.126825 0.995158
Si Si8 0.643853 0.118870 0.827510
O O1 0.612353 0.750000 0.827433
O O2 0.546731 0.616586 0.808271
O O3 0.617138 0.500201 0.826512
O O4 0.600701 0.620848 0.045814
O O5 0.768067 0.750000 0.585062
O O6 0.768867 0.532762 0.657286
O O7 0.743974 0.605555 0.388586
O O8 0.823966 0.612893 0.465362
O O9 0.527765 0.105403 0.353424
O O10 0.608775 0.115594 0.487285
O O11 0.592456 0.965512 0.303752
O O12 0.548385 0.965418 0.549342
O O13 0.830220 0.389524 0.717598
O O14 0.814548 0.539493 0.902859
O O15 0.606970 0.750000 0.271071
O O16 0.033033 0.750000 0.906123
O O17 0.175622 0.250000 0.043405
O O18 0.169940 0.114493 0.824556
O O19 0.624397 0.250000 0.830043
#
# Coordination Sequence:
#
# PCOD9464200 Si02
#       8
#     8   8   8   8   8   8   8   8
#     4  10  20  38  59  85 118 155 199 243 296 353
#     4  11  23  40  61  87 119 153 196 250 301 358
#     4  10  20  34  56  83 116 151 200 241 299 354
#     4  11  22  39  61  85 121 149 200 238 302 359
#     4  10  21  38  59  83 116 156 195 244 296 354
#     4  10  20  35  56  83 117 153 197 251 298 349
#     4  10  20  36  58  83 115 154 196 243 297 356
#     4  10  20  38  59  85 118 153 197 244 296 353
#
# _framework density 19.220092000000001
#
# number of rings (size 3 to 8) (size 9 to 14) (size 15 to 20)
#    0.000    1.750    2.500    2.250    0.000    0.500 
#    0.000    6.250    0.000    0.000    0.000    0.000 
#    0.000    0.000    0.000    0.000    0.000    0.000 
#
# Total GULP energy -356354.648003 kJ/mol
# GULP energy per Si atom -5568.041375 kJ/mol
# Density = 1.917635 g / cm^3
# Si number density = 19.220092 Si / 1000 Ang^3
#
#
#
# Elastic Constant Matrix: (Units=GPa)
#
#
# Indices 1 2 3 4 5 6 
#
# 1 47.0838 7.0515 6.8685 0.0000 0.0000 0.0000
# 2 7.0515 93.4709 16.1825 0.0000 0.0000 0.0000
# 3 6.8685 16.1825 57.9134 0.0000 0.0000 0.0000
# 4 0.0000 0.0000 0.0000 43.7563 0.0000 0.0000
# 5 0.0000 0.0000 0.0000 0.0000 26.2032 0.0000
# 6 0.0000 0.0000 0.0000 0.0000 0.0000 19.0023
#
#
#
# Elastic Compliance Matrix: (Units=1/GPa)
#
#
# Indices 1 2 3 4 5 6 
#
# 1 0.021752 -0.001255 -0.002229 0.000000 0.000000 0.000000
# 2 -0.001255 0.011315 -0.003013 0.000000 0.000000 0.000000
# 3 -0.002229 -0.003013 0.018373 0.000000 0.000000 0.000000
# 4 0.000000 0.000000 0.000000 0.022854 0.000000 0.000000
# 5 0.000000 0.000000 0.000000 0.000000 0.038163 0.000000
# 6 0.000000 0.000000 0.000000 0.000000 0.000000 0.052625
#
#
# Mechanical properties :
#
#
# Convention : Reuss Voigt Hill
#
# Bulk Modulus (GPa) = 26.01039 28.74147 27.37593
# Shear Modulus (GPa) = 26.19286 29.01672 27.60479
#
# Velocity S-wave (km/s) = 3.69560 3.88971 3.79390
# Velocity P-wave (km/s) = 5.63668 5.92954 5.78497
#
# Compressibility (1/GPa) = 0.03844618
#
# Stress axis : x y z
#
# Youngs Moduli (GPa) = 45.97305 88.37977 54.42658
#
# Poissons Ratio (x) = 0.11092 0.12132
# Poissons Ratio (y) = 0.05770 0.16398
# Poissons Ratio (z) = 0.10248 0.26627
#
# Static dielectric constant tensor:
#      x y z
#    x 1.669230 0.000000 0.000000 
#    y 0.000000 1.722840 0.000000 
#    z 0.000000 0.000000 1.639000 
# 
# From -- ./inp_files/10451.got.cif
#   From: 2010.05.17/outbox.cif.g08.bks.cpg/sg62_6_cif.got.tgz:10451.got - 2010.06.03 15:25:27.
