data_PCOD9464906
_publ_section_title
;
Structure prediction by ZEFSAII (Michael W. Deem and Ramdas Pophale) SiO2 
 PCOD9464906
Probable space group: P N M A
;
_chemical_formula_sum "Si O2"
_cell_formula_units_Z 48
_cell_length_a 19.458413
_cell_length_b 13.979281
_cell_length_c 8.875115
_cell_angle_alpha 90.000000
_cell_angle_beta 90.000000
_cell_angle_gamma 90.000000
_cell_volume 2414.161062
_symmetry_space_group_name_H-M "P N M A"
_symmetry_group_IT_number 62
_symmetry_cell_setting 'orthorhombic'
loop_
_space_group_symop_operation_xyz
x,y,z
1/2-x,-y,1/2+z
1/2+x,1/2-y,1/2-z
-x,1/2+y,-z
-x,-y,-z
1/2+x,y,1/2-z
1/2-x,1/2+y,1/2+z
x,1/2-y,z
loop_
_atom_site_type_symbol
_atom_site_label
_atom_site_fract_x
_atom_site_fract_y
_atom_site_fract_z
Si Si1 0.773589 0.862255 0.991134
Si Si2 0.845525 0.640323 0.508550
Si Si3 0.981285 0.856858 0.314482
Si Si4 0.560634 0.354997 0.471105
Si Si5 0.230379 0.549621 0.185826
Si Si6 0.411689 0.002088 0.757850
O O1 0.751192 0.750000 0.977498
O O2 0.749894 0.911080 0.148335
O O3 0.856721 0.859687 0.992452
O O4 0.752886 0.938434 0.860066
O O5 0.843650 0.750000 0.559956
O O6 0.774574 0.611040 0.431554
O O7 0.868015 0.570750 0.641113
O O8 0.906557 0.629539 0.386143
O O9 0.003678 0.750000 0.355925
O O10 0.038989 0.932555 0.356664
O O11 0.973195 0.862883 0.134184
O O12 0.543967 0.250000 0.407915
O O13 0.543758 0.438722 0.356157
O O14 0.147911 0.560495 0.171869
#
# Coordination Sequence:
#
# PCOD9464906 Si02
#       6
#     8   8   8   8   8   8
#     4  10  20  37  59  85 119 155 197 246 293 352
#     4  11  22  39  60  82 112 154 199 237 289 362
#     4  10  21  37  59  84 112 151 191 233 295 356
#     4   9  18  35  59  82 108 150 193 230 282 346
#     4  11  21  38  59  88 114 157 200 241 300 352
#     4  11  22  36  58  86 118 144 191 249 289 342
#
# _framework density 19.882681999999999
#
# number of rings (size 3 to 8) (size 9 to 14) (size 15 to 20)
#    0.000    1.667    3.333    2.000    0.000    2.000 
#    0.000    0.000    0.000    1.000    0.000    0.000 
#    0.000    0.000    0.000    0.000    0.000    0.000 
#
# Total GULP energy -267699.298330 kJ/mol
# GULP energy per Si atom -5577.068715 kJ/mol
# Density = 1.983743 g / cm^3
# Si number density = 19.882682 Si / 1000 Ang^3
#
#
#
# Elastic Constant Matrix: (Units=GPa)
#
#
# Indices 1 2 3 4 5 6 
#
# 1 42.9486 36.9376 -5.6130 0.0000 0.0000 0.0000
# 2 36.9376 104.7681 24.3397 0.0000 0.0000 0.0000
# 3 -5.6130 24.3397 45.6665 0.0000 0.0000 0.0000
# 4 0.0000 0.0000 0.0000 29.5479 0.0000 0.0000
# 5 0.0000 0.0000 0.0000 0.0000 20.6063 0.0000
# 6 0.0000 0.0000 0.0000 0.0000 0.0000 25.1246
#
#
#
# Elastic Compliance Matrix: (Units=1/GPa)
#
#
# Indices 1 2 3 4 5 6 
#
# 1 0.040176 -0.017476 0.014253 0.000000 0.000000 0.000000
# 2 -0.017476 0.018496 -0.012006 0.000000 0.000000 0.000000
# 3 0.014253 -0.012006 0.030049 0.000000 0.000000 0.000000
# 4 0.000000 0.000000 0.000000 0.033843 0.000000 0.000000
# 5 0.000000 0.000000 0.000000 0.000000 0.048529 0.000000
# 6 0.000000 0.000000 0.000000 0.000000 0.000000 0.039802
#
#
# Mechanical properties :
#
#
# Convention : Reuss Voigt Hill
#
# Bulk Modulus (GPa) = 17.16379 33.85687 25.51033
# Shear Modulus (GPa) = 19.17372 24.23702 21.70537
#
# Velocity S-wave (km/s) = 3.10876 3.49521 3.30763
# Velocity P-wave (km/s) = 4.64081 5.77529 5.23885
#
# Compressibility (1/GPa) = 0.05826218
#
# Stress axis : x y z
#
# Youngs Moduli (GPa) = 24.89026 54.06716 33.27927
#
# Poissons Ratio (x) = 0.94488 -0.47432
# Poissons Ratio (y) = 0.43498 0.39955
# Poissons Ratio (z) = -0.35475 0.64912
#
# Static dielectric constant tensor:
#      x y z
#    x 1.680610 0.000000 0.000000 
#    y 0.000000 1.748690 0.000000 
#    z 0.000000 0.000000 1.721090 
# 
# From -- ./inp_files/8596.got.cif
#   From: 2010.05.17/outbox.cif.g08.bks.cpg/sg62_5_cif.got.tgz:8596.got - 2010.06.03 15:25:27.
