data_PCOD9464389
_publ_section_title
;
Structure prediction by ZEFSAII (Michael W. Deem and Ramdas Pophale) SiO2 
 PCOD9464389
Probable space group: P N M A
;
_chemical_formula_sum "Si O2"
_cell_formula_units_Z 64
_cell_length_a 29.466626
_cell_length_b 12.691945
_cell_length_c 9.331811
_cell_angle_alpha 90.000000
_cell_angle_beta 90.000000
_cell_angle_gamma 90.000000
_cell_volume 3489.992765
_symmetry_space_group_name_H-M "P N M A"
_symmetry_group_IT_number 62
_symmetry_cell_setting 'orthorhombic'
loop_
_space_group_symop_operation_xyz
x,y,z
1/2-x,-y,1/2+z
1/2+x,1/2-y,1/2-z
-x,1/2+y,-z
-x,-y,-z
1/2+x,y,1/2-z
1/2-x,1/2+y,1/2+z
x,1/2-y,z
loop_
_atom_site_type_symbol
_atom_site_label
_atom_site_fract_x
_atom_site_fract_y
_atom_site_fract_z
Si Si1 0.063029 0.125059 0.368595
Si Si2 0.773137 0.875306 0.523243
Si Si3 0.024569 0.543081 0.141253
Si Si4 0.414090 0.130542 0.403904
Si Si5 0.676339 0.973986 0.519420
Si Si6 0.060103 0.438961 0.694074
Si Si7 0.339288 0.628751 0.731767
Si Si8 0.162061 0.129340 0.730118
O O1 0.049022 0.250000 0.368718
O O2 0.054031 0.070359 0.522618
O O3 0.116847 0.125567 0.334697
O O4 0.041256 0.052659 0.243374
O O5 0.767545 0.750000 0.512687
O O6 0.725439 0.927330 0.488521
O O7 0.793681 0.895531 0.680071
O O8 0.813004 0.906265 0.414133
O O9 0.985762 0.603558 0.231288
O O10 0.064153 0.607263 0.061364
O O11 0.000000 0.500000 0.000000
O O12 0.424256 0.250000 0.363240
O O13 0.360643 0.109832 0.426352
O O14 0.431517 0.050786 0.278086
O O15 0.655924 0.041661 0.389419
O O16 0.680973 0.057437 0.645912
O O17 0.107576 0.380191 0.723166
O O18 0.337053 0.750000 0.676747
O O19 0.173689 0.250000 0.755800
#
# Coordination Sequence:
#
# PCOD9464389 Si02
#       8
#     8   8   8   8   8   8   8   8
#     4  11  21  39  64  89 118 152 190 247 305 349
#     4  10  20  35  56  81 112 150 194 238 292 353
#     4  10  22  40  58  90 118 152 195 241 290 361
#     4  10  22  39  57  81 120 161 199 237 287 355
#     4  11  20  35  56  83 115 156 191 238 295 347
#     4  10  21  38  63  86 118 151 199 245 297 350
#     4  10  20  35  58  87 116 147 191 244 295 347
#     4  10  20  35  56  85 114 147 193 246 294 345
#
# _framework density 18.338145999999998
#
# number of rings (size 3 to 8) (size 9 to 14) (size 15 to 20)
#    0.000    1.750    2.500    2.250    0.000    3.000 
#    0.000    2.500    0.000    0.750    0.000    0.000 
#    0.000    0.000    0.000    0.000    0.000    0.000 
#
# Total GULP energy -356466.128687 kJ/mol
# GULP energy per Si atom -5569.783261 kJ/mol
# Density = 1.829641 g / cm^3
# Si number density = 18.338146 Si / 1000 Ang^3
#
#
#
# Elastic Constant Matrix: (Units=GPa)
#
#
# Indices 1 2 3 4 5 6 
#
# 1 70.3750 14.8128 9.2889 0.0000 0.0000 0.0000
# 2 14.8128 66.2089 42.7038 0.0000 0.0000 0.0000
# 3 9.2889 42.7038 98.7139 0.0000 0.0000 0.0000
# 4 0.0000 0.0000 0.0000 18.3175 0.0000 0.0000
# 5 0.0000 0.0000 0.0000 0.0000 25.0876 0.0000
# 6 0.0000 0.0000 0.0000 0.0000 0.0000 2.7712
#
#
#
# Elastic Compliance Matrix: (Units=1/GPa)
#
#
# Indices 1 2 3 4 5 6 
#
# 1 0.014912 -0.003372 0.000056 0.000000 0.000000 0.000000
# 2 -0.003372 0.021711 -0.009075 0.000000 0.000000 0.000000
# 3 0.000056 -0.009075 0.014051 0.000000 0.000000 0.000000
# 4 0.000000 0.000000 0.000000 0.054592 0.000000 0.000000
# 5 0.000000 0.000000 0.000000 0.000000 0.039860 0.000000
# 6 0.000000 0.000000 0.000000 0.000000 0.000000 0.360857
#
#
# Mechanical properties :
#
#
# Convention : Reuss Voigt Hill
#
# Bulk Modulus (GPa) = 38.62319 40.98989 39.80654
# Shear Modulus (GPa) = 9.26959 20.46807 14.86883
#
# Velocity S-wave (km/s) = 2.25073 3.34450 2.85057
# Velocity P-wave (km/s) = 5.27842 6.10860 5.70863
#
# Compressibility (1/GPa) = 0.02589118
#
# Stress axis : x y z
#
# Youngs Moduli (GPa) = 67.05992 46.05864 71.16943
#
# Poissons Ratio (x) = 0.15531 -0.00395
# Poissons Ratio (y) = 0.22613 0.64587
# Poissons Ratio (z) = -0.00373 0.41799
#
# Static dielectric constant tensor:
#      x y z
#    x 1.661050 0.000000 0.000000 
#    y 0.000000 1.616610 0.000000 
#    z 0.000000 0.000000 1.659510 
# 
# From -- ./inp_files/10503.got.cif
#   From: 2010.05.17/outbox.cif.g08.bks.cpg/sg62_6_cif.got.tgz:10503.got - 2010.06.03 15:25:27.
