data_PCOD9464243
_publ_section_title
;
Structure prediction by ZEFSAII (Michael W. Deem and Ramdas Pophale) SiO2 
 PCOD9464243
Probable space group: P N M A
;
_chemical_formula_sum "Si O2"
_cell_formula_units_Z 52
_cell_length_a 9.145928
_cell_length_b 17.071520
_cell_length_c 16.907027
_cell_angle_alpha 90.000000
_cell_angle_beta 90.000000
_cell_angle_gamma 90.000000
_cell_volume 2639.776848
_symmetry_space_group_name_H-M "P N M A"
_symmetry_group_IT_number 62
_symmetry_cell_setting 'orthorhombic'
loop_
_space_group_symop_operation_xyz
x,y,z
1/2-x,-y,1/2+z
1/2+x,1/2-y,1/2-z
-x,1/2+y,-z
-x,-y,-z
1/2+x,y,1/2-z
1/2-x,1/2+y,1/2+z
x,1/2-y,z
loop_
_atom_site_type_symbol
_atom_site_label
_atom_site_fract_x
_atom_site_fract_y
_atom_site_fract_z
Si Si1 0.295686 0.916509 0.306241
Si Si2 0.571613 0.466838 0.117051
Si Si3 0.171552 0.750000 0.285405
Si Si4 0.306103 0.250000 0.277058
Si Si5 0.619638 0.534675 0.346045
Si Si6 0.638420 0.250000 0.861546
Si Si7 0.557297 0.373706 0.276227
Si Si8 0.158725 0.410231 0.545166
O O1 0.240735 0.828697 0.321389
O O2 0.242189 0.937794 0.217581
O O3 0.467396 0.926557 0.319153
O O4 0.207245 0.978016 0.359373
O O5 0.520259 0.420722 0.194747
O O6 0.447071 0.523792 0.082980
O O7 0.623809 0.409499 0.047488
O O8 0.217479 0.750000 0.193205
O O9 0.999379 0.750000 0.301969
O O10 0.424135 0.319217 0.301364
O O11 0.191495 0.181879 0.246048
O O12 0.599165 0.441675 0.337758
O O13 0.678690 0.562745 0.430344
O O14 0.630894 0.173247 0.915120
#
# Coordination Sequence:
#
# PCOD9464243 Si02
#       8
#     8   8   4   4   8   4   8   8
#     4  11  21  36  61  88 123 158 203 257 306 368
#     4  10  22  41  60  84 121 168 203 248 304 375
#     4  12  22  36  60  92 124 153 199 262 308 362
#     4  10  20  34  58  84 109 141 198 246 306 338
#     4  11  21  37  60  89 118 156 204 253 310 370
#     4  12  24  38  60  96 123 158 201 266 312 366
#     4  10  20  36  59  87 113 150 196 259 299 357
#     4  11  23  39  60  88 123 164 209 246 310 374
#
# _framework density 19.698633999999998
#
# number of rings (size 3 to 8) (size 9 to 14) (size 15 to 20)
#    0.000    1.231    3.077    5.538    0.000    1.846 
#    0.000    0.000    0.000    2.769    0.000    0.000 
#    0.000    0.000    0.000    0.000    0.000    0.000 
#
# Total GULP energy -289483.258343 kJ/mol
# GULP energy per Si atom -5566.985737 kJ/mol
# Density = 1.965380 g / cm^3
# Si number density = 19.698634 Si / 1000 Ang^3
#
#
#
# Elastic Constant Matrix: (Units=GPa)
#
#
# Indices 1 2 3 4 5 6 
#
# 1 41.3130 -4.3363 -17.2957 0.0000 0.0000 0.0000
# 2 -4.3363 124.3388 5.8450 0.0000 0.0000 0.0000
# 3 -17.2957 5.8450 37.4889 0.0000 0.0000 0.0000
# 4 0.0000 0.0000 0.0000 25.6040 0.0000 0.0000
# 5 0.0000 0.0000 0.0000 0.0000 15.6850 0.0000
# 6 0.0000 0.0000 0.0000 0.0000 0.0000 28.8638
#
#
#
# Elastic Compliance Matrix: (Units=1/GPa)
#
#
# Indices 1 2 3 4 5 6 
#
# 1 0.030019 0.000399 0.013787 0.000000 0.000000 0.000000
# 2 0.000399 0.008107 -0.001080 0.000000 0.000000 0.000000
# 3 0.013787 -0.001080 0.033204 0.000000 0.000000 0.000000
# 4 0.000000 0.000000 0.000000 0.039056 0.000000 0.000000
# 5 0.000000 0.000000 0.000000 0.000000 0.063755 0.000000
# 6 0.000000 0.000000 0.000000 0.000000 0.000000 0.034646
#
#
# Mechanical properties :
#
#
# Convention : Reuss Voigt Hill
#
# Bulk Modulus (GPa) = 10.25189 19.06295 14.65742
# Shear Modulus (GPa) = 23.24614 28.62573 25.93594
#
# Velocity S-wave (km/s) = 3.43897 3.81620 3.63248
# Velocity P-wave (km/s) = 4.58087 5.39594 5.00502
#
# Compressibility (1/GPa) = 0.09754300
#
# Stress axis : x y z
#
# Youngs Moduli (GPa) = 33.31175 123.34686 30.11696
#
# Poissons Ratio (x) = -0.04919 -0.41524
# Poissons Ratio (y) = -0.01329 0.03253
# Poissons Ratio (z) = -0.45928 0.13322
#
# Static dielectric constant tensor:
#      x y z
#    x 1.703530 0.000000 0.000000 
#    y 0.000000 1.694120 0.000000 
#    z 0.000000 0.000000 1.710220 
# 
# From -- ./inp_files/22410.got.cif
#   From: 2010.05.17/outbox.cif.g08.bks.cpg/sg62_12_cif.got.tgz:22410.got - 2010.06.03 15:25:27.
