data_PCOD9464203
_publ_section_title
;
Structure prediction by ZEFSAII (Michael W. Deem and Ramdas Pophale) SiO2 
 PCOD9464203
Probable space group: P N M A
;
_chemical_formula_sum "Si O2"
_cell_formula_units_Z 48
_cell_length_a 31.681919
_cell_length_b 8.765760
_cell_length_c 9.440073
_cell_angle_alpha 90.000000
_cell_angle_beta 90.000000
_cell_angle_gamma 90.000000
_cell_volume 2621.660241
_symmetry_space_group_name_H-M "P N M A"
_symmetry_group_IT_number 62
_symmetry_cell_setting 'orthorhombic'
loop_
_space_group_symop_operation_xyz
x,y,z
1/2-x,-y,1/2+z
1/2+x,1/2-y,1/2-z
-x,1/2+y,-z
-x,-y,-z
1/2+x,y,1/2-z
1/2-x,1/2+y,1/2+z
x,1/2-y,z
loop_
_atom_site_type_symbol
_atom_site_label
_atom_site_fract_x
_atom_site_fract_y
_atom_site_fract_z
Si Si1 0.789163 0.566271 0.091945
Si Si2 0.120636 0.433025 0.587592
Si Si3 0.615497 0.066716 0.580087
Si Si4 0.461702 0.431982 0.591864
Si Si5 0.961767 0.933760 0.592342
Si Si6 0.710010 0.567585 0.904424
O O1 0.787843 0.750000 0.106651
O O2 0.836264 0.530016 0.036880
O O3 0.785115 0.493429 0.245788
O O4 0.750348 0.516699 0.995049
O O5 0.125463 0.250000 0.584740
O O6 0.111592 0.473428 0.752547
O O7 0.081841 0.475291 0.487255
O O8 0.164953 0.505991 0.542670
O O9 0.609226 0.250000 0.567449
O O10 0.581292 0.981607 0.486243
O O11 0.500000 0.500000 0.500000
O O12 0.465404 0.250000 0.598010
O O13 0.462907 0.499958 0.749785
O O14 0.964575 0.750000 0.597213
O O15 0.000000 0.000000 0.500000
O O16 0.709025 0.750000 0.904445
#
# Coordination Sequence:
#
# PCOD9464203 Si02
#       6
#     8   8   8   8   8   8
#     4   9  20  37  55  79 113 149 184 228 281 331
#     4   9  20  38  59  82 112 148 182 225 283 337
#     4   9  18  37  60  81 110 147 187 231 281 335
#     4  12  25  40  59  85 115 148 188 233 281 333
#     4  11  23  40  62  87 115 149 187 228 279 336
#     4  10  20  34  56  84 111 145 189 231 272 326
#
# _framework density 18.309009
#
# number of rings (size 3 to 8) (size 9 to 14) (size 15 to 20)
#    0.000    2.000    0.000    4.500    0.000    8.000 
#    0.000    5.000    0.000    0.000    0.000    0.000 
#    0.000    0.000    0.000    0.000    0.000    0.000 
#
# Total GULP energy -268090.926759 kJ/mol
# GULP energy per Si atom -5585.227641 kJ/mol
# Density = 1.826734 g / cm^3
# Si number density = 18.309009 Si / 1000 Ang^3
#
#
#
# Elastic Constant Matrix: (Units=GPa)
#
#
# Indices 1 2 3 4 5 6 
#
# 1 201.4038 71.9668 114.2046 0.0000 0.0000 0.0000
# 2 71.9668 59.3012 52.1314 0.0000 0.0000 0.0000
# 3 114.2046 52.1314 118.4227 0.0000 0.0000 0.0000
# 4 0.0000 0.0000 0.0000 30.5788 0.0000 0.0000
# 5 0.0000 0.0000 0.0000 0.0000 40.4330 0.0000
# 6 0.0000 0.0000 0.0000 0.0000 0.0000 31.6520
#
#
#
# Elastic Compliance Matrix: (Units=1/GPa)
#
#
# Indices 1 2 3 4 5 6 
#
# 1 0.012768 -0.007619 -0.008959 0.000000 0.000000 0.000000
# 2 -0.007619 0.032055 -0.006764 0.000000 0.000000 0.000000
# 3 -0.008959 -0.006764 0.020062 0.000000 0.000000 0.000000
# 4 0.000000 0.000000 0.000000 0.032702 0.000000 0.000000
# 5 0.000000 0.000000 0.000000 0.000000 0.024732 0.000000
# 6 0.000000 0.000000 0.000000 0.000000 0.000000 0.031594
#
#
# Mechanical properties :
#
#
# Convention : Reuss Voigt Hill
#
# Bulk Modulus (GPa) = 54.94067 95.08150 75.01109
# Shear Modulus (GPa) = 24.19401 29.92109 27.05755
#
# Velocity S-wave (km/s) = 3.63909 4.04694 3.84842
# Velocity P-wave (km/s) = 6.90868 8.59542 7.79779
#
# Compressibility (1/GPa) = 0.01820145
#
# Stress axis : x y z
#
# Youngs Moduli (GPa) = 78.32264 31.19638 49.84629
#
# Poissons Ratio (x) = 0.23768 0.44657
# Poissons Ratio (y) = 0.59673 0.33714
# Poissons Ratio (z) = 0.70169 0.21100
#
# Static dielectric constant tensor:
#      x y z
#    x 1.630950 0.000000 0.000000 
#    y 0.000000 1.615300 0.000000 
#    z 0.000000 0.000000 1.597020 
# 
# From -- ./inp_files/10160.got.cif
#   From: 2010.05.17/outbox.cif.g08.bks.cpg/sg62_6_cif.got.tgz:10160.got - 2010.06.03 15:25:27.
