data_PCOD9464406
_publ_section_title
;
Structure prediction by ZEFSAII (Michael W. Deem and Ramdas Pophale) SiO2 
 PCOD9464406
Probable space group: P N M A
;
_chemical_formula_sum "Si O2"
_cell_formula_units_Z 48
_cell_length_a 19.527175
_cell_length_b 8.466744
_cell_length_c 15.639478
_cell_angle_alpha 90.000000
_cell_angle_beta 90.000000
_cell_angle_gamma 90.000000
_cell_volume 2585.699792
_symmetry_space_group_name_H-M "P N M A"
_symmetry_group_IT_number 62
_symmetry_cell_setting 'orthorhombic'
loop_
_space_group_symop_operation_xyz
x,y,z
1/2-x,-y,1/2+z
1/2+x,1/2-y,1/2-z
-x,1/2+y,-z
-x,-y,-z
1/2+x,y,1/2-z
1/2-x,1/2+y,1/2+z
x,1/2-y,z
loop_
_atom_site_type_symbol
_atom_site_label
_atom_site_fract_x
_atom_site_fract_y
_atom_site_fract_z
Si Si1 0.673033 0.938965 0.498283
Si Si2 0.075815 0.941234 0.654613
Si Si3 0.923422 0.060514 0.655417
Si Si4 0.919103 0.560748 0.845740
Si Si5 0.827415 0.059189 0.499402
Si Si6 0.424478 0.057891 0.349399
O O1 0.673913 0.750000 0.501413
O O2 0.628524 0.998209 0.579399
O O3 0.634211 0.992204 0.412788
O O4 0.750211 0.999861 0.500801
O O5 0.072645 0.750000 0.653483
O O6 0.131301 0.993037 0.585181
O O7 0.092274 0.990502 0.752101
O O8 0.000164 0.003983 0.633512
O O9 0.923030 0.250000 0.659413
O O10 0.870317 0.008327 0.582719
O O11 0.905850 0.993029 0.748725
O O12 0.917017 0.750000 0.849110
O O13 0.997112 0.508804 0.867659
O O14 0.826508 0.250000 0.498728
O O15 0.423884 0.250000 0.350634
#
# Coordination Sequence:
#
# PCOD9464406 Si02
#       6
#     8   8   8   8   8   8
#     4  11  22  35  53  80 112 143 180 225 271 323
#     4   9  18  36  59  80 105 140 182 223 268 325
#     4  10  20  35  56  83 111 139 180 230 272 316
#     4  10  20  37  59  79 104 142 184 225 275 328
#     4  10  22  37  53  78 114 150 180 216 267 327
#     4   8  17  34  56  80 103 134 177 221 265 317
#
# _framework density 18.563639999999999
#
# number of rings (size 3 to 8) (size 9 to 14) (size 15 to 20)
#    0.000    2.333    0.000    3.500    0.000    3.333 
#    0.000    9.167    0.000    0.000    0.000    0.000 
#    0.000    0.000    0.000    0.000    0.000    0.000 
#
# Total GULP energy -267974.486918 kJ/mol
# GULP energy per Si atom -5582.801811 kJ/mol
# Density = 1.852139 g / cm^3
# Si number density = 18.563640 Si / 1000 Ang^3
#
#
#
# Elastic Constant Matrix: (Units=GPa)
#
#
# Indices 1 2 3 4 5 6 
#
# 1 159.4119 27.9872 124.1161 0.0000 0.0000 0.0000
# 2 27.9872 17.2257 23.8100 0.0000 0.0000 0.0000
# 3 124.1161 23.8100 134.4462 0.0000 0.0000 0.0000
# 4 0.0000 0.0000 0.0000 10.3892 0.0000 0.0000
# 5 0.0000 0.0000 0.0000 0.0000 -3.8683 0.0000
# 6 0.0000 0.0000 0.0000 0.0000 0.0000 31.2758
#
#
#
# Elastic Compliance Matrix: (Units=1/GPa)
#
#
# Indices 1 2 3 4 5 6 
#
# 1 0.023776 -0.010978 -0.020005 0.000000 0.000000 0.000000
# 2 -0.010978 0.081939 -0.004377 0.000000 0.000000 0.000000
# 3 -0.020005 -0.004377 0.026681 0.000000 0.000000 0.000000
# 4 0.000000 0.000000 0.000000 0.096254 0.000000 0.000000
# 5 0.000000 0.000000 0.000000 0.000000 -0.258514 0.000000
# 6 0.000000 0.000000 0.000000 0.000000 0.000000 0.031974
#
#
# Mechanical properties :
#
#
# Convention : Reuss Voigt Hill
#
# Bulk Modulus (GPa) = 16.21362 73.65673 44.93518
# Shear Modulus (GPa) = 53.53992 16.57071 35.05531
#
# Velocity S-wave (km/s) = 5.37623 2.99095 4.35027
# Velocity P-wave (km/s) = 6.87689 7.18970 7.03503
#
# Compressibility (1/GPa) = 0.06167656
#
# Stress axis : x y z
#
# Youngs Moduli (GPa) = 42.05877 12.20421 37.47968
#
# Poissons Ratio (x) = 0.13398 0.74979
# Poissons Ratio (y) = 0.46173 0.16403
# Poissons Ratio (z) = 0.84140 0.05341
#
# Static dielectric constant tensor:
#      x y z
#    x 1.606150 0.000000 0.000000 
#    y 0.000000 1.634600 0.000000 
#    z 0.000000 0.000000 1.638160 
# 
# From -- ./inp_files/19542.got.cif
#   From: 2010.05.17/outbox.cif.g08.bks.cpg/sg62_10_cif.got.tgz:19542.got - 2010.06.03 15:25:27.
