data_PCOD9464187
_publ_section_title
;
Structure prediction by ZEFSAII (Michael W. Deem and Ramdas Pophale) SiO2 
 PCOD9464187
Probable space group: P N M A
;
_chemical_formula_sum "Si O2"
_cell_formula_units_Z 56
_cell_length_a 15.528684
_cell_length_b 7.491923
_cell_length_c 20.879491
_cell_angle_alpha 90.000000
_cell_angle_beta 90.000000
_cell_angle_gamma 90.000000
_cell_volume 2429.113820
_symmetry_space_group_name_H-M "P N M A"
_symmetry_group_IT_number 62
_symmetry_cell_setting 'orthorhombic'
loop_
_space_group_symop_operation_xyz
x,y,z
1/2-x,-y,1/2+z
1/2+x,1/2-y,1/2-z
-x,1/2+y,-z
-x,-y,-z
1/2+x,y,1/2-z
1/2-x,1/2+y,1/2+z
x,1/2-y,z
loop_
_atom_site_type_symbol
_atom_site_label
_atom_site_fract_x
_atom_site_fract_y
_atom_site_fract_z
Si Si1 0.267524 0.530723 0.536518
Si Si2 0.303017 0.966277 0.818124
Si Si3 0.696103 0.452101 0.322211
Si Si4 0.499610 0.959734 0.318702
Si Si5 0.146811 0.460109 0.911972
Si Si6 0.501591 0.965612 0.823680
Si Si7 0.420493 0.037133 0.045754
O O1 0.273067 0.750000 0.536705
O O2 0.281275 0.468035 0.609148
O O3 0.334021 0.467204 0.482712
O O4 0.170634 0.474847 0.518596
O O5 0.303827 0.750000 0.816026
O O6 0.278326 0.031454 0.746481
O O7 0.401534 0.023816 0.831424
O O8 0.233898 0.022175 0.870427
O O9 0.731503 0.250000 0.323076
O O10 0.592209 0.447823 0.320297
O O11 0.514817 0.750000 0.330353
O O12 0.432093 0.032980 0.370210
O O13 0.465948 0.978719 0.246116
O O14 0.129202 0.250000 0.918953
O O15 0.501381 0.750000 0.824644
O O16 0.557617 0.031013 0.883224
O O17 0.412707 0.250000 0.051265
O O18 0.500000 0.000000 0.000000
#
# Coordination Sequence:
#
# PCOD9464187 Si02
#       7
#     8   8   8   8   8   8   8
#     4   9  19  36  56  78 106 144 182 218 267 325
#     4   9  18  32  53  79 105 134 173 222 267 310
#     4   9  19  37  58  79 103 138 184 227 268 319
#     4  10  21  35  52  78 108 139 177 223 274 320
#     4  10  21  35  52  77 109 143 178 215 267 330
#     4   9  19  35  55  79 105 138 182 223 262 320
#     4  10  20  34  56  82 110 144 180 220 270 324
#
# _framework density 23.053674000000001
#
# number of rings (size 3 to 8) (size 9 to 14) (size 15 to 20)
#    0.000    2.571    0.000    2.143    2.000    4.571 
#    0.000    1.429    0.000    0.000    0.000    0.000 
#    0.000    0.000    0.000    0.000    0.000    0.000 
#
# Total GULP energy -312766.944628 kJ/mol
# GULP energy per Si atom -5585.124011 kJ/mol
# Density = 2.300120 g / cm^3
# Si number density = 23.053674 Si / 1000 Ang^3
#
#
#
# Elastic Constant Matrix: (Units=GPa)
#
#
# Indices 1 2 3 4 5 6 
#
# 1 19.8765 -10.3297 -1.7670 0.0000 0.0000 0.0000
# 2 -10.3297 66.2355 -8.9505 0.0000 0.0000 0.0000
# 3 -1.7670 -8.9505 83.2840 0.0000 0.0000 0.0000
# 4 0.0000 0.0000 0.0000 6.8823 0.0000 0.0000
# 5 0.0000 0.0000 0.0000 0.0000 37.1915 0.0000
# 6 0.0000 0.0000 0.0000 0.0000 0.0000 7.9533
#
#
#
# Elastic Compliance Matrix: (Units=1/GPa)
#
#
# Indices 1 2 3 4 5 6 
#
# 1 0.055116 0.008883 0.002124 0.000000 0.000000 0.000000
# 2 0.008883 0.016752 0.001989 0.000000 0.000000 0.000000
# 3 0.002124 0.001989 0.012266 0.000000 0.000000 0.000000
# 4 0.000000 0.000000 0.000000 0.145301 0.000000 0.000000
# 5 0.000000 0.000000 0.000000 0.000000 0.026888 0.000000
# 6 0.000000 0.000000 0.000000 0.000000 0.000000 0.125734
#
#
# Mechanical properties :
#
#
# Convention : Reuss Voigt Hill
#
# Bulk Modulus (GPa) = 9.08070 14.14463 11.61266
# Shear Modulus (GPa) = 12.72998 23.10163 17.91581
#
# Velocity S-wave (km/s) = 2.35242 3.16900 2.79074
# Velocity P-wave (km/s) = 3.36541 4.42028 3.92842
#
# Compressibility (1/GPa) = 0.11012366
#
# Stress axis : x y z
#
# Youngs Moduli (GPa) = 18.14367 59.69557 81.52687
#
# Poissons Ratio (x) = -0.53025 -0.17316
# Poissons Ratio (y) = -0.16116 -0.16214
# Poissons Ratio (z) = -0.03854 -0.11872
#
# Static dielectric constant tensor:
#      x y z
#    x 1.848280 0.000000 0.000000 
#    y 0.000000 1.911160 0.000000 
#    z 0.000000 0.000000 1.869730 
# 
# From -- ./inp_files/27187.got.cif
#   From: 2010.05.17/outbox.cif.g08.bks.cpg/sg62_14_cif.got.tgz:27187.got - 2010.06.03 15:25:27.
