data_PCOD9464597
_publ_section_title
;
Structure prediction by ZEFSAII (Michael W. Deem and Ramdas Pophale) SiO2 
 PCOD9464597
Probable space group: P N M A
;
_chemical_formula_sum "Si O2"
_cell_formula_units_Z 56
_cell_length_a 8.153037
_cell_length_b 20.399162
_cell_length_c 13.579166
_cell_angle_alpha 90.000000
_cell_angle_beta 90.000000
_cell_angle_gamma 90.000000
_cell_volume 2258.420657
_symmetry_space_group_name_H-M "P N M A"
_symmetry_group_IT_number 62
_symmetry_cell_setting 'orthorhombic'
loop_
_space_group_symop_operation_xyz
x,y,z
1/2-x,-y,1/2+z
1/2+x,1/2-y,1/2-z
-x,1/2+y,-z
-x,-y,-z
1/2+x,y,1/2-z
1/2-x,1/2+y,1/2+z
x,1/2-y,z
loop_
_atom_site_type_symbol
_atom_site_label
_atom_site_fract_x
_atom_site_fract_y
_atom_site_fract_z
Si Si1 0.460889 0.377209 0.305265
Si Si2 0.904368 0.565930 0.971682
Si Si3 0.398959 0.613881 0.898113
Si Si4 0.831721 0.750000 0.807364
Si Si5 0.030581 0.250000 0.405386
Si Si6 0.370578 0.465004 0.892168
Si Si7 0.045275 0.671916 0.114864
Si Si8 0.664070 0.400056 0.774765
O O1 0.572309 0.432523 0.355264
O O2 0.279478 0.378907 0.346984
O O3 0.466924 0.383137 0.188880
O O4 0.560608 0.312388 0.333305
O O5 0.724068 0.568990 0.017215
O O6 0.996766 0.627975 0.020684
O O7 0.000000 0.500000 0.000000
O O8 0.434611 0.680685 0.958623
O O9 0.394202 0.538955 0.929830
O O10 0.841728 0.750000 0.687511
O O11 0.653329 0.750000 0.857794
O O12 0.532873 0.433235 0.847081
O O13 0.245072 0.454138 0.798997
O O14 0.053796 0.750000 0.097571
O O15 0.914440 0.652981 0.199990
O O16 0.207674 0.638784 0.158726
#
# Coordination Sequence:
#
# PCOD9464597 Si02
#       8
#     8   8   8   4   4   8   8   8
#     4  11  22  37  64  84 119 157 205 255 307 364
#     4  11  24  42  58  91 128 166 202 253 312 380
#     4  11  20  36  62  88 113 159 206 255 302 362
#     4  10  20  36  56  84 114 152 189 252 303 352
#     4  10  20  36  54  90 114 142 209 256 293 352
#     4  10  20  38  63  92 125 159 201 254 315 367
#     4  10  21  40  67  94 126 163 205 257 316 372
#     4   9  20  37  66  98 120 155 211 255 301 379
#
# _framework density 24.796088000000001
#
# number of rings (size 3 to 8) (size 9 to 14) (size 15 to 20)
#    0.000    1.714    1.429    5.143    5.000    0.000 
#    0.000    4.286    0.000    0.000    0.000    0.000 
#    0.000    0.000    0.000    0.000    0.000    0.000 
#
# Total GULP energy -313131.179330 kJ/mol
# GULP energy per Si atom -5591.628202 kJ/mol
# Density = 2.473965 g / cm^3
# Si number density = 24.796088 Si / 1000 Ang^3
#
#
#
# Elastic Constant Matrix: (Units=GPa)
#
#
# Indices 1 2 3 4 5 6 
#
# 1 108.7118 23.5436 14.6392 0.0000 0.0000 0.0000
# 2 23.5436 153.7020 34.3370 0.0000 0.0000 0.0000
# 3 14.6392 34.3370 62.5426 0.0000 0.0000 0.0000
# 4 0.0000 0.0000 0.0000 32.8668 0.0000 0.0000
# 5 0.0000 0.0000 0.0000 0.0000 32.0990 0.0000
# 6 0.0000 0.0000 0.0000 0.0000 0.0000 29.4474
#
#
#
# Elastic Compliance Matrix: (Units=1/GPa)
#
#
# Indices 1 2 3 4 5 6 
#
# 1 0.009662 -0.001111 -0.001652 0.000000 0.000000 0.000000
# 2 -0.001111 0.007543 -0.003881 0.000000 0.000000 0.000000
# 3 -0.001652 -0.003881 0.018507 0.000000 0.000000 0.000000
# 4 0.000000 0.000000 0.000000 0.030426 0.000000 0.000000
# 5 0.000000 0.000000 0.000000 0.000000 0.031154 0.000000
# 6 0.000000 0.000000 0.000000 0.000000 0.000000 0.033959
#
#
# Mechanical properties :
#
#
# Convention : Reuss Voigt Hill
#
# Bulk Modulus (GPa) = 44.59547 52.22178 48.40863
# Shear Modulus (GPa) = 32.89205 35.71173 34.30189
#
# Velocity S-wave (km/s) = 3.64607 3.79914 3.72339
# Velocity P-wave (km/s) = 5.97905 6.35223 6.16846
#
# Compressibility (1/GPa) = 0.02242380
#
# Stress axis : x y z
#
# Youngs Moduli (GPa) = 103.50218 132.56660 54.03475
#
# Poissons Ratio (x) = 0.14728 0.08924
# Poissons Ratio (y) = 0.11499 0.20973
# Poissons Ratio (z) = 0.17094 0.51454
#
# Static dielectric constant tensor:
#      x y z
#    x 2.010490 0.000000 0.000000 
#    y 0.000000 2.115260 0.000000 
#    z 0.000000 0.000000 2.026920 
# 
# From -- ./inp_files/17230.got.cif
#   From: 2010.05.17/outbox.cif.g08.bks.cpg/sg62_9_cif.got.tgz:17230.got - 2010.06.03 15:25:27.
