data_PCOD9464154
_publ_section_title
;
Structure prediction by ZEFSAII (Michael W. Deem and Ramdas Pophale) SiO2 
 PCOD9464154
Probable space group: P N M A
;
_chemical_formula_sum "Si O2"
_cell_formula_units_Z 40
_cell_length_a 4.957134
_cell_length_b 17.622528
_cell_length_c 26.783814
_cell_angle_alpha 90.000000
_cell_angle_beta 90.000000
_cell_angle_gamma 90.000000
_cell_volume 2339.759873
_symmetry_space_group_name_H-M "P N M A"
_symmetry_group_IT_number 62
_symmetry_cell_setting 'orthorhombic'
loop_
_space_group_symop_operation_xyz
x,y,z
1/2-x,-y,1/2+z
1/2+x,1/2-y,1/2-z
-x,1/2+y,-z
-x,-y,-z
1/2+x,y,1/2-z
1/2-x,1/2+y,1/2+z
x,1/2-y,z
loop_
_atom_site_type_symbol
_atom_site_label
_atom_site_fract_x
_atom_site_fract_y
_atom_site_fract_z
Si Si1 0.406975 0.488343 0.083117
Si Si2 0.810199 0.380237 0.972448
Si Si3 0.060384 0.071222 0.878765
Si Si4 0.253473 0.339045 0.782971
Si Si5 0.324525 0.164544 0.033710
O O1 0.278125 0.531719 0.034736
O O2 0.690959 0.527075 0.095461
O O3 0.189257 0.512405 0.125265
O O4 0.421541 0.399858 0.072085
O O5 0.539326 0.338236 0.988317
O O6 0.940185 0.366684 0.917914
O O7 0.035307 0.361251 0.012784
O O8 0.162829 0.109479 0.828760
O O9 0.555713 0.352600 0.764021
O O10 0.225943 0.250000 0.796377
O O11 0.311111 0.250000 0.053254
#
# Coordination Sequence:
#
# PCOD9464154 Si02
#       5
#     8   8   8   8   8
#     4  10  20  35  51  69  98 135 175 205 242 284
#     4  10  20  35  50  69  99 139 171 208 236 289
#     4  10  20  34  55  70  96 135 170 203 238 301
#     4  10  21  36  53  75 104 128 154 202 255 295
#     4  12  22  32  48  73 103 134 172 209 249 281
#
# _framework density 17.095770000000002
#
# number of rings (size 3 to 8) (size 9 to 14) (size 15 to 20)
#    1.200    0.400    2.000    4.200    0.000    1.600 
#    0.000    0.000    0.000    0.000    0.000    0.000 
#    0.000   16.000    0.000    0.000    0.000    0.000 
#
# Total GULP energy -222766.675955 kJ/mol
# GULP energy per Si atom -5569.166899 kJ/mol
# Density = 1.705686 g / cm^3
# Si number density = 17.095770 Si / 1000 Ang^3
#
#
#
# Elastic Constant Matrix: (Units=GPa)
#
#
# Indices 1 2 3 4 5 6 
#
# 1 88.3348 11.4791 -3.3237 0.0000 0.0000 0.0000
# 2 11.4791 93.7230 22.9223 0.0000 0.0000 0.0000
# 3 -3.3237 22.9223 32.3415 0.0000 0.0000 0.0000
# 4 0.0000 0.0000 0.0000 7.1400 0.0000 0.0000
# 5 0.0000 0.0000 0.0000 0.0000 15.7643 0.0000
# 6 0.0000 0.0000 0.0000 0.0000 0.0000 6.3181
#
#
#
# Elastic Compliance Matrix: (Units=1/GPa)
#
#
# Indices 1 2 3 4 5 6 
#
# 1 0.011693 -0.002088 0.002681 0.000000 0.000000 0.000000
# 2 -0.002088 0.013280 -0.009627 0.000000 0.000000 0.000000
# 3 0.002681 -0.009627 0.038019 0.000000 0.000000 0.000000
# 4 0.000000 0.000000 0.000000 0.140056 0.000000 0.000000
# 5 0.000000 0.000000 0.000000 0.000000 0.063435 0.000000
# 6 0.000000 0.000000 0.000000 0.000000 0.000000 0.158275
#
#
# Mechanical properties :
#
#
# Convention : Reuss Voigt Hill
#
# Bulk Modulus (GPa) = 22.25939 30.72829 26.49384
# Shear Modulus (GPa) = 10.92183 18.06591 14.49387
#
# Velocity S-wave (km/s) = 2.53031 3.25429 2.91487
# Velocity P-wave (km/s) = 4.64600 5.66867 5.18262
#
# Compressibility (1/GPa) = 0.04492487
#
# Stress axis : x y z
#
# Youngs Moduli (GPa) = 85.52280 75.30145 26.30283
#
# Poissons Ratio (x) = 0.15723 -0.07053
# Poissons Ratio (y) = 0.17857 0.25321
# Poissons Ratio (z) = -0.22933 0.72492
#
# Static dielectric constant tensor:
#      x y z
#    x 1.612100 0.000000 0.000000 
#    y 0.000000 1.589920 0.000000 
#    z 0.000000 0.000000 1.588270 
# 
# From -- ./inp_files/30327.got.cif
#   From: 2010.05.17/outbox.cif.g08.bks.cpg/sg62_16_cif.got.tgz:30327.got - 2010.06.03 15:25:27.
