data_PCOD9464004
_publ_section_title
;
Structure prediction by ZEFSAII (Michael W. Deem and Ramdas Pophale) SiO2 
 PCOD9464004
Probable space group: P N M A
;
_chemical_formula_sum "Si O2"
_cell_formula_units_Z 56
_cell_length_a 20.661204
_cell_length_b 8.300257
_cell_length_c 16.228957
_cell_angle_alpha 90.000000
_cell_angle_beta 90.000000
_cell_angle_gamma 90.000000
_cell_volume 2783.157442
_symmetry_space_group_name_H-M "P N M A"
_symmetry_group_IT_number 62
_symmetry_cell_setting 'orthorhombic'
loop_
_space_group_symop_operation_xyz
x,y,z
1/2-x,-y,1/2+z
1/2+x,1/2-y,1/2-z
-x,1/2+y,-z
-x,-y,-z
1/2+x,y,1/2-z
1/2-x,1/2+y,1/2+z
x,1/2-y,z
loop_
_atom_site_type_symbol
_atom_site_label
_atom_site_fract_x
_atom_site_fract_y
_atom_site_fract_z
Si Si1 0.821399 0.056425 0.006151
Si Si2 0.535474 0.441899 0.754833
Si Si3 0.186658 0.442345 0.180459
Si Si4 0.829569 0.554952 0.327874
Si Si5 0.906148 0.944491 0.671408
Si Si6 0.677230 0.053694 0.018318
Si Si7 0.544198 0.556988 0.574867
O O1 0.821031 0.250000 0.012219
O O2 0.828130 0.013744 0.909661
O O3 0.750904 0.998677 0.035484
O O4 0.882824 0.996274 0.057054
O O5 0.536742 0.250000 0.758965
O O6 0.607259 0.501161 0.778854
O O7 0.479500 0.502852 0.814994
O O8 0.519770 0.495480 0.662338
O O9 0.181260 0.250000 0.174486
O O10 0.260836 0.486792 0.201448
O O11 0.137575 0.499737 0.251034
O O12 0.825562 0.750000 0.324258
O O13 0.837771 0.508699 0.424160
O O14 0.904270 0.750000 0.671239
O O15 0.872959 0.002403 0.587018
O O16 0.677374 0.250000 0.020595
O O17 0.500000 0.500000 0.500000
O O18 0.544392 0.750000 0.576501
#
# Coordination Sequence:
#
# PCOD9464004 Si02
#       7
#     8   8   8   8   8   8   8
#     4   9  19  36  58  80 108 148 187 228 284 346
#     4  11  24  39  56  83 118 155 194 238 289 347
#     4  10  20  33  56  86 115 144 184 238 287 340
#     4   9  20  39  59  80 112 154 193 236 291 346
#     4  10  21  36  57  83 111 147 191 240 291 346
#     4   8  16  35  59  80 105 142 190 235 284 341
#     4  11  23  38  60  86 117 155 193 236 288 347
#
# _framework density 20.121033000000001
#
# number of rings (size 3 to 8) (size 9 to 14) (size 15 to 20)
#    0.000    2.286    0.000    3.000    2.000    6.286 
#    0.000    2.857    0.000    0.000    0.000    0.000 
#    0.000    0.000    0.000    0.000    0.000    0.000 
#
# Total GULP energy -312735.677107 kJ/mol
# GULP energy per Si atom -5584.565663 kJ/mol
# Density = 2.007524 g / cm^3
# Si number density = 20.121033 Si / 1000 Ang^3
#
#
#
# Elastic Constant Matrix: (Units=GPa)
#
#
# Indices 1 2 3 4 5 6 
#
# 1 62.2597 2.4179 7.4308 0.0000 0.0000 0.0000
# 2 2.4179 4.9619 -2.0907 0.0000 0.0000 0.0000
# 3 7.4308 -2.0907 24.4168 0.0000 0.0000 0.0000
# 4 0.0000 0.0000 0.0000 17.5173 0.0000 0.0000
# 5 0.0000 0.0000 0.0000 0.0000 36.4544 0.0000
# 6 0.0000 0.0000 0.0000 0.0000 0.0000 25.5239
#
#
#
# Elastic Compliance Matrix: (Units=1/GPa)
#
#
# Indices 1 2 3 4 5 6 
#
# 1 0.017227 -0.011000 -0.006185 0.000000 0.000000 0.000000
# 2 -0.011000 0.216101 0.021851 0.000000 0.000000 0.000000
# 3 -0.006185 0.021851 0.044709 0.000000 0.000000 0.000000
# 4 0.000000 0.000000 0.000000 0.057086 0.000000 0.000000
# 5 0.000000 0.000000 0.000000 0.000000 0.027432 0.000000
# 6 0.000000 0.000000 0.000000 0.000000 0.000000 0.039179
#
#
# Mechanical properties :
#
#
# Convention : Reuss Voigt Hill
#
# Bulk Modulus (GPa) = 3.47984 11.90605 7.69294
# Shear Modulus (GPa) = 10.24188 21.49115 15.86652
#
# Velocity S-wave (km/s) = 2.25858 3.27172 2.81117
# Velocity P-wave (km/s) = 2.92144 4.49469 3.79058
#
# Compressibility (1/GPa) = 0.28736986
#
# Stress axis : x y z
#
# Youngs Moduli (GPa) = 58.04800 4.62746 22.36701
#
# Poissons Ratio (x) = 0.05090 0.13833
# Poissons Ratio (y) = 0.63855 -0.48875
# Poissons Ratio (z) = 0.35901 -0.10112
#
# Static dielectric constant tensor:
#      x y z
#    x 1.718950 0.000000 0.000000 
#    y 0.000000 1.700050 0.000000 
#    z 0.000000 0.000000 1.689260 
# 
# From -- ./inp_files/20236.got.cif
#   From: 2010.05.17/outbox.cif.g08.bks.cpg/sg62_11_cif.got.tgz:20236.got - 2010.06.03 15:25:27.
