data_PCOD9464572
_publ_section_title
;
Structure prediction by ZEFSAII (Michael W. Deem and Ramdas Pophale) SiO2 
 PCOD9464572
Probable space group: P N M A
;
_chemical_formula_sum "Si O2"
_cell_formula_units_Z 48
_cell_length_a 15.511775
_cell_length_b 7.776522
_cell_length_c 19.260401
_cell_angle_alpha 90.000000
_cell_angle_beta 90.000000
_cell_angle_gamma 90.000000
_cell_volume 2323.337095
_symmetry_space_group_name_H-M "P N M A"
_symmetry_group_IT_number 62
_symmetry_cell_setting 'orthorhombic'
loop_
_space_group_symop_operation_xyz
x,y,z
1/2-x,-y,1/2+z
1/2+x,1/2-y,1/2-z
-x,1/2+y,-z
-x,-y,-z
1/2+x,y,1/2-z
1/2-x,1/2+y,1/2+z
x,1/2-y,z
loop_
_atom_site_type_symbol
_atom_site_label
_atom_site_fract_x
_atom_site_fract_y
_atom_site_fract_z
Si Si1 0.511780 0.043991 0.283488
Si Si2 0.365266 0.039156 0.177299
Si Si3 0.300636 0.542253 0.760068
Si Si4 0.902725 0.042847 0.478615
Si Si5 0.246535 0.543304 0.418206
Si Si6 0.941042 0.954499 0.065628
O O1 0.514419 0.250000 0.275354
O O2 0.439018 0.980012 0.230471
O O3 0.605662 0.976761 0.262353
O O4 0.485054 0.009352 0.362366
O O5 0.365874 0.250000 0.177130
O O6 0.273626 0.983260 0.207629
O O7 0.383317 0.981388 0.099276
O O8 0.302335 0.750000 0.756811
O O9 0.275469 0.495297 0.838391
O O10 0.896606 0.250000 0.477818
O O11 0.830273 0.977787 0.532340
O O12 0.000000 0.000000 0.500000
O O13 0.248475 0.750000 0.426013
O O14 0.342474 0.476836 0.436710
O O15 0.934279 0.750000 0.067279
O O16 0.000000 0.000000 0.000000
#
# Coordination Sequence:
#
# PCOD9464572 Si02
#       6
#     8   8   8   8   8   8
#     4  10  20  36  60  87 113 147 193 240 287 345
#     4   9  18  34  56  83 112 144 186 233 279 337
#     4  10  20  35  61  87 111 150 194 237 285 345
#     4  10  21  38  59  85 116 151 191 235 289 346
#     4  10  22  39  60  86 120 155 189 240 297 343
#     4  11  24  40  59  85 118 157 197 243 295 350
#
# _framework density 20.659938
#
# number of rings (size 3 to 8) (size 9 to 14) (size 15 to 20)
#    0.000    2.000    1.667    1.500    2.333    3.333 
#    0.000    1.667    0.000    0.000    0.000    0.000 
#    0.000    0.000    0.000    0.000    0.000    0.000 
#
# Total GULP energy -268179.148675 kJ/mol
# GULP energy per Si atom -5587.065597 kJ/mol
# Density = 2.061291 g / cm^3
# Si number density = 20.659938 Si / 1000 Ang^3
#
#
#
# Elastic Constant Matrix: (Units=GPa)
#
#
# Indices 1 2 3 4 5 6 
#
# 1 199.9873 8.0390 81.0907 0.0000 0.0000 0.0000
# 2 8.0390 24.9323 -6.7336 0.0000 0.0000 0.0000
# 3 81.0907 -6.7336 143.0604 0.0000 0.0000 0.0000
# 4 0.0000 0.0000 0.0000 26.4759 0.0000 0.0000
# 5 0.0000 0.0000 0.0000 0.0000 45.1078 0.0000
# 6 0.0000 0.0000 0.0000 0.0000 0.0000 13.1867
#
#
#
# Elastic Compliance Matrix: (Units=1/GPa)
#
#
# Indices 1 2 3 4 5 6 
#
# 1 0.006743 -0.003247 -0.003975 0.000000 0.000000 0.000000
# 2 -0.003247 0.042189 0.003827 0.000000 0.000000 0.000000
# 3 -0.003975 0.003827 0.009423 0.000000 0.000000 0.000000
# 4 0.000000 0.000000 0.000000 0.037770 0.000000 0.000000
# 5 0.000000 0.000000 0.000000 0.000000 0.022169 0.000000
# 6 0.000000 0.000000 0.000000 0.000000 0.000000 0.075834
#
#
# Mechanical properties :
#
#
# Convention : Reuss Voigt Hill
#
# Bulk Modulus (GPa) = 19.39354 59.19691 39.29522
# Shear Modulus (GPa) = 22.92448 35.99300 29.45874
#
# Velocity S-wave (km/s) = 3.33470 4.17845 3.78019
# Velocity P-wave (km/s) = 4.92284 7.21072 6.17369
#
# Compressibility (1/GPa) = 0.05156356
#
# Stress axis : x y z
#
# Youngs Moduli (GPa) = 148.31251 23.70276 106.12173
#
# Poissons Ratio (x) = 0.07697 0.42180
# Poissons Ratio (y) = 0.48164 -0.40608
# Poissons Ratio (z) = 0.58950 -0.09070
#
# Static dielectric constant tensor:
#      x y z
#    x 1.707350 0.000000 0.000000 
#    y 0.000000 1.760340 0.000000 
#    z 0.000000 0.000000 1.671050 
# 
# From -- ./inp_files/23660.got.cif
#   From: 2010.05.17/outbox.cif.g08.bks.cpg/sg62_12_cif.got.tgz:23660.got - 2010.06.03 15:25:27.
