data_PCOD9464467
_publ_section_title
;
Structure prediction by ZEFSAII (Michael W. Deem and Ramdas Pophale) SiO2 
 PCOD9464467
Probable space group: P N M A
;
_chemical_formula_sum "Si O2"
_cell_formula_units_Z 64
_cell_length_a 8.858581
_cell_length_b 14.600850
_cell_length_c 21.117193
_cell_angle_alpha 90.000000
_cell_angle_beta 90.000000
_cell_angle_gamma 90.000000
_cell_volume 2731.357132
_symmetry_space_group_name_H-M "P N M A"
_symmetry_group_IT_number 62
_symmetry_cell_setting 'orthorhombic'
loop_
_space_group_symop_operation_xyz
x,y,z
1/2-x,-y,1/2+z
1/2+x,1/2-y,1/2-z
-x,1/2+y,-z
-x,-y,-z
1/2+x,y,1/2-z
1/2-x,1/2+y,1/2+z
x,1/2-y,z
loop_
_atom_site_type_symbol
_atom_site_label
_atom_site_fract_x
_atom_site_fract_y
_atom_site_fract_z
Si Si1 0.660387 0.639423 0.045983
Si Si2 0.647421 0.862350 0.560862
Si Si3 0.586130 0.146163 0.699498
Si Si4 0.413798 0.415483 0.815359
Si Si5 0.881025 0.406508 0.298747
Si Si6 0.946349 0.857156 0.823463
Si Si7 0.979656 0.644999 0.573067
Si Si8 0.995548 0.360961 0.933391
O O1 0.667244 0.750000 0.042025
O O2 0.579574 0.614700 0.111649
O O3 0.834398 0.609539 0.049230
O O4 0.575756 0.603176 0.984002
O O5 0.642110 0.750000 0.564065
O O6 0.521049 0.891015 0.611365
O O7 0.812840 0.895881 0.581083
O O8 0.613423 0.892652 0.489231
O O9 0.641759 0.250000 0.685098
O O10 0.735106 0.083183 0.700822
O O11 0.492571 0.148592 0.763481
O O12 0.480083 0.116198 0.640719
O O13 0.514782 0.504711 0.806009
O O14 0.701169 0.413248 0.303240
O O15 0.930308 0.362455 0.232406
O O16 0.930689 0.353093 0.361822
O O17 0.901903 0.750000 0.830314
O O18 0.951428 0.750000 0.553597
O O19 0.986717 0.250000 0.936274
#
# Coordination Sequence:
#
# PCOD9464467 Si02
#       8
#     8   8   8   8   8   8   8   8
#     4   9  18  35  59  83 110 148 193 235 279 341
#     4   9  18  33  56  85 110 136 182 241 288 330
#     4  10  20  37  61  85 113 152 195 236 284 348
#     4  11  23  38  57  85 120 153 190 240 298 348
#     4  12  24  38  57  83 118 153 189 241 300 349
#     4  11  22  38  60  82 109 150 197 240 288 350
#     4  10  20  35  57  84 112 147 194 241 285 342
#     4   8  15  30  53  81 108 137 178 230 282 329
#
# _framework density 23.431574000000001
#
# number of rings (size 3 to 8) (size 9 to 14) (size 15 to 20)
#    0.000    2.000    0.000    5.250    0.000    4.500 
#    0.000    2.500    0.000    4.500    0.000    0.000 
#    0.000    0.000    0.000    0.000    0.000    0.000 
#
# Total GULP energy -357661.075788 kJ/mol
# GULP energy per Si atom -5588.454309 kJ/mol
# Density = 2.337824 g / cm^3
# Si number density = 23.431574 Si / 1000 Ang^3
#
#
#
# Elastic Constant Matrix: (Units=GPa)
#
#
# Indices 1 2 3 4 5 6 
#
# 1 66.5002 -9.5210 25.5441 0.0000 0.0000 0.0000
# 2 -9.5210 32.1469 6.6561 0.0000 0.0000 0.0000
# 3 25.5441 6.6561 80.7251 0.0000 0.0000 0.0000
# 4 0.0000 0.0000 0.0000 -11.8032 0.0000 0.0000
# 5 0.0000 0.0000 0.0000 0.0000 44.5659 0.0000
# 6 0.0000 0.0000 0.0000 0.0000 0.0000 17.2939
#
#
#
# Elastic Compliance Matrix: (Units=1/GPa)
#
#
# Indices 1 2 3 4 5 6 
#
# 1 0.018471 0.006797 -0.006405 0.000000 0.000000 0.000000
# 2 0.006797 0.034149 -0.004966 0.000000 0.000000 0.000000
# 3 -0.006405 -0.004966 0.014824 0.000000 0.000000 0.000000
# 4 0.000000 0.000000 0.000000 -0.084723 0.000000 0.000000
# 5 0.000000 0.000000 0.000000 0.000000 0.022439 0.000000
# 6 0.000000 0.000000 0.000000 0.000000 0.000000 0.057824
#
#
# Mechanical properties :
#
#
# Convention : Reuss Voigt Hill
#
# Bulk Modulus (GPa) = 17.15446 24.97008 21.06227
# Shear Modulus (GPa) = 54.60637 20.45753 37.53195
#
# Velocity S-wave (km/s) = 4.83272 2.95799 4.00655
# Velocity P-wave (km/s) = 6.20300 4.72716 5.51467
#
# Compressibility (1/GPa) = 0.05829388
#
# Stress axis : x y z
#
# Youngs Moduli (GPa) = 54.13878 29.28385 67.45790
#
# Poissons Ratio (x) = -0.19904 0.43209
# Poissons Ratio (y) = -0.36797 0.33503
# Poissons Ratio (z) = 0.34677 0.14544
#
# Static dielectric constant tensor:
#      x y z
#    x 1.830910 0.000000 0.000000 
#    y 0.000000 2.127950 0.000000 
#    z 0.000000 0.000000 1.866540 
# 
# From -- ./inp_files/26194.got.cif
#   From: 2010.05.17/outbox.cif.g08.bks.cpg/sg62_14_cif.got.tgz:26194.got - 2010.06.03 15:25:27.
