data_PCOD9464939
_publ_section_title
;
Structure prediction by ZEFSAII (Michael W. Deem and Ramdas Pophale) SiO2 
 PCOD9464939
Probable space group: P N M A
;
_chemical_formula_sum "Si O2"
_cell_formula_units_Z 56
_cell_length_a 15.263730
_cell_length_b 9.109927
_cell_length_c 21.501397
_cell_angle_alpha 90.000000
_cell_angle_beta 90.000000
_cell_angle_gamma 90.000000
_cell_volume 2989.800775
_symmetry_space_group_name_H-M "P N M A"
_symmetry_group_IT_number 62
_symmetry_cell_setting 'orthorhombic'
loop_
_space_group_symop_operation_xyz
x,y,z
1/2-x,-y,1/2+z
1/2+x,1/2-y,1/2-z
-x,1/2+y,-z
-x,-y,-z
1/2+x,y,1/2-z
1/2-x,1/2+y,1/2+z
x,1/2-y,z
loop_
_atom_site_type_symbol
_atom_site_label
_atom_site_fract_x
_atom_site_fract_y
_atom_site_fract_z
Si Si1 0.451507 0.426491 0.695768
Si Si2 0.869575 0.920871 0.529879
Si Si3 0.269118 0.425706 0.763865
Si Si4 0.517930 0.075030 0.565706
Si Si5 0.095396 0.924636 0.719582
Si Si6 0.219943 0.424714 0.905561
Si Si7 0.971341 0.920905 0.403099
O O1 0.465543 0.250000 0.699870
O O2 0.362760 0.460826 0.733279
O O3 0.453053 0.465517 0.622569
O O4 0.531937 0.507677 0.728243
O O5 0.875434 0.750000 0.547982
O O6 0.900503 0.931124 0.458572
O O7 0.774596 0.984854 0.544099
O O8 0.938499 0.016920 0.569124
O O9 0.255464 0.250000 0.757351
O O10 0.191999 0.511284 0.729647
O O11 0.258824 0.459785 0.837210
O O12 0.511728 0.250000 0.557090
O O13 0.616883 0.042768 0.589089
O O14 0.500000 0.000000 0.500000
O O15 0.095345 0.750000 0.722312
O O16 0.058336 0.983396 0.654599
O O17 0.231356 0.250000 0.915296
O O18 0.981666 0.750000 0.385300
#
# Coordination Sequence:
#
# PCOD9464939 Si02
#       7
#     8   8   8   8   8   8   8
#     4  10  21  41  66  89 118 160 209 255 304 371
#     4  10  21  36  58  88 118 151 199 250 295 353
#     4  10  21  39  64  88 116 157 203 248 303 369
#     4  10  22  40  61  87 119 158 206 251 302 366
#     4  12  24  37  59  90 123 154 193 253 306 355
#     4  10  20  37  60  86 119 161 202 243 303 376
#     4  10  21  38  58  82 119 162 198 240 300 363
#
# _framework density 18.730346000000001
#
# number of rings (size 3 to 8) (size 9 to 14) (size 15 to 20)
#    0.000    1.714    1.429    3.000    0.000    6.286 
#    0.000    4.286    0.000    0.000    0.000    0.000 
#    0.000    0.000    0.000    0.000    0.000    0.000 
#
# Total GULP energy -312832.774202 kJ/mol
# GULP energy per Si atom -5586.299539 kJ/mol
# Density = 1.868771 g / cm^3
# Si number density = 18.730346 Si / 1000 Ang^3
#
#
#
# Elastic Constant Matrix: (Units=GPa)
#
#
# Indices 1 2 3 4 5 6 
#
# 1 78.5448 42.9802 48.3830 0.0000 0.0000 0.0000
# 2 42.9802 37.6907 33.8871 0.0000 0.0000 0.0000
# 3 48.3830 33.8871 78.0827 0.0000 0.0000 0.0000
# 4 0.0000 0.0000 0.0000 31.2567 0.0000 0.0000
# 5 0.0000 0.0000 0.0000 0.0000 4.9262 0.0000
# 6 0.0000 0.0000 0.0000 0.0000 0.0000 7.6131
#
#
#
# Elastic Compliance Matrix: (Units=1/GPa)
#
#
# Indices 1 2 3 4 5 6 
#
# 1 0.036310 -0.034728 -0.007428 0.000000 0.000000 0.000000
# 2 -0.034728 0.076723 -0.011778 0.000000 0.000000 0.000000
# 3 -0.007428 -0.011778 0.022521 0.000000 0.000000 0.000000
# 4 0.000000 0.000000 0.000000 0.031993 0.000000 0.000000
# 5 0.000000 0.000000 0.000000 0.000000 0.202996 0.000000
# 6 0.000000 0.000000 0.000000 0.000000 0.000000 0.131353
#
#
# Mechanical properties :
#
#
# Convention : Reuss Voigt Hill
#
# Bulk Modulus (GPa) = 36.11852 49.42430 42.77141
# Shear Modulus (GPa) = 8.07763 13.36373 10.72068
#
# Velocity S-wave (km/s) = 2.07893 2.67400 2.39502
# Velocity P-wave (km/s) = 5.00878 5.99819 5.52568
#
# Compressibility (1/GPa) = 0.02768663
#
# Stress axis : x y z
#
# Youngs Moduli (GPa) = 27.54036 13.03388 44.40296
#
# Poissons Ratio (x) = 0.45264 0.32981
# Poissons Ratio (y) = 0.95642 0.52299
# Poissons Ratio (z) = 0.20456 0.15352
#
# Static dielectric constant tensor:
#      x y z
#    x 1.644350 0.000000 0.000000 
#    y 0.000000 1.617800 0.000000 
#    z 0.000000 0.000000 1.649710 
# 
# From -- ./inp_files/27160.got.cif
#   From: 2010.05.17/outbox.cif.g08.bks.cpg/sg62_14_cif.got.tgz:27160.got - 2010.06.03 15:25:27.
