data_PCOD9464063
_publ_section_title
;
Structure prediction by ZEFSAII (Michael W. Deem and Ramdas Pophale) SiO2 
 PCOD9464063
Probable space group: P N M A
;
_chemical_formula_sum "Si O2"
_cell_formula_units_Z 64
_cell_length_a 19.481546
_cell_length_b 8.745184
_cell_length_c 23.590428
_cell_angle_alpha 90.000000
_cell_angle_beta 90.000000
_cell_angle_gamma 90.000000
_cell_volume 4019.094244
_symmetry_space_group_name_H-M "P N M A"
_symmetry_group_IT_number 62
_symmetry_cell_setting 'orthorhombic'
loop_
_space_group_symop_operation_xyz
x,y,z
1/2-x,-y,1/2+z
1/2+x,1/2-y,1/2-z
-x,1/2+y,-z
-x,-y,-z
1/2+x,y,1/2-z
1/2-x,1/2+y,1/2+z
x,1/2-y,z
loop_
_atom_site_type_symbol
_atom_site_label
_atom_site_fract_x
_atom_site_fract_y
_atom_site_fract_z
Si Si1 0.501153 0.433178 0.120102
Si Si2 0.271691 0.932121 0.842262
Si Si3 0.865934 0.566972 0.439286
Si Si4 0.139403 0.933182 0.772634
Si Si5 0.775358 0.932608 0.331873
Si Si6 0.146361 0.067453 0.225656
Si Si7 0.502528 0.567734 0.247283
Si Si8 0.637774 0.931438 0.063163
O O1 0.499450 0.250000 0.121635
O O2 0.435761 0.497548 0.086435
O O3 0.500291 0.497100 0.184005
O O4 0.570119 0.489722 0.089482
O O5 0.276070 0.750000 0.853364
O O6 0.194753 0.968599 0.821619
O O7 0.320276 0.963916 0.787747
O O8 0.299877 0.023283 0.895538
O O9 0.873735 0.750000 0.444399
O O10 0.806023 0.535649 0.393717
O O11 0.851800 0.494518 0.500141
O O12 0.133094 0.750000 0.768763
O O13 0.173462 0.994391 0.714537
O O14 0.065494 0.008928 0.778771
O O15 0.774103 0.750000 0.323389
O O16 0.700800 0.001623 0.319059
O O17 0.140945 0.250000 0.219991
O O18 0.072263 0.990668 0.223986
O O19 0.502186 0.750000 0.243052
O O20 0.627878 0.750000 0.062334
#
# Coordination Sequence:
#
# PCOD9464063 Si02
#       8
#     8   8   8   8   8   8   8   8
#     4  12  23  36  52  72 105 141 180 219 257 306
#     4   9  19  35  53  74 101 136 174 214 259 307
#     4  11  23  38  54  74 104 140 180 218 259 307
#     4  10  20  34  54  76 104 137 172 213 264 315
#     4  10  20  34  53  76 103 135 174 219 261 304
#     4  10  20  34  54  76 104 138 172 212 263 314
#     4  12  22  33  52  79 108 139 176 214 260 313
#     4  12  24  36  53  75 103 140 181 220 260 303
#
# _framework density 15.923985999999999
#
# number of rings (size 3 to 8) (size 9 to 14) (size 15 to 20)
#    0.000    1.250    2.500    6.000    0.000    4.000 
#    0.000    0.000    0.000    0.000    0.000    0.875 
#    0.000    0.000    0.000    0.000    0.000    0.000 
#
# Total GULP energy -357656.197146 kJ/mol
# GULP energy per Si atom -5588.378080 kJ/mol
# Density = 1.588774 g / cm^3
# Si number density = 15.923986 Si / 1000 Ang^3
#
#
#
# Elastic Constant Matrix: (Units=GPa)
#
#
# Indices 1 2 3 4 5 6 
#
# 1 136.3943 62.9571 53.3178 0.0000 0.0000 0.0000
# 2 62.9571 102.2494 47.5230 0.0000 0.0000 0.0000
# 3 53.3178 47.5230 74.4944 0.0000 0.0000 0.0000
# 4 0.0000 0.0000 0.0000 23.9325 0.0000 0.0000
# 5 0.0000 0.0000 0.0000 0.0000 14.6592 0.0000
# 6 0.0000 0.0000 0.0000 0.0000 0.0000 29.0942
#
#
#
# Elastic Compliance Matrix: (Units=1/GPa)
#
#
# Indices 1 2 3 4 5 6 
#
# 1 0.011549 -0.004647 -0.005301 0.000000 0.000000 0.000000
# 2 -0.004647 0.015772 -0.006735 0.000000 0.000000 0.000000
# 3 -0.005301 -0.006735 0.021515 0.000000 0.000000 0.000000
# 4 0.000000 0.000000 0.000000 0.041784 0.000000 0.000000
# 5 0.000000 0.000000 0.000000 0.000000 0.068217 0.000000
# 6 0.000000 0.000000 0.000000 0.000000 0.000000 0.034371
#
#
# Mechanical properties :
#
#
# Convention : Reuss Voigt Hill
#
# Bulk Modulus (GPa) = 64.64955 71.19267 67.92111
# Shear Modulus (GPa) = 21.57667 23.49318 22.53493
#
# Velocity S-wave (km/s) = 3.68500 3.84517 3.76594
# Velocity P-wave (km/s) = 7.66763 8.03235 7.85211
#
# Compressibility (1/GPa) = 0.01546801
#
# Stress axis : x y z
#
# Youngs Moduli (GPa) = 86.58714 63.40454 46.47900
#
# Poissons Ratio (x) = 0.29464 0.24641
# Poissons Ratio (y) = 0.40237 0.31306
# Poissons Ratio (z) = 0.45904 0.42706
#
# Static dielectric constant tensor:
#      x y z
#    x 1.532650 0.000000 0.000000 
#    y 0.000000 1.528910 0.000000 
#    z 0.000000 0.000000 1.507100 
# 
# From -- ./inp_files/27775.got.cif
#   From: 2010.05.17/outbox.cif.g08.bks.cpg/sg62_14_cif.got.tgz:27775.got - 2010.06.03 15:25:27.
