data_PCOD9464679
_publ_section_title
;
Structure prediction by ZEFSAII (Michael W. Deem and Ramdas Pophale) SiO2 
 PCOD9464679
Probable space group: P N M A
;
_chemical_formula_sum "Si O2"
_cell_formula_units_Z 64
_cell_length_a 12.207453
_cell_length_b 7.999899
_cell_length_c 31.755983
_cell_angle_alpha 90.000000
_cell_angle_beta 90.000000
_cell_angle_gamma 90.000000
_cell_volume 3101.238206
_symmetry_space_group_name_H-M "P N M A"
_symmetry_group_IT_number 62
_symmetry_cell_setting 'orthorhombic'
loop_
_space_group_symop_operation_xyz
x,y,z
1/2-x,-y,1/2+z
1/2+x,1/2-y,1/2-z
-x,1/2+y,-z
-x,-y,-z
1/2+x,y,1/2-z
1/2-x,1/2+y,1/2+z
x,1/2-y,z
loop_
_atom_site_type_symbol
_atom_site_label
_atom_site_fract_x
_atom_site_fract_y
_atom_site_fract_z
Si Si1 0.238140 0.451674 0.459403
Si Si2 0.513463 0.446753 0.167440
Si Si3 0.004668 0.453940 0.429893
Si Si4 0.235087 0.555487 0.297396
Si Si5 0.118582 0.047198 0.130924
Si Si6 0.781299 0.950101 0.296338
Si Si7 0.370630 0.051294 0.378118
Si Si8 0.760823 0.048845 0.449164
O O1 0.235391 0.250000 0.457112
O O2 0.112154 0.512064 0.454675
O O3 0.308256 0.514611 0.419599
O O4 0.282603 0.501063 0.504953
O O5 0.538731 0.250000 0.168375
O O6 0.519251 0.501827 0.118893
O O7 0.605932 0.536503 0.194485
O O8 0.391905 0.475907 0.184214
O O9 0.002681 0.250000 0.431491
O O10 0.886094 0.514274 0.444981
O O11 0.264642 0.750000 0.297967
O O12 0.264141 0.487249 0.251296
O O13 0.298606 0.474906 0.336459
O O14 0.118189 0.250000 0.130657
O O15 0.188233 0.990214 0.090179
O O16 0.993719 0.985804 0.128027
O O17 0.180654 0.993270 0.173129
O O18 0.792136 0.750000 0.295256
O O19 0.380864 0.250000 0.384561
O O20 0.764147 0.250000 0.446550
#
# Coordination Sequence:
#
# PCOD9464679 Si02
#       8
#     8   8   8   8   8   8   8   8
#     4  10  20  36  57  85 119 154 196 248 303 356
#     4  11  21  40  68  92 119 158 205 251 293 352
#     4   9  17  34  58  84 117 151 189 246 300 342
#     4  11  25  42  61  90 128 161 194 247 310 362
#     4  10  22  41  63  87 117 158 209 256 295 352
#     4  11  25  42  61  90 128 161 194 247 310 362
#     4  10  22  41  63  87 117 158 209 256 295 352
#     4  10  20  36  57  85 119 154 196 248 303 356
#
# _framework density 20.636918000000001
#
# number of rings (size 3 to 8) (size 9 to 14) (size 15 to 20)
#    0.000    1.750    2.500    1.500    1.750    4.000 
#    0.000    0.000    0.000    0.000    0.000    0.000 
#    0.000    0.000    0.000    0.000    0.000    0.000 
#
# Total GULP energy -357587.915535 kJ/mol
# GULP energy per Si atom -5587.311180 kJ/mol
# Density = 2.058995 g / cm^3
# Si number density = 20.636918 Si / 1000 Ang^3
#
#
#
# Elastic Constant Matrix: (Units=GPa)
#
#
# Indices 1 2 3 4 5 6 
#
# 1 81.5395 -3.8022 14.0988 0.0000 0.0000 0.0000
# 2 -3.8022 14.3893 -1.2582 0.0000 0.0000 0.0000
# 3 14.0988 -1.2582 115.8089 0.0000 0.0000 0.0000
# 4 0.0000 0.0000 0.0000 20.9860 0.0000 0.0000
# 5 0.0000 0.0000 0.0000 0.0000 6.5305 0.0000
# 6 0.0000 0.0000 0.0000 0.0000 0.0000 -4.6922
#
#
#
# Elastic Compliance Matrix: (Units=1/GPa)
#
#
# Indices 1 2 3 4 5 6 
#
# 1 0.012675 0.003217 -0.001508 0.000000 0.000000 0.000000
# 2 0.003217 0.070379 0.000373 0.000000 0.000000 0.000000
# 3 -0.001508 0.000373 0.008823 0.000000 0.000000 0.000000
# 4 0.000000 0.000000 0.000000 0.047651 0.000000 0.000000
# 5 0.000000 0.000000 0.000000 0.000000 0.153128 0.000000
# 6 0.000000 0.000000 0.000000 0.000000 0.000000 -0.213121
#
#
# Mechanical properties :
#
#
# Convention : Reuss Voigt Hill
#
# Bulk Modulus (GPa) = 10.41226 25.53494 17.97360
# Shear Modulus (GPa) = 46.56212 18.07814 32.32013
#
# Velocity S-wave (km/s) = 4.75516 2.96296 3.96173
# Velocity P-wave (km/s) = 5.93339 4.90976 5.44568
#
# Compressibility (1/GPa) = 0.09604062
#
# Stress axis : x y z
#
# Youngs Moduli (GPa) = 78.89682 14.20879 113.34573
#
# Poissons Ratio (x) = -0.04571 0.17094
# Poissons Ratio (y) = -0.25383 -0.04227
# Poissons Ratio (z) = 0.11898 -0.00530
#
# Static dielectric constant tensor:
#      x y z
#    x 1.719220 0.000000 0.000000 
#    y 0.000000 1.737690 0.000000 
#    z 0.000000 0.000000 1.719820 
# 
# From -- ./inp_files/32464.got.cif
#   From: 2010.05.17/outbox.cif.g08.bks.cpg/sg62_17_cif.got.tgz:32464.got - 2010.06.03 15:25:27.
