data_PCOD9464756
_publ_section_title
;
Structure prediction by ZEFSAII (Michael W. Deem and Ramdas Pophale) SiO2 
 PCOD9464756
Probable space group: P N M A
;
_chemical_formula_sum "Si O2"
_cell_formula_units_Z 64
_cell_length_a 24.737969
_cell_length_b 8.913594
_cell_length_c 14.332031
_cell_angle_alpha 90.000000
_cell_angle_beta 90.000000
_cell_angle_gamma 90.000000
_cell_volume 3160.273203
_symmetry_space_group_name_H-M "P N M A"
_symmetry_group_IT_number 62
_symmetry_cell_setting 'orthorhombic'
loop_
_space_group_symop_operation_xyz
x,y,z
1/2-x,-y,1/2+z
1/2+x,1/2-y,1/2-z
-x,1/2+y,-z
-x,-y,-z
1/2+x,y,1/2-z
1/2-x,1/2+y,1/2+z
x,1/2-y,z
loop_
_atom_site_type_symbol
_atom_site_label
_atom_site_fract_x
_atom_site_fract_y
_atom_site_fract_z
Si Si1 0.441154 0.069253 0.276624
Si Si2 0.390996 0.431315 0.900918
Si Si3 0.112773 0.071239 0.604648
Si Si4 0.161961 0.928936 0.118180
Si Si5 0.839273 0.428194 0.102814
Si Si6 0.770585 0.078853 0.610312
Si Si7 0.726098 0.577179 0.882576
Si Si8 0.061814 0.429091 0.225842
O O1 0.437056 0.250000 0.263760
O O2 0.393197 0.019011 0.345397
O O3 0.501661 0.037762 0.311348
O O4 0.430003 0.988160 0.179169
O O5 0.392801 0.250000 0.902564
O O6 0.330541 0.477094 0.865683
O O7 0.432733 0.501647 0.829039
O O8 0.397464 0.495703 0.004369
O O9 0.112683 0.250000 0.596505
O O10 0.171750 0.013600 0.638807
O O11 0.163909 0.750000 0.132259
O O12 0.218489 0.001735 0.150937
O O13 0.109623 0.997227 0.166809
O O14 0.157497 0.960813 0.007402
O O15 0.836885 0.250000 0.112728
O O16 0.782757 0.492183 0.140463
O O17 0.766039 0.250000 0.641961
O O18 0.770883 0.077885 0.496438
O O19 0.721343 0.750000 0.851990
O O20 0.068873 0.250000 0.229151
#
# Coordination Sequence:
#
# PCOD9464756 Si02
#       8
#     8   8   8   8   8   8   8   8
#     4  10  23  42  58  78 112 153 198 240 282 339
#     4  10  21  39  61  84 115 151 186 232 288 343
#     4  11  22  37  60  89 117 147 187 234 288 346
#     4  10  20  36  59  87 117 148 187 237 290 342
#     4   9  19  36  59  84 112 148 186 229 279 333
#     4   8  16  31  54  84 113 141 176 222 277 337
#     4   9  17  33  57  85 117 151 186 226 280 343
#     4  11  24  40  58  81 111 151 198 242 284 339
#
# _framework density 20.251412999999999
#
# number of rings (size 3 to 8) (size 9 to 14) (size 15 to 20)
#    0.000    2.250    0.000    3.375    0.000    7.500 
#    0.000    2.500    0.000    0.000    0.000    0.000 
#    0.000    0.000    0.000    0.000    0.000    0.000 
#
# Total GULP energy -357587.449326 kJ/mol
# GULP energy per Si atom -5587.303896 kJ/mol
# Density = 2.020532 g / cm^3
# Si number density = 20.251413 Si / 1000 Ang^3
#
#
#
# Elastic Constant Matrix: (Units=GPa)
#
#
# Indices 1 2 3 4 5 6 
#
# 1 92.1376 25.2193 18.8202 0.0000 0.0000 0.0000
# 2 25.2193 52.9604 19.8174 0.0000 0.0000 0.0000
# 3 18.8202 19.8174 38.8345 0.0000 0.0000 0.0000
# 4 0.0000 0.0000 0.0000 21.5236 0.0000 0.0000
# 5 0.0000 0.0000 0.0000 0.0000 30.8149 0.0000
# 6 0.0000 0.0000 0.0000 0.0000 0.0000 27.6775
#
#
#
# Elastic Compliance Matrix: (Units=1/GPa)
#
#
# Indices 1 2 3 4 5 6 
#
# 1 0.012932 -0.004713 -0.003862 0.000000 0.000000 0.000000
# 2 -0.004713 0.025056 -0.010502 0.000000 0.000000 0.000000
# 3 -0.003862 -0.010502 0.032981 0.000000 0.000000 0.000000
# 4 0.000000 0.000000 0.000000 0.046461 0.000000 0.000000
# 5 0.000000 0.000000 0.000000 0.000000 0.032452 0.000000
# 6 0.000000 0.000000 0.000000 0.000000 0.000000 0.036130
#
#
# Mechanical properties :
#
#
# Convention : Reuss Voigt Hill
#
# Bulk Modulus (GPa) = 30.47400 34.62737 32.55068
# Shear Modulus (GPa) = 21.26702 24.00826 22.63764
#
# Velocity S-wave (km/s) = 3.24412 3.44686 3.34702
# Velocity P-wave (km/s) = 5.39564 5.74256 5.57180
#
# Compressibility (1/GPa) = 0.03281486
#
# Stress axis : x y z
#
# Youngs Moduli (GPa) = 77.32610 39.91032 30.32015
#
# Poissons Ratio (x) = 0.18810 0.11710
# Poissons Ratio (y) = 0.36444 0.31843
# Poissons Ratio (z) = 0.29865 0.41915
#
# Static dielectric constant tensor:
#      x y z
#    x 1.713040 0.000000 0.000000 
#    y 0.000000 1.676750 0.000000 
#    z 0.000000 0.000000 1.762080 
# 
# From -- ./inp_files/21006.got.cif
#   From: 2010.05.17/outbox.cif.g08.bks.cpg/sg62_11_cif.got.tgz:21006.got - 2010.06.03 15:25:27.
