data_PCOD9464438
_publ_section_title
;
Structure prediction by ZEFSAII (Michael W. Deem and Ramdas Pophale) SiO2 
 PCOD9464438
Probable space group: P N M A
;
_chemical_formula_sum "Si O2"
_cell_formula_units_Z 56
_cell_length_a 8.605163
_cell_length_b 16.645584
_cell_length_c 19.454805
_cell_angle_alpha 90.000000
_cell_angle_beta 90.000000
_cell_angle_gamma 90.000000
_cell_volume 2786.666649
_symmetry_space_group_name_H-M "P N M A"
_symmetry_group_IT_number 62
_symmetry_cell_setting 'orthorhombic'
loop_
_space_group_symop_operation_xyz
x,y,z
1/2-x,-y,1/2+z
1/2+x,1/2-y,1/2-z
-x,1/2+y,-z
-x,-y,-z
1/2+x,y,1/2-z
1/2-x,1/2+y,1/2+z
x,1/2-y,z
loop_
_atom_site_type_symbol
_atom_site_label
_atom_site_fract_x
_atom_site_fract_y
_atom_site_fract_z
Si Si1 0.872754 0.657433 0.217678
Si Si2 0.676119 0.005695 0.903898
Si Si3 0.931373 0.437224 0.678625
Si Si4 0.790341 0.921759 0.763324
Si Si5 0.397782 0.340494 0.593205
Si Si6 0.079880 0.416953 0.021946
Si Si7 0.047530 0.841971 0.837978
O O1 0.830122 0.750000 0.228795
O O2 0.729115 0.611675 0.182386
O O3 0.932434 0.616669 0.287481
O O4 0.021085 0.653141 0.167323
O O5 0.496648 0.030247 0.893849
O O6 0.774163 0.087847 0.914348
O O7 0.717625 0.964654 0.830226
O O8 0.743697 0.941542 0.958536
O O9 0.899993 0.512194 0.728433
O O10 0.674687 0.890782 0.705072
O O11 0.892573 0.848855 0.791934
O O12 0.335515 0.250000 0.584445
O O13 0.536812 0.355773 0.538425
O O14 0.995966 0.384620 0.090627
O O15 0.000000 0.500000 0.000000
O O16 0.093020 0.750000 0.849071
#
# Coordination Sequence:
#
# PCOD9464438 Si02
#       7
#     8   8   8   8   8   8   8
#     4  11  22  33  54  86 118 153 193 238 293 346
#     4  10  20  35  56  86 109 151 191 238 283 354
#     4  12  20  35  56  82 123 152 189 238 293 353
#     4  11  20  35  57  84 116 149 185 232 296 356
#     4  10  20  38  60  82 113 152 197 244 287 339
#     4   9  21  37  61  83 107 149 201 236 282 348
#     4  11  22  37  59  87 116 147 190 244 296 345
#
# _framework density 20.095694999999999
#
# number of rings (size 3 to 8) (size 9 to 14) (size 15 to 20)
#    0.000    1.429    4.286    1.286    4.000    2.286 
#    0.000    0.714    0.000    0.000    0.000    0.000 
#    0.000    0.000    0.000    0.000    0.000    0.000 
#
# Total GULP energy -312370.772492 kJ/mol
# GULP energy per Si atom -5578.049509 kJ/mol
# Density = 2.004996 g / cm^3
# Si number density = 20.095695 Si / 1000 Ang^3
#
#
#
# Elastic Constant Matrix: (Units=GPa)
#
#
# Indices 1 2 3 4 5 6 
#
# 1 33.2097 4.5713 -10.1304 0.0000 0.0000 0.0000
# 2 4.5713 97.6848 10.0289 0.0000 0.0000 0.0000
# 3 -10.1304 10.0289 53.0946 0.0000 0.0000 0.0000
# 4 0.0000 0.0000 0.0000 23.3529 0.0000 0.0000
# 5 0.0000 0.0000 0.0000 0.0000 29.9603 0.0000
# 6 0.0000 0.0000 0.0000 0.0000 0.0000 26.3440
#
#
#
# Elastic Compliance Matrix: (Units=1/GPa)
#
#
# Indices 1 2 3 4 5 6 
#
# 1 0.032428 -0.002195 0.006602 0.000000 0.000000 0.000000
# 2 -0.002195 0.010588 -0.002419 0.000000 0.000000 0.000000
# 3 0.006602 -0.002419 0.020551 0.000000 0.000000 0.000000
# 4 0.000000 0.000000 0.000000 0.042821 0.000000 0.000000
# 5 0.000000 0.000000 0.000000 0.000000 0.033378 0.000000
# 6 0.000000 0.000000 0.000000 0.000000 0.000000 0.037959
#
#
# Mechanical properties :
#
#
# Convention : Reuss Voigt Hill
#
# Bulk Modulus (GPa) = 14.80559 21.43654 18.12106
# Shear Modulus (GPa) = 25.47599 27.89939 26.68769
#
# Velocity S-wave (km/s) = 3.56439 3.73007 3.64817
# Velocity P-wave (km/s) = 4.93187 5.40755 5.17518
#
# Compressibility (1/GPa) = 0.06754205
#
# Stress axis : x y z
#
# Youngs Moduli (GPa) = 30.83780 94.44594 48.65986
#
# Poissons Ratio (x) = 0.20734 -0.32124
# Poissons Ratio (y) = 0.06770 0.11770
# Poissons Ratio (z) = -0.20359 0.22845
#
# Static dielectric constant tensor:
#      x y z
#    x 1.759000 0.000000 0.000000 
#    y 0.000000 1.705240 0.000000 
#    z 0.000000 0.000000 1.711060 
# 
# From -- ./inp_files/26090.got.cif
#   From: 2010.05.17/outbox.cif.g08.bks.cpg/sg62_14_cif.got.tgz:26090.got - 2010.06.03 15:25:27.
