data_PCOD9464768
_publ_section_title
;
Structure prediction by ZEFSAII (Michael W. Deem and Ramdas Pophale) SiO2 
 PCOD9464768
Probable space group: P N M A
;
_chemical_formula_sum "Si O2"
_cell_formula_units_Z 64
_cell_length_a 14.619139
_cell_length_b 18.993043
_cell_length_c 11.380953
_cell_angle_alpha 90.000000
_cell_angle_beta 90.000000
_cell_angle_gamma 90.000000
_cell_volume 3160.057440
_symmetry_space_group_name_H-M "P N M A"
_symmetry_group_IT_number 62
_symmetry_cell_setting 'orthorhombic'
loop_
_space_group_symop_operation_xyz
x,y,z
1/2-x,-y,1/2+z
1/2+x,1/2-y,1/2-z
-x,1/2+y,-z
-x,-y,-z
1/2+x,y,1/2-z
1/2-x,1/2+y,1/2+z
x,1/2-y,z
loop_
_atom_site_type_symbol
_atom_site_label
_atom_site_fract_x
_atom_site_fract_y
_atom_site_fract_z
Si Si1 0.370393 0.672245 0.442719
Si Si2 0.662215 0.437705 0.225377
Si Si3 0.062041 0.540124 0.409241
Si Si4 0.473806 0.670621 0.688787
Si Si5 0.341297 0.401897 0.379463
Si Si6 0.905111 0.548898 0.228613
Si Si7 0.835906 0.168120 0.632563
Si Si8 0.216369 0.571927 0.144682
O O1 0.392544 0.750000 0.395145
O O2 0.410530 0.667943 0.572368
O O3 0.411421 0.612538 0.361629
O O4 0.260963 0.664675 0.434773
O O5 0.650691 0.492457 0.116943
O O6 0.573399 0.388837 0.231692
O O7 0.751313 0.391334 0.200471
O O8 0.677590 0.492640 0.332109
O O9 0.092111 0.619315 0.436278
O O10 0.000000 0.500000 0.500000
O O11 0.000990 0.541017 0.292360
O O12 0.470861 0.750000 0.736759
O O13 0.576198 0.650347 0.650712
O O14 0.377248 0.479069 0.341347
O O15 0.311393 0.402646 0.515644
O O16 0.824302 0.565288 0.322949
O O17 0.860656 0.250000 0.647278
O O18 0.821220 0.127229 0.756990
#
# Coordination Sequence:
#
# PCOD9464768 Si02
#       8
#     8   8   8   8   8   8   8   8
#     4   9  20  38  60  88 122 155 195 248 304 364
#     4  10  22  40  59  87 124 160 196 256 301 355
#     4  11  22  37  60  87 121 159 207 246 296 370
#     4  11  24  40  61  88 118 162 209 247 302 364
#     4  11  22  38  62  90 121 155 207 252 307 357
#     4  10  20  36  59  89 120 159 197 249 304 355
#     4   9  20  39  59  86 122 156 197 251 312 363
#     4   9  20  36  61  90 117 156 197 250 310 364
#
# _framework density 20.252796
#
# number of rings (size 3 to 8) (size 9 to 14) (size 15 to 20)
#    0.000    2.000    1.250    2.250    3.500    4.500 
#    0.000    0.625    0.000    3.000    0.000    0.000 
#    0.000    0.000    0.000    0.000    0.000    0.000 
#
# Total GULP energy -357194.285812 kJ/mol
# GULP energy per Si atom -5581.160716 kJ/mol
# Density = 2.020670 g / cm^3
# Si number density = 20.252796 Si / 1000 Ang^3
#
#
#
# Elastic Constant Matrix: (Units=GPa)
#
#
# Indices 1 2 3 4 5 6 
#
# 1 66.0488 33.5974 7.0314 0.0000 0.0000 0.0000
# 2 33.5974 118.5884 13.9007 0.0000 0.0000 0.0000
# 3 7.0314 13.9007 16.2077 0.0000 0.0000 0.0000
# 4 0.0000 0.0000 0.0000 16.7231 0.0000 0.0000
# 5 0.0000 0.0000 0.0000 0.0000 25.0616 0.0000
# 6 0.0000 0.0000 0.0000 0.0000 0.0000 32.6048
#
#
#
# Elastic Compliance Matrix: (Units=1/GPa)
#
#
# Indices 1 2 3 4 5 6 
#
# 1 0.017897 -0.004625 -0.003797 0.000000 0.000000 0.000000
# 2 -0.004625 0.010570 -0.007059 0.000000 0.000000 0.000000
# 3 -0.003797 -0.007059 0.069401 0.000000 0.000000 0.000000
# 4 0.000000 0.000000 0.000000 0.059797 0.000000 0.000000
# 5 0.000000 0.000000 0.000000 0.000000 0.039902 0.000000
# 6 0.000000 0.000000 0.000000 0.000000 0.000000 0.030670
#
#
# Mechanical properties :
#
#
# Convention : Reuss Voigt Hill
#
# Bulk Modulus (GPa) = 14.94665 34.43377 24.69021
# Shear Modulus (GPa) = 17.76176 24.63227 21.19702
#
# Velocity S-wave (km/s) = 2.96464 3.49125 3.23866
# Velocity P-wave (km/s) = 4.37205 5.76980 5.11886
#
# Compressibility (1/GPa) = 0.06690461
#
# Stress axis : x y z
#
# Youngs Moduli (GPa) = 55.87402 94.60357 14.40905
#
# Poissons Ratio (x) = 0.43758 0.05472
# Poissons Ratio (y) = 0.25844 0.10172
# Poissons Ratio (z) = 0.21218 0.66783
#
# Static dielectric constant tensor:
#      x y z
#    x 1.746550 0.000000 0.000000 
#    y 0.000000 1.731970 0.000000 
#    z 0.000000 0.000000 1.729470 
# 
# From -- ./inp_files/13593.got.cif
#   From: 2010.05.17/outbox.cif.g08.bks.cpg/sg62_7_cif.got.tgz:13593.got - 2010.06.03 15:25:27.
