data_PCOD9464902
_publ_section_title
;
Structure prediction by ZEFSAII (Michael W. Deem and Ramdas Pophale) SiO2 
 PCOD9464902
Probable space group: P N M A
;
_chemical_formula_sum "Si O2"
_cell_formula_units_Z 56
_cell_length_a 16.631856
_cell_length_b 8.546566
_cell_length_c 20.604741
_cell_angle_alpha 90.000000
_cell_angle_beta 90.000000
_cell_angle_gamma 90.000000
_cell_volume 2928.866164
_symmetry_space_group_name_H-M "P N M A"
_symmetry_group_IT_number 62
_symmetry_cell_setting 'orthorhombic'
loop_
_space_group_symop_operation_xyz
x,y,z
1/2-x,-y,1/2+z
1/2+x,1/2-y,1/2-z
-x,1/2+y,-z
-x,-y,-z
1/2+x,y,1/2-z
1/2-x,1/2+y,1/2+z
x,1/2-y,z
loop_
_atom_site_type_symbol
_atom_site_label
_atom_site_fract_x
_atom_site_fract_y
_atom_site_fract_z
Si Si1 0.250683 0.060749 0.466320
Si Si2 0.179831 0.936472 0.697127
Si Si3 0.680644 0.939719 0.396297
Si Si4 0.520946 0.939888 0.325505
Si Si5 0.162363 0.437837 0.839135
Si Si6 0.501257 0.437744 0.820884
Si Si7 0.431746 0.563211 0.952355
O O1 0.253004 0.250000 0.462379
O O2 0.299581 0.011760 0.530263
O O3 0.157571 0.012186 0.472888
O O4 0.287638 0.992366 0.400829
O O5 0.175862 0.750000 0.694095
O O6 0.249999 0.999312 0.651189
O O7 0.192825 0.990873 0.771378
O O8 0.093752 0.006790 0.675666
O O9 0.682117 0.750000 0.394446
O O10 0.594048 0.994241 0.370070
O O11 0.521755 0.750000 0.326666
O O12 0.431295 0.987735 0.346412
O O13 0.530865 0.986521 0.250134
O O14 0.164637 0.250000 0.833346
O O15 0.499828 0.250000 0.824434
O O16 0.451155 0.506808 0.879883
O O17 0.434061 0.750000 0.954423
O O18 0.500000 0.500000 0.000000
#
# Coordination Sequence:
#
# PCOD9464902 Si02
#       7
#     8   8   8   8   8   8   8
#     4  10  23  39  57  86 122 157 195 244 301 357
#     4  11  22  37  59  88 120 153 193 245 301 356
#     4  10  20  38  61  85 118 158 197 242 297 354
#     4   8  18  36  59  86 112 147 198 243 288 347
#     4  10  21  39  61  85 116 156 202 247 295 356
#     4  10  20  37  59  85 114 151 198 245 296 357
#     4  11  23  38  57  85 121 159 200 246 300 361
#
# _framework density 19.120027
#
# number of rings (size 3 to 8) (size 9 to 14) (size 15 to 20)
#    0.000    2.000    0.000    4.286    2.000    3.429 
#    0.000    3.571    0.000    0.000    0.000    0.000 
#    0.000    0.000    0.000    0.000    0.000    0.000 
#
# Total GULP energy -312865.663204 kJ/mol
# GULP energy per Si atom -5586.886843 kJ/mol
# Density = 1.907651 g / cm^3
# Si number density = 19.120027 Si / 1000 Ang^3
#
#
#
# Elastic Constant Matrix: (Units=GPa)
#
#
# Indices 1 2 3 4 5 6 
#
# 1 29.9628 7.5649 19.0420 0.0000 0.0000 0.0000
# 2 7.5649 31.4828 11.1222 0.0000 0.0000 0.0000
# 3 19.0420 11.1222 64.6850 0.0000 0.0000 0.0000
# 4 0.0000 0.0000 0.0000 30.0233 0.0000 0.0000
# 5 0.0000 0.0000 0.0000 0.0000 34.7974 0.0000
# 6 0.0000 0.0000 0.0000 0.0000 0.0000 17.2862
#
#
#
# Elastic Compliance Matrix: (Units=1/GPa)
#
#
# Indices 1 2 3 4 5 6 
#
# 1 0.042133 -0.006114 -0.011352 0.000000 0.000000 0.000000
# 2 -0.006114 0.034705 -0.004168 0.000000 0.000000 0.000000
# 3 -0.011352 -0.004168 0.019518 0.000000 0.000000 0.000000
# 4 0.000000 0.000000 0.000000 0.033307 0.000000 0.000000
# 5 0.000000 0.000000 0.000000 0.000000 0.028738 0.000000
# 6 0.000000 0.000000 0.000000 0.000000 0.000000 0.057850
#
#
# Mechanical properties :
#
#
# Convention : Reuss Voigt Hill
#
# Bulk Modulus (GPa) = 18.83622 22.39876 20.61749
# Shear Modulus (GPa) = 18.03672 22.31481 20.17577
#
# Velocity S-wave (km/s) = 3.07472 3.41998 3.25193
# Velocity P-wave (km/s) = 4.74111 5.22831 4.99066
#
# Compressibility (1/GPa) = 0.05308922
#
# Stress axis : x y z
#
# Youngs Moduli (GPa) = 23.73463 28.81458 51.23515
#
# Poissons Ratio (x) = 0.17616 0.58161
# Poissons Ratio (y) = 0.14510 0.21352
# Poissons Ratio (z) = 0.26943 0.12009
#
# Static dielectric constant tensor:
#      x y z
#    x 1.659700 0.000000 0.000000 
#    y 0.000000 1.645910 0.000000 
#    z 0.000000 0.000000 1.639950 
# 
# From -- ./inp_files/27191.got.cif
#   From: 2010.05.17/outbox.cif.g08.bks.cpg/sg62_14_cif.got.tgz:27191.got - 2010.06.03 15:25:27.
