data_PCOD9464129
_publ_section_title
;
Structure prediction by ZEFSAII (Michael W. Deem and Ramdas Pophale) SiO2 
 PCOD9464129
Probable space group: P N M A
;
_chemical_formula_sum "Si O2"
_cell_formula_units_Z 40
_cell_length_a 18.551864
_cell_length_b 8.761526
_cell_length_c 13.887151
_cell_angle_alpha 90.000000
_cell_angle_beta 90.000000
_cell_angle_gamma 90.000000
_cell_volume 2257.254169
_symmetry_space_group_name_H-M "P N M A"
_symmetry_group_IT_number 62
_symmetry_cell_setting 'orthorhombic'
loop_
_space_group_symop_operation_xyz
x,y,z
1/2-x,-y,1/2+z
1/2+x,1/2-y,1/2-z
-x,1/2+y,-z
-x,-y,-z
1/2+x,y,1/2-z
1/2-x,1/2+y,1/2+z
x,1/2-y,z
loop_
_atom_site_type_symbol
_atom_site_label
_atom_site_fract_x
_atom_site_fract_y
_atom_site_fract_z
Si Si1 0.024910 0.433439 0.202954
Si Si2 0.685470 0.066938 0.824046
Si Si3 0.620429 0.434665 0.621204
Si Si4 0.970855 0.933278 0.400809
Si Si5 0.831177 0.566199 0.909493
O O1 0.021968 0.250000 0.207180
O O2 0.014009 0.501536 0.309255
O O3 0.100326 0.480284 0.155139
O O4 0.957984 0.494022 0.139726
O O5 0.691833 0.250000 0.826929
O O6 0.669492 0.022752 0.713116
O O7 0.612971 0.024746 0.882434
O O8 0.756954 0.995797 0.867511
O O9 0.612776 0.250000 0.622026
O O10 0.653799 0.482062 0.519551
O O11 0.975833 0.750000 0.400675
O O12 0.000000 0.000000 0.500000
O O13 0.828385 0.750000 0.908970
#
# Coordination Sequence:
#
# PCOD9464129 Si02
#       5
#     8   8   8   8   8
#     4  10  20  34  54  82 109 137 177 222 265 318
#     4   9  20  36  53  76 106 137 175 219 266 318
#     4   9  19  37  55  74 104 141 178 220 266 315
#     4  10  21  38  58  80 107 142 181 221 263 315
#     4  10  21  35  54  80 109 139 177 222 268 318
#
# _framework density 17.720644
#
# number of rings (size 3 to 8) (size 9 to 14) (size 15 to 20)
#    0.000    2.400    0.000    3.000    0.000    8.000 
#    0.000    4.000    0.000    0.000    0.000    0.000 
#    0.000    0.000    0.000    0.000    0.000    0.000 
#
# Total GULP energy -223256.714704 kJ/mol
# GULP energy per Si atom -5581.417868 kJ/mol
# Density = 1.768031 g / cm^3
# Si number density = 17.720644 Si / 1000 Ang^3
#
#
#
# Elastic Constant Matrix: (Units=GPa)
#
#
# Indices 1 2 3 4 5 6 
#
# 1 165.9451 46.9638 141.8047 0.0000 0.0000 0.0000
# 2 46.9638 31.5329 48.2335 0.0000 0.0000 0.0000
# 3 141.8047 48.2335 173.1332 0.0000 0.0000 0.0000
# 4 0.0000 0.0000 0.0000 28.9857 0.0000 0.0000
# 5 0.0000 0.0000 0.0000 0.0000 21.1858 0.0000
# 6 0.0000 0.0000 0.0000 0.0000 0.0000 36.1094
#
#
#
# Elastic Compliance Matrix: (Units=1/GPa)
#
#
# Indices 1 2 3 4 5 6 
#
# 1 0.021401 -0.008821 -0.015071 0.000000 0.000000 0.000000
# 2 -0.008821 0.058898 -0.009184 0.000000 0.000000 0.000000
# 3 -0.015071 -0.009184 0.020679 0.000000 0.000000 0.000000
# 4 0.000000 0.000000 0.000000 0.034500 0.000000 0.000000
# 5 0.000000 0.000000 0.000000 0.000000 0.047202 0.000000
# 6 0.000000 0.000000 0.000000 0.000000 0.000000 0.027694
#
#
# Mechanical properties :
#
#
# Convention : Reuss Voigt Hill
#
# Bulk Modulus (GPa) = 28.71408 93.84612 61.28010
# Shear Modulus (GPa) = 17.35304 26.16345 21.75825
#
# Velocity S-wave (km/s) = 3.13270 3.84661 3.50787
# Velocity P-wave (km/s) = 5.41516 8.53242 7.14585
#
# Compressibility (1/GPa) = 0.03482612
#
# Stress axis : x y z
#
# Youngs Moduli (GPa) = 46.72608 16.97845 48.35889
#
# Poissons Ratio (x) = 0.14976 0.72884
# Poissons Ratio (y) = 0.41215 0.44413
# Poissons Ratio (z) = 0.70423 0.15593
#
# Static dielectric constant tensor:
#      x y z
#    x 1.573040 0.000000 0.000000 
#    y 0.000000 1.595380 0.000000 
#    z 0.000000 0.000000 1.595820 
# 
# From -- ./inp_files/13870.got.cif
#   From: 2010.05.17/outbox.cif.g08.bks.cpg/sg62_7_cif.got.tgz:13870.got - 2010.06.03 15:25:27.
