data_PCOD9464061
_publ_section_title
;
Structure prediction by ZEFSAII (Michael W. Deem and Ramdas Pophale) SiO2 
 PCOD9464061
Probable space group: P N M A
;
_chemical_formula_sum "Si O2"
_cell_formula_units_Z 64
_cell_length_a 14.364584
_cell_length_b 7.623481
_cell_length_c 24.538868
_cell_angle_alpha 90.000000
_cell_angle_beta 90.000000
_cell_angle_gamma 90.000000
_cell_volume 2687.205625
_symmetry_space_group_name_H-M "P N M A"
_symmetry_group_IT_number 62
_symmetry_cell_setting 'orthorhombic'
loop_
_space_group_symop_operation_xyz
x,y,z
1/2-x,-y,1/2+z
1/2+x,1/2-y,1/2-z
-x,1/2+y,-z
-x,-y,-z
1/2+x,y,1/2-z
1/2-x,1/2+y,1/2+z
x,1/2-y,z
loop_
_atom_site_type_symbol
_atom_site_label
_atom_site_fract_x
_atom_site_fract_y
_atom_site_fract_z
Si Si1 0.580616 0.045764 0.094940
Si Si2 0.632751 0.048829 0.783247
Si Si3 0.872055 0.451982 0.404729
Si Si4 0.270126 0.039456 0.444468
Si Si5 0.906462 0.049205 0.717084
Si Si6 0.088176 0.534504 0.164997
Si Si7 0.680472 0.948113 0.444381
Si Si8 0.626576 0.038912 0.666742
O O1 0.572308 0.250000 0.080777
O O2 0.476440 0.972299 0.088890
O O3 0.664961 0.967822 0.060431
O O4 0.609835 0.037537 0.158784
O O5 0.665451 0.250000 0.789961
O O6 0.519660 0.052542 0.777733
O O7 0.665809 0.975660 0.725105
O O8 0.650629 0.956063 0.840091
O O9 0.869644 0.250000 0.422634
O O10 0.791358 0.554371 0.434896
O O11 0.264197 0.250000 0.452118
O O12 0.328423 0.969261 0.495868
O O13 0.318173 0.009265 0.386814
O O14 0.873423 0.250000 0.711698
O O15 0.874057 0.977023 0.775655
O O16 0.092989 0.750000 0.166943
O O17 0.138685 0.471117 0.110491
O O18 0.980371 0.482027 0.160717
O O19 0.642177 0.750000 0.446437
O O20 0.625679 0.250000 0.671454
#
# Coordination Sequence:
#
# PCOD9464061 Si02
#       8
#     8   8   8   8   8   8   8   8
#     4   9  19  35  51  71 104 137 163 203 259 308
#     4   8  15  30  52  77 103 130 161 199 251 313
#     4  10  20  34  53  76 102 132 167 212 259 299
#     4  10  22  37  51  72 103 139 177 213 254 304
#     4   8  14  28  52  78  99 124 164 206 246 303
#     4   8  16  33  55  77 102 131 164 206 254 302
#     4  10  21  37  54  72 100 139 178 213 253 304
#     4   9  18  34  56  79 103 132 166 207 252 299
#
# _framework density 23.816562999999999
#
# number of rings (size 3 to 8) (size 9 to 14) (size 15 to 20)
#    0.000    3.000    0.000    1.875    0.000    4.000 
#    0.000    6.875    0.000    0.000    0.000    0.000 
#    0.000    0.000    0.000    0.000    0.000    0.000 
#
# Total GULP energy -357205.405942 kJ/mol
# GULP energy per Si atom -5581.334468 kJ/mol
# Density = 2.376236 g / cm^3
# Si number density = 23.816563 Si / 1000 Ang^3
#
#
#
# Elastic Constant Matrix: (Units=GPa)
#
#
# Indices 1 2 3 4 5 6 
#
# 1 55.5690 -5.2102 13.7506 0.0000 0.0000 0.0000
# 2 -5.2102 52.3709 -5.5180 0.0000 0.0000 0.0000
# 3 13.7506 -5.5180 53.4396 0.0000 0.0000 0.0000
# 4 0.0000 0.0000 0.0000 12.8782 0.0000 0.0000
# 5 0.0000 0.0000 0.0000 0.0000 26.2751 0.0000
# 6 0.0000 0.0000 0.0000 0.0000 0.0000 -2.9203
#
#
#
# Elastic Compliance Matrix: (Units=1/GPa)
#
#
# Indices 1 2 3 4 5 6 
#
# 1 0.019322 0.001414 -0.004826 0.000000 0.000000 0.000000
# 2 0.001414 0.019408 0.001640 0.000000 0.000000 0.000000
# 3 -0.004826 0.001640 0.020124 0.000000 0.000000 0.000000
# 4 0.000000 0.000000 0.000000 0.077650 0.000000 0.000000
# 5 0.000000 0.000000 0.000000 0.000000 0.038059 0.000000
# 6 0.000000 0.000000 0.000000 0.000000 0.000000 -0.342433
#
#
# Mechanical properties :
#
#
# Convention : Reuss Voigt Hill
#
# Bulk Modulus (GPa) = 18.07970 18.60269 18.34119
# Shear Modulus (GPa) = -34.27253 17.80375 -8.23439
#
# Velocity S-wave (km/s) = -3.79756 2.73708 -1.86143
# Velocity P-wave (km/s) = 3.40894 4.22097 1.76007
#
# Compressibility (1/GPa) = 0.05531066
#
# Stress axis : x y z
#
# Youngs Moduli (GPa) = 51.75343 51.52501 49.69237
#
# Poissons Ratio (x) = -0.07285 0.23981
# Poissons Ratio (y) = -0.07317 -0.08151
# Poissons Ratio (z) = 0.24976 -0.08451
#
# Static dielectric constant tensor:
#      x y z
#    x 1.924440 0.000000 0.000000 
#    y 0.000000 1.738260 0.000000 
#    z 0.000000 0.000000 1.937050 
# 
# From -- ./inp_files/29910.got.cif
#   From: 2010.05.17/outbox.cif.g08.bks.cpg/sg62_15_cif.got.tgz:29910.got - 2010.06.03 15:25:27.
