data_PCOD9464268
_publ_section_title
;
Structure prediction by ZEFSAII (Michael W. Deem and Ramdas Pophale) SiO2 
 PCOD9464268
Probable space group: P N M A
;
_chemical_formula_sum "Si O2"
_cell_formula_units_Z 48
_cell_length_a 9.978622
_cell_length_b 13.960471
_cell_length_c 17.591335
_cell_angle_alpha 90.000000
_cell_angle_beta 90.000000
_cell_angle_gamma 90.000000
_cell_volume 2450.583141
_symmetry_space_group_name_H-M "P N M A"
_symmetry_group_IT_number 62
_symmetry_cell_setting 'orthorhombic'
loop_
_space_group_symop_operation_xyz
x,y,z
1/2-x,-y,1/2+z
1/2+x,1/2-y,1/2-z
-x,1/2+y,-z
-x,-y,-z
1/2+x,y,1/2-z
1/2-x,1/2+y,1/2+z
x,1/2-y,z
loop_
_atom_site_type_symbol
_atom_site_label
_atom_site_fract_x
_atom_site_fract_y
_atom_site_fract_z
Si Si1 0.357312 0.035062 0.223892
Si Si2 0.936496 0.541985 0.117929
Si Si3 0.630656 0.250000 0.650033
Si Si4 0.885271 0.644532 0.711518
Si Si5 0.739144 0.582878 0.393666
Si Si6 0.228265 0.642142 0.939671
Si Si7 0.660069 0.750000 0.279870
O O1 0.209196 0.068647 0.246592
O O2 0.460541 0.121938 0.223639
O O3 0.410802 0.967825 0.291408
O O4 0.348534 0.987224 0.141787
O O5 0.886039 0.651029 0.102044
O O6 0.863194 0.449702 0.081826
O O7 0.092379 0.535852 0.097044
O O8 0.769217 0.250000 0.697739
O O9 0.501364 0.250000 0.708193
O O10 0.851975 0.750000 0.740140
O O11 0.845042 0.639745 0.623069
O O12 0.775011 0.628490 0.474025
O O13 0.713769 0.659674 0.327233
O O14 0.166044 0.750000 0.933314
#
# Coordination Sequence:
#
# PCOD9464268 Si02
#       7
#     8   8   4   8   8   8   4
#     4  11  20  36  63  88 114 153 197 252 290 343
#     4  10  21  37  59  88 118 152 199 243 289 355
#     4  10  20  34  60  88 116 147 189 250 298 337
#     4  10  22  39  59  84 118 158 201 240 293 357
#     4  11  20  37  59  87 118 152 198 245 297 348
#     4  10  22  39  60  85 121 163 196 236 299 360
#     4  10  20  34  60  86 114 149 191 242 298 359
#
# _framework density 19.587174999999998
#
# number of rings (size 3 to 8) (size 9 to 14) (size 15 to 20)
#    0.000    1.667    4.167    1.000    0.000    1.333 
#    0.000    0.000    3.667    0.000    0.000    0.000 
#    0.000    0.000    0.000    0.000    0.000    0.000 
#
# Total GULP energy -267494.487269 kJ/mol
# GULP energy per Si atom -5572.801818 kJ/mol
# Density = 1.954259 g / cm^3
# Si number density = 19.587175 Si / 1000 Ang^3
#
#
#
# Elastic Constant Matrix: (Units=GPa)
#
#
# Indices 1 2 3 4 5 6 
#
# 1 38.7355 10.6726 1.1319 0.0000 0.0000 0.0000
# 2 10.6726 99.7291 24.1421 0.0000 0.0000 0.0000
# 3 1.1319 24.1421 60.7673 0.0000 0.0000 0.0000
# 4 0.0000 0.0000 0.0000 13.9647 0.0000 0.0000
# 5 0.0000 0.0000 0.0000 0.0000 8.4282 0.0000
# 6 0.0000 0.0000 0.0000 0.0000 0.0000 29.1154
#
#
#
# Elastic Compliance Matrix: (Units=1/GPa)
#
#
# Indices 1 2 3 4 5 6 
#
# 1 0.026628 -0.003020 0.000704 0.000000 0.000000 0.000000
# 2 -0.003020 0.011437 -0.004487 0.000000 0.000000 0.000000
# 3 0.000704 -0.004487 0.018226 0.000000 0.000000 0.000000
# 4 0.000000 0.000000 0.000000 0.071609 0.000000 0.000000
# 5 0.000000 0.000000 0.000000 0.000000 0.118649 0.000000
# 6 0.000000 0.000000 0.000000 0.000000 0.000000 0.034346
#
#
# Mechanical properties :
#
#
# Convention : Reuss Voigt Hill
#
# Bulk Modulus (GPa) = 23.42847 30.12499 26.77673
# Shear Modulus (GPa) = 16.19542 21.18735 18.69138
#
# Velocity S-wave (km/s) = 2.87860 3.29248 3.09247
# Velocity P-wave (km/s) = 4.79953 5.46509 5.14309
#
# Compressibility (1/GPa) = 0.04268312
#
# Stress axis : x y z
#
# Youngs Moduli (GPa) = 37.55496 87.43833 54.86700
#
# Poissons Ratio (x) = 0.26406 -0.03862
# Poissons Ratio (y) = 0.11341 0.24621
# Poissons Ratio (z) = -0.02643 0.39237
#
# Static dielectric constant tensor:
#      x y z
#    x 1.659330 0.000000 0.000000 
#    y 0.000000 1.746030 0.000000 
#    z 0.000000 0.000000 1.689330 
# 
# From -- ./inp_files/22232.got.cif
#   From: 2010.05.17/outbox.cif.g08.bks.cpg/sg62_12_cif.got.tgz:22232.got - 2010.06.03 15:25:27.
