data_PCOD9464395
_publ_section_title
;
Structure prediction by ZEFSAII (Michael W. Deem and Ramdas Pophale) SiO2 
 PCOD9464395
Probable space group: P N M A
;
_chemical_formula_sum "Si O2"
_cell_formula_units_Z 64
_cell_length_a 16.256677
_cell_length_b 13.039236
_cell_length_c 12.207840
_cell_angle_alpha 90.000000
_cell_angle_beta 90.000000
_cell_angle_gamma 90.000000
_cell_volume 2587.752587
_symmetry_space_group_name_H-M "P N M A"
_symmetry_group_IT_number 62
_symmetry_cell_setting 'orthorhombic'
loop_
_space_group_symop_operation_xyz
x,y,z
1/2-x,-y,1/2+z
1/2+x,1/2-y,1/2-z
-x,1/2+y,-z
-x,-y,-z
1/2+x,y,1/2-z
1/2-x,1/2+y,1/2+z
x,1/2-y,z
loop_
_atom_site_type_symbol
_atom_site_label
_atom_site_fract_x
_atom_site_fract_y
_atom_site_fract_z
Si Si1 0.239086 0.087879 0.401012
Si Si2 0.014819 0.141720 0.913689
Si Si3 0.576233 0.363478 0.960076
Si Si4 0.075753 0.588435 0.617422
Si Si5 0.485164 0.079264 0.341327
Si Si6 0.674488 0.858966 0.394384
Si Si7 0.735973 0.861521 0.024983
Si Si8 0.675722 0.078644 0.322573
O O1 0.159939 0.123620 0.471071
O O2 0.313867 0.127602 0.474462
O O3 0.225807 0.124052 0.278127
O O4 0.239407 0.963526 0.402401
O O5 0.055763 0.250000 0.885281
O O6 0.921712 0.142960 0.866926
O O7 0.049461 0.033546 0.873794
O O8 0.999277 0.134771 0.043809
O O9 0.573003 0.250000 0.909015
O O10 0.571565 0.463570 0.883439
O O11 0.501021 0.373883 0.045190
O O12 0.156317 0.623971 0.553087
O O13 0.067942 0.623246 0.742528
O O14 0.579202 0.073103 0.294836
O O15 0.711657 0.750000 0.361907
O O16 0.708499 0.963115 0.344334
O O17 0.731888 0.750000 0.078948
O O18 0.810739 0.866712 0.938368
#
# Coordination Sequence:
#
# PCOD9464395 Si02
#       8
#     8   8   8   8   8   8   8   8
#     4  10  20  37  57  80 113 144 180 229 270 316
#     4   9  20  36  57  82 107 143 184 223 271 321
#     4  10  20  35  56  82 112 146 180 218 270 325
#     4  10  21  37  55  82 114 142 178 225 270 321
#     4  10  20  38  57  79 114 141 176 230 271 317
#     4   9  19  36  57  81 108 142 184 224 267 322
#     4  10  23  39  56  81 112 145 182 223 272 327
#     4  10  21  38  58  80 109 144 181 225 271 321
#
# _framework density 24.731884999999998
#
# number of rings (size 3 to 8) (size 9 to 14) (size 15 to 20)
#    0.000    2.250    1.250    0.750    1.750    3.500 
#    0.000    0.000    0.000    0.000    0.000    0.000 
#    0.000    0.000    0.000    0.000    0.000    0.000 
#
# Total GULP energy -357689.782873 kJ/mol
# GULP energy per Si atom -5588.902857 kJ/mol
# Density = 2.467559 g / cm^3
# Si number density = 24.731885 Si / 1000 Ang^3
#
#
#
# Elastic Constant Matrix: (Units=GPa)
#
#
# Indices 1 2 3 4 5 6 
#
# 1 78.7667 -3.8497 -9.3023 0.0000 0.0000 0.0000
# 2 -3.8497 166.1003 -9.8616 0.0000 0.0000 0.0000
# 3 -9.3023 -9.8616 71.0761 0.0000 0.0000 0.0000
# 4 0.0000 0.0000 0.0000 -12.0661 0.0000 0.0000
# 5 0.0000 0.0000 0.0000 0.0000 18.5282 0.0000
# 6 0.0000 0.0000 0.0000 0.0000 0.0000 10.4751
#
#
#
# Elastic Compliance Matrix: (Units=1/GPa)
#
#
# Indices 1 2 3 4 5 6 
#
# 1 0.012922 0.000403 0.001747 0.000000 0.000000 0.000000
# 2 0.000403 0.006083 0.000897 0.000000 0.000000 0.000000
# 3 0.001747 0.000897 0.014423 0.000000 0.000000 0.000000
# 4 0.000000 0.000000 0.000000 -0.082877 0.000000 0.000000
# 5 0.000000 0.000000 0.000000 0.000000 0.053972 0.000000
# 6 0.000000 0.000000 0.000000 0.000000 0.000000 0.095464
#
#
# Mechanical properties :
#
#
# Convention : Reuss Voigt Hill
#
# Bulk Modulus (GPa) = 25.30266 29.99066 27.64666
# Shear Modulus (GPa) = 46.70014 25.98455 36.34234
#
# Velocity S-wave (km/s) = 4.35012 3.24489 3.83750
# Velocity P-wave (km/s) = 5.95688 5.11778 5.55320
#
# Compressibility (1/GPa) = 0.03952153
#
# Stress axis : x y z
#
# Youngs Moduli (GPa) = 77.38888 164.39126 69.33603
#
# Poissons Ratio (x) = -0.06628 -0.12114
# Poissons Ratio (y) = -0.03120 -0.06218
# Poissons Ratio (z) = -0.13521 -0.14742
#
# Static dielectric constant tensor:
#      x y z
#    x 1.990850 0.000000 0.000000 
#    y 0.000000 1.996880 0.000000 
#    z 0.000000 0.000000 1.902760 
# 
# From -- ./inp_files/14319.got.cif
#   From: 2010.05.17/outbox.cif.g08.bks.cpg/sg62_8_cif.got.tgz:14319.got - 2010.06.03 15:25:27.
