data_PCOD9464018
_publ_section_title
;
Structure prediction by ZEFSAII (Michael W. Deem and Ramdas Pophale) SiO2 
 PCOD9464018
Probable space group: P N M A
;
_chemical_formula_sum "Si O2"
_cell_formula_units_Z 48
_cell_length_a 9.311914
_cell_length_b 12.719443
_cell_length_c 20.837959
_cell_angle_alpha 90.000000
_cell_angle_beta 90.000000
_cell_angle_gamma 90.000000
_cell_volume 2468.097028
_symmetry_space_group_name_H-M "P N M A"
_symmetry_group_IT_number 62
_symmetry_cell_setting 'orthorhombic'
loop_
_space_group_symop_operation_xyz
x,y,z
1/2-x,-y,1/2+z
1/2+x,1/2-y,1/2-z
-x,1/2+y,-z
-x,-y,-z
1/2+x,y,1/2-z
1/2-x,1/2+y,1/2+z
x,1/2-y,z
loop_
_atom_site_type_symbol
_atom_site_label
_atom_site_fract_x
_atom_site_fract_y
_atom_site_fract_z
Si Si1 0.660197 0.630945 0.780839
Si Si2 0.942786 0.440446 0.705908
Si Si3 0.447885 0.632467 0.945795
Si Si4 0.619180 0.076150 0.912200
Si Si5 0.698802 0.946791 0.643394
Si Si6 0.109271 0.523631 0.155607
O O1 0.641772 0.750000 0.801756
O O2 0.522271 0.555149 0.789399
O O3 0.687801 0.629629 0.704510
O O4 0.791800 0.571531 0.815880
O O5 0.787705 0.455806 0.674130
O O6 0.927399 0.408582 0.780054
O O7 0.039538 0.384108 0.652466
O O8 0.487433 0.750000 0.926364
O O9 0.563440 0.544125 0.925347
O O10 0.298273 0.599052 0.912154
O O11 0.425460 0.630400 0.022203
O O12 0.786826 0.078122 0.895440
O O13 0.538727 0.981838 0.626501
#
# Coordination Sequence:
#
# PCOD9464018 Si02
#       6
#     8   8   8   8   8   8
#     4   9  16  25  38  61  95 127 151 181 229 292
#     4   8  16  29  44  64  90 121 154 186 230 282
#     4  10  20  34  50  67  93 129 164 193 224 277
#     4   9  19  34  51  70  93 126 160 190 233 281
#     4   9  17  26  41  66  93 121 152 189 232 276
#     4   9  17  28  45  69  93 118 151 195 241 280
#
# _framework density 19.448181999999999
#
# number of rings (size 3 to 8) (size 9 to 14) (size 15 to 20)
#    0.000    3.000    0.000    1.500    0.000   13.333 
#    0.000    0.000    0.000    1.000    0.000    0.000 
#    0.000    0.000    0.000    0.000    0.000    0.000 
#
# Total GULP energy -267264.986354 kJ/mol
# GULP energy per Si atom -5568.020549 kJ/mol
# Density = 1.940392 g / cm^3
# Si number density = 19.448182 Si / 1000 Ang^3
#
#
#
# Elastic Constant Matrix: (Units=GPa)
#
#
# Indices 1 2 3 4 5 6 
#
# 1 110.0412 8.1567 7.2126 0.0000 0.0000 0.0000
# 2 8.1567 19.3081 4.2765 0.0000 0.0000 0.0000
# 3 7.2126 4.2765 89.9028 0.0000 0.0000 0.0000
# 4 0.0000 0.0000 0.0000 1.3930 0.0000 0.0000
# 5 0.0000 0.0000 0.0000 0.0000 30.7812 0.0000
# 6 0.0000 0.0000 0.0000 0.0000 0.0000 -0.8463
#
#
#
# Elastic Compliance Matrix: (Units=1/GPa)
#
#
# Indices 1 2 3 4 5 6 
#
# 1 0.009410 -0.003849 -0.000572 0.000000 0.000000 0.000000
# 2 -0.003849 0.053917 -0.002256 0.000000 0.000000 0.000000
# 3 -0.000572 -0.002256 0.011276 0.000000 0.000000 0.000000
# 4 0.000000 0.000000 0.000000 0.717891 0.000000 0.000000
# 5 0.000000 0.000000 0.000000 0.000000 0.032487 0.000000
# 6 0.000000 0.000000 0.000000 0.000000 0.000000 -1.181607
#
#
# Mechanical properties :
#
#
# Convention : Reuss Voigt Hill
#
# Bulk Modulus (GPa) = 16.32631 28.72709 22.52670
# Shear Modulus (GPa) = -15.48685 19.57265 2.04290
#
# Velocity S-wave (km/s) = -2.82496 3.17582 1.02602
# Velocity P-wave (km/s) = 1.49250 5.31516 3.60717
#
# Compressibility (1/GPa) = 0.06125081
#
# Stress axis : x y z
#
# Youngs Moduli (GPa) = 106.26687 18.54689 88.68141
#
# Poissons Ratio (x) = 0.07138 0.05072
# Poissons Ratio (y) = 0.40899 0.20006
# Poissons Ratio (z) = 0.06077 0.04184
#
# Static dielectric constant tensor:
#      x y z
#    x 1.691680 0.000000 0.000000 
#    y 0.000000 1.695970 0.000000 
#    z 0.000000 0.000000 1.731680 
# 
# From -- ./inp_files/26074.got.cif
#   From: 2010.05.17/outbox.cif.g08.bks.cpg/sg62_14_cif.got.tgz:26074.got - 2010.06.03 15:25:27.
