data_PCOD9464141
_publ_section_title
;
Structure prediction by ZEFSAII (Michael W. Deem and Ramdas Pophale) SiO2 
 PCOD9464141
Probable space group: P N M A
;
_chemical_formula_sum "Si O2"
_cell_formula_units_Z 64
_cell_length_a 20.568535
_cell_length_b 8.090954
_cell_length_c 20.146764
_cell_angle_alpha 90.000000
_cell_angle_beta 90.000000
_cell_angle_gamma 90.000000
_cell_volume 3352.805739
_symmetry_space_group_name_H-M "P N M A"
_symmetry_group_IT_number 62
_symmetry_cell_setting 'orthorhombic'
loop_
_space_group_symop_operation_xyz
x,y,z
1/2-x,-y,1/2+z
1/2+x,1/2-y,1/2-z
-x,1/2+y,-z
-x,-y,-z
1/2+x,y,1/2-z
1/2-x,1/2+y,1/2+z
x,1/2-y,z
loop_
_atom_site_type_symbol
_atom_site_label
_atom_site_fract_x
_atom_site_fract_y
_atom_site_fract_z
Si Si1 0.316725 0.947964 0.094280
Si Si2 0.591677 0.551347 0.679829
Si Si3 0.067328 0.550186 0.967296
Si Si4 0.213061 0.950288 0.742572
Si Si5 0.989745 0.446387 0.708210
Si Si6 0.328014 0.449996 0.573443
Si Si7 0.460121 0.549985 0.064940
Si Si8 0.858024 0.552208 0.777892
O O1 0.316380 0.750000 0.085878
O O2 0.246713 0.010649 0.068444
O O3 0.384826 0.009540 0.064474
O O4 0.314704 0.987415 0.172485
O O5 0.593839 0.750000 0.675509
O O6 0.571610 0.487036 0.607894
O O7 0.663338 0.493931 0.701183
O O8 0.541194 0.509713 0.737680
O O9 0.070208 0.750000 0.965794
O O10 0.126506 0.492214 0.013709
O O11 0.000000 0.500000 0.000000
O O12 0.213385 0.750000 0.740519
O O13 0.287606 0.005398 0.748925
O O14 0.996211 0.250000 0.706050
O O15 0.918333 0.488502 0.735459
O O16 0.006833 0.508774 0.634083
O O17 0.326418 0.250000 0.572690
O O18 0.357888 0.500773 0.644615
O O19 0.458727 0.750000 0.066844
O O20 0.500000 0.500000 0.000000
O O21 0.860078 0.750000 0.775704
#
# Coordination Sequence:
#
# PCOD9464141 Si02
#       8
#     8   8   8   8   8   8   8   8
#     4   9  17  34  57  80 104 138 180 220 264 318
#     4  10  20  35  56  80 107 140 178 225 271 318
#     4  10  21  35  51  76 108 141 178 219 264 317
#     4   9  18  33  54  80 106 136 176 220 267 318
#     4  11  22  37  56  81 110 141 180 222 267 324
#     4   9  18  34  56  80 108 145 184 223 268 318
#     4  10  22  38  56  80 108 140 179 224 274 328
#     4  10  20  34  54  83 112 142 179 221 268 320
#
# _framework density 19.08849
#
# number of rings (size 3 to 8) (size 9 to 14) (size 15 to 20)
#    0.000    2.250    1.250    1.500    0.000    5.000 
#    2.250    0.000    0.000    0.000    0.000    0.000 
#    0.000    0.000    0.000    0.000    0.000    0.000 
#
# Total GULP energy -357066.527793 kJ/mol
# GULP energy per Si atom -5579.164497 kJ/mol
# Density = 1.904504 g / cm^3
# Si number density = 19.088490 Si / 1000 Ang^3
#
#
#
# Elastic Constant Matrix: (Units=GPa)
#
#
# Indices 1 2 3 4 5 6 
#
# 1 150.9136 6.6400 107.0352 0.0000 0.0000 0.0000
# 2 6.6400 7.5457 9.4161 0.0000 0.0000 0.0000
# 3 107.0352 9.4161 163.1906 0.0000 0.0000 0.0000
# 4 0.0000 0.0000 0.0000 22.1179 0.0000 0.0000
# 5 0.0000 0.0000 0.0000 0.0000 32.5653 0.0000
# 6 0.0000 0.0000 0.0000 0.0000 0.0000 16.4150
#
#
#
# Elastic Compliance Matrix: (Units=1/GPa)
#
#
# Indices 1 2 3 4 5 6 
#
# 1 0.012395 -0.000821 -0.008082 0.000000 0.000000 0.000000
# 2 -0.000821 0.142864 -0.007704 0.000000 0.000000 0.000000
# 3 -0.008082 -0.007704 0.011873 0.000000 0.000000 0.000000
# 4 0.000000 0.000000 0.000000 0.045212 0.000000 0.000000
# 5 0.000000 0.000000 0.000000 0.000000 0.030708 0.000000
# 6 0.000000 0.000000 0.000000 0.000000 0.000000 0.060920
#
#
# Mechanical properties :
#
#
# Convention : Reuss Voigt Hill
#
# Bulk Modulus (GPa) = 7.46739 63.09250 35.27994
# Shear Modulus (GPa) = 13.09496 27.45686 20.27591
#
# Velocity S-wave (km/s) = 2.62203 3.79674 3.26269
# Velocity P-wave (km/s) = 3.61762 7.23496 5.71978
#
# Compressibility (1/GPa) = 0.13391559
#
# Stress axis : x y z
#
# Youngs Moduli (GPa) = 80.67944 6.99968 84.22196
#
# Poissons Ratio (x) = 0.00575 0.68070
# Poissons Ratio (y) = 0.06627 0.64889
# Poissons Ratio (z) = 0.65207 0.05393
#
# Static dielectric constant tensor:
#      x y z
#    x 1.682550 0.000000 0.000000 
#    y 0.000000 1.686950 0.000000 
#    z 0.000000 0.000000 1.642530 
# 
# From -- ./inp_files/24715.got.cif
#   From: 2010.05.17/outbox.cif.g08.bks.cpg/sg62_13_cif.got.tgz:24715.got - 2010.06.03 15:25:27.
