data_PCOD9464966
_publ_section_title
;
Structure prediction by ZEFSAII (Michael W. Deem and Ramdas Pophale) SiO2 
 PCOD9464966
Probable space group: P N M A
;
_chemical_formula_sum "Si O2"
_cell_formula_units_Z 48
_cell_length_a 12.270839
_cell_length_b 8.775404
_cell_length_c 23.347847
_cell_angle_alpha 90.000000
_cell_angle_beta 90.000000
_cell_angle_gamma 90.000000
_cell_volume 2514.132813
_symmetry_space_group_name_H-M "P N M A"
_symmetry_group_IT_number 62
_symmetry_cell_setting 'orthorhombic'
loop_
_space_group_symop_operation_xyz
x,y,z
1/2-x,-y,1/2+z
1/2+x,1/2-y,1/2-z
-x,1/2+y,-z
-x,-y,-z
1/2+x,y,1/2-z
1/2-x,1/2+y,1/2+z
x,1/2-y,z
loop_
_atom_site_type_symbol
_atom_site_label
_atom_site_fract_x
_atom_site_fract_y
_atom_site_fract_z
Si Si1 0.422404 0.066197 0.348280
Si Si2 0.662489 0.931296 0.954126
Si Si3 0.328102 0.932393 0.648526
Si Si4 0.776685 0.932191 0.576357
Si Si5 0.850574 0.931850 0.272069
Si Si6 0.016058 0.568219 0.373834
O O1 0.422081 0.250000 0.346377
O O2 0.547256 0.015527 0.355537
O O3 0.340983 0.020887 0.399247
O O4 0.375776 0.004532 0.288764
O O5 0.642032 0.750000 0.955121
O O6 0.760896 0.962613 0.909623
O O7 0.557799 0.015401 0.927548
O O8 0.694128 0.990148 0.016391
O O9 0.326696 0.750000 0.657498
O O10 0.261159 0.009652 0.699707
O O11 0.779990 0.750000 0.569897
O O12 0.869054 0.984734 0.621165
O O13 0.847236 0.750000 0.267350
O O14 0.946558 0.972513 0.317362
O O15 0.030938 0.750000 0.375343
#
# Coordination Sequence:
#
# PCOD9464966 Si02
#       6
#     8   8   8   8   8   8
#     4  10  23  40  58  83 115 154 194 233 281 343
#     4  10  20  37  61  86 114 150 191 237 286 339
#     4   9  20  40  62  83 111 151 194 232 282 346
#     4  11  23  37  56  85 118 152 191 235 283 338
#     4  10  22  38  59  86 115 147 188 240 291 337
#     4  10  21  38  59  85 116 151 190 237 288 339
#
# _framework density 19.092071000000001
#
# number of rings (size 3 to 8) (size 9 to 14) (size 15 to 20)
#    0.000    2.000    0.000    2.500    2.333    5.333 
#    0.000    0.000    0.000    0.000    0.000    0.000 
#    0.000    0.000    0.000    0.000    0.000    0.000 
#
# Total GULP energy -268228.233510 kJ/mol
# GULP energy per Si atom -5588.088198 kJ/mol
# Density = 1.904862 g / cm^3
# Si number density = 19.092071 Si / 1000 Ang^3
#
#
#
# Elastic Constant Matrix: (Units=GPa)
#
#
# Indices 1 2 3 4 5 6 
#
# 1 95.9234 8.3314 -5.2013 0.0000 0.0000 0.0000
# 2 8.3314 14.6684 4.6186 0.0000 0.0000 0.0000
# 3 -5.2013 4.6186 35.0646 0.0000 0.0000 0.0000
# 4 0.0000 0.0000 0.0000 17.2639 0.0000 0.0000
# 5 0.0000 0.0000 0.0000 0.0000 12.0117 0.0000
# 6 0.0000 0.0000 0.0000 0.0000 0.0000 19.5302
#
#
#
# Elastic Compliance Matrix: (Units=1/GPa)
#
#
# Indices 1 2 3 4 5 6 
#
# 1 0.011189 -0.007176 0.002605 0.000000 0.000000 0.000000
# 2 -0.007176 0.075725 -0.011039 0.000000 0.000000 0.000000
# 3 0.002605 -0.011039 0.030359 0.000000 0.000000 0.000000
# 4 0.000000 0.000000 0.000000 0.057924 0.000000 0.000000
# 5 0.000000 0.000000 0.000000 0.000000 0.083252 0.000000
# 6 0.000000 0.000000 0.000000 0.000000 0.000000 0.051203
#
#
# Mechanical properties :
#
#
# Convention : Reuss Voigt Hill
#
# Bulk Modulus (GPa) = 11.62048 17.90599 14.76323
# Shear Modulus (GPa) = 13.52972 18.95500 16.24236
#
# Velocity S-wave (km/s) = 2.66495 3.15432 2.91991
# Velocity P-wave (km/s) = 3.94576 4.76083 4.37233
#
# Compressibility (1/GPa) = 0.08605494
#
# Stress axis : x y z
#
# Youngs Moduli (GPa) = 89.36971 13.20568 32.93895
#
# Poissons Ratio (x) = 0.09476 -0.08580
# Poissons Ratio (y) = 0.64129 0.36360
# Poissons Ratio (z) = -0.23280 0.14577
#
# Static dielectric constant tensor:
#      x y z
#    x 1.671070 0.000000 0.000000 
#    y 0.000000 1.635320 0.000000 
#    z 0.000000 0.000000 1.638050 
# 
# From -- ./inp_files/29238.got.cif
#   From: 2010.05.17/outbox.cif.g08.bks.cpg/sg62_15_cif.got.tgz:29238.got - 2010.06.03 15:25:27.
