data_PCOD9464241
_publ_section_title
;
Structure prediction by ZEFSAII (Michael W. Deem and Ramdas Pophale) SiO2 
 PCOD9464241
Probable space group: P N M A
;
_chemical_formula_sum "Si O2"
_cell_formula_units_Z 48
_cell_length_a 8.690940
_cell_length_b 15.968729
_cell_length_c 12.856334
_cell_angle_alpha 90.000000
_cell_angle_beta 90.000000
_cell_angle_gamma 90.000000
_cell_volume 1784.244016
_symmetry_space_group_name_H-M "P N M A"
_symmetry_group_IT_number 62
_symmetry_cell_setting 'orthorhombic'
loop_
_space_group_symop_operation_xyz
x,y,z
1/2-x,-y,1/2+z
1/2+x,1/2-y,1/2-z
-x,1/2+y,-z
-x,-y,-z
1/2+x,y,1/2-z
1/2-x,1/2+y,1/2+z
x,1/2-y,z
loop_
_atom_site_type_symbol
_atom_site_label
_atom_site_fract_x
_atom_site_fract_y
_atom_site_fract_z
Si Si1 0.761179 0.750000 0.197918
Si Si2 0.010039 0.750000 0.677939
Si Si3 0.434365 0.105384 0.906437
Si Si4 0.156166 0.250000 0.561524
Si Si5 0.887497 0.922545 0.018649
Si Si6 0.006287 0.250000 0.990205
Si Si7 0.261410 0.618034 0.734418
Si Si8 0.983694 0.994763 0.211029
O O1 0.654565 0.670775 0.169247
O O2 0.812207 0.750000 0.316015
O O3 0.903667 0.750000 0.118822
O O4 0.145686 0.677120 0.671657
O O5 0.879904 0.823053 0.704798
O O6 0.555595 0.167148 0.963972
O O7 0.296550 0.068089 0.976036
O O8 0.506061 0.036039 0.830517
O O9 0.322991 0.250000 0.510270
O O10 0.934697 0.836510 0.961618
O O11 0.942049 0.915680 0.141304
O O12 0.000000 0.000000 0.000000
O O13 0.149952 0.562366 0.806334
O O14 0.359389 0.542852 0.681930
#
# Coordination Sequence:
#
# PCOD9464241 Si02
#       8
#     4   4   8   4   8   4   8   8
#     4   9  17  31  53  92 125 163 185 229 298 374
#     4   8  16  34  47  77 116 156 200 267 308 342
#     4  10  20  34  57  92 128 155 196 245 298 364
#     4  11  19  31  61  92 123 152 190 248 308 353
#     4  11  24  43  63  88 125 170 206 243 305 381
#     4  10  22  38  61  85 122 165 205 240 302 379
#     4   9  18  30  56  82 116 152 202 255 311 343
#     4  11  19  33  59  95 121 150 202 251 304 366
#
# _framework density 26.902149000000001
#
# number of rings (size 3 to 8) (size 9 to 14) (size 15 to 20)
#    0.000    2.000    1.667    4.500    2.333    0.000 
#    0.000    5.833    0.000    0.000    0.000    0.000 
#    0.000    0.000    0.000    0.000    0.000    0.000 
#
# Total GULP energy -267468.350778 kJ/mol
# GULP energy per Si atom -5572.257308 kJ/mol
# Density = 2.684092 g / cm^3
# Si number density = 26.902149 Si / 1000 Ang^3
#
#
#
# Elastic Constant Matrix: (Units=GPa)
#
#
# Indices 1 2 3 4 5 6 
#
# 1 196.8519 50.3331 29.0150 0.0000 0.0000 0.0000
# 2 50.3331 154.1966 18.0606 0.0000 0.0000 0.0000
# 3 29.0150 18.0606 47.7000 0.0000 0.0000 0.0000
# 4 0.0000 0.0000 0.0000 -65.0254 0.0000 0.0000
# 5 0.0000 0.0000 0.0000 0.0000 35.6560 0.0000
# 6 0.0000 0.0000 0.0000 0.0000 0.0000 85.2169
#
#
#
# Elastic Compliance Matrix: (Units=1/GPa)
#
#
# Indices 1 2 3 4 5 6 
#
# 1 0.005928 -0.001583 -0.003006 0.000000 0.000000 0.000000
# 2 -0.001583 0.007209 -0.001767 0.000000 0.000000 0.000000
# 3 -0.003006 -0.001767 0.023462 0.000000 0.000000 0.000000
# 4 0.000000 0.000000 0.000000 -0.015379 0.000000 0.000000
# 5 0.000000 0.000000 0.000000 0.000000 0.028046 0.000000
# 6 0.000000 0.000000 0.000000 0.000000 0.000000 0.011735
#
#
# Mechanical properties :
#
#
# Convention : Reuss Voigt Hill
#
# Bulk Modulus (GPa) = 41.86420 65.95177 53.90799
# Shear Modulus (GPa) = 61.21839 31.25881 46.23860
#
# Velocity S-wave (km/s) = 4.77549 3.41243 4.15030
# Velocity P-wave (km/s) = 6.78252 6.33205 6.56115
#
# Compressibility (1/GPa) = 0.02388676
#
# Stress axis : x y z
#
# Youngs Moduli (GPa) = 168.69623 138.71900 42.62200
#
# Poissons Ratio (x) = 0.21957 0.12814
# Poissons Ratio (y) = 0.26702 0.07530
# Poissons Ratio (z) = 0.50718 0.24507
#
# Static dielectric constant tensor:
#      x y z
#    x 2.012800 0.000000 0.000000 
#    y 0.000000 2.053210 0.000000 
#    z 0.000000 0.000000 2.407860 
# 
# From -- ./inp_files/17031.got.cif
#   From: 2010.05.17/outbox.cif.g08.bks.cpg/sg62_9_cif.got.tgz:17031.got - 2010.06.03 15:25:27.
