data_PCOD9464552
_publ_section_title
;
Structure prediction by ZEFSAII (Michael W. Deem and Ramdas Pophale) SiO2 
 PCOD9464552
Probable space group: P N M A
;
_chemical_formula_sum "Si O2"
_cell_formula_units_Z 40
_cell_length_a 9.693697
_cell_length_b 8.374073
_cell_length_c 18.922751
_cell_angle_alpha 90.000000
_cell_angle_beta 90.000000
_cell_angle_gamma 90.000000
_cell_volume 1536.068056
_symmetry_space_group_name_H-M "P N M A"
_symmetry_group_IT_number 62
_symmetry_cell_setting 'orthorhombic'
loop_
_space_group_symop_operation_xyz
x,y,z
1/2-x,-y,1/2+z
1/2+x,1/2-y,1/2-z
-x,1/2+y,-z
-x,-y,-z
1/2+x,y,1/2-z
1/2-x,1/2+y,1/2+z
x,1/2-y,z
loop_
_atom_site_type_symbol
_atom_site_label
_atom_site_fract_x
_atom_site_fract_y
_atom_site_fract_z
Si Si1 0.478011 0.250000 0.842264
Si Si2 0.541797 0.076490 0.105242
Si Si3 0.957988 0.059231 0.889253
Si Si4 0.275603 0.560639 0.486717
Si Si5 0.205234 0.250000 0.759300
Si Si6 0.835792 0.920680 0.763065
O O1 0.528338 0.405068 0.884228
O O2 0.308968 0.250000 0.829004
O O3 0.543671 0.250000 0.763425
O O4 0.474762 0.250000 0.094432
O O5 0.615515 0.085734 0.182312
O O6 0.649814 0.042140 0.042834
O O7 0.944580 0.250000 0.879170
O O8 0.099138 0.033965 0.931604
O O9 0.958673 0.954704 0.818241
O O10 0.834994 0.995218 0.938375
O O11 0.246801 0.750000 0.487545
O O12 0.247180 0.420698 0.727859
O O13 0.769360 0.750000 0.780067
#
# Coordination Sequence:
#
# PCOD9464552 Si02
#       6
#     4   8   8   8   4   8
#     4  10  22  40  62  92 128 168 215 266 321 384
#     4  10  21  37  58  88 126 171 212 263 322 389
#     4  10  20  35  59  94 133 172 217 275 335 391
#     4  10  20  35  59  94 133 172 217 275 335 391
#     4  10  22  40  62  92 128 168 215 266 321 384
#     4  10  21  37  58  88 126 171 212 263 322 389
#
# _framework density 26.040514999999999
#
# number of rings (size 3 to 8) (size 9 to 14) (size 15 to 20)
#    0.000    2.000    2.000    1.200    0.000    9.600 
#    0.000    8.000    0.000    1.200    0.000    0.000 
#    0.000    0.000    0.000    0.000    0.000    0.000 
#
# Total GULP energy -223446.832396 kJ/mol
# GULP energy per Si atom -5586.170810 kJ/mol
# Density = 2.598125 g / cm^3
# Si number density = 26.040515 Si / 1000 Ang^3
#
#
#
# Elastic Constant Matrix: (Units=GPa)
#
#
# Indices 1 2 3 4 5 6 
#
# 1 67.2226 17.4860 54.2557 0.0000 0.0000 0.0000
# 2 17.4860 226.3853 23.8279 0.0000 0.0000 0.0000
# 3 54.2557 23.8279 93.7022 0.0000 0.0000 0.0000
# 4 0.0000 0.0000 0.0000 23.7146 0.0000 0.0000
# 5 0.0000 0.0000 0.0000 0.0000 38.5321 0.0000
# 6 0.0000 0.0000 0.0000 0.0000 0.0000 -10.3136
#
#
#
# Elastic Compliance Matrix: (Units=1/GPa)
#
#
# Indices 1 2 3 4 5 6 
#
# 1 0.027976 -0.000468 -0.016079 0.000000 0.000000 0.000000
# 2 -0.000468 0.004547 -0.000885 0.000000 0.000000 0.000000
# 3 -0.016079 -0.000885 0.020207 0.000000 0.000000 0.000000
# 4 0.000000 0.000000 0.000000 0.042168 0.000000 0.000000
# 5 0.000000 0.000000 0.000000 0.000000 0.025952 0.000000
# 6 0.000000 0.000000 0.000000 0.000000 0.000000 -0.096959
#
#
# Mechanical properties :
#
#
# Convention : Reuss Voigt Hill
#
# Bulk Modulus (GPa) = 55.97808 64.27213 60.12511
# Shear Modulus (GPa) = 77.26659 29.83599 53.55129
#
# Velocity S-wave (km/s) = 5.45308 3.38857 4.53974
# Velocity P-wave (km/s) = 7.82249 6.32811 7.11465
#
# Compressibility (1/GPa) = 0.01786413
#
# Stress axis : x y z
#
# Youngs Moduli (GPa) = 35.74551 219.94595 49.48666
#
# Poissons Ratio (x) = 0.10303 0.79571
# Poissons Ratio (y) = 0.01674 0.04379
# Poissons Ratio (z) = 0.57477 0.19464
#
# Static dielectric constant tensor:
#      x y z
#    x 2.057250 0.000000 0.000000 
#    y 0.000000 2.038360 0.000000 
#    z 0.000000 0.000000 2.101580 
# 
# From -- ./inp_files/22828.got.cif
#   From: 2010.05.17/outbox.cif.g08.bks.cpg/sg62_12_cif.got.tgz:22828.got - 2010.06.03 15:25:27.
