data_PCOD9464481
_publ_section_title
;
Structure prediction by ZEFSAII (Michael W. Deem and Ramdas Pophale) SiO2 
 PCOD9464481
Probable space group: P N M A
;
_chemical_formula_sum "Si O2"
_cell_formula_units_Z 48
_cell_length_a 15.064225
_cell_length_b 8.887855
_cell_length_c 20.340808
_cell_angle_alpha 90.000000
_cell_angle_beta 90.000000
_cell_angle_gamma 90.000000
_cell_volume 2723.403272
_symmetry_space_group_name_H-M "P N M A"
_symmetry_group_IT_number 62
_symmetry_cell_setting 'orthorhombic'
loop_
_space_group_symop_operation_xyz
x,y,z
1/2-x,-y,1/2+z
1/2+x,1/2-y,1/2-z
-x,1/2+y,-z
-x,-y,-z
1/2+x,y,1/2-z
1/2-x,1/2+y,1/2+z
x,1/2-y,z
loop_
_atom_site_type_symbol
_atom_site_label
_atom_site_fract_x
_atom_site_fract_y
_atom_site_fract_z
Si Si1 0.391494 0.570179 0.186440
Si Si2 0.923847 0.070649 0.455473
Si Si3 0.779092 0.571016 0.981597
Si Si4 0.991124 0.569907 0.801325
Si Si5 0.811000 0.429707 0.839067
Si Si6 0.434221 0.070149 0.445891
O O1 0.402923 0.750000 0.186180
O O2 0.422193 0.503094 0.116607
O O3 0.447031 0.497111 0.244829
O O4 0.285865 0.538223 0.191483
O O5 0.935360 0.250000 0.449601
O O6 0.826092 0.043204 0.486239
O O7 0.000000 0.000000 0.500000
O O8 0.794606 0.750000 0.980296
O O9 0.809782 0.501557 0.911928
O O10 0.837541 0.495785 0.038041
O O11 0.986117 0.750000 0.795644
O O12 0.032003 0.532806 0.872992
O O13 0.892830 0.499815 0.799903
O O14 0.821215 0.250000 0.844553
O O15 0.434007 0.250000 0.453022
O O16 0.500000 0.000000 0.500000
#
# Coordination Sequence:
#
# PCOD9464481 Si02
#       6
#     8   8   8   8   8   8
#     4  10  22  40  61  86 115 151 195 240 289 346
#     4  10  21  39  63  88 116 153 195 240 288 342
#     4  10  20  35  57  85 115 149 189 236 285 339
#     4  11  23  38  58  85 117 154 193 238 289 345
#     4  10  20  36  60  84 110 151 192 233 285 342
#     4  11  22  35  56  86 118 152 191 233 284 342
#
# _framework density 17.625007
#
# number of rings (size 3 to 8) (size 9 to 14) (size 15 to 20)
#    0.000    1.667    1.667    3.000    0.000    6.000 
#    3.000    0.000    0.000    0.000    0.000    0.000 
#    0.000    0.000    0.000    0.000    0.000    0.000 
#
# Total GULP energy -268169.037912 kJ/mol
# GULP energy per Si atom -5586.854956 kJ/mol
# Density = 1.758489 g / cm^3
# Si number density = 17.625007 Si / 1000 Ang^3
#
#
#
# Elastic Constant Matrix: (Units=GPa)
#
#
# Indices 1 2 3 4 5 6 
#
# 1 149.4886 82.4826 98.2085 0.0000 0.0000 0.0000
# 2 82.4826 86.3139 68.8452 0.0000 0.0000 0.0000
# 3 98.2085 68.8452 112.7024 0.0000 0.0000 0.0000
# 4 0.0000 0.0000 0.0000 33.3886 0.0000 0.0000
# 5 0.0000 0.0000 0.0000 0.0000 35.2452 0.0000
# 6 0.0000 0.0000 0.0000 0.0000 0.0000 33.1060
#
#
#
# Elastic Compliance Matrix: (Units=1/GPa)
#
#
# Indices 1 2 3 4 5 6 
#
# 1 0.019055 -0.009683 -0.010689 0.000000 0.000000 0.000000
# 2 -0.009683 0.027515 -0.008370 0.000000 0.000000 0.000000
# 3 -0.010689 -0.008370 0.023300 0.000000 0.000000 0.000000
# 4 0.000000 0.000000 0.000000 0.029950 0.000000 0.000000
# 5 0.000000 0.000000 0.000000 0.000000 0.028373 0.000000
# 6 0.000000 0.000000 0.000000 0.000000 0.000000 0.030206
#
#
# Mechanical properties :
#
#
# Convention : Reuss Voigt Hill
#
# Bulk Modulus (GPa) = 80.73961 94.17527 87.45744
# Shear Modulus (GPa) = 22.72609 26.94585 24.83597
#
# Velocity S-wave (km/s) = 3.59475 3.91428 3.75791
# Velocity P-wave (km/s) = 7.94599 8.60102 8.27999
#
# Compressibility (1/GPa) = 0.01238549
#
# Stress axis : x y z
#
# Youngs Moduli (GPa) = 52.48070 36.34414 42.91789
#
# Poissons Ratio (x) = 0.35192 0.45876
# Poissons Ratio (y) = 0.50817 0.35922
# Poissons Ratio (z) = 0.56098 0.30420
#
# Static dielectric constant tensor:
#      x y z
#    x 1.608500 0.000000 0.000000 
#    y 0.000000 1.584460 0.000000 
#    z 0.000000 0.000000 1.560440 
# 
# From -- ./inp_files/23764.got.cif
#   From: 2010.05.17/outbox.cif.g08.bks.cpg/sg62_12_cif.got.tgz:23764.got - 2010.06.03 15:25:27.
