data_PCOD9464596
_publ_section_title
;
Structure prediction by ZEFSAII (Michael W. Deem and Ramdas Pophale) SiO2 
 PCOD9464596
Probable space group: P N M A
;
_chemical_formula_sum "Si O2"
_cell_formula_units_Z 64
_cell_length_a 18.497110
_cell_length_b 17.153512
_cell_length_c 8.356060
_cell_angle_alpha 90.000000
_cell_angle_beta 90.000000
_cell_angle_gamma 90.000000
_cell_volume 2651.297606
_symmetry_space_group_name_H-M "P N M A"
_symmetry_group_IT_number 62
_symmetry_cell_setting 'orthorhombic'
loop_
_space_group_symop_operation_xyz
x,y,z
1/2-x,-y,1/2+z
1/2+x,1/2-y,1/2-z
-x,1/2+y,-z
-x,-y,-z
1/2+x,y,1/2-z
1/2-x,1/2+y,1/2+z
x,1/2-y,z
loop_
_atom_site_type_symbol
_atom_site_label
_atom_site_fract_x
_atom_site_fract_y
_atom_site_fract_z
Si Si1 0.001300 0.834615 0.198708
Si Si2 0.522701 0.336877 0.317323
Si Si3 0.703482 0.341834 0.753309
Si Si4 0.814973 0.661557 0.890120
Si Si5 0.144666 0.897463 0.138120
Si Si6 0.150263 0.036243 0.551232
Si Si7 0.034052 0.998162 0.295321
Si Si8 0.214245 0.560242 0.828206
O O1 0.972250 0.750000 0.253840
O O2 0.088578 0.835375 0.207066
O O3 0.987915 0.840108 0.008701
O O4 0.986527 0.919226 0.277950
O O5 0.497272 0.250000 0.263253
O O6 0.609365 0.340389 0.297147
O O7 0.497650 0.418949 0.242791
O O8 0.673219 0.358771 0.576559
O O9 0.900366 0.477664 0.832335
O O10 0.780156 0.385073 0.772999
O O11 0.654314 0.373094 0.898237
O O12 0.788590 0.750000 0.891852
O O13 0.756885 0.611085 0.799978
O O14 0.285621 0.750000 0.231131
O O15 0.164230 0.892538 0.952032
O O16 0.221978 0.024458 0.439952
O O17 0.080529 0.005639 0.457620
O O18 0.165645 0.995192 0.720046
#
# Coordination Sequence:
#
# PCOD9464596 Si02
#       8
#     8   8   8   8   8   8   8   8
#     4   9  20  37  60  84 107 145 194 239 282 336
#     4  10  20  36  58  83 111 145 192 239 279 332
#     4  10  21  34  51  81 114 150 186 229 286 343
#     4  10  21  34  54  82 112 145 186 233 285 337
#     4   9  21  34  57  79 112 144 184 235 275 340
#     4  11  21  32  53  78 115 151 181 225 280 341
#     4  10  20  36  54  88 107 145 190 232 283 337
#     4  11  20  34  50  82 113 147 180 224 282 337
#
# _framework density 24.139123000000001
#
# number of rings (size 3 to 8) (size 9 to 14) (size 15 to 20)
#    0.750    1.250    1.250    3.750    1.750    3.000 
#    0.000    0.000    0.000    3.000    0.000    3.500 
#    0.000    0.000    0.000    0.000    0.000    0.000 
#
# Total GULP energy -357176.448899 kJ/mol
# GULP energy per Si atom -5580.882014 kJ/mol
# Density = 2.408418 g / cm^3
# Si number density = 24.139123 Si / 1000 Ang^3
#
#
#
# Elastic Constant Matrix: (Units=GPa)
#
#
# Indices 1 2 3 4 5 6 
#
# 1 68.0652 19.2204 -0.5253 0.0000 0.0000 0.0000
# 2 19.2204 178.7766 50.8072 0.0000 0.0000 0.0000
# 3 -0.5253 50.8072 84.9094 0.0000 0.0000 0.0000
# 4 0.0000 0.0000 0.0000 28.7944 0.0000 0.0000
# 5 0.0000 0.0000 0.0000 0.0000 34.0948 0.0000
# 6 0.0000 0.0000 0.0000 0.0000 0.0000 22.2738
#
#
#
# Elastic Compliance Matrix: (Units=1/GPa)
#
#
# Indices 1 2 3 4 5 6 
#
# 1 0.015270 -0.002010 0.001297 0.000000 0.000000 0.000000
# 2 -0.002010 0.007004 -0.004204 0.000000 0.000000 0.000000
# 3 0.001297 -0.004204 0.014301 0.000000 0.000000 0.000000
# 4 0.000000 0.000000 0.000000 0.034729 0.000000 0.000000
# 5 0.000000 0.000000 0.000000 0.000000 0.029330 0.000000
# 6 0.000000 0.000000 0.000000 0.000000 0.000000 0.044896
#
#
# Mechanical properties :
#
#
# Convention : Reuss Voigt Hill
#
# Bulk Modulus (GPa) = 37.39531 52.30618 44.85074
# Shear Modulus (GPa) = 30.43658 34.51588 32.47623
#
# Velocity S-wave (km/s) = 3.55474 3.78547 3.67192
# Velocity P-wave (km/s) = 5.68977 6.38921 6.04961
#
# Compressibility (1/GPa) = 0.02674132
#
# Stress axis : x y z
#
# Youngs Moduli (GPa) = 65.49000 142.76841 69.92712
#
# Poissons Ratio (x) = 0.28701 -0.09072
# Poissons Ratio (y) = 0.13166 0.29395
# Poissons Ratio (z) = -0.08497 0.60014
#
# Static dielectric constant tensor:
#      x y z
#    x 1.948150 0.000000 0.000000 
#    y 0.000000 2.034300 0.000000 
#    z 0.000000 0.000000 1.890320 
# 
# From -- ./inp_files/9561.got.cif
#   From: 2010.05.17/outbox.cif.g08.bks.cpg/sg62_5_cif.got.tgz:9561.got - 2010.06.03 15:25:27.
