data_PCOD9464449
_publ_section_title
;
Structure prediction by ZEFSAII (Michael W. Deem and Ramdas Pophale) SiO2 
 PCOD9464449
Probable space group: P N M A
;
_chemical_formula_sum "Si O2"
_cell_formula_units_Z 56
_cell_length_a 15.254284
_cell_length_b 7.741744
_cell_length_c 21.557864
_cell_angle_alpha 90.000000
_cell_angle_beta 90.000000
_cell_angle_gamma 90.000000
_cell_volume 2545.870810
_symmetry_space_group_name_H-M "P N M A"
_symmetry_group_IT_number 62
_symmetry_cell_setting 'orthorhombic'
loop_
_space_group_symop_operation_xyz
x,y,z
1/2-x,-y,1/2+z
1/2+x,1/2-y,1/2-z
-x,1/2+y,-z
-x,-y,-z
1/2+x,y,1/2-z
1/2-x,1/2+y,1/2+z
x,1/2-y,z
loop_
_atom_site_type_symbol
_atom_site_label
_atom_site_fract_x
_atom_site_fract_y
_atom_site_fract_z
Si Si1 0.595117 0.447502 0.625643
Si Si2 0.714628 0.041610 0.881023
Si Si3 0.101796 0.043716 0.504156
Si Si4 0.405240 0.461337 0.637164
Si Si5 0.783672 0.454571 0.613651
Si Si6 0.396967 0.449455 0.234546
Si Si7 0.911335 0.458735 0.719184
O O1 0.591842 0.250000 0.602754
O O2 0.499109 0.524958 0.612176
O O3 0.686343 0.529172 0.603586
O O4 0.603260 0.447199 0.700975
O O5 0.715107 0.250000 0.882520
O O6 0.814213 0.982994 0.893239
O O7 0.679844 0.992567 0.813100
O O8 0.647578 0.977665 0.933074
O O9 0.109830 0.250000 0.503714
O O10 0.154983 0.975170 0.445465
O O11 0.000000 0.000000 0.500000
O O12 0.408461 0.250000 0.635923
O O13 0.398858 0.512296 0.709611
O O14 0.770999 0.250000 0.625461
O O15 0.836724 0.525015 0.672970
O O16 0.392724 0.250000 0.252014
O O17 0.490295 0.485617 0.201469
O O18 0.909783 0.250000 0.717355
#
# Coordination Sequence:
#
# PCOD9464449 Si02
#       7
#     8   8   8   8   8   8   8
#     4   9  18  35  57  79 104 137 173 210 254 314
#     4  10  20  36  55  74 100 140 182 216 256 311
#     4  11  24  39  56  77 105 139 177 221 265 311
#     4   8  15  31  56  79  99 128 173 216 248 298
#     4  10  20  35  57  80 104 138 179 217 259 311
#     4  11  21  31  49  80 112 139 168 213 265 309
#     4   9  17  31  52  77 103 135 170 207 253 310
#
# _framework density 21.996403000000001
#
# number of rings (size 3 to 8) (size 9 to 14) (size 15 to 20)
#    0.000    2.286    0.000    4.286    0.000    8.000 
#    0.000    6.429    0.000    0.000    0.000    0.000 
#    0.000    0.000    0.000    0.000    0.000    0.000 
#
# Total GULP energy -312678.991725 kJ/mol
# GULP energy per Si atom -5583.553424 kJ/mol
# Density = 2.194634 g / cm^3
# Si number density = 21.996403 Si / 1000 Ang^3
#
#
#
# Elastic Constant Matrix: (Units=GPa)
#
#
# Indices 1 2 3 4 5 6 
#
# 1 204.0783 -0.2929 28.9077 0.0000 0.0000 0.0000
# 2 -0.2929 45.6982 -8.4471 0.0000 0.0000 0.0000
# 3 28.9077 -8.4471 20.6077 0.0000 0.0000 0.0000
# 4 0.0000 0.0000 0.0000 14.1717 0.0000 0.0000
# 5 0.0000 0.0000 0.0000 0.0000 33.1126 0.0000
# 6 0.0000 0.0000 0.0000 0.0000 0.0000 -0.5364
#
#
#
# Elastic Compliance Matrix: (Units=1/GPa)
#
#
# Indices 1 2 3 4 5 6 
#
# 1 0.006236 -0.001706 -0.009447 0.000000 0.000000 0.000000
# 2 -0.001706 0.024143 0.012290 0.000000 0.000000 0.000000
# 3 -0.009447 0.012290 0.066814 0.000000 0.000000 0.000000
# 4 0.000000 0.000000 0.000000 0.070563 0.000000 0.000000
# 5 0.000000 0.000000 0.000000 0.000000 0.030200 0.000000
# 6 0.000000 0.000000 0.000000 0.000000 0.000000 -1.864229
#
#
# Mechanical properties :
#
#
# Convention : Reuss Voigt Hill
#
# Bulk Modulus (GPa) = 10.05354 34.52440 22.28897
# Shear Modulus (GPa) = -3.05737 26.03066 11.48664
#
# Velocity S-wave (km/s) = -1.18024 3.44380 2.28766
# Velocity P-wave (km/s) = 1.65021 5.61627 4.13919
#
# Compressibility (1/GPa) = 0.09946740
#
# Stress axis : x y z
#
# Youngs Moduli (GPa) = 160.36580 41.41906 14.96685
#
# Poissons Ratio (x) = 0.07067 0.14139
# Poissons Ratio (y) = 0.27361 -0.18394
# Poissons Ratio (z) = 1.51491 -0.50903
#
# Static dielectric constant tensor:
#      x y z
#    x 1.840210 0.000000 0.000000 
#    y 0.000000 1.827670 0.000000 
#    z 0.000000 0.000000 1.765330 
# 
# From -- ./inp_files/27058.got.cif
#   From: 2010.05.17/outbox.cif.g08.bks.cpg/sg62_14_cif.got.tgz:27058.got - 2010.06.03 15:25:27.
