data_PCOD9464117
_publ_section_title
;
Structure prediction by ZEFSAII (Michael W. Deem and Ramdas Pophale) SiO2 
 PCOD9464117
Probable space group: P N M A
;
_chemical_formula_sum "Si O2"
_cell_formula_units_Z 48
_cell_length_a 23.295317
_cell_length_b 21.390007
_cell_length_c 5.271989
_cell_angle_alpha 90.000000
_cell_angle_beta 90.000000
_cell_angle_gamma 90.000000
_cell_volume 2626.963550
_symmetry_space_group_name_H-M "P N M A"
_symmetry_group_IT_number 62
_symmetry_cell_setting 'orthorhombic'
loop_
_space_group_symop_operation_xyz
x,y,z
1/2-x,-y,1/2+z
1/2+x,1/2-y,1/2-z
-x,1/2+y,-z
-x,-y,-z
1/2+x,y,1/2-z
1/2-x,1/2+y,1/2+z
x,1/2-y,z
loop_
_atom_site_type_symbol
_atom_site_label
_atom_site_fract_x
_atom_site_fract_y
_atom_site_fract_z
Si Si1 0.378147 0.941708 0.034983
Si Si2 0.049399 0.984218 0.201046
Si Si3 0.980257 0.627495 0.315333
Si Si4 0.630254 0.575965 0.678584
Si Si5 0.463658 0.321992 0.294314
Si Si6 0.246478 0.457510 0.382290
O O1 0.413649 0.892456 0.200091
O O2 0.376235 0.011447 0.159631
O O3 0.313810 0.926029 0.955173
O O4 0.419771 0.953958 0.797224
O O5 0.015160 0.936910 0.380971
O O6 0.101297 0.944054 0.085350
O O7 0.000000 0.000000 0.000000
O O8 0.994976 0.671683 0.550539
O O9 0.005146 0.652859 0.049922
O O10 0.592286 0.634836 0.760791
O O11 0.698078 0.586080 0.654132
O O12 0.447705 0.250000 0.332721
O O13 0.260673 0.503564 0.620284
#
# Coordination Sequence:
#
# PCOD9464117 Si02
#       6
#     8   8   8   8   8   8
#     4  11  19  33  53  86 116 144 174 226 296 347
#     4  11  18  30  49  85 116 145 175 214 286 347
#     4  11  22  34  57  82 111 144 181 229 283 340
#     4  10  20  34  54  80 117 147 182 226 280 344
#     4  11  24  39  56  78 109 149 195 237 273 321
#     4  10  21  33  51  80 117 146 174 214 272 346
#
# _framework density 18.272047000000001
#
# number of rings (size 3 to 8) (size 9 to 14) (size 15 to 20)
#    0.000    1.333    5.000    3.000    0.000    0.000 
#    0.000    0.000    0.000    2.000    0.000    0.000 
#    0.000    0.000    0.000    0.000    0.000    0.000 
#
# Total GULP energy -267480.667844 kJ/mol
# GULP energy per Si atom -5572.513913 kJ/mol
# Density = 1.823046 g / cm^3
# Si number density = 18.272047 Si / 1000 Ang^3
#
#
#
# Elastic Constant Matrix: (Units=GPa)
#
#
# Indices 1 2 3 4 5 6 
#
# 1 154.9799 40.0332 30.1267 0.0000 0.0000 0.0000
# 2 40.0332 75.6341 16.8391 0.0000 0.0000 0.0000
# 3 30.1267 16.8391 71.1252 0.0000 0.0000 0.0000
# 4 0.0000 0.0000 0.0000 18.0344 0.0000 0.0000
# 5 0.0000 0.0000 0.0000 0.0000 23.3884 0.0000
# 6 0.0000 0.0000 0.0000 0.0000 0.0000 13.8775
#
#
#
# Elastic Compliance Matrix: (Units=1/GPa)
#
#
# Indices 1 2 3 4 5 6 
#
# 1 0.007867 -0.003613 -0.002477 0.000000 0.000000 0.000000
# 2 -0.003613 0.015616 -0.002167 0.000000 0.000000 0.000000
# 3 -0.002477 -0.002167 0.015622 0.000000 0.000000 0.000000
# 4 0.000000 0.000000 0.000000 0.055450 0.000000 0.000000
# 5 0.000000 0.000000 0.000000 0.000000 0.042756 0.000000
# 6 0.000000 0.000000 0.000000 0.000000 0.000000 0.072059
#
#
# Mechanical properties :
#
#
# Convention : Reuss Voigt Hill
#
# Bulk Modulus (GPa) = 44.26330 52.85967 48.56148
# Shear Modulus (GPa) = 21.42116 25.37608 23.39862
#
# Velocity S-wave (km/s) = 3.42767 3.73069 3.58239
# Velocity P-wave (km/s) = 6.32000 6.89561 6.61407
#
# Compressibility (1/GPa) = 0.02259208
#
# Stress axis : x y z
#
# Youngs Moduli (GPa) = 127.11106 64.03623 64.01251
#
# Poissons Ratio (x) = 0.23134 0.15856
# Poissons Ratio (y) = 0.45920 0.13871
# Poissons Ratio (z) = 0.31486 0.13876
#
# Static dielectric constant tensor:
#      x y z
#    x 1.657890 0.000000 0.000000 
#    y 0.000000 1.634730 0.000000 
#    z 0.000000 0.000000 1.765060 
# 
# From -- ./inp_files/2797.got.cif
#   From: 2010.05.17/outbox.cif.g08.bks.cpg/sg62_2_cif.got.tgz:2797.got - 2010.06.03 15:25:27.
