data_PCOD9464923
_publ_section_title
;
Structure prediction by ZEFSAII (Michael W. Deem and Ramdas Pophale) SiO2 
 PCOD9464923
Probable space group: P N M A
;
_chemical_formula_sum "Si O2"
_cell_formula_units_Z 48
_cell_length_a 12.425163
_cell_length_b 10.447928
_cell_length_c 19.266474
_cell_angle_alpha 90.000000
_cell_angle_beta 90.000000
_cell_angle_gamma 90.000000
_cell_volume 2501.119871
_symmetry_space_group_name_H-M "P N M A"
_symmetry_group_IT_number 62
_symmetry_cell_setting 'orthorhombic'
loop_
_space_group_symop_operation_xyz
x,y,z
1/2-x,-y,1/2+z
1/2+x,1/2-y,1/2-z
-x,1/2+y,-z
-x,-y,-z
1/2+x,y,1/2-z
1/2-x,1/2+y,1/2+z
x,1/2-y,z
loop_
_atom_site_type_symbol
_atom_site_label
_atom_site_fract_x
_atom_site_fract_y
_atom_site_fract_z
Si Si1 0.306877 0.599765 0.452433
Si Si2 0.928775 0.395865 0.707680
Si Si3 0.257304 0.602288 0.744251
Si Si4 0.439714 0.484294 0.325940
Si Si5 0.451385 0.397329 0.947450
Si Si6 0.157052 0.101491 0.103982
O O1 0.335299 0.750000 0.449943
O O2 0.368711 0.537188 0.388776
O O3 0.178258 0.589519 0.446764
O O4 0.338670 0.541922 0.527643
O O5 0.885153 0.250000 0.706780
O O6 0.836811 0.503140 0.717543
O O7 0.984367 0.416307 0.632997
O O8 0.008375 0.413380 0.772813
O O9 0.296804 0.750000 0.747288
O O10 0.140669 0.596898 0.778371
O O11 0.260322 0.558297 0.663675
O O12 0.540739 0.413641 0.360820
O O13 0.476878 0.250000 0.967549
O O14 0.500000 0.500000 0.000000
O O15 0.182475 0.250000 0.092549
#
# Coordination Sequence:
#
# PCOD9464923 Si02
#       6
#     8   8   8   8   8   8
#     4  10  20  37  60  82 115 156 192 237 297 351
#     4  10  22  39  60  87 119 154 199 246 296 355
#     4  10  21  37  59  86 118 155 194 243 295 347
#     4  11  20  35  60  87 118 152 198 244 299 348
#     4  10  22  40  59  85 117 156 200 243 292 352
#     4   9  20  36  54  83 117 152 197 241 289 353
#
# _framework density 19.191402
#
# number of rings (size 3 to 8) (size 9 to 14) (size 15 to 20)
#    0.000    2.000    1.667    1.500    2.333    2.000 
#    0.000    0.000    0.000    2.000    0.000    0.000 
#    0.000    0.000    0.000    0.000    0.000    0.000 
#
# Total GULP energy -267510.977872 kJ/mol
# GULP energy per Si atom -5573.145372 kJ/mol
# Density = 1.914772 g / cm^3
# Si number density = 19.191402 Si / 1000 Ang^3
#
#
#
# Elastic Constant Matrix: (Units=GPa)
#
#
# Indices 1 2 3 4 5 6 
#
# 1 47.5850 8.1633 38.7160 0.0000 0.0000 0.0000
# 2 8.1633 62.3510 26.9051 0.0000 0.0000 0.0000
# 3 38.7160 26.9051 146.5705 0.0000 0.0000 0.0000
# 4 0.0000 0.0000 0.0000 23.6667 0.0000 0.0000
# 5 0.0000 0.0000 0.0000 0.0000 33.9325 0.0000
# 6 0.0000 0.0000 0.0000 0.0000 0.0000 21.6997
#
#
#
# Elastic Compliance Matrix: (Units=1/GPa)
#
#
# Indices 1 2 3 4 5 6 
#
# 1 0.026782 -0.000493 -0.006984 0.000000 0.000000 0.000000
# 2 -0.000493 0.017427 -0.003069 0.000000 0.000000 0.000000
# 3 -0.006984 -0.003069 0.009231 0.000000 0.000000 0.000000
# 4 0.000000 0.000000 0.000000 0.042253 0.000000 0.000000
# 5 0.000000 0.000000 0.000000 0.000000 0.029470 0.000000
# 6 0.000000 0.000000 0.000000 0.000000 0.000000 0.046084
#
#
# Mechanical properties :
#
#
# Convention : Reuss Voigt Hill
#
# Bulk Modulus (GPa) = 30.91326 44.89725 37.90525
# Shear Modulus (GPa) = 24.61594 28.04126 26.32860
#
# Velocity S-wave (km/s) = 3.58530 3.82663 3.70793
# Velocity P-wave (km/s) = 5.76906 6.55510 6.17460
#
# Compressibility (1/GPa) = 0.03234858
#
# Stress axis : x y z
#
# Youngs Moduli (GPa) = 37.33888 57.38233 108.33392
#
# Poissons Ratio (x) = 0.02828 0.75658
# Poissons Ratio (y) = 0.01840 0.33245
# Poissons Ratio (z) = 0.26077 0.17609
#
# Static dielectric constant tensor:
#      x y z
#    x 1.665790 0.000000 0.000000 
#    y 0.000000 1.654220 0.000000 
#    z 0.000000 0.000000 1.721580 
# 
# From -- ./inp_files/23003.got.cif
#   From: 2010.05.17/outbox.cif.g08.bks.cpg/sg62_12_cif.got.tgz:23003.got - 2010.06.03 15:25:27.
