data_PCOD9464191
_publ_section_title
;
Structure prediction by ZEFSAII (Michael W. Deem and Ramdas Pophale) SiO2 
 PCOD9464191
Probable space group: P N M A
;
_chemical_formula_sum "Si O2"
_cell_formula_units_Z 48
_cell_length_a 9.921466
_cell_length_b 31.128766
_cell_length_c 8.760296
_cell_angle_alpha 90.000000
_cell_angle_beta 90.000000
_cell_angle_gamma 90.000000
_cell_volume 2705.556041
_symmetry_space_group_name_H-M "P N M A"
_symmetry_group_IT_number 62
_symmetry_cell_setting 'orthorhombic'
loop_
_space_group_symop_operation_xyz
x,y,z
1/2-x,-y,1/2+z
1/2+x,1/2-y,1/2-z
-x,1/2+y,-z
-x,-y,-z
1/2+x,y,1/2-z
1/2-x,1/2+y,1/2+z
x,1/2-y,z
loop_
_atom_site_type_symbol
_atom_site_label
_atom_site_fract_x
_atom_site_fract_y
_atom_site_fract_z
Si Si1 0.527279 0.388641 0.401032
Si Si2 0.314164 0.797161 0.921960
Si Si3 0.635518 0.481281 0.928657
Si Si4 0.999121 0.204352 0.126763
Si Si5 0.883204 0.529523 0.067796
Si Si6 0.293526 0.607336 0.906721
O O1 0.540696 0.339352 0.455064
O O2 0.579120 0.422090 0.524794
O O3 0.367134 0.395668 0.371029
O O4 0.616417 0.393944 0.247547
O O5 0.327169 0.750000 0.003356
O O6 0.424792 0.796505 0.788261
O O7 0.321250 0.845959 0.986949
O O8 0.162328 0.796740 0.853357
O O9 0.628997 0.478309 0.746923
O O10 0.500000 0.500000 0.000000
O O11 0.750186 0.514059 0.982090
O O12 0.667730 0.434006 0.994385
O O13 0.033108 0.250000 0.050985
O O14 0.000000 0.500000 0.000000
#
# Coordination Sequence:
#
# PCOD9464191 Si02
#       6
#     8   8   8   8   8   8
#     4  10  20  34  56  82 114 146 184 230 271 328
#     4   8  14  26  47  75 108 141 177 219 263 315
#     4  12  26  40  60  81 110 148 182 229 276 332
#     4   8  14  26  46  75 107 141 178 219 266 314
#     4  12  24  42  58  81 110 143 186 226 277 330
#     4  10  20  35  55  84 113 146 185 226 275 324
#
# _framework density 17.741271000000001
#
# number of rings (size 3 to 8) (size 9 to 14) (size 15 to 20)
#    0.000    2.000    1.667    3.000    2.333    0.000 
#    0.000    0.000    0.000    1.000    0.000    0.000 
#    0.000    0.000    0.000    0.000    0.000    0.000 
#
# Total GULP energy -267209.612388 kJ/mol
# GULP energy per Si atom -5566.866925 kJ/mol
# Density = 1.770089 g / cm^3
# Si number density = 17.741271 Si / 1000 Ang^3
#
#
#
# Elastic Constant Matrix: (Units=GPa)
#
#
# Indices 1 2 3 4 5 6 
#
# 1 96.4892 50.4953 33.4459 0.0000 0.0000 0.0000
# 2 50.4953 154.8571 42.0891 0.0000 0.0000 0.0000
# 3 33.4459 42.0891 85.1487 0.0000 0.0000 0.0000
# 4 0.0000 0.0000 0.0000 21.6888 0.0000 0.0000
# 5 0.0000 0.0000 0.0000 0.0000 15.5373 0.0000
# 6 0.0000 0.0000 0.0000 0.0000 0.0000 27.2234
#
#
#
# Elastic Compliance Matrix: (Units=1/GPa)
#
#
# Indices 1 2 3 4 5 6 
#
# 1 0.013378 -0.003390 -0.003580 0.000000 0.000000 0.000000
# 2 -0.003390 0.008319 -0.002780 0.000000 0.000000 0.000000
# 3 -0.003580 -0.002780 0.014525 0.000000 0.000000 0.000000
# 4 0.000000 0.000000 0.000000 0.046107 0.000000 0.000000
# 5 0.000000 0.000000 0.000000 0.000000 0.064361 0.000000
# 6 0.000000 0.000000 0.000000 0.000000 0.000000 0.036733
#
#
# Mechanical properties :
#
#
# Convention : Reuss Voigt Hill
#
# Bulk Modulus (GPa) = 59.79969 65.39507 62.59738
# Shear Modulus (GPa) = 23.98129 26.92088 25.45108
#
# Velocity S-wave (km/s) = 3.68057 3.89963 3.79168
# Velocity P-wave (km/s) = 7.20013 7.56416 7.38439
#
# Compressibility (1/GPa) = 0.01672249
#
# Stress axis : x y z
#
# Youngs Moduli (GPa) = 74.74713 120.21369 68.84884
#
# Poissons Ratio (x) = 0.40746 0.24645
# Poissons Ratio (y) = 0.25336 0.19143
# Poissons Ratio (z) = 0.26756 0.33425
#
# Static dielectric constant tensor:
#      x y z
#    x 1.589770 0.000000 0.000000 
#    y 0.000000 1.688140 0.000000 
#    z 0.000000 0.000000 1.556230 
# 
# From -- ./inp_files/4488.got.cif
#   From: 2010.05.17/outbox.cif.g08.bks.cpg/sg62_3_cif.got.tgz:4488.got - 2010.06.03 15:25:27.
