data_PCOD9464204
_publ_section_title
;
Structure prediction by ZEFSAII (Michael W. Deem and Ramdas Pophale) SiO2 
 PCOD9464204
Probable space group: P N M A
;
_chemical_formula_sum "Si O2"
_cell_formula_units_Z 40
_cell_length_a 8.503575
_cell_length_b 14.462269
_cell_length_c 13.839390
_cell_angle_alpha 90.000000
_cell_angle_beta 90.000000
_cell_angle_gamma 90.000000
_cell_volume 1701.981871
_symmetry_space_group_name_H-M "P N M A"
_symmetry_group_IT_number 62
_symmetry_cell_setting 'orthorhombic'
loop_
_space_group_symop_operation_xyz
x,y,z
1/2-x,-y,1/2+z
1/2+x,1/2-y,1/2-z
-x,1/2+y,-z
-x,-y,-z
1/2+x,y,1/2-z
1/2-x,1/2+y,1/2+z
x,1/2-y,z
loop_
_atom_site_type_symbol
_atom_site_label
_atom_site_fract_x
_atom_site_fract_y
_atom_site_fract_z
Si Si1 0.375067 0.384320 0.549824
Si Si2 0.187424 0.399149 0.058205
Si Si3 0.090524 0.250000 0.204531
Si Si4 0.388349 0.137481 0.891528
Si Si5 0.816398 0.854295 0.273910
Si Si6 0.751187 0.250000 0.102806
O O1 0.352612 0.493323 0.563537
O O2 0.547100 0.360083 0.510254
O O3 0.332753 0.347538 0.654848
O O4 0.260854 0.337353 0.470079
O O5 0.349590 0.388356 0.000665
O O6 0.172112 0.340324 0.155718
O O7 0.112811 0.250000 0.319387
O O8 0.910089 0.250000 0.168323
O O9 0.390820 0.250000 0.888900
O O10 0.547056 0.103353 0.840015
O O11 0.246920 0.100088 0.823178
O O12 0.864576 0.750000 0.249431
#
# Coordination Sequence:
#
# PCOD9464204 Si02
#       6
#     8   8   4   8   8   4
#     4  10  21  38  60  86 116 152 196 245 298 351
#     4  10  21  38  60  86 116 152 196 245 298 351
#     4  10  22  40  61  84 117 158 197 244 294 354
#     4  10  20  34  56  84 113 147 186 233 288 346
#     4  10  20  34  56  84 113 147 186 233 288 346
#     4  10  22  40  61  84 117 158 197 244 294 354
#
# _framework density 23.502013999999999
#
# number of rings (size 3 to 8) (size 9 to 14) (size 15 to 20)
#    0.000    2.000    2.000    1.200    0.000    5.600 
#    0.000    4.000    0.000    0.000    0.000    0.000 
#    0.000    0.000    0.000    0.000    0.000    0.000 
#
# Total GULP energy -223323.009911 kJ/mol
# GULP energy per Si atom -5583.075248 kJ/mol
# Density = 2.344852 g / cm^3
# Si number density = 23.502014 Si / 1000 Ang^3
#
#
#
# Elastic Constant Matrix: (Units=GPa)
#
#
# Indices 1 2 3 4 5 6 
#
# 1 36.5644 -1.9749 -6.1618 0.0000 0.0000 0.0000
# 2 -1.9749 92.3420 10.7993 0.0000 0.0000 0.0000
# 3 -6.1618 10.7993 83.5150 0.0000 0.0000 0.0000
# 4 0.0000 0.0000 0.0000 2.1177 0.0000 0.0000
# 5 0.0000 0.0000 0.0000 0.0000 45.8617 0.0000
# 6 0.0000 0.0000 0.0000 0.0000 0.0000 10.4058
#
#
#
# Elastic Compliance Matrix: (Units=1/GPa)
#
#
# Indices 1 2 3 4 5 6 
#
# 1 0.027705 0.000359 0.001998 0.000000 0.000000 0.000000
# 2 0.000359 0.011000 -0.001396 0.000000 0.000000 0.000000
# 3 0.001998 -0.001396 0.012302 0.000000 0.000000 0.000000
# 4 0.000000 0.000000 0.000000 0.472200 0.000000 0.000000
# 5 0.000000 0.000000 0.000000 0.000000 0.021805 0.000000
# 6 0.000000 0.000000 0.000000 0.000000 0.000000 0.096100
#
#
# Mechanical properties :
#
#
# Convention : Reuss Voigt Hill
#
# Bulk Modulus (GPa) = 18.89346 24.19406 21.54376
# Shear Modulus (GPa) = 7.61228 25.66098 16.63663
#
# Velocity S-wave (km/s) = 1.80167 3.30792 2.66349
# Velocity P-wave (km/s) = 3.51917 4.99065 4.31805
#
# Compressibility (1/GPa) = 0.05292837
#
# Stress axis : x y z
#
# Youngs Moduli (GPa) = 36.09448 90.90712 81.28895
#
# Poissons Ratio (x) = -0.03263 -0.16239
# Poissons Ratio (y) = -0.01295 0.11348
# Poissons Ratio (z) = -0.07211 0.12690
#
# Static dielectric constant tensor:
#      x y z
#    x 1.989240 0.000000 0.000000 
#    y 0.000000 2.164470 0.000000 
#    z 0.000000 0.000000 1.858770 
# 
# From -- ./inp_files/11112.got.cif
#   From: 2010.05.17/outbox.cif.g08.bks.cpg/sg62_6_cif.got.tgz:11112.got - 2010.06.03 15:25:27.
