data_PCOD9464394
_publ_section_title
;
Structure prediction by ZEFSAII (Michael W. Deem and Ramdas Pophale) SiO2 
 PCOD9464394
Probable space group: P N M A
;
_chemical_formula_sum "Si O2"
_cell_formula_units_Z 56
_cell_length_a 13.387060
_cell_length_b 14.649573
_cell_length_c 15.634325
_cell_angle_alpha 90.000000
_cell_angle_beta 90.000000
_cell_angle_gamma 90.000000
_cell_volume 3066.121156
_symmetry_space_group_name_H-M "P N M A"
_symmetry_group_IT_number 62
_symmetry_cell_setting 'orthorhombic'
loop_
_space_group_symop_operation_xyz
x,y,z
1/2-x,-y,1/2+z
1/2+x,1/2-y,1/2-z
-x,1/2+y,-z
-x,-y,-z
1/2+x,y,1/2-z
1/2-x,1/2+y,1/2+z
x,1/2-y,z
loop_
_atom_site_type_symbol
_atom_site_label
_atom_site_fract_x
_atom_site_fract_y
_atom_site_fract_z
Si Si1 0.717394 0.856339 0.670858
Si Si2 0.187809 0.971920 0.152893
Si Si3 0.408220 0.142686 0.501805
Si Si4 0.889216 0.061981 0.335916
Si Si5 0.387643 0.491274 0.830873
Si Si6 0.873723 0.644148 0.941582
Si Si7 0.342182 0.354907 0.983576
O O1 0.746414 0.750000 0.674758
O O2 0.647637 0.870803 0.588161
O O3 0.654052 0.882286 0.755267
O O4 0.811695 0.923314 0.661653
O O5 0.307393 0.981363 0.151408
O O6 0.148205 0.940858 0.244463
O O7 0.145133 0.913600 0.075556
O O8 0.147389 0.075149 0.135707
O O9 0.403890 0.250000 0.522507
O O10 0.524244 0.118175 0.488608
O O11 0.886369 0.120064 0.423317
O O12 0.999505 0.025284 0.320836
O O13 0.377715 0.425712 0.912475
O O14 0.881423 0.750000 0.913587
O O15 0.777648 0.636442 0.002946
O O16 0.365217 0.250000 0.961938
#
# Coordination Sequence:
#
# PCOD9464394 Si02
#       7
#     8   8   8   8   8   8   8
#     4  10  21  36  57  86 112 138 181 233 283 334
#     4  10  21  35  55  79 110 143 176 222 270 328
#     4  10  20  35  56  82 111 141 176 224 277 327
#     4  10  21  38  56  79 110 146 184 229 282 328
#     4  11  23  37  56  81 112 148 187 227 273 329
#     4   9  18  34  58  82 104 136 178 226 280 324
#     4  10  21  37  56  79 111 150 190 227 265 326
#
# _framework density 18.264118
#
# number of rings (size 3 to 8) (size 9 to 14) (size 15 to 20)
#    0.000    2.000    0.000    3.857    0.000    7.429 
#    0.000    2.143    0.000    0.857    0.000    0.000 
#    0.000    0.000    0.000    0.000    0.000    0.000 
#
# Total GULP energy -312662.690136 kJ/mol
# GULP energy per Si atom -5583.262324 kJ/mol
# Density = 1.822255 g / cm^3
# Si number density = 18.264118 Si / 1000 Ang^3
#
#
#
# Elastic Constant Matrix: (Units=GPa)
#
#
# Indices 1 2 3 4 5 6 
#
# 1 99.7149 38.2135 24.1828 0.0000 0.0000 0.0000
# 2 38.2135 62.5795 47.8969 0.0000 0.0000 0.0000
# 3 24.1828 47.8969 97.3421 0.0000 0.0000 0.0000
# 4 0.0000 0.0000 0.0000 11.0601 0.0000 0.0000
# 5 0.0000 0.0000 0.0000 0.0000 14.3827 0.0000
# 6 0.0000 0.0000 0.0000 0.0000 0.0000 16.8431
#
#
#
# Elastic Compliance Matrix: (Units=1/GPa)
#
#
# Indices 1 2 3 4 5 6 
#
# 1 0.013165 -0.008880 0.001099 0.000000 0.000000 0.000000
# 2 -0.008880 0.031623 -0.013354 0.000000 0.000000 0.000000
# 3 0.001099 -0.013354 0.016571 0.000000 0.000000 0.000000
# 4 0.000000 0.000000 0.000000 0.090415 0.000000 0.000000
# 5 0.000000 0.000000 0.000000 0.000000 0.069528 0.000000
# 6 0.000000 0.000000 0.000000 0.000000 0.000000 0.059371
#
#
# Mechanical properties :
#
#
# Convention : Reuss Voigt Hill
#
# Bulk Modulus (GPa) = 52.38753 53.35809 52.87281
# Shear Modulus (GPa) = 15.18341 18.41341 16.79841
#
# Velocity S-wave (km/s) = 2.88640 3.17862 3.03603
# Velocity P-wave (km/s) = 6.31300 6.53832 6.42665
#
# Compressibility (1/GPa) = 0.01908851
#
# Stress axis : x y z
#
# Youngs Moduli (GPa) = 75.95749 31.62248 60.34709
#
# Poissons Ratio (x) = 0.28082 -0.06631
# Poissons Ratio (y) = 0.67452 0.80587
# Poissons Ratio (z) = -0.08346 0.42228
#
# Static dielectric constant tensor:
#      x y z
#    x 1.619350 0.000000 0.000000 
#    y 0.000000 1.629320 0.000000 
#    z 0.000000 0.000000 1.617340 
# 
# From -- ./inp_files/18084.got.cif
#   From: 2010.05.17/outbox.cif.g08.bks.cpg/sg62_10_cif.got.tgz:18084.got - 2010.06.03 15:25:27.
