data_PCOD9464348
_publ_section_title
;
Structure prediction by ZEFSAII (Michael W. Deem and Ramdas Pophale) SiO2 
 PCOD9464348
Probable space group: P N M A
;
_chemical_formula_sum "Si O2"
_cell_formula_units_Z 48
_cell_length_a 18.625858
_cell_length_b 14.044648
_cell_length_c 9.897988
_cell_angle_alpha 90.000000
_cell_angle_beta 90.000000
_cell_angle_gamma 90.000000
_cell_volume 2589.250505
_symmetry_space_group_name_H-M "P N M A"
_symmetry_group_IT_number 62
_symmetry_cell_setting 'orthorhombic'
loop_
_space_group_symop_operation_xyz
x,y,z
1/2-x,-y,1/2+z
1/2+x,1/2-y,1/2-z
-x,1/2+y,-z
-x,-y,-z
1/2+x,y,1/2-z
1/2-x,1/2+y,1/2+z
x,1/2-y,z
loop_
_atom_site_type_symbol
_atom_site_label
_atom_site_fract_x
_atom_site_fract_y
_atom_site_fract_z
Si Si1 0.781900 0.637817 0.909690
Si Si2 0.917495 0.636733 0.707123
Si Si3 0.180626 0.865210 0.824247
Si Si4 0.463029 0.017614 0.355561
Si Si5 0.688955 0.135432 0.983592
Si Si6 0.648563 0.364063 0.686412
O O1 0.768038 0.750000 0.927658
O O2 0.852238 0.629391 0.815028
O O3 0.714464 0.603401 0.820692
O O4 0.804648 0.602867 0.057479
O O5 0.938018 0.750000 0.702119
O O6 0.881769 0.604647 0.565942
O O7 0.980326 0.568131 0.756680
O O8 0.174661 0.750000 0.822978
O O9 0.105359 0.912146 0.858927
O O10 0.239764 0.892439 0.936535
O O11 0.500000 0.000000 0.500000
O O12 0.427501 0.917606 0.312800
O O13 0.686790 0.250000 0.994662
O O14 0.687320 0.112954 0.826679
O O15 0.638627 0.250000 0.676604
#
# Coordination Sequence:
#
# PCOD9464348 Si02
#       6
#     8   8   8   8   8   8
#     4   8  15  32  57  77 101 139 178 224 271 319
#     4   9  17  34  57  79 107 143 184 225 272 336
#     4   9  19  36  58  82 107 139 188 235 272 326
#     4  12  23  32  53  86 114 148 187 227 282 333
#     4   8  17  36  60  80 105 147 187 228 280 329
#     4  10  20  35  55  80 111 144 185 229 280 334
#
# _framework density 18.538184000000001
#
# number of rings (size 3 to 8) (size 9 to 14) (size 15 to 20)
#    0.000    2.667    1.667    2.500    0.000    2.667 
#    0.000    0.000    3.667    0.000    0.000    0.000 
#    0.000    0.000    0.000    0.000    0.000    0.000 
#
# Total GULP energy -267474.173624 kJ/mol
# GULP energy per Si atom -5572.378617 kJ/mol
# Density = 1.849599 g / cm^3
# Si number density = 18.538184 Si / 1000 Ang^3
#
#
#
# Elastic Constant Matrix: (Units=GPa)
#
#
# Indices 1 2 3 4 5 6 
#
# 1 100.1492 37.1488 40.4498 0.0000 0.0000 0.0000
# 2 37.1488 97.8297 18.8012 0.0000 0.0000 0.0000
# 3 40.4498 18.8012 122.7913 0.0000 0.0000 0.0000
# 4 0.0000 0.0000 0.0000 10.6755 0.0000 0.0000
# 5 0.0000 0.0000 0.0000 0.0000 -4.4700 0.0000
# 6 0.0000 0.0000 0.0000 0.0000 0.0000 34.7353
#
#
#
# Elastic Compliance Matrix: (Units=1/GPa)
#
#
# Indices 1 2 3 4 5 6 
#
# 1 0.013032 -0.004249 -0.003643 0.000000 0.000000 0.000000
# 2 -0.004249 0.011917 -0.000425 0.000000 0.000000 0.000000
# 3 -0.003643 -0.000425 0.009409 0.000000 0.000000 0.000000
# 4 0.000000 0.000000 0.000000 0.093673 0.000000 0.000000
# 5 0.000000 0.000000 0.000000 0.000000 -0.223714 0.000000
# 6 0.000000 0.000000 0.000000 0.000000 0.000000 0.028789
#
#
# Mechanical properties :
#
#
# Convention : Reuss Voigt Hill
#
# Bulk Modulus (GPa) = 56.41595 57.06331 56.73963
# Shear Modulus (GPa) = -112.73183 23.14619 -44.79282
#
# Velocity S-wave (km/s) = -7.80658 3.53734 -4.92087
# Velocity P-wave (km/s) = 7.12450 6.89435 1.27012
#
# Compressibility (1/GPa) = 0.01772548
#
# Stress axis : x y z
#
# Youngs Moduli (GPa) = 76.73244 83.91452 106.28226
#
# Poissons Ratio (x) = 0.35653 0.38714
# Poissons Ratio (y) = 0.32601 0.04518
# Poissons Ratio (z) = 0.27950 0.03567
#
# Static dielectric constant tensor:
#      x y z
#    x 1.611680 0.000000 0.000000 
#    y 0.000000 1.681580 0.000000 
#    z 0.000000 0.000000 1.667880 
# 
# From -- ./inp_files/7628.got.cif
#   From: 2010.05.17/outbox.cif.g08.bks.cpg/sg62_4_cif.got.tgz:7628.got - 2010.06.03 15:25:27.
