data_PCOD9464423
_publ_section_title
;
Structure prediction by ZEFSAII (Michael W. Deem and Ramdas Pophale) SiO2 
 PCOD9464423
Probable space group: P N M A
;
_chemical_formula_sum "Si O2"
_cell_formula_units_Z 64
_cell_length_a 25.426431
_cell_length_b 8.067919
_cell_length_c 15.141969
_cell_angle_alpha 90.000000
_cell_angle_beta 90.000000
_cell_angle_gamma 90.000000
_cell_volume 3106.199078
_symmetry_space_group_name_H-M "P N M A"
_symmetry_group_IT_number 62
_symmetry_cell_setting 'orthorhombic'
loop_
_space_group_symop_operation_xyz
x,y,z
1/2-x,-y,1/2+z
1/2+x,1/2-y,1/2-z
-x,1/2+y,-z
-x,-y,-z
1/2+x,y,1/2-z
1/2-x,1/2+y,1/2+z
x,1/2-y,z
loop_
_atom_site_type_symbol
_atom_site_label
_atom_site_fract_x
_atom_site_fract_y
_atom_site_fract_z
Si Si1 0.856758 0.445592 0.859239
Si Si2 0.482965 0.050169 0.401503
Si Si3 0.946419 0.442364 0.545469
Si Si4 0.260722 0.450921 0.163306
Si Si5 0.169258 0.549762 0.499943
Si Si6 0.738725 0.549667 0.632474
Si Si7 0.371493 0.452174 0.446915
Si Si8 0.443683 0.943432 0.757309
O O1 0.865841 0.250000 0.848507
O O2 0.795327 0.480260 0.866760
O O3 0.884395 0.536581 0.778448
O O4 0.880766 0.504268 0.952080
O O5 0.485114 0.250000 0.398690
O O6 0.422117 0.997773 0.390610
O O7 0.519833 0.988994 0.322235
O O8 0.500000 0.000000 0.500000
O O9 0.942611 0.250000 0.524649
O O10 0.889878 0.516668 0.515386
O O11 0.950695 0.467907 0.650248
O O12 0.000000 0.500000 0.500000
O O13 0.259319 0.250000 0.161635
O O14 0.304840 0.505060 0.093019
O O15 0.265436 0.502945 0.265398
O O16 0.167269 0.750000 0.501758
O O17 0.209651 0.505182 0.420998
O O18 0.738728 0.750000 0.631084
O O19 0.685214 0.489876 0.585413
O O20 0.369781 0.250000 0.447274
O O21 0.455542 0.750000 0.770727
#
# Coordination Sequence:
#
# PCOD9464423 Si02
#       8
#     8   8   8   8   8   8   8   8
#     4  11  20  34  58  85 118 157 199 244 295 354
#     4  10  20  35  56  83 117 155 195 239 290 350
#     4  11  25  45  67  90 118 156 203 256 308 362
#     4  10  21  36  58  86 117 152 196 246 297 356
#     4  10  22  40  61  87 118 153 193 243 297 351
#     4  10  20  36  58  85 115 152 193 235 288 352
#     4   9  18  33  54  81 112 151 191 237 293 348
#     4  11  23  38  61  91 121 160 205 251 301 359
#
# _framework density 20.603961000000002
#
# number of rings (size 3 to 8) (size 9 to 14) (size 15 to 20)
#    0.000    1.750    2.500    1.875    0.000    5.000 
#    0.000    4.375    0.000    1.500    0.000    0.000 
#    0.000    0.000    0.000    0.000    0.000    0.000 
#
# Total GULP energy -357313.660987 kJ/mol
# GULP energy per Si atom -5583.025953 kJ/mol
# Density = 2.055706 g / cm^3
# Si number density = 20.603961 Si / 1000 Ang^3
#
#
#
# Elastic Constant Matrix: (Units=GPa)
#
#
# Indices 1 2 3 4 5 6 
#
# 1 167.1759 10.9747 74.5547 0.0000 0.0000 0.0000
# 2 10.9747 14.0175 6.8903 0.0000 0.0000 0.0000
# 3 74.5547 6.8903 124.5576 0.0000 0.0000 0.0000
# 4 0.0000 0.0000 0.0000 24.0056 0.0000 0.0000
# 5 0.0000 0.0000 0.0000 0.0000 34.1069 0.0000
# 6 0.0000 0.0000 0.0000 0.0000 0.0000 23.6539
#
#
#
# Elastic Compliance Matrix: (Units=1/GPa)
#
#
# Indices 1 2 3 4 5 6 
#
# 1 0.008396 -0.004218 -0.004792 0.000000 0.000000 0.000000
# 2 -0.004218 0.075452 -0.001649 0.000000 0.000000 0.000000
# 3 -0.004792 -0.001649 0.010988 0.000000 0.000000 0.000000
# 4 0.000000 0.000000 0.000000 0.041657 0.000000 0.000000
# 5 0.000000 0.000000 0.000000 0.000000 0.029320 0.000000
# 6 0.000000 0.000000 0.000000 0.000000 0.000000 0.042276
#
#
# Mechanical properties :
#
#
# Convention : Reuss Voigt Hill
#
# Bulk Modulus (GPa) = 13.60214 54.51004 34.05609
# Shear Modulus (GPa) = 19.69181 30.57538 25.13360
#
# Velocity S-wave (km/s) = 3.09484 3.85639 3.49641
# Velocity P-wave (km/s) = 4.40304 6.80754 5.73277
#
# Compressibility (1/GPa) = 0.07351785
#
# Stress axis : x y z
#
# Youngs Moduli (GPa) = 119.10928 13.25340 91.00913
#
# Poissons Ratio (x) = 0.05590 0.43611
# Poissons Ratio (y) = 0.50237 0.15011
# Poissons Ratio (z) = 0.57077 0.02186
#
# Static dielectric constant tensor:
#      x y z
#    x 1.766730 0.000000 0.000000 
#    y 0.000000 1.740900 0.000000 
#    z 0.000000 0.000000 1.737890 
# 
# From -- ./inp_files/20836.got.cif
#   From: 2010.05.17/outbox.cif.g08.bks.cpg/sg62_11_cif.got.tgz:20836.got - 2010.06.03 15:25:27.
