data_PCOD9464619
_publ_section_title
;
Structure prediction by ZEFSAII (Michael W. Deem and Ramdas Pophale) SiO2 
 PCOD9464619
Probable space group: P N M A
;
_chemical_formula_sum "Si O2"
_cell_formula_units_Z 64
_cell_length_a 14.939293
_cell_length_b 8.770098
_cell_length_c 24.573802
_cell_angle_alpha 90.000000
_cell_angle_beta 90.000000
_cell_angle_gamma 90.000000
_cell_volume 3219.636529
_symmetry_space_group_name_H-M "P N M A"
_symmetry_group_IT_number 62
_symmetry_cell_setting 'orthorhombic'
loop_
_space_group_symop_operation_xyz
x,y,z
1/2-x,-y,1/2+z
1/2+x,1/2-y,1/2-z
-x,1/2+y,-z
-x,-y,-z
1/2+x,y,1/2-z
1/2-x,1/2+y,1/2+z
x,1/2-y,z
loop_
_atom_site_type_symbol
_atom_site_label
_atom_site_fract_x
_atom_site_fract_y
_atom_site_fract_z
Si Si1 0.558849 0.568818 0.633112
Si Si2 0.262007 0.929961 0.408117
Si Si3 0.638975 0.932052 0.751587
Si Si4 0.459059 0.567074 0.055198
Si Si5 0.563660 0.567597 0.452355
Si Si6 0.001596 0.568734 0.325304
Si Si7 0.733419 0.432804 0.979615
Si Si8 0.178044 0.431242 0.301413
O O1 0.547827 0.750000 0.629905
O O2 0.644081 0.517948 0.597255
O O3 0.587572 0.530097 0.694787
O O4 0.474924 0.487782 0.605491
O O5 0.277142 0.750000 0.407844
O O6 0.216948 0.983331 0.463440
O O7 0.205840 0.980158 0.355963
O O8 0.629525 0.750000 0.760322
O O9 0.743790 0.965583 0.741751
O O10 0.593008 0.025014 0.799218
O O11 0.469141 0.750000 0.052725
O O12 0.503141 0.515472 0.111827
O O13 0.352599 0.533102 0.057249
O O14 0.500000 0.500000 0.000000
O O15 0.500000 0.500000 0.500000
O O16 0.558203 0.750000 0.455879
O O17 0.667634 0.521815 0.459462
O O18 0.015502 0.750000 0.323784
O O19 0.077930 0.484719 0.290260
O O20 0.735087 0.250000 0.988483
O O21 0.181478 0.250000 0.311213
#
# Coordination Sequence:
#
# PCOD9464619 Si02
#       8
#     8   8   8   8   8   8   8   8
#     4  10  20  36  56  80 115 157 202 249 297 354
#     4  11  20  31  54  86 117 148 198 250 292 346
#     4   9  21  41  63  86 116 156 200 246 297 357
#     4  10  23  42  62  88 120 156 197 246 301 364
#     4  11  21  33  54  83 119 161 202 247 302 365
#     4  11  23  40  64  94 125 154 197 255 308 362
#     4  10  21  37  55  78 117 162 197 234 301 368
#     4  10  21  39  63  87 117 156 199 243 296 360
#
# _framework density 19.878019999999999
#
# number of rings (size 3 to 8) (size 9 to 14) (size 15 to 20)
#    0.000    1.750    1.250    4.125    0.000    7.000 
#    2.250    0.000    0.000    0.000    0.000    0.000 
#    0.000    0.000    0.000    0.000    0.000    0.000 
#
# Total GULP energy -357401.082717 kJ/mol
# GULP energy per Si atom -5584.391917 kJ/mol
# Density = 1.983278 g / cm^3
# Si number density = 19.878020 Si / 1000 Ang^3
#
#
#
# Elastic Constant Matrix: (Units=GPa)
#
#
# Indices 1 2 3 4 5 6 
#
# 1 102.7013 17.9498 24.3862 0.0000 0.0000 0.0000
# 2 17.9498 18.9812 13.8055 0.0000 0.0000 0.0000
# 3 24.3862 13.8055 51.3546 0.0000 0.0000 0.0000
# 4 0.0000 0.0000 0.0000 27.2346 0.0000 0.0000
# 5 0.0000 0.0000 0.0000 0.0000 26.2320 0.0000
# 6 0.0000 0.0000 0.0000 0.0000 0.0000 26.8907
#
#
#
# Elastic Compliance Matrix: (Units=1/GPa)
#
#
# Indices 1 2 3 4 5 6 
#
# 1 0.012104 -0.009032 -0.003320 0.000000 0.000000 0.000000
# 2 -0.009032 0.072227 -0.015128 0.000000 0.000000 0.000000
# 3 -0.003320 -0.015128 0.025116 0.000000 0.000000 0.000000
# 4 0.000000 0.000000 0.000000 0.036718 0.000000 0.000000
# 5 0.000000 0.000000 0.000000 0.000000 0.038121 0.000000
# 6 0.000000 0.000000 0.000000 0.000000 0.000000 0.037188
#
#
# Mechanical properties :
#
#
# Convention : Reuss Voigt Hill
#
# Bulk Modulus (GPa) = 18.35254 31.70222 25.02738
# Shear Modulus (GPa) = 16.97248 23.86450 20.41849
#
# Velocity S-wave (km/s) = 2.92521 3.46865 3.20846
# Velocity P-wave (km/s) = 4.54552 5.65907 5.13258
#
# Compressibility (1/GPa) = 0.05448838
#
# Stress axis : x y z
#
# Youngs Moduli (GPa) = 82.61919 13.84520 39.81589
#
# Poissons Ratio (x) = 0.12504 0.13217
# Poissons Ratio (y) = 0.74618 0.60233
# Poissons Ratio (z) = 0.27427 0.20945
#
# Static dielectric constant tensor:
#      x y z
#    x 1.748190 0.000000 0.000000 
#    y 0.000000 1.657220 0.000000 
#    z 0.000000 0.000000 1.701030 
# 
# From -- ./inp_files/29864.got.cif
#   From: 2010.05.17/outbox.cif.g08.bks.cpg/sg62_15_cif.got.tgz:29864.got - 2010.06.03 15:25:27.
