data_PCOD9464744
_publ_section_title
;
Structure prediction by ZEFSAII (Michael W. Deem and Ramdas Pophale) SiO2 
 PCOD9464744
Probable space group: P N M A
;
_chemical_formula_sum "Si O2"
_cell_formula_units_Z 48
_cell_length_a 19.796070
_cell_length_b 13.604905
_cell_length_c 8.436318
_cell_angle_alpha 90.000000
_cell_angle_beta 90.000000
_cell_angle_gamma 90.000000
_cell_volume 2272.099971
_symmetry_space_group_name_H-M "P N M A"
_symmetry_group_IT_number 62
_symmetry_cell_setting 'orthorhombic'
loop_
_space_group_symop_operation_xyz
x,y,z
1/2-x,-y,1/2+z
1/2+x,1/2-y,1/2-z
-x,1/2+y,-z
-x,-y,-z
1/2+x,y,1/2-z
1/2-x,1/2+y,1/2+z
x,1/2-y,z
loop_
_atom_site_type_symbol
_atom_site_label
_atom_site_fract_x
_atom_site_fract_y
_atom_site_fract_z
Si Si1 0.315901 0.995754 0.140366
Si Si2 0.118870 0.644710 0.223889
Si Si3 0.952493 0.637409 0.911621
Si Si4 0.435051 0.532962 0.899195
Si Si5 0.602974 0.552794 0.574103
Si Si6 0.254183 0.638310 0.414704
O O1 0.290136 0.913253 0.263986
O O2 0.363500 0.060566 0.255390
O O3 0.367767 0.957590 0.005964
O O4 0.256530 0.061640 0.060456
O O5 0.084972 0.750000 0.213978
O O6 0.070986 0.558623 0.278877
O O7 0.177689 0.648847 0.351444
O O8 0.146832 0.611961 0.054103
O O9 0.942137 0.750000 0.958011
O O10 0.939870 0.622681 0.723227
O O11 0.030064 0.604037 0.931625
O O12 0.908211 0.559954 0.014828
O O13 0.500000 0.500000 0.000000
O O14 0.278258 0.750000 0.451721
#
# Coordination Sequence:
#
# PCOD9464744 Si02
#       6
#     8   8   8   8   8   8
#     4  11  22  41  64  85 127 163 204 269 314 363
#     4   9  19  36  58  84 116 154 203 250 295 365
#     4  10  21  36  56  86 122 160 202 242 300 379
#     4  10  20  37  56  87 124 163 201 252 312 371
#     4  10  20  36  59  85 119 157 197 249 308 360
#     4  10  23  41  62  91 119 161 215 256 313 375
#
# _framework density 21.125831999999999
#
# number of rings (size 3 to 8) (size 9 to 14) (size 15 to 20)
#    0.000    2.000    1.667    1.500    0.000    3.333 
#    0.000    0.833    0.000    0.000    0.000    0.000 
#    0.000    0.000    0.000    0.000    0.000    0.000 
#
# Total GULP energy -267506.727122 kJ/mol
# GULP energy per Si atom -5573.056815 kJ/mol
# Density = 2.107775 g / cm^3
# Si number density = 21.125832 Si / 1000 Ang^3
#
#
#
# Elastic Constant Matrix: (Units=GPa)
#
#
# Indices 1 2 3 4 5 6 
#
# 1 44.8086 23.3853 18.6221 0.0000 0.0000 0.0000
# 2 23.3853 120.8261 27.9375 0.0000 0.0000 0.0000
# 3 18.6221 27.9375 97.7392 0.0000 0.0000 0.0000
# 4 0.0000 0.0000 0.0000 21.2095 0.0000 0.0000
# 5 0.0000 0.0000 0.0000 0.0000 45.2109 0.0000
# 6 0.0000 0.0000 0.0000 0.0000 0.0000 16.1950
#
#
#
# Elastic Compliance Matrix: (Units=1/GPa)
#
#
# Indices 1 2 3 4 5 6 
#
# 1 0.026063 -0.004172 -0.003773 0.000000 0.000000 0.000000
# 2 -0.004172 0.009530 -0.001929 0.000000 0.000000 0.000000
# 3 -0.003773 -0.001929 0.011502 0.000000 0.000000 0.000000
# 4 0.000000 0.000000 0.000000 0.047149 0.000000 0.000000
# 5 0.000000 0.000000 0.000000 0.000000 0.022119 0.000000
# 6 0.000000 0.000000 0.000000 0.000000 0.000000 0.061748
#
#
# Mechanical properties :
#
#
# Convention : Reuss Voigt Hill
#
# Bulk Modulus (GPa) = 36.56885 44.80708 40.68797
# Shear Modulus (GPa) = 24.15781 29.41834 26.78807
#
# Velocity S-wave (km/s) = 3.38527 3.73571 3.56480
# Velocity P-wave (km/s) = 5.71206 6.31372 6.02041
#
# Compressibility (1/GPa) = 0.02734568
#
# Stress axis : x y z
#
# Youngs Moduli (GPa) = 38.36929 104.93343 86.94418
#
# Poissons Ratio (x) = 0.43776 0.32806
# Poissons Ratio (y) = 0.16007 0.16773
# Poissons Ratio (z) = 0.14477 0.20243
#
# Static dielectric constant tensor:
#      x y z
#    x 1.807840 0.000000 0.000000 
#    y 0.000000 1.821540 0.000000 
#    z 0.000000 0.000000 1.816470 
# 
# From -- ./inp_files/9321.got.cif
#   From: 2010.05.17/outbox.cif.g08.bks.cpg/sg62_5_cif.got.tgz:9321.got - 2010.06.03 15:25:27.
