data_PCOD9464662
_publ_section_title
;
Structure prediction by ZEFSAII (Michael W. Deem and Ramdas Pophale) SiO2 
 PCOD9464662
Probable space group: P N M A
;
_chemical_formula_sum "Si O2"
_cell_formula_units_Z 48
_cell_length_a 14.591359
_cell_length_b 7.572177
_cell_length_c 20.759225
_cell_angle_alpha 90.000000
_cell_angle_beta 90.000000
_cell_angle_gamma 90.000000
_cell_volume 2293.652580
_symmetry_space_group_name_H-M "P N M A"
_symmetry_group_IT_number 62
_symmetry_cell_setting 'orthorhombic'
loop_
_space_group_symop_operation_xyz
x,y,z
1/2-x,-y,1/2+z
1/2+x,1/2-y,1/2-z
-x,1/2+y,-z
-x,-y,-z
1/2+x,y,1/2-z
1/2-x,1/2+y,1/2+z
x,1/2-y,z
loop_
_atom_site_type_symbol
_atom_site_label
_atom_site_fract_x
_atom_site_fract_y
_atom_site_fract_z
Si Si1 0.058153 0.954183 0.309280
Si Si2 0.563975 0.540300 0.439220
Si Si3 0.554230 0.960373 0.934539
Si Si4 0.748982 0.032954 0.638425
Si Si5 0.760063 0.455965 0.490590
Si Si6 0.450648 0.966520 0.315030
O O1 0.075034 0.750000 0.291854
O O2 0.158677 0.028573 0.325853
O O3 0.998387 0.028988 0.250627
O O4 0.998400 0.960052 0.374093
O O5 0.500000 0.500000 0.500000
O O6 0.573120 0.750000 0.433450
O O7 0.664175 0.468351 0.454270
O O8 0.513397 0.476499 0.375096
O O9 0.555458 0.750000 0.923263
O O10 0.656647 0.029486 0.948329
O O11 0.500000 0.000000 0.000000
O O12 0.749325 0.250000 0.637682
O O13 0.751563 0.972908 0.563534
O O14 0.654099 0.977894 0.671906
O O15 0.783207 0.250000 0.499592
O O16 0.448112 0.750000 0.314661
#
# Coordination Sequence:
#
# PCOD9464662 Si02
#       6
#     8   8   8   8   8   8
#     4  10  20  36  59  84 111 150 189 231 285 337
#     4  11  21  35  57  87 114 146 192 239 280 332
#     4  11  22  37  58  84 113 147 188 235 283 337
#     4   9  16  32  55  79 111 149 183 225 286 340
#     4  10  20  36  57  81 113 151 186 231 289 340
#     4   9  19  34  56  83 113 147 189 231 277 339
#
# _framework density 20.927320999999999
#
# number of rings (size 3 to 8) (size 9 to 14) (size 15 to 20)
#    0.000    2.000    3.333    1.000    0.000    2.667 
#    0.000    5.000    0.000    0.000    0.000    0.000 
#    0.000    0.000    0.000    0.000    0.000    0.000 
#
# Total GULP energy -268024.578753 kJ/mol
# GULP energy per Si atom -5583.845391 kJ/mol
# Density = 2.087969 g / cm^3
# Si number density = 20.927321 Si / 1000 Ang^3
#
#
#
# Elastic Constant Matrix: (Units=GPa)
#
#
# Indices 1 2 3 4 5 6 
#
# 1 213.4367 -11.7191 93.2441 0.0000 0.0000 0.0000
# 2 -11.7191 46.5326 -11.9396 0.0000 0.0000 0.0000
# 3 93.2441 -11.9396 157.3333 0.0000 0.0000 0.0000
# 4 0.0000 0.0000 0.0000 15.0562 0.0000 0.0000
# 5 0.0000 0.0000 0.0000 0.0000 29.4544 0.0000
# 6 0.0000 0.0000 0.0000 0.0000 0.0000 13.4772
#
#
#
# Elastic Compliance Matrix: (Units=1/GPa)
#
#
# Indices 1 2 3 4 5 6 
#
# 1 0.006341 0.000645 -0.003709 0.000000 0.000000 0.000000
# 2 0.000645 0.021983 0.001286 0.000000 0.000000 0.000000
# 3 -0.003709 0.001286 0.008652 0.000000 0.000000 0.000000
# 4 0.000000 0.000000 0.000000 0.066418 0.000000 0.000000
# 5 0.000000 0.000000 0.000000 0.000000 0.033951 0.000000
# 6 0.000000 0.000000 0.000000 0.000000 0.000000 0.074199
#
#
# Mechanical properties :
#
#
# Convention : Reuss Voigt Hill
#
# Bulk Modulus (GPa) = 29.92271 61.83038 45.87654
# Shear Modulus (GPa) = 22.10050 34.77871 28.43961
#
# Velocity S-wave (km/s) = 3.25323 4.08104 3.69042
# Velocity P-wave (km/s) = 5.33299 7.19833 6.33470
#
# Compressibility (1/GPa) = 0.03341943
#
# Stress axis : x y z
#
# Youngs Moduli (GPa) = 157.70282 45.49030 115.58421
#
# Poissons Ratio (x) = -0.02935 0.42871
# Poissons Ratio (y) = -0.10176 -0.14862
# Poissons Ratio (z) = 0.58493 -0.05849
#
# Static dielectric constant tensor:
#      x y z
#    x 1.725550 0.000000 0.000000 
#    y 0.000000 1.814210 0.000000 
#    z 0.000000 0.000000 1.686360 
# 
# From -- ./inp_files/26857.got.cif
#   From: 2010.05.17/outbox.cif.g08.bks.cpg/sg62_14_cif.got.tgz:26857.got - 2010.06.03 15:25:27.
