data_PCOD9464611
_publ_section_title
;
Structure prediction by ZEFSAII (Michael W. Deem and Ramdas Pophale) SiO2 
 PCOD9464611
Probable space group: P N M A
;
_chemical_formula_sum "Si O2"
_cell_formula_units_Z 64
_cell_length_a 13.936820
_cell_length_b 18.822321
_cell_length_c 12.771077
_cell_angle_alpha 90.000000
_cell_angle_beta 90.000000
_cell_angle_gamma 90.000000
_cell_volume 3350.151060
_symmetry_space_group_name_H-M "P N M A"
_symmetry_group_IT_number 62
_symmetry_cell_setting 'orthorhombic'
loop_
_space_group_symop_operation_xyz
x,y,z
1/2-x,-y,1/2+z
1/2+x,1/2-y,1/2-z
-x,1/2+y,-z
-x,-y,-z
1/2+x,y,1/2-z
1/2-x,1/2+y,1/2+z
x,1/2-y,z
loop_
_atom_site_type_symbol
_atom_site_label
_atom_site_fract_x
_atom_site_fract_y
_atom_site_fract_z
Si Si1 0.805148 0.830939 0.890812
Si Si2 0.678008 0.165390 0.154932
Si Si3 0.998955 0.428300 0.665179
Si Si4 0.527477 0.903227 0.820917
Si Si5 0.301086 0.922292 0.052407
Si Si6 0.664263 0.585790 0.003517
Si Si7 0.994058 0.598039 0.904629
Si Si8 0.591162 0.559045 0.382870
O O1 0.773140 0.750000 0.896074
O O2 0.785393 0.857973 0.771038
O O3 0.763680 0.874177 0.989408
O O4 0.919669 0.837957 0.901930
O O5 0.690606 0.250000 0.147822
O O6 0.565554 0.144165 0.159153
O O7 0.714277 0.127131 0.049474
O O8 0.000869 0.514447 0.655769
O O9 0.101590 0.403846 0.617702
O O10 0.908827 0.401739 0.597443
O O11 0.972030 0.413724 0.785427
O O12 0.609632 0.885304 0.901170
O O13 0.556815 0.898404 0.700192
O O14 0.204885 0.925956 0.122862
O O15 0.317704 0.001999 0.008706
O O16 0.930489 0.525628 0.891393
O O17 0.053363 0.591874 0.009450
#
# Coordination Sequence:
#
# PCOD9464611 Si02
#       8
#     8   8   8   8   8   8   8   8
#     4  10  22  37  57  89 124 156 193 244 304 359
#     4  10  20  36  57  84 121 155 192 244 301 357
#     4  10  20  36  55  88 120 147 197 247 288 345
#     4   9  17  33  55  81 117 148 186 238 298 342
#     4  11  20  36  59  85 117 157 197 250 293 346
#     4  11  19  33  58  88 117 156 192 244 294 344
#     4   9  19  37  53  86 119 146 193 241 290 347
#     4  10  21  35  59  87 112 156 197 238 295 345
#
# _framework density 19.103615999999999
#
# number of rings (size 3 to 8) (size 9 to 14) (size 15 to 20)
#    0.000    2.000    3.750    0.750    1.750    1.500 
#    2.250    0.625    0.000    4.500    0.000    0.000 
#    0.000    0.000    0.000    0.000    0.000    0.000 
#
# Total GULP energy -356559.886574 kJ/mol
# GULP energy per Si atom -5571.248228 kJ/mol
# Density = 1.906013 g / cm^3
# Si number density = 19.103616 Si / 1000 Ang^3
#
#
#
# Elastic Constant Matrix: (Units=GPa)
#
#
# Indices 1 2 3 4 5 6 
#
# 1 53.7241 8.7581 28.4820 0.0000 0.0000 0.0000
# 2 8.7581 26.3531 22.6915 0.0000 0.0000 0.0000
# 3 28.4820 22.6915 93.2634 0.0000 0.0000 0.0000
# 4 0.0000 0.0000 0.0000 20.0813 0.0000 0.0000
# 5 0.0000 0.0000 0.0000 0.0000 28.8531 0.0000
# 6 0.0000 0.0000 0.0000 0.0000 0.0000 13.1885
#
#
#
# Elastic Compliance Matrix: (Units=1/GPa)
#
#
# Indices 1 2 3 4 5 6 
#
# 1 0.022289 -0.001956 -0.006331 0.000000 0.000000 0.000000
# 2 -0.001956 0.048174 -0.011124 0.000000 0.000000 0.000000
# 3 -0.006331 -0.011124 0.015362 0.000000 0.000000 0.000000
# 4 0.000000 0.000000 0.000000 0.049798 0.000000 0.000000
# 5 0.000000 0.000000 0.000000 0.000000 0.034658 0.000000
# 6 0.000000 0.000000 0.000000 0.000000 0.000000 0.075823
#
#
# Mechanical properties :
#
#
# Convention : Reuss Voigt Hill
#
# Bulk Modulus (GPa) = 21.27483 32.57822 26.92652
# Shear Modulus (GPa) = 16.63371 19.98519 18.30945
#
# Velocity S-wave (km/s) = 2.95398 3.23793 3.09921
# Velocity P-wave (km/s) = 4.77445 5.57399 5.18964
#
# Compressibility (1/GPa) = 0.04700390
#
# Stress axis : x y z
#
# Youngs Moduli (GPa) = 44.86544 20.75791 65.09484
#
# Poissons Ratio (x) = 0.04061 0.41211
# Poissons Ratio (y) = 0.08776 0.72410
# Poissons Ratio (z) = 0.28404 0.23090
#
# Static dielectric constant tensor:
#      x y z
#    x 1.715030 0.000000 0.000000 
#    y 0.000000 1.664540 0.000000 
#    z 0.000000 0.000000 1.685640 
# 
# From -- ./inp_files/13575.got.cif
#   From: 2010.05.17/outbox.cif.g08.bks.cpg/sg62_7_cif.got.tgz:13575.got - 2010.06.03 15:25:27.
