data_PCOD9464199
_publ_section_title
;
Structure prediction by ZEFSAII (Michael W. Deem and Ramdas Pophale) SiO2 
 PCOD9464199
Probable space group: P N M A
;
_chemical_formula_sum "Si O2"
_cell_formula_units_Z 56
_cell_length_a 5.164521
_cell_length_b 21.038909
_cell_length_c 23.298612
_cell_angle_alpha 90.000000
_cell_angle_beta 90.000000
_cell_angle_gamma 90.000000
_cell_volume 2531.531361
_symmetry_space_group_name_H-M "P N M A"
_symmetry_group_IT_number 62
_symmetry_cell_setting 'orthorhombic'
loop_
_space_group_symop_operation_xyz
x,y,z
1/2-x,-y,1/2+z
1/2+x,1/2-y,1/2-z
-x,1/2+y,-z
-x,-y,-z
1/2+x,y,1/2-z
1/2-x,1/2+y,1/2+z
x,1/2-y,z
loop_
_atom_site_type_symbol
_atom_site_label
_atom_site_fract_x
_atom_site_fract_y
_atom_site_fract_z
Si Si1 0.743324 0.484409 0.065342
Si Si2 0.522964 0.822108 0.391955
Si Si3 0.689168 0.673322 0.218782
Si Si4 0.625046 0.406529 0.956634
Si Si5 0.279535 0.919246 0.608817
Si Si6 0.658851 0.322341 0.288516
Si Si7 0.767041 0.319772 0.486830
O O1 0.637334 0.555683 0.059091
O O2 0.502974 0.447738 0.095729
O O3 0.000571 0.472670 0.101614
O O4 0.765055 0.455049 0.000679
O O5 0.627470 0.750000 0.378516
O O6 0.315255 0.838513 0.343068
O O7 0.387698 0.817527 0.453846
O O8 0.730618 0.877508 0.402247
O O9 0.903471 0.650161 0.264996
O O10 0.672175 0.750000 0.223073
O O11 0.547465 0.345688 0.994773
O O12 0.293674 0.877969 0.666053
O O13 0.341950 0.869359 0.558158
O O14 0.374884 0.327779 0.261045
O O15 0.684865 0.250000 0.312429
O O16 0.780604 0.250000 0.461605
#
# Coordination Sequence:
#
# PCOD9464199 Si02
#       7
#     8   8   8   8   8   8   8
#     4  10  23  36  61  82 117 159 200 235 289 346
#     4  10  20  34  56  83 114 148 184 239 300 351
#     4   9  19  34  52  74 102 140 183 220 265 330
#     4  10  21  36  55  83 119 153 197 238 285 359
#     4  11  21  40  59  89 119 156 197 246 292 356
#     4  10  21  38  63  92 122 159 202 248 299 358
#     4  10  21  34  56  89 123 153 183 238 309 356
#
# _framework density 22.120999000000001
#
# number of rings (size 3 to 8) (size 9 to 14) (size 15 to 20)
#    0.000    2.000    1.429    1.714    4.000    1.714 
#    0.000    1.429    0.000    5.143    0.000    0.000 
#    0.000    0.000    0.000    0.000    0.000    0.000 
#
# Total GULP energy -312912.684252 kJ/mol
# GULP energy per Si atom -5587.726504 kJ/mol
# Density = 2.207065 g / cm^3
# Si number density = 22.120999 Si / 1000 Ang^3
#
#
#
# Elastic Constant Matrix: (Units=GPa)
#
#
# Indices 1 2 3 4 5 6 
#
# 1 64.0380 13.4172 -0.7004 0.0000 0.0000 0.0000
# 2 13.4172 80.3455 11.5108 0.0000 0.0000 0.0000
# 3 -0.7004 11.5108 59.5100 0.0000 0.0000 0.0000
# 4 0.0000 0.0000 0.0000 31.9726 0.0000 0.0000
# 5 0.0000 0.0000 0.0000 0.0000 25.2214 0.0000
# 6 0.0000 0.0000 0.0000 0.0000 0.0000 33.6009
#
#
#
# Elastic Compliance Matrix: (Units=1/GPa)
#
#
# Indices 1 2 3 4 5 6 
#
# 1 0.016213 -0.002813 0.000735 0.000000 0.000000 0.000000
# 2 -0.002813 0.013289 -0.002604 0.000000 0.000000 0.000000
# 3 0.000735 -0.002604 0.017316 0.000000 0.000000 0.000000
# 4 0.000000 0.000000 0.000000 0.031277 0.000000 0.000000
# 5 0.000000 0.000000 0.000000 0.000000 0.039649 0.000000
# 6 0.000000 0.000000 0.000000 0.000000 0.000000 0.029761
#
#
# Mechanical properties :
#
#
# Convention : Reuss Voigt Hill
#
# Bulk Modulus (GPa) = 26.69847 28.03875 27.36861
# Shear Modulus (GPa) = 29.52413 30.13669 29.83041
#
# Velocity S-wave (km/s) = 3.65727 3.69502 3.67619
# Velocity P-wave (km/s) = 5.47080 5.55940 5.51528
#
# Compressibility (1/GPa) = 0.03745534
#
# Stress axis : x y z
#
# Youngs Moduli (GPa) = 61.67853 75.25044 57.74954
#
# Poissons Ratio (x) = 0.21166 -0.04244
# Poissons Ratio (y) = 0.17349 0.15035
# Poissons Ratio (z) = -0.04533 0.19592
#
# Static dielectric constant tensor:
#      x y z
#    x 1.882870 0.000000 0.000000 
#    y 0.000000 1.866960 0.000000 
#    z 0.000000 0.000000 1.799030 
# 
# From -- ./inp_files/28385.got.cif
#   From: 2010.05.17/outbox.cif.g08.bks.cpg/sg62_15_cif.got.tgz:28385.got - 2010.06.03 15:25:27.
