data_PCOD9464045
_publ_section_title
;
Structure prediction by ZEFSAII (Michael W. Deem and Ramdas Pophale) SiO2 
 PCOD9464045
Probable space group: P N M A
;
_chemical_formula_sum "Si O2"
_cell_formula_units_Z 40
_cell_length_a 21.267783
_cell_length_b 8.637649
_cell_length_c 12.865844
_cell_angle_alpha 90.000000
_cell_angle_beta 90.000000
_cell_angle_gamma 90.000000
_cell_volume 2363.502433
_symmetry_space_group_name_H-M "P N M A"
_symmetry_group_IT_number 62
_symmetry_cell_setting 'orthorhombic'
loop_
_space_group_symop_operation_xyz
x,y,z
1/2-x,-y,1/2+z
1/2+x,1/2-y,1/2-z
-x,1/2+y,-z
-x,-y,-z
1/2+x,y,1/2-z
1/2-x,1/2+y,1/2+z
x,1/2-y,z
loop_
_atom_site_type_symbol
_atom_site_label
_atom_site_fract_x
_atom_site_fract_y
_atom_site_fract_z
Si Si1 0.835180 0.065252 0.675499
Si Si2 0.801412 0.435009 0.113076
Si Si3 0.332495 0.935319 0.171842
Si Si4 0.196825 0.065208 0.108748
Si Si5 0.069892 0.435244 0.491452
O O1 0.829101 0.250000 0.673057
O O2 0.770501 0.991364 0.631589
O O3 0.840231 0.006799 0.793918
O O4 0.892141 0.009852 0.603979
O O5 0.802433 0.250000 0.112312
O O6 0.839243 0.500382 0.211791
O O7 0.823449 0.501697 0.003056
O O8 0.323116 0.750000 0.175197
O O9 0.390030 0.970128 0.095584
O O10 0.269110 0.011596 0.126267
O O11 0.193692 0.250000 0.111999
O O12 0.068937 0.250000 0.478754
O O13 0.000000 0.500000 0.500000
#
# Coordination Sequence:
#
# PCOD9464045 Si02
#       5
#     8   8   8   8   8
#     4  11  21  34  53  78 109 142 181 223 272 323
#     4  11  20  32  52  79 111 142 176 221 273 325
#     4  10  20  34  52  77 108 141 180 222 268 321
#     4  11  20  32  53  79 110 143 176 220 274 325
#     4  11  23  38  57  79 110 146 186 226 266 320
#
# _framework density 16.924035
#
# number of rings (size 3 to 8) (size 9 to 14) (size 15 to 20)
#    0.000    1.200    2.000    9.000    0.000    2.400 
#    0.000    0.000    0.000    1.200    0.000    0.000 
#    0.000    0.000    0.000    0.000    0.000    0.000 
#
# Total GULP energy -223515.589149 kJ/mol
# GULP energy per Si atom -5587.889729 kJ/mol
# Density = 1.688552 g / cm^3
# Si number density = 16.924035 Si / 1000 Ang^3
#
#
#
# Elastic Constant Matrix: (Units=GPa)
#
#
# Indices 1 2 3 4 5 6 
#
# 1 79.5305 42.3453 51.9972 0.0000 0.0000 0.0000
# 2 42.3453 131.3065 60.0659 0.0000 0.0000 0.0000
# 3 51.9972 60.0659 162.5890 0.0000 0.0000 0.0000
# 4 0.0000 0.0000 0.0000 33.5478 0.0000 0.0000
# 5 0.0000 0.0000 0.0000 0.0000 18.2997 0.0000
# 6 0.0000 0.0000 0.0000 0.0000 0.0000 18.7229
#
#
#
# Elastic Compliance Matrix: (Units=1/GPa)
#
#
# Indices 1 2 3 4 5 6 
#
# 1 0.017243 -0.003656 -0.004164 0.000000 0.000000 0.000000
# 2 -0.003656 0.009940 -0.002503 0.000000 0.000000 0.000000
# 3 -0.004164 -0.002503 0.008407 0.000000 0.000000 0.000000
# 4 0.000000 0.000000 0.000000 0.029808 0.000000 0.000000
# 5 0.000000 0.000000 0.000000 0.000000 0.054646 0.000000
# 6 0.000000 0.000000 0.000000 0.000000 0.000000 0.053410
#
#
# Mechanical properties :
#
#
# Convention : Reuss Voigt Hill
#
# Bulk Modulus (GPa) = 66.91635 75.80475 71.36055
# Shear Modulus (GPa) = 25.11557 28.71526 26.91541
#
# Velocity S-wave (km/s) = 3.85647 4.12359 3.99227
# Velocity P-wave (km/s) = 7.71070 8.21951 7.96917
#
# Compressibility (1/GPa) = 0.01494403
#
# Stress axis : x y z
#
# Youngs Moduli (GPa) = 57.99593 100.60653 118.95260
#
# Poissons Ratio (x) = 0.36781 0.49528
# Poissons Ratio (y) = 0.21203 0.29772
# Poissons Ratio (z) = 0.24148 0.25181
#
# Static dielectric constant tensor:
#      x y z
#    x 1.531650 0.000000 0.000000 
#    y 0.000000 1.561980 0.000000 
#    z 0.000000 0.000000 1.598490 
# 
# From -- ./inp_files/13862.got.cif
#   From: 2010.05.17/outbox.cif.g08.bks.cpg/sg62_7_cif.got.tgz:13862.got - 2010.06.03 15:25:27.
