data_PCOD9464672
_publ_section_title
;
Structure prediction by ZEFSAII (Michael W. Deem and Ramdas Pophale) SiO2 
 PCOD9464672
Probable space group: P N M A
;
_chemical_formula_sum "Si O2"
_cell_formula_units_Z 56
_cell_length_a 13.705939
_cell_length_b 22.770520
_cell_length_c 7.977626
_cell_angle_alpha 90.000000
_cell_angle_beta 90.000000
_cell_angle_gamma 90.000000
_cell_volume 2489.748133
_symmetry_space_group_name_H-M "P N M A"
_symmetry_group_IT_number 62
_symmetry_cell_setting 'orthorhombic'
loop_
_space_group_symop_operation_xyz
x,y,z
1/2-x,-y,1/2+z
1/2+x,1/2-y,1/2-z
-x,1/2+y,-z
-x,-y,-z
1/2+x,y,1/2-z
1/2-x,1/2+y,1/2+z
x,1/2-y,z
loop_
_atom_site_type_symbol
_atom_site_label
_atom_site_fract_x
_atom_site_fract_y
_atom_site_fract_z
Si Si1 0.051032 0.635134 0.704886
Si Si2 0.981866 0.814792 0.032259
Si Si3 0.593659 0.461296 0.349623
Si Si4 0.603715 0.319791 0.965861
Si Si5 0.370143 0.407255 0.674754
Si Si6 0.676715 0.111657 0.636217
Si Si7 0.751718 0.110944 0.165122
O O1 0.997297 0.577339 0.783371
O O2 0.998331 0.656732 0.538657
O O3 0.165720 0.625831 0.700322
O O4 0.028697 0.682507 0.849092
O O5 0.984123 0.750000 0.100636
O O6 0.870777 0.838102 0.017214
O O7 0.050104 0.856829 0.144895
O O8 0.579253 0.529583 0.317694
O O9 0.628392 0.444252 0.539649
O O10 0.683430 0.439805 0.235406
O O11 0.605121 0.250000 0.933515
O O12 0.683324 0.335275 0.109172
O O13 0.634359 0.361800 0.811180
O O14 0.290159 0.397432 0.820807
O O15 0.308238 0.408212 0.502151
#
# Coordination Sequence:
#
# PCOD9464672 Si02
#       7
#     8   8   8   8   8   8   8
#     4   9  20  36  59  84 112 150 194 239 285 336
#     4  10  21  37  58  85 116 152 194 235 283 343
#     4  10  20  37  57  83 115 148 193 240 286 343
#     4  10  20  36  57  83 115 152 193 235 288 350
#     4  10  21  36  59  84 113 155 194 233 286 340
#     4  10  22  36  56  85 117 150 184 237 297 340
#     4   9  20  36  56  82 112 152 196 237 285 340
#
# _framework density 22.492235000000001
#
# number of rings (size 3 to 8) (size 9 to 14) (size 15 to 20)
#    0.000    2.286    0.000    1.714    0.000   13.714 
#    0.000    0.714    0.000   17.143    0.000    0.000 
#    0.000    0.000    0.000    0.000    0.000    0.000 
#
# Total GULP energy -312375.838031 kJ/mol
# GULP energy per Si atom -5578.139965 kJ/mol
# Density = 2.244104 g / cm^3
# Si number density = 22.492235 Si / 1000 Ang^3
#
#
#
# Elastic Constant Matrix: (Units=GPa)
#
#
# Indices 1 2 3 4 5 6 
#
# 1 68.2630 19.2449 4.8846 0.0000 0.0000 0.0000
# 2 19.2449 140.8099 8.6366 0.0000 0.0000 0.0000
# 3 4.8846 8.6366 83.9510 0.0000 0.0000 0.0000
# 4 0.0000 0.0000 0.0000 -3.5285 0.0000 0.0000
# 5 0.0000 0.0000 0.0000 0.0000 32.3451 0.0000
# 6 0.0000 0.0000 0.0000 0.0000 0.0000 11.4614
#
#
#
# Elastic Compliance Matrix: (Units=1/GPa)
#
#
# Indices 1 2 3 4 5 6 
#
# 1 0.015275 -0.002046 -0.000678 0.000000 0.000000 0.000000
# 2 -0.002046 0.007421 -0.000644 0.000000 0.000000 0.000000
# 3 -0.000678 -0.000644 0.012017 0.000000 0.000000 0.000000
# 4 0.000000 0.000000 0.000000 -0.283411 0.000000 0.000000
# 5 0.000000 0.000000 0.000000 0.000000 0.030917 0.000000
# 6 0.000000 0.000000 0.000000 0.000000 0.000000 0.087249
#
#
# Mechanical properties :
#
#
# Convention : Reuss Voigt Hill
#
# Bulk Modulus (GPa) = 35.74537 39.83957 37.79247
# Shear Modulus (GPa) = -43.67988 25.40613 -9.13688
#
# Velocity S-wave (km/s) = -4.41159 3.36453 -2.01769
# Velocity P-wave (km/s) = 3.16587 5.73100 3.37800
#
# Compressibility (1/GPa) = 0.02797565
#
# Stress axis : x y z
#
# Youngs Moduli (GPa) = 65.46829 134.75395 83.21220
#
# Poissons Ratio (x) = 0.27571 0.05644
# Poissons Ratio (y) = 0.13395 0.05362
# Poissons Ratio (z) = 0.04440 0.08683
#
# Static dielectric constant tensor:
#      x y z
#    x 1.853370 0.000000 0.000000 
#    y 0.000000 1.830450 0.000000 
#    z 0.000000 0.000000 1.958210 
# 
# From -- ./inp_files/6791.got.cif
#   From: 2010.05.17/outbox.cif.g08.bks.cpg/sg62_4_cif.got.tgz:6791.got - 2010.06.03 15:25:27.
