data_PCOD9464252
_publ_section_title
;
Structure prediction by ZEFSAII (Michael W. Deem and Ramdas Pophale) SiO2 
 PCOD9464252
Probable space group: P N M A
;
_chemical_formula_sum "Si O2"
_cell_formula_units_Z 44
_cell_length_a 8.668361
_cell_length_b 18.467666
_cell_length_c 11.448967
_cell_angle_alpha 90.000000
_cell_angle_beta 90.000000
_cell_angle_gamma 90.000000
_cell_volume 1832.800964
_symmetry_space_group_name_H-M "P N M A"
_symmetry_group_IT_number 62
_symmetry_cell_setting 'orthorhombic'
loop_
_space_group_symop_operation_xyz
x,y,z
1/2-x,-y,1/2+z
1/2+x,1/2-y,1/2-z
-x,1/2+y,-z
-x,-y,-z
1/2+x,y,1/2-z
1/2-x,1/2+y,1/2+z
x,1/2-y,z
loop_
_atom_site_type_symbol
_atom_site_label
_atom_site_fract_x
_atom_site_fract_y
_atom_site_fract_z
Si Si1 0.331757 0.513127 0.597040
Si Si2 0.588740 0.932278 0.059016
Si Si3 0.885605 0.132857 0.807244
Si Si4 0.871853 0.413436 0.201813
Si Si5 0.425276 0.833933 0.885085
Si Si6 0.859780 0.750000 0.205903
O O1 0.262421 0.550672 0.481613
O O2 0.333713 0.426483 0.599358
O O3 0.498974 0.544172 0.629444
O O4 0.213475 0.537924 0.700048
O O5 0.571931 0.917956 0.195076
O O6 0.521370 0.861408 0.996301
O O7 0.500000 0.000000 0.000000
O O8 0.752668 0.186560 0.762571
O O9 0.023941 0.185540 0.842235
O O10 0.732047 0.377481 0.132533
O O11 0.967100 0.353066 0.274349
O O12 0.393374 0.750000 0.894553
#
# Coordination Sequence:
#
# PCOD9464252 Si02
#       6
#     8   8   8   8   8   4
#     4  10  20  39  66  93 126 170 217 281 324 394
#     4  11  23  39  66  94 126 171 222 277 326 385
#     4  11  22  43  66  95 131 170 226 265 340 395
#     4   9  18  35  58  90 126 166 215 263 336 385
#     4  10  20  34  58  88 124 171 210 265 326 400
#     4  10  24  40  66  88 132 178 204 270 326 398
#
# _framework density 24.006969000000002
#
# number of rings (size 3 to 8) (size 9 to 14) (size 15 to 20)
#    0.000    1.818    0.000    6.000    2.545    0.000 
#    0.000   12.727    0.000    0.000    0.000    0.000 
#    0.000    0.000    0.000    0.000    0.000    0.000 
#
# Total GULP energy -245393.808243 kJ/mol
# GULP energy per Si atom -5577.132006 kJ/mol
# Density = 2.395233 g / cm^3
# Si number density = 24.006969 Si / 1000 Ang^3
#
#
#
# Elastic Constant Matrix: (Units=GPa)
#
#
# Indices 1 2 3 4 5 6 
#
# 1 113.8821 32.3787 13.1352 0.0000 0.0000 0.0000
# 2 32.3787 148.4607 27.6761 0.0000 0.0000 0.0000
# 3 13.1352 27.6761 87.8598 0.0000 0.0000 0.0000
# 4 0.0000 0.0000 0.0000 20.3560 0.0000 0.0000
# 5 0.0000 0.0000 0.0000 0.0000 27.2881 0.0000
# 6 0.0000 0.0000 0.0000 0.0000 0.0000 29.5155
#
#
#
# Elastic Compliance Matrix: (Units=1/GPa)
#
#
# Indices 1 2 3 4 5 6 
#
# 1 0.009415 -0.001903 -0.000808 0.000000 0.000000 0.000000
# 2 -0.001903 0.007541 -0.002091 0.000000 0.000000 0.000000
# 3 -0.000808 -0.002091 0.012161 0.000000 0.000000 0.000000
# 4 0.000000 0.000000 0.000000 0.049125 0.000000 0.000000
# 5 0.000000 0.000000 0.000000 0.000000 0.036646 0.000000
# 6 0.000000 0.000000 0.000000 0.000000 0.000000 0.033880
#
#
# Mechanical properties :
#
#
# Convention : Reuss Voigt Hill
#
# Bulk Modulus (GPa) = 51.24689 55.17584 53.21136
# Shear Modulus (GPa) = 30.32565 33.89945 32.11255
#
# Velocity S-wave (km/s) = 3.55801 3.76182 3.66134
# Velocity P-wave (km/s) = 6.18646 6.47314 6.33142
#
# Compressibility (1/GPa) = 0.01951338
#
# Stress axis : x y z
#
# Youngs Moduli (GPa) = 106.21103 132.61642 82.22865
#
# Poissons Ratio (x) = 0.25234 0.06646
# Poissons Ratio (y) = 0.20209 0.17193
# Poissons Ratio (z) = 0.08584 0.27728
#
# Static dielectric constant tensor:
#      x y z
#    x 1.957230 0.000000 0.000000 
#    y 0.000000 1.850070 0.000000 
#    z 0.000000 0.000000 1.998950 
# 
# From -- ./inp_files/16864.got.cif
#   From: 2010.05.17/outbox.cif.g08.bks.cpg/sg62_9_cif.got.tgz:16864.got - 2010.06.03 15:25:27.
