data_PCOD9464421
_publ_section_title
;
Structure prediction by ZEFSAII (Michael W. Deem and Ramdas Pophale) SiO2 
 PCOD9464421
Probable space group: P N M A
;
_chemical_formula_sum "Si O2"
_cell_formula_units_Z 64
_cell_length_a 13.047100
_cell_length_b 8.670532
_cell_length_c 28.643411
_cell_angle_alpha 90.000000
_cell_angle_beta 90.000000
_cell_angle_gamma 90.000000
_cell_volume 3240.294407
_symmetry_space_group_name_H-M "P N M A"
_symmetry_group_IT_number 62
_symmetry_cell_setting 'orthorhombic'
loop_
_space_group_symop_operation_xyz
x,y,z
1/2-x,-y,1/2+z
1/2+x,1/2-y,1/2-z
-x,1/2+y,-z
-x,-y,-z
1/2+x,y,1/2-z
1/2-x,1/2+y,1/2+z
x,1/2-y,z
loop_
_atom_site_type_symbol
_atom_site_label
_atom_site_fract_x
_atom_site_fract_y
_atom_site_fract_z
Si Si1 0.070188 0.932103 0.309592
Si Si2 0.354119 0.436911 0.708553
Si Si3 0.032145 0.562647 0.118230
Si Si4 0.686438 0.566363 0.463304
Si Si5 0.640411 0.928202 0.825043
Si Si6 0.397852 0.070722 0.063631
Si Si7 0.162981 0.434384 0.939236
Si Si8 0.118289 0.065558 0.410412
O O1 0.087267 0.750000 0.316322
O O2 0.123084 0.982378 0.261615
O O3 0.949996 0.967731 0.304610
O O4 0.105487 0.018859 0.356218
O O5 0.347607 0.250000 0.707322
O O6 0.440457 0.484656 0.670809
O O7 0.248851 0.508544 0.690886
O O8 0.029793 0.750000 0.117936
O O9 0.924313 0.509896 0.096773
O O10 0.124238 0.517308 0.083037
O O11 0.678420 0.750000 0.467365
O O12 0.806158 0.520610 0.460580
O O13 0.637571 0.488385 0.508577
O O14 0.626343 0.750000 0.811288
O O15 0.629101 0.934510 0.881127
O O16 0.394598 0.250000 0.048575
O O17 0.515369 0.011697 0.061968
O O18 0.165859 0.250000 0.937539
O O19 0.275239 0.498206 0.927821
O O20 0.118848 0.250000 0.414146
#
# Coordination Sequence:
#
# PCOD9464421 Si02
#       8
#     8   8   8   8   8   8   8   8
#     4  10  21  36  59  87 116 154 195 238 296 356
#     4  10  20  37  60  86 114 149 197 243 288 346
#     4   9  20  38  59  85 116 152 195 246 290 343
#     4  11  21  36  61  88 115 151 196 245 298 349
#     4  10  20  35  56  83 116 150 188 240 295 345
#     4   9  19  36  58  83 112 147 189 241 291 344
#     4  11  23  39  59  84 121 160 197 239 296 358
#     4  10  22  41  60  83 119 155 196 246 297 353
#
# _framework density 19.751290000000001
#
# number of rings (size 3 to 8) (size 9 to 14) (size 15 to 20)
#    0.000    2.000    1.250    3.000    0.000    5.000 
#    0.000    5.625    0.000    0.000    0.000    0.000 
#    0.000    0.000    0.000    0.000    0.000    0.000 
#
# Total GULP energy -357376.148997 kJ/mol
# GULP energy per Si atom -5584.002328 kJ/mol
# Density = 1.970634 g / cm^3
# Si number density = 19.751290 Si / 1000 Ang^3
#
#
#
# Elastic Constant Matrix: (Units=GPa)
#
#
# Indices 1 2 3 4 5 6 
#
# 1 84.0214 9.7991 7.9805 0.0000 0.0000 0.0000
# 2 9.7991 28.9619 6.1715 0.0000 0.0000 0.0000
# 3 7.9805 6.1715 48.4515 0.0000 0.0000 0.0000
# 4 0.0000 0.0000 0.0000 26.3534 0.0000 0.0000
# 5 0.0000 0.0000 0.0000 0.0000 18.4938 0.0000
# 6 0.0000 0.0000 0.0000 0.0000 0.0000 22.0495
#
#
#
# Elastic Compliance Matrix: (Units=1/GPa)
#
#
# Indices 1 2 3 4 5 6 
#
# 1 0.012505 -0.003898 -0.001563 0.000000 0.000000 0.000000
# 2 -0.003898 0.036706 -0.004033 0.000000 0.000000 0.000000
# 3 -0.001563 -0.004033 0.021410 0.000000 0.000000 0.000000
# 4 0.000000 0.000000 0.000000 0.037946 0.000000 0.000000
# 5 0.000000 0.000000 0.000000 0.000000 0.054072 0.000000
# 6 0.000000 0.000000 0.000000 0.000000 0.000000 0.045353
#
#
# Mechanical properties :
#
#
# Convention : Reuss Voigt Hill
#
# Bulk Modulus (GPa) = 19.36759 23.25968 21.31363
# Shear Modulus (GPa) = 20.47568 22.54490 21.51029
#
# Velocity S-wave (km/s) = 3.22324 3.38218 3.30367
# Velocity P-wave (km/s) = 4.86615 5.20135 5.03654
#
# Compressibility (1/GPa) = 0.05163266
#
# Stress axis : x y z
#
# Youngs Moduli (GPa) = 79.96930 27.24317 46.70614
#
# Poissons Ratio (x) = 0.10619 0.07301
# Poissons Ratio (y) = 0.31171 0.18839
# Poissons Ratio (z) = 0.12501 0.10989
#
# Static dielectric constant tensor:
#      x y z
#    x 1.693970 0.000000 0.000000 
#    y 0.000000 1.677180 0.000000 
#    z 0.000000 0.000000 1.698710 
# 
# From -- ./inp_files/32552.got.cif
#   From: 2010.05.17/outbox.cif.g08.bks.cpg/sg62_17_cif.got.tgz:32552.got - 2010.06.03 15:25:27.
