data_PCOD9464632
_publ_section_title
;
Structure prediction by ZEFSAII (Michael W. Deem and Ramdas Pophale) SiO2 
 PCOD9464632
Probable space group: P N M A
;
_chemical_formula_sum "Si O2"
_cell_formula_units_Z 56
_cell_length_a 12.926255
_cell_length_b 11.838475
_cell_length_c 18.982279
_cell_angle_alpha 90.000000
_cell_angle_beta 90.000000
_cell_angle_gamma 90.000000
_cell_volume 2904.803992
_symmetry_space_group_name_H-M "P N M A"
_symmetry_group_IT_number 62
_symmetry_cell_setting 'orthorhombic'
loop_
_space_group_symop_operation_xyz
x,y,z
1/2-x,-y,1/2+z
1/2+x,1/2-y,1/2-z
-x,1/2+y,-z
-x,-y,-z
1/2+x,y,1/2-z
1/2-x,1/2+y,1/2+z
x,1/2-y,z
loop_
_atom_site_type_symbol
_atom_site_label
_atom_site_fract_x
_atom_site_fract_y
_atom_site_fract_z
Si Si1 0.675651 0.881361 0.383914
Si Si2 0.768568 0.001643 0.028527
Si Si3 0.446144 0.127122 0.168989
Si Si4 0.568863 0.881483 0.993386
Si Si5 0.807928 0.625270 0.658276
Si Si6 0.935576 0.877235 0.118379
Si Si7 0.313094 0.551605 0.248328
O O1 0.679346 0.750000 0.405120
O O2 0.715352 0.956284 0.449128
O O3 0.555059 0.911473 0.369926
O O4 0.745790 0.893863 0.314030
O O5 0.729086 0.101904 0.078934
O O6 0.676412 0.909010 0.032475
O O7 0.873341 0.954977 0.063610
O O8 0.420712 0.250000 0.200312
O O9 0.569042 0.118739 0.162177
O O10 0.399014 0.025925 0.211873
O O11 0.406543 0.124027 0.089237
O O12 0.531098 0.750000 0.011576
O O13 0.500000 0.000000 0.000000
O O14 0.775288 0.750000 0.680657
O O15 0.761270 0.530682 0.707913
O O16 0.936154 0.750000 0.090084
O O17 0.872782 0.878082 0.192023
#
# Coordination Sequence:
#
# PCOD9464632 Si02
#       7
#     8   8   8   8   8   8   8
#     4  11  23  39  61  89 118 155 207 258 309 373
#     4  11  21  39  62  86 119 158 202 254 312 369
#     4  10  20  36  56  83 120 154 195 249 300 359
#     4  11  22  38  61  92 125 159 203 253 311 373
#     4  10  21  36  58  85 117 157 200 251 309 367
#     4  10  23  41  59  84 120 159 201 255 311 374
#     4  11  21  38  60  84 118 157 202 247 312 370
#
# _framework density 19.278410000000001
#
# number of rings (size 3 to 8) (size 9 to 14) (size 15 to 20)
#    0.000    1.429    2.857    3.000    0.000    0.571 
#    0.000    0.000    0.000    6.857    0.000    0.000 
#    0.000    0.000    0.000    0.000    0.000    0.000 
#
# Total GULP energy -312102.427131 kJ/mol
# GULP energy per Si atom -5573.257627 kJ/mol
# Density = 1.923453 g / cm^3
# Si number density = 19.278410 Si / 1000 Ang^3
#
#
#
# Elastic Constant Matrix: (Units=GPa)
#
#
# Indices 1 2 3 4 5 6 
#
# 1 93.1412 38.2666 24.4088 0.0000 0.0000 0.0000
# 2 38.2666 96.0608 18.9485 0.0000 0.0000 0.0000
# 3 24.4088 18.9485 78.2319 0.0000 0.0000 0.0000
# 4 0.0000 0.0000 0.0000 17.3136 0.0000 0.0000
# 5 0.0000 0.0000 0.0000 0.0000 28.5245 0.0000
# 6 0.0000 0.0000 0.0000 0.0000 0.0000 211.2432
#
#
#
# Elastic Compliance Matrix: (Units=1/GPa)
#
#
# Indices 1 2 3 4 5 6 
#
# 1 0.013499 -0.004775 -0.003055 0.000000 0.000000 0.000000
# 2 -0.004775 0.012621 -0.001567 0.000000 0.000000 0.000000
# 3 -0.003055 -0.001567 0.014115 0.000000 0.000000 0.000000
# 4 0.000000 0.000000 0.000000 0.057758 0.000000 0.000000
# 5 0.000000 0.000000 0.000000 0.000000 0.035058 0.000000
# 6 0.000000 0.000000 0.000000 0.000000 0.000000 0.004734
#
#
# Mechanical properties :
#
#
# Convention : Reuss Voigt Hill
#
# Bulk Modulus (GPa) = 46.63952 47.85353 47.24652
# Shear Modulus (GPa) = 30.53881 63.80359 47.17120
#
# Velocity S-wave (km/s) = 3.98439 5.75914 4.95192
# Velocity P-wave (km/s) = 6.73886 8.31263 7.56677
#
# Compressibility (1/GPa) = 0.02144105
#
# Stress axis : x y z
#
# Youngs Moduli (GPa) = 74.08134 79.23145 70.84480
#
# Poissons Ratio (x) = 0.37830 0.21644
# Poissons Ratio (y) = 0.35371 0.11103
# Poissons Ratio (z) = 0.22633 0.12418
#
# Static dielectric constant tensor:
#      x y z
#    x 1.684490 0.000000 0.000000 
#    y 0.000000 1.688810 0.000000 
#    z 0.000000 0.000000 1.670790 
# 
# From -- ./inp_files/26584.got.cif
#   From: 2010.05.17/outbox.cif.g08.bks.cpg/sg62_14_cif.got.tgz:26584.got - 2010.06.03 15:25:27.
