data_PCOD9464676
_publ_section_title
;
Structure prediction by ZEFSAII (Michael W. Deem and Ramdas Pophale) SiO2 
 PCOD9464676
Probable space group: P N M A
;
_chemical_formula_sum "Si O2"
_cell_formula_units_Z 64
_cell_length_a 17.373608
_cell_length_b 8.991884
_cell_length_c 21.907228
_cell_angle_alpha 90.000000
_cell_angle_beta 90.000000
_cell_angle_gamma 90.000000
_cell_volume 3422.379314
_symmetry_space_group_name_H-M "P N M A"
_symmetry_group_IT_number 62
_symmetry_cell_setting 'orthorhombic'
loop_
_space_group_symop_operation_xyz
x,y,z
1/2-x,-y,1/2+z
1/2+x,1/2-y,1/2-z
-x,1/2+y,-z
-x,-y,-z
1/2+x,y,1/2-z
1/2-x,1/2+y,1/2+z
x,1/2-y,z
loop_
_atom_site_type_symbol
_atom_site_label
_atom_site_fract_x
_atom_site_fract_y
_atom_site_fract_z
Si Si1 0.159657 0.927785 0.225270
Si Si2 0.936871 0.425305 0.418889
Si Si3 0.647595 0.072113 0.468646
Si Si4 0.965772 0.428452 0.874409
Si Si5 0.141410 0.429377 0.889631
Si Si6 0.725996 0.928595 0.868427
Si Si7 0.293047 0.926243 0.848112
Si Si8 0.094540 0.923501 0.437214
O O1 0.162237 0.750000 0.231734
O O2 0.084831 0.968534 0.184843
O O3 0.232216 0.985580 0.185900
O O4 0.162673 0.005117 0.290425
O O5 0.954328 0.250000 0.409475
O O6 0.862964 0.466934 0.378821
O O7 0.911999 0.441431 0.489841
O O8 0.013139 0.521541 0.410100
O O9 0.637438 0.250000 0.467340
O O10 0.651803 0.027856 0.539120
O O11 0.724376 0.037905 0.429638
O O12 0.576905 0.998821 0.432589
O O13 0.962604 0.250000 0.881057
O O14 0.054850 0.471010 0.870648
O O15 0.149718 0.250000 0.885052
O O16 0.207418 0.507319 0.850922
O O17 0.731249 0.750000 0.858624
O O18 0.291312 0.750000 0.844349
O O19 0.337830 0.980897 0.908193
O O20 0.108069 0.750000 0.424120
#
# Coordination Sequence:
#
# PCOD9464676 Si02
#       8
#     8   8   8   8   8   8   8   8
#     4  10  21  39  58  77 106 145 187 231 277 327
#     4   9  18  34  57  86 117 146 183 227 274 331
#     4   9  17  30  54  85 119 153 179 212 270 327
#     4   9  19  35  57  84 113 145 183 225 271 326
#     4  10  20  36  57  84 115 146 180 225 276 331
#     4   9  17  32  54  81 112 147 184 223 267 323
#     4  12  25  40  57  79 107 146 191 236 285 333
#     4  10  20  36  58  83 114 149 182 226 282 334
#
# _framework density 18.70044
#
# number of rings (size 3 to 8) (size 9 to 14) (size 15 to 20)
#    0.000    2.250    0.000    3.000    0.000    4.500 
#    2.250    2.500    0.000    0.000    0.000    0.000 
#    0.000    0.000    0.000    0.000    0.000    0.000 
#
# Total GULP energy -357368.581877 kJ/mol
# GULP energy per Si atom -5583.884092 kJ/mol
# Density = 1.865788 g / cm^3
# Si number density = 18.700440 Si / 1000 Ang^3
#
#
#
# Elastic Constant Matrix: (Units=GPa)
#
#
# Indices 1 2 3 4 5 6 
#
# 1 71.8588 23.2630 2.6912 0.0000 0.0000 0.0000
# 2 23.2630 42.3956 19.5811 0.0000 0.0000 0.0000
# 3 2.6912 19.5811 36.9799 0.0000 0.0000 0.0000
# 4 0.0000 0.0000 0.0000 25.0946 0.0000 0.0000
# 5 0.0000 0.0000 0.0000 0.0000 10.6489 0.0000
# 6 0.0000 0.0000 0.0000 0.0000 0.0000 28.0060
#
#
#
# Elastic Compliance Matrix: (Units=1/GPa)
#
#
# Indices 1 2 3 4 5 6 
#
# 1 0.017614 -0.012010 0.005078 0.000000 0.000000 0.000000
# 2 -0.012010 0.039413 -0.019995 0.000000 0.000000 0.000000
# 3 0.005078 -0.019995 0.037260 0.000000 0.000000 0.000000
# 4 0.000000 0.000000 0.000000 0.039849 0.000000 0.000000
# 5 0.000000 0.000000 0.000000 0.000000 0.093907 0.000000
# 6 0.000000 0.000000 0.000000 0.000000 0.000000 0.035707
#
#
# Mechanical properties :
#
#
# Convention : Reuss Voigt Hill
#
# Bulk Modulus (GPa) = 24.73355 26.92276 25.82816
# Shear Modulus (GPa) = 15.10200 19.79649 17.44924
#
# Velocity S-wave (km/s) = 2.84487 3.25716 3.05797
# Velocity P-wave (km/s) = 4.90367 5.34542 5.12930
#
# Compressibility (1/GPa) = 0.04043090
#
# Stress axis : x y z
#
# Youngs Moduli (GPa) = 56.77249 25.37252 26.83859
#
# Poissons Ratio (x) = 0.30473 -0.13628
# Poissons Ratio (y) = 0.68186 0.53664
# Poissons Ratio (z) = -0.28827 0.50733
#
# Static dielectric constant tensor:
#      x y z
#    x 1.643170 0.000000 0.000000 
#    y 0.000000 1.619960 0.000000 
#    z 0.000000 0.000000 1.642000 
# 
# From -- ./inp_files/27691.got.cif
#   From: 2010.05.17/outbox.cif.g08.bks.cpg/sg62_14_cif.got.tgz:27691.got - 2010.06.03 15:25:27.
