data_PCOD9464029
_publ_section_title
;
Structure prediction by ZEFSAII (Michael W. Deem and Ramdas Pophale) SiO2 
 PCOD9464029
Probable space group: P N M A
;
_chemical_formula_sum "Si O2"
_cell_formula_units_Z 56
_cell_length_a 15.180190
_cell_length_b 7.389074
_cell_length_c 21.576411
_cell_angle_alpha 90.000000
_cell_angle_beta 90.000000
_cell_angle_gamma 90.000000
_cell_volume 2420.173100
_symmetry_space_group_name_H-M "P N M A"
_symmetry_group_IT_number 62
_symmetry_cell_setting 'orthorhombic'
loop_
_space_group_symop_operation_xyz
x,y,z
1/2-x,-y,1/2+z
1/2+x,1/2-y,1/2-z
-x,1/2+y,-z
-x,-y,-z
1/2+x,y,1/2-z
1/2-x,1/2+y,1/2+z
x,1/2-y,z
loop_
_atom_site_type_symbol
_atom_site_label
_atom_site_fract_x
_atom_site_fract_y
_atom_site_fract_z
Si Si1 0.334386 0.473160 0.350717
Si Si2 0.767056 0.969356 0.386560
Si Si3 0.501463 0.044451 0.280057
Si Si4 0.807524 0.539640 0.751114
Si Si5 0.956383 0.968928 0.353419
Si Si6 0.221479 0.954051 0.984328
Si Si7 0.417737 0.464429 0.954874
O O1 0.333765 0.250000 0.349293
O O2 0.430759 0.533611 0.327691
O O3 0.258302 0.532843 0.301966
O O4 0.315620 0.534148 0.420770
O O5 0.763680 0.750000 0.387976
O O6 0.869477 0.023902 0.390928
O O7 0.713789 0.035812 0.446772
O O8 0.735618 0.028050 0.319087
O O9 0.520167 0.250000 0.300946
O O10 0.595199 0.957947 0.262328
O O11 0.450648 0.045625 0.214870
O O12 0.820930 0.750000 0.734342
O O13 0.956179 0.750000 0.350072
O O14 0.045176 0.025118 0.388172
O O15 0.185598 0.750000 0.987834
O O16 0.326896 0.946108 0.973402
O O17 0.401885 0.250000 0.953059
O O18 0.500000 0.500000 0.000000
#
# Coordination Sequence:
#
# PCOD9464029 Si02
#       7
#     8   8   8   8   8   8   8
#     4   9  18  34  56  80 107 141 180 227 278 322
#     4  10  20  35  54  77 108 145 180 218 269 327
#     4  10  20  35  57  83 106 137 185 232 274 320
#     4  10  20  35  56  82 108 139 184 228 269 323
#     4  10  20  34  51  77 109 141 177 219 272 331
#     4  10  20  37  56  77 110 147 185 225 273 330
#     4  11  21  33  50  77 111 142 178 219 268 328
#
# _framework density 23.138840999999999
#
# number of rings (size 3 to 8) (size 9 to 14) (size 15 to 20)
#    0.000    2.000    2.857    1.286    0.000    3.429 
#    0.000    2.143    0.000    0.000    0.000    0.000 
#    0.000    0.000    0.000    0.000    0.000    0.000 
#
# Total GULP energy -312631.453916 kJ/mol
# GULP energy per Si atom -5582.704534 kJ/mol
# Density = 2.308618 g / cm^3
# Si number density = 23.138841 Si / 1000 Ang^3
#
#
#
# Elastic Constant Matrix: (Units=GPa)
#
#
# Indices 1 2 3 4 5 6 
#
# 1 54.3332 -1.2020 -11.2905 0.0000 0.0000 0.0000
# 2 -1.2020 87.3158 -7.6466 0.0000 0.0000 0.0000
# 3 -11.2905 -7.6466 91.9862 0.0000 0.0000 0.0000
# 4 0.0000 0.0000 0.0000 16.4273 0.0000 0.0000
# 5 0.0000 0.0000 0.0000 0.0000 38.2394 0.0000
# 6 0.0000 0.0000 0.0000 0.0000 0.0000 -4.0903
#
#
#
# Elastic Compliance Matrix: (Units=1/GPa)
#
#
# Indices 1 2 3 4 5 6 
#
# 1 0.018906 0.000467 0.002359 0.000000 0.000000 0.000000
# 2 0.000467 0.011548 0.001017 0.000000 0.000000 0.000000
# 3 0.002359 0.001017 0.011245 0.000000 0.000000 0.000000
# 4 0.000000 0.000000 0.000000 0.060874 0.000000 0.000000
# 5 0.000000 0.000000 0.000000 0.000000 0.026151 0.000000
# 6 0.000000 0.000000 0.000000 0.000000 0.000000 -0.244479
#
#
# Mechanical properties :
#
#
# Convention : Reuss Voigt Hill
#
# Bulk Modulus (GPa) = 20.24866 21.48411 20.86639
# Shear Modulus (GPa) = -46.73811 27.03355 -9.85228
#
# Velocity S-wave (km/s) = -4.49920 3.42178 -2.06571
# Velocity P-wave (km/s) = 4.26855 4.99164 1.82974
#
# Compressibility (1/GPa) = 0.04938598
#
# Stress axis : x y z
#
# Youngs Moduli (GPa) = 52.89451 86.59362 88.92566
#
# Poissons Ratio (x) = -0.04043 -0.20980
# Poissons Ratio (y) = -0.02469 -0.09046
# Poissons Ratio (z) = -0.12479 -0.08809
#
# Static dielectric constant tensor:
#      x y z
#    x 1.874580 0.000000 0.000000 
#    y 0.000000 1.874560 0.000000 
#    z 0.000000 0.000000 1.895870 
# 
# From -- ./inp_files/27073.got.cif
#   From: 2010.05.17/outbox.cif.g08.bks.cpg/sg62_14_cif.got.tgz:27073.got - 2010.06.03 15:25:27.
