data_PCOD9464485
_publ_section_title
;
Structure prediction by ZEFSAII (Michael W. Deem and Ramdas Pophale) SiO2 
 PCOD9464485
Probable space group: P N M A
;
_chemical_formula_sum "Si O2"
_cell_formula_units_Z 48
_cell_length_a 20.838799
_cell_length_b 8.500947
_cell_length_c 14.846628
_cell_angle_alpha 90.000000
_cell_angle_beta 90.000000
_cell_angle_gamma 90.000000
_cell_volume 2630.073111
_symmetry_space_group_name_H-M "P N M A"
_symmetry_group_IT_number 62
_symmetry_cell_setting 'orthorhombic'
loop_
_space_group_symop_operation_xyz
x,y,z
1/2-x,-y,1/2+z
1/2+x,1/2-y,1/2-z
-x,1/2+y,-z
-x,-y,-z
1/2+x,y,1/2-z
1/2-x,1/2+y,1/2+z
x,1/2-y,z
loop_
_atom_site_type_symbol
_atom_site_label
_atom_site_fract_x
_atom_site_fract_y
_atom_site_fract_z
Si Si1 0.568209 0.438225 0.793995
Si Si2 0.125780 0.059922 0.514323
Si Si3 0.571410 0.059763 0.175653
Si Si4 0.770578 0.561435 0.983377
Si Si5 0.301074 0.941573 0.718555
Si Si6 0.822915 0.061592 0.165985
O O1 0.570962 0.250000 0.792685
O O2 0.596543 0.493625 0.890682
O O3 0.495098 0.493341 0.788438
O O4 0.613449 0.503680 0.715697
O O5 0.127831 0.250000 0.514235
O O6 0.084151 0.010470 0.427881
O O7 0.198063 0.999207 0.503843
O O8 0.568706 0.250000 0.177792
O O9 0.633205 0.008792 0.233644
O O10 0.770019 0.750000 0.984370
O O11 0.794446 0.507988 0.884895
O O12 0.813414 0.500263 0.065288
O O13 0.300559 0.750000 0.719737
O O14 0.238854 0.993240 0.775330
O O15 0.822152 0.250000 0.164864
#
# Coordination Sequence:
#
# PCOD9464485 Si02
#       6
#     8   8   8   8   8   8
#     4  11  23  37  55  88 122 150 191 243 288 339
#     4  10  20  35  57  85 120 153 187 232 287 349
#     4  10  20  38  59  81 114 158 194 229 285 352
#     4  11  21  35  58  90 117 144 189 243 287 333
#     4   9  19  36  59  83 112 148 192 235 279 339
#     4  11  21  39  61  83 114 156 194 232 286 346
#
# _framework density 18.250443000000001
#
# number of rings (size 3 to 8) (size 9 to 14) (size 15 to 20)
#    0.000    1.667    3.333    2.000    0.000    1.333 
#    0.000    2.500    0.000    0.000    0.000    0.000 
#    0.000    0.000    0.000    0.000    0.000    0.000 
#
# Total GULP energy -268151.166298 kJ/mol
# GULP energy per Si atom -5586.482631 kJ/mol
# Density = 1.820890 g / cm^3
# Si number density = 18.250443 Si / 1000 Ang^3
#
#
#
# Elastic Constant Matrix: (Units=GPa)
#
#
# Indices 1 2 3 4 5 6 
#
# 1 51.5967 2.0554 -2.2040 0.0000 0.0000 0.0000
# 2 2.0554 13.7502 6.5102 0.0000 0.0000 0.0000
# 3 -2.2040 6.5102 80.9469 0.0000 0.0000 0.0000
# 4 0.0000 0.0000 0.0000 18.3716 0.0000 0.0000
# 5 0.0000 0.0000 0.0000 0.0000 29.2165 0.0000
# 6 0.0000 0.0000 0.0000 0.0000 0.0000 28.0217
#
#
#
# Elastic Compliance Matrix: (Units=1/GPa)
#
#
# Indices 1 2 3 4 5 6 
#
# 1 0.019547 -0.003300 0.000798 0.000000 0.000000 0.000000
# 2 -0.003300 0.076162 -0.006215 0.000000 0.000000 0.000000
# 3 0.000798 -0.006215 0.012875 0.000000 0.000000 0.000000
# 4 0.000000 0.000000 0.000000 0.054432 0.000000 0.000000
# 5 0.000000 0.000000 0.000000 0.000000 0.034227 0.000000
# 6 0.000000 0.000000 0.000000 0.000000 0.000000 0.035687
#
#
# Mechanical properties :
#
#
# Convention : Reuss Voigt Hill
#
# Bulk Modulus (GPa) = 10.97095 17.66855 14.31975
# Shear Modulus (GPa) = 17.80959 24.45076 21.13017
#
# Velocity S-wave (km/s) = 3.12724 3.66421 3.40632
# Velocity P-wave (km/s) = 4.36622 5.25396 4.83053
#
# Compressibility (1/GPa) = 0.09114981
#
# Stress axis : x y z
#
# Youngs Moduli (GPa) = 51.15976 13.12987 77.66770
#
# Poissons Ratio (x) = 0.04332 -0.06195
# Poissons Ratio (y) = 0.16880 0.48273
# Poissons Ratio (z) = -0.04080 0.08161
#
# Static dielectric constant tensor:
#      x y z
#    x 1.591220 0.000000 0.000000 
#    y 0.000000 1.620790 0.000000 
#    z 0.000000 0.000000 1.625760 
# 
# From -- ./inp_files/19518.got.cif
#   From: 2010.05.17/outbox.cif.g08.bks.cpg/sg62_10_cif.got.tgz:19518.got - 2010.06.03 15:25:27.
