data_PCOD9464286
_publ_section_title
;
Structure prediction by ZEFSAII (Michael W. Deem and Ramdas Pophale) SiO2 
 PCOD9464286
Probable space group: P N M A
;
_chemical_formula_sum "Si O2"
_cell_formula_units_Z 64
_cell_length_a 14.846729
_cell_length_b 8.071463
_cell_length_c 31.220606
_cell_angle_alpha 90.000000
_cell_angle_beta 90.000000
_cell_angle_gamma 90.000000
_cell_volume 3741.315819
_symmetry_space_group_name_H-M "P N M A"
_symmetry_group_IT_number 62
_symmetry_cell_setting 'orthorhombic'
loop_
_space_group_symop_operation_xyz
x,y,z
1/2-x,-y,1/2+z
1/2+x,1/2-y,1/2-z
-x,1/2+y,-z
-x,-y,-z
1/2+x,y,1/2-z
1/2-x,1/2+y,1/2+z
x,1/2-y,z
loop_
_atom_site_type_symbol
_atom_site_label
_atom_site_fract_x
_atom_site_fract_y
_atom_site_fract_z
Si Si1 0.175760 0.440560 0.136815
Si Si2 0.804984 0.951544 0.130901
Si Si3 0.834026 0.049036 0.701237
Si Si4 0.392321 0.550224 0.453991
Si Si5 0.213820 0.443836 0.716686
Si Si6 0.401556 0.549232 0.550564
Si Si7 0.506230 0.440122 0.672594
Si Si8 0.017655 0.560464 0.734456
O O1 0.205966 0.250000 0.135390
O O2 0.236042 0.533279 0.171586
O O3 0.164335 0.507733 0.088511
O O4 0.074079 0.450793 0.154644
O O5 0.800302 0.750000 0.130042
O O6 0.720869 0.007314 0.159267
O O7 0.823085 0.009035 0.082390
O O8 0.896122 0.994267 0.156467
O O9 0.837191 0.250000 0.701626
O O10 0.778109 0.997648 0.744086
O O11 0.935000 0.981980 0.703521
O O12 0.388227 0.750000 0.454671
O O13 0.377170 0.491279 0.502624
O O14 0.494905 0.503777 0.441647
O O15 0.197197 0.250000 0.724620
O O16 0.117448 0.531836 0.716675
O O17 0.400153 0.750000 0.551240
O O18 0.491242 0.250000 0.658421
O O19 0.505774 0.448159 0.723651
O O20 0.009040 0.750000 0.748479
#
# Coordination Sequence:
#
# PCOD9464286 Si02
#       8
#     8   8   8   8   8   8   8   8
#     4  11  21  32  46  72 104 135 169 206 251 293
#     4   9  17  30  50  72  94 128 171 206 236 283
#     4  10  20  35  52  71  96 128 169 206 241 290
#     4   9  16  29  48  70  97 131 167 200 242 296
#     4  11  22  36  54  72  96 133 173 207 242 291
#     4   9  18  29  44  70 103 132 160 201 249 296
#     4  11  19  31  49  71  99 135 174 207 239 286
#     4  12  24  36  50  72 102 132 164 208 254 294
#
# _framework density 17.106280999999999
#
# number of rings (size 3 to 8) (size 9 to 14) (size 15 to 20)
#    0.000    1.750    3.750    2.250    0.000    1.000 
#    0.000    0.625    0.000    0.000    0.000    0.875 
#    0.000    0.000    0.000    0.000    0.000    0.000 
#
# Total GULP energy -357047.189780 kJ/mol
# GULP energy per Si atom -5578.862340 kJ/mol
# Density = 1.706735 g / cm^3
# Si number density = 17.106281 Si / 1000 Ang^3
#
#
#
# Elastic Constant Matrix: (Units=GPa)
#
#
# Indices 1 2 3 4 5 6 
#
# 1 63.3668 5.7674 21.3353 0.0000 0.0000 0.0000
# 2 5.7674 26.2044 -1.7446 0.0000 0.0000 0.0000
# 3 21.3353 -1.7446 95.5685 0.0000 0.0000 0.0000
# 4 0.0000 0.0000 0.0000 11.2130 0.0000 0.0000
# 5 0.0000 0.0000 0.0000 0.0000 23.2919 0.0000
# 6 0.0000 0.0000 0.0000 0.0000 0.0000 14.3736
#
#
#
# Elastic Compliance Matrix: (Units=1/GPa)
#
#
# Indices 1 2 3 4 5 6 
#
# 1 0.017496 -0.004116 -0.003981 0.000000 0.000000 0.000000
# 2 -0.004116 0.039176 0.001634 0.000000 0.000000 0.000000
# 3 -0.003981 0.001634 0.011382 0.000000 0.000000 0.000000
# 4 0.000000 0.000000 0.000000 0.089182 0.000000 0.000000
# 5 0.000000 0.000000 0.000000 0.000000 0.042933 0.000000
# 6 0.000000 0.000000 0.000000 0.000000 0.000000 0.069572
#
#
# Mechanical properties :
#
#
# Convention : Reuss Voigt Hill
#
# Bulk Modulus (GPa) = 18.13936 26.20623 22.17279
# Shear Modulus (GPa) = 16.60886 20.42782 18.51834
#
# Velocity S-wave (km/s) = 3.11934 3.45943 3.29378
# Velocity P-wave (km/s) = 4.85805 5.59551 5.23977
#
# Compressibility (1/GPa) = 0.05512874
#
# Stress axis : x y z
#
# Youngs Moduli (GPa) = 57.15542 25.52576 87.85583
#
# Poissons Ratio (x) = 0.10506 0.34976
# Poissons Ratio (y) = 0.23524 -0.14356
# Poissons Ratio (z) = 0.22754 -0.04171
#
# Static dielectric constant tensor:
#      x y z
#    x 1.552900 0.000000 0.000000 
#    y 0.000000 1.631220 0.000000 
#    z 0.000000 0.000000 1.618280 
# 
# From -- ./inp_files/32697.got.cif
#   From: 2010.05.17/outbox.cif.g08.bks.cpg/sg62_17_cif.got.tgz:32697.got - 2010.06.03 15:25:27.
