data_PCOD9464918
_publ_section_title
;
Structure prediction by ZEFSAII (Michael W. Deem and Ramdas Pophale) SiO2 
 PCOD9464918
Probable space group: P N M A
;
_chemical_formula_sum "Si O2"
_cell_formula_units_Z 40
_cell_length_a 6.021019
_cell_length_b 12.541435
_cell_length_c 23.006445
_cell_angle_alpha 90.000000
_cell_angle_beta 90.000000
_cell_angle_gamma 90.000000
_cell_volume 1737.267700
_symmetry_space_group_name_H-M "P N M A"
_symmetry_group_IT_number 62
_symmetry_cell_setting 'orthorhombic'
loop_
_space_group_symop_operation_xyz
x,y,z
1/2-x,-y,1/2+z
1/2+x,1/2-y,1/2-z
-x,1/2+y,-z
-x,-y,-z
1/2+x,y,1/2-z
1/2-x,1/2+y,1/2+z
x,1/2-y,z
loop_
_atom_site_type_symbol
_atom_site_label
_atom_site_fract_x
_atom_site_fract_y
_atom_site_fract_z
Si Si1 0.261820 0.570003 0.941071
Si Si2 0.151049 0.521970 0.622807
Si Si3 0.526027 0.632800 0.678443
Si Si4 0.978827 0.369993 0.943404
Si Si5 0.521168 0.071484 0.762011
O O1 0.523428 0.568156 0.932370
O O2 0.170300 0.615842 0.880023
O O3 0.189660 0.446671 0.947659
O O4 0.151267 0.627919 0.995258
O O5 0.276803 0.617280 0.654756
O O6 0.325120 0.433755 0.601623
O O7 0.002998 0.462545 0.670699
O O8 0.568287 0.750000 0.702835
O O9 0.548444 0.536241 0.723542
O O10 0.027776 0.250000 0.925816
O O11 0.775910 0.120164 0.754855
#
# Coordination Sequence:
#
# PCOD9464918 Si02
#       5
#     8   8   8   8   8
#     4  10  20  40  60  88 127 163 206 267 325 382
#     4  10  21  38  58  86 125 166 205 263 318 381
#     4  10  21  35  56  91 128 165 208 255 320 396
#     4  10  22  38  62  90 120 165 216 265 323 387
#     4  10  20  37  59  88 125 169 208 256 319 383
#
# _framework density 23.024660000000001
#
# number of rings (size 3 to 8) (size 9 to 14) (size 15 to 20)
#    0.000    2.000    2.000    1.200    0.000    5.600 
#    0.000    0.000    0.000   10.800    0.000    0.000 
#    0.000    0.000    0.000    0.000    0.000    0.000 
#
# Total GULP energy -223073.008378 kJ/mol
# GULP energy per Si atom -5576.825209 kJ/mol
# Density = 2.297226 g / cm^3
# Si number density = 23.024660 Si / 1000 Ang^3
#
#
#
# Elastic Constant Matrix: (Units=GPa)
#
#
# Indices 1 2 3 4 5 6 
#
# 1 92.2480 1.8080 5.9686 0.0000 0.0000 0.0000
# 2 1.8080 100.8318 -1.8911 0.0000 0.0000 0.0000
# 3 5.9686 -1.8911 82.4731 0.0000 0.0000 0.0000
# 4 0.0000 0.0000 0.0000 3.1781 0.0000 0.0000
# 5 0.0000 0.0000 0.0000 0.0000 47.2655 0.0000
# 6 0.0000 0.0000 0.0000 0.0000 0.0000 -14.2151
#
#
#
# Elastic Compliance Matrix: (Units=1/GPa)
#
#
# Indices 1 2 3 4 5 6 
#
# 1 0.010896 -0.000210 -0.000793 0.000000 0.000000 0.000000
# 2 -0.000210 0.009926 0.000243 0.000000 0.000000 0.000000
# 3 -0.000793 0.000243 0.012188 0.000000 0.000000 0.000000
# 4 0.000000 0.000000 0.000000 0.314652 0.000000 0.000000
# 5 0.000000 0.000000 0.000000 0.000000 0.021157 0.000000
# 6 0.000000 0.000000 0.000000 0.000000 0.000000 -0.070348
#
#
# Mechanical properties :
#
#
# Convention : Reuss Voigt Hill
#
# Bulk Modulus (GPa) = 31.75794 31.92488 31.84141
# Shear Modulus (GPa) = 16.10366 25.22354 20.66360
#
# Velocity S-wave (km/s) = 2.64750 3.31343 2.99901
# Velocity P-wave (km/s) = 4.81338 5.34172 5.08442
#
# Compressibility (1/GPa) = 0.03148819
#
# Stress axis : x y z
#
# Youngs Moduli (GPa) = 91.77852 100.74727 82.04693
#
# Poissons Ratio (x) = 0.02118 0.06509
# Poissons Ratio (y) = 0.01930 -0.01992
# Poissons Ratio (z) = 0.07281 -0.02446
#
# Static dielectric constant tensor:
#      x y z
#    x 1.969910 0.000000 0.000000 
#    y 0.000000 1.801120 0.000000 
#    z 0.000000 0.000000 1.860080 
# 
# From -- ./inp_files/28252.got.cif
#   From: 2010.05.17/outbox.cif.g08.bks.cpg/sg62_15_cif.got.tgz:28252.got - 2010.06.03 15:25:27.
