data_PCOD9464681
_publ_section_title
;
Structure prediction by ZEFSAII (Michael W. Deem and Ramdas Pophale) SiO2 
 PCOD9464681
Probable space group: P N M A
;
_chemical_formula_sum "Si O2"
_cell_formula_units_Z 48
_cell_length_a 14.005107
_cell_length_b 17.197202
_cell_length_c 7.874153
_cell_angle_alpha 90.000000
_cell_angle_beta 90.000000
_cell_angle_gamma 90.000000
_cell_volume 1896.479152
_symmetry_space_group_name_H-M "P N M A"
_symmetry_group_IT_number 62
_symmetry_cell_setting 'orthorhombic'
loop_
_space_group_symop_operation_xyz
x,y,z
1/2-x,-y,1/2+z
1/2+x,1/2-y,1/2-z
-x,1/2+y,-z
-x,-y,-z
1/2+x,y,1/2-z
1/2-x,1/2+y,1/2+z
x,1/2-y,z
loop_
_atom_site_type_symbol
_atom_site_label
_atom_site_fract_x
_atom_site_fract_y
_atom_site_fract_z
Si Si1 0.278532 0.954700 0.891093
Si Si2 0.238068 0.662700 0.187724
Si Si3 0.049720 0.832972 0.666658
Si Si4 0.761613 0.105861 0.449019
Si Si5 0.986975 0.336097 0.728512
Si Si6 0.442947 0.003575 0.328316
O O1 0.305753 0.926440 0.702014
O O2 0.168908 0.982230 0.862358
O O3 0.276477 0.892109 0.039690
O O4 0.322550 0.032696 0.971849
O O5 0.261335 0.750000 0.140295
O O6 0.274215 0.646616 0.380149
O O7 0.122309 0.655249 0.202191
O O8 0.024009 0.750000 0.752152
O O9 0.164916 0.838604 0.648819
O O10 0.015547 0.829383 0.474233
O O11 0.021876 0.916727 0.739340
O O12 0.020480 0.250000 0.791866
O O13 0.039353 0.417792 0.755723
O O14 0.500000 0.000000 0.500000
#
# Coordination Sequence:
#
# PCOD9464681 Si02
#       6
#     8   8   8   8   8   8
#     4  11  21  35  59  85 118 152 191 242 300 345
#     4  10  20  36  60  85 113 151 199 247 287 343
#     4   9  20  37  61  83 109 152 204 246 282 345
#     4  10  20  36  57  86 113 148 194 244 296 341
#     4   9  18  36  56  82 116 153 193 238 287 347
#     4  11  21  33  55  90 119 151 188 240 298 351
#
# _framework density 25.310058999999999
#
# number of rings (size 3 to 8) (size 9 to 14) (size 15 to 20)
#    0.000    2.000    3.333    2.000    0.000    4.000 
#    0.000    1.667    0.000    0.000    0.000    0.000 
#    0.000    0.000    0.000    0.000    0.000    0.000 
#
# Total GULP energy -268094.175821 kJ/mol
# GULP energy per Si atom -5585.295330 kJ/mol
# Density = 2.525245 g / cm^3
# Si number density = 25.310059 Si / 1000 Ang^3
#
#
#
# Elastic Constant Matrix: (Units=GPa)
#
#
# Indices 1 2 3 4 5 6 
#
# 1 69.5589 18.4091 1.5407 0.0000 0.0000 0.0000
# 2 18.4091 251.4636 60.5508 0.0000 0.0000 0.0000
# 3 1.5407 60.5508 99.6925 0.0000 0.0000 0.0000
# 4 0.0000 0.0000 0.0000 24.3725 0.0000 0.0000
# 5 0.0000 0.0000 0.0000 0.0000 19.3783 0.0000
# 6 0.0000 0.0000 0.0000 0.0000 0.0000 19.9682
#
#
#
# Elastic Compliance Matrix: (Units=1/GPa)
#
#
# Indices 1 2 3 4 5 6 
#
# 1 0.014681 -0.001195 0.000499 0.000000 0.000000 0.000000
# 2 -0.001195 0.004755 -0.002870 0.000000 0.000000 0.000000
# 3 0.000499 -0.002870 0.011766 0.000000 0.000000 0.000000
# 4 0.000000 0.000000 0.000000 0.041030 0.000000 0.000000
# 5 0.000000 0.000000 0.000000 0.000000 0.051604 0.000000
# 6 0.000000 0.000000 0.000000 0.000000 0.000000 0.050080
#
#
# Mechanical properties :
#
#
# Convention : Reuss Voigt Hill
#
# Bulk Modulus (GPa) = 41.54330 64.63516 53.08923
# Shear Modulus (GPa) = 26.44502 35.42478 30.93490
#
# Velocity S-wave (km/s) = 3.23591 3.74522 3.49984
# Velocity P-wave (km/s) = 5.51460 6.65545 6.11171
#
# Compressibility (1/GPa) = 0.02407127
#
# Stress axis : x y z
#
# Youngs Moduli (GPa) = 68.11296 210.29565 84.98961
#
# Poissons Ratio (x) = 0.25129 -0.04240
# Poissons Ratio (y) = 0.08139 0.24390
# Poissons Ratio (z) = -0.03398 0.60349
#
# Static dielectric constant tensor:
#      x y z
#    x 2.051720 0.000000 0.000000 
#    y 0.000000 2.035500 0.000000 
#    z 0.000000 0.000000 2.020440 
# 
# From -- ./inp_files/8593.got.cif
#   From: 2010.05.17/outbox.cif.g08.bks.cpg/sg62_5_cif.got.tgz:8593.got - 2010.06.03 15:25:27.
