data_PCOD9464590
_publ_section_title
;
Structure prediction by ZEFSAII (Michael W. Deem and Ramdas Pophale) SiO2 
 PCOD9464590
Probable space group: P N M A
;
_chemical_formula_sum "Si O2"
_cell_formula_units_Z 64
_cell_length_a 28.573495
_cell_length_b 8.629923
_cell_length_c 13.191047
_cell_angle_alpha 90.000000
_cell_angle_beta 90.000000
_cell_angle_gamma 90.000000
_cell_volume 3252.741520
_symmetry_space_group_name_H-M "P N M A"
_symmetry_group_IT_number 62
_symmetry_cell_setting 'orthorhombic'
loop_
_space_group_symop_operation_xyz
x,y,z
1/2-x,-y,1/2+z
1/2+x,1/2-y,1/2-z
-x,1/2+y,-z
-x,-y,-z
1/2+x,y,1/2-z
1/2-x,1/2+y,1/2+z
x,1/2-y,z
loop_
_atom_site_type_symbol
_atom_site_label
_atom_site_fract_x
_atom_site_fract_y
_atom_site_fract_z
Si Si1 0.245340 0.937836 0.028062
Si Si2 0.452397 0.433594 0.873157
Si Si3 0.122885 0.066368 0.780173
Si Si4 0.778404 0.074003 0.269345
Si Si5 0.310283 0.925907 0.870650
Si Si6 0.860980 0.435491 0.006870
Si Si7 0.113637 0.435388 0.211840
Si Si8 0.562192 0.064605 0.912341
O O1 0.247184 0.750000 0.025772
O O2 0.293469 0.999421 0.975510
O O3 0.193891 0.986096 0.989362
O O4 0.249321 0.999259 0.140745
O O5 0.445550 0.250000 0.861361
O O6 0.432429 0.519902 0.774817
O O7 0.507598 0.464289 0.887312
O O8 0.427977 0.489682 0.977857
O O9 0.116049 0.250000 0.787569
O O10 0.092380 0.010306 0.684019
O O11 0.176434 0.025948 0.754905
O O12 0.113874 0.994722 0.891269
O O13 0.793237 0.250000 0.291920
O O14 0.741144 0.083548 0.179152
O O15 0.327735 0.750000 0.890107
O O16 0.345468 0.995029 0.788798
O O17 0.861459 0.250000 0.007550
O O18 0.881639 0.494050 0.900029
O O19 0.118513 0.250000 0.201874
O O20 0.568795 0.250000 0.923274
#
# Coordination Sequence:
#
# PCOD9464590 Si02
#       8
#     8   8   8   8   8   8   8   8
#     4  10  20  36  53  75 111 155 193 235 286 335
#     4  10  21  40  65  92 118 146 188 241 293 348
#     4  11  23  39  60  86 115 154 197 237 291 353
#     4  11  21  36  54  81 115 152 195 239 282 333
#     4   9  19  35  53  75 111 153 192 231 277 333
#     4  11  22  38  59  84 117 155 198 246 290 337
#     4  11  22  38  60  86 119 159 197 236 290 352
#     4   9  21  42  65  88 118 152 186 234 297 357
#
# _framework density 19.675711
#
# number of rings (size 3 to 8) (size 9 to 14) (size 15 to 20)
#    0.000    1.750    2.500    1.875    1.750    2.000 
#    0.000    1.250    0.000    0.000    0.000    0.000 
#    0.000    0.000    0.000    0.000    0.000    0.000 
#
# Total GULP energy -356867.976765 kJ/mol
# GULP energy per Si atom -5576.062137 kJ/mol
# Density = 1.963093 g / cm^3
# Si number density = 19.675711 Si / 1000 Ang^3
#
#
#
# Elastic Constant Matrix: (Units=GPa)
#
#
# Indices 1 2 3 4 5 6 
#
# 1 18.1988 7.3002 5.1069 0.0000 0.0000 0.0000
# 2 7.3002 27.7074 17.1524 0.0000 0.0000 0.0000
# 3 5.1069 17.1524 68.8377 0.0000 0.0000 0.0000
# 4 0.0000 0.0000 0.0000 30.5879 0.0000 0.0000
# 5 0.0000 0.0000 0.0000 0.0000 34.1059 0.0000
# 6 0.0000 0.0000 0.0000 0.0000 0.0000 19.5431
#
#
#
# Elastic Compliance Matrix: (Units=1/GPa)
#
#
# Indices 1 2 3 4 5 6 
#
# 1 0.061465 -0.015810 -0.000620 0.000000 0.000000 0.000000
# 2 -0.015810 0.046741 -0.010474 0.000000 0.000000 0.000000
# 3 -0.000620 -0.010474 0.017183 0.000000 0.000000 0.000000
# 4 0.000000 0.000000 0.000000 0.032693 0.000000 0.000000
# 5 0.000000 0.000000 0.000000 0.000000 0.029320 0.000000
# 6 0.000000 0.000000 0.000000 0.000000 0.000000 0.051169
#
#
# Mechanical properties :
#
#
# Convention : Reuss Voigt Hill
#
# Bulk Modulus (GPa) = 13.97045 19.31811 16.64428
# Shear Modulus (GPa) = 15.81082 22.52632 19.16857
#
# Velocity S-wave (km/s) = 2.83781 3.38728 3.12464
# Velocity P-wave (km/s) = 4.22532 5.01376 4.63633
#
# Compressibility (1/GPa) = 0.07157963
#
# Stress axis : x y z
#
# Youngs Moduli (GPa) = 16.26946 21.39456 58.19814
#
# Poissons Ratio (x) = 0.33826 0.03611
# Poissons Ratio (y) = 0.25723 0.60954
# Poissons Ratio (z) = 0.01009 0.22408
#
# Static dielectric constant tensor:
#      x y z
#    x 1.710910 0.000000 0.000000 
#    y 0.000000 1.671830 0.000000 
#    z 0.000000 0.000000 1.703980 
# 
# From -- ./inp_files/15805.got.cif
#   From: 2010.05.17/outbox.cif.g08.bks.cpg/sg62_8_cif.got.tgz:15805.got - 2010.06.03 15:25:27.
