data_PCOD9464728
_publ_section_title
;
Structure prediction by ZEFSAII (Michael W. Deem and Ramdas Pophale) SiO2 
 PCOD9464728
Probable space group: P N M A
;
_chemical_formula_sum "Si O2"
_cell_formula_units_Z 64
_cell_length_a 5.110662
_cell_length_b 26.134784
_cell_length_c 20.009488
_cell_angle_alpha 90.000000
_cell_angle_beta 90.000000
_cell_angle_gamma 90.000000
_cell_volume 2672.588224
_symmetry_space_group_name_H-M "P N M A"
_symmetry_group_IT_number 62
_symmetry_cell_setting 'orthorhombic'
loop_
_space_group_symop_operation_xyz
x,y,z
1/2-x,-y,1/2+z
1/2+x,1/2-y,1/2-z
-x,1/2+y,-z
-x,-y,-z
1/2+x,y,1/2-z
1/2-x,1/2+y,1/2+z
x,1/2-y,z
loop_
_atom_site_type_symbol
_atom_site_label
_atom_site_fract_x
_atom_site_fract_y
_atom_site_fract_z
Si Si1 0.252375 0.000267 0.047920
Si Si2 0.743564 0.065630 0.201429
Si Si3 0.872860 0.157636 0.704398
Si Si4 0.156637 0.690996 0.524783
Si Si5 0.889573 0.457761 0.705344
Si Si6 0.759739 0.887459 0.450203
Si Si7 0.478215 0.697617 0.396883
Si Si8 0.562508 0.394491 0.413403
O O1 0.227784 0.052363 0.090861
O O2 0.289657 0.944276 0.080171
O O3 0.500000 0.000000 0.000000
O O4 0.000000 0.000000 0.000000
O O5 0.978291 0.070878 0.255874
O O6 0.835835 0.102554 0.141967
O O7 0.708942 0.008716 0.168065
O O8 0.141966 0.165970 0.741789
O O9 0.848143 0.099104 0.678666
O O10 0.787747 0.193017 0.643994
O O11 0.056033 0.750000 0.537025
O O12 0.398028 0.698996 0.474178
O O13 0.265161 0.657337 0.586883
O O14 0.977611 0.649235 0.484826
O O15 0.186306 0.460976 0.731558
O O16 0.644009 0.853088 0.391315
O O17 0.566263 0.896079 0.513061
O O18 0.616942 0.750000 0.378435
#
# Coordination Sequence:
#
# PCOD9464728 Si02
#       8
#     8   8   8   8   8   8   8   8
#     4  10  20  36  58  91 126 156 195 247 304 367
#     4  10  22  37  60  91 124 162 202 249 305 377
#     4  10  22  39  59  83 117 161 210 257 304 359
#     4  10  21  40  64  89 121 163 213 261 314 380
#     4   8  16  34  52  78 113 153 200 236 287 354
#     4  10  21  38  61  89 126 163 203 255 319 371
#     4  10  23  39  58  87 119 162 214 264 310 360
#     4  10  22  38  62  92 128 161 206 256 316 381
#
# _framework density 23.946826000000001
#
# number of rings (size 3 to 8) (size 9 to 14) (size 15 to 20)
#    0.000    2.250    1.250    0.375    5.250    1.000 
#    0.000    1.250    0.000    0.750    0.000    0.000 
#    0.000    0.000    0.000    0.000    0.000    0.000 
#
# Total GULP energy -357045.888061 kJ/mol
# GULP energy per Si atom -5578.842001 kJ/mol
# Density = 2.389232 g / cm^3
# Si number density = 23.946826 Si / 1000 Ang^3
#
#
#
# Elastic Constant Matrix: (Units=GPa)
#
#
# Indices 1 2 3 4 5 6 
#
# 1 94.7850 23.4523 16.7406 0.0000 0.0000 0.0000
# 2 23.4523 178.3123 31.7729 0.0000 0.0000 0.0000
# 3 16.7406 31.7729 61.9854 0.0000 0.0000 0.0000
# 4 0.0000 0.0000 0.0000 -36.8236 0.0000 0.0000
# 5 0.0000 0.0000 0.0000 0.0000 40.0009 0.0000
# 6 0.0000 0.0000 0.0000 0.0000 0.0000 25.9506
#
#
#
# Elastic Compliance Matrix: (Units=1/GPa)
#
#
# Indices 1 2 3 4 5 6 
#
# 1 0.011249 -0.001032 -0.002509 0.000000 0.000000 0.000000
# 2 -0.001032 0.006267 -0.002933 0.000000 0.000000 0.000000
# 3 -0.002509 -0.002933 0.018314 0.000000 0.000000 0.000000
# 4 0.000000 0.000000 0.000000 -0.027156 0.000000 0.000000
# 5 0.000000 0.000000 0.000000 0.000000 0.024999 0.000000
# 6 0.000000 0.000000 0.000000 0.000000 0.000000 0.038535
#
#
# Mechanical properties :
#
#
# Convention : Reuss Voigt Hill
#
# Bulk Modulus (GPa) = 43.70590 53.22381 48.46486
# Shear Modulus (GPa) = 53.88922 23.36670 38.62796
#
# Velocity S-wave (km/s) = 4.74895 3.12713 4.02066
# Velocity P-wave (km/s) = 6.95420 5.94244 6.46814
#
# Compressibility (1/GPa) = 0.02288020
#
# Stress axis : x y z
#
# Youngs Moduli (GPa) = 88.89888 159.57584 54.60314
#
# Poissons Ratio (x) = 0.16475 0.13699
# Poissons Ratio (y) = 0.09178 0.16017
# Poissons Ratio (z) = 0.22303 0.46809
#
# Static dielectric constant tensor:
#      x y z
#    x 1.995710 0.000000 0.000000 
#    y 0.000000 2.187570 0.000000 
#    z 0.000000 0.000000 1.890140 
# 
# From -- ./inp_files/25457.got.cif
#   From: 2010.05.17/outbox.cif.g08.bks.cpg/sg62_13_cif.got.tgz:25457.got - 2010.06.03 15:25:27.
