data_PCOD9464043
_publ_section_title
;
Structure prediction by ZEFSAII (Michael W. Deem and Ramdas Pophale) SiO2 
 PCOD9464043
Probable space group: P N M A
;
_chemical_formula_sum "Si O2"
_cell_formula_units_Z 64
_cell_length_a 17.356277
_cell_length_b 7.525426
_cell_length_c 21.942050
_cell_angle_alpha 90.000000
_cell_angle_beta 90.000000
_cell_angle_gamma 90.000000
_cell_volume 2865.925275
_symmetry_space_group_name_H-M "P N M A"
_symmetry_group_IT_number 62
_symmetry_cell_setting 'orthorhombic'
loop_
_space_group_symop_operation_xyz
x,y,z
1/2-x,-y,1/2+z
1/2+x,1/2-y,1/2-z
-x,1/2+y,-z
-x,-y,-z
1/2+x,y,1/2-z
1/2-x,1/2+y,1/2+z
x,1/2-y,z
loop_
_atom_site_type_symbol
_atom_site_label
_atom_site_fract_x
_atom_site_fract_y
_atom_site_fract_z
Si Si1 0.281923 0.033702 0.233590
Si Si2 0.850102 0.042851 0.139028
Si Si3 0.423207 0.456903 0.794278
Si Si4 0.495660 0.964236 0.572640
Si Si5 0.589368 0.962310 0.990740
Si Si6 0.189855 0.965661 0.397286
Si Si7 0.625439 0.452933 0.330448
Si Si8 0.417766 0.035992 0.142502
O O1 0.273850 0.250000 0.238736
O O2 0.312238 0.965553 0.299095
O O3 0.203437 0.969741 0.200386
O O4 0.352299 0.990189 0.189754
O O5 0.866209 0.250000 0.152036
O O6 0.927381 0.969763 0.108090
O O7 0.776991 0.026897 0.094735
O O8 0.410181 0.250000 0.782242
O O9 0.351828 0.527838 0.834763
O O10 0.431070 0.546594 0.728512
O O11 0.499172 0.472638 0.835166
O O12 0.494795 0.750000 0.578081
O O13 0.420792 0.029046 0.611417
O O14 0.500000 0.000000 0.500000
O O15 0.600959 0.750000 0.990636
O O16 0.606783 0.031081 0.923652
O O17 0.638766 0.031312 0.046635
O O18 0.500000 0.000000 0.000000
O O19 0.188071 0.750000 0.395509
O O20 0.645248 0.250000 0.347149
O O21 0.423368 0.250000 0.139769
#
# Coordination Sequence:
#
# PCOD9464043 Si02
#       8
#     8   8   8   8   8   8   8   8
#     4   9  18  34  58  87 112 138 188 246 287 332
#     4  10  20  37  59  84 113 148 194 246 292 342
#     4  11  21  34  54  83 118 150 184 232 289 344
#     4  10  23  41  63  90 120 157 202 249 298 357
#     4  10  20  34  52  76 110 148 186 226 271 330
#     4  10  21  35  53  81 115 150 190 236 285 344
#     4  10  20  38  64  87 110 148 197 243 290 348
#     4  10  20  34  55  80 109 149 190 227 273 335
#
# _framework density 22.331358999999999
#
# number of rings (size 3 to 8) (size 9 to 14) (size 15 to 20)
#    0.000    2.000    2.500    1.125    0.000    5.000 
#    0.000    5.000    0.000    0.000    0.000    0.000 
#    0.000    0.000    0.000    0.000    0.000    0.000 
#
# Total GULP energy -357134.851119 kJ/mol
# GULP energy per Si atom -5580.232049 kJ/mol
# Density = 2.228053 g / cm^3
# Si number density = 22.331359 Si / 1000 Ang^3
#
#
#
# Elastic Constant Matrix: (Units=GPa)
#
#
# Indices 1 2 3 4 5 6 
#
# 1 128.3962 4.5158 61.0120 0.0000 0.0000 0.0000
# 2 4.5158 60.0623 3.3204 0.0000 0.0000 0.0000
# 3 61.0120 3.3204 118.4607 0.0000 0.0000 0.0000
# 4 0.0000 0.0000 0.0000 13.2274 0.0000 0.0000
# 5 0.0000 0.0000 0.0000 0.0000 37.3022 0.0000
# 6 0.0000 0.0000 0.0000 0.0000 0.0000 10.5711
#
#
#
# Elastic Compliance Matrix: (Units=1/GPa)
#
#
# Indices 1 2 3 4 5 6 
#
# 1 0.010326 -0.000483 -0.005305 0.000000 0.000000 0.000000
# 2 -0.000483 0.016698 -0.000219 0.000000 0.000000 0.000000
# 3 -0.005305 -0.000219 0.011180 0.000000 0.000000 0.000000
# 4 0.000000 0.000000 0.000000 0.075601 0.000000 0.000000
# 5 0.000000 0.000000 0.000000 0.000000 0.026808 0.000000
# 6 0.000000 0.000000 0.000000 0.000000 0.000000 0.094598
#
#
# Mechanical properties :
#
#
# Convention : Reuss Voigt Hill
#
# Bulk Modulus (GPa) = 38.18308 49.40175 43.79241
# Shear Modulus (GPa) = 19.53472 28.09153 23.81313
#
# Velocity S-wave (km/s) = 2.96085 3.55059 3.26905
# Velocity P-wave (km/s) = 5.36884 6.24333 5.82252
#
# Compressibility (1/GPa) = 0.02618961
#
# Stress axis : x y z
#
# Youngs Moduli (GPa) = 96.84129 59.88805 89.44565
#
# Poissons Ratio (x) = 0.02893 0.47450
# Poissons Ratio (y) = 0.04679 0.01961
# Poissons Ratio (z) = 0.51373 0.01313
#
# Static dielectric constant tensor:
#      x y z
#    x 1.820910 0.000000 0.000000 
#    y 0.000000 1.855070 0.000000 
#    z 0.000000 0.000000 1.802970 
# 
# From -- ./inp_files/27779.got.cif
#   From: 2010.05.17/outbox.cif.g08.bks.cpg/sg62_14_cif.got.tgz:27779.got - 2010.06.03 15:25:27.
