data_PCOD9464554
_publ_section_title
;
Structure prediction by ZEFSAII (Michael W. Deem and Ramdas Pophale) SiO2 
 PCOD9464554
Probable space group: P N M A
;
_chemical_formula_sum "Si O2"
_cell_formula_units_Z 40
_cell_length_a 9.597424
_cell_length_b 17.856419
_cell_length_c 10.025292
_cell_angle_alpha 90.000000
_cell_angle_beta 90.000000
_cell_angle_gamma 90.000000
_cell_volume 1718.090675
_symmetry_space_group_name_H-M "P N M A"
_symmetry_group_IT_number 62
_symmetry_cell_setting 'orthorhombic'
loop_
_space_group_symop_operation_xyz
x,y,z
1/2-x,-y,1/2+z
1/2+x,1/2-y,1/2-z
-x,1/2+y,-z
-x,-y,-z
1/2+x,y,1/2-z
1/2-x,1/2+y,1/2+z
x,1/2-y,z
loop_
_atom_site_type_symbol
_atom_site_label
_atom_site_fract_x
_atom_site_fract_y
_atom_site_fract_z
Si Si1 0.885121 0.565337 0.325339
Si Si2 0.562823 0.340548 0.084052
Si Si3 0.741092 0.840214 0.813626
Si Si4 0.411721 0.661336 0.419865
Si Si5 0.091009 0.964696 0.117202
O O1 0.936811 0.616383 0.445263
O O2 0.836130 0.619172 0.202764
O O3 0.752716 0.518377 0.373067
O O4 0.011355 0.521161 0.256396
O O5 0.568921 0.250000 0.063279
O O6 0.419041 0.357375 0.160516
O O7 0.690506 0.366884 0.176730
O O8 0.748279 0.750000 0.804949
O O9 0.836861 0.858271 0.941568
O O10 0.413186 0.750000 0.403923
O O11 0.565409 0.624530 0.410240
O O12 0.000000 0.000000 0.000000
#
# Coordination Sequence:
#
# PCOD9464554 Si02
#       5
#     8   8   8   8   8
#     4  10  22  41  68  94 126 173 229 282 332 396
#     4  10  20  35  59  97 138 172 215 269 341 408
#     4   9  19  34  53  89 136 173 205 264 340 406
#     4   9  20  38  68  99 133 169 218 286 341 393
#     4  10  24  46  65  98 134 177 225 273 345 410
#
# _framework density 23.281658
#
# number of rings (size 3 to 8) (size 9 to 14) (size 15 to 20)
#    1.200    1.200    0.000    1.800    2.800    1.600 
#    3.600    1.000    0.000    0.000    0.000    0.000 
#    0.000    0.000    0.000    0.000    0.000    0.000 
#
# Total GULP energy -223446.724824 kJ/mol
# GULP energy per Si atom -5586.168121 kJ/mol
# Density = 2.322867 g / cm^3
# Si number density = 23.281658 Si / 1000 Ang^3
#
#
#
# Elastic Constant Matrix: (Units=GPa)
#
#
# Indices 1 2 3 4 5 6 
#
# 1 92.7553 4.1549 28.3354 0.0000 0.0000 0.0000
# 2 4.1549 76.0929 12.3919 0.0000 0.0000 0.0000
# 3 28.3354 12.3919 135.1016 0.0000 0.0000 0.0000
# 4 0.0000 0.0000 0.0000 34.2243 0.0000 0.0000
# 5 0.0000 0.0000 0.0000 0.0000 28.7639 0.0000
# 6 0.0000 0.0000 0.0000 0.0000 0.0000 30.6152
#
#
#
# Elastic Compliance Matrix: (Units=1/GPa)
#
#
# Indices 1 2 3 4 5 6 
#
# 1 0.011523 -0.000239 -0.002395 0.000000 0.000000 0.000000
# 2 -0.000239 0.013346 -0.001174 0.000000 0.000000 0.000000
# 3 -0.002395 -0.001174 0.008012 0.000000 0.000000 0.000000
# 4 0.000000 0.000000 0.000000 0.029219 0.000000 0.000000
# 5 0.000000 0.000000 0.000000 0.000000 0.034766 0.000000
# 6 0.000000 0.000000 0.000000 0.000000 0.000000 0.032664
#
#
# Mechanical properties :
#
#
# Convention : Reuss Voigt Hill
#
# Bulk Modulus (GPa) = 39.58027 43.74603 41.66315
# Shear Modulus (GPa) = 34.34835 35.99187 35.17011
#
# Velocity S-wave (km/s) = 3.84518 3.93610 3.89091
# Velocity P-wave (km/s) = 6.06230 6.28394 6.17411
#
# Compressibility (1/GPa) = 0.02526511
#
# Stress axis : x y z
#
# Youngs Moduli (GPa) = 86.78014 74.92844 124.81572
#
# Poissons Ratio (x) = 0.01792 0.29892
# Poissons Ratio (y) = 0.02076 0.14653
# Poissons Ratio (z) = 0.20783 0.08796
#
# Static dielectric constant tensor:
#      x y z
#    x 1.872970 0.000000 0.000000 
#    y 0.000000 1.947800 0.000000 
#    z 0.000000 0.000000 1.839490 
# 
# From -- ./inp_files/4292.got.cif
#   From: 2010.05.17/outbox.cif.g08.bks.cpg/sg62_3_cif.got.tgz:4292.got - 2010.06.03 15:25:27.
