data_PCOD9464878
_publ_section_title
;
Structure prediction by ZEFSAII (Michael W. Deem and Ramdas Pophale) SiO2 
 PCOD9464878
Probable space group: P N M A
;
_chemical_formula_sum "Si O2"
_cell_formula_units_Z 48
_cell_length_a 15.477560
_cell_length_b 7.582109
_cell_length_c 19.357175
_cell_angle_alpha 90.000000
_cell_angle_beta 90.000000
_cell_angle_gamma 90.000000
_cell_volume 2271.613788
_symmetry_space_group_name_H-M "P N M A"
_symmetry_group_IT_number 62
_symmetry_cell_setting 'orthorhombic'
loop_
_space_group_symop_operation_xyz
x,y,z
1/2-x,-y,1/2+z
1/2+x,1/2-y,1/2-z
-x,1/2+y,-z
-x,-y,-z
1/2+x,y,1/2-z
1/2-x,1/2+y,1/2+z
x,1/2-y,z
loop_
_atom_site_type_symbol
_atom_site_label
_atom_site_fract_x
_atom_site_fract_y
_atom_site_fract_z
Si Si1 0.246825 0.959409 0.086216
Si Si2 0.989894 0.465679 0.712919
Si Si3 0.199110 0.965885 0.239681
Si Si4 0.402439 0.959175 0.477490
Si Si5 0.939401 0.538351 0.434992
Si Si6 0.633833 0.465656 0.676533
O O1 0.257446 0.750000 0.095028
O O2 0.221643 0.027586 0.162264
O O3 0.340186 0.027600 0.060582
O O4 0.169141 0.984148 0.032750
O O5 0.989828 0.250000 0.712097
O O6 0.894605 0.523457 0.734710
O O7 0.019056 0.525133 0.637018
O O8 0.059099 0.520240 0.770467
O O9 0.197978 0.750000 0.238357
O O10 0.274478 0.019374 0.291998
O O11 0.395542 0.750000 0.473181
O O12 0.382978 0.030009 0.400856
O O13 0.500000 0.000000 0.500000
O O14 0.935652 0.750000 0.430436
O O15 0.000000 0.500000 0.500000
O O16 0.632756 0.250000 0.675549
#
# Coordination Sequence:
#
# PCOD9464878 Si02
#       6
#     8   8   8   8   8   8
#     4  10  20  37  58  83 115 149 183 232 290 337
#     4   9  16  29  51  77 104 135 178 231 276 315
#     4   9  16  29  53  80 105 136 182 236 278 315
#     4  11  23  37  58  86 115 148 186 231 283 339
#     4  10  21  35  54  80 113 149 185 227 281 336
#     4   9  17  31  51  81 107 133 183 235 273 313
#
# _framework density 21.130352999999999
#
# number of rings (size 3 to 8) (size 9 to 14) (size 15 to 20)
#    0.000    2.333    1.667    1.500    2.333    3.333 
#    0.000    0.000    0.000    7.000    0.000    0.000 
#    0.000    0.000    0.000    0.000    0.000    0.000 
#
# Total GULP energy -268141.290832 kJ/mol
# GULP energy per Si atom -5586.276892 kJ/mol
# Density = 2.108226 g / cm^3
# Si number density = 21.130353 Si / 1000 Ang^3
#
#
#
# Elastic Constant Matrix: (Units=GPa)
#
#
# Indices 1 2 3 4 5 6 
#
# 1 220.1082 0.5903 102.4347 0.0000 0.0000 0.0000
# 2 0.5903 45.1475 0.0731 0.0000 0.0000 0.0000
# 3 102.4347 0.0731 177.0457 0.0000 0.0000 0.0000
# 4 0.0000 0.0000 0.0000 18.1305 0.0000 0.0000
# 5 0.0000 0.0000 0.0000 0.0000 41.0246 0.0000
# 6 0.0000 0.0000 0.0000 0.0000 0.0000 10.3110
#
#
#
# Elastic Compliance Matrix: (Units=1/GPa)
#
#
# Indices 1 2 3 4 5 6 
#
# 1 0.006218 -0.000075 -0.003597 0.000000 0.000000 0.000000
# 2 -0.000075 0.022151 0.000035 0.000000 0.000000 0.000000
# 3 -0.003597 0.000035 0.007730 0.000000 0.000000 0.000000
# 4 0.000000 0.000000 0.000000 0.055156 0.000000 0.000000
# 5 0.000000 0.000000 0.000000 0.000000 0.024376 0.000000
# 6 0.000000 0.000000 0.000000 0.000000 0.000000 0.096984
#
#
# Mechanical properties :
#
#
# Convention : Reuss Voigt Hill
#
# Bulk Modulus (GPa) = 34.69675 72.05529 53.37602
# Shear Modulus (GPa) = 21.78684 36.50677 29.14680
#
# Velocity S-wave (km/s) = 3.21451 4.16106 3.71803
# Velocity P-wave (km/s) = 5.49849 7.56705 6.61414
#
# Compressibility (1/GPa) = 0.02882115
#
# Stress axis : x y z
#
# Youngs Moduli (GPa) = 160.83508 45.14562 129.37335
#
# Poissons Ratio (x) = 0.00341 0.46540
# Poissons Ratio (y) = 0.01214 -0.00447
# Poissons Ratio (z) = 0.57857 -0.00156
#
# Static dielectric constant tensor:
#      x y z
#    x 1.685590 0.000000 0.000000 
#    y 0.000000 1.816630 0.000000 
#    z 0.000000 0.000000 1.726780 
# 
# From -- ./inp_files/23854.got.cif
#   From: 2010.05.17/outbox.cif.g08.bks.cpg/sg62_12_cif.got.tgz:23854.got - 2010.06.03 15:25:27.
