data_PCOD9464699
_publ_section_title
;
Structure prediction by ZEFSAII (Michael W. Deem and Ramdas Pophale) SiO2 
 PCOD9464699
Probable space group: P N M A
;
_chemical_formula_sum "Si O2"
_cell_formula_units_Z 56
_cell_length_a 20.002590
_cell_length_b 7.545059
_cell_length_c 15.973227
_cell_angle_alpha 90.000000
_cell_angle_beta 90.000000
_cell_angle_gamma 90.000000
_cell_volume 2410.690947
_symmetry_space_group_name_H-M "P N M A"
_symmetry_group_IT_number 62
_symmetry_cell_setting 'orthorhombic'
loop_
_space_group_symop_operation_xyz
x,y,z
1/2-x,-y,1/2+z
1/2+x,1/2-y,1/2-z
-x,1/2+y,-z
-x,-y,-z
1/2+x,y,1/2-z
1/2-x,1/2+y,1/2+z
x,1/2-y,z
loop_
_atom_site_type_symbol
_atom_site_label
_atom_site_fract_x
_atom_site_fract_y
_atom_site_fract_z
Si Si1 0.776166 0.959984 0.505320
Si Si2 0.374609 0.463878 0.501718
Si Si3 0.142990 0.551275 0.660553
Si Si4 0.078084 0.531990 0.819525
Si Si5 0.354551 0.547343 0.833858
Si Si6 0.071990 0.460266 0.182437
Si Si7 0.501401 0.961624 0.097888
O O1 0.771360 0.750000 0.519525
O O2 0.701596 0.029683 0.493756
O O3 0.811653 0.032983 0.589705
O O4 0.817655 0.978105 0.419273
O O5 0.374003 0.250000 0.500413
O O6 0.406158 0.522229 0.414085
O O7 0.413429 0.516209 0.584977
O O8 0.168895 0.750000 0.670937
O O9 0.134915 0.470557 0.753587
O O10 0.065270 0.547588 0.634187
O O11 0.078427 0.750000 0.816444
O O12 0.002647 0.470683 0.798331
O O13 0.330732 0.750000 0.822217
O O14 0.368122 0.466833 0.741533
O O15 0.430455 0.542949 0.867865
O O16 0.070121 0.250000 0.198689
O O17 0.500424 0.750000 0.111987
O O18 0.500000 0.000000 0.000000
#
# Coordination Sequence:
#
# PCOD9464699 Si02
#       7
#     8   8   8   8   8   8   8
#     4  10  22  38  56  82 118 158 194 232 289 354
#     4  10  22  40  58  80 115 157 198 240 290 348
#     4  11  21  36  60  88 117 149 192 241 290 346
#     4   9  19  37  61  87 114 146 192 244 293 346
#     4  10  20  36  58  83 115 152 192 239 291 345
#     4  10  20  37  61  88 114 145 195 249 293 342
#     4  12  22  33  54  86 121 153 188 232 292 349
#
# _framework density 23.229854
#
# number of rings (size 3 to 8) (size 9 to 14) (size 15 to 20)
#    0.000    1.714    2.857    2.143    0.000    2.286 
#    0.000    4.286    0.000    0.000    0.000    0.000 
#    0.000    0.000    0.000    0.000    0.000    0.000 
#
# Total GULP energy -312585.063748 kJ/mol
# GULP energy per Si atom -5581.876138 kJ/mol
# Density = 2.317698 g / cm^3
# Si number density = 23.229854 Si / 1000 Ang^3
#
#
#
# Elastic Constant Matrix: (Units=GPa)
#
#
# Indices 1 2 3 4 5 6 
#
# 1 66.2508 -2.7709 21.6627 0.0000 0.0000 0.0000
# 2 -2.7709 76.8809 2.2488 0.0000 0.0000 0.0000
# 3 21.6627 2.2488 169.2574 0.0000 0.0000 0.0000
# 4 0.0000 0.0000 0.0000 124.0966 0.0000 0.0000
# 5 0.0000 0.0000 0.0000 0.0000 33.7294 0.0000
# 6 0.0000 0.0000 0.0000 0.0000 0.0000 7.5988
#
#
#
# Elastic Compliance Matrix: (Units=1/GPa)
#
#
# Indices 1 2 3 4 5 6 
#
# 1 0.015784 0.000628 -0.002028 0.000000 0.000000 0.000000
# 2 0.000628 0.013037 -0.000254 0.000000 0.000000 0.000000
# 3 -0.002028 -0.000254 0.006171 0.000000 0.000000 0.000000
# 4 0.000000 0.000000 0.000000 0.008058 0.000000 0.000000
# 5 0.000000 0.000000 0.000000 0.000000 0.029648 0.000000
# 6 0.000000 0.000000 0.000000 0.000000 0.000000 0.131600
#
#
# Mechanical properties :
#
#
# Convention : Reuss Voigt Hill
#
# Bulk Modulus (GPa) = 31.56137 39.40780 35.48458
# Shear Modulus (GPa) = 22.91816 52.50153 37.70985
#
# Velocity S-wave (km/s) = 3.14440 4.75920 4.03343
# Velocity P-wave (km/s) = 5.17678 6.87030 6.08277
#
# Compressibility (1/GPa) = 0.03168431
#
# Stress axis : x y z
#
# Youngs Moduli (GPa) = 63.35656 76.70361 162.04446
#
# Poissons Ratio (x) = -0.04819 0.32870
# Poissons Ratio (y) = -0.03980 0.04110
# Poissons Ratio (z) = 0.12852 0.01945
#
# Static dielectric constant tensor:
#      x y z
#    x 1.838200 0.000000 0.000000 
#    y 0.000000 1.898880 0.000000 
#    z 0.000000 0.000000 1.952850 
# 
# From -- ./inp_files/20215.got.cif
#   From: 2010.05.17/outbox.cif.g08.bks.cpg/sg62_11_cif.got.tgz:20215.got - 2010.06.03 15:25:27.
