data_PCOD9464803
_publ_section_title
;
Structure prediction by ZEFSAII (Michael W. Deem and Ramdas Pophale) SiO2 
 PCOD9464803
Probable space group: P N M A
;
_chemical_formula_sum "Si O2"
_cell_formula_units_Z 40
_cell_length_a 14.212817
_cell_length_b 12.853872
_cell_length_c 7.905817
_cell_angle_alpha 90.000000
_cell_angle_beta 90.000000
_cell_angle_gamma 90.000000
_cell_volume 1444.311577
_symmetry_space_group_name_H-M "P N M A"
_symmetry_group_IT_number 62
_symmetry_cell_setting 'orthorhombic'
loop_
_space_group_symop_operation_xyz
x,y,z
1/2-x,-y,1/2+z
1/2+x,1/2-y,1/2-z
-x,1/2+y,-z
-x,-y,-z
1/2+x,y,1/2-z
1/2-x,1/2+y,1/2+z
x,1/2-y,z
loop_
_atom_site_type_symbol
_atom_site_label
_atom_site_fract_x
_atom_site_fract_y
_atom_site_fract_z
Si Si1 0.774370 0.601296 0.961559
Si Si2 0.945311 0.593740 0.162404
Si Si3 0.402958 0.362073 0.252797
Si Si4 0.151088 0.934311 0.237706
Si Si5 0.584965 0.364290 0.047587
O O1 0.880571 0.635364 0.010000
O O2 0.716857 0.624123 0.131728
O O3 0.703920 0.635305 0.813821
O O4 0.788683 0.478930 0.917679
O O5 0.933164 0.467990 0.155633
O O6 0.905017 0.622504 0.347239
O O7 0.055284 0.618529 0.178393
O O8 0.418641 0.250000 0.337096
O O9 0.473157 0.364432 0.090539
O O10 0.123119 0.039976 0.342387
O O11 0.621426 0.250000 0.098151
#
# Coordination Sequence:
#
# PCOD9464803 Si02
#       5
#     8   8   8   8   8
#     4  12  21  37  62  90 120 161 205 253 304 363
#     4  11  21  40  63  90 122 160 202 258 306 362
#     4  10  20  36  61  86 116 158 201 244 299 368
#     4  11  21  38  59  92 121 158 206 249 306 364
#     4  10  20  38  62  86 120 161 202 249 305 362
#
# _framework density 27.694855
#
# number of rings (size 3 to 8) (size 9 to 14) (size 15 to 20)
#    0.000    1.200    6.000    1.800    0.000    1.600 
#    0.000    0.000    0.000    4.800    0.000    0.000 
#    0.000    0.000    0.000    0.000    0.000    0.000 
#
# Total GULP energy -223673.197219 kJ/mol
# GULP energy per Si atom -5591.829930 kJ/mol
# Density = 2.763182 g / cm^3
# Si number density = 27.694855 Si / 1000 Ang^3
#
#
#
# Elastic Constant Matrix: (Units=GPa)
#
#
# Indices 1 2 3 4 5 6 
#
# 1 169.9687 18.8030 23.6957 0.0000 0.0000 0.0000
# 2 18.8030 124.1712 -3.2481 0.0000 0.0000 0.0000
# 3 23.6957 -3.2481 91.2394 0.0000 0.0000 0.0000
# 4 0.0000 0.0000 0.0000 -7.1695 0.0000 0.0000
# 5 0.0000 0.0000 0.0000 0.0000 53.5763 0.0000
# 6 0.0000 0.0000 0.0000 0.0000 0.0000 8.0246
#
#
#
# Elastic Compliance Matrix: (Units=1/GPa)
#
#
# Indices 1 2 3 4 5 6 
#
# 1 0.006223 -0.000985 -0.001651 0.000000 0.000000 0.000000
# 2 -0.000985 0.008217 0.000548 0.000000 0.000000 0.000000
# 3 -0.001651 0.000548 0.011409 0.000000 0.000000 0.000000
# 4 0.000000 0.000000 0.000000 -0.139479 0.000000 0.000000
# 5 0.000000 0.000000 0.000000 0.000000 0.018665 0.000000
# 6 0.000000 0.000000 0.000000 0.000000 0.000000 0.124618
#
#
# Mechanical properties :
#
#
# Convention : Reuss Voigt Hill
#
# Bulk Modulus (GPa) = 46.14295 51.54229 48.84262
# Shear Modulus (GPa) = 121.79690 33.96151 77.87920
#
# Velocity S-wave (km/s) = 6.63880 3.50562 5.30863
# Velocity P-wave (km/s) = 8.68690 5.91921 7.43301
#
# Compressibility (1/GPa) = 0.02167178
#
# Stress axis : x y z
#
# Youngs Moduli (GPa) = 160.70326 121.69934 87.65374
#
# Poissons Ratio (x) = 0.11993 0.14473
# Poissons Ratio (y) = 0.15837 -0.04807
# Poissons Ratio (z) = 0.26535 -0.06675
#
# Static dielectric constant tensor:
#      x y z
#    x 2.133800 0.000000 0.000000 
#    y 0.000000 2.204360 0.000000 
#    z 0.000000 0.000000 2.167670 
# 
# From -- ./inp_files/6078.got.cif
#   From: 2010.05.17/outbox.cif.g08.bks.cpg/sg62_4_cif.got.tgz:6078.got - 2010.06.03 15:25:27.
