data_PCOD9464293
_publ_section_title
;
Structure prediction by ZEFSAII (Michael W. Deem and Ramdas Pophale) SiO2 
 PCOD9464293
Probable space group: P N M A
;
_chemical_formula_sum "Si O2"
_cell_formula_units_Z 40
_cell_length_a 12.810887
_cell_length_b 8.771950
_cell_length_c 21.277432
_cell_angle_alpha 90.000000
_cell_angle_beta 90.000000
_cell_angle_gamma 90.000000
_cell_volume 2391.082491
_symmetry_space_group_name_H-M "P N M A"
_symmetry_group_IT_number 62
_symmetry_cell_setting 'orthorhombic'
loop_
_space_group_symop_operation_xyz
x,y,z
1/2-x,-y,1/2+z
1/2+x,1/2-y,1/2-z
-x,1/2+y,-z
-x,-y,-z
1/2+x,y,1/2-z
1/2-x,1/2+y,1/2+z
x,1/2-y,z
loop_
_atom_site_type_symbol
_atom_site_label
_atom_site_fract_x
_atom_site_fract_y
_atom_site_fract_z
Si Si1 0.327230 0.432206 0.659190
Si Si2 0.501831 0.932159 0.569622
Si Si3 0.600482 0.569089 0.197550
Si Si4 0.668748 0.067079 0.662988
Si Si5 0.383591 0.068986 0.200543
O O1 0.326359 0.250000 0.650862
O O2 0.401339 0.509807 0.608417
O O3 0.373485 0.463329 0.729055
O O4 0.210130 0.496970 0.660243
O O5 0.503389 0.750000 0.567878
O O6 0.500000 0.000000 0.500000
O O7 0.601900 0.994414 0.607669
O O8 0.579695 0.750000 0.192707
O O9 0.707407 0.534899 0.160649
O O10 0.498473 0.477716 0.177801
O O11 0.654552 0.250000 0.663924
O O12 0.629010 0.001270 0.729497
O O13 0.372036 0.250000 0.203485
#
# Coordination Sequence:
#
# PCOD9464293 Si02
#       5
#     8   8   8   8   8
#     4  10  20  35  54  76 108 144 182 222 270 323
#     4  12  24  38  57  80 109 144 184 226 269 322
#     4   9  18  32  53  77 108 144 176 218 273 325
#     4  10  20  35  53  76 108 144 183 222 270 322
#     4  11  20  30  51  81 113 142 176 223 272 323
#
# _framework density 16.728825000000001
#
# number of rings (size 3 to 8) (size 9 to 14) (size 15 to 20)
#    0.000    1.600    2.000    6.000    0.000    4.000 
#    0.000    0.000    0.000    1.200    0.000    0.000 
#    0.000    0.000    0.000    0.000    0.000    0.000 
#
# Total GULP energy -223396.732566 kJ/mol
# GULP energy per Si atom -5584.918314 kJ/mol
# Density = 1.669075 g / cm^3
# Si number density = 16.728825 Si / 1000 Ang^3
#
#
#
# Elastic Constant Matrix: (Units=GPa)
#
#
# Indices 1 2 3 4 5 6 
#
# 1 151.7328 86.5369 64.1856 0.0000 0.0000 0.0000
# 2 86.5369 123.6777 55.8709 0.0000 0.0000 0.0000
# 3 64.1856 55.8709 93.9801 0.0000 0.0000 0.0000
# 4 0.0000 0.0000 0.0000 24.4060 0.0000 0.0000
# 5 0.0000 0.0000 0.0000 0.0000 17.9708 0.0000
# 6 0.0000 0.0000 0.0000 0.0000 0.0000 23.3654
#
#
#
# Elastic Compliance Matrix: (Units=1/GPa)
#
#
# Indices 1 2 3 4 5 6 
#
# 1 0.012192 -0.006520 -0.004450 0.000000 0.000000 0.000000
# 2 -0.006520 0.014541 -0.004192 0.000000 0.000000 0.000000
# 3 -0.004450 -0.004192 0.016172 0.000000 0.000000 0.000000
# 4 0.000000 0.000000 0.000000 0.040973 0.000000 0.000000
# 5 0.000000 0.000000 0.000000 0.000000 0.055646 0.000000
# 6 0.000000 0.000000 0.000000 0.000000 0.000000 0.042798
#
#
# Mechanical properties :
#
#
# Convention : Reuss Voigt Hill
#
# Bulk Modulus (GPa) = 79.48769 86.95306 83.22037
# Shear Modulus (GPa) = 23.05844 24.00158 23.53001
#
# Velocity S-wave (km/s) = 3.71666 3.79191 3.75447
# Velocity P-wave (km/s) = 8.12629 8.44170 8.28550
#
# Compressibility (1/GPa) = 0.01258057
#
# Stress axis : x y z
#
# Youngs Moduli (GPa) = 82.02331 68.77036 61.83523
#
# Poissons Ratio (x) = 0.44838 0.27519
# Poissons Ratio (y) = 0.53479 0.25919
# Poissons Ratio (z) = 0.36504 0.28826
#
# Static dielectric constant tensor:
#      x y z
#    x 1.584330 0.000000 0.000000 
#    y 0.000000 1.555900 0.000000 
#    z 0.000000 0.000000 1.527580 
# 
# From -- ./inp_files/22759.got.cif
#   From: 2010.05.17/outbox.cif.g08.bks.cpg/sg62_12_cif.got.tgz:22759.got - 2010.06.03 15:25:27.
