data_PCOD9464415
_publ_section_title
;
Structure prediction by ZEFSAII (Michael W. Deem and Ramdas Pophale) SiO2 
 PCOD9464415
Probable space group: P N M A
;
_chemical_formula_sum "Si O2"
_cell_formula_units_Z 48
_cell_length_a 31.325570
_cell_length_b 8.871205
_cell_length_c 9.579297
_cell_angle_alpha 90.000000
_cell_angle_beta 90.000000
_cell_angle_gamma 90.000000
_cell_volume 2662.044039
_symmetry_space_group_name_H-M "P N M A"
_symmetry_group_IT_number 62
_symmetry_cell_setting 'orthorhombic'
loop_
_space_group_symop_operation_xyz
x,y,z
1/2-x,-y,1/2+z
1/2+x,1/2-y,1/2-z
-x,1/2+y,-z
-x,-y,-z
1/2+x,y,1/2-z
1/2-x,1/2+y,1/2+z
x,1/2-y,z
loop_
_atom_site_type_symbol
_atom_site_label
_atom_site_fract_x
_atom_site_fract_y
_atom_site_fract_z
Si Si1 0.963680 0.430196 0.095726
Si Si2 0.286797 0.431872 0.587221
Si Si3 0.708954 0.930932 0.087623
Si Si4 0.964497 0.570045 0.401246
Si Si5 0.633191 0.568953 0.603788
Si Si6 0.866288 0.929618 0.410749
O O1 0.967501 0.250000 0.096807
O O2 0.969050 0.495970 0.250002
O O3 0.914807 0.468662 0.053691
O O4 0.000000 0.500000 0.000000
O O5 0.282225 0.250000 0.582094
O O6 0.248159 0.505434 0.502468
O O7 0.330783 0.471698 0.508196
O O8 0.287194 0.476855 0.749839
O O9 0.709008 0.750000 0.082066
O O10 0.666015 0.992929 0.017052
O O11 0.969520 0.750000 0.391921
O O12 0.915746 0.539130 0.448179
O O13 0.000000 0.500000 0.500000
O O14 0.634819 0.750000 0.625380
O O15 0.640806 0.490928 0.753348
O O16 0.859680 0.750000 0.410966
#
# Coordination Sequence:
#
# PCOD9464415 Si02
#       6
#     8   8   8   8   8   8
#     4  10  20  35  56  83 114 150 190 230 276 329
#     4  10  22  39  57  80 109 141 181 226 270 321
#     4  11  23  37  56  82 110 143 180 221 272 325
#     4  10  21  37  57  82 112 147 186 230 280 332
#     4   9  19  37  59  81 109 146 184 224 272 325
#     4  10  21  37  57  82 111 143 181 225 272 324
#
# _framework density 18.031257
#
# number of rings (size 3 to 8) (size 9 to 14) (size 15 to 20)
#    0.000    2.000    0.000    3.000    0.000    8.667 
#    0.000    1.667    0.000    0.000    0.000    0.000 
#    0.000    0.000    0.000    0.000    0.000    0.000 
#
# Total GULP energy -268070.479826 kJ/mol
# GULP energy per Si atom -5584.801663 kJ/mol
# Density = 1.799022 g / cm^3
# Si number density = 18.031257 Si / 1000 Ang^3
#
#
#
# Elastic Constant Matrix: (Units=GPa)
#
#
# Indices 1 2 3 4 5 6 
#
# 1 172.1849 74.7440 124.8281 0.0000 0.0000 0.0000
# 2 74.7440 55.9859 60.8051 0.0000 0.0000 0.0000
# 3 124.8281 60.8051 143.1727 0.0000 0.0000 0.0000
# 4 0.0000 0.0000 0.0000 32.4560 0.0000 0.0000
# 5 0.0000 0.0000 0.0000 0.0000 42.6086 0.0000
# 6 0.0000 0.0000 0.0000 0.0000 0.0000 32.9714
#
#
#
# Elastic Compliance Matrix: (Units=1/GPa)
#
#
# Indices 1 2 3 4 5 6 
#
# 1 0.020966 -0.015105 -0.011865 0.000000 0.000000 0.000000
# 2 -0.015105 0.044036 -0.005533 0.000000 0.000000 0.000000
# 3 -0.011865 -0.005533 0.019679 0.000000 0.000000 0.000000
# 4 0.000000 0.000000 0.000000 0.030811 0.000000 0.000000
# 5 0.000000 0.000000 0.000000 0.000000 0.023469 0.000000
# 6 0.000000 0.000000 0.000000 0.000000 0.000000 0.030329
#
#
# Mechanical properties :
#
#
# Convention : Reuss Voigt Hill
#
# Bulk Modulus (GPa) = 50.82153 99.12200 74.97177
# Shear Modulus (GPa) = 20.75947 29.00495 24.88221
#
# Velocity S-wave (km/s) = 3.39677 4.01508 3.71880
# Velocity P-wave (km/s) = 6.60534 8.75135 7.75295
#
# Compressibility (1/GPa) = 0.01967670
#
# Stress axis : x y z
#
# Youngs Moduli (GPa) = 47.69604 22.70866 50.81602
#
# Poissons Ratio (x) = 0.34301 0.60292
# Poissons Ratio (y) = 0.72043 0.28115
# Poissons Ratio (z) = 0.56590 0.12564
#
# Static dielectric constant tensor:
#      x y z
#    x 1.617620 0.000000 0.000000 
#    y 0.000000 1.607100 0.000000 
#    z 0.000000 0.000000 1.573690 
# 
# From -- ./inp_files/10129.got.cif
#   From: 2010.05.17/outbox.cif.g08.bks.cpg/sg62_6_cif.got.tgz:10129.got - 2010.06.03 15:25:27.
