data_PCOD9464726
_publ_section_title
;
Structure prediction by ZEFSAII (Michael W. Deem and Ramdas Pophale) SiO2 
 PCOD9464726
Probable space group: P N M A
;
_chemical_formula_sum "Si O2"
_cell_formula_units_Z 64
_cell_length_a 5.480027
_cell_length_b 31.869439
_cell_length_c 17.219055
_cell_angle_alpha 90.000000
_cell_angle_beta 90.000000
_cell_angle_gamma 90.000000
_cell_volume 3007.228510
_symmetry_space_group_name_H-M "P N M A"
_symmetry_group_IT_number 62
_symmetry_cell_setting 'orthorhombic'
loop_
_space_group_symop_operation_xyz
x,y,z
1/2-x,-y,1/2+z
1/2+x,1/2-y,1/2-z
-x,1/2+y,-z
-x,-y,-z
1/2+x,y,1/2-z
1/2-x,1/2+y,1/2+z
x,1/2-y,z
loop_
_atom_site_type_symbol
_atom_site_label
_atom_site_fract_x
_atom_site_fract_y
_atom_site_fract_z
Si Si1 0.816926 0.608927 0.113412
Si Si2 0.686164 0.299104 0.004705
Si Si3 0.767681 0.895329 0.798371
Si Si4 0.258887 0.468373 0.795235
Si Si5 0.318075 0.839305 0.549719
Si Si6 0.170495 0.126527 0.612821
Si Si7 0.691202 0.036885 0.971693
Si Si8 0.982842 0.527622 0.880554
O O1 0.768721 0.559870 0.127468
O O2 0.585141 0.628910 0.155619
O O3 0.074808 0.617913 0.152352
O O4 0.825626 0.628933 0.026233
O O5 0.698396 0.250000 0.988198
O O6 0.423564 0.310880 0.040900
O O7 0.928862 0.313607 0.050585
O O8 0.696796 0.329671 0.930827
O O9 0.505524 0.890501 0.757184
O O10 0.791193 0.863775 0.870403
O O11 0.806268 0.939914 0.840110
O O12 0.523328 0.460327 0.759286
O O13 0.205476 0.515388 0.823870
O O14 0.138529 0.085337 0.554528
O O15 0.888887 0.042337 0.040594
O O16 0.821303 0.012879 0.901015
O O17 0.500000 0.000000 0.000000
#
# Coordination Sequence:
#
# PCOD9464726 Si02
#       8
#     8   8   8   8   8   8   8   8
#     4  10  20  39  60  86 113 159 200 252 291 373
#     4  10  20  36  65 100 130 154 198 269 325 366
#     4  12  27  44  63  89 127 169 215 266 319 368
#     4  12  25  39  56  81 123 163 199 253 305 350
#     4  10  22  40  68  89 125 160 211 250 312 376
#     4  10  20  36  58  90 122 153 198 254 307 364
#     4  11  24  35  64  89 118 162 215 260 301 366
#     4  11  25  39  56  86 119 166 215 256 309 361
#
# _framework density 21.282053000000001
#
# number of rings (size 3 to 8) (size 9 to 14) (size 15 to 20)
#    0.000    1.250    1.250    4.875   10.500    0.000 
#    0.000    0.000    0.000    7.500    0.000    0.000 
#    0.000  160.000    0.000    0.000    0.000    0.000 
#
# Total GULP energy -356869.334738 kJ/mol
# GULP energy per Si atom -5576.083355 kJ/mol
# Density = 2.123361 g / cm^3
# Si number density = 21.282053 Si / 1000 Ang^3
#
#
#
# Elastic Constant Matrix: (Units=GPa)
#
#
# Indices 1 2 3 4 5 6 
#
# 1 147.7301 16.7598 32.7703 0.0000 0.0000 0.0000
# 2 16.7598 113.6304 41.3447 0.0000 0.0000 0.0000
# 3 32.7703 41.3447 62.2024 0.0000 0.0000 0.0000
# 4 0.0000 0.0000 0.0000 15.4890 0.0000 0.0000
# 5 0.0000 0.0000 0.0000 0.0000 29.5775 0.0000
# 6 0.0000 0.0000 0.0000 0.0000 0.0000 23.3737
#
#
#
# Elastic Compliance Matrix: (Units=1/GPa)
#
#
# Indices 1 2 3 4 5 6 
#
# 1 0.007682 0.000448 -0.004345 0.000000 0.000000 0.000000
# 2 0.000448 0.011634 -0.007969 0.000000 0.000000 0.000000
# 3 -0.004345 -0.007969 0.023662 0.000000 0.000000 0.000000
# 4 0.000000 0.000000 0.000000 0.064562 0.000000 0.000000
# 5 0.000000 0.000000 0.000000 0.000000 0.033810 0.000000
# 6 0.000000 0.000000 0.000000 0.000000 0.000000 0.042783
#
#
# Mechanical properties :
#
#
# Convention : Reuss Voigt Hill
#
# Bulk Modulus (GPa) = 51.95703 56.14583 54.05143
# Shear Modulus (GPa) = 23.33400 29.20059 26.26730
#
# Velocity S-wave (km/s) = 3.31481 3.70817 3.51700
# Velocity P-wave (km/s) = 6.25437 6.69127 6.47651
#
# Compressibility (1/GPa) = 0.01924667
#
# Stress axis : x y z
#
# Youngs Moduli (GPa) = 130.17294 85.95611 42.26155
#
# Poissons Ratio (x) = -0.03849 0.18362
# Poissons Ratio (y) = -0.05829 0.33677
# Poissons Ratio (z) = 0.56558 0.68496
#
# Static dielectric constant tensor:
#      x y z
#    x 1.915660 0.000000 0.000000 
#    y 0.000000 1.756250 0.000000 
#    z 0.000000 0.000000 1.797640 
# 
# From -- ./inp_files/21700.got.cif
#   From: 2010.05.17/outbox.cif.g08.bks.cpg/sg62_11_cif.got.tgz:21700.got - 2010.06.03 15:25:27.
