data_PCOD9464149
_publ_section_title
;
Structure prediction by ZEFSAII (Michael W. Deem and Ramdas Pophale) SiO2 
 PCOD9464149
Probable space group: P N M A
;
_chemical_formula_sum "Si O2"
_cell_formula_units_Z 56
_cell_length_a 8.267571
_cell_length_b 17.387873
_cell_length_c 18.968348
_cell_angle_alpha 90.000000
_cell_angle_beta 90.000000
_cell_angle_gamma 90.000000
_cell_volume 2726.803868
_symmetry_space_group_name_H-M "P N M A"
_symmetry_group_IT_number 62
_symmetry_cell_setting 'orthorhombic'
loop_
_space_group_symop_operation_xyz
x,y,z
1/2-x,-y,1/2+z
1/2+x,1/2-y,1/2-z
-x,1/2+y,-z
-x,-y,-z
1/2+x,y,1/2-z
1/2-x,1/2+y,1/2+z
x,1/2-y,z
loop_
_atom_site_type_symbol
_atom_site_label
_atom_site_fract_x
_atom_site_fract_y
_atom_site_fract_z
Si Si1 0.468483 0.163024 0.640064
Si Si2 0.777006 0.250000 0.246910
Si Si3 0.297816 0.037428 0.543230
Si Si4 0.546218 0.912734 0.587548
Si Si5 0.339824 0.837712 0.236797
Si Si6 0.571401 0.010295 0.836466
Si Si7 0.754948 0.573680 0.716625
Si Si8 0.059604 0.250000 0.138057
O O1 0.469840 0.250000 0.611274
O O2 0.402285 0.101505 0.585758
O O3 0.338725 0.160325 0.704106
O O4 0.636849 0.146736 0.679923
O O5 0.715231 0.334548 0.222370
O O6 0.954494 0.250000 0.211081
O O7 0.741660 0.250000 0.330950
O O8 0.302822 0.068675 0.463922
O O9 0.400600 0.960039 0.553443
O O10 0.130824 0.021788 0.583581
O O11 0.600049 0.938162 0.665630
O O12 0.491977 0.824980 0.595410
O O13 0.397234 0.750000 0.224969
O O14 0.431532 0.904547 0.195799
O O15 0.406773 0.967049 0.819190
O O16 0.708942 0.963557 0.791781
#
# Coordination Sequence:
#
# PCOD9464149 Si02
#       8
#     8   4   8   8   8   8   8   4
#     4   9  17  29  49  72 102 135 175 219 271 320
#     4  10  20  34  54  84 110 136 178 234 284 328
#     4  10  21  36  52  78 108 147 185 229 272 340
#     4  10  22  37  54  78 112 146 187 228 279 334
#     4   9  17  29  45  74 103 131 170 221 264 311
#     4  11  20  33  57  81 108 144 183 228 280 333
#     4  11  21  35  57  84 112 143 184 236 286 334
#     4  10  20  36  58  82 110 144 182 234 282 336
#
# _framework density 20.536864000000001
#
# number of rings (size 3 to 8) (size 9 to 14) (size 15 to 20)
#    0.000    2.000    0.000    6.000    1.000    0.571 
#    0.000    0.000    0.000    0.000    0.000    0.000 
#    0.000    0.000    0.000    0.000    0.000    0.000 
#
# Total GULP energy -312158.222085 kJ/mol
# GULP energy per Si atom -5574.253966 kJ/mol
# Density = 2.049012 g / cm^3
# Si number density = 20.536864 Si / 1000 Ang^3
#
#
#
# Elastic Constant Matrix: (Units=GPa)
#
#
# Indices 1 2 3 4 5 6 
#
# 1 32.0042 23.1548 0.4848 0.0000 0.0000 0.0000
# 2 23.1548 104.7834 14.1087 0.0000 0.0000 0.0000
# 3 0.4848 14.1087 54.3964 0.0000 0.0000 0.0000
# 4 0.0000 0.0000 0.0000 24.5617 0.0000 0.0000
# 5 0.0000 0.0000 0.0000 0.0000 29.8460 0.0000
# 6 0.0000 0.0000 0.0000 0.0000 0.0000 23.7084
#
#
#
# Elastic Compliance Matrix: (Units=1/GPa)
#
#
# Indices 1 2 3 4 5 6 
#
# 1 0.037376 -0.008512 0.001875 0.000000 0.000000 0.000000
# 2 -0.008512 0.011827 -0.002992 0.000000 0.000000 0.000000
# 3 0.001875 -0.002992 0.019143 0.000000 0.000000 0.000000
# 4 0.000000 0.000000 0.000000 0.040714 0.000000 0.000000
# 5 0.000000 0.000000 0.000000 0.000000 0.033505 0.000000
# 6 0.000000 0.000000 0.000000 0.000000 0.000000 0.042179
#
#
# Mechanical properties :
#
#
# Convention : Reuss Voigt Hill
#
# Bulk Modulus (GPa) = 20.37156 29.63117 25.00136
# Shear Modulus (GPa) = 22.68970 25.85224 24.27097
#
# Velocity S-wave (km/s) = 3.32750 3.55184 3.44150
# Velocity P-wave (km/s) = 4.97032 5.59288 5.29076
#
# Compressibility (1/GPa) = 0.04908804
#
# Stress axis : x y z
#
# Youngs Moduli (GPa) = 26.75543 84.55091 52.23889
#
# Poissons Ratio (x) = 0.71966 -0.09792
# Poissons Ratio (y) = 0.22773 0.15629
# Poissons Ratio (z) = -0.05015 0.25295
#
# Static dielectric constant tensor:
#      x y z
#    x 1.839330 0.000000 0.000000 
#    y 0.000000 1.724030 0.000000 
#    z 0.000000 0.000000 1.763560 
# 
# From -- ./inp_files/26138.got.cif
#   From: 2010.05.17/outbox.cif.g08.bks.cpg/sg62_14_cif.got.tgz:26138.got - 2010.06.03 15:25:27.
