data_PCOD9464857
_publ_section_title
;
Structure prediction by ZEFSAII (Michael W. Deem and Ramdas Pophale) SiO2 
 PCOD9464857
Probable space group: P N M A
;
_chemical_formula_sum "Si O2"
_cell_formula_units_Z 48
_cell_length_a 9.306423
_cell_length_b 14.449736
_cell_length_c 19.753242
_cell_angle_alpha 90.000000
_cell_angle_beta 90.000000
_cell_angle_gamma 90.000000
_cell_volume 2656.324239
_symmetry_space_group_name_H-M "P N M A"
_symmetry_group_IT_number 62
_symmetry_cell_setting 'orthorhombic'
loop_
_space_group_symop_operation_xyz
x,y,z
1/2-x,-y,1/2+z
1/2+x,1/2-y,1/2-z
-x,1/2+y,-z
-x,-y,-z
1/2+x,y,1/2-z
1/2-x,1/2+y,1/2+z
x,1/2-y,z
loop_
_atom_site_type_symbol
_atom_site_label
_atom_site_fract_x
_atom_site_fract_y
_atom_site_fract_z
Si Si1 0.638779 0.855695 0.945679
Si Si2 0.868480 0.648920 0.155941
Si Si3 0.841558 0.642783 0.473188
Si Si4 0.155003 0.482866 0.969027
Si Si5 0.877411 0.415850 0.752865
Si Si6 0.370057 0.514085 0.157993
O O1 0.671558 0.750000 0.929902
O O2 0.611534 0.917551 0.879974
O O3 0.499288 0.859059 0.993825
O O4 0.764378 0.906688 0.985840
O O5 0.862913 0.750000 0.121748
O O6 0.855082 0.562840 0.104842
O O7 0.735832 0.642204 0.208335
O O8 0.018242 0.639488 0.196346
O O9 0.794744 0.750000 0.467912
O O10 0.742908 0.578083 0.520853
O O11 0.850633 0.592781 0.400186
O O12 0.000000 0.500000 0.000000
O O13 0.773130 0.481897 0.796428
O O14 0.990099 0.464364 0.702559
#
# Coordination Sequence:
#
# PCOD9464857 Si02
#       6
#     8   8   8   8   8   8
#     4  10  20  37  60  81 103 142 188 226 267 322
#     4  11  21  35  54  80 111 143 178 217 265 322
#     4  10  21  37  59  82 108 144 185 225 269 322
#     4  11  22  35  55  84 115 142 173 227 284 324
#     4  10  22  35  53  77 109 147 179 215 262 321
#     4  10  20  37  55  78 110 140 177 222 269 319
#
# _framework density 18.070083
#
# number of rings (size 3 to 8) (size 9 to 14) (size 15 to 20)
#    0.000    1.667    0.000    7.000    0.000    8.000 
#    0.000    0.833    0.000    4.000    0.000    0.000 
#    0.000    0.000    0.000    0.000    0.000    0.000 
#
# Total GULP energy -267914.933944 kJ/mol
# GULP energy per Si atom -5581.561124 kJ/mol
# Density = 1.802896 g / cm^3
# Si number density = 18.070083 Si / 1000 Ang^3
#
#
#
# Elastic Constant Matrix: (Units=GPa)
#
#
# Indices 1 2 3 4 5 6 
#
# 1 115.4836 43.8303 32.4776 0.0000 0.0000 0.0000
# 2 43.8303 149.5224 49.3552 0.0000 0.0000 0.0000
# 3 32.4776 49.3552 83.2618 0.0000 0.0000 0.0000
# 4 0.0000 0.0000 0.0000 4.6628 0.0000 0.0000
# 5 0.0000 0.0000 0.0000 0.0000 31.3782 0.0000
# 6 0.0000 0.0000 0.0000 0.0000 0.0000 10.9961
#
#
#
# Elastic Compliance Matrix: (Units=1/GPa)
#
#
# Indices 1 2 3 4 5 6 
#
# 1 0.010226 -0.002090 -0.002750 0.000000 0.000000 0.000000
# 2 -0.002090 0.008742 -0.004367 0.000000 0.000000 0.000000
# 3 -0.002750 -0.004367 0.015671 0.000000 0.000000 0.000000
# 4 0.000000 0.000000 0.000000 0.214462 0.000000 0.000000
# 5 0.000000 0.000000 0.000000 0.000000 0.031869 0.000000
# 6 0.000000 0.000000 0.000000 0.000000 0.000000 0.090942
#
#
# Mechanical properties :
#
#
# Convention : Reuss Voigt Hill
#
# Bulk Modulus (GPa) = 61.62921 66.62158 64.12539
# Shear Modulus (GPa) = 12.63474 24.24773 18.44124
#
# Velocity S-wave (km/s) = 2.64712 3.66713 3.19805
# Velocity P-wave (km/s) = 6.59717 7.40803 7.01433
#
# Compressibility (1/GPa) = 0.01622607
#
# Stress axis : x y z
#
# Youngs Moduli (GPa) = 97.79214 114.39040 63.81011
#
# Poissons Ratio (x) = 0.23906 0.17547
# Poissons Ratio (y) = 0.20437 0.27865
# Poissons Ratio (z) = 0.26892 0.49952
#
# Static dielectric constant tensor:
#      x y z
#    x 1.609380 0.000000 0.000000 
#    y 0.000000 1.613140 0.000000 
#    z 0.000000 0.000000 1.631090 
# 
# From -- ./inp_files/22207.got.cif
#   From: 2010.05.17/outbox.cif.g08.bks.cpg/sg62_12_cif.got.tgz:22207.got - 2010.06.03 15:25:27.
