data_PCOD9464894
_publ_section_title
;
Structure prediction by ZEFSAII (Michael W. Deem and Ramdas Pophale) SiO2 
 PCOD9464894
Probable space group: P N M A
;
_chemical_formula_sum "Si O2"
_cell_formula_units_Z 64
_cell_length_a 19.415105
_cell_length_b 7.545984
_cell_length_c 20.440951
_cell_angle_alpha 90.000000
_cell_angle_beta 90.000000
_cell_angle_gamma 90.000000
_cell_volume 2994.723433
_symmetry_space_group_name_H-M "P N M A"
_symmetry_group_IT_number 62
_symmetry_cell_setting 'orthorhombic'
loop_
_space_group_symop_operation_xyz
x,y,z
1/2-x,-y,1/2+z
1/2+x,1/2-y,1/2-z
-x,1/2+y,-z
-x,-y,-z
1/2+x,y,1/2-z
1/2-x,1/2+y,1/2+z
x,1/2-y,z
loop_
_atom_site_type_symbol
_atom_site_label
_atom_site_fract_x
_atom_site_fract_y
_atom_site_fract_z
Si Si1 0.942330 0.455566 0.189302
Si Si2 0.693337 0.959358 0.254484
Si Si3 0.701815 0.546237 0.642824
Si Si4 0.958435 0.535251 0.700273
Si Si5 0.307859 0.033673 0.596623
Si Si6 0.711636 0.032532 0.019572
Si Si7 0.537544 0.961085 0.431811
Si Si8 0.941708 0.962224 0.552892
O O1 0.927635 0.250000 0.205644
O O2 0.870155 0.536428 0.165756
O O3 0.994976 0.461577 0.128736
O O4 0.981007 0.532345 0.252470
O O5 0.707786 0.750000 0.253883
O O6 0.701146 0.025178 0.328665
O O7 0.744908 0.044282 0.202636
O O8 0.615113 0.987270 0.231309
O O9 0.685827 0.750000 0.624109
O O10 0.740785 0.470556 0.579867
O O11 0.961838 0.750000 0.700110
O O12 0.960474 0.471744 0.625505
O O13 0.308094 0.250000 0.597203
O O14 0.247623 0.977741 0.547725
O O15 0.383124 0.978049 0.570469
O O16 0.710612 0.250000 0.020716
O O17 0.633462 0.972271 0.030502
O O18 0.538051 0.750000 0.422507
O O19 0.500000 0.000000 0.500000
O O20 0.935817 0.750000 0.558541
O O21 0.000000 0.000000 0.500000
#
# Coordination Sequence:
#
# PCOD9464894 Si02
#       8
#     8   8   8   8   8   8   8   8
#     4  10  21  36  59  86 114 150 194 242 292 348
#     4  11  21  35  57  85 114 149 192 240 291 339
#     4  10  20  37  59  83 111 152 194 233 288 352
#     4  10  20  38  60  84 115 152 196 238 287 352
#     4   9  19  34  54  81 112 147 187 233 281 338
#     4   9  17  34  57  77 107 151 194 225 273 347
#     4  11  21  35  54  80 117 154 191 237 288 343
#     4  10  21  37  59  84 111 150 193 240 288 344
#
# _framework density 21.370923000000001
#
# number of rings (size 3 to 8) (size 9 to 14) (size 15 to 20)
#    0.000    2.000    2.500    1.500    0.000    4.000 
#    0.000    0.000    0.000    3.750    0.000    0.000 
#    0.000    0.000    0.000    0.000    0.000    0.000 
#
# Total GULP energy -357587.192331 kJ/mol
# GULP energy per Si atom -5587.299880 kJ/mol
# Density = 2.132228 g / cm^3
# Si number density = 21.370923 Si / 1000 Ang^3
#
#
#
# Elastic Constant Matrix: (Units=GPa)
#
#
# Indices 1 2 3 4 5 6 
#
# 1 142.5427 -4.7236 81.5854 0.0000 0.0000 0.0000
# 2 -4.7236 54.1271 -9.3195 0.0000 0.0000 0.0000
# 3 81.5854 -9.3195 191.3775 0.0000 0.0000 0.0000
# 4 0.0000 0.0000 0.0000 6.8815 0.0000 0.0000
# 5 0.0000 0.0000 0.0000 0.0000 42.3645 0.0000
# 6 0.0000 0.0000 0.0000 0.0000 0.0000 14.5374
#
#
#
# Elastic Compliance Matrix: (Units=1/GPa)
#
#
# Indices 1 2 3 4 5 6 
#
# 1 0.009281 0.000130 -0.003950 0.000000 0.000000 0.000000
# 2 0.000130 0.018633 0.000852 0.000000 0.000000 0.000000
# 3 -0.003950 0.000852 0.006951 0.000000 0.000000 0.000000
# 4 0.000000 0.000000 0.000000 0.145317 0.000000 0.000000
# 5 0.000000 0.000000 0.000000 0.000000 0.023605 0.000000
# 6 0.000000 0.000000 0.000000 0.000000 0.000000 0.068788
#
#
# Mechanical properties :
#
#
# Convention : Reuss Voigt Hill
#
# Bulk Modulus (GPa) = 34.56869 58.12578 46.34723
# Shear Modulus (GPa) = 17.35190 34.12369 25.73779
#
# Velocity S-wave (km/s) = 2.85255 4.00025 3.47412
# Velocity P-wave (km/s) = 5.20193 6.97091 6.15035
#
# Compressibility (1/GPa) = 0.02892791
#
# Stress axis : x y z
#
# Youngs Moduli (GPa) = 107.75185 53.66801 143.87045
#
# Poissons Ratio (x) = -0.00697 0.56830
# Poissons Ratio (y) = -0.01398 -0.12258
# Poissons Ratio (z) = 0.42563 -0.04573
#
# Static dielectric constant tensor:
#      x y z
#    x 1.736200 0.000000 0.000000 
#    y 0.000000 1.838850 0.000000 
#    z 0.000000 0.000000 1.750500 
# 
# From -- ./inp_files/27707.got.cif
#   From: 2010.05.17/outbox.cif.g08.bks.cpg/sg62_14_cif.got.tgz:27707.got - 2010.06.03 15:25:27.
