data_PCOD9464264
_publ_section_title
;
Structure prediction by ZEFSAII (Michael W. Deem and Ramdas Pophale) SiO2 
 PCOD9464264
Probable space group: P N M A
;
_chemical_formula_sum "Si O2"
_cell_formula_units_Z 48
_cell_length_a 28.662463
_cell_length_b 8.715602
_cell_length_c 10.497322
_cell_angle_alpha 90.000000
_cell_angle_beta 90.000000
_cell_angle_gamma 90.000000
_cell_volume 2622.342516
_symmetry_space_group_name_H-M "P N M A"
_symmetry_group_IT_number 62
_symmetry_cell_setting 'orthorhombic'
loop_
_space_group_symop_operation_xyz
x,y,z
1/2-x,-y,1/2+z
1/2+x,1/2-y,1/2-z
-x,1/2+y,-z
-x,-y,-z
1/2+x,y,1/2-z
1/2-x,1/2+y,1/2+z
x,1/2-y,z
loop_
_atom_site_type_symbol
_atom_site_label
_atom_site_fract_x
_atom_site_fract_y
_atom_site_fract_z
Si Si1 0.358701 0.565891 0.748052
Si Si2 0.554743 0.067700 0.855159
Si Si3 0.198981 0.066382 0.502800
Si Si4 0.052132 0.567577 0.363183
Si Si5 0.697302 0.066138 0.506687
Si Si6 0.853508 0.431942 0.252126
O O1 0.365250 0.750000 0.747887
O O2 0.408491 0.486098 0.765828
O O3 0.331584 0.523180 0.619881
O O4 0.327481 0.526598 0.871565
O O5 0.562380 0.250000 0.845461
O O6 0.500927 0.032768 0.821886
O O7 0.592904 0.981082 0.771891
O O8 0.560769 0.017356 0.002441
O O9 0.196644 0.250000 0.518901
O O10 0.252201 0.012186 0.495523
O O11 0.173523 0.986922 0.621255
O O12 0.055168 0.750000 0.385204
O O13 0.703265 0.250000 0.507016
O O14 0.669377 0.013497 0.631031
O O15 0.849299 0.250000 0.238962
#
# Coordination Sequence:
#
# PCOD9464264 Si02
#       6
#     8   8   8   8   8   8
#     4  10  22  39  60  86 119 155 195 241 297 352
#     4  10  20  36  58  87 119 151 192 243 294 348
#     4  11  22  39  63  90 118 153 197 249 296 349
#     4  10  20  34  59  90 117 149 192 241 296 353
#     4  11  24  41  60  86 121 160 198 245 298 352
#     4  12  24  39  60  89 120 158 202 243 293 352
#
# _framework density 18.304245999999999
#
# number of rings (size 3 to 8) (size 9 to 14) (size 15 to 20)
#    0.000    1.333    1.667    4.500    0.000    5.333 
#    0.000    0.833    0.000    0.000    0.000    0.000 
#    0.000    0.000    0.000    0.000    0.000    0.000 
#
# Total GULP energy -268368.594060 kJ/mol
# GULP energy per Si atom -5591.012376 kJ/mol
# Density = 1.826258 g / cm^3
# Si number density = 18.304246 Si / 1000 Ang^3
#
#
#
# Elastic Constant Matrix: (Units=GPa)
#
#
# Indices 1 2 3 4 5 6 
#
# 1 103.3242 11.0167 27.0462 0.0000 0.0000 0.0000
# 2 11.0167 25.8246 6.4902 0.0000 0.0000 0.0000
# 3 27.0462 6.4902 81.8018 0.0000 0.0000 0.0000
# 4 0.0000 0.0000 0.0000 20.9593 0.0000 0.0000
# 5 0.0000 0.0000 0.0000 0.0000 -26.8860 0.0000
# 6 0.0000 0.0000 0.0000 0.0000 0.0000 36.0637
#
#
#
# Elastic Compliance Matrix: (Units=1/GPa)
#
#
# Indices 1 2 3 4 5 6 
#
# 1 0.010956 -0.003840 -0.003318 0.000000 0.000000 0.000000
# 2 -0.003840 0.040857 -0.001972 0.000000 0.000000 0.000000
# 3 -0.003318 -0.001972 0.013478 0.000000 0.000000 0.000000
# 4 0.000000 0.000000 0.000000 0.047712 0.000000 0.000000
# 5 0.000000 0.000000 0.000000 0.000000 -0.037194 0.000000
# 6 0.000000 0.000000 0.000000 0.000000 0.000000 0.027729
#
#
# Mechanical properties :
#
#
# Convention : Reuss Voigt Hill
#
# Bulk Modulus (GPa) = 21.26244 33.33965 27.30105
# Shear Modulus (GPa) = 36.37059 17.12056 26.74557
#
# Velocity S-wave (km/s) = 4.46242 3.06164 3.82667
# Velocity P-wave (km/s) = 6.17999 5.54544 5.87129
#
# Compressibility (1/GPa) = 0.04703128
#
# Stress axis : x y z
#
# Youngs Moduli (GPa) = 91.27269 24.47586 74.19449
#
# Poissons Ratio (x) = 0.09399 0.24616
# Poissons Ratio (y) = 0.35049 0.14631
# Poissons Ratio (z) = 0.30282 0.04827
#
# Static dielectric constant tensor:
#      x y z
#    x 1.624070 0.000000 0.000000 
#    y 0.000000 1.612530 0.000000 
#    z 0.000000 0.000000 1.595420 
# 
# From -- ./inp_files/10265.got.cif
#   From: 2010.05.17/outbox.cif.g08.bks.cpg/sg62_6_cif.got.tgz:10265.got - 2010.06.03 15:25:27.
