data_PCOD9464912
_publ_section_title
;
Structure prediction by ZEFSAII (Michael W. Deem and Ramdas Pophale) SiO2 
 PCOD9464912
Probable space group: P N M A
;
_chemical_formula_sum "Si O2"
_cell_formula_units_Z 64
_cell_length_a 14.940044
_cell_length_b 25.029995
_cell_length_c 8.975601
_cell_angle_alpha 90.000000
_cell_angle_beta 90.000000
_cell_angle_gamma 90.000000
_cell_volume 3356.419052
_symmetry_space_group_name_H-M "P N M A"
_symmetry_group_IT_number 62
_symmetry_cell_setting 'orthorhombic'
loop_
_space_group_symop_operation_xyz
x,y,z
1/2-x,-y,1/2+z
1/2+x,1/2-y,1/2-z
-x,1/2+y,-z
-x,-y,-z
1/2+x,y,1/2-z
1/2-x,1/2+y,1/2+z
x,1/2-y,z
loop_
_atom_site_type_symbol
_atom_site_label
_atom_site_fract_x
_atom_site_fract_y
_atom_site_fract_z
Si Si1 0.005926 0.603197 0.437204
Si Si2 0.689798 0.548370 0.121636
Si Si3 0.219190 0.377995 0.094752
Si Si4 0.656256 0.073310 0.119502
Si Si5 0.397614 0.661429 0.319431
Si Si6 0.256320 0.134226 0.637125
Si Si7 0.573270 0.689913 0.493130
Si Si8 0.100504 0.814482 0.661356
O O1 0.940327 0.570546 0.544343
O O2 0.949654 0.621870 0.293463
O O3 0.087602 0.567355 0.384228
O O4 0.043776 0.653480 0.534954
O O5 0.696489 0.485441 0.139287
O O6 0.734865 0.584165 0.250096
O O7 0.731671 0.569130 0.967274
O O8 0.155788 0.395046 0.227578
O O9 0.297658 0.336558 0.140732
O O10 0.158105 0.357566 0.961775
O O11 0.715674 0.109916 0.011892
O O12 0.313555 0.676896 0.210030
O O13 0.480518 0.690792 0.400673
O O14 0.353649 0.156667 0.598990
O O15 0.608793 0.750000 0.501501
O O16 0.568264 0.672705 0.668303
O O17 0.095829 0.750000 0.640245
#
# Coordination Sequence:
#
# PCOD9464912 Si02
#       8
#     8   8   8   8   8   8   8   8
#     4  10  21  38  59  86 120 154 200 254 295 370
#     4  10  20  37  59  87 119 162 201 245 307 364
#     4  10  21  38  60  88 124 154 205 253 303 364
#     4  11  20  36  61  86 120 162 200 248 306 354
#     4  10  22  39  60  88 122 158 197 254 303 358
#     4  10  21  39  60  88 127 155 204 259 299 369
#     4  11  22  40  63  86 118 163 204 250 312 364
#     4  10  22  41  63  85 116 159 202 251 309 364
#
# _framework density 19.067941000000001
#
# number of rings (size 3 to 8) (size 9 to 14) (size 15 to 20)
#    0.000    1.750    2.500    1.875    0.000    1.500 
#    0.000    3.125    0.000    0.000    0.000    0.000 
#    0.000    0.000    0.000    0.000    0.000    0.000 
#
# Total GULP energy -356270.960277 kJ/mol
# GULP energy per Si atom -5566.733754 kJ/mol
# Density = 1.902454 g / cm^3
# Si number density = 19.067941 Si / 1000 Ang^3
#
#
#
# Elastic Constant Matrix: (Units=GPa)
#
#
# Indices 1 2 3 4 5 6 
#
# 1 68.2218 3.8743 7.1712 0.0000 0.0000 0.0000
# 2 3.8743 55.8459 21.4543 0.0000 0.0000 0.0000
# 3 7.1712 21.4543 75.1963 0.0000 0.0000 0.0000
# 4 0.0000 0.0000 0.0000 6.4462 0.0000 0.0000
# 5 0.0000 0.0000 0.0000 0.0000 26.2188 0.0000
# 6 0.0000 0.0000 0.0000 0.0000 0.0000 5.1098
#
#
#
# Elastic Compliance Matrix: (Units=1/GPa)
#
#
# Indices 1 2 3 4 5 6 
#
# 1 0.014821 -0.000545 -0.001258 0.000000 0.000000 0.000000
# 2 -0.000545 0.020131 -0.005692 0.000000 0.000000 0.000000
# 3 -0.001258 -0.005692 0.015042 0.000000 0.000000 0.000000
# 4 0.000000 0.000000 0.000000 0.155130 0.000000 0.000000
# 5 0.000000 0.000000 0.000000 0.000000 0.038141 0.000000
# 6 0.000000 0.000000 0.000000 0.000000 0.000000 0.195704
#
#
# Mechanical properties :
#
#
# Convention : Reuss Voigt Hill
#
# Bulk Modulus (GPa) = 28.56700 29.36262 28.96481
# Shear Modulus (GPa) = 10.73823 18.67256 14.70539
#
# Velocity S-wave (km/s) = 2.37567 3.13272 2.78008
# Velocity P-wave (km/s) = 4.74755 5.34019 5.05257
#
# Compressibility (1/GPa) = 0.03500543
#
# Stress axis : x y z
#
# Youngs Moduli (GPa) = 67.47066 49.67524 66.47888
#
# Poissons Ratio (x) = 0.02707 0.08363
# Poissons Ratio (y) = 0.03677 0.37837
# Poissons Ratio (z) = 0.08488 0.28273
#
# Static dielectric constant tensor:
#      x y z
#    x 1.676800 0.000000 0.000000 
#    y 0.000000 1.849080 0.000000 
#    z 0.000000 0.000000 1.680160 
# 
# From -- ./inp_files/6947.got.cif
#   From: 2010.05.17/outbox.cif.g08.bks.cpg/sg62_4_cif.got.tgz:6947.got - 2010.06.03 15:25:27.
