data_PCOD9464375
_publ_section_title
;
Structure prediction by ZEFSAII (Michael W. Deem and Ramdas Pophale) SiO2 
 PCOD9464375
Probable space group: P N M A
;
_chemical_formula_sum "Si O2"
_cell_formula_units_Z 56
_cell_length_a 15.717671
_cell_length_b 7.403358
_cell_length_c 19.481902
_cell_angle_alpha 90.000000
_cell_angle_beta 90.000000
_cell_angle_gamma 90.000000
_cell_volume 2266.983187
_symmetry_space_group_name_H-M "P N M A"
_symmetry_group_IT_number 62
_symmetry_cell_setting 'orthorhombic'
loop_
_space_group_symop_operation_xyz
x,y,z
1/2-x,-y,1/2+z
1/2+x,1/2-y,1/2-z
-x,1/2+y,-z
-x,-y,-z
1/2+x,y,1/2-z
1/2-x,1/2+y,1/2+z
x,1/2-y,z
loop_
_atom_site_type_symbol
_atom_site_label
_atom_site_fract_x
_atom_site_fract_y
_atom_site_fract_z
Si Si1 0.134288 0.029451 0.650021
Si Si2 0.275499 0.028826 0.760047
Si Si3 0.374629 0.968081 0.509339
Si Si4 0.003254 0.457036 0.888308
Si Si5 0.099373 0.036855 0.499117
Si Si6 0.760041 0.042913 0.590816
Si Si7 0.473760 0.470835 0.760630
O O1 0.135034 0.250000 0.649501
O O2 0.213262 0.972237 0.698373
O O3 0.137523 0.967142 0.571275
O O4 0.043040 0.974803 0.682738
O O5 0.275202 0.250000 0.759604
O O6 0.241428 0.966314 0.834659
O O7 0.374763 0.973397 0.761043
O O8 0.377461 0.750000 0.516390
O O9 0.439555 0.033197 0.449384
O O10 0.286836 0.031392 0.476468
O O11 0.407492 0.039087 0.581752
O O12 0.030449 0.250000 0.882187
O O13 0.008753 0.534525 0.813207
O O14 0.112591 0.250000 0.496017
O O15 0.141962 0.959477 0.430506
O O16 0.000000 0.000000 0.500000
O O17 0.731611 0.250000 0.595082
O O18 0.472386 0.250000 0.761122
#
# Coordination Sequence:
#
# PCOD9464375 Si02
#       7
#     8   8   8   8   8   8   8
#     4   9  18  32  52  82 111 139 184 238 282 325
#     4   9  17  30  51  78 107 139 182 231 279 325
#     4   9  18  31  47  72 105 140 171 207 265 330
#     4   9  17  29  49  75 103 134 172 217 266 321
#     4  11  23  38  59  84 113 147 189 236 286 339
#     4  10  20  35  56  79 109 146 183 228 283 336
#     4   9  16  27  47  72 101 132 169 223 275 313
#
# _framework density 24.702435000000001
#
# number of rings (size 3 to 8) (size 9 to 14) (size 15 to 20)
#    0.000    2.571    0.000    2.143    2.000    6.286 
#    0.000    0.000    0.000    6.000    0.000    0.000 
#    0.000    0.000    0.000    0.000    0.000    0.000 
#
# Total GULP energy -312679.384511 kJ/mol
# GULP energy per Si atom -5583.560438 kJ/mol
# Density = 2.464621 g / cm^3
# Si number density = 24.702435 Si / 1000 Ang^3
#
#
#
# Elastic Constant Matrix: (Units=GPa)
#
#
# Indices 1 2 3 4 5 6 
#
# 1 106.0199 -1.2012 26.8109 0.0000 0.0000 0.0000
# 2 -1.2012 91.3817 1.2324 0.0000 0.0000 0.0000
# 3 26.8109 1.2324 124.3695 0.0000 0.0000 0.0000
# 4 0.0000 0.0000 0.0000 -2.7301 0.0000 0.0000
# 5 0.0000 0.0000 0.0000 0.0000 38.1074 0.0000
# 6 0.0000 0.0000 0.0000 0.0000 0.0000 5.7386
#
#
#
# Elastic Compliance Matrix: (Units=1/GPa)
#
#
# Indices 1 2 3 4 5 6 
#
# 1 0.009978 0.000160 -0.002153 0.000000 0.000000 0.000000
# 2 0.000160 0.010947 -0.000143 0.000000 0.000000 0.000000
# 3 -0.002153 -0.000143 0.008506 0.000000 0.000000 0.000000
# 4 0.000000 0.000000 0.000000 -0.366287 0.000000 0.000000
# 5 0.000000 0.000000 0.000000 0.000000 0.026242 0.000000
# 6 0.000000 0.000000 0.000000 0.000000 0.000000 0.174259
#
#
# Mechanical properties :
#
#
# Convention : Reuss Voigt Hill
#
# Bulk Modulus (GPa) = 39.74470 41.71727 40.73099
# Shear Modulus (GPa) = -40.42158 27.88511 -6.26823
#
# Velocity S-wave (km/s) = -4.04956 3.36347 -1.59468
# Velocity P-wave (km/s) = 2.39602 5.65760 3.62406
#
# Compressibility (1/GPa) = 0.02516058
#
# Stress axis : x y z
#
# Youngs Moduli (GPa) = 100.21663 91.34799 117.56359
#
# Poissons Ratio (x) = -0.01463 0.25308
# Poissons Ratio (y) = -0.01605 0.01681
# Poissons Ratio (z) = 0.21573 0.01306
#
# Static dielectric constant tensor:
#      x y z
#    x 2.067340 0.000000 0.000000 
#    y 0.000000 1.974810 0.000000 
#    z 0.000000 0.000000 1.928130 
# 
# From -- ./inp_files/27267.got.cif
#   From: 2010.05.17/outbox.cif.g08.bks.cpg/sg62_14_cif.got.tgz:27267.got - 2010.06.03 15:25:27.
