data_PCOD9464614
_publ_section_title
;
Structure prediction by ZEFSAII (Michael W. Deem and Ramdas Pophale) SiO2 
 PCOD9464614
Probable space group: P N M A
;
_chemical_formula_sum "Si O2"
_cell_formula_units_Z 56
_cell_length_a 19.303650
_cell_length_b 8.583132
_cell_length_c 19.788072
_cell_angle_alpha 90.000000
_cell_angle_beta 90.000000
_cell_angle_gamma 90.000000
_cell_volume 3278.602065
_symmetry_space_group_name_H-M "P N M A"
_symmetry_group_IT_number 62
_symmetry_cell_setting 'orthorhombic'
loop_
_space_group_symop_operation_xyz
x,y,z
1/2-x,-y,1/2+z
1/2+x,1/2-y,1/2-z
-x,1/2+y,-z
-x,-y,-z
1/2+x,y,1/2-z
1/2-x,1/2+y,1/2+z
x,1/2-y,z
loop_
_atom_site_type_symbol
_atom_site_label
_atom_site_fract_x
_atom_site_fract_y
_atom_site_fract_z
Si Si1 0.061345 0.563974 0.547130
Si Si2 0.714351 0.063163 0.976003
Si Si3 0.246421 0.938315 0.174327
Si Si4 0.636767 0.935044 0.725220
Si Si5 0.141034 0.561295 0.285076
Si Si6 0.015789 0.062742 0.692159
Si Si7 0.764398 0.563120 0.115097
O O1 0.062782 0.750000 0.543555
O O2 0.135593 0.498612 0.523998
O O3 0.046214 0.508998 0.623412
O O4 0.000000 0.500000 0.500000
O O5 0.713151 0.250000 0.980359
O O6 0.747684 0.018621 0.903827
O O7 0.755498 0.994615 0.039215
O O8 0.254061 0.750000 0.179338
O O9 0.176193 0.982389 0.213766
O O10 0.308853 0.013186 0.216657
O O11 0.630330 0.750000 0.724566
O O12 0.564490 0.012204 0.746137
O O13 0.670539 0.994771 0.655727
O O14 0.138679 0.750000 0.286885
O O15 0.195409 0.512811 0.343025
O O16 0.063159 0.507457 0.297380
O O17 0.016825 0.250000 0.685633
O O18 0.767680 0.750000 0.117639
#
# Coordination Sequence:
#
# PCOD9464614 Si02
#       7
#     8   8   8   8   8   8   8
#     4  12  24  36  51  76 113 150 185 220 271 332
#     4  11  21  34  55  81 110 142 179 223 275 330
#     4   9  18  35  56  77 105 141 181 223 272 327
#     4  11  21  34  53  78 107 141 185 227 270 325
#     4   8  17  33  54  77 101 137 179 220 267 323
#     4  11  20  34  55  79 108 142 181 225 275 329
#     4  10  20  36  56  78 108 143 182 226 274 326
#
# _framework density 17.080449999999999
#
# number of rings (size 3 to 8) (size 9 to 14) (size 15 to 20)
#    0.000    1.714    1.429    5.571    0.000    1.714 
#    0.000    6.429    0.000    0.857    0.000    0.000 
#    0.000    0.000    0.000    0.000    0.000    0.000 
#
# Total GULP energy -312715.296633 kJ/mol
# GULP energy per Si atom -5584.201726 kJ/mol
# Density = 1.704157 g / cm^3
# Si number density = 17.080450 Si / 1000 Ang^3
#
#
#
# Elastic Constant Matrix: (Units=GPa)
#
#
# Indices 1 2 3 4 5 6 
#
# 1 16.0409 -0.6021 -3.7158 0.0000 0.0000 0.0000
# 2 -0.6021 47.0836 14.7271 0.0000 0.0000 0.0000
# 3 -3.7158 14.7271 87.4137 0.0000 0.0000 0.0000
# 4 0.0000 0.0000 0.0000 24.2719 0.0000 0.0000
# 5 0.0000 0.0000 0.0000 0.0000 26.2244 0.0000
# 6 0.0000 0.0000 0.0000 0.0000 0.0000 17.2396
#
#
#
# Elastic Compliance Matrix: (Units=1/GPa)
#
#
# Indices 1 2 3 4 5 6 
#
# 1 0.062961 -0.000034 0.002682 0.000000 0.000000 0.000000
# 2 -0.000034 0.022420 -0.003779 0.000000 0.000000 0.000000
# 3 0.002682 -0.003779 0.012190 0.000000 0.000000 0.000000
# 4 0.000000 0.000000 0.000000 0.041200 0.000000 0.000000
# 5 0.000000 0.000000 0.000000 0.000000 0.038132 0.000000
# 6 0.000000 0.000000 0.000000 0.000000 0.000000 0.058006
#
#
# Mechanical properties :
#
#
# Convention : Reuss Voigt Hill
#
# Bulk Modulus (GPa) = 10.49201 19.03962 14.76582
# Shear Modulus (GPa) = 18.59146 22.88913 20.74029
#
# Velocity S-wave (km/s) = 3.30277 3.66468 3.48842
# Velocity P-wave (km/s) = 4.54977 5.39238 4.98889
#
# Compressibility (1/GPa) = 0.09531061
#
# Stress axis : x y z
#
# Youngs Moduli (GPa) = 15.88293 44.60237 82.03118
#
# Poissons Ratio (x) = 0.00151 -0.22001
# Poissons Ratio (y) = 0.00054 0.30997
# Poissons Ratio (z) = -0.04260 0.16854
#
# Static dielectric constant tensor:
#      x y z
#    x 1.571070 0.000000 0.000000 
#    y 0.000000 1.576030 0.000000 
#    z 0.000000 0.000000 1.574890 
# 
# From -- ./inp_files/24625.got.cif
#   From: 2010.05.17/outbox.cif.g08.bks.cpg/sg62_13_cif.got.tgz:24625.got - 2010.06.03 15:25:27.
