data_PCOD9464972
_publ_section_title
;
Structure prediction by ZEFSAII (Michael W. Deem and Ramdas Pophale) SiO2 
 PCOD9464972
Probable space group: P N M A
;
_chemical_formula_sum "Si O2"
_cell_formula_units_Z 48
_cell_length_a 24.551870
_cell_length_b 8.559144
_cell_length_c 12.065962
_cell_angle_alpha 90.000000
_cell_angle_beta 90.000000
_cell_angle_gamma 90.000000
_cell_volume 2535.577342
_symmetry_space_group_name_H-M "P N M A"
_symmetry_group_IT_number 62
_symmetry_cell_setting 'orthorhombic'
loop_
_space_group_symop_operation_xyz
x,y,z
1/2-x,-y,1/2+z
1/2+x,1/2-y,1/2-z
-x,1/2+y,-z
-x,-y,-z
1/2+x,y,1/2-z
1/2-x,1/2+y,1/2+z
x,1/2-y,z
loop_
_atom_site_type_symbol
_atom_site_label
_atom_site_fract_x
_atom_site_fract_y
_atom_site_fract_z
Si Si1 0.961423 0.562564 0.751084
Si Si2 0.291761 0.562808 0.665363
Si Si3 0.420672 0.561050 0.282071
Si Si4 0.173127 0.436873 0.610051
Si Si5 0.603057 0.060376 0.468962
Si Si6 0.358595 0.064459 0.870870
O O1 0.958703 0.750000 0.745421
O O2 0.918745 0.492960 0.663741
O O3 0.022615 0.504944 0.737358
O O4 0.939324 0.512439 0.873138
O O5 0.286869 0.750000 0.661437
O O6 0.233669 0.487230 0.643733
O O7 0.336986 0.514099 0.573868
O O8 0.317414 0.513235 0.782686
O O9 0.423844 0.750000 0.283574
O O10 0.370176 0.516503 0.204484
O O11 0.411324 0.505189 0.408395
O O12 0.170932 0.250000 0.598407
O O13 0.156664 0.513464 0.494004
O O14 0.602518 0.250000 0.471318
O O15 0.355297 0.250000 0.859520
#
# Coordination Sequence:
#
# PCOD9464972 Si02
#       6
#     8   8   8   8   8   8
#     4  10  20  37  61  88 119 152 196 248 299 355
#     4  10  21  39  63  89 120 154 196 249 301 357
#     4  10  21  37  58  86 121 156 195 239 294 359
#     4  11  24  39  58  88 122 159 201 246 296 359
#     4   8  17  35  59  87 117 153 189 238 297 351
#     4  11  23  41  63  84 115 159 203 246 300 356
#
# _framework density 18.930599999999998
#
# number of rings (size 3 to 8) (size 9 to 14) (size 15 to 20)
#    0.000    2.000    0.000    4.500    2.333    2.000 
#    0.000    4.167    0.000    0.000    0.000    0.000 
#    0.000    0.000    0.000    0.000    0.000    0.000 
#
# Total GULP energy -268169.249000 kJ/mol
# GULP energy per Si atom -5586.859354 kJ/mol
# Density = 1.888751 g / cm^3
# Si number density = 18.930600 Si / 1000 Ang^3
#
#
#
# Elastic Constant Matrix: (Units=GPa)
#
#
# Indices 1 2 3 4 5 6 
#
# 1 120.2369 7.5026 8.5753 0.0000 0.0000 0.0000
# 2 7.5026 10.0167 5.8467 0.0000 0.0000 0.0000
# 3 8.5753 5.8467 12.5074 0.0000 0.0000 0.0000
# 4 0.0000 0.0000 0.0000 20.8178 0.0000 0.0000
# 5 0.0000 0.0000 0.0000 0.0000 9.0475 0.0000
# 6 0.0000 0.0000 0.0000 0.0000 0.0000 31.6653
#
#
#
# Elastic Compliance Matrix: (Units=1/GPa)
#
#
# Indices 1 2 3 4 5 6 
#
# 1 0.008875 -0.004257 -0.004094 0.000000 0.000000 0.000000
# 2 -0.004257 0.139336 -0.062215 0.000000 0.000000 0.000000
# 3 -0.004094 -0.062215 0.111843 0.000000 0.000000 0.000000
# 4 0.000000 0.000000 0.000000 0.048036 0.000000 0.000000
# 5 0.000000 0.000000 0.000000 0.000000 0.110527 0.000000
# 6 0.000000 0.000000 0.000000 0.000000 0.000000 0.031580
#
#
# Mechanical properties :
#
#
# Convention : Reuss Voigt Hill
#
# Bulk Modulus (GPa) = 8.40898 20.73447 14.57173
# Shear Modulus (GPa) = 7.92431 20.36191 14.14311
#
# Velocity S-wave (km/s) = 2.04819 3.28320 2.73628
# Velocity P-wave (km/s) = 3.16940 5.03480 4.20680
#
# Compressibility (1/GPa) = 0.11892043
#
# Stress axis : x y z
#
# Youngs Moduli (GPa) = 112.68144 7.17689 8.94113
#
# Poissons Ratio (x) = 0.03055 0.03661
# Poissons Ratio (y) = 0.47971 0.55627
# Poissons Ratio (z) = 0.46137 0.44651
#
# Static dielectric constant tensor:
#      x y z
#    x 1.626020 0.000000 0.000000 
#    y 0.000000 1.637270 0.000000 
#    z 0.000000 0.000000 1.641180 
# 
# From -- ./inp_files/15107.got.cif
#   From: 2010.05.17/outbox.cif.g08.bks.cpg/sg62_8_cif.got.tgz:15107.got - 2010.06.03 15:25:27.
