data_PCOD9464318
_publ_section_title
;
Structure prediction by ZEFSAII (Michael W. Deem and Ramdas Pophale) SiO2 
 PCOD9464318
Probable space group: P N M A
;
_chemical_formula_sum "Si O2"
_cell_formula_units_Z 64
_cell_length_a 15.689714
_cell_length_b 8.905249
_cell_length_c 23.957430
_cell_angle_alpha 90.000000
_cell_angle_beta 90.000000
_cell_angle_gamma 90.000000
_cell_volume 3347.351523
_symmetry_space_group_name_H-M "P N M A"
_symmetry_group_IT_number 62
_symmetry_cell_setting 'orthorhombic'
loop_
_space_group_symop_operation_xyz
x,y,z
1/2-x,-y,1/2+z
1/2+x,1/2-y,1/2-z
-x,1/2+y,-z
-x,-y,-z
1/2+x,y,1/2-z
1/2-x,1/2+y,1/2+z
x,1/2-y,z
loop_
_atom_site_type_symbol
_atom_site_label
_atom_site_fract_x
_atom_site_fract_y
_atom_site_fract_z
Si Si1 0.367742 0.569056 0.194188
Si Si2 0.016858 0.572625 0.223662
Si Si3 0.068191 0.070793 0.572549
Si Si4 0.464898 0.572700 0.405244
Si Si5 0.310212 0.928033 0.694606
Si Si6 0.703265 0.571587 0.544579
Si Si7 0.877499 0.072787 0.543557
Si Si8 0.359413 0.570919 0.566627
O O1 0.363598 0.750000 0.197091
O O2 0.446101 0.519205 0.232789
O O3 0.387248 0.527571 0.130124
O O4 0.277898 0.502277 0.212568
O O5 0.031437 0.750000 0.232821
O O6 0.106931 0.489739 0.226036
O O7 0.980433 0.555044 0.160969
O O8 0.080678 0.250000 0.562886
O O9 0.966212 0.045675 0.575873
O O10 0.103089 0.981245 0.519571
O O11 0.468710 0.750000 0.418819
O O12 0.374846 0.504871 0.422950
O O13 0.543035 0.486341 0.434631
O O14 0.305502 0.750000 0.700100
O O15 0.325162 0.963351 0.628698
O O16 0.696888 0.750000 0.547283
O O17 0.795296 0.515404 0.564985
O O18 0.692473 0.514850 0.480823
O O19 0.859592 0.250000 0.544129
O O20 0.355649 0.750000 0.557618
#
# Coordination Sequence:
#
# PCOD9464318 Si02
#       8
#     8   8   8   8   8   8   8   8
#     4  10  20  37  61  86 109 142 188 232 275 326
#     4   9  20  39  60  81 108 145 188 234 278 326
#     4   9  19  36  58  82 109 141 179 226 274 323
#     4  10  20  36  55  76 106 143 182 227 278 327
#     4  10  21  36  57  85 114 145 180 227 283 331
#     4  12  23  34  51  78 110 147 185 222 269 329
#     4  10  20  35  54  79 113 147 179 221 271 326
#     4  10  20  35  55  80 110 143 182 226 273 328
#
# _framework density 19.119593999999999
#
# number of rings (size 3 to 8) (size 9 to 14) (size 15 to 20)
#    0.000    2.000    0.000    3.750    0.000    5.500 
#    2.250    0.000    0.000    0.000    0.000    0.000 
#    0.000    0.000    0.000    0.000    0.000    0.000 
#
# Total GULP energy -357610.452520 kJ/mol
# GULP energy per Si atom -5587.663321 kJ/mol
# Density = 1.907608 g / cm^3
# Si number density = 19.119594 Si / 1000 Ang^3
#
#
#
# Elastic Constant Matrix: (Units=GPa)
#
#
# Indices 1 2 3 4 5 6 
#
# 1 137.1052 37.3769 24.9892 0.0000 0.0000 0.0000
# 2 37.3769 48.0441 12.6226 0.0000 0.0000 0.0000
# 3 24.9892 12.6226 20.0805 0.0000 0.0000 0.0000
# 4 0.0000 0.0000 0.0000 17.2012 0.0000 0.0000
# 5 0.0000 0.0000 0.0000 0.0000 20.4501 0.0000
# 6 0.0000 0.0000 0.0000 0.0000 0.0000 31.2092
#
#
#
# Elastic Compliance Matrix: (Units=1/GPa)
#
#
# Indices 1 2 3 4 5 6 
#
# 1 0.010604 -0.005729 -0.009595 0.000000 0.000000 0.000000
# 2 -0.005729 0.028027 -0.010488 0.000000 0.000000 0.000000
# 3 -0.009595 -0.010488 0.068333 0.000000 0.000000 0.000000
# 4 0.000000 0.000000 0.000000 0.058135 0.000000 0.000000
# 5 0.000000 0.000000 0.000000 0.000000 0.048899 0.000000
# 6 0.000000 0.000000 0.000000 0.000000 0.000000 0.032042
#
#
# Mechanical properties :
#
#
# Convention : Reuss Voigt Hill
#
# Bulk Modulus (GPa) = 18.07034 39.46749 28.76891
# Shear Modulus (GPa) = 15.81714 22.45484 19.13599
#
# Velocity S-wave (km/s) = 2.87936 3.43073 3.16707
# Velocity P-wave (km/s) = 4.53056 6.03162 5.33416
#
# Compressibility (1/GPa) = 0.05533930
#
# Stress axis : x y z
#
# Youngs Moduli (GPa) = 94.30102 35.68021 14.63413
#
# Poissons Ratio (x) = 0.20441 0.14042
# Poissons Ratio (y) = 0.54024 0.15349
# Poissons Ratio (z) = 0.90486 0.37423
#
# Static dielectric constant tensor:
#      x y z
#    x 1.661000 0.000000 0.000000 
#    y 0.000000 1.634800 0.000000 
#    z 0.000000 0.000000 1.661130 
# 
# From -- ./inp_files/29774.got.cif
#   From: 2010.05.17/outbox.cif.g08.bks.cpg/sg62_15_cif.got.tgz:29774.got - 2010.06.03 15:25:27.
