data_PCOD9464754
_publ_section_title
;
Structure prediction by ZEFSAII (Michael W. Deem and Ramdas Pophale) SiO2 
 PCOD9464754
Probable space group: P N M A
;
_chemical_formula_sum "Si O2"
_cell_formula_units_Z 40
_cell_length_a 9.362874
_cell_length_b 23.253529
_cell_length_c 7.631805
_cell_angle_alpha 90.000000
_cell_angle_beta 90.000000
_cell_angle_gamma 90.000000
_cell_volume 1661.595532
_symmetry_space_group_name_H-M "P N M A"
_symmetry_group_IT_number 62
_symmetry_cell_setting 'orthorhombic'
loop_
_space_group_symop_operation_xyz
x,y,z
1/2-x,-y,1/2+z
1/2+x,1/2-y,1/2-z
-x,1/2+y,-z
-x,-y,-z
1/2+x,y,1/2-z
1/2-x,1/2+y,1/2+z
x,1/2-y,z
loop_
_atom_site_type_symbol
_atom_site_label
_atom_site_fract_x
_atom_site_fract_y
_atom_site_fract_z
Si Si1 0.425027 0.750000 0.206837
Si Si2 0.207746 0.750000 0.500351
Si Si3 0.379450 0.875304 0.219725
Si Si4 0.223549 0.625682 0.594055
Si Si5 0.974895 0.940377 0.755920
Si Si6 0.630604 0.940791 0.368358
O O1 0.364844 0.750000 0.407498
O O2 0.592763 0.750000 0.159561
O O3 0.370550 0.811830 0.138826
O O4 0.183762 0.692449 0.611250
O O5 0.295066 0.877946 0.403646
O O6 0.539364 0.890574 0.274634
O O7 0.296120 0.924443 0.115476
O O8 0.350024 0.606089 0.721495
O O9 0.089950 0.583219 0.618940
O O10 0.898471 0.002306 0.754238
O O11 0.064655 0.945277 0.938303
#
# Coordination Sequence:
#
# PCOD9464754 Si02
#       6
#     4   4   8   8   8   8
#     4  10  20  38  60  86 120 148 190 244 292 350
#     4  10  22  40  62  90 120 156 200 250 300 360
#     4  10  20  36  59  87 113 150 200 249 293 357
#     4  10  22  38  57  84 119 153 197 246 297 353
#     4  10  22  39  56  83 121 156 193 248 301 360
#     4  10  21  37  59  84 115 156 201 243 301 358
#
# _framework density 24.073248
#
# number of rings (size 3 to 8) (size 9 to 14) (size 15 to 20)
#    0.000    2.000    0.000    3.600    0.000    4.800 
#    0.000    2.000    0.000    0.000    0.000    0.000 
#    0.000    0.000    0.000    0.000    0.000    0.000 
#
# Total GULP energy -223441.074123 kJ/mol
# GULP energy per Si atom -5586.026853 kJ/mol
# Density = 2.401846 g / cm^3
# Si number density = 24.073248 Si / 1000 Ang^3
#
#
#
# Elastic Constant Matrix: (Units=GPa)
#
#
# Indices 1 2 3 4 5 6 
#
# 1 102.6024 5.8722 18.0288 0.0000 0.0000 0.0000
# 2 5.8722 117.9060 26.7599 0.0000 0.0000 0.0000
# 3 18.0288 26.7599 52.7531 0.0000 0.0000 0.0000
# 4 0.0000 0.0000 0.0000 20.1733 0.0000 0.0000
# 5 0.0000 0.0000 0.0000 0.0000 19.6630 0.0000
# 6 0.0000 0.0000 0.0000 0.0000 0.0000 32.1036
#
#
#
# Elastic Compliance Matrix: (Units=1/GPa)
#
#
# Indices 1 2 3 4 5 6 
#
# 1 0.010380 0.000326 -0.003713 0.000000 0.000000 0.000000
# 2 0.000326 0.009595 -0.004979 0.000000 0.000000 0.000000
# 3 -0.003713 -0.004979 0.022751 0.000000 0.000000 0.000000
# 4 0.000000 0.000000 0.000000 0.049571 0.000000 0.000000
# 5 0.000000 0.000000 0.000000 0.000000 0.050857 0.000000
# 6 0.000000 0.000000 0.000000 0.000000 0.000000 0.031149
#
#
# Mechanical properties :
#
#
# Convention : Reuss Voigt Hill
#
# Bulk Modulus (GPa) = 38.46961 41.62036 40.04499
# Shear Modulus (GPa) = 25.03776 29.22801 27.13289
#
# Velocity S-wave (km/s) = 3.22850 3.48821 3.36087
# Velocity P-wave (km/s) = 5.46924 5.79225 5.63306
#
# Compressibility (1/GPa) = 0.02599454
#
# Stress axis : x y z
#
# Youngs Moduli (GPa) = 96.33828 104.22047 43.95499
#
# Poissons Ratio (x) = -0.03394 0.16319
# Poissons Ratio (y) = -0.03137 0.21883
# Poissons Ratio (z) = 0.35767 0.51887
#
# Static dielectric constant tensor:
#      x y z
#    x 1.920670 0.000000 0.000000 
#    y 0.000000 1.973550 0.000000 
#    z 0.000000 0.000000 1.960880 
# 
# From -- ./inp_files/4312.got.cif
#   From: 2010.05.17/outbox.cif.g08.bks.cpg/sg62_3_cif.got.tgz:4312.got - 2010.06.03 15:25:27.
