data_PCOD9464908
_publ_section_title
;
Structure prediction by ZEFSAII (Michael W. Deem and Ramdas Pophale) SiO2 
 PCOD9464908
Probable space group: P N M A
;
_chemical_formula_sum "Si O2"
_cell_formula_units_Z 64
_cell_length_a 31.707579
_cell_length_b 10.884258
_cell_length_c 9.499244
_cell_angle_alpha 90.000000
_cell_angle_beta 90.000000
_cell_angle_gamma 90.000000
_cell_volume 3278.317063
_symmetry_space_group_name_H-M "P N M A"
_symmetry_group_IT_number 62
_symmetry_cell_setting 'orthorhombic'
loop_
_space_group_symop_operation_xyz
x,y,z
1/2-x,-y,1/2+z
1/2+x,1/2-y,1/2-z
-x,1/2+y,-z
-x,-y,-z
1/2+x,y,1/2-z
1/2-x,1/2+y,1/2+z
x,1/2-y,z
loop_
_atom_site_type_symbol
_atom_site_label
_atom_site_fract_x
_atom_site_fract_y
_atom_site_fract_z
Si Si1 0.589895 0.614267 0.705603
Si Si2 0.777685 0.614293 0.326336
Si Si3 0.586351 0.113076 0.199002
Si Si4 0.786359 0.456676 0.592290
Si Si5 0.618928 0.616486 0.027157
Si Si6 0.996268 0.889900 0.888483
Si Si7 0.176857 0.114633 0.160630
Si Si8 0.646705 0.103621 0.625473
O O1 0.601321 0.750000 0.642912
O O2 0.539438 0.607151 0.700886
O O3 0.608831 0.492880 0.633404
O O4 0.607979 0.614080 0.862908
O O5 0.774909 0.750000 0.391059
O O6 0.769321 0.514663 0.447294
O O7 0.747391 0.612599 0.189638
O O8 0.824671 0.595958 0.265023
O O9 0.583706 0.250000 0.131286
O O10 0.544488 0.093656 0.290216
O O11 0.627353 0.117435 0.298888
O O12 0.595921 0.999762 0.096796
O O13 0.830728 0.392401 0.553918
O O14 0.800625 0.558618 0.705652
O O15 0.604787 0.750000 0.084278
O O16 0.993345 0.750000 0.949631
O O17 0.000000 0.000000 0.000000
O O18 0.194551 0.250000 0.141193
O O19 0.175371 0.058543 0.005584
O O20 0.636080 0.250000 0.606473
#
# Coordination Sequence:
#
# PCOD9464908 Si02
#       8
#     8   8   8   8   8   8   8   8
#     4  10  21  38  58  86 121 159 196 244 304 360
#     4  11  23  38  59  87 116 152 203 252 300 364
#     4   9  19  35  56  83 115 157 200 243 296 352
#     4  11  21  39  60  84 121 154 196 249 309 361
#     4  10  21  38  59  84 118 157 196 242 301 364
#     4  10  21  37  58  85 121 157 202 254 302 359
#     4   9  18  34  57  81 112 151 195 244 297 352
#     4  10  20  37  59  86 115 152 203 249 292 359
#
# _framework density 19.522210999999999
#
# number of rings (size 3 to 8) (size 9 to 14) (size 15 to 20)
#    0.000    2.000    1.250    2.250    0.000    3.500 
#    0.000    8.750    0.000    0.000    0.000    0.000 
#    0.000    0.000    0.000    0.000    0.000    0.000 
#
# Total GULP energy -356433.161318 kJ/mol
# GULP energy per Si atom -5569.268146 kJ/mol
# Density = 1.947778 g / cm^3
# Si number density = 19.522211 Si / 1000 Ang^3
#
#
#
# Elastic Constant Matrix: (Units=GPa)
#
#
# Indices 1 2 3 4 5 6 
#
# 1 70.0568 26.2991 4.8859 0.0000 0.0000 0.0000
# 2 26.2991 105.7654 34.1152 0.0000 0.0000 0.0000
# 3 4.8859 34.1152 62.4738 0.0000 0.0000 0.0000
# 4 0.0000 0.0000 0.0000 23.8210 0.0000 0.0000
# 5 0.0000 0.0000 0.0000 0.0000 21.0615 0.0000
# 6 0.0000 0.0000 0.0000 0.0000 0.0000 3.9507
#
#
#
# Elastic Compliance Matrix: (Units=1/GPa)
#
#
# Indices 1 2 3 4 5 6 
#
# 1 0.015806 -0.004287 0.001105 0.000000 0.000000 0.000000
# 2 -0.004287 0.012639 -0.006566 0.000000 0.000000 0.000000
# 3 0.001105 -0.006566 0.019506 0.000000 0.000000 0.000000
# 4 0.000000 0.000000 0.000000 0.041980 0.000000 0.000000
# 5 0.000000 0.000000 0.000000 0.000000 0.047480 0.000000
# 6 0.000000 0.000000 0.000000 0.000000 0.000000 0.253119
#
#
# Mechanical properties :
#
#
# Convention : Reuss Voigt Hill
#
# Bulk Modulus (GPa) = 35.14407 40.98848 38.06628
# Shear Modulus (GPa) = 11.91861 21.29969 16.60915
#
# Velocity S-wave (km/s) = 2.47354 3.30669 2.91998
# Velocity P-wave (km/s) = 5.11850 5.96827 5.55965
#
# Compressibility (1/GPa) = 0.02845430
#
# Stress axis : x y z
#
# Youngs Moduli (GPa) = 63.26599 79.12126 51.26606
#
# Poissons Ratio (x) = 0.33916 -0.05663
# Poissons Ratio (y) = 0.27120 0.33664
# Poissons Ratio (z) = -0.06989 0.51955
#
# Static dielectric constant tensor:
#      x y z
#    x 1.697340 0.000000 0.000000 
#    y 0.000000 1.731710 0.000000 
#    z 0.000000 0.000000 1.661690 
# 
# From -- ./inp_files/10450.got.cif
#   From: 2010.05.17/outbox.cif.g08.bks.cpg/sg62_6_cif.got.tgz:10450.got - 2010.06.03 15:25:27.
