data_PCOD9464205
_publ_section_title
;
Structure prediction by ZEFSAII (Michael W. Deem and Ramdas Pophale) SiO2 
 PCOD9464205
Probable space group: P N M A
;
_chemical_formula_sum "Si O2"
_cell_formula_units_Z 40
_cell_length_a 5.594861
_cell_length_b 29.824430
_cell_length_c 9.169262
_cell_angle_alpha 90.000000
_cell_angle_beta 90.000000
_cell_angle_gamma 90.000000
_cell_volume 1530.015519
_symmetry_space_group_name_H-M "P N M A"
_symmetry_group_IT_number 62
_symmetry_cell_setting 'orthorhombic'
loop_
_space_group_symop_operation_xyz
x,y,z
1/2-x,-y,1/2+z
1/2+x,1/2-y,1/2-z
-x,1/2+y,-z
-x,-y,-z
1/2+x,y,1/2-z
1/2-x,1/2+y,1/2+z
x,1/2-y,z
loop_
_atom_site_type_symbol
_atom_site_label
_atom_site_fract_x
_atom_site_fract_y
_atom_site_fract_z
Si Si1 0.373057 0.335029 0.894691
Si Si2 0.814864 0.601061 0.698779
Si Si3 0.058937 0.070257 0.595544
Si Si4 0.873986 0.198355 0.931413
Si Si5 0.296732 0.514993 0.610194
O O1 0.357681 0.307080 0.744703
O O2 0.609889 0.318077 0.979034
O O3 0.116904 0.328391 0.970911
O O4 0.422685 0.386461 0.843646
O O5 0.579186 0.621919 0.773246
O O6 0.767703 0.592020 0.528070
O O7 0.861660 0.551940 0.771344
O O8 0.880774 0.041842 0.495487
O O9 0.195964 0.031179 0.680731
O O10 0.906814 0.250000 0.971109
O O11 0.500000 0.500000 0.500000
#
# Coordination Sequence:
#
# PCOD9464205 Si02
#       5
#     8   8   8   8   8
#     4  10  20  34  56  84 114 148 184 233 270 360
#     4  10  20  36  54  72 100 149 192 234 280 313
#     4  10  22  36  51  83 110 146 207 231 280 324
#     4  10  20  39  59  85 118 150 176 229 306 357
#     4  10  20  38  55  71 113 161 196 242 277 322
#
# _framework density 26.143525
#
# number of rings (size 3 to 8) (size 9 to 14) (size 15 to 20)
#    0.000    2.000    2.000    3.000    2.800    0.000 
#   21.600    0.000    0.000    0.000    0.000    0.000 
#    0.000  108.800    0.000    0.000    0.000    0.000 
#
# Total GULP energy -223546.764007 kJ/mol
# GULP energy per Si atom -5588.669100 kJ/mol
# Density = 2.608402 g / cm^3
# Si number density = 26.143525 Si / 1000 Ang^3
#
#
#
# Elastic Constant Matrix: (Units=GPa)
#
#
# Indices 1 2 3 4 5 6 
#
# 1 221.5754 47.5941 15.4014 0.0000 0.0000 0.0000
# 2 47.5941 124.9802 6.0273 0.0000 0.0000 0.0000
# 3 15.4014 6.0273 52.2169 0.0000 0.0000 0.0000
# 4 0.0000 0.0000 0.0000 22.9938 0.0000 0.0000
# 5 0.0000 0.0000 0.0000 0.0000 35.1700 0.0000
# 6 0.0000 0.0000 0.0000 0.0000 0.0000 40.1004
#
#
#
# Elastic Compliance Matrix: (Units=1/GPa)
#
#
# Indices 1 2 3 4 5 6 
#
# 1 0.004996 -0.001842 -0.001261 0.000000 0.000000 0.000000
# 2 -0.001842 0.008725 -0.000464 0.000000 0.000000 0.000000
# 3 -0.001261 -0.000464 0.019576 0.000000 0.000000 0.000000
# 4 0.000000 0.000000 0.000000 0.043490 0.000000 0.000000
# 5 0.000000 0.000000 0.000000 0.000000 0.028433 0.000000
# 6 0.000000 0.000000 0.000000 0.000000 0.000000 0.024937
#
#
# Mechanical properties :
#
#
# Convention : Reuss Voigt Hill
#
# Bulk Modulus (GPa) = 38.22014 59.64646 48.93330
# Shear Modulus (GPa) = 34.24338 41.63615 37.93977
#
# Velocity S-wave (km/s) = 3.62307 3.99507 3.81361
# Velocity P-wave (km/s) = 5.67039 6.64419 6.17651
#
# Compressibility (1/GPa) = 0.02616422
#
# Stress axis : x y z
#
# Youngs Moduli (GPa) = 200.14289 114.61247 51.08191
#
# Poissons Ratio (x) = 0.21110 0.06442
# Poissons Ratio (y) = 0.36864 0.02369
# Poissons Ratio (z) = 0.25240 0.05316
#
# Static dielectric constant tensor:
#      x y z
#    x 2.250100 0.000000 0.000000 
#    y 0.000000 2.061420 0.000000 
#    z 0.000000 0.000000 2.094180 
# 
# From -- ./inp_files/10701.got.cif
#   From: 2010.05.17/outbox.cif.g08.bks.cpg/sg62_6_cif.got.tgz:10701.got - 2010.06.03 15:25:27.
