data_PCOD9464131
_publ_section_title
;
Structure prediction by ZEFSAII (Michael W. Deem and Ramdas Pophale) SiO2 
 PCOD9464131
Probable space group: P N M A
;
_chemical_formula_sum "Si O2"
_cell_formula_units_Z 40
_cell_length_a 8.847810
_cell_length_b 20.534276
_cell_length_c 11.714086
_cell_angle_alpha 90.000000
_cell_angle_beta 90.000000
_cell_angle_gamma 90.000000
_cell_volume 2128.254651
_symmetry_space_group_name_H-M "P N M A"
_symmetry_group_IT_number 62
_symmetry_cell_setting 'orthorhombic'
loop_
_space_group_symop_operation_xyz
x,y,z
1/2-x,-y,1/2+z
1/2+x,1/2-y,1/2-z
-x,1/2+y,-z
-x,-y,-z
1/2+x,y,1/2-z
1/2-x,1/2+y,1/2+z
x,1/2-y,z
loop_
_atom_site_type_symbol
_atom_site_label
_atom_site_fract_x
_atom_site_fract_y
_atom_site_fract_z
Si Si1 0.514119 0.674289 0.900627
Si Si2 0.490733 0.563013 0.082660
Si Si3 0.132138 0.325524 0.154056
Si Si4 0.992352 0.451184 0.104526
Si Si5 0.741505 0.982987 0.239144
O O1 0.498699 0.750000 0.934469
O O2 0.415868 0.664551 0.786096
O O3 0.690182 0.662951 0.866904
O O4 0.472788 0.625001 0.001327
O O5 0.355435 0.552512 0.173445
O O6 0.646798 0.563604 0.154966
O O7 0.500000 0.500000 0.000000
O O8 0.099674 0.250000 0.126810
O O9 0.032704 0.376549 0.081968
O O10 0.120730 0.476688 0.189651
O O11 0.835133 0.465186 0.165443
O O12 0.000000 0.500000 0.000000
#
# Coordination Sequence:
#
# PCOD9464131 Si02
#       5
#     8   8   8   8   8
#     4  10  21  37  57  81 111 144 177 222 278 326
#     4  11  21  37  57  79 110 145 182 228 277 326
#     4  10  20  34  54  82 111 139 178 225 273 327
#     4  11  20  34  55  80 108 141 177 220 272 321
#     4  10  22  34  53  82 107 137 186 227 264 324
#
# _framework density 18.794743
#
# number of rings (size 3 to 8) (size 9 to 14) (size 15 to 20)
#    0.000    1.600    0.000    7.200    0.000    1.600 
#    0.000    1.000    0.000    4.800    0.000    0.000 
#    0.000    0.000    0.000    0.000    0.000    0.000 
#
# Total GULP energy -223500.836159 kJ/mol
# GULP energy per Si atom -5587.520904 kJ/mol
# Density = 1.875197 g / cm^3
# Si number density = 18.794743 Si / 1000 Ang^3
#
#
#
# Elastic Constant Matrix: (Units=GPa)
#
#
# Indices 1 2 3 4 5 6 
#
# 1 47.8574 -3.6136 8.4824 0.0000 0.0000 0.0000
# 2 -3.6136 87.8996 31.4600 0.0000 0.0000 0.0000
# 3 8.4824 31.4600 65.4022 0.0000 0.0000 0.0000
# 4 0.0000 0.0000 0.0000 37.7187 0.0000 0.0000
# 5 0.0000 0.0000 0.0000 0.0000 21.5782 0.0000
# 6 0.0000 0.0000 0.0000 0.0000 0.0000 21.3905
#
#
#
# Elastic Compliance Matrix: (Units=1/GPa)
#
#
# Indices 1 2 3 4 5 6 
#
# 1 0.021766 0.002301 -0.003930 0.000000 0.000000 0.000000
# 2 0.002301 0.013986 -0.007026 0.000000 0.000000 0.000000
# 3 -0.003930 -0.007026 0.019179 0.000000 0.000000 0.000000
# 4 0.000000 0.000000 0.000000 0.026512 0.000000 0.000000
# 5 0.000000 0.000000 0.000000 0.000000 0.046343 0.000000
# 6 0.000000 0.000000 0.000000 0.000000 0.000000 0.046750
#
#
# Mechanical properties :
#
#
# Convention : Reuss Voigt Hill
#
# Bulk Modulus (GPa) = 26.58031 30.42408 28.50219
# Shear Modulus (GPa) = 24.46356 27.12618 25.79487
#
# Velocity S-wave (km/s) = 3.61171 3.80318 3.70868
# Velocity P-wave (km/s) = 5.61834 5.95888 5.79111
#
# Compressibility (1/GPa) = 0.03762184
#
# Stress axis : x y z
#
# Youngs Moduli (GPa) = 45.94378 71.50059 52.13937
#
# Poissons Ratio (x) = -0.16455 0.20490
# Poissons Ratio (y) = -0.10573 0.36633
# Poissons Ratio (z) = 0.18056 0.50236
#
# Static dielectric constant tensor:
#      x y z
#    x 1.676530 0.000000 0.000000 
#    y 0.000000 1.667440 0.000000 
#    z 0.000000 0.000000 1.564630 
# 
# From -- ./inp_files/11084.got.cif
#   From: 2010.05.17/outbox.cif.g08.bks.cpg/sg62_6_cif.got.tgz:11084.got - 2010.06.03 15:25:27.
