data_PCOD9464005
_publ_section_title
;
Structure prediction by ZEFSAII (Michael W. Deem and Ramdas Pophale) SiO2 
 PCOD9464005
Probable space group: P N M A
;
_chemical_formula_sum "Si O2"
_cell_formula_units_Z 56
_cell_length_a 10.350199
_cell_length_b 11.883749
_cell_length_c 24.225961
_cell_angle_alpha 90.000000
_cell_angle_beta 90.000000
_cell_angle_gamma 90.000000
_cell_volume 2979.773023
_symmetry_space_group_name_H-M "P N M A"
_symmetry_group_IT_number 62
_symmetry_cell_setting 'orthorhombic'
loop_
_space_group_symop_operation_xyz
x,y,z
1/2-x,-y,1/2+z
1/2+x,1/2-y,1/2-z
-x,1/2+y,-z
-x,-y,-z
1/2+x,y,1/2-z
1/2-x,1/2+y,1/2+z
x,1/2-y,z
loop_
_atom_site_type_symbol
_atom_site_label
_atom_site_fract_x
_atom_site_fract_y
_atom_site_fract_z
Si Si1 0.117910 0.123021 0.140815
Si Si2 0.190119 0.543937 0.473794
Si Si3 0.950918 0.626460 0.986396
Si Si4 0.383658 0.385400 0.280571
Si Si5 0.395416 0.024881 0.160017
Si Si6 0.914478 0.875437 0.437463
Si Si7 0.169213 0.379778 0.372034
O O1 0.148887 0.250000 0.158735
O O2 0.061010 0.126264 0.079639
O O3 0.253254 0.061013 0.141072
O O4 0.006930 0.082964 0.182108
O O5 0.309643 0.623046 0.486118
O O6 0.166770 0.464867 0.527066
O O7 0.210589 0.461998 0.421398
O O8 0.058830 0.610991 0.461615
O O9 0.011890 0.750000 0.001402
O O10 0.000000 0.500000 0.000000
O O11 0.390476 0.250000 0.267710
O O12 0.389183 0.459332 0.225601
O O13 0.254888 0.401757 0.317389
O O14 0.517229 0.100014 0.139740
O O15 0.418595 0.909132 0.127009
O O16 0.866293 0.750000 0.445544
O O17 0.191052 0.250000 0.387735
#
# Coordination Sequence:
#
# PCOD9464005 Si02
#       7
#     8   8   8   8   8   8   8
#     4  10  20  35  55  82 116 148 190 241 299 354
#     4  10  20  37  58  86 114 153 188 243 301 358
#     4  11  23  39  59  86 121 160 198 241 298 364
#     4  10  20  34  54  82 115 151 190 245 304 359
#     4  11  20  34  55  82 113 150 194 241 302 354
#     4  10  21  36  57  85 116 149 193 245 301 360
#     4  10  20  33  56  87 116 150 194 245 307 361
#
# _framework density 18.793377
#
# number of rings (size 3 to 8) (size 9 to 14) (size 15 to 20)
#    0.000    1.714    1.429    3.857    0.000    4.571 
#    0.000    0.000    0.000   11.143    0.000    0.000 
#    0.000    0.000    0.000    0.000    0.000    0.000 
#
# Total GULP energy -312190.651395 kJ/mol
# GULP energy per Si atom -5574.833061 kJ/mol
# Density = 1.875060 g / cm^3
# Si number density = 18.793377 Si / 1000 Ang^3
#
#
#
# Elastic Constant Matrix: (Units=GPa)
#
#
# Indices 1 2 3 4 5 6 
#
# 1 60.5277 29.0778 10.9554 0.0000 0.0000 0.0000
# 2 29.0778 87.4860 29.9912 0.0000 0.0000 0.0000
# 3 10.9554 29.9912 96.9743 0.0000 0.0000 0.0000
# 4 0.0000 0.0000 0.0000 11.5907 0.0000 0.0000
# 5 0.0000 0.0000 0.0000 0.0000 27.1217 0.0000
# 6 0.0000 0.0000 0.0000 0.0000 0.0000 46.5104
#
#
#
# Elastic Compliance Matrix: (Units=1/GPa)
#
#
# Indices 1 2 3 4 5 6 
#
# 1 0.019665 -0.006459 -0.000224 0.000000 0.000000 0.000000
# 2 -0.006459 0.014908 -0.003881 0.000000 0.000000 0.000000
# 3 -0.000224 -0.003881 0.011538 0.000000 0.000000 0.000000
# 4 0.000000 0.000000 0.000000 0.086276 0.000000 0.000000
# 5 0.000000 0.000000 0.000000 0.000000 0.036871 0.000000
# 6 0.000000 0.000000 0.000000 0.000000 0.000000 0.021501
#
#
# Mechanical properties :
#
#
# Convention : Reuss Voigt Hill
#
# Bulk Modulus (GPa) = 40.02856 42.78186 41.40521
# Shear Modulus (GPa) = 22.70531 28.70880 25.70706
#
# Velocity S-wave (km/s) = 3.47962 3.91270 3.70250
# Velocity P-wave (km/s) = 6.12285 6.57465 6.35276
#
# Compressibility (1/GPa) = 0.02498216
#
# Stress axis : x y z
#
# Youngs Moduli (GPa) = 50.85181 67.07967 86.67377
#
# Poissons Ratio (x) = 0.43329 0.01941
# Poissons Ratio (y) = 0.32847 0.33636
# Poissons Ratio (z) = 0.01139 0.26032
#
# Static dielectric constant tensor:
#      x y z
#    x 1.684190 0.000000 0.000000 
#    y 0.000000 1.660360 0.000000 
#    z 0.000000 0.000000 1.656030 
# 
# From -- ./inp_files/26638.got.cif
#   From: 2010.05.17/outbox.cif.g08.bks.cpg/sg62_14_cif.got.tgz:26638.got - 2010.06.03 15:25:27.
