data_PCOD9464530
_publ_section_title
;
Structure prediction by ZEFSAII (Michael W. Deem and Ramdas Pophale) SiO2 
 PCOD9464530
Probable space group: P N M A
;
_chemical_formula_sum "Si O2"
_cell_formula_units_Z 64
_cell_length_a 14.510835
_cell_length_b 9.124694
_cell_length_c 25.501274
_cell_angle_alpha 90.000000
_cell_angle_beta 90.000000
_cell_angle_gamma 90.000000
_cell_volume 3376.545377
_symmetry_space_group_name_H-M "P N M A"
_symmetry_group_IT_number 62
_symmetry_cell_setting 'orthorhombic'
loop_
_space_group_symop_operation_xyz
x,y,z
1/2-x,-y,1/2+z
1/2+x,1/2-y,1/2-z
-x,1/2+y,-z
-x,-y,-z
1/2+x,y,1/2-z
1/2-x,1/2+y,1/2+z
x,1/2-y,z
loop_
_atom_site_type_symbol
_atom_site_label
_atom_site_fract_x
_atom_site_fract_y
_atom_site_fract_z
Si Si1 0.720388 0.072518 0.042862
Si Si2 0.033591 0.427700 0.398646
Si Si3 0.453029 0.920709 0.781766
Si Si4 0.123774 0.925555 0.876878
Si Si5 0.255389 0.578308 0.164297
Si Si6 0.338035 0.074476 0.063008
Si Si7 0.768434 0.419821 0.229572
Si Si8 0.535156 0.578830 0.325593
O O1 0.718349 0.250000 0.038644
O O2 0.630973 0.026413 0.077122
O O3 0.812866 0.031297 0.074077
O O4 0.710170 0.000667 0.986322
O O5 0.037087 0.250000 0.395029
O O6 0.946528 0.466575 0.434317
O O7 0.018350 0.479050 0.338835
O O8 0.480311 0.750000 0.776752
O O9 0.341397 0.926662 0.780859
O O10 0.486342 0.006365 0.730799
O O11 0.112562 0.750000 0.878332
O O12 0.180489 0.961233 0.823811
O O13 0.025951 0.001945 0.869864
O O14 0.276812 0.750000 0.157922
O O15 0.295384 0.484222 0.116936
O O16 0.289918 0.518451 0.220274
O O17 0.144244 0.561067 0.164946
O O18 0.330793 0.250000 0.060028
O O19 0.790489 0.250000 0.241749
O O20 0.514068 0.750000 0.323801
#
# Coordination Sequence:
#
# PCOD9464530 Si02
#       8
#     8   8   8   8   8   8   8   8
#     4  10  20  39  61  83 114 150 190 232 281 338
#     4   9  18  34  57  84 114 149 187 226 271 334
#     4   9  16  32  56  81 111 148 186 223 268 331
#     4  10  20  35  59  86 111 147 191 230 278 339
#     4  10  22  40  57  78 113 153 190 233 285 336
#     4  11  23  37  57  85 114 149 194 238 281 331
#     4   9  17  32  56  83 110 144 184 228 276 331
#     4  10  22  37  54  81 117 150 185 235 288 335
#
# _framework density 18.954284000000001
#
# number of rings (size 3 to 8) (size 9 to 14) (size 15 to 20)
#    0.000    2.250    1.250    1.500    1.750    2.500 
#    0.000    2.500    0.000    0.000    0.000    0.000 
#    0.000    0.000    0.000    0.000    0.000    0.000 
#
# Total GULP energy -357374.446558 kJ/mol
# GULP energy per Si atom -5583.975727 kJ/mol
# Density = 1.891114 g / cm^3
# Si number density = 18.954284 Si / 1000 Ang^3
#
#
#
# Elastic Constant Matrix: (Units=GPa)
#
#
# Indices 1 2 3 4 5 6 
#
# 1 16.3157 10.9175 -3.8608 0.0000 0.0000 0.0000
# 2 10.9175 28.5130 15.4395 0.0000 0.0000 0.0000
# 3 -3.8608 15.4395 60.3085 0.0000 0.0000 0.0000
# 4 0.0000 0.0000 0.0000 26.5466 0.0000 0.0000
# 5 0.0000 0.0000 0.0000 0.0000 27.0651 0.0000
# 6 0.0000 0.0000 0.0000 0.0000 0.0000 19.2193
#
#
#
# Elastic Compliance Matrix: (Units=1/GPa)
#
#
# Indices 1 2 3 4 5 6 
#
# 1 0.097115 -0.047077 0.018269 0.000000 0.000000 0.000000
# 2 -0.047077 0.063537 -0.019280 0.000000 0.000000 0.000000
# 3 0.018269 -0.019280 0.022687 0.000000 0.000000 0.000000
# 4 0.000000 0.000000 0.000000 0.037670 0.000000 0.000000
# 5 0.000000 0.000000 0.000000 0.000000 0.036948 0.000000
# 6 0.000000 0.000000 0.000000 0.000000 0.000000 0.052031
#
#
# Mechanical properties :
#
#
# Convention : Reuss Voigt Hill
#
# Bulk Modulus (GPa) = 11.47276 16.68106 14.07691
# Shear Modulus (GPa) = 11.48852 20.07562 15.78207
#
# Velocity S-wave (km/s) = 2.46462 3.25800 2.88868
# Velocity P-wave (km/s) = 3.76366 4.79297 4.30916
#
# Compressibility (1/GPa) = 0.08716297
#
# Stress axis : x y z
#
# Youngs Moduli (GPa) = 10.29710 15.73884 44.07853
#
# Poissons Ratio (x) = 0.74094 -0.80528
# Poissons Ratio (y) = 0.48476 0.84983
# Poissons Ratio (z) = -0.18812 0.30344
#
# Static dielectric constant tensor:
#      x y z
#    x 1.682930 0.000000 0.000000 
#    y 0.000000 1.632070 0.000000 
#    z 0.000000 0.000000 1.636470 
# 
# From -- ./inp_files/29740.got.cif
#   From: 2010.05.17/outbox.cif.g08.bks.cpg/sg62_15_cif.got.tgz:29740.got - 2010.06.03 15:25:27.
