data_PCOD9464540
_publ_section_title
;
Structure prediction by ZEFSAII (Michael W. Deem and Ramdas Pophale) SiO2 
 PCOD9464540
Probable space group: P N M A
;
_chemical_formula_sum "Si O2"
_cell_formula_units_Z 56
_cell_length_a 16.446036
_cell_length_b 18.314122
_cell_length_c 8.380678
_cell_angle_alpha 90.000000
_cell_angle_beta 90.000000
_cell_angle_gamma 90.000000
_cell_volume 2524.215877
_symmetry_space_group_name_H-M "P N M A"
_symmetry_group_IT_number 62
_symmetry_cell_setting 'orthorhombic'
loop_
_space_group_symop_operation_xyz
x,y,z
1/2-x,-y,1/2+z
1/2+x,1/2-y,1/2-z
-x,1/2+y,-z
-x,-y,-z
1/2+x,y,1/2-z
1/2-x,1/2+y,1/2+z
x,1/2-y,z
loop_
_atom_site_type_symbol
_atom_site_label
_atom_site_fract_x
_atom_site_fract_y
_atom_site_fract_z
Si Si1 0.959674 0.166706 0.454036
Si Si2 0.548049 0.407774 0.544397
Si Si3 0.624572 0.945553 0.474460
Si Si4 0.201495 0.170535 0.041400
Si Si5 0.066815 0.445873 0.578895
Si Si6 0.822673 0.062094 0.318263
Si Si7 0.331642 0.170454 0.762862
O O1 0.966314 0.250000 0.400099
O O2 0.046496 0.128012 0.483140
O O3 0.897486 0.118879 0.348815
O O4 0.911551 0.166670 0.624374
O O5 0.455280 0.395009 0.499305
O O6 0.582422 0.476635 0.442556
O O7 0.609004 0.343264 0.504853
O O8 0.551953 0.429636 0.732446
O O9 0.675736 0.956456 0.633071
O O10 0.672040 0.902251 0.340607
O O11 0.213409 0.250000 0.118901
O O12 0.255095 0.170700 0.880660
O O13 0.241115 0.103773 0.136942
O O14 0.150897 0.491086 0.579345
O O15 0.000000 0.500000 0.500000
O O16 0.333175 0.250000 0.678994
#
# Coordination Sequence:
#
# PCOD9464540 Si02
#       7
#     8   8   8   8   8   8   8
#     4   9  16  30  53  82 111 146 193 242 292 349
#     4  10  21  36  58  89 119 150 196 250 299 353
#     4  10  20  35  59  88 115 146 199 247 286 353
#     4  10  22  40  59  83 119 158 198 243 302 362
#     4   9  17  32  57  86 113 145 195 245 294 353
#     4   9  19  34  56  83 115 161 198 235 296 364
#     4   9  18  33  57  82 109 150 192 239 294 357
#
# _framework density 22.185109000000001
#
# number of rings (size 3 to 8) (size 9 to 14) (size 15 to 20)
#    0.000    2.571    1.429    1.286    0.000    4.571 
#    0.000    0.000   12.571    0.000    0.000    0.000 
#    0.000    0.000    0.000    0.000    0.000    0.000 
#
# Total GULP energy -312239.998612 kJ/mol
# GULP energy per Si atom -5575.714261 kJ/mol
# Density = 2.213461 g / cm^3
# Si number density = 22.185109 Si / 1000 Ang^3
#
#
#
# Elastic Constant Matrix: (Units=GPa)
#
#
# Indices 1 2 3 4 5 6 
#
# 1 72.0368 9.7664 -2.7572 0.0000 0.0000 0.0000
# 2 9.7664 37.3496 -12.2753 0.0000 0.0000 0.0000
# 3 -2.7572 -12.2753 18.2241 0.0000 0.0000 0.0000
# 4 0.0000 0.0000 0.0000 -15.1889 0.0000 0.0000
# 5 0.0000 0.0000 0.0000 0.0000 8.5479 0.0000
# 6 0.0000 0.0000 0.0000 0.0000 0.0000 21.3056
#
#
#
# Elastic Compliance Matrix: (Units=1/GPa)
#
#
# Indices 1 2 3 4 5 6 
#
# 1 0.014395 -0.003915 -0.000459 0.000000 0.000000 0.000000
# 2 -0.003915 0.035451 0.023287 0.000000 0.000000 0.000000
# 3 -0.000459 0.023287 0.070488 0.000000 0.000000 0.000000
# 4 0.000000 0.000000 0.000000 -0.065838 0.000000 0.000000
# 5 0.000000 0.000000 0.000000 0.000000 0.116988 0.000000
# 6 0.000000 0.000000 0.000000 0.000000 0.000000 0.046936
#
#
# Mechanical properties :
#
#
# Convention : Reuss Voigt Hill
#
# Bulk Modulus (GPa) = 6.32274 13.00869 9.66572
# Shear Modulus (GPa) = 21.43019 11.79135 16.61077
#
# Velocity S-wave (km/s) = 3.11138 2.30793 2.73927
# Velocity P-wave (km/s) = 3.97036 3.60256 3.79093
#
# Compressibility (1/GPa) = 0.15815923
#
# Stress axis : x y z
#
# Youngs Moduli (GPa) = 69.46855 28.20780 14.18680
#
# Poissons Ratio (x) = 0.11043 0.00651
# Poissons Ratio (y) = 0.27197 -0.33036
# Poissons Ratio (z) = 0.03190 -0.65687
#
# Static dielectric constant tensor:
#      x y z
#    x 1.937470 0.000000 0.000000 
#    y 0.000000 1.858390 0.000000 
#    z 0.000000 0.000000 1.836530 
# 
# From -- ./inp_files/6803.got.cif
#   From: 2010.05.17/outbox.cif.g08.bks.cpg/sg62_4_cif.got.tgz:6803.got - 2010.06.03 15:25:27.
