data_PCOD9464211
_publ_section_title
;
Structure prediction by ZEFSAII (Michael W. Deem and Ramdas Pophale) SiO2 
 PCOD9464211
Probable space group: P N M A
;
_chemical_formula_sum "Si O2"
_cell_formula_units_Z 56
_cell_length_a 14.606749
_cell_length_b 9.868580
_cell_length_c 19.004550
_cell_angle_alpha 90.000000
_cell_angle_beta 90.000000
_cell_angle_gamma 90.000000
_cell_volume 2739.465423
_symmetry_space_group_name_H-M "P N M A"
_symmetry_group_IT_number 62
_symmetry_cell_setting 'orthorhombic'
loop_
_space_group_symop_operation_xyz
x,y,z
1/2-x,-y,1/2+z
1/2+x,1/2-y,1/2-z
-x,1/2+y,-z
-x,-y,-z
1/2+x,y,1/2-z
1/2-x,1/2+y,1/2+z
x,1/2-y,z
loop_
_atom_site_type_symbol
_atom_site_label
_atom_site_fract_x
_atom_site_fract_y
_atom_site_fract_z
Si Si1 0.955510 0.603965 0.596968
Si Si2 0.630610 0.599701 0.003454
Si Si3 0.247958 0.401170 0.589793
Si Si4 0.086265 0.595320 0.991269
Si Si5 0.022251 0.093187 0.242983
Si Si6 0.334074 0.410993 0.341150
Si Si7 0.200536 0.910202 0.247804
O O1 0.906327 0.750000 0.596795
O O2 0.889955 0.483214 0.574067
O O3 0.998791 0.586541 0.673601
O O4 0.035316 0.610214 0.539369
O O5 0.665716 0.750000 0.017122
O O6 0.693800 0.513445 0.952382
O O7 0.212249 0.250000 0.572040
O O8 0.351165 0.407769 0.560484
O O9 0.246556 0.417652 0.673163
O O10 0.055432 0.750000 0.979077
O O11 0.148540 0.559612 0.923510
O O12 0.000000 0.500000 0.000000
O O13 0.051025 0.250000 0.227860
O O14 0.931985 0.065744 0.197519
O O15 0.104566 0.987284 0.234307
O O16 0.312023 0.250000 0.333044
O O17 0.258750 0.505370 0.304662
O O18 0.188859 0.750000 0.264802
#
# Coordination Sequence:
#
# PCOD9464211 Si02
#       7
#     8   8   8   8   8   8   8
#     4   9  19  35  54  79 114 151 184 231 295 352
#     4  10  20  34  56  85 112 145 192 239 282 345
#     4  10  22  39  57  81 118 158 193 238 303 360
#     4  10  22  40  63  88 118 158 203 252 305 361
#     4  10  21  38  61  84 115 157 202 251 303 365
#     4  10  22  41  64  91 122 162 211 258 309 371
#     4  11  24  39  59  89 124 161 204 256 312 368
#
# _framework density 20.441945
#
# number of rings (size 3 to 8) (size 9 to 14) (size 15 to 20)
#    0.000    2.000    0.000    2.571    2.000    5.143 
#    0.000    0.000    0.000    0.000    0.000    0.000 
#    0.000    0.000    0.000    0.000    0.000    0.000 
#
# Total GULP energy -312753.576402 kJ/mol
# GULP energy per Si atom -5584.885293 kJ/mol
# Density = 2.039542 g / cm^3
# Si number density = 20.441945 Si / 1000 Ang^3
#
#
#
# Elastic Constant Matrix: (Units=GPa)
#
#
# Indices 1 2 3 4 5 6 
#
# 1 64.5042 53.8184 11.9388 0.0000 0.0000 0.0000
# 2 53.8184 122.2826 26.7702 0.0000 0.0000 0.0000
# 3 11.9388 26.7702 79.6808 0.0000 0.0000 0.0000
# 4 0.0000 0.0000 0.0000 19.3115 0.0000 0.0000
# 5 0.0000 0.0000 0.0000 0.0000 32.4427 0.0000
# 6 0.0000 0.0000 0.0000 0.0000 0.0000 11.2597
#
#
#
# Elastic Compliance Matrix: (Units=1/GPa)
#
#
# Indices 1 2 3 4 5 6 
#
# 1 0.024499 -0.010771 -0.000052 0.000000 0.000000 0.000000
# 2 -0.010771 0.013563 -0.002943 0.000000 0.000000 0.000000
# 3 -0.000052 -0.002943 0.013547 0.000000 0.000000 0.000000
# 4 0.000000 0.000000 0.000000 0.051783 0.000000 0.000000
# 5 0.000000 0.000000 0.000000 0.000000 0.030824 0.000000
# 6 0.000000 0.000000 0.000000 0.000000 0.000000 0.088813
#
#
# Mechanical properties :
#
#
# Convention : Reuss Voigt Hill
#
# Bulk Modulus (GPa) = 41.53410 50.16915 45.85162
# Shear Modulus (GPa) = 19.33605 24.19879 21.76742
#
# Velocity S-wave (km/s) = 3.07889 3.44434 3.26673
# Velocity P-wave (km/s) = 5.74470 6.35717 6.05868
#
# Compressibility (1/GPa) = 0.02407660
#
# Stress axis : x y z
#
# Youngs Moduli (GPa) = 40.81760 73.73263 73.81968
#
# Poissons Ratio (x) = 0.79418 0.00384
# Poissons Ratio (y) = 0.43965 0.21723
# Poissons Ratio (z) = 0.00212 0.21697
#
# Static dielectric constant tensor:
#      x y z
#    x 1.716060 0.000000 0.000000 
#    y 0.000000 1.758030 0.000000 
#    z 0.000000 0.000000 1.720280 
# 
# From -- ./inp_files/27289.got.cif
#   From: 2010.05.17/outbox.cif.g08.bks.cpg/sg62_14_cif.got.tgz:27289.got - 2010.06.03 15:25:27.
