data_PCOD9464469
_publ_section_title
;
Structure prediction by ZEFSAII (Michael W. Deem and Ramdas Pophale) SiO2 
 PCOD9464469
Probable space group: P N M A
;
_chemical_formula_sum "Si O2"
_cell_formula_units_Z 56
_cell_length_a 19.806539
_cell_length_b 8.957851
_cell_length_c 14.281328
_cell_angle_alpha 90.000000
_cell_angle_beta 90.000000
_cell_angle_gamma 90.000000
_cell_volume 2533.850699
_symmetry_space_group_name_H-M "P N M A"
_symmetry_group_IT_number 62
_symmetry_cell_setting 'orthorhombic'
loop_
_space_group_symop_operation_xyz
x,y,z
1/2-x,-y,1/2+z
1/2+x,1/2-y,1/2-z
-x,1/2+y,-z
-x,-y,-z
1/2+x,y,1/2-z
1/2-x,1/2+y,1/2+z
x,1/2-y,z
loop_
_atom_site_type_symbol
_atom_site_label
_atom_site_fract_x
_atom_site_fract_y
_atom_site_fract_z
Si Si1 0.794732 0.575405 0.059423
Si Si2 0.150228 0.424456 0.220535
Si Si3 0.289870 0.575274 0.214263
Si Si4 0.654043 0.422559 0.053877
Si Si5 0.086079 0.928675 0.606107
Si Si6 0.933663 0.426339 0.043836
Si Si7 0.504932 0.428365 0.267395
O O1 0.790963 0.750000 0.036794
O O2 0.796670 0.560081 0.172919
O O3 0.726418 0.493800 0.028850
O O4 0.863327 0.504915 0.019967
O O5 0.157799 0.250000 0.193071
O O6 0.215485 0.514934 0.189313
O O7 0.147662 0.431168 0.334208
O O8 0.076425 0.487308 0.194959
O O9 0.296496 0.750000 0.191737
O O10 0.347569 0.481893 0.162893
O O11 0.653006 0.250000 0.027555
O O12 0.595855 0.505336 0.996676
O O13 0.083803 0.750000 0.602483
O O14 0.022966 0.983937 0.668408
O O15 0.931178 0.250000 0.023988
O O16 0.947468 0.446498 0.155046
O O17 0.000000 0.500000 0.000000
O O18 0.516431 0.250000 0.257242
#
# Coordination Sequence:
#
# PCOD9464469 Si02
#       7
#     8   8   8   8   8   8   8
#     4  10  20  37  59  82 111 148 191 240 295 349
#     4   9  19  38  60  82 114 155 197 240 291 351
#     4  10  20  35  57  84 113 147 194 246 293 345
#     4  10  21  36  57  86 116 149 192 243 294 342
#     4  11  21  36  59  85 115 154 198 238 290 353
#     4  11  22  38  59  85 118 155 198 244 297 355
#     4   9  20  38  60  84 113 154 198 237 288 354
#
# _framework density 22.100749
#
# number of rings (size 3 to 8) (size 9 to 14) (size 15 to 20)
#    0.000    2.000    1.429    2.143    0.000    3.429 
#    0.000    7.143    0.000    0.000    0.000    0.000 
#    0.000    0.000    0.000    0.000    0.000    0.000 
#
# Total GULP energy -313094.004652 kJ/mol
# GULP energy per Si atom -5590.964369 kJ/mol
# Density = 2.205045 g / cm^3
# Si number density = 22.100749 Si / 1000 Ang^3
#
#
#
# Elastic Constant Matrix: (Units=GPa)
#
#
# Indices 1 2 3 4 5 6 
#
# 1 95.0097 15.4382 -3.9602 0.0000 0.0000 0.0000
# 2 15.4382 80.0435 5.2781 0.0000 0.0000 0.0000
# 3 -3.9602 5.2781 49.1641 0.0000 0.0000 0.0000
# 4 0.0000 0.0000 0.0000 22.8238 0.0000 0.0000
# 5 0.0000 0.0000 0.0000 0.0000 38.4781 0.0000
# 6 0.0000 0.0000 0.0000 0.0000 0.0000 25.4985
#
#
#
# Elastic Compliance Matrix: (Units=1/GPa)
#
#
# Indices 1 2 3 4 5 6 
#
# 1 0.010926 -0.002181 0.001114 0.000000 0.000000 0.000000
# 2 -0.002181 0.013018 -0.001573 0.000000 0.000000 0.000000
# 3 0.001114 -0.001573 0.020599 0.000000 0.000000 0.000000
# 4 0.000000 0.000000 0.000000 0.043814 0.000000 0.000000
# 5 0.000000 0.000000 0.000000 0.000000 0.025989 0.000000
# 6 0.000000 0.000000 0.000000 0.000000 0.000000 0.039218
#
#
# Mechanical properties :
#
#
# Convention : Reuss Voigt Hill
#
# Bulk Modulus (GPa) = 25.46943 28.63660 27.05302
# Shear Modulus (GPa) = 29.08159 31.19083 30.13621
#
# Velocity S-wave (km/s) = 3.63142 3.76081 3.69668
# Velocity P-wave (km/s) = 5.39743 5.64302 5.52159
#
# Compressibility (1/GPa) = 0.03926275
#
# Stress axis : x y z
#
# Youngs Moduli (GPa) = 91.52441 76.81926 48.54682
#
# Poissons Ratio (x) = 0.16753 -0.05409
# Poissons Ratio (y) = 0.19960 0.07637
# Poissons Ratio (z) = -0.10198 0.12085
#
# Static dielectric constant tensor:
#      x y z
#    x 1.824900 0.000000 0.000000 
#    y 0.000000 1.733020 0.000000 
#    z 0.000000 0.000000 1.896550 
# 
# From -- ./inp_files/20305.got.cif
#   From: 2010.05.17/outbox.cif.g08.bks.cpg/sg62_11_cif.got.tgz:20305.got - 2010.06.03 15:25:27.
