data_PCOD9464561
_publ_section_title
;
Structure prediction by ZEFSAII (Michael W. Deem and Ramdas Pophale) SiO2 
 PCOD9464561
Probable space group: P N M A
;
_chemical_formula_sum "Si O2"
_cell_formula_units_Z 48
_cell_length_a 12.107900
_cell_length_b 8.912134
_cell_length_c 22.835572
_cell_angle_alpha 90.000000
_cell_angle_beta 90.000000
_cell_angle_gamma 90.000000
_cell_volume 2464.123257
_symmetry_space_group_name_H-M "P N M A"
_symmetry_group_IT_number 62
_symmetry_cell_setting 'orthorhombic'
loop_
_space_group_symop_operation_xyz
x,y,z
1/2-x,-y,1/2+z
1/2+x,1/2-y,1/2-z
-x,1/2+y,-z
-x,-y,-z
1/2+x,y,1/2-z
1/2-x,1/2+y,1/2+z
x,1/2-y,z
loop_
_atom_site_type_symbol
_atom_site_label
_atom_site_fract_x
_atom_site_fract_y
_atom_site_fract_z
Si Si1 0.083780 0.420116 0.956263
Si Si2 0.058110 0.920219 0.161794
Si Si3 0.499894 0.431120 0.935072
Si Si4 0.367787 0.427618 0.274703
Si Si5 0.306506 0.569516 0.151410
Si Si6 0.276294 0.929792 0.889813
O O1 0.110665 0.250000 0.975067
O O2 0.193192 0.513579 0.940780
O O3 0.016339 0.411897 0.895798
O O4 0.000000 0.500000 0.000000
O O5 0.067445 0.750000 0.186052
O O6 0.178970 0.975556 0.143922
O O7 0.990444 0.024920 0.205379
O O8 0.496968 0.250000 0.938608
O O9 0.609193 0.479238 0.899120
O O10 0.392835 0.490546 0.900104
O O11 0.500000 0.500000 0.000000
O O12 0.361447 0.250000 0.266705
O O13 0.341139 0.510107 0.214737
O O14 0.282434 0.467647 0.327528
O O15 0.310019 0.750000 0.151410
O O16 0.287880 0.750000 0.892838
#
# Coordination Sequence:
#
# PCOD9464561 Si02
#       6
#     8   8   8   8   8   8
#     4  10  20  35  60  90 119 155 199 248 303 360
#     4   9  20  39  60  85 118 156 198 245 298 365
#     4  11  25  43  64  92 125 167 212 255 309 375
#     4  10  22  39  62  93 123 155 199 255 310 360
#     4  10  23  41  63  89 121 162 202 248 306 372
#     4  10  22  41  62  87 124 163 202 254 306 364
#
# _framework density 19.479545999999999
#
# number of rings (size 3 to 8) (size 9 to 14) (size 15 to 20)
#    0.000    2.000    0.000    2.000    4.667    4.667 
#    0.000    0.000    0.000    0.000    0.000    0.000 
#    0.000    0.000    0.000    0.000    0.000    0.000 
#
# Total GULP energy -267982.678797 kJ/mol
# GULP energy per Si atom -5582.972475 kJ/mol
# Density = 1.943521 g / cm^3
# Si number density = 19.479546 Si / 1000 Ang^3
#
#
#
# Elastic Constant Matrix: (Units=GPa)
#
#
# Indices 1 2 3 4 5 6 
#
# 1 138.8317 27.9769 25.9562 0.0000 0.0000 0.0000
# 2 27.9769 38.3435 20.1926 0.0000 0.0000 0.0000
# 3 25.9562 20.1926 50.4200 0.0000 0.0000 0.0000
# 4 0.0000 0.0000 0.0000 27.8251 0.0000 0.0000
# 5 0.0000 0.0000 0.0000 0.0000 12.0752 0.0000
# 6 0.0000 0.0000 0.0000 0.0000 0.0000 30.1758
#
#
#
# Elastic Compliance Matrix: (Units=1/GPa)
#
#
# Indices 1 2 3 4 5 6 
#
# 1 0.008677 -0.005042 -0.002447 0.000000 0.000000 0.000000
# 2 -0.005042 0.035980 -0.011814 0.000000 0.000000 0.000000
# 3 -0.002447 -0.011814 0.025825 0.000000 0.000000 0.000000
# 4 0.000000 0.000000 0.000000 0.035939 0.000000 0.000000
# 5 0.000000 0.000000 0.000000 0.000000 0.082815 0.000000
# 6 0.000000 0.000000 0.000000 0.000000 0.000000 0.033139
#
#
# Mechanical properties :
#
#
# Convention : Reuss Voigt Hill
#
# Bulk Modulus (GPa) = 31.37283 41.76075 36.56679
# Shear Modulus (GPa) = 18.40899 24.24649 21.32774
#
# Velocity S-wave (km/s) = 3.07749 3.53188 3.31249
# Velocity P-wave (km/s) = 5.36362 6.17390 5.78297
#
# Compressibility (1/GPa) = 0.03187471
#
# Stress axis : x y z
#
# Youngs Moduli (GPa) = 115.25287 27.79288 38.72245
#
# Poissons Ratio (x) = 0.14013 0.09477
# Poissons Ratio (y) = 0.58109 0.45747
# Poissons Ratio (z) = 0.28208 0.32835
#
# Static dielectric constant tensor:
#      x y z
#    x 1.687990 0.000000 0.000000 
#    y 0.000000 1.651670 0.000000 
#    z 0.000000 0.000000 1.669280 
# 
# From -- ./inp_files/29241.got.cif
#   From: 2010.05.17/outbox.cif.g08.bks.cpg/sg62_15_cif.got.tgz:29241.got - 2010.06.03 15:25:27.
