data_PCOD9464084
_publ_section_title
;
Structure prediction by ZEFSAII (Michael W. Deem and Ramdas Pophale) SiO2 
 PCOD9464084
Probable space group: P N M A
;
_chemical_formula_sum "Si O2"
_cell_formula_units_Z 40
_cell_length_a 10.852222
_cell_length_b 7.505970
_cell_length_c 20.978968
_cell_angle_alpha 90.000000
_cell_angle_beta 90.000000
_cell_angle_gamma 90.000000
_cell_volume 1708.872316
_symmetry_space_group_name_H-M "P N M A"
_symmetry_group_IT_number 62
_symmetry_cell_setting 'orthorhombic'
loop_
_space_group_symop_operation_xyz
x,y,z
1/2-x,-y,1/2+z
1/2+x,1/2-y,1/2-z
-x,1/2+y,-z
-x,-y,-z
1/2+x,y,1/2-z
1/2-x,1/2+y,1/2+z
x,1/2-y,z
loop_
_atom_site_type_symbol
_atom_site_label
_atom_site_fract_x
_atom_site_fract_y
_atom_site_fract_z
Si Si1 0.307106 0.547936 0.772855
Si Si2 0.331314 0.034128 0.049974
Si Si3 0.098459 0.542394 0.407916
Si Si4 0.955238 0.030405 0.199929
Si Si5 0.056640 0.462679 0.068733
O O1 0.296973 0.750000 0.747713
O O2 0.343441 0.551472 0.847262
O O3 0.171770 0.466401 0.769340
O O4 0.422890 0.468138 0.736307
O O5 0.332742 0.250000 0.050104
O O6 0.197664 0.971599 0.072855
O O7 0.450315 0.975885 0.089764
O O8 0.353619 0.975794 0.976588
O O9 0.130564 0.750000 0.402853
O O10 0.950109 0.250000 0.202347
O O11 0.971446 0.974478 0.126588
O O12 0.063985 0.250000 0.075323
O O13 0.000000 0.500000 0.000000
#
# Coordination Sequence:
#
# PCOD9464084 Si02
#       5
#     8   8   8   8   8
#     4  10  20  36  57  80 107 144 184 227 270 323
#     4   9  19  34  55  80 109 148 187 225 273 332
#     4  10  20  34  53  81 112 143 180 226 280 329
#     4   9  20  35  57  84 108 141 188 227 267 326
#     4  10  20  35  56  82 111 145 187 234 281 331
#
# _framework density 23.407249
#
# number of rings (size 3 to 8) (size 9 to 14) (size 15 to 20)
#    0.000    2.400    0.000    1.800    2.800    1.600 
#    0.000    2.000    0.000    0.000    0.000    0.000 
#    0.000    0.000    0.000    0.000    0.000    0.000 
#
# Total GULP energy -223586.089186 kJ/mol
# GULP energy per Si atom -5589.652230 kJ/mol
# Density = 2.335397 g / cm^3
# Si number density = 23.407249 Si / 1000 Ang^3
#
#
#
# Elastic Constant Matrix: (Units=GPa)
#
#
# Indices 1 2 3 4 5 6 
#
# 1 181.2689 -1.5656 51.6303 0.0000 0.0000 0.0000
# 2 -1.5656 65.1060 -3.4955 0.0000 0.0000 0.0000
# 3 51.6303 -3.4955 61.9410 0.0000 0.0000 0.0000
# 4 0.0000 0.0000 0.0000 16.0714 0.0000 0.0000
# 5 0.0000 0.0000 0.0000 0.0000 32.8476 0.0000
# 6 0.0000 0.0000 0.0000 0.0000 0.0000 2.7508
#
#
#
# Elastic Compliance Matrix: (Units=1/GPa)
#
#
# Indices 1 2 3 4 5 6 
#
# 1 0.007236 -0.000150 -0.006040 0.000000 0.000000 0.000000
# 2 -0.000150 0.015409 0.000995 0.000000 0.000000 0.000000
# 3 -0.006040 0.000995 0.021235 0.000000 0.000000 0.000000
# 4 0.000000 0.000000 0.000000 0.062222 0.000000 0.000000
# 5 0.000000 0.000000 0.000000 0.000000 0.030444 0.000000
# 6 0.000000 0.000000 0.000000 0.000000 0.000000 0.363536
#
#
# Mechanical properties :
#
#
# Convention : Reuss Voigt Hill
#
# Bulk Modulus (GPa) = 29.86000 44.60605 37.23303
# Shear Modulus (GPa) = 9.58524 27.78374 18.68449
#
# Velocity S-wave (km/s) = 2.02580 3.44898 2.82837
# Velocity P-wave (km/s) = 4.27273 5.91257 5.15824
#
# Compressibility (1/GPa) = 0.03348961
#
# Stress axis : x y z
#
# Youngs Moduli (GPa) = 138.20508 64.89565 47.09248
#
# Poissons Ratio (x) = 0.00975 0.28442
# Poissons Ratio (y) = 0.02077 -0.04685
# Poissons Ratio (z) = 0.83471 -0.06456
#
# Static dielectric constant tensor:
#      x y z
#    x 1.918080 0.000000 0.000000 
#    y 0.000000 1.901340 0.000000 
#    z 0.000000 0.000000 1.852420 
# 
# From -- ./inp_files/22790.got.cif
#   From: 2010.05.17/outbox.cif.g08.bks.cpg/sg62_12_cif.got.tgz:22790.got - 2010.06.03 15:25:27.
