data_PCOD9464309
_publ_section_title
;
Structure prediction by ZEFSAII (Michael W. Deem and Ramdas Pophale) SiO2 
 PCOD9464309
Probable space group: P N M A
;
_chemical_formula_sum "Si O2"
_cell_formula_units_Z 48
_cell_length_a 9.569414
_cell_length_b 8.840709
_cell_length_c 32.360794
_cell_angle_alpha 90.000000
_cell_angle_beta 90.000000
_cell_angle_gamma 90.000000
_cell_volume 2737.736262
_symmetry_space_group_name_H-M "P N M A"
_symmetry_group_IT_number 62
_symmetry_cell_setting 'orthorhombic'
loop_
_space_group_symop_operation_xyz
x,y,z
1/2-x,-y,1/2+z
1/2+x,1/2-y,1/2-z
-x,1/2+y,-z
-x,-y,-z
1/2+x,y,1/2-z
1/2-x,1/2+y,1/2+z
x,1/2-y,z
loop_
_atom_site_type_symbol
_atom_site_label
_atom_site_fract_x
_atom_site_fract_y
_atom_site_fract_z
Si Si1 0.405319 0.433368 0.963914
Si Si2 0.585481 0.575627 0.127289
Si Si3 0.075028 0.074763 0.877939
Si Si4 0.396944 0.568719 0.787655
Si Si5 0.928648 0.432984 0.208272
Si Si6 0.594146 0.569061 0.536058
O O1 0.399603 0.250000 0.965203
O O2 0.461411 0.477682 0.918085
O O3 0.249614 0.499911 0.967918
O O4 0.500000 0.500000 0.000000
O O5 0.544650 0.750000 0.132192
O O6 0.755129 0.569106 0.124801
O O7 0.544431 0.487552 0.168460
O O8 0.034583 0.250000 0.882026
O O9 0.023180 0.003759 0.835087
O O10 0.037548 0.982987 0.919052
O O11 0.402061 0.750000 0.787820
O O12 0.481655 0.516193 0.747607
O O13 0.233868 0.524481 0.784997
O O14 0.935488 0.250000 0.205122
O O15 0.500000 0.500000 0.500000
O O16 0.599342 0.750000 0.533653
#
# Coordination Sequence:
#
# PCOD9464309 Si02
#       6
#     8   8   8   8   8   8
#     4  10  20  35  54  78 105 136 173 214 257 305
#     4   8  16  30  48  69  95 125 162 202 241 290
#     4   9  17  31  50  72  96 127 166 204 242 295
#     4   9  17  29  47  68  92 122 159 198 240 290
#     4   9  17  30  47  69  94 123 158 198 242 290
#     4  11  21  35  55  78 104 135 170 212 257 306
#
# _framework density 17.532734999999999
#
# number of rings (size 3 to 8) (size 9 to 14) (size 15 to 20)
#    0.000    2.667    0.000    3.500    0.000    5.333 
#    0.000    1.667    0.000    6.000    0.000    0.000 
#    0.000    0.000    0.000    0.000    0.000    0.000 
#
# Total GULP energy -267510.584834 kJ/mol
# GULP energy per Si atom -5573.137184 kJ/mol
# Density = 1.749283 g / cm^3
# Si number density = 17.532735 Si / 1000 Ang^3
#
#
#
# Elastic Constant Matrix: (Units=GPa)
#
#
# Indices 1 2 3 4 5 6 
#
# 1 37.4199 28.5968 62.7480 0.0000 0.0000 0.0000
# 2 28.5968 73.2544 68.2816 0.0000 0.0000 0.0000
# 3 62.7480 68.2816 208.6404 0.0000 0.0000 0.0000
# 4 0.0000 0.0000 0.0000 35.8007 0.0000 0.0000
# 5 0.0000 0.0000 0.0000 0.0000 33.8764 0.0000
# 6 0.0000 0.0000 0.0000 0.0000 0.0000 17.5555
#
#
#
# Elastic Compliance Matrix: (Units=1/GPa)
#
#
# Indices 1 2 3 4 5 6 
#
# 1 0.057897 -0.009168 -0.014412 0.000000 0.000000 0.000000
# 2 -0.009168 0.021095 -0.004147 0.000000 0.000000 0.000000
# 3 -0.014412 -0.004147 0.010484 0.000000 0.000000 0.000000
# 4 0.000000 0.000000 0.000000 0.027932 0.000000 0.000000
# 5 0.000000 0.000000 0.000000 0.000000 0.029519 0.000000
# 6 0.000000 0.000000 0.000000 0.000000 0.000000 0.056962
#
#
# Mechanical properties :
#
#
# Convention : Reuss Voigt Hill
#
# Bulk Modulus (GPa) = 29.39150 70.95193 50.17172
# Shear Modulus (GPa) = 18.47171 28.09239 23.28205
#
# Velocity S-wave (km/s) = 3.24937 4.00719 3.64802
# Velocity P-wave (km/s) = 5.55681 7.87187 6.81338
#
# Compressibility (1/GPa) = 0.03402344
#
# Stress axis : x y z
#
# Youngs Moduli (GPa) = 17.27208 47.40446 95.38048
#
# Poissons Ratio (x) = 0.43460 1.37462
# Poissons Ratio (y) = 0.15835 0.39550
# Poissons Ratio (z) = 0.24892 0.19656
#
# Static dielectric constant tensor:
#      x y z
#    x 1.589480 0.000000 0.000000 
#    y 0.000000 1.585740 0.000000 
#    z 0.000000 0.000000 1.610050 
# 
# From -- ./inp_files/30992.got.cif
#   From: 2010.05.17/outbox.cif.g08.bks.cpg/sg62_16_cif.got.tgz:30992.got - 2010.06.03 15:25:27.
