data_PCOD9464760
_publ_section_title
;
Structure prediction by ZEFSAII (Michael W. Deem and Ramdas Pophale) SiO2 
 PCOD9464760
Probable space group: P N M A
;
_chemical_formula_sum "Si O2"
_cell_formula_units_Z 48
_cell_length_a 13.139724
_cell_length_b 14.568958
_cell_length_c 12.963629
_cell_angle_alpha 90.000000
_cell_angle_beta 90.000000
_cell_angle_gamma 90.000000
_cell_volume 2481.654556
_symmetry_space_group_name_H-M "P N M A"
_symmetry_group_IT_number 62
_symmetry_cell_setting 'orthorhombic'
loop_
_space_group_symop_operation_xyz
x,y,z
1/2-x,-y,1/2+z
1/2+x,1/2-y,1/2-z
-x,1/2+y,-z
-x,-y,-z
1/2+x,y,1/2-z
1/2-x,1/2+y,1/2+z
x,1/2-y,z
loop_
_atom_site_type_symbol
_atom_site_label
_atom_site_fract_x
_atom_site_fract_y
_atom_site_fract_z
Si Si1 0.049273 0.437053 0.586968
Si Si2 0.779787 0.250000 0.196557
Si Si3 0.518972 0.750000 0.548836
Si Si4 0.022753 0.054241 0.103689
Si Si5 0.640084 0.564010 0.239514
Si Si6 0.840293 0.250000 0.858695
Si Si7 0.324685 0.047975 0.251312
Si Si8 0.143654 0.250000 0.498475
O O1 0.137592 0.492939 0.649100
O O2 0.086190 0.342522 0.534199
O O3 0.000000 0.500000 0.500000
O O4 0.957134 0.421510 0.667265
O O5 0.787517 0.346107 0.258717
O O6 0.879619 0.250000 0.121287
O O7 0.680503 0.250000 0.121199
O O8 0.457341 0.840974 0.574747
O O9 0.559327 0.750000 0.431114
O O10 0.922934 0.051791 0.175353
O O11 0.109257 0.004081 0.167673
O O12 0.000000 0.000000 0.000000
O O13 0.666299 0.660845 0.288674
O O14 0.737510 0.512499 0.192920
O O15 0.746919 0.250000 0.936423
#
# Coordination Sequence:
#
# PCOD9464760 Si02
#       8
#     8   4   4   8   8   4   8   4
#     4  11  24  40  62  91 129 171 209 262 315 382
#     4   9  20  37  64  83 119 167 203 259 309 369
#     4   9  18  34  56  89 114 153 200 245 309 363
#     4  10  20  36  59  87 119 157 201 258 303 366
#     4  11  22  37  61  87 123 163 204 257 315 363
#     4  11  19  35  62  86 120 156 194 253 309 376
#     4  10  22  39  59  92 122 160 216 254 310 376
#     4  11  21  40  64  92 123 166 211 253 323 382
#
# _framework density 19.341936
#
# number of rings (size 3 to 8) (size 9 to 14) (size 15 to 20)
#    0.000    1.667    3.333    1.500    0.000    2.667 
#    0.000    4.167    0.000    2.000    0.000    0.000 
#    0.000    0.000    0.000    0.000    0.000    0.000 
#
# Total GULP energy -267812.556658 kJ/mol
# GULP energy per Si atom -5579.428264 kJ/mol
# Density = 1.929791 g / cm^3
# Si number density = 19.341936 Si / 1000 Ang^3
#
#
#
# Elastic Constant Matrix: (Units=GPa)
#
#
# Indices 1 2 3 4 5 6 
#
# 1 54.6337 40.7345 4.4206 0.0000 0.0000 0.0000
# 2 40.7345 193.8126 35.0747 0.0000 0.0000 0.0000
# 3 4.4206 35.0747 42.3644 0.0000 0.0000 0.0000
# 4 0.0000 0.0000 0.0000 4.4269 0.0000 0.0000
# 5 0.0000 0.0000 0.0000 0.0000 13.0175 0.0000
# 6 0.0000 0.0000 0.0000 0.0000 0.0000 7.3744
#
#
#
# Elastic Compliance Matrix: (Units=1/GPa)
#
#
# Indices 1 2 3 4 5 6 
#
# 1 0.021820 -0.004909 0.001788 0.000000 0.000000 0.000000
# 2 -0.004909 0.007174 -0.005427 0.000000 0.000000 0.000000
# 3 0.001788 -0.005427 0.027911 0.000000 0.000000 0.000000
# 4 0.000000 0.000000 0.000000 0.225890 0.000000 0.000000
# 5 0.000000 0.000000 0.000000 0.000000 0.076820 0.000000
# 6 0.000000 0.000000 0.000000 0.000000 0.000000 0.135604
#
#
# Mechanical properties :
#
#
# Convention : Reuss Voigt Hill
#
# Bulk Modulus (GPa) = 25.12099 50.14114 37.63107
# Shear Modulus (GPa) = 9.51324 19.00251 14.25787
#
# Velocity S-wave (km/s) = 2.22016 3.13781 2.71799
# Velocity P-wave (km/s) = 4.42586 6.25361 5.41737
#
# Compressibility (1/GPa) = 0.03980734
#
# Stress axis : x y z
#
# Youngs Moduli (GPa) = 45.83049 139.40020 35.82785
#
# Poissons Ratio (x) = 0.68438 -0.06406
# Poissons Ratio (y) = 0.22500 0.19444
# Poissons Ratio (z) = -0.08194 0.75651
#
# Static dielectric constant tensor:
#      x y z
#    x 1.705820 0.000000 0.000000 
#    y 0.000000 1.654870 0.000000 
#    z 0.000000 0.000000 1.683700 
# 
# From -- ./inp_files/18045.got.cif
#   From: 2010.05.17/outbox.cif.g08.bks.cpg/sg62_10_cif.got.tgz:18045.got - 2010.06.03 15:25:27.
