data_PCOD9464949
_publ_section_title
;
Structure prediction by ZEFSAII (Michael W. Deem and Ramdas Pophale) SiO2 
 PCOD9464949
Probable space group: P N M A
;
_chemical_formula_sum "Si O2"
_cell_formula_units_Z 64
_cell_length_a 16.487983
_cell_length_b 22.561545
_cell_length_c 8.453945
_cell_angle_alpha 90.000000
_cell_angle_beta 90.000000
_cell_angle_gamma 90.000000
_cell_volume 3144.819948
_symmetry_space_group_name_H-M "P N M A"
_symmetry_group_IT_number 62
_symmetry_cell_setting 'orthorhombic'
loop_
_space_group_symop_operation_xyz
x,y,z
1/2-x,-y,1/2+z
1/2+x,1/2-y,1/2-z
-x,1/2+y,-z
-x,-y,-z
1/2+x,y,1/2-z
1/2-x,1/2+y,1/2+z
x,1/2-y,z
loop_
_atom_site_type_symbol
_atom_site_label
_atom_site_fract_x
_atom_site_fract_y
_atom_site_fract_z
Si Si1 0.298727 0.917880 0.136527
Si Si2 0.349712 0.620786 0.803327
Si Si3 0.690825 0.681594 0.807452
Si Si4 0.531907 0.893585 0.811455
Si Si5 0.800750 0.181038 0.687427
Si Si6 0.154444 0.998144 0.148296
Si Si7 0.568328 0.479642 0.665938
Si Si8 0.438681 0.096442 0.817363
O O1 0.264431 0.860926 0.228658
O O2 0.224633 0.958051 0.075137
O O3 0.347445 0.960103 0.253999
O O4 0.349521 0.896836 0.987128
O O5 0.276843 0.666505 0.773539
O O6 0.444212 0.633357 0.761577
O O7 0.322399 0.562862 0.705131
O O8 0.669772 0.750000 0.778336
O O9 0.613569 0.641160 0.759102
O O10 0.703486 0.674124 0.997028
O O11 0.536953 0.961050 0.751127
O O12 0.535693 0.895888 0.002250
O O13 0.792267 0.250000 0.726973
O O14 0.888319 0.153933 0.734476
O O15 0.122450 0.959412 0.296321
O O16 0.086475 0.006534 0.015313
O O17 0.511644 0.423418 0.705174
#
# Coordination Sequence:
#
# PCOD9464949 Si02
#       8
#     8   8   8   8   8   8   8   8
#     4  11  22  36  60  90 123 159 204 250 307 364
#     4  12  23  39  61  92 125 165 202 254 306 370
#     4  10  23  43  64  86 118 162 210 257 309 366
#     4  11  22  39  63  90 127 164 208 252 314 372
#     4   9  21  43  64  83 113 157 207 255 306 365
#     4  11  22  35  57  89 127 164 199 246 311 370
#     4  12  21  37  58  93 128 158 201 253 305 375
#     4  10  20  37  60  88 120 158 198 256 307 366
#
# _framework density 20.350926000000001
#
# number of rings (size 3 to 8) (size 9 to 14) (size 15 to 20)
#    0.000    1.250    2.500    4.500    0.000    3.000 
#    0.000    0.625    0.000    0.750    0.000    0.000 
#    0.000    0.000    0.000    0.000    0.000    0.000 
#
# Total GULP energy -357340.970207 kJ/mol
# GULP energy per Si atom -5583.452659 kJ/mol
# Density = 2.030461 g / cm^3
# Si number density = 20.350926 Si / 1000 Ang^3
#
#
#
# Elastic Constant Matrix: (Units=GPa)
#
#
# Indices 1 2 3 4 5 6 
#
# 1 114.4837 41.8480 17.5800 0.0000 0.0000 0.0000
# 2 41.8480 56.0733 13.4142 0.0000 0.0000 0.0000
# 3 17.5800 13.4142 31.7674 0.0000 0.0000 0.0000
# 4 0.0000 0.0000 0.0000 18.8521 0.0000 0.0000
# 5 0.0000 0.0000 0.0000 0.0000 34.9210 0.0000
# 6 0.0000 0.0000 0.0000 0.0000 0.0000 27.3787
#
#
#
# Elastic Compliance Matrix: (Units=1/GPa)
#
#
# Indices 1 2 3 4 5 6 
#
# 1 0.012308 -0.008405 -0.003262 0.000000 0.000000 0.000000
# 2 -0.008405 0.025578 -0.006149 0.000000 0.000000 0.000000
# 3 -0.003262 -0.006149 0.035881 0.000000 0.000000 0.000000
# 4 0.000000 0.000000 0.000000 0.053044 0.000000 0.000000
# 5 0.000000 0.000000 0.000000 0.000000 0.028636 0.000000
# 6 0.000000 0.000000 0.000000 0.000000 0.000000 0.036525
#
#
# Mechanical properties :
#
#
# Convention : Reuss Voigt Hill
#
# Bulk Modulus (GPa) = 26.22359 38.66764 32.44562
# Shear Modulus (GPa) = 20.80591 24.86249 22.83420
#
# Velocity S-wave (km/s) = 3.20090 3.49906 3.35329
# Velocity P-wave (km/s) = 5.15506 5.94695 5.56511
#
# Compressibility (1/GPa) = 0.03813360
#
# Stress axis : x y z
#
# Youngs Moduli (GPa) = 81.24608 39.09629 27.87029
#
# Poissons Ratio (x) = 0.32862 0.09091
# Poissons Ratio (y) = 0.68291 0.17138
# Poissons Ratio (z) = 0.26503 0.24040
#
# Static dielectric constant tensor:
#      x y z
#    x 1.811310 0.000000 0.000000 
#    y 0.000000 1.672240 0.000000 
#    z 0.000000 0.000000 1.708090 
# 
# From -- ./inp_files/6960.got.cif
#   From: 2010.05.17/outbox.cif.g08.bks.cpg/sg62_4_cif.got.tgz:6960.got - 2010.06.03 15:25:27.
