data_PCOD9464643
_publ_section_title
;
Structure prediction by ZEFSAII (Michael W. Deem and Ramdas Pophale) SiO2 
 PCOD9464643
Probable space group: P N M A
;
_chemical_formula_sum "Si O2"
_cell_formula_units_Z 64
_cell_length_a 29.411863
_cell_length_b 8.141774
_cell_length_c 13.359261
_cell_angle_alpha 90.000000
_cell_angle_beta 90.000000
_cell_angle_gamma 90.000000
_cell_volume 3199.071982
_symmetry_space_group_name_H-M "P N M A"
_symmetry_group_IT_number 62
_symmetry_cell_setting 'orthorhombic'
loop_
_space_group_symop_operation_xyz
x,y,z
1/2-x,-y,1/2+z
1/2+x,1/2-y,1/2-z
-x,1/2+y,-z
-x,-y,-z
1/2+x,y,1/2-z
1/2-x,1/2+y,1/2+z
x,1/2-y,z
loop_
_atom_site_type_symbol
_atom_site_label
_atom_site_fract_x
_atom_site_fract_y
_atom_site_fract_z
Si Si1 0.698353 0.937204 0.297636
Si Si2 0.869052 0.053661 0.258243
Si Si3 0.607022 0.548083 0.197370
Si Si4 0.636499 0.553987 0.980731
Si Si5 0.260678 0.562438 0.034573
Si Si6 0.457694 0.447898 0.628118
Si Si7 0.560589 0.446706 0.587712
Si Si8 0.780802 0.932258 0.150082
O O1 0.687656 0.750000 0.333198
O O2 0.651717 0.009279 0.257951
O O3 0.729290 0.020696 0.381389
O O4 0.732890 0.924241 0.206063
O O5 0.865387 0.250000 0.262170
O O6 0.880032 0.993564 0.371330
O O7 0.904535 0.007863 0.171495
O O8 0.820522 0.982026 0.224937
O O9 0.608048 0.750000 0.194798
O O10 0.564966 0.498265 0.267483
O O11 0.612148 0.491337 0.082163
O O12 0.630349 0.750000 0.981499
O O13 0.690687 0.519366 0.984992
O O14 0.270864 0.750000 0.065261
O O15 0.228394 0.557377 0.938390
O O16 0.458348 0.250000 0.628972
O O17 0.509583 0.506847 0.615064
O O18 0.430966 0.499470 0.527197
O O19 0.560919 0.250000 0.589863
O O20 0.791140 0.750000 0.109903
#
# Coordination Sequence:
#
# PCOD9464643 Si02
#       8
#     8   8   8   8   8   8   8   8
#     4   9  18  31  51  76 107 144 181 220 270 326
#     4  11  23  37  56  83 111 148 192 233 280 334
#     4   9  17  34  58  82 107 142 185 227 277 333
#     4  10  20  36  57  79 108 148 192 233 276 327
#     4  11  21  33  50  78 112 149 188 226 276 333
#     4   9  19  37  64  88 110 143 183 228 280 343
#     4  10  21  38  59  86 115 144 179 228 288 340
#     4  11  21  36  54  77 109 148 188 230 276 323
#
# _framework density 20.005803
#
# number of rings (size 3 to 8) (size 9 to 14) (size 15 to 20)
#    0.000    2.000    2.500    1.500    1.750    1.000 
#    0.000    1.250    0.000    0.000    0.000    0.000 
#    0.000    0.000    0.000    0.000    0.000    0.000 
#
# Total GULP energy -356737.390659 kJ/mol
# GULP energy per Si atom -5574.021729 kJ/mol
# Density = 1.996027 g / cm^3
# Si number density = 20.005803 Si / 1000 Ang^3
#
#
#
# Elastic Constant Matrix: (Units=GPa)
#
#
# Indices 1 2 3 4 5 6 
#
# 1 34.6523 0.0781 6.4938 0.0000 0.0000 0.0000
# 2 0.0781 22.1292 0.8347 0.0000 0.0000 0.0000
# 3 6.4938 0.8347 84.8504 0.0000 0.0000 0.0000
# 4 0.0000 0.0000 0.0000 13.9845 0.0000 0.0000
# 5 0.0000 0.0000 0.0000 0.0000 35.7753 0.0000
# 6 0.0000 0.0000 0.0000 0.0000 0.0000 10.2269
#
#
#
# Elastic Compliance Matrix: (Units=1/GPa)
#
#
# Indices 1 2 3 4 5 6 
#
# 1 0.029278 -0.000019 -0.002241 0.000000 0.000000 0.000000
# 2 -0.000019 0.045206 -0.000443 0.000000 0.000000 0.000000
# 3 -0.002241 -0.000443 0.011961 0.000000 0.000000 0.000000
# 4 0.000000 0.000000 0.000000 0.071508 0.000000 0.000000
# 5 0.000000 0.000000 0.000000 0.000000 0.027952 0.000000
# 6 0.000000 0.000000 0.000000 0.000000 0.000000 0.097781
#
#
# Mechanical properties :
#
#
# Convention : Reuss Voigt Hill
#
# Bulk Modulus (GPa) = 12.33960 17.38280 14.86120
# Shear Modulus (GPa) = 15.81751 20.94568 18.38160
#
# Velocity S-wave (km/s) = 2.81489 3.23922 3.03448
# Velocity P-wave (km/s) = 4.09222 4.76422 4.44095
#
# Compressibility (1/GPa) = 0.08103991
#
# Stress axis : x y z
#
# Youngs Moduli (GPa) = 34.15530 22.12103 83.60302
#
# Poissons Ratio (x) = 0.00042 0.18732
# Poissons Ratio (y) = 0.00064 0.03706
# Poissons Ratio (z) = 0.07653 0.00981
#
# Static dielectric constant tensor:
#      x y z
#    x 1.686220 0.000000 0.000000 
#    y 0.000000 1.717050 0.000000 
#    z 0.000000 0.000000 1.763720 
# 
# From -- ./inp_files/15831.got.cif
#   From: 2010.05.17/outbox.cif.g08.bks.cpg/sg62_8_cif.got.tgz:15831.got - 2010.06.03 15:25:27.
