data_PCOD9464799
_publ_section_title
;
Structure prediction by ZEFSAII (Michael W. Deem and Ramdas Pophale) SiO2 
 PCOD9464799
Probable space group: P N M A
;
_chemical_formula_sum "Si O2"
_cell_formula_units_Z 48
_cell_length_a 12.131768
_cell_length_b 8.357947
_cell_length_c 23.079622
_cell_angle_alpha 90.000000
_cell_angle_beta 90.000000
_cell_angle_gamma 90.000000
_cell_volume 2340.196907
_symmetry_space_group_name_H-M "P N M A"
_symmetry_group_IT_number 62
_symmetry_cell_setting 'orthorhombic'
loop_
_space_group_symop_operation_xyz
x,y,z
1/2-x,-y,1/2+z
1/2+x,1/2-y,1/2-z
-x,1/2+y,-z
-x,-y,-z
1/2+x,y,1/2-z
1/2-x,1/2+y,1/2+z
x,1/2-y,z
loop_
_atom_site_type_symbol
_atom_site_label
_atom_site_fract_x
_atom_site_fract_y
_atom_site_fract_z
Si Si1 0.154366 0.437643 0.451536
Si Si2 0.069063 0.059359 0.146787
Si Si3 0.159226 0.061276 0.270600
Si Si4 0.730333 0.056421 0.921080
Si Si5 0.512711 0.061706 0.861771
Si Si6 0.823093 0.935687 0.139014
O O1 0.124639 0.250000 0.453288
O O2 0.187797 0.491789 0.515478
O O3 0.258535 0.461604 0.409016
O O4 0.055891 0.533599 0.421060
O O5 0.053009 0.250000 0.149756
O O6 0.127350 0.006247 0.206594
O O7 0.152582 0.015349 0.095629
O O8 0.950791 0.978111 0.141092
O O9 0.183265 0.250000 0.269566
O O10 0.261733 0.973051 0.300439
O O11 0.054107 0.030212 0.312299
O O12 0.737358 0.250000 0.920657
O O13 0.636990 0.008509 0.874434
O O14 0.511430 0.250000 0.847933
O O15 0.806598 0.750000 0.125050
#
# Coordination Sequence:
#
# PCOD9464799 Si02
#       6
#     8   8   8   8   8   8
#     4  10  20  38  62  87 120 158 196 243 291 347
#     4  11  25  41  60  86 118 157 199 243 293 351
#     4  10  22  40  61  86 117 153 197 242 291 350
#     4  10  23  39  58  89 123 155 198 244 292 347
#     4  10  20  36  60  91 121 154 196 242 294 348
#     4  11  23  40  63  87 116 154 196 242 294 351
#
# _framework density 20.511094
#
# number of rings (size 3 to 8) (size 9 to 14) (size 15 to 20)
#    0.000    1.667    0.000    6.000    2.333    6.000 
#    0.000    0.000    0.000    0.000    0.000    0.000 
#    0.000    0.000    0.000    0.000    0.000    0.000 
#
# Total GULP energy -268385.982029 kJ/mol
# GULP energy per Si atom -5591.374626 kJ/mol
# Density = 2.046441 g / cm^3
# Si number density = 20.511094 Si / 1000 Ang^3
#
#
#
# Elastic Constant Matrix: (Units=GPa)
#
#
# Indices 1 2 3 4 5 6 
#
# 1 92.3877 -8.2745 -5.1513 0.0000 0.0000 0.0000
# 2 -8.2745 22.1862 -11.6633 0.0000 0.0000 0.0000
# 3 -5.1513 -11.6633 38.0400 0.0000 0.0000 0.0000
# 4 0.0000 0.0000 0.0000 16.3758 0.0000 0.0000
# 5 0.0000 0.0000 0.0000 0.0000 5.8140 0.0000
# 6 0.0000 0.0000 0.0000 0.0000 0.0000 28.3729
#
#
#
# Elastic Compliance Matrix: (Units=1/GPa)
#
#
# Indices 1 2 3 4 5 6 
#
# 1 0.011564 0.006123 0.003443 0.000000 0.000000 0.000000
# 2 0.006123 0.056976 0.018298 0.000000 0.000000 0.000000
# 3 0.003443 0.018298 0.032365 0.000000 0.000000 0.000000
# 4 0.000000 0.000000 0.000000 0.061066 0.000000 0.000000
# 5 0.000000 0.000000 0.000000 0.000000 0.171998 0.000000
# 6 0.000000 0.000000 0.000000 0.000000 0.000000 0.035245
#
#
# Mechanical properties :
#
#
# Convention : Reuss Voigt Hill
#
# Bulk Modulus (GPa) = 6.38425 11.38175 8.88300
# Shear Modulus (GPa) = 13.67256 21.95941 17.81598
#
# Velocity S-wave (km/s) = 2.58465 3.27557 2.95040
# Velocity P-wave (km/s) = 3.46793 4.45723 3.99334
#
# Compressibility (1/GPa) = 0.15663542
#
# Stress axis : x y z
#
# Youngs Moduli (GPa) = 86.47254 17.55121 30.89774
#
# Poissons Ratio (x) = -0.10747 -0.10639
# Poissons Ratio (y) = -0.52949 -0.56538
# Poissons Ratio (z) = -0.29776 -0.32116
#
# Static dielectric constant tensor:
#      x y z
#    x 1.707340 0.000000 0.000000 
#    y 0.000000 1.668880 0.000000 
#    z 0.000000 0.000000 1.735180 
# 
# From -- ./inp_files/29260.got.cif
#   From: 2010.05.17/outbox.cif.g08.bks.cpg/sg62_15_cif.got.tgz:29260.got - 2010.06.03 15:25:27.
