data_PCOD9464946
_publ_section_title
;
Structure prediction by ZEFSAII (Michael W. Deem and Ramdas Pophale) SiO2 
 PCOD9464946
Probable space group: P N M A
;
_chemical_formula_sum "Si O2"
_cell_formula_units_Z 48
_cell_length_a 10.266234
_cell_length_b 7.521691
_cell_length_c 31.339489
_cell_angle_alpha 90.000000
_cell_angle_beta 90.000000
_cell_angle_gamma 90.000000
_cell_volume 2420.017787
_symmetry_space_group_name_H-M "P N M A"
_symmetry_group_IT_number 62
_symmetry_cell_setting 'orthorhombic'
loop_
_space_group_symop_operation_xyz
x,y,z
1/2-x,-y,1/2+z
1/2+x,1/2-y,1/2-z
-x,1/2+y,-z
-x,-y,-z
1/2+x,y,1/2-z
1/2-x,1/2+y,1/2+z
x,1/2-y,z
loop_
_atom_site_type_symbol
_atom_site_label
_atom_site_fract_x
_atom_site_fract_y
_atom_site_fract_z
Si Si1 0.056918 0.534953 0.353177
Si Si2 0.352732 0.956470 0.013508
Si Si3 0.216756 0.033685 0.606431
Si Si4 0.233833 0.462104 0.924638
Si Si5 0.502838 0.034381 0.636606
Si Si6 0.066705 0.750000 0.792753
Si Si7 0.364595 0.750000 0.783887
O O1 0.067443 0.750000 0.347347
O O2 0.148432 0.482362 0.393349
O O3 0.103707 0.422592 0.312894
O O4 0.908781 0.488285 0.365307
O O5 0.355542 0.750000 0.022301
O O6 0.260018 0.984955 0.973068
O O7 0.307060 0.037142 0.058400
O O8 0.500000 0.000000 0.000000
O O9 0.220853 0.250000 0.605720
O O10 0.355609 0.980965 0.625289
O O11 0.236911 0.250000 0.924667
O O12 0.099003 0.514747 0.902492
O O13 0.510429 0.250000 0.642831
O O14 0.550219 0.923243 0.677206
O O15 0.956460 0.750000 0.756995
O O16 0.211608 0.750000 0.773586
#
# Coordination Sequence:
#
# PCOD9464946 Si02
#       7
#     8   8   8   8   8   4   4
#     4  10  21  41  67  90 125 172 211 254 319 387
#     4  11  21  33  56  90 130 166 216 276 310 367
#     4   9  20  39  61  92 127 170 220 261 315 377
#     4  10  20  37  60  87 124 170 214 251 313 377
#     4  10  23  45  68  89 130 175 209 263 323 390
#     4  12  28  46  68 102 128 160 218 270 330 400
#     4  12  28  44  68 100 130 158 214 272 324 396
#
# _framework density 19.834565000000001
#
# number of rings (size 3 to 8) (size 9 to 14) (size 15 to 20)
#    0.000    1.667    3.333    0.500    4.667    1.333 
#    4.500    0.000    0.000    0.000    0.000    0.000 
#    0.000    0.000    0.000    0.000    0.000    0.000 
#
# Total GULP energy -268034.269984 kJ/mol
# GULP energy per Si atom -5584.047291 kJ/mol
# Density = 1.978942 g / cm^3
# Si number density = 19.834565 Si / 1000 Ang^3
#
#
#
# Elastic Constant Matrix: (Units=GPa)
#
#
# Indices 1 2 3 4 5 6 
#
# 1 155.9248 21.4302 31.9158 0.0000 0.0000 0.0000
# 2 21.4302 65.4173 21.5156 0.0000 0.0000 0.0000
# 3 31.9158 21.5156 70.0225 0.0000 0.0000 0.0000
# 4 0.0000 0.0000 0.0000 16.5174 0.0000 0.0000
# 5 0.0000 0.0000 0.0000 0.0000 30.3819 0.0000
# 6 0.0000 0.0000 0.0000 0.0000 0.0000 12.1915
#
#
#
# Elastic Compliance Matrix: (Units=1/GPa)
#
#
# Indices 1 2 3 4 5 6 
#
# 1 0.007190 -0.001421 -0.002841 0.000000 0.000000 0.000000
# 2 -0.001421 0.017286 -0.004664 0.000000 0.000000 0.000000
# 3 -0.002841 -0.004664 0.017009 0.000000 0.000000 0.000000
# 4 0.000000 0.000000 0.000000 0.060542 0.000000 0.000000
# 5 0.000000 0.000000 0.000000 0.000000 0.032914 0.000000
# 6 0.000000 0.000000 0.000000 0.000000 0.000000 0.082024
#
#
# Mechanical properties :
#
#
# Convention : Reuss Voigt Hill
#
# Bulk Modulus (GPa) = 42.31164 49.00974 45.66069
# Shear Modulus (GPa) = 20.60205 26.25169 23.42687
#
# Velocity S-wave (km/s) = 3.22637 3.64199 3.44046
# Velocity P-wave (km/s) = 5.93784 6.51524 6.23323
#
# Compressibility (1/GPa) = 0.02363416
#
# Stress axis : x y z
#
# Youngs Moduli (GPa) = 139.08033 57.85061 58.79311
#
# Poissons Ratio (x) = 0.08222 0.16700
# Poissons Ratio (y) = 0.19766 0.27419
# Poissons Ratio (z) = 0.39506 0.26979
#
# Static dielectric constant tensor:
#      x y z
#    x 1.688100 0.000000 0.000000 
#    y 0.000000 1.715250 0.000000 
#    z 0.000000 0.000000 1.695890 
# 
# From -- ./inp_files/32096.got.cif
#   From: 2010.05.17/outbox.cif.g08.bks.cpg/sg62_17_cif.got.tgz:32096.got - 2010.06.03 15:25:27.
