data_PCOD9464121
_publ_section_title
;
Structure prediction by ZEFSAII (Michael W. Deem and Ramdas Pophale) SiO2 
 PCOD9464121
Probable space group: P N M A
;
_chemical_formula_sum "Si O2"
_cell_formula_units_Z 64
_cell_length_a 25.727355
_cell_length_b 7.514682
_cell_length_c 14.793933
_cell_angle_alpha 90.000000
_cell_angle_beta 90.000000
_cell_angle_gamma 90.000000
_cell_volume 2860.153844
_symmetry_space_group_name_H-M "P N M A"
_symmetry_group_IT_number 62
_symmetry_cell_setting 'orthorhombic'
loop_
_space_group_symop_operation_xyz
x,y,z
1/2-x,-y,1/2+z
1/2+x,1/2-y,1/2-z
-x,1/2+y,-z
-x,-y,-z
1/2+x,y,1/2-z
1/2-x,1/2+y,1/2+z
x,1/2-y,z
loop_
_atom_site_type_symbol
_atom_site_label
_atom_site_fract_x
_atom_site_fract_y
_atom_site_fract_z
Si Si1 0.873956 0.958325 0.373815
Si Si2 0.830362 0.533393 0.553114
Si Si3 0.446371 0.043909 0.280022
Si Si4 0.335659 0.455379 0.737914
Si Si5 0.558807 0.534731 0.349802
Si Si6 0.898168 0.468302 0.034435
Si Si7 0.715735 0.954278 0.540886
Si Si8 0.278799 0.967940 0.248053
O O1 0.862463 0.750000 0.382766
O O2 0.870895 0.024886 0.476362
O O3 0.826259 0.029550 0.313625
O O4 0.925761 0.973103 0.315002
O O5 0.829232 0.750000 0.562651
O O6 0.839590 0.462780 0.653319
O O7 0.772881 0.473421 0.519679
O O8 0.432704 0.250000 0.277689
O O9 0.416329 0.966281 0.367429
O O10 0.507065 0.025768 0.299997
O O11 0.334622 0.250000 0.708135
O O12 0.388035 0.532003 0.696095
O O13 0.278328 0.527285 0.714993
O O14 0.558036 0.750000 0.346347
O O15 0.562627 0.480652 0.454785
O O16 0.896870 0.250000 0.036996
O O17 0.839676 0.529770 0.010830
O O18 0.716640 0.750000 0.509320
O O19 0.713613 0.962985 0.650232
O O20 0.278519 0.750000 0.253014
#
# Coordination Sequence:
#
# PCOD9464121 Si02
#       8
#     8   8   8   8   8   8   8   8
#     4  10  20  34  54  81 109 142 181 219 264 319
#     4   9  19  33  54  80 110 144 177 218 265 317
#     4  11  22  37  55  79 109 142 181 226 269 315
#     4   9  19  35  55  79 108 140 178 222 269 316
#     4  10  21  37  57  78 104 144 184 223 267 319
#     4   9  18  32  53  80 109 141 176 213 262 320
#     4   9  16  30  51  77 109 141 173 208 255 317
#     4   9  17  30  50  77 108 138 170 213 261 312
#
# _framework density 22.376418999999999
#
# number of rings (size 3 to 8) (size 9 to 14) (size 15 to 20)
#    0.000    2.500    1.250    0.750    1.750    1.000 
#    0.000    1.875    0.000    0.000    0.000    0.000 
#    0.000    0.000    0.000    0.000    0.000    0.000 
#
# Total GULP energy -357256.730849 kJ/mol
# GULP energy per Si atom -5582.136420 kJ/mol
# Density = 2.232549 g / cm^3
# Si number density = 22.376419 Si / 1000 Ang^3
#
#
#
# Elastic Constant Matrix: (Units=GPa)
#
#
# Indices 1 2 3 4 5 6 
#
# 1 81.5882 -6.9046 10.3389 0.0000 0.0000 0.0000
# 2 -6.9046 59.9802 -1.4001 0.0000 0.0000 0.0000
# 3 10.3389 -1.4001 38.9747 0.0000 0.0000 0.0000
# 4 0.0000 0.0000 0.0000 6.7931 0.0000 0.0000
# 5 0.0000 0.0000 0.0000 0.0000 35.4502 0.0000
# 6 0.0000 0.0000 0.0000 0.0000 0.0000 12.0469
#
#
#
# Elastic Compliance Matrix: (Units=1/GPa)
#
#
# Indices 1 2 3 4 5 6 
#
# 1 0.012799 0.001395 -0.003345 0.000000 0.000000 0.000000
# 2 0.001395 0.016838 0.000235 0.000000 0.000000 0.000000
# 3 -0.003345 0.000235 0.026553 0.000000 0.000000 0.000000
# 4 0.000000 0.000000 0.000000 0.147208 0.000000 0.000000
# 5 0.000000 0.000000 0.000000 0.000000 0.028209 0.000000
# 6 0.000000 0.000000 0.000000 0.000000 0.000000 0.083009
#
#
# Mechanical properties :
#
#
# Convention : Reuss Voigt Hill
#
# Bulk Modulus (GPa) = 18.95365 20.51240 19.73303
# Shear Modulus (GPa) = 14.89724 22.75864 18.82794
#
# Velocity S-wave (km/s) = 2.58302 3.19263 2.90387
# Velocity P-wave (km/s) = 4.16951 4.77257 4.48119
#
# Compressibility (1/GPa) = 0.05276029
#
# Stress axis : x y z
#
# Youngs Moduli (GPa) = 78.13339 59.38858 37.65992
#
# Poissons Ratio (x) = -0.08286 0.12597
# Poissons Ratio (y) = -0.10901 -0.00884
# Poissons Ratio (z) = 0.26136 -0.01394
#
# Static dielectric constant tensor:
#      x y z
#    x 1.823490 0.000000 0.000000 
#    y 0.000000 1.860350 0.000000 
#    z 0.000000 0.000000 1.828530 
# 
# From -- ./inp_files/20771.got.cif
#   From: 2010.05.17/outbox.cif.g08.bks.cpg/sg62_11_cif.got.tgz:20771.got - 2010.06.03 15:25:27.
