data_PCOD9464256
_publ_section_title
;
Structure prediction by ZEFSAII (Michael W. Deem and Ramdas Pophale) SiO2 
 PCOD9464256
Probable space group: P N M A
;
_chemical_formula_sum "Si O2"
_cell_formula_units_Z 48
_cell_length_a 11.159186
_cell_length_b 18.713211
_cell_length_c 12.295995
_cell_angle_alpha 90.000000
_cell_angle_beta 90.000000
_cell_angle_gamma 90.000000
_cell_volume 2567.701346
_symmetry_space_group_name_H-M "P N M A"
_symmetry_group_IT_number 62
_symmetry_cell_setting 'orthorhombic'
loop_
_space_group_symop_operation_xyz
x,y,z
1/2-x,-y,1/2+z
1/2+x,1/2-y,1/2-z
-x,1/2+y,-z
-x,-y,-z
1/2+x,y,1/2-z
1/2-x,1/2+y,1/2+z
x,1/2-y,z
loop_
_atom_site_type_symbol
_atom_site_label
_atom_site_fract_x
_atom_site_fract_y
_atom_site_fract_z
Si Si1 0.759001 0.917582 0.905329
Si Si2 0.019726 0.583567 0.981142
Si Si3 0.874206 0.085353 0.615764
Si Si4 0.342149 0.333830 0.667564
Si Si5 0.146529 0.425472 0.567672
Si Si6 0.254472 0.565953 0.844996
O O1 0.756413 0.904899 0.776710
O O2 0.889785 0.892515 0.942741
O O3 0.727804 0.003094 0.916205
O O4 0.668592 0.888318 0.997107
O O5 0.124194 0.585079 0.891851
O O6 0.066881 0.624527 0.087149
O O7 0.000000 0.500000 0.000000
O O8 0.867138 0.143915 0.709071
O O9 0.011564 0.059771 0.604133
O O10 0.788852 0.018951 0.653654
O O11 0.351294 0.250000 0.650653
O O12 0.211013 0.363475 0.634780
O O13 0.155452 0.406521 0.439385
#
# Coordination Sequence:
#
# PCOD9464256 Si02
#       6
#     8   8   8   8   8   8
#     4  11  21  33  61  92 123 155 206 260 308 361
#     4  11  20  38  62  89 125 164 206 266 308 365
#     4  11  22  35  56  90 126 158 207 251 307 373
#     4  11  25  42  62  87 124 170 208 253 321 385
#     4  10  22  36  56  88 124 163 200 257 313 367
#     4  10  20  34  58  90 123 156 199 258 314 352
#
# _framework density 18.693763000000001
#
# number of rings (size 3 to 8) (size 9 to 14) (size 15 to 20)
#    0.000    1.333    6.667    2.000    9.333    0.667 
#    0.000    0.000    0.000    8.000    0.000    0.000 
#    0.000    0.000    0.000    0.000    0.000    0.000 
#
# Total GULP energy -267426.392795 kJ/mol
# GULP energy per Si atom -5571.383183 kJ/mol
# Density = 1.865122 g / cm^3
# Si number density = 18.693763 Si / 1000 Ang^3
#
#
#
# Elastic Constant Matrix: (Units=GPa)
#
#
# Indices 1 2 3 4 5 6 
#
# 1 92.8546 18.1446 36.4222 0.0000 0.0000 0.0000
# 2 18.1446 63.4229 27.1597 0.0000 0.0000 0.0000
# 3 36.4222 27.1597 142.1231 0.0000 0.0000 0.0000
# 4 0.0000 0.0000 0.0000 11.1815 0.0000 0.0000
# 5 0.0000 0.0000 0.0000 0.0000 11.3601 0.0000
# 6 0.0000 0.0000 0.0000 0.0000 0.0000 9.6482
#
#
#
# Elastic Compliance Matrix: (Units=1/GPa)
#
#
# Indices 1 2 3 4 5 6 
#
# 1 0.012289 -0.002360 -0.002698 0.000000 0.000000 0.000000
# 2 -0.002360 0.017626 -0.002763 0.000000 0.000000 0.000000
# 3 -0.002698 -0.002763 0.008256 0.000000 0.000000 0.000000
# 4 0.000000 0.000000 0.000000 0.089433 0.000000 0.000000
# 5 0.000000 0.000000 0.000000 0.000000 0.088027 0.000000
# 6 0.000000 0.000000 0.000000 0.000000 0.000000 0.103646
#
#
# Mechanical properties :
#
#
# Convention : Reuss Voigt Hill
#
# Bulk Modulus (GPa) = 44.39184 51.31708 47.85446
# Shear Modulus (GPa) = 14.60150 20.88290 17.74220
#
# Velocity S-wave (km/s) = 2.79783 3.34594 3.08408
# Velocity P-wave (km/s) = 5.85112 6.51445 6.19167
#
# Compressibility (1/GPa) = 0.02252666
#
# Stress axis : x y z
#
# Youngs Moduli (GPa) = 81.37248 56.73500 121.12775
#
# Poissons Ratio (x) = 0.13391 0.32684
# Poissons Ratio (y) = 0.19206 0.33473
# Poissons Ratio (z) = 0.21957 0.15678
#
# Static dielectric constant tensor:
#      x y z
#    x 1.677470 0.000000 0.000000 
#    y 0.000000 1.676510 0.000000 
#    z 0.000000 0.000000 1.687280 
# 
# From -- ./inp_files/12239.got.cif
#   From: 2010.05.17/outbox.cif.g08.bks.cpg/sg62_7_cif.got.tgz:12239.got - 2010.06.03 15:25:27.
