data_PCOD9464240
_publ_section_title
;
Structure prediction by ZEFSAII (Michael W. Deem and Ramdas Pophale) SiO2 
 PCOD9464240
Probable space group: P N M A
;
_chemical_formula_sum "Si O2"
_cell_formula_units_Z 56
_cell_length_a 8.464876
_cell_length_b 20.382379
_cell_length_c 15.267195
_cell_angle_alpha 90.000000
_cell_angle_beta 90.000000
_cell_angle_gamma 90.000000
_cell_volume 2634.114967
_symmetry_space_group_name_H-M "P N M A"
_symmetry_group_IT_number 62
_symmetry_cell_setting 'orthorhombic'
loop_
_space_group_symop_operation_xyz
x,y,z
1/2-x,-y,1/2+z
1/2+x,1/2-y,1/2-z
-x,1/2+y,-z
-x,-y,-z
1/2+x,y,1/2-z
1/2-x,1/2+y,1/2+z
x,1/2-y,z
loop_
_atom_site_type_symbol
_atom_site_label
_atom_site_fract_x
_atom_site_fract_y
_atom_site_fract_z
Si Si1 0.988906 0.676690 0.734928
Si Si2 0.842633 0.045266 0.994837
Si Si3 0.815758 0.514256 0.325015
Si Si4 0.153799 0.825525 0.457097
Si Si5 0.186446 0.173392 0.448602
Si Si6 0.720229 0.369024 0.363263
Si Si7 0.676637 0.957144 0.137390
O O1 0.963137 0.750000 0.767951
O O2 0.881666 0.663566 0.649501
O O3 0.946008 0.628882 0.813876
O O4 0.165309 0.672029 0.699920
O O5 0.721415 0.002784 0.054633
O O6 0.797325 0.051823 0.892722
O O7 0.818913 0.119450 0.030121
O O8 0.000000 0.000000 0.000000
O O9 0.794614 0.440395 0.359020
O O10 0.771289 0.521790 0.223859
O O11 0.994041 0.534338 0.340518
O O12 0.167845 0.750000 0.428961
O O13 0.264733 0.838644 0.541582
O O14 0.199792 0.881266 0.388394
O O15 0.971883 0.835898 0.490951
O O16 0.235319 0.250000 0.456333
#
# Coordination Sequence:
#
# PCOD9464240 Si02
#       7
#     8   8   8   8   8   8   8
#     4  10  20  34  57  90 127 163 206 258 324 398
#     4  12  24  42  66 100 136 175 225 279 335 404
#     4  12  24  40  69  97 129 178 221 279 348 395
#     4  10  20  40  68  93 127 180 229 281 347 411
#     4   9  19  38  64  92 125 173 220 273 342 401
#     4  11  20  36  59  92 126 169 217 267 331 403
#     4  12  24  45  66  98 137 171 228 284 341 412
#
# _framework density 21.259512999999998
#
# number of rings (size 3 to 8) (size 9 to 14) (size 15 to 20)
#    0.000    1.143    2.857    6.857    0.000    1.143 
#    0.000    2.143    0.000    0.000    0.000    0.000 
#    0.000    0.000    0.000    0.000    0.000    0.000 
#
# Total GULP energy -312923.163135 kJ/mol
# GULP energy per Si atom -5587.913627 kJ/mol
# Density = 2.121113 g / cm^3
# Si number density = 21.259513 Si / 1000 Ang^3
#
#
#
# Elastic Constant Matrix: (Units=GPa)
#
#
# Indices 1 2 3 4 5 6 
#
# 1 37.4648 3.0405 13.2361 0.0000 0.0000 0.0000
# 2 3.0405 116.3897 13.5479 0.0000 0.0000 0.0000
# 3 13.2361 13.5479 62.3822 0.0000 0.0000 0.0000
# 4 0.0000 0.0000 0.0000 28.9520 0.0000 0.0000
# 5 0.0000 0.0000 0.0000 0.0000 29.4046 0.0000
# 6 0.0000 0.0000 0.0000 0.0000 0.0000 28.3759
#
#
#
# Elastic Compliance Matrix: (Units=1/GPa)
#
#
# Indices 1 2 3 4 5 6 
#
# 1 0.028855 -0.000042 -0.006113 0.000000 0.000000 0.000000
# 2 -0.000042 0.008815 -0.001905 0.000000 0.000000 0.000000
# 3 -0.006113 -0.001905 0.017741 0.000000 0.000000 0.000000
# 4 0.000000 0.000000 0.000000 0.034540 0.000000 0.000000
# 5 0.000000 0.000000 0.000000 0.000000 0.034008 0.000000
# 6 0.000000 0.000000 0.000000 0.000000 0.000000 0.035241
#
#
# Mechanical properties :
#
#
# Convention : Reuss Voigt Hill
#
# Bulk Modulus (GPa) = 25.45236 30.65399 28.05317
# Shear Modulus (GPa) = 26.53672 29.77397 28.15535
#
# Velocity S-wave (km/s) = 3.53686 3.74639 3.64313
# Velocity P-wave (km/s) = 5.35513 5.75883 5.56064
#
# Compressibility (1/GPa) = 0.03928909
#
# Stress axis : x y z
#
# Youngs Moduli (GPa) = 34.65617 113.44665 56.36622
#
# Poissons Ratio (x) = 0.00479 0.34458
# Poissons Ratio (y) = 0.00146 0.10740
# Poissons Ratio (z) = 0.21186 0.21616
#
# Static dielectric constant tensor:
#      x y z
#    x 1.857610 0.000000 0.000000 
#    y 0.000000 1.816670 0.000000 
#    z 0.000000 0.000000 1.797540 
# 
# From -- ./inp_files/17221.got.cif
#   From: 2010.05.17/outbox.cif.g08.bks.cpg/sg62_9_cif.got.tgz:17221.got - 2010.06.03 15:25:27.
