data_PCOD9464108
_publ_section_title
;
Structure prediction by ZEFSAII (Michael W. Deem and Ramdas Pophale) SiO2 
 PCOD9464108
Probable space group: P N M A
;
_chemical_formula_sum "Si O2"
_cell_formula_units_Z 48
_cell_length_a 5.526134
_cell_length_b 15.702335
_cell_length_c 25.337903
_cell_angle_alpha 90.000000
_cell_angle_beta 90.000000
_cell_angle_gamma 90.000000
_cell_volume 2198.651110
_symmetry_space_group_name_H-M "P N M A"
_symmetry_group_IT_number 62
_symmetry_cell_setting 'orthorhombic'
loop_
_space_group_symop_operation_xyz
x,y,z
1/2-x,-y,1/2+z
1/2+x,1/2-y,1/2-z
-x,1/2+y,-z
-x,-y,-z
1/2+x,y,1/2-z
1/2-x,1/2+y,1/2+z
x,1/2-y,z
loop_
_atom_site_type_symbol
_atom_site_label
_atom_site_fract_x
_atom_site_fract_y
_atom_site_fract_z
Si Si1 0.118115 0.348628 0.527965
Si Si2 0.751312 0.015332 0.765679
Si Si3 0.398139 0.941482 0.452308
Si Si4 0.267879 0.154714 0.307272
Si Si5 0.024880 0.656527 0.584999
Si Si6 0.107157 0.050173 0.128240
O O1 0.072545 0.250000 0.541055
O O2 0.867821 0.400605 0.539051
O O3 0.369823 0.378321 0.553985
O O4 0.155155 0.353708 0.463962
O O5 0.505630 0.057946 0.747572
O O6 0.766679 0.923648 0.733340
O O7 0.750310 0.002139 0.827974
O O8 0.500000 0.000000 0.500000
O O9 0.394383 0.997107 0.398482
O O10 0.272725 0.250000 0.283921
O O11 0.079689 0.154291 0.355829
O O12 0.509932 0.131233 0.339236
O O13 0.137423 0.750000 0.577140
O O14 0.220015 0.583122 0.582927
#
# Coordination Sequence:
#
# PCOD9464108 Si02
#       6
#     8   8   8   8   8   8
#     4  11  25  43  62  89 122 162 207 255 307 371
#     4  10  21  35  52  75 113 154 194 241 278 340
#     4  12  24  39  66  88 123 158 206 257 314 355
#     4  10  21  35  53  79 120 169 205 238 284 350
#     4  10  20  34  54  79 116 162 202 241 289 350
#     4  11  22  35  55  81 117 153 210 244 296 340
#
# _framework density 21.831565999999999
#
# number of rings (size 3 to 8) (size 9 to 14) (size 15 to 20)
#    0.000    1.333    3.333    2.500    2.333    3.333 
#    0.000    0.000    0.000    0.000    0.000    0.000 
#    0.000   53.333    0.000    0.000    0.000    0.000 
#
# Total GULP energy -267682.935610 kJ/mol
# GULP energy per Si atom -5576.727825 kJ/mol
# Density = 2.178188 g / cm^3
# Si number density = 21.831566 Si / 1000 Ang^3
#
#
#
# Elastic Constant Matrix: (Units=GPa)
#
#
# Indices 1 2 3 4 5 6 
#
# 1 119.5896 22.3745 4.8164 0.0000 0.0000 0.0000
# 2 22.3745 39.0263 8.7656 0.0000 0.0000 0.0000
# 3 4.8164 8.7656 57.6129 0.0000 0.0000 0.0000
# 4 0.0000 0.0000 0.0000 19.1193 0.0000 0.0000
# 5 0.0000 0.0000 0.0000 0.0000 38.3106 0.0000
# 6 0.0000 0.0000 0.0000 0.0000 0.0000 30.6442
#
#
#
# Elastic Compliance Matrix: (Units=1/GPa)
#
#
# Indices 1 2 3 4 5 6 
#
# 1 0.009367 -0.005378 0.000035 0.000000 0.000000 0.000000
# 2 -0.005378 0.029618 -0.004057 0.000000 0.000000 0.000000
# 3 0.000035 -0.004057 0.017972 0.000000 0.000000 0.000000
# 4 0.000000 0.000000 0.000000 0.052303 0.000000 0.000000
# 5 0.000000 0.000000 0.000000 0.000000 0.026102 0.000000
# 6 0.000000 0.000000 0.000000 0.000000 0.000000 0.032633
#
#
# Mechanical properties :
#
#
# Convention : Reuss Voigt Hill
#
# Bulk Modulus (GPa) = 26.20724 32.01574 29.11149
# Shear Modulus (GPa) = 25.06104 29.63297 27.34701
#
# Velocity S-wave (km/s) = 3.39178 3.68821 3.54310
# Velocity P-wave (km/s) = 5.23156 5.73009 5.48649
#
# Compressibility (1/GPa) = 0.03815740
#
# Stress axis : x y z
#
# Youngs Moduli (GPa) = 106.76109 33.76296 55.64362
#
# Poissons Ratio (x) = 0.18158 -0.00196
# Poissons Ratio (y) = 0.57416 0.22573
# Poissons Ratio (z) = -0.00376 0.13697
#
# Static dielectric constant tensor:
#      x y z
#    x 1.921490 0.000000 0.000000 
#    y 0.000000 1.831910 0.000000 
#    z 0.000000 0.000000 1.798960 
# 
# From -- ./inp_files/30408.got.cif
#   From: 2010.05.17/outbox.cif.g08.bks.cpg/sg62_16_cif.got.tgz:30408.got - 2010.06.03 15:25:27.
