data_PCOD9464838
_publ_section_title
;
Structure prediction by ZEFSAII (Michael W. Deem and Ramdas Pophale) SiO2 
 PCOD9464838
Probable space group: P N M A
;
_chemical_formula_sum "Si O2"
_cell_formula_units_Z 64
_cell_length_a 5.470347
_cell_length_b 16.437704
_cell_length_c 30.802260
_cell_angle_alpha 90.000000
_cell_angle_beta 90.000000
_cell_angle_gamma 90.000000
_cell_volume 2769.737518
_symmetry_space_group_name_H-M "P N M A"
_symmetry_group_IT_number 62
_symmetry_cell_setting 'orthorhombic'
loop_
_space_group_symop_operation_xyz
x,y,z
1/2-x,-y,1/2+z
1/2+x,1/2-y,1/2-z
-x,1/2+y,-z
-x,-y,-z
1/2+x,y,1/2-z
1/2-x,1/2+y,1/2+z
x,1/2-y,z
loop_
_atom_site_type_symbol
_atom_site_label
_atom_site_fract_x
_atom_site_fract_y
_atom_site_fract_z
Si Si1 0.941573 0.844961 0.887560
Si Si2 0.461580 0.916425 0.853292
Si Si3 0.006117 0.343899 0.872541
Si Si4 0.125263 0.532074 0.420636
Si Si5 0.067822 0.911666 0.224336
Si Si6 0.938519 0.418678 0.026400
Si Si7 0.933298 0.908408 0.744828
Si Si8 0.672303 0.336136 0.954922
O O1 0.989353 0.750000 0.893728
O O2 0.190668 0.882589 0.866395
O O3 0.893554 0.885570 0.934971
O O4 0.693468 0.857753 0.860230
O O5 0.440629 0.941399 0.803834
O O6 0.530369 0.995538 0.881526
O O7 0.104524 0.250000 0.870324
O O8 0.178448 0.410209 0.896468
O O9 0.945763 0.375138 0.824162
O O10 0.781178 0.338494 0.906399
O O11 0.212238 0.451685 0.445415
O O12 0.003091 0.587828 0.456459
O O13 0.820077 0.887809 0.250877
O O14 0.067180 0.011043 0.224959
O O15 0.876527 0.350804 0.991157
O O16 0.000000 0.500000 0.000000
O O17 0.182588 0.860926 0.751145
O O18 0.548123 0.250000 0.962144
#
# Coordination Sequence:
#
# PCOD9464838 Si02
#       8
#     8   8   8   8   8   8   8   8
#     4  11  25  46  71 103 143 183 224 280 348 417
#     4  11  24  41  73 104 135 180 232 285 338 410
#     4  11  25  42  63  95 136 183 226 276 347 408
#     4  11  23  40  68  94 132 179 231 287 334 400
#     4  10  23  40  63  92 130 173 222 277 329 396
#     4  11  22  43  66  99 132 175 234 285 336 402
#     4  10  20  36  63  98 131 165 221 278 335 392
#     4  11  24  41  63  94 136 180 224 282 349 411
#
# _framework density 23.106881999999999
#
# number of rings (size 3 to 8) (size 9 to 14) (size 15 to 20)
#    0.000    1.250    1.250    4.500    7.000    1.500 
#    0.000    2.500    0.000    7.500    0.000    0.000 
#    0.000    0.000    0.000    0.000    0.000    0.000 
#
# Total GULP energy -357022.014944 kJ/mol
# GULP energy per Si atom -5578.468984 kJ/mol
# Density = 2.305429 g / cm^3
# Si number density = 23.106882 Si / 1000 Ang^3
#
#
#
# Elastic Constant Matrix: (Units=GPa)
#
#
# Indices 1 2 3 4 5 6 
#
# 1 115.7839 1.9431 26.6747 0.0000 0.0000 0.0000
# 2 1.9431 70.8324 6.1013 0.0000 0.0000 0.0000
# 3 26.6747 6.1013 94.3871 0.0000 0.0000 0.0000
# 4 0.0000 0.0000 0.0000 -22.5082 0.0000 0.0000
# 5 0.0000 0.0000 0.0000 0.0000 26.0877 0.0000
# 6 0.0000 0.0000 0.0000 0.0000 0.0000 16.2370
#
#
#
# Elastic Compliance Matrix: (Units=1/GPa)
#
#
# Indices 1 2 3 4 5 6 
#
# 1 0.009238 -0.000029 -0.002609 0.000000 0.000000 0.000000
# 2 -0.000029 0.014197 -0.000910 0.000000 0.000000 0.000000
# 3 -0.002609 -0.000910 0.011391 0.000000 0.000000 0.000000
# 4 0.000000 0.000000 0.000000 -0.044428 0.000000 0.000000
# 5 0.000000 0.000000 0.000000 0.000000 0.038332 0.000000
# 6 0.000000 0.000000 0.000000 0.000000 0.000000 0.061588
#
#
# Mechanical properties :
#
#
# Convention : Reuss Voigt Hill
#
# Bulk Modulus (GPa) = 36.06005 38.93794 37.49899
# Shear Modulus (GPa) = 46.87958 20.38226 33.63092
#
# Velocity S-wave (km/s) = 4.50912 2.97322 3.81918
# Velocity P-wave (km/s) = 6.53829 5.35486 5.97594
#
# Compressibility (1/GPa) = 0.02773152
#
# Stress axis : x y z
#
# Youngs Moduli (GPa) = 108.24467 70.43761 87.79020
#
# Poissons Ratio (x) = 0.00202 0.22904
# Poissons Ratio (y) = 0.00311 0.07985
# Poissons Ratio (z) = 0.28241 0.06407
#
# Static dielectric constant tensor:
#      x y z
#    x 2.010700 0.000000 0.000000 
#    y 0.000000 1.958090 0.000000 
#    z 0.000000 0.000000 1.959650 
# 
# From -- ./inp_files/31699.got.cif
#   From: 2010.05.17/outbox.cif.g08.bks.cpg/sg62_16_cif.got.tgz:31699.got - 2010.06.03 15:25:27.
