data_PCOD9464700
_publ_section_title
;
Structure prediction by ZEFSAII (Michael W. Deem and Ramdas Pophale) SiO2 
 PCOD9464700
Probable space group: P N M A
;
_chemical_formula_sum "Si O2"
_cell_formula_units_Z 64
_cell_length_a 15.654542
_cell_length_b 27.499037
_cell_length_c 7.258667
_cell_angle_alpha 90.000000
_cell_angle_beta 90.000000
_cell_angle_gamma 90.000000
_cell_volume 3124.746027
_symmetry_space_group_name_H-M "P N M A"
_symmetry_group_IT_number 62
_symmetry_cell_setting 'orthorhombic'
loop_
_space_group_symop_operation_xyz
x,y,z
1/2-x,-y,1/2+z
1/2+x,1/2-y,1/2-z
-x,1/2+y,-z
-x,-y,-z
1/2+x,y,1/2-z
1/2-x,1/2+y,1/2+z
x,1/2-y,z
loop_
_atom_site_type_symbol
_atom_site_label
_atom_site_fract_x
_atom_site_fract_y
_atom_site_fract_z
Si Si1 0.818641 0.437879 0.609278
Si Si2 0.055485 0.691539 0.083368
Si Si3 0.468626 0.632881 0.730917
Si Si4 0.996092 0.557422 0.475075
Si Si5 0.758328 0.192379 0.988306
Si Si6 0.275405 0.617304 0.702575
Si Si7 0.573160 0.191933 0.904978
Si Si8 0.196274 0.452585 0.544813
O O1 0.781082 0.398079 0.469466
O O2 0.809276 0.490245 0.505033
O O3 0.763381 0.441851 0.794412
O O4 0.919739 0.428804 0.639679
O O5 0.045405 0.750000 0.048037
O O6 0.991349 0.677754 0.245480
O O7 0.155035 0.682320 0.121005
O O8 0.030006 0.659305 0.909513
O O9 0.374510 0.624463 0.646835
O O10 0.502202 0.583711 0.825976
O O11 0.454452 0.668000 0.904994
O O12 0.899525 0.566616 0.404675
O O13 0.000000 0.500000 0.500000
O O14 0.755347 0.250000 0.024473
O O15 0.755836 0.164046 0.182087
O O16 0.672581 0.178758 0.878437
O O17 0.277070 0.575151 0.858307
O O18 0.568509 0.250000 0.920809
#
# Coordination Sequence:
#
# PCOD9464700 Si02
#       8
#     8   8   8   8   8   8   8   8
#     4  11  20  39  62  82 117 152 192 241 294 347
#     4  10  20  36  61  88 116 155 201 241 290 353
#     4  10  20  36  58  83 118 152 196 238 290 351
#     4   9  21  38  58  84 117 151 190 243 290 342
#     4   9  19  37  59  87 122 155 196 244 290 347
#     4  10  21  36  60  86 115 159 191 237 298 346
#     4   9  19  36  57  83 119 152 185 241 295 338
#     4  10  21  38  59  86 117 149 195 241 289 349
#
# _framework density 20.481663999999999
#
# number of rings (size 3 to 8) (size 9 to 14) (size 15 to 20)
#    0.000    2.250    1.250    1.125    0.000    4.500 
#    0.000    5.625    0.000    8.250    0.000    0.000 
#    0.000    0.000    0.000    0.000    0.000    0.000 
#
# Total GULP energy -357352.341700 kJ/mol
# GULP energy per Si atom -5583.630339 kJ/mol
# Density = 2.043505 g / cm^3
# Si number density = 20.481664 Si / 1000 Ang^3
#
#
#
# Elastic Constant Matrix: (Units=GPa)
#
#
# Indices 1 2 3 4 5 6 
#
# 1 99.6653 45.4704 43.7863 0.0000 0.0000 0.0000
# 2 45.4704 56.4962 21.0450 0.0000 0.0000 0.0000
# 3 43.7863 21.0450 44.4607 0.0000 0.0000 0.0000
# 4 0.0000 0.0000 0.0000 24.5176 0.0000 0.0000
# 5 0.0000 0.0000 0.0000 0.0000 21.9180 0.0000
# 6 0.0000 0.0000 0.0000 0.0000 0.0000 -899.2464
#
#
#
# Elastic Compliance Matrix: (Units=1/GPa)
#
#
# Indices 1 2 3 4 5 6 
#
# 1 0.023049 -0.012256 -0.016898 0.000000 0.000000 0.000000
# 2 -0.012256 0.028007 -0.001186 0.000000 0.000000 0.000000
# 3 -0.016898 -0.001186 0.039695 0.000000 0.000000 0.000000
# 4 0.000000 0.000000 0.000000 0.040787 0.000000 0.000000
# 5 0.000000 0.000000 0.000000 0.000000 0.045625 0.000000
# 6 0.000000 0.000000 0.000000 0.000000 0.000000 -0.001112
#
#
# Mechanical properties :
#
#
# Convention : Reuss Voigt Hill
#
# Bulk Modulus (GPa) = 33.25634 46.80282 40.02958
# Shear Modulus (GPa) = 20.26300 -164.54079 -72.13889
#
# Velocity S-wave (km/s) = 3.14876 -8.97274 -5.94118
# Velocity P-wave (km/s) = 5.43065 9.18945 5.24185
#
# Compressibility (1/GPa) = 0.03006946
#
# Stress axis : x y z
#
# Youngs Moduli (GPa) = 43.38540 35.70594 25.19200
#
# Poissons Ratio (x) = 0.43762 0.42570
# Poissons Ratio (y) = 0.53174 0.02988
# Poissons Ratio (z) = 0.73314 0.04236
#
# Static dielectric constant tensor:
#      x y z
#    x 1.770460 0.000000 0.000000 
#    y 0.000000 1.737930 0.000000 
#    z 0.000000 0.000000 1.662840 
# 
# From -- ./inp_files/1885.got.cif
#   From: 2010.05.17/outbox.cif.g08.bks.cpg/sg62_1_cif.got.tgz:1885.got - 2010.06.03 15:25:27.
