data_PCOD9464349
_publ_section_title
;
Structure prediction by ZEFSAII (Michael W. Deem and Ramdas Pophale) SiO2 
 PCOD9464349
Probable space group: P N M A
;
_chemical_formula_sum "Si O2"
_cell_formula_units_Z 64
_cell_length_a 25.084620
_cell_length_b 8.783527
_cell_length_c 15.694105
_cell_angle_alpha 90.000000
_cell_angle_beta 90.000000
_cell_angle_gamma 90.000000
_cell_volume 3457.904708
_symmetry_space_group_name_H-M "P N M A"
_symmetry_group_IT_number 62
_symmetry_cell_setting 'orthorhombic'
loop_
_space_group_symop_operation_xyz
x,y,z
1/2-x,-y,1/2+z
1/2+x,1/2-y,1/2-z
-x,1/2+y,-z
-x,-y,-z
1/2+x,y,1/2-z
1/2-x,1/2+y,1/2+z
x,1/2-y,z
loop_
_atom_site_type_symbol
_atom_site_label
_atom_site_fract_x
_atom_site_fract_y
_atom_site_fract_z
Si Si1 0.960489 0.568266 0.122145
Si Si2 0.957006 0.432384 0.301696
Si Si3 0.686898 0.566539 0.196658
Si Si4 0.692593 0.933408 0.385357
Si Si5 0.074761 0.068017 0.356600
Si Si6 0.777846 0.067401 0.512528
Si Si7 0.924301 0.432767 0.947747
Si Si8 0.389614 0.931430 0.045000
O O1 0.957312 0.750000 0.129565
O O2 0.941619 0.490535 0.208497
O O3 0.022480 0.524713 0.104376
O O4 0.928823 0.512054 0.039319
O O5 0.955299 0.250000 0.305595
O O6 0.919604 0.500776 0.374326
O O7 0.018127 0.482211 0.319784
O O8 0.686401 0.750000 0.197181
O O9 0.707483 0.516263 0.289295
O O10 0.626192 0.511011 0.184209
O O11 0.719141 0.517483 0.112124
O O12 0.697824 0.750000 0.389704
O O13 0.630625 0.971780 0.401514
O O14 0.728741 0.004896 0.458519
O O15 0.079887 0.250000 0.344583
O O16 0.077606 0.037748 0.457967
O O17 0.777692 0.250000 0.510831
O O18 0.831983 0.005606 0.469837
O O19 0.925943 0.250000 0.959559
O O20 0.383800 0.750000 0.053646
#
# Coordination Sequence:
#
# PCOD9464349 Si02
#       8
#     8   8   8   8   8   8   8   8
#     4  10  20  35  55  80 111 147 183 221 274 332
#     4  11  21  33  51  80 114 146 181 222 271 328
#     4   9  19  36  58  82 109 142 182 229 279 329
#     4  10  20  37  60  83 108 145 187 231 281 331
#     4   9  19  33  53  81 111 142 180 226 273 323
#     4  10  21  38  57  81 111 144 183 233 282 328
#     4   9  19  36  57  80 108 142 182 229 279 328
#     4  10  20  36  55  76 107 146 184 224 273 328
#
# _framework density 18.508319
#
# number of rings (size 3 to 8) (size 9 to 14) (size 15 to 20)
#    0.000    2.250    0.000    2.625    0.000    4.500 
#    2.250    0.000    0.000    0.000    0.000    0.000 
#    0.000    0.000    0.000    0.000    0.000    0.000 
#
# Total GULP energy -357271.926877 kJ/mol
# GULP energy per Si atom -5582.373857 kJ/mol
# Density = 1.846619 g / cm^3
# Si number density = 18.508319 Si / 1000 Ang^3
#
#
#
# Elastic Constant Matrix: (Units=GPa)
#
#
# Indices 1 2 3 4 5 6 
#
# 1 39.3825 15.8007 50.1930 0.0000 0.0000 0.0000
# 2 15.8007 22.3406 38.9997 0.0000 0.0000 0.0000
# 3 50.1930 38.9997 131.2339 0.0000 0.0000 0.0000
# 4 0.0000 0.0000 0.0000 26.2725 0.0000 0.0000
# 5 0.0000 0.0000 0.0000 0.0000 16.1252 0.0000
# 6 0.0000 0.0000 0.0000 0.0000 0.0000 30.3111
#
#
#
# Elastic Compliance Matrix: (Units=1/GPa)
#
#
# Indices 1 2 3 4 5 6 
#
# 1 0.049721 -0.004091 -0.017801 0.000000 0.000000 0.000000
# 2 -0.004091 0.093353 -0.026178 0.000000 0.000000 0.000000
# 3 -0.017801 -0.026178 0.022208 0.000000 0.000000 0.000000
# 4 0.000000 0.000000 0.000000 0.038063 0.000000 0.000000
# 5 0.000000 0.000000 0.000000 0.000000 0.062015 0.000000
# 6 0.000000 0.000000 0.000000 0.000000 0.000000 0.032991
#
#
# Mechanical properties :
#
#
# Convention : Reuss Voigt Hill
#
# Bulk Modulus (GPa) = 14.46291 44.77154 29.61722
# Shear Modulus (GPa) = 11.97502 20.40601 16.19051
#
# Velocity S-wave (km/s) = 2.54639 3.32404 2.96086
# Velocity P-wave (km/s) = 4.05915 6.24298 5.26553
#
# Compressibility (1/GPa) = 0.06914239
#
# Stress axis : x y z
#
# Youngs Moduli (GPa) = 20.11238 10.71206 45.02934
#
# Poissons Ratio (x) = 0.04382 0.80157
# Poissons Ratio (y) = 0.08227 1.17877
# Poissons Ratio (z) = 0.35802 0.28042
#
# Static dielectric constant tensor:
#      x y z
#    x 1.612920 0.000000 0.000000 
#    y 0.000000 1.614620 0.000000 
#    z 0.000000 0.000000 1.637680 
# 
# From -- ./inp_files/20970.got.cif
#   From: 2010.05.17/outbox.cif.g08.bks.cpg/sg62_11_cif.got.tgz:20970.got - 2010.06.03 15:25:27.
