data_PCOD9464001
_publ_section_title
;
Structure prediction by ZEFSAII (Michael W. Deem and Ramdas Pophale) SiO2 
 PCOD9464001
Probable space group: P N M A
;
_chemical_formula_sum "Si O2"
_cell_formula_units_Z 48
_cell_length_a 26.492642
_cell_length_b 15.418713
_cell_length_c 5.170154
_cell_angle_alpha 90.000000
_cell_angle_beta 90.000000
_cell_angle_gamma 90.000000
_cell_volume 2111.917140
_symmetry_space_group_name_H-M "P N M A"
_symmetry_group_IT_number 62
_symmetry_cell_setting 'orthorhombic'
loop_
_space_group_symop_operation_xyz
x,y,z
1/2-x,-y,1/2+z
1/2+x,1/2-y,1/2-z
-x,1/2+y,-z
-x,-y,-z
1/2+x,y,1/2-z
1/2-x,1/2+y,1/2+z
x,1/2-y,z
loop_
_atom_site_type_symbol
_atom_site_label
_atom_site_fract_x
_atom_site_fract_y
_atom_site_fract_z
Si Si1 0.595405 0.343684 0.865758
Si Si2 0.371316 0.996004 0.440627
Si Si3 0.682965 0.154893 0.236706
Si Si4 0.507370 0.112695 0.229394
Si Si5 0.455747 0.085681 0.728650
Si Si6 0.770400 0.045555 0.302241
O O1 0.586735 0.250000 0.737214
O O2 0.589503 0.434112 0.714793
O O3 0.653272 0.346201 0.965478
O O4 0.558199 0.346738 0.112323
O O5 0.342352 0.923758 0.609012
O O6 0.400480 0.064883 0.616843
O O7 0.329527 0.039548 0.257682
O O8 0.674100 0.250000 0.349427
O O9 0.742075 0.134437 0.231700
O O10 0.486548 0.137579 0.509190
O O11 0.520756 0.010870 0.248831
O O12 0.464563 0.125691 0.009927
O O13 0.743097 0.980374 0.095720
#
# Coordination Sequence:
#
# PCOD9464001 Si02
#       6
#     8   8   8   8   8   8
#     4  11  21  34  54  82 117 152 184 232 292 343
#     4  11  20  35  58  85 112 149 194 242 280 340
#     4  10  21  36  54  83 117 150 182 234 294 346
#     4  10  20  35  50  82 111 145 180 225 282 336
#     4  10  20  33  56  77 111 142 185 233 275 330
#     4  10  21  37  56  81 112 147 187 235 283 338
#
# _framework density 22.728165000000001
#
# number of rings (size 3 to 8) (size 9 to 14) (size 15 to 20)
#    0.000    1.667    3.333    3.500    0.000    0.000 
#    0.000    0.000    0.000    2.000    0.000    0.000 
#    0.000    0.000    0.000    0.000    0.000    0.000 
#
# Total GULP energy -267898.723846 kJ/mol
# GULP energy per Si atom -5581.223413 kJ/mol
# Density = 2.267643 g / cm^3
# Si number density = 22.728165 Si / 1000 Ang^3
#
#
#
# Elastic Constant Matrix: (Units=GPa)
#
#
# Indices 1 2 3 4 5 6 
#
# 1 95.1508 32.8361 16.0943 0.0000 0.0000 0.0000
# 2 32.8361 40.9370 9.6278 0.0000 0.0000 0.0000
# 3 16.0943 9.6278 79.9241 0.0000 0.0000 0.0000
# 4 0.0000 0.0000 0.0000 3.1133 0.0000 0.0000
# 5 0.0000 0.0000 0.0000 0.0000 37.3113 0.0000
# 6 0.0000 0.0000 0.0000 0.0000 0.0000 -12.3434
#
#
#
# Elastic Compliance Matrix: (Units=1/GPa)
#
#
# Indices 1 2 3 4 5 6 
#
# 1 0.014725 -0.011438 -0.001587 0.000000 0.000000 0.000000
# 2 -0.011438 0.034025 -0.001795 0.000000 0.000000 0.000000
# 3 -0.001587 -0.001795 0.013048 0.000000 0.000000 0.000000
# 4 0.000000 0.000000 0.000000 0.321205 0.000000 0.000000
# 5 0.000000 0.000000 0.000000 0.000000 0.026802 0.000000
# 6 0.000000 0.000000 0.000000 0.000000 0.000000 -0.081015
#
#
# Mechanical properties :
#
#
# Convention : Reuss Voigt Hill
#
# Bulk Modulus (GPa) = 31.09829 37.01425 34.05627
# Shear Modulus (GPa) = 13.54463 16.11313 14.82888
#
# Velocity S-wave (km/s) = 2.44384 2.66550 2.55707
# Velocity P-wave (km/s) = 4.65570 5.07880 4.87184
#
# Compressibility (1/GPa) = 0.03215611
#
# Stress axis : x y z
#
# Youngs Moduli (GPa) = 67.91009 29.39046 76.64125
#
# Poissons Ratio (x) = 0.33617 0.12166
# Poissons Ratio (y) = 0.77676 0.13760
# Poissons Ratio (z) = 0.10780 0.05277
#
# Static dielectric constant tensor:
#      x y z
#    x 1.915090 0.000000 0.000000 
#    y 0.000000 1.883700 0.000000 
#    z 0.000000 0.000000 1.947540 
# 
# From -- ./inp_files/3234.got.cif
#   From: 2010.05.17/outbox.cif.g08.bks.cpg/sg62_2_cif.got.tgz:3234.got - 2010.06.03 15:25:27.
