data_PCOD9464227
_publ_section_title
;
Structure prediction by ZEFSAII (Michael W. Deem and Ramdas Pophale) SiO2 
 PCOD9464227
Probable space group: P N M A
;
_chemical_formula_sum "Si O2"
_cell_formula_units_Z 48
_cell_length_a 30.398259
_cell_length_b 8.472313
_cell_length_c 10.437291
_cell_angle_alpha 90.000000
_cell_angle_beta 90.000000
_cell_angle_gamma 90.000000
_cell_volume 2688.057132
_symmetry_space_group_name_H-M "P N M A"
_symmetry_group_IT_number 62
_symmetry_cell_setting 'orthorhombic'
loop_
_space_group_symop_operation_xyz
x,y,z
1/2-x,-y,1/2+z
1/2+x,1/2-y,1/2-z
-x,1/2+y,-z
-x,-y,-z
1/2+x,y,1/2-z
1/2-x,1/2+y,1/2+z
x,1/2-y,z
loop_
_atom_site_type_symbol
_atom_site_label
_atom_site_fract_x
_atom_site_fract_y
_atom_site_fract_z
Si Si1 0.473557 0.059992 0.876436
Si Si2 0.713355 0.061119 0.719579
Si Si3 0.616483 0.940496 0.722148
Si Si4 0.476603 0.060989 0.373443
Si Si5 0.117558 0.941218 0.480715
Si Si6 0.783516 0.058837 0.507802
O O1 0.474371 0.250000 0.875198
O O2 0.496568 0.996442 0.749900
O O3 0.422836 0.005865 0.893189
O O4 0.500000 0.000000 0.000000
O O5 0.715402 0.250000 0.725227
O O6 0.747418 0.005518 0.610676
O O7 0.663682 0.009704 0.686010
O O8 0.723859 0.996518 0.861843
O O9 0.619753 0.750000 0.716819
O O10 0.574227 0.992292 0.641252
O O11 0.608098 0.983746 0.871181
O O12 0.476086 0.250000 0.373772
O O13 0.500000 0.000000 0.500000
O O14 0.117978 0.750000 0.475211
O O15 0.167191 0.994470 0.452201
O O16 0.783416 0.250000 0.506004
#
# Coordination Sequence:
#
# PCOD9464227 Si02
#       6
#     8   8   8   8   8   8
#     4  11  20  34  58  85 112 144 184 227 268 324
#     4  10  20  34  57  85 109 139 182 229 270 318
#     4   9  18  36  58  77 107 149 183 217 273 337
#     4  11  23  40  57  80 113 150 187 229 281 335
#     4   8  15  32  56  78 103 141 181 216 264 326
#     4   9  19  37  56  77 111 145 177 221 272 328
#
# _framework density 17.856763000000001
#
# number of rings (size 3 to 8) (size 9 to 14) (size 15 to 20)
#    0.000    2.333    1.667    2.500    0.000    2.667 
#    3.000    0.833    0.000    0.000    0.000    0.000 
#    0.000    0.000    0.000    0.000    0.000    0.000 
#
# Total GULP energy -267710.782938 kJ/mol
# GULP energy per Si atom -5577.307978 kJ/mol
# Density = 1.781612 g / cm^3
# Si number density = 17.856763 Si / 1000 Ang^3
#
#
#
# Elastic Constant Matrix: (Units=GPa)
#
#
# Indices 1 2 3 4 5 6 
#
# 1 182.1931 30.2291 105.1585 0.0000 0.0000 0.0000
# 2 30.2291 29.1067 24.3388 0.0000 0.0000 0.0000
# 3 105.1585 24.3388 125.2600 0.0000 0.0000 0.0000
# 4 0.0000 0.0000 0.0000 29.3699 0.0000 0.0000
# 5 0.0000 0.0000 0.0000 0.0000 37.4382 0.0000
# 6 0.0000 0.0000 0.0000 0.0000 0.0000 27.0086
#
#
#
# Elastic Compliance Matrix: (Units=1/GPa)
#
#
# Indices 1 2 3 4 5 6 
#
# 1 0.011114 -0.004466 -0.008463 0.000000 0.000000 0.000000
# 2 -0.004466 0.042816 -0.004570 0.000000 0.000000 0.000000
# 3 -0.008463 -0.004570 0.015976 0.000000 0.000000 0.000000
# 4 0.000000 0.000000 0.000000 0.034048 0.000000 0.000000
# 5 0.000000 0.000000 0.000000 0.000000 0.026711 0.000000
# 6 0.000000 0.000000 0.000000 0.000000 0.000000 0.037025
#
#
# Mechanical properties :
#
#
# Convention : Reuss Voigt Hill
#
# Bulk Modulus (GPa) = 28.64634 72.89030 50.76832
# Shear Modulus (GPa) = 23.32899 30.55221 26.94060
#
# Velocity S-wave (km/s) = 3.61841 4.14086 3.88842
# Velocity P-wave (km/s) = 5.79088 7.98564 6.97512
#
# Compressibility (1/GPa) = 0.03490847
#
# Stress axis : x y z
#
# Youngs Moduli (GPa) = 89.97363 23.35564 62.59324
#
# Poissons Ratio (x) = 0.10431 0.52972
# Poissons Ratio (y) = 0.40185 0.28605
# Poissons Ratio (z) = 0.76144 0.10673
#
# Static dielectric constant tensor:
#      x y z
#    x 1.632550 0.000000 0.000000 
#    y 0.000000 1.616960 0.000000 
#    z 0.000000 0.000000 1.574110 
# 
# From -- ./inp_files/10270.got.cif
#   From: 2010.05.17/outbox.cif.g08.bks.cpg/sg62_6_cif.got.tgz:10270.got - 2010.06.03 15:25:27.
