data_PCOD9464383
_publ_section_title
;
Structure prediction by ZEFSAII (Michael W. Deem and Ramdas Pophale) SiO2 
 PCOD9464383
Probable space group: P N M A
;
_chemical_formula_sum "Si O2"
_cell_formula_units_Z 64
_cell_length_a 19.948322
_cell_length_b 7.798520
_cell_length_c 20.688675
_cell_angle_alpha 90.000000
_cell_angle_beta 90.000000
_cell_angle_gamma 90.000000
_cell_volume 3218.483133
_symmetry_space_group_name_H-M "P N M A"
_symmetry_group_IT_number 62
_symmetry_cell_setting 'orthorhombic'
loop_
_space_group_symop_operation_xyz
x,y,z
1/2-x,-y,1/2+z
1/2+x,1/2-y,1/2-z
-x,1/2+y,-z
-x,-y,-z
1/2+x,y,1/2-z
1/2-x,1/2+y,1/2+z
x,1/2-y,z
loop_
_atom_site_type_symbol
_atom_site_label
_atom_site_fract_x
_atom_site_fract_y
_atom_site_fract_z
Si Si1 0.762189 0.541486 0.210116
Si Si2 0.772541 0.546897 0.354566
Si Si3 0.421818 0.452362 0.172141
Si Si4 0.064471 0.542762 0.957370
Si Si5 0.586614 0.548835 0.684670
Si Si6 0.031714 0.545345 0.431445
Si Si7 0.794830 0.045044 0.984342
Si Si8 0.681700 0.957263 0.088276
O O1 0.767315 0.750000 0.210822
O O2 0.752549 0.480206 0.283569
O O3 0.832890 0.471264 0.184250
O O4 0.705097 0.491622 0.159891
O O5 0.759640 0.750000 0.353668
O O6 0.852993 0.524276 0.358202
O O7 0.732794 0.474730 0.415980
O O8 0.409651 0.250000 0.178800
O O9 0.433169 0.524132 0.244826
O O10 0.484108 0.480841 0.125627
O O11 0.069653 0.750000 0.953476
O O12 0.059897 0.477010 0.883233
O O13 0.133492 0.478624 0.990451
O O14 0.000000 0.500000 0.000000
O O15 0.568650 0.750000 0.685519
O O16 0.034171 0.750000 0.425860
O O17 0.107558 0.478391 0.427334
O O18 0.000000 0.500000 0.500000
O O19 0.802381 0.250000 0.977236
O O20 0.737536 0.014601 0.037433
O O21 0.680773 0.750000 0.085963
#
# Coordination Sequence:
#
# PCOD9464383 Si02
#       8
#     8   8   8   8   8   8   8   8
#     4   9  17  32  54  78 103 132 171 217 265 317
#     4   9  18  33  55  81 108 138 175 220 269 322
#     4  10  20  35  56  81 110 147 185 224 268 320
#     4  10  21  37  55  79 108 140 179 223 271 325
#     4   9  18  35  57  78 106 140 179 221 263 318
#     4  11  23  38  54  79 113 148 185 227 273 325
#     4  10  20  35  56  81 107 138 175 217 268 324
#     4  10  21  35  54  79 106 138 177 223 268 316
#
# _framework density 19.885145000000001
#
# number of rings (size 3 to 8) (size 9 to 14) (size 15 to 20)
#    0.000    2.250    1.250    1.500    0.000    5.000 
#    2.250    0.000    0.000    0.000    0.000    0.000 
#    0.000    0.000    0.000    0.000    0.000    0.000 
#
# Total GULP energy -357112.412277 kJ/mol
# GULP energy per Si atom -5579.881442 kJ/mol
# Density = 1.983989 g / cm^3
# Si number density = 19.885145 Si / 1000 Ang^3
#
#
#
# Elastic Constant Matrix: (Units=GPa)
#
#
# Indices 1 2 3 4 5 6 
#
# 1 128.4287 -14.7519 93.2621 0.0000 0.0000 0.0000
# 2 -14.7519 19.5891 -1.8067 0.0000 0.0000 0.0000
# 3 93.2621 -1.8067 157.9095 0.0000 0.0000 0.0000
# 4 0.0000 0.0000 0.0000 17.1869 0.0000 0.0000
# 5 0.0000 0.0000 0.0000 0.0000 32.6580 0.0000
# 6 0.0000 0.0000 0.0000 0.0000 0.0000 17.0216
#
#
#
# Elastic Compliance Matrix: (Units=1/GPa)
#
#
# Indices 1 2 3 4 5 6 
#
# 1 0.015680 0.010965 -0.009135 0.000000 0.000000 0.000000
# 2 0.010965 0.058771 -0.005804 0.000000 0.000000 0.000000
# 3 -0.009135 -0.005804 0.011661 0.000000 0.000000 0.000000
# 4 0.000000 0.000000 0.000000 0.058184 0.000000 0.000000
# 5 0.000000 0.000000 0.000000 0.000000 0.030620 0.000000
# 6 0.000000 0.000000 0.000000 0.000000 0.000000 0.058749
#
#
# Mechanical properties :
#
#
# Convention : Reuss Voigt Hill
#
# Bulk Modulus (GPa) = 12.79340 51.03715 31.91528
# Shear Modulus (GPa) = 18.67992 28.65490 23.66741
#
# Velocity S-wave (km/s) = 3.06827 3.80020 3.45368
# Velocity P-wave (km/s) = 4.35890 6.70649 5.65584
#
# Compressibility (1/GPa) = 0.07816530
#
# Stress axis : x y z
#
# Youngs Moduli (GPa) = 63.77738 17.01516 85.75240
#
# Poissons Ratio (x) = -0.18658 0.78334
# Poissons Ratio (y) = -0.69934 0.49768
# Poissons Ratio (z) = 0.58260 0.09875
#
# Static dielectric constant tensor:
#      x y z
#    x 1.659530 0.000000 0.000000 
#    y 0.000000 1.750950 0.000000 
#    z 0.000000 0.000000 1.725340 
# 
# From -- ./inp_files/27682.got.cif
#   From: 2010.05.17/outbox.cif.g08.bks.cpg/sg62_14_cif.got.tgz:27682.got - 2010.06.03 15:25:27.
