data_PCOD9464276
_publ_section_title
;
Structure prediction by ZEFSAII (Michael W. Deem and Ramdas Pophale) SiO2 
 PCOD9464276
Probable space group: P N M A
;
_chemical_formula_sum "Si O2"
_cell_formula_units_Z 64
_cell_length_a 5.481835
_cell_length_b 16.870193
_cell_length_c 30.766161
_cell_angle_alpha 90.000000
_cell_angle_beta 90.000000
_cell_angle_gamma 90.000000
_cell_volume 2845.242707
_symmetry_space_group_name_H-M "P N M A"
_symmetry_group_IT_number 62
_symmetry_cell_setting 'orthorhombic'
loop_
_space_group_symop_operation_xyz
x,y,z
1/2-x,-y,1/2+z
1/2+x,1/2-y,1/2-z
-x,1/2+y,-z
-x,-y,-z
1/2+x,y,1/2-z
1/2-x,1/2+y,1/2+z
x,1/2-y,z
loop_
_atom_site_type_symbol
_atom_site_label
_atom_site_fract_x
_atom_site_fract_y
_atom_site_fract_z
Si Si1 0.500302 0.841309 0.131582
Si Si2 0.754380 0.583179 0.960592
Si Si3 0.346817 0.050333 0.410199
Si Si4 0.984963 0.576319 0.454330
Si Si5 0.987138 0.426257 0.849675
Si Si6 0.130327 0.065580 0.756250
Si Si7 0.147964 0.611053 0.725203
Si Si8 0.524215 0.656031 0.872023
O O1 0.488535 0.750000 0.142692
O O2 0.427498 0.858084 0.081262
O O3 0.277795 0.886402 0.156020
O O4 0.781536 0.870291 0.137428
O O5 0.724756 0.486997 0.966085
O O6 0.645494 0.622566 0.916649
O O7 0.038429 0.595836 0.951007
O O8 0.619904 0.611717 0.003761
O O9 0.231655 0.109721 0.375617
O O10 0.161114 0.985983 0.429165
O O11 0.539180 0.996039 0.384441
O O12 0.089397 0.462243 0.805380
O O13 0.883586 0.111193 0.745283
O O14 0.138111 0.985168 0.728367
O O15 0.896344 0.637083 0.749783
O O16 0.142654 0.635605 0.674614
O O17 0.501287 0.750000 0.875143
#
# Coordination Sequence:
#
# PCOD9464276 Si02
#       8
#     8   8   8   8   8   8   8   8
#     4  11  23  41  65  97 136 173 210 265 335 402
#     4  10  20  38  65  90 127 170 220 278 323 385
#     4  10  20  37  65  91 126 171 225 278 327 382
#     4   9  20  37  61  97 126 164 225 272 323 382
#     4  11  22  39  67  98 126 169 221 272 322 390
#     4  10  20  34  61  94 121 151 211 268 320 373
#     4  10  23  41  64  91 125 166 220 276 328 387
#     4  11  26  41  59  94 135 178 220 273 345 408
#
# _framework density 22.493687000000001
#
# number of rings (size 3 to 8) (size 9 to 14) (size 15 to 20)
#    0.000    1.750    1.250    3.000    5.250    1.500 
#    0.000    0.000    0.000    7.500    0.000    0.000 
#    0.000    0.000    0.000    0.000    0.000    0.000 
#
# Total GULP energy -356597.532422 kJ/mol
# GULP energy per Si atom -5571.836444 kJ/mol
# Density = 2.244249 g / cm^3
# Si number density = 22.493687 Si / 1000 Ang^3
#
#
#
# Elastic Constant Matrix: (Units=GPa)
#
#
# Indices 1 2 3 4 5 6 
#
# 1 108.8256 21.9662 7.2456 0.0000 0.0000 0.0000
# 2 21.9662 84.9923 31.1871 0.0000 0.0000 0.0000
# 3 7.2456 31.1871 95.1380 0.0000 0.0000 0.0000
# 4 0.0000 0.0000 0.0000 14.8723 0.0000 0.0000
# 5 0.0000 0.0000 0.0000 0.0000 36.1593 0.0000
# 6 0.0000 0.0000 0.0000 0.0000 0.0000 15.2340
#
#
#
# Elastic Compliance Matrix: (Units=1/GPa)
#
#
# Indices 1 2 3 4 5 6 
#
# 1 0.009696 -0.002540 0.000094 0.000000 0.000000 0.000000
# 2 -0.002540 0.014040 -0.004409 0.000000 0.000000 0.000000
# 3 0.000094 -0.004409 0.011949 0.000000 0.000000 0.000000
# 4 0.000000 0.000000 0.000000 0.067239 0.000000 0.000000
# 5 0.000000 0.000000 0.000000 0.000000 0.027655 0.000000
# 6 0.000000 0.000000 0.000000 0.000000 0.000000 0.065643
#
#
# Mechanical properties :
#
#
# Convention : Reuss Voigt Hill
#
# Bulk Modulus (GPa) = 45.50683 45.52819 45.51751
# Shear Modulus (GPa) = 23.01418 28.49023 25.75221
#
# Velocity S-wave (km/s) = 3.20213 3.56278 3.38725
# Velocity P-wave (km/s) = 5.82635 6.09991 5.96470
#
# Compressibility (1/GPa) = 0.02197472
#
# Stress axis : x y z
#
# Youngs Moduli (GPa) = 103.14048 71.22408 83.68777
#
# Poissons Ratio (x) = 0.18094 -0.00790
# Poissons Ratio (y) = 0.26202 0.36898
# Poissons Ratio (z) = -0.00973 0.31403
#
# Static dielectric constant tensor:
#      x y z
#    x 2.043020 0.000000 0.000000 
#    y 0.000000 1.766020 0.000000 
#    z 0.000000 0.000000 1.940300 
# 
# From -- ./inp_files/31704.got.cif
#   From: 2010.05.17/outbox.cif.g08.bks.cpg/sg62_16_cif.got.tgz:31704.got - 2010.06.03 15:25:27.
