data_PCOD9464991
_publ_section_title
;
Structure prediction by ZEFSAII (Michael W. Deem and Ramdas Pophale) SiO2 
 PCOD9464991
Probable space group: P N M A
;
_chemical_formula_sum "Si O2"
_cell_formula_units_Z 40
_cell_length_a 17.131858
_cell_length_b 14.313466
_cell_length_c 6.631453
_cell_angle_alpha 90.000000
_cell_angle_beta 90.000000
_cell_angle_gamma 90.000000
_cell_volume 1626.140149
_symmetry_space_group_name_H-M "P N M A"
_symmetry_group_IT_number 62
_symmetry_cell_setting 'orthorhombic'
loop_
_space_group_symop_operation_xyz
x,y,z
1/2-x,-y,1/2+z
1/2+x,1/2-y,1/2-z
-x,1/2+y,-z
-x,-y,-z
1/2+x,y,1/2-z
1/2-x,1/2+y,1/2+z
x,1/2-y,z
loop_
_atom_site_type_symbol
_atom_site_label
_atom_site_fract_x
_atom_site_fract_y
_atom_site_fract_z
Si Si1 0.769975 0.113138 0.840812
Si Si2 0.887223 0.649025 0.580776
Si Si3 0.558734 0.644916 0.495116
Si Si4 0.186313 0.086563 0.025869
Si Si5 0.449974 0.983622 0.229189
O O1 0.697260 0.146577 0.972047
O O2 0.850642 0.147909 0.933091
O O3 0.752088 0.136692 0.607694
O O4 0.865415 0.858601 0.814327
O O5 0.924179 0.750000 0.532275
O O6 0.723662 0.500425 0.356133
O O7 0.932373 0.558694 0.491262
O O8 0.527434 0.750000 0.493700
O O9 0.546060 0.592362 0.708994
O O10 0.518319 0.576778 0.332262
O O11 0.125908 0.047893 0.860438
#
# Coordination Sequence:
#
# PCOD9464991 Si02
#       5
#     8   8   8   8   8
#     4  10  20  37  61  91 123 162 209 262 316 368
#     4  11  22  37  62  94 126 166 214 257 308 378
#     4  10  20  39  66  96 132 169 212 266 317 377
#     4  10  20  38  65  86 124 170 209 253 318 380
#     4   9  22  41  63  91 131 172 204 260 321 379
#
# _framework density 24.598127999999999
#
# number of rings (size 3 to 8) (size 9 to 14) (size 15 to 20)
#    0.000    2.000    2.000    1.200    0.000    4.800 
#    0.000   11.000    0.000   15.600    0.000    0.000 
#    0.000    0.000    0.000    0.000    0.000    0.000 
#
# Total GULP energy -223703.320455 kJ/mol
# GULP energy per Si atom -5592.583011 kJ/mol
# Density = 2.454214 g / cm^3
# Si number density = 24.598128 Si / 1000 Ang^3
#
#
#
# Elastic Constant Matrix: (Units=GPa)
#
#
# Indices 1 2 3 4 5 6 
#
# 1 71.5484 3.4974 15.0683 0.0000 0.0000 0.0000
# 2 3.4974 145.0366 26.2553 0.0000 0.0000 0.0000
# 3 15.0683 26.2553 126.5887 0.0000 0.0000 0.0000
# 4 0.0000 0.0000 0.0000 8.7832 0.0000 0.0000
# 5 0.0000 0.0000 0.0000 0.0000 42.0008 0.0000
# 6 0.0000 0.0000 0.0000 0.0000 0.0000 18.0858
#
#
#
# Elastic Compliance Matrix: (Units=1/GPa)
#
#
# Indices 1 2 3 4 5 6 
#
# 1 0.014336 -0.000038 -0.001699 0.000000 0.000000 0.000000
# 2 -0.000038 0.007164 -0.001481 0.000000 0.000000 0.000000
# 3 -0.001699 -0.001481 0.008409 0.000000 0.000000 0.000000
# 4 0.000000 0.000000 0.000000 0.113853 0.000000 0.000000
# 5 0.000000 0.000000 0.000000 0.000000 0.023809 0.000000
# 6 0.000000 0.000000 0.000000 0.000000 0.000000 0.055292
#
#
# Mechanical properties :
#
#
# Convention : Reuss Voigt Hill
#
# Bulk Modulus (GPa) = 42.60227 48.09062 45.34645
# Shear Modulus (GPa) = 21.08604 33.66415 27.37510
#
# Velocity S-wave (km/s) = 2.93101 3.70343 3.33962
# Velocity P-wave (km/s) = 5.36762 6.15468 5.77458
#
# Compressibility (1/GPa) = 0.02347293
#
# Stress axis : x y z
#
# Youngs Moduli (GPa) = 69.75377 139.58914 118.92002
#
# Poissons Ratio (x) = 0.00533 0.20199
# Poissons Ratio (y) = 0.00267 0.17615
# Poissons Ratio (z) = 0.11848 0.20677
#
# Static dielectric constant tensor:
#      x y z
#    x 1.969570 0.000000 0.000000 
#    y 0.000000 1.991840 0.000000 
#    z 0.000000 0.000000 1.996900 
# 
# From -- ./inp_files/8539.got.cif
#   From: 2010.05.17/outbox.cif.g08.bks.cpg/sg62_5_cif.got.tgz:8539.got - 2010.06.03 15:25:27.
