data_PCOD9464571
_publ_section_title
;
Structure prediction by ZEFSAII (Michael W. Deem and Ramdas Pophale) SiO2 
 PCOD9464571
Probable space group: P N M A
;
_chemical_formula_sum "Si O2"
_cell_formula_units_Z 40
_cell_length_a 10.279625
_cell_length_b 11.560411
_cell_length_c 14.364246
_cell_angle_alpha 90.000000
_cell_angle_beta 90.000000
_cell_angle_gamma 90.000000
_cell_volume 1706.999448
_symmetry_space_group_name_H-M "P N M A"
_symmetry_group_IT_number 62
_symmetry_cell_setting 'orthorhombic'
loop_
_space_group_symop_operation_xyz
x,y,z
1/2-x,-y,1/2+z
1/2+x,1/2-y,1/2-z
-x,1/2+y,-z
-x,-y,-z
1/2+x,y,1/2-z
1/2-x,1/2+y,1/2+z
x,1/2-y,z
loop_
_atom_site_type_symbol
_atom_site_label
_atom_site_fract_x
_atom_site_fract_y
_atom_site_fract_z
Si Si1 0.983777 0.624361 0.426052
Si Si2 0.941913 0.621866 0.627016
Si Si3 0.723971 0.117704 0.487490
Si Si4 0.684712 0.497617 0.289277
Si Si5 0.090984 0.112606 0.828959
O O1 0.965355 0.750000 0.378279
O O2 0.980460 0.500493 0.376032
O O3 0.131148 0.625512 0.467710
O O4 0.796533 0.574977 0.242988
O O5 0.004589 0.750000 0.640872
O O6 0.894661 0.624955 0.519164
O O7 0.843383 0.601225 0.711395
O O8 0.683200 0.250000 0.468941
O O9 0.634631 0.066425 0.569355
O O10 0.716156 0.052848 0.390151
O O11 0.551423 0.568628 0.302852
O O12 0.091839 0.250000 0.836054
#
# Coordination Sequence:
#
# PCOD9464571 Si02
#       5
#     8   8   8   8   8
#     4   9  18  36  62  90 130 176 220 271 335 399
#     4  10  20  35  60  97 131 170 221 277 334 399
#     4  10  21  41  66  95 133 179 222 280 345 407
#     4  12  23  42  69  97 135 177 228 278 343 407
#     4  11  25  44  68  97 135 178 231 282 342 409
#
# _framework density 23.432929999999999
#
# number of rings (size 3 to 8) (size 9 to 14) (size 15 to 20)
#    0.000    1.600    2.000    3.000    0.000    0.800 
#    0.000    9.000    0.000    0.000    0.000    0.000 
#    0.000    0.000    0.000    0.000    0.000    0.000 
#
# Total GULP energy -223092.238748 kJ/mol
# GULP energy per Si atom -5577.305969 kJ/mol
# Density = 2.337960 g / cm^3
# Si number density = 23.432930 Si / 1000 Ang^3
#
#
#
# Elastic Constant Matrix: (Units=GPa)
#
#
# Indices 1 2 3 4 5 6 
#
# 1 114.9873 45.1428 49.0561 0.0000 0.0000 0.0000
# 2 45.1428 185.6568 47.3289 0.0000 0.0000 0.0000
# 3 49.0561 47.3289 132.4128 0.0000 0.0000 0.0000
# 4 0.0000 0.0000 0.0000 28.7360 0.0000 0.0000
# 5 0.0000 0.0000 0.0000 0.0000 35.5298 0.0000
# 6 0.0000 0.0000 0.0000 0.0000 0.0000 16.5120
#
#
#
# Elastic Compliance Matrix: (Units=1/GPa)
#
#
# Indices 1 2 3 4 5 6 
#
# 1 0.010835 -0.001773 -0.003380 0.000000 0.000000 0.000000
# 2 -0.001773 0.006216 -0.001565 0.000000 0.000000 0.000000
# 3 -0.003380 -0.001565 0.009364 0.000000 0.000000 0.000000
# 4 0.000000 0.000000 0.000000 0.034800 0.000000 0.000000
# 5 0.000000 0.000000 0.000000 0.000000 0.028145 0.000000
# 6 0.000000 0.000000 0.000000 0.000000 0.000000 0.060562
#
#
# Mechanical properties :
#
#
# Convention : Reuss Voigt Hill
#
# Bulk Modulus (GPa) = 77.05109 79.56806 78.30957
# Shear Modulus (GPa) = 29.81787 35.59083 32.70435
#
# Velocity S-wave (km/s) = 3.57105 3.90146 3.73990
# Velocity P-wave (km/s) = 7.06796 7.37052 7.22083
#
# Compressibility (1/GPa) = 0.01297840
#
# Stress axis : x y z
#
# Youngs Moduli (GPa) = 92.29589 160.86664 106.79252
#
# Poissons Ratio (x) = 0.28517 0.36100
# Poissons Ratio (y) = 0.16362 0.16715
# Poissons Ratio (z) = 0.31200 0.25178
#
# Static dielectric constant tensor:
#      x y z
#    x 1.908800 0.000000 0.000000 
#    y 0.000000 1.919090 0.000000 
#    z 0.000000 0.000000 1.981530 
# 
# From -- ./inp_files/12999.got.cif
#   From: 2010.05.17/outbox.cif.g08.bks.cpg/sg62_7_cif.got.tgz:12999.got - 2010.06.03 15:25:27.
