data_PCOD9464022
_publ_section_title
;
Structure prediction by ZEFSAII (Michael W. Deem and Ramdas Pophale) SiO2 
 PCOD9464022
Probable space group: P N M A
;
_chemical_formula_sum "Si O2"
_cell_formula_units_Z 56
_cell_length_a 23.097496
_cell_length_b 7.474245
_cell_length_c 15.035364
_cell_angle_alpha 90.000000
_cell_angle_beta 90.000000
_cell_angle_gamma 90.000000
_cell_volume 2595.650272
_symmetry_space_group_name_H-M "P N M A"
_symmetry_group_IT_number 62
_symmetry_cell_setting 'orthorhombic'
loop_
_space_group_symop_operation_xyz
x,y,z
1/2-x,-y,1/2+z
1/2+x,1/2-y,1/2-z
-x,1/2+y,-z
-x,-y,-z
1/2+x,y,1/2-z
1/2-x,1/2+y,1/2+z
x,1/2-y,z
loop_
_atom_site_type_symbol
_atom_site_label
_atom_site_fract_x
_atom_site_fract_y
_atom_site_fract_z
Si Si1 0.779844 0.965608 0.403233
Si Si2 0.612495 0.031025 0.787597
Si Si3 0.351962 0.964468 0.400218
Si Si4 0.999253 0.535724 0.395240
Si Si5 0.647888 0.536711 0.400103
Si Si6 0.220472 0.961000 0.395315
Si Si7 0.110657 0.969524 0.286521
O O1 0.777757 0.750000 0.398055
O O2 0.826893 0.026146 0.331971
O O3 0.714118 0.032849 0.391964
O O4 0.799138 0.015160 0.502789
O O5 0.612079 0.250000 0.789479
O O6 0.611579 0.974435 0.684667
O O7 0.558641 0.969016 0.846487
O O8 0.348810 0.750000 0.394717
O O9 0.285775 0.034647 0.390594
O O10 0.372982 0.003129 0.499766
O O11 0.999044 0.750000 0.385277
O O12 0.000000 0.500000 0.500000
O O13 0.056532 0.468892 0.344885
O O14 0.651757 0.750000 0.391171
O O15 0.610412 0.474173 0.316526
O O16 0.225320 0.750000 0.375883
O O17 0.171199 0.030533 0.330057
O O18 0.110243 0.750000 0.289765
#
# Coordination Sequence:
#
# PCOD9464022 Si02
#       7
#     8   8   8   8   8   8   8
#     4   9  16  27  45  68  92 118 148 183 223 266
#     4   9  17  30  48  67  89 121 154 181 218 269
#     4   9  17  30  47  67  91 118 150 186 222 263
#     4  10  20  34  51  70  92 118 149 184 221 264
#     4   9  17  30  47  67  91 118 150 186 222 263
#     4   9  16  27  45  68  92 118 148 183 223 266
#     4   9  17  30  48  67  89 121 154 181 218 269
#
# _framework density 21.574555
#
# number of rings (size 3 to 8) (size 9 to 14) (size 15 to 20)
#    0.000    2.857    0.000    1.714    0.000    3.429 
#    0.000    3.571    0.000    6.857    0.000    0.000 
#    0.000    0.000    0.000    0.000    0.000    0.000 
#
# Total GULP energy -312531.422070 kJ/mol
# GULP energy per Si atom -5580.918251 kJ/mol
# Density = 2.152545 g / cm^3
# Si number density = 21.574555 Si / 1000 Ang^3
#
#
#
# Elastic Constant Matrix: (Units=GPa)
#
#
# Indices 1 2 3 4 5 6 
#
# 1 58.1181 3.8269 84.8266 0.0000 0.0000 0.0000
# 2 3.8269 58.3065 -9.0395 0.0000 0.0000 0.0000
# 3 84.8266 -9.0395 207.1629 0.0000 0.0000 0.0000
# 4 0.0000 0.0000 0.0000 23.0338 0.0000 0.0000
# 5 0.0000 0.0000 0.0000 0.0000 -90.4428 0.0000
# 6 0.0000 0.0000 0.0000 0.0000 0.0000 -0.0363
#
#
#
# Elastic Compliance Matrix: (Units=1/GPa)
#
#
# Indices 1 2 3 4 5 6 
#
# 1 0.044631 -0.005802 -0.018528 0.000000 0.000000 0.000000
# 2 -0.005802 0.018022 0.003162 0.000000 0.000000 0.000000
# 3 -0.018528 0.003162 0.012552 0.000000 0.000000 0.000000
# 4 0.000000 0.000000 0.000000 0.043414 0.000000 0.000000
# 5 0.000000 0.000000 0.000000 0.000000 -0.011057 0.000000
# 6 0.000000 0.000000 0.000000 0.000000 0.000000-27.525380
#
#
# Mechanical properties :
#
#
# Convention : Reuss Voigt Hill
#
# Bulk Modulus (GPa) = 30.42398 53.64617 42.03508
# Shear Modulus (GPa) = -0.18272 2.77583 1.29656
#
# Velocity S-wave (km/s) = -0.29133 1.13552 0.77606
# Velocity P-wave (km/s) = 3.74423 5.16127 4.50876
#
# Compressibility (1/GPa) = 0.03286881
#
# Stress axis : x y z
#
# Youngs Moduli (GPa) = 22.40570 55.48846 79.66949
#
# Poissons Ratio (x) = 0.32194 1.47614
# Poissons Ratio (y) = 0.13000 -0.25192
# Poissons Ratio (z) = 0.41514 -0.17546
#
# Static dielectric constant tensor:
#      x y z
#    x 1.761420 0.000000 0.000000 
#    y 0.000000 1.862310 0.000000 
#    z 0.000000 0.000000 1.777230 
# 
# From -- ./inp_files/12438.got.cif
#   From: 2010.05.17/outbox.cif.g08.bks.cpg/sg62_7_cif.got.tgz:12438.got - 2010.06.03 15:25:27.
