data_PCOD9464951
_publ_section_title
;
Structure prediction by ZEFSAII (Michael W. Deem and Ramdas Pophale) SiO2 
 PCOD9464951
Probable space group: P N M A
;
_chemical_formula_sum "Si O2"
_cell_formula_units_Z 64
_cell_length_a 15.256055
_cell_length_b 8.224256
_cell_length_c 25.426018
_cell_angle_alpha 90.000000
_cell_angle_beta 90.000000
_cell_angle_gamma 90.000000
_cell_volume 3190.194898
_symmetry_space_group_name_H-M "P N M A"
_symmetry_group_IT_number 62
_symmetry_cell_setting 'orthorhombic'
loop_
_space_group_symop_operation_xyz
x,y,z
1/2-x,-y,1/2+z
1/2+x,1/2-y,1/2-z
-x,1/2+y,-z
-x,-y,-z
1/2+x,y,1/2-z
1/2-x,1/2+y,1/2+z
x,1/2-y,z
loop_
_atom_site_type_symbol
_atom_site_label
_atom_site_fract_x
_atom_site_fract_y
_atom_site_fract_z
Si Si1 0.056396 0.945657 0.133768
Si Si2 0.137693 0.059968 0.241282
Si Si3 0.404812 0.444754 0.520479
Si Si4 0.995253 0.053733 0.668209
Si Si5 0.163425 0.446076 0.732613
Si Si6 0.361484 0.553335 0.349735
Si Si7 0.054589 0.946796 0.449405
Si Si8 0.748429 0.053934 0.556407
O O1 0.065029 0.750000 0.140351
O O2 0.106567 0.997628 0.081282
O O3 0.954255 0.982028 0.123834
O O4 0.084282 0.025827 0.187942
O O5 0.147226 0.250000 0.250627
O O6 0.082932 0.989360 0.290804
O O7 0.234252 0.989074 0.229083
O O8 0.500000 0.500000 0.500000
O O9 0.404754 0.250000 0.519975
O O10 0.326042 0.507076 0.484820
O O11 0.997637 0.250000 0.666687
O O12 0.978654 0.997229 0.608336
O O13 0.089271 0.995651 0.691594
O O14 0.157876 0.250000 0.731572
O O15 0.137286 0.507593 0.790554
O O16 0.354250 0.750000 0.346606
O O17 0.283370 0.493873 0.386343
O O18 0.053967 0.750000 0.448072
O O19 0.154696 0.004440 0.456217
O O20 0.000000 0.000000 0.500000
O O21 0.751176 0.250000 0.558629
#
# Coordination Sequence:
#
# PCOD9464951 Si02
#       8
#     8   8   8   8   8   8   8   8
#     4  10  20  38  60  82 114 159 203 242 287 351
#     4  12  25  38  57  91 130 159 189 244 310 364
#     4  11  22  36  58  87 120 157 198 246 295 355
#     4  10  21  42  69  91 114 159 214 252 291 355
#     4  10  20  37  64  89 115 156 205 249 288 353
#     4   9  16  33  61  87 111 149 201 246 287 342
#     4  10  23  42  66  91 120 158 204 256 303 353
#     4  10  20  37  60  88 122 160 201 248 302 357
#
# _framework density 20.06147
#
# number of rings (size 3 to 8) (size 9 to 14) (size 15 to 20)
#    0.000    1.750    2.500    2.250    0.000    5.500 
#    0.000    5.625    0.000    0.000    0.000    0.000 
#    0.000    0.000    0.000    0.000    0.000    0.000 
#
# Total GULP energy -357159.049774 kJ/mol
# GULP energy per Si atom -5580.610153 kJ/mol
# Density = 2.001581 g / cm^3
# Si number density = 20.061470 Si / 1000 Ang^3
#
#
#
# Elastic Constant Matrix: (Units=GPa)
#
#
# Indices 1 2 3 4 5 6 
#
# 1 157.0644 12.5141 88.4587 0.0000 0.0000 0.0000
# 2 12.5141 14.2103 14.8965 0.0000 0.0000 0.0000
# 3 88.4587 14.8965 164.5371 0.0000 0.0000 0.0000
# 4 0.0000 0.0000 0.0000 25.6925 0.0000 0.0000
# 5 0.0000 0.0000 0.0000 0.0000 31.6755 0.0000
# 6 0.0000 0.0000 0.0000 0.0000 0.0000 17.1177
#
#
#
# Elastic Compliance Matrix: (Units=1/GPa)
#
#
# Indices 1 2 3 4 5 6 
#
# 1 0.009265 -0.003246 -0.004687 0.000000 0.000000 0.000000
# 2 -0.003246 0.078888 -0.005397 0.000000 0.000000 0.000000
# 3 -0.004687 -0.005397 0.009086 0.000000 0.000000 0.000000
# 4 0.000000 0.000000 0.000000 0.038922 0.000000 0.000000
# 5 0.000000 0.000000 0.000000 0.000000 0.031570 0.000000
# 6 0.000000 0.000000 0.000000 0.000000 0.000000 0.058419
#
#
# Mechanical properties :
#
#
# Convention : Reuss Voigt Hill
#
# Bulk Modulus (GPa) = 14.16858 63.06115 38.61486
# Shear Modulus (GPa) = 18.09383 29.55997 23.82690
#
# Velocity S-wave (km/s) = 3.00646 3.84274 3.45003
# Velocity P-wave (km/s) = 4.37374 7.15480 5.92962
#
# Compressibility (1/GPa) = 0.07057872
#
# Stress axis : x y z
#
# Youngs Moduli (GPa) = 107.92880 12.67627 110.05519
#
# Poissons Ratio (x) = 0.04114 0.51587
# Poissons Ratio (y) = 0.35030 0.59399
# Poissons Ratio (z) = 0.50591 0.06842
#
# Static dielectric constant tensor:
#      x y z
#    x 1.734630 0.000000 0.000000 
#    y 0.000000 1.718890 0.000000 
#    z 0.000000 0.000000 1.717660 
# 
# From -- ./inp_files/29888.got.cif
#   From: 2010.05.17/outbox.cif.g08.bks.cpg/sg62_15_cif.got.tgz:29888.got - 2010.06.03 15:25:27.
