data_PCOD9464978
_publ_section_title
;
Structure prediction by ZEFSAII (Michael W. Deem and Ramdas Pophale) SiO2 
 PCOD9464978
Probable space group: P N M A
;
_chemical_formula_sum "Si O2"
_cell_formula_units_Z 48
_cell_length_a 15.359111
_cell_length_b 8.589465
_cell_length_c 19.152895
_cell_angle_alpha 90.000000
_cell_angle_beta 90.000000
_cell_angle_gamma 90.000000
_cell_volume 2526.775290
_symmetry_space_group_name_H-M "P N M A"
_symmetry_group_IT_number 62
_symmetry_cell_setting 'orthorhombic'
loop_
_space_group_symop_operation_xyz
x,y,z
1/2-x,-y,1/2+z
1/2+x,1/2-y,1/2-z
-x,1/2+y,-z
-x,-y,-z
1/2+x,y,1/2-z
1/2-x,1/2+y,1/2+z
x,1/2-y,z
loop_
_atom_site_type_symbol
_atom_site_label
_atom_site_fract_x
_atom_site_fract_y
_atom_site_fract_z
Si Si1 0.751645 0.561218 0.582459
Si Si2 0.697467 0.060508 0.239243
Si Si3 0.906039 0.564056 0.478395
Si Si4 0.863017 0.437825 0.326351
Si Si5 0.493021 0.561640 0.710376
Si Si6 0.941059 0.564672 0.062711
O O1 0.746890 0.750000 0.582189
O O2 0.775088 0.510885 0.661469
O O3 0.829425 0.512060 0.531017
O O4 0.657935 0.497614 0.559903
O O5 0.696998 0.250000 0.237713
O O6 0.770425 0.012634 0.294711
O O7 0.601746 0.011035 0.262748
O O8 0.909438 0.750000 0.482002
O O9 0.883370 0.510813 0.400581
O O10 0.000000 0.500000 0.500000
O O11 0.863260 0.250000 0.333544
O O12 0.935898 0.478220 0.269031
O O13 0.493199 0.750000 0.702997
O O14 0.519009 0.490271 0.636470
O O15 0.940000 0.750000 0.059207
O O16 0.000000 0.500000 0.000000
#
# Coordination Sequence:
#
# PCOD9464978 Si02
#       6
#     8   8   8   8   8   8
#     4  10  21  43  67  91 122 164 210 254 306 365
#     4   9  18  35  63  90 115 154 202 247 300 363
#     4  11  24  40  63  92 127 163 206 258 307 367
#     4  10  20  37  61  89 124 161 201 248 303 369
#     4  10  20  39  65  91 121 161 204 249 302 368
#     4  12  26  42  62  90 124 164 208 260 314 370
#
# _framework density 18.996545999999999
#
# number of rings (size 3 to 8) (size 9 to 14) (size 15 to 20)
#    0.000    1.667    1.667    3.000    2.333    4.667 
#    0.000    0.833    0.000    0.000    0.000    0.000 
#    0.000    0.000    0.000    0.000    0.000    0.000 
#
# Total GULP energy -268274.667655 kJ/mol
# GULP energy per Si atom -5589.055576 kJ/mol
# Density = 1.895331 g / cm^3
# Si number density = 18.996546 Si / 1000 Ang^3
#
#
#
# Elastic Constant Matrix: (Units=GPa)
#
#
# Indices 1 2 3 4 5 6 
#
# 1 177.2408 38.8145 72.7802 0.0000 0.0000 0.0000
# 2 38.8145 33.6517 37.0252 0.0000 0.0000 0.0000
# 3 72.7802 37.0252 141.1726 0.0000 0.0000 0.0000
# 4 0.0000 0.0000 0.0000 33.1550 0.0000 0.0000
# 5 0.0000 0.0000 0.0000 0.0000 40.4344 0.0000
# 6 0.0000 0.0000 0.0000 0.0000 0.0000 24.1493
#
#
#
# Elastic Compliance Matrix: (Units=1/GPa)
#
#
# Indices 1 2 3 4 5 6 
#
# 1 0.008099 -0.006674 -0.002425 0.000000 0.000000 0.000000
# 2 -0.006674 0.047268 -0.008956 0.000000 0.000000 0.000000
# 3 -0.002425 -0.008956 0.010683 0.000000 0.000000 0.000000
# 4 0.000000 0.000000 0.000000 0.030161 0.000000 0.000000
# 5 0.000000 0.000000 0.000000 0.000000 0.024731 0.000000
# 6 0.000000 0.000000 0.000000 0.000000 0.000000 0.041409
#
#
# Mechanical properties :
#
#
# Convention : Reuss Voigt Hill
#
# Bulk Modulus (GPa) = 33.40065 72.14502 52.77283
# Shear Modulus (GPa) = 23.98745 33.11074 28.54910
#
# Velocity S-wave (km/s) = 3.55734 4.17944 3.88088
# Velocity P-wave (km/s) = 5.87312 7.83267 6.92258
#
# Compressibility (1/GPa) = 0.02993954
#
# Stress axis : x y z
#
# Youngs Moduli (GPa) = 123.46584 21.15605 93.60795
#
# Poissons Ratio (x) = 0.14119 0.22703
# Poissons Ratio (y) = 0.82396 0.83839
# Poissons Ratio (z) = 0.29944 0.18948
#
# Static dielectric constant tensor:
#      x y z
#    x 1.634210 0.000000 0.000000 
#    y 0.000000 1.655660 0.000000 
#    z 0.000000 0.000000 1.621050 
# 
# From -- ./inp_files/23696.got.cif
#   From: 2010.05.17/outbox.cif.g08.bks.cpg/sg62_12_cif.got.tgz:23696.got - 2010.06.03 15:25:27.
