data_PCOD9464067
_publ_section_title
;
Structure prediction by ZEFSAII (Michael W. Deem and Ramdas Pophale) SiO2 
 PCOD9464067
Probable space group: P N M A
;
_chemical_formula_sum "Si O2"
_cell_formula_units_Z 40
_cell_length_a 13.917971
_cell_length_b 9.058166
_cell_length_c 18.179138
_cell_angle_alpha 90.000000
_cell_angle_beta 90.000000
_cell_angle_gamma 90.000000
_cell_volume 2291.867410
_symmetry_space_group_name_H-M "P N M A"
_symmetry_group_IT_number 62
_symmetry_cell_setting 'orthorhombic'
loop_
_space_group_symop_operation_xyz
x,y,z
1/2-x,-y,1/2+z
1/2+x,1/2-y,1/2-z
-x,1/2+y,-z
-x,-y,-z
1/2+x,y,1/2-z
1/2-x,1/2+y,1/2+z
x,1/2-y,z
loop_
_atom_site_type_symbol
_atom_site_label
_atom_site_fract_x
_atom_site_fract_y
_atom_site_fract_z
Si Si1 0.683048 0.073390 0.183461
Si Si2 0.873576 0.574038 0.131247
Si Si3 0.424043 0.927746 0.666515
Si Si4 0.900667 0.926075 0.523201
Si Si5 0.209836 0.426732 0.028941
O O1 0.700070 0.250000 0.185622
O O2 0.623885 0.031817 0.255814
O O3 0.624464 0.041220 0.108671
O O4 0.784661 0.991823 0.176993
O O5 0.877101 0.750000 0.139063
O O6 0.973692 0.502944 0.154412
O O7 0.849314 0.539612 0.045657
O O8 0.436365 0.750000 0.665054
O O9 0.352240 0.967513 0.599993
O O10 0.905952 0.750000 0.514524
O O11 0.811211 0.990952 0.477333
O O12 0.000000 0.000000 0.500000
O O13 0.226832 0.250000 0.030441
#
# Coordination Sequence:
#
# PCOD9464067 Si02
#       5
#     8   8   8   8   8
#     4   9  20  37  54  74 101 136 175 210 248 299
#     4  10  20  34  53  77 106 135 164 208 261 305
#     4  10  20  35  56  78 102 135 173 211 251 302
#     4  10  20  35  55  76 102 137 174 212 253 300
#     4   9  19  35  54  77 103 133 171 211 252 302
#
# _framework density 17.453016999999999
#
# number of rings (size 3 to 8) (size 9 to 14) (size 15 to 20)
#    0.000    2.400    0.000    1.800    0.000    4.800 
#    0.000    8.000    0.000    0.000    0.000    0.000 
#    0.000    0.000    0.000    0.000    0.000    0.000 
#
# Total GULP energy -223284.626611 kJ/mol
# GULP energy per Si atom -5582.115665 kJ/mol
# Density = 1.741329 g / cm^3
# Si number density = 17.453017 Si / 1000 Ang^3
#
#
#
# Elastic Constant Matrix: (Units=GPa)
#
#
# Indices 1 2 3 4 5 6 
#
# 1 212.1069 84.0157 111.5450 0.0000 0.0000 0.0000
# 2 84.0157 45.4386 54.8713 0.0000 0.0000 0.0000
# 3 111.5450 54.8713 98.3160 0.0000 0.0000 0.0000
# 4 0.0000 0.0000 0.0000 23.0376 0.0000 0.0000
# 5 0.0000 0.0000 0.0000 0.0000 20.6073 0.0000
# 6 0.0000 0.0000 0.0000 0.0000 0.0000 41.6954
#
#
#
# Elastic Compliance Matrix: (Units=1/GPa)
#
#
# Indices 1 2 3 4 5 6 
#
# 1 0.018661 -0.027412 -0.005873 0.000000 0.000000 0.000000
# 2 -0.027412 0.107769 -0.029047 0.000000 0.000000 0.000000
# 3 -0.005873 -0.029047 0.033046 0.000000 0.000000 0.000000
# 4 0.000000 0.000000 0.000000 0.043407 0.000000 0.000000
# 5 0.000000 0.000000 0.000000 0.000000 0.048526 0.000000
# 6 0.000000 0.000000 0.000000 0.000000 0.000000 0.023983
#
#
# Mechanical properties :
#
#
# Convention : Reuss Voigt Hill
#
# Bulk Modulus (GPa) = 28.72534 95.19173 61.95854
# Shear Modulus (GPa) = 12.14589 24.09668 18.12129
#
# Velocity S-wave (km/s) = 2.64089 3.71975 3.22575
# Velocity P-wave (km/s) = 5.07873 8.55037 7.03215
#
# Compressibility (1/GPa) = 0.03481247
#
# Stress axis : x y z
#
# Youngs Moduli (GPa) = 53.58726 9.27909 30.26074
#
# Poissons Ratio (x) = 0.25436 0.17773
# Poissons Ratio (y) = 1.46893 0.87898
# Poissons Ratio (z) = 0.31473 0.26953
#
# Static dielectric constant tensor:
#      x y z
#    x 1.547480 0.000000 0.000000 
#    y 0.000000 1.582620 0.000000 
#    z 0.000000 0.000000 1.588110 
# 
# From -- ./inp_files/18647.got.cif
#   From: 2010.05.17/outbox.cif.g08.bks.cpg/sg62_10_cif.got.tgz:18647.got - 2010.06.03 15:25:27.
