data_PCOD9464648
_publ_section_title
;
Structure prediction by ZEFSAII (Michael W. Deem and Ramdas Pophale) SiO2 
 PCOD9464648
Probable space group: P N M A
;
_chemical_formula_sum "Si O2"
_cell_formula_units_Z 56
_cell_length_a 16.380632
_cell_length_b 8.549316
_cell_length_c 20.894006
_cell_angle_alpha 90.000000
_cell_angle_beta 90.000000
_cell_angle_gamma 90.000000
_cell_volume 2926.063445
_symmetry_space_group_name_H-M "P N M A"
_symmetry_group_IT_number 62
_symmetry_cell_setting 'orthorhombic'
loop_
_space_group_symop_operation_xyz
x,y,z
1/2-x,-y,1/2+z
1/2+x,1/2-y,1/2-z
-x,1/2+y,-z
-x,-y,-z
1/2+x,y,1/2-z
1/2-x,1/2+y,1/2+z
x,1/2-y,z
loop_
_atom_site_type_symbol
_atom_site_label
_atom_site_fract_x
_atom_site_fract_y
_atom_site_fract_z
Si Si1 0.005021 0.937425 0.319547
Si Si2 0.682587 0.061695 0.799902
Si Si3 0.675482 0.939421 0.397197
Si Si4 0.753623 0.440991 0.031669
Si Si5 0.025802 0.437162 0.181631
Si Si6 0.068780 0.062910 0.452441
Si Si7 0.161956 0.938563 0.837505
O O1 0.007613 0.750000 0.323311
O O2 0.909384 0.987963 0.318978
O O3 0.041672 0.992393 0.251989
O O4 0.049498 0.008301 0.380647
O O5 0.682466 0.250000 0.798757
O O6 0.750311 0.010724 0.850641
O O7 0.699237 0.001373 0.728493
O O8 0.672378 0.750000 0.396255
O O9 0.696091 0.990375 0.469265
O O10 0.591957 0.004112 0.368658
O O11 0.754282 0.250000 0.032009
O O12 0.659360 0.490270 0.027478
O O13 0.792887 0.493194 0.098538
O O14 0.028277 0.250000 0.185892
O O15 0.933579 0.484626 0.162493
O O16 0.067557 0.250000 0.454933
O O17 0.000000 0.000000 0.500000
O O18 0.165538 0.750000 0.835890
#
# Coordination Sequence:
#
# PCOD9464648 Si02
#       7
#     8   8   8   8   8   8   8
#     4  10  20  37  59  83 112 147 189 234 284 340
#     4   9  19  35  56  81 110 145 185 232 281 336
#     4  10  20  36  57  80 109 148 190 228 278 339
#     4   9  20  38  58  80 110 150 190 231 282 339
#     4  10  21  36  55  83 114 144 186 236 286 337
#     4  11  22  37  58  85 118 152 189 233 286 344
#     4   9  19  37  58  80 108 146 187 232 285 337
#
# _framework density 19.138339999999999
#
# number of rings (size 3 to 8) (size 9 to 14) (size 15 to 20)
#    0.000    2.286    0.000    2.143    2.000    4.571 
#    0.000    4.286    0.000    0.000    0.000    0.000 
#    0.000    0.000    0.000    0.000    0.000    0.000 
#
# Total GULP energy -312746.186339 kJ/mol
# GULP energy per Si atom -5584.753327 kJ/mol
# Density = 1.909478 g / cm^3
# Si number density = 19.138340 Si / 1000 Ang^3
#
#
#
# Elastic Constant Matrix: (Units=GPa)
#
#
# Indices 1 2 3 4 5 6 
#
# 1 31.7089 10.5537 18.2706 0.0000 0.0000 0.0000
# 2 10.5537 19.2081 12.1020 0.0000 0.0000 0.0000
# 3 18.2706 12.1020 87.8461 0.0000 0.0000 0.0000
# 4 0.0000 0.0000 0.0000 31.9382 0.0000 0.0000
# 5 0.0000 0.0000 0.0000 0.0000 36.6796 0.0000
# 6 0.0000 0.0000 0.0000 0.0000 0.0000 19.7093
#
#
#
# Elastic Compliance Matrix: (Units=1/GPa)
#
#
# Indices 1 2 3 4 5 6 
#
# 1 0.041277 -0.018912 -0.005980 0.000000 0.000000 0.000000
# 2 -0.018912 0.065674 -0.005114 0.000000 0.000000 0.000000
# 3 -0.005980 -0.005114 0.013332 0.000000 0.000000 0.000000
# 4 0.000000 0.000000 0.000000 0.031310 0.000000 0.000000
# 5 0.000000 0.000000 0.000000 0.000000 0.027263 0.000000
# 6 0.000000 0.000000 0.000000 0.000000 0.000000 0.050738
#
#
# Mechanical properties :
#
#
# Convention : Reuss Voigt Hill
#
# Bulk Modulus (GPa) = 16.59147 24.51284 20.55216
# Shear Modulus (GPa) = 16.14489 24.18787 20.16638
#
# Velocity S-wave (km/s) = 2.90761 3.55891 3.24962
# Velocity P-wave (km/s) = 4.46770 5.45196 4.98418
#
# Compressibility (1/GPa) = 0.06027194
#
# Stress axis : x y z
#
# Youngs Moduli (GPa) = 24.22672 15.22663 75.00889
#
# Poissons Ratio (x) = 0.28796 0.44852
# Poissons Ratio (y) = 0.45817 0.38361
# Poissons Ratio (z) = 0.14487 0.07787
#
# Static dielectric constant tensor:
#      x y z
#    x 1.663180 0.000000 0.000000 
#    y 0.000000 1.655370 0.000000 
#    z 0.000000 0.000000 1.638400 
# 
# From -- ./inp_files/27181.got.cif
#   From: 2010.05.17/outbox.cif.g08.bks.cpg/sg62_14_cif.got.tgz:27181.got - 2010.06.03 15:25:27.
