data_PCOD9464792
_publ_section_title
;
Structure prediction by ZEFSAII (Michael W. Deem and Ramdas Pophale) SiO2 
 PCOD9464792
Probable space group: P N M A
;
_chemical_formula_sum "Si O2"
_cell_formula_units_Z 56
_cell_length_a 14.288336
_cell_length_b 20.436701
_cell_length_c 9.032399
_cell_angle_alpha 90.000000
_cell_angle_beta 90.000000
_cell_angle_gamma 90.000000
_cell_volume 2637.518773
_symmetry_space_group_name_H-M "P N M A"
_symmetry_group_IT_number 62
_symmetry_cell_setting 'orthorhombic'
loop_
_space_group_symop_operation_xyz
x,y,z
1/2-x,-y,1/2+z
1/2+x,1/2-y,1/2-z
-x,1/2+y,-z
-x,-y,-z
1/2+x,y,1/2-z
1/2-x,1/2+y,1/2+z
x,1/2-y,z
loop_
_atom_site_type_symbol
_atom_site_label
_atom_site_fract_x
_atom_site_fract_y
_atom_site_fract_z
Si Si1 0.420141 0.456186 0.925220
Si Si2 0.436489 0.943297 0.572145
Si Si3 0.989839 0.357980 0.819170
Si Si4 0.675319 0.822806 0.527327
Si Si5 0.400385 0.074762 0.234130
Si Si6 0.184194 0.176276 0.714967
Si Si7 0.718421 0.461256 0.628839
O O1 0.456735 0.417625 0.783525
O O2 0.322444 0.489192 0.880276
O O3 0.500000 0.500000 0.000000
O O4 0.390888 0.408892 0.062227
O O5 0.456519 0.881838 0.466553
O O6 0.488843 0.929821 0.724619
O O7 0.330505 0.961776 0.534147
O O8 0.500000 0.000000 0.500000
O O9 0.071538 0.323615 0.726838
O O10 0.897935 0.325664 0.888986
O O11 0.672172 0.750000 0.591118
O O12 0.645675 0.875291 0.649516
O O13 0.775098 0.834330 0.449715
O O14 0.349110 0.005626 0.269026
O O15 0.215379 0.250000 0.761547
O O16 0.219851 0.112852 0.807208
#
# Coordination Sequence:
#
# PCOD9464792 Si02
#       7
#     8   8   8   8   8   8   8
#     4  12  24  36  57  95 128 162 201 261 318 370
#     4   8  16  35  55  79 114 159 201 245 299 364
#     4  10  20  36  60  88 120 155 209 257 305 370
#     4  10  21  41  65  87 119 169 215 254 310 378
#     4  10  23  37  60  90 126 163 201 261 314 371
#     4  10  20  38  64  91 116 157 210 257 300 366
#     4  10  21  37  61  87 124 165 209 251 306 374
#
# _framework density 21.232074999999998
#
# number of rings (size 3 to 8) (size 9 to 14) (size 15 to 20)
#    0.000    2.000    1.429    3.000    4.000    2.286 
#    0.000    2.143    0.000    0.000    0.000    0.000 
#    0.000    0.000    0.000    0.000    0.000    0.000 
#
# Total GULP energy -312060.250110 kJ/mol
# GULP energy per Si atom -5572.504466 kJ/mol
# Density = 2.118375 g / cm^3
# Si number density = 21.232075 Si / 1000 Ang^3
#
#
#
# Elastic Constant Matrix: (Units=GPa)
#
#
# Indices 1 2 3 4 5 6 
#
# 1 101.4309 16.2706 10.8725 0.0000 0.0000 0.0000
# 2 16.2706 84.4721 15.1896 0.0000 0.0000 0.0000
# 3 10.8725 15.1896 86.0197 0.0000 0.0000 0.0000
# 4 0.0000 0.0000 0.0000 23.0461 0.0000 0.0000
# 5 0.0000 0.0000 0.0000 0.0000 22.2341 0.0000
# 6 0.0000 0.0000 0.0000 0.0000 0.0000 13.1820
#
#
#
# Elastic Compliance Matrix: (Units=1/GPa)
#
#
# Indices 1 2 3 4 5 6 
#
# 1 0.010252 -0.001799 -0.000978 0.000000 0.000000 0.000000
# 2 -0.001799 0.012542 -0.001987 0.000000 0.000000 0.000000
# 3 -0.000978 -0.001987 0.012100 0.000000 0.000000 0.000000
# 4 0.000000 0.000000 0.000000 0.043391 0.000000 0.000000
# 5 0.000000 0.000000 0.000000 0.000000 0.044976 0.000000
# 6 0.000000 0.000000 0.000000 0.000000 0.000000 0.075861
#
#
# Mechanical properties :
#
#
# Convention : Reuss Voigt Hill
#
# Bulk Modulus (GPa) = 39.42376 39.62090 39.52233
# Shear Modulus (GPa) = 23.03017 26.99845 25.01431
#
# Velocity S-wave (km/s) = 3.29703 3.56980 3.43612
# Velocity P-wave (km/s) = 5.75345 5.97434 5.86493
#
# Compressibility (1/GPa) = 0.02536542
#
# Stress axis : x y z
#
# Youngs Moduli (GPa) = 97.53873 79.73162 82.64589
#
# Poissons Ratio (x) = 0.14343 0.08084
# Poissons Ratio (y) = 0.17546 0.16425
# Poissons Ratio (z) = 0.09541 0.15845
#
# Static dielectric constant tensor:
#      x y z
#    x 1.842630 0.000000 0.000000 
#    y 0.000000 1.827390 0.000000 
#    z 0.000000 0.000000 1.802530 
# 
# From -- ./inp_files/6801.got.cif
#   From: 2010.05.17/outbox.cif.g08.bks.cpg/sg62_4_cif.got.tgz:6801.got - 2010.06.03 15:25:27.
