data_PCOD9464761
_publ_section_title
;
Structure prediction by ZEFSAII (Michael W. Deem and Ramdas Pophale) SiO2 
 PCOD9464761
Probable space group: P N M A
;
_chemical_formula_sum "Si O2"
_cell_formula_units_Z 64
_cell_length_a 18.876465
_cell_length_b 11.341880
_cell_length_c 14.960080
_cell_angle_alpha 90.000000
_cell_angle_beta 90.000000
_cell_angle_gamma 90.000000
_cell_volume 3202.872356
_symmetry_space_group_name_H-M "P N M A"
_symmetry_group_IT_number 62
_symmetry_cell_setting 'orthorhombic'
loop_
_space_group_symop_operation_xyz
x,y,z
1/2-x,-y,1/2+z
1/2+x,1/2-y,1/2-z
-x,1/2+y,-z
-x,-y,-z
1/2+x,y,1/2-z
1/2-x,1/2+y,1/2+z
x,1/2-y,z
loop_
_atom_site_type_symbol
_atom_site_label
_atom_site_fract_x
_atom_site_fract_y
_atom_site_fract_z
Si Si1 0.841133 0.885415 0.094966
Si Si2 0.782985 0.006281 0.929341
Si Si3 0.521424 0.620479 0.819105
Si Si4 0.920368 0.373217 0.937261
Si Si5 0.856136 0.117091 0.455495
Si Si6 0.218123 0.612170 0.261664
Si Si7 0.025785 0.946911 0.877641
Si Si8 0.433358 0.116553 0.858255
O O1 0.857748 0.750000 0.108777
O O2 0.821430 0.907076 0.990793
O O3 0.774791 0.915651 0.159904
O O4 0.909203 0.961321 0.120475
O O5 0.702337 0.984868 0.958554
O O6 0.836740 0.112224 0.954150
O O7 0.778656 0.022951 0.822147
O O8 0.491723 0.750000 0.848517
O O9 0.528752 0.623089 0.712903
O O10 0.479754 0.499351 0.839809
O O11 0.597292 0.609557 0.866689
O O12 0.933636 0.250000 0.889972
O O13 0.962452 0.377393 0.030505
O O14 0.860526 0.391075 0.697741
O O15 0.823339 0.250000 0.459695
O O16 0.909029 0.110132 0.538641
O O17 0.231528 0.750000 0.234076
O O18 0.952209 0.018305 0.882907
O O19 0.463821 0.250000 0.843412
#
# Coordination Sequence:
#
# PCOD9464761 Si02
#       8
#     8   8   8   8   8   8   8   8
#     4  10  20  36  60  87 117 156 208 260 304 363
#     4  11  20  34  58  86 117 153 200 250 309 365
#     4  11  23  39  61  91 126 158 200 257 316 371
#     4  10  21  37  56  84 121 162 203 255 313 364
#     4  10  21  40  63  86 118 161 204 252 309 372
#     4  10  20  36  59  87 119 160 208 260 310 364
#     4  10  21  37  59  84 119 160 202 249 307 377
#     4  10  21  41  66  88 119 163 209 254 303 368
#
# _framework density 19.982064000000001
#
# number of rings (size 3 to 8) (size 9 to 14) (size 15 to 20)
#    0.000    1.750    1.250    3.375    0.000    2.000 
#    0.000   10.625    0.000    2.250    0.000    0.000 
#    0.000    0.000    0.000    0.000    0.000    0.000 
#
# Total GULP energy -356420.264527 kJ/mol
# GULP energy per Si atom -5569.066633 kJ/mol
# Density = 1.993658 g / cm^3
# Si number density = 19.982064 Si / 1000 Ang^3
#
#
#
# Elastic Constant Matrix: (Units=GPa)
#
#
# Indices 1 2 3 4 5 6 
#
# 1 67.5740 51.2489 7.2323 0.0000 0.0000 0.0000
# 2 51.2489 112.0921 20.9431 0.0000 0.0000 0.0000
# 3 7.2323 20.9431 78.3628 0.0000 0.0000 0.0000
# 4 0.0000 0.0000 0.0000 16.0371 0.0000 0.0000
# 5 0.0000 0.0000 0.0000 0.0000 30.3248 0.0000
# 6 0.0000 0.0000 0.0000 0.0000 0.0000 14.6429
#
#
#
# Elastic Compliance Matrix: (Units=1/GPa)
#
#
# Indices 1 2 3 4 5 6 
#
# 1 0.022692 -0.010508 0.000714 0.000000 0.000000 0.000000
# 2 -0.010508 0.014256 -0.002840 0.000000 0.000000 0.000000
# 3 0.000714 -0.002840 0.013454 0.000000 0.000000 0.000000
# 4 0.000000 0.000000 0.000000 0.062356 0.000000 0.000000
# 5 0.000000 0.000000 0.000000 0.000000 0.032976 0.000000
# 6 0.000000 0.000000 0.000000 0.000000 0.000000 0.068293
#
#
# Mechanical properties :
#
#
# Convention : Reuss Voigt Hill
#
# Bulk Modulus (GPa) = 39.78732 46.31975 43.05354
# Shear Modulus (GPa) = 20.18790 24.10793 22.14791
#
# Velocity S-wave (km/s) = 3.18197 3.47721 3.33286
# Velocity P-wave (km/s) = 5.78400 6.27314 6.03353
#
# Compressibility (1/GPa) = 0.02513364
#
# Stress axis : x y z
#
# Youngs Moduli (GPa) = 44.06910 70.14460 74.32549
#
# Poissons Ratio (x) = 0.73709 -0.05308
# Poissons Ratio (y) = 0.46308 0.21111
# Poissons Ratio (z) = -0.03147 0.19923
#
# Static dielectric constant tensor:
#      x y z
#    x 1.704150 0.000000 0.000000 
#    y 0.000000 1.760860 0.000000 
#    z 0.000000 0.000000 1.726680 
# 
# From -- ./inp_files/24869.got.cif
#   From: 2010.05.17/outbox.cif.g08.bks.cpg/sg62_13_cif.got.tgz:24869.got - 2010.06.03 15:25:27.
