data_PCOD9464692
_publ_section_title
;
Structure prediction by ZEFSAII (Michael W. Deem and Ramdas Pophale) SiO2 
 PCOD9464692
Probable space group: P N M A
;
_chemical_formula_sum "Si O2"
_cell_formula_units_Z 64
_cell_length_a 22.974646
_cell_length_b 7.709778
_cell_length_c 16.841868
_cell_angle_alpha 90.000000
_cell_angle_beta 90.000000
_cell_angle_gamma 90.000000
_cell_volume 2983.190315
_symmetry_space_group_name_H-M "P N M A"
_symmetry_group_IT_number 62
_symmetry_cell_setting 'orthorhombic'
loop_
_space_group_symop_operation_xyz
x,y,z
1/2-x,-y,1/2+z
1/2+x,1/2-y,1/2-z
-x,1/2+y,-z
-x,-y,-z
1/2+x,y,1/2-z
1/2-x,1/2+y,1/2+z
x,1/2-y,z
loop_
_atom_site_type_symbol
_atom_site_label
_atom_site_fract_x
_atom_site_fract_y
_atom_site_fract_z
Si Si1 0.347464 0.544376 0.073651
Si Si2 0.134873 0.949219 0.248748
Si Si3 0.493837 0.948771 0.742571
Si Si4 0.727086 0.961796 0.376416
Si Si5 0.796383 0.955106 0.603228
Si Si6 0.477492 0.443328 0.086514
Si Si7 0.824986 0.461682 0.046272
Si Si8 0.957540 0.040649 0.074480
O O1 0.358251 0.750000 0.086832
O O2 0.293948 0.481442 0.127559
O O3 0.407902 0.449192 0.082959
O O4 0.321877 0.525923 0.985104
O O5 0.122948 0.750000 0.225455
O O6 0.186909 0.018920 0.194857
O O7 0.075614 0.049909 0.236763
O O8 0.159889 0.954867 0.336986
O O9 0.516283 0.750000 0.745944
O O10 0.506708 0.032506 0.829167
O O11 0.518986 0.023854 0.660199
O O12 0.729628 0.750000 0.377264
O O13 0.695846 0.013393 0.458221
O O14 0.796637 0.750000 0.621547
O O15 0.729024 0.016466 0.602568
O O16 0.502028 0.250000 0.094006
O O17 0.500000 0.500000 0.000000
O O18 0.825144 0.250000 0.048264
O O19 0.890734 0.520016 0.062485
O O20 0.956176 0.250000 0.077750
O O21 0.000000 0.000000 0.000000
#
# Coordination Sequence:
#
# PCOD9464692 Si02
#       8
#     8   8   8   8   8   8   8   8
#     4   9  18  35  56  76 102 137 175 216 267 322
#     4  11  21  33  53  79 105 134 173 220 266 314
#     4  10  23  39  53  76 111 146 181 222 269 324
#     4   8  16  31  51  76 103 131 165 208 258 312
#     4   9  18  33  54  77 102 135 172 213 265 324
#     4  11  23  38  56  79 109 146 186 227 271 320
#     4   8  15  31  54  75  98 134 175 207 249 316
#     4  10  20  36  58  82 110 145 183 223 267 318
#
# _framework density 21.453544000000001
#
# number of rings (size 3 to 8) (size 9 to 14) (size 15 to 20)
#    0.000    2.500    0.000    3.750    0.000    7.000 
#    0.000    3.125    0.000    2.250    0.000    0.000 
#    0.000    0.000    0.000    0.000    0.000    0.000 
#
# Total GULP energy -356887.457341 kJ/mol
# GULP energy per Si atom -5576.366521 kJ/mol
# Density = 2.140471 g / cm^3
# Si number density = 21.453544 Si / 1000 Ang^3
#
#
#
# Elastic Constant Matrix: (Units=GPa)
#
#
# Indices 1 2 3 4 5 6 
#
# 1 84.7287 -6.6617 3.8526 0.0000 0.0000 0.0000
# 2 -6.6617 25.9158 7.6746 0.0000 0.0000 0.0000
# 3 3.8526 7.6746 67.0593 0.0000 0.0000 0.0000
# 4 0.0000 0.0000 0.0000 10.5577 0.0000 0.0000
# 5 0.0000 0.0000 0.0000 0.0000 31.9292 0.0000
# 6 0.0000 0.0000 0.0000 0.0000 0.0000 -8.5716
#
#
#
# Elastic Compliance Matrix: (Units=1/GPa)
#
#
# Indices 1 2 3 4 5 6 
#
# 1 0.012122 0.003439 -0.001090 0.000000 0.000000 0.000000
# 2 0.003439 0.040916 -0.004880 0.000000 0.000000 0.000000
# 3 -0.001090 -0.004880 0.015533 0.000000 0.000000 0.000000
# 4 0.000000 0.000000 0.000000 0.094718 0.000000 0.000000
# 5 0.000000 0.000000 0.000000 0.000000 0.031319 0.000000
# 6 0.000000 0.000000 0.000000 0.000000 0.000000 -0.116664
#
#
# Mechanical properties :
#
#
# Convention : Reuss Voigt Hill
#
# Bulk Modulus (GPa) = 15.74586 20.82606 18.28596
# Shear Modulus (GPa) = 47.99573 18.30561 33.15067
#
# Velocity S-wave (km/s) = 4.73503 2.92424 3.93521
# Velocity P-wave (km/s) = 6.10323 4.59676 5.40276
#
# Compressibility (1/GPa) = 0.06350874
#
# Stress axis : x y z
#
# Youngs Moduli (GPa) = 82.49245 24.44052 64.37780
#
# Poissons Ratio (x) = -0.08405 0.07017
# Poissons Ratio (y) = -0.28368 0.31417
# Poissons Ratio (z) = 0.08992 0.11927
#
# Static dielectric constant tensor:
#      x y z
#    x 1.751200 0.000000 0.000000 
#    y 0.000000 1.846870 0.000000 
#    z 0.000000 0.000000 1.795990 
# 
# From -- ./inp_files/20850.got.cif
#   From: 2010.05.17/outbox.cif.g08.bks.cpg/sg62_11_cif.got.tgz:20850.got - 2010.06.03 15:25:27.
