data_PCOD9464401
_publ_section_title
;
Structure prediction by ZEFSAII (Michael W. Deem and Ramdas Pophale) SiO2 
 PCOD9464401
Probable space group: P N M A
;
_chemical_formula_sum "Si O2"
_cell_formula_units_Z 48
_cell_length_a 9.892087
_cell_length_b 24.275491
_cell_length_c 11.970083
_cell_angle_alpha 90.000000
_cell_angle_beta 90.000000
_cell_angle_gamma 90.000000
_cell_volume 2874.439100
_symmetry_space_group_name_H-M "P N M A"
_symmetry_group_IT_number 62
_symmetry_cell_setting 'orthorhombic'
loop_
_space_group_symop_operation_xyz
x,y,z
1/2-x,-y,1/2+z
1/2+x,1/2-y,1/2-z
-x,1/2+y,-z
-x,-y,-z
1/2+x,y,1/2-z
1/2-x,1/2+y,1/2+z
x,1/2-y,z
loop_
_atom_site_type_symbol
_atom_site_label
_atom_site_fract_x
_atom_site_fract_y
_atom_site_fract_z
Si Si1 0.761862 0.598158 0.009100
Si Si2 0.860457 0.525284 0.809805
Si Si3 0.299463 0.315275 0.169155
Si Si4 0.377185 0.955841 0.285963
Si Si5 0.537164 0.437194 0.961959
Si Si6 0.405368 0.870034 0.830153
O O1 0.843686 0.590009 0.122445
O O2 0.606988 0.592247 0.043788
O O3 0.796311 0.547383 0.924794
O O4 0.772412 0.652873 0.934277
O O5 0.746036 0.499721 0.728024
O O6 0.926028 0.578553 0.752618
O O7 0.982433 0.483183 0.823552
O O8 0.292061 0.250000 0.159336
O O9 0.455529 0.335471 0.169111
O O10 0.219482 0.335961 0.279535
O O11 0.395676 0.936830 0.158643
O O12 0.500000 0.500000 0.000000
O O13 0.618423 0.401249 0.052565
#
# Coordination Sequence:
#
# PCOD9464401 Si02
#       6
#     8   8   8   8   8   8
#     4  10  21  34  50  80 103 143 185 215 265 317
#     4  11  20  32  53  78 116 144 172 213 255 331
#     4  10  21  39  60  77 102 136 182 239 277 307
#     4  12  20  33  51  77 118 149 173 206 262 326
#     4  11  18  33  51  76 117 148 171 206 259 333
#     4  10  20  35  56  83 107 139 180 218 270 320
#
# _framework density 16.698912
#
# number of rings (size 3 to 8) (size 9 to 14) (size 15 to 20)
#    0.000    1.333    5.000    3.000    0.000    0.000 
#    6.000    0.000    0.000    5.000    0.000    0.000 
#    0.000    0.000    0.000    0.000    0.000    0.000 
#
# Total GULP energy -267511.797532 kJ/mol
# GULP energy per Si atom -5573.162449 kJ/mol
# Density = 1.666090 g / cm^3
# Si number density = 16.698912 Si / 1000 Ang^3
#
#
#
# Elastic Constant Matrix: (Units=GPa)
#
#
# Indices 1 2 3 4 5 6 
#
# 1 47.2137 32.4821 15.6197 0.0000 0.0000 0.0000
# 2 32.4821 89.7595 47.9826 0.0000 0.0000 0.0000
# 3 15.6197 47.9826 102.3246 0.0000 0.0000 0.0000
# 4 0.0000 0.0000 0.0000 13.5286 0.0000 0.0000
# 5 0.0000 0.0000 0.0000 0.0000 28.3889 0.0000
# 6 0.0000 0.0000 0.0000 0.0000 0.0000 22.8753
#
#
#
# Elastic Compliance Matrix: (Units=1/GPa)
#
#
# Indices 1 2 3 4 5 6 
#
# 1 0.028233 -0.010560 0.000642 0.000000 0.000000 0.000000
# 2 -0.010560 0.018818 -0.007212 0.000000 0.000000 0.000000
# 3 0.000642 -0.007212 0.013057 0.000000 0.000000 0.000000
# 4 0.000000 0.000000 0.000000 0.073917 0.000000 0.000000
# 5 0.000000 0.000000 0.000000 0.000000 0.035225 0.000000
# 6 0.000000 0.000000 0.000000 0.000000 0.000000 0.043715
#
#
# Mechanical properties :
#
#
# Convention : Reuss Voigt Hill
#
# Bulk Modulus (GPa) = 38.68878 47.94074 43.31476
# Shear Modulus (GPa) = 19.54337 22.50614 21.02475
#
# Velocity S-wave (km/s) = 3.42473 3.67517 3.55216
# Velocity P-wave (km/s) = 6.23355 6.83962 6.54360
#
# Compressibility (1/GPa) = 0.02584729
#
# Stress axis : x y z
#
# Youngs Moduli (GPa) = 35.41940 53.14113 76.58883
#
# Poissons Ratio (x) = 0.56119 -0.04919
# Poissons Ratio (y) = 0.37404 0.55237
# Poissons Ratio (z) = -0.02275 0.38326
#
# Static dielectric constant tensor:
#      x y z
#    x 1.583890 0.000000 0.000000 
#    y 0.000000 1.545320 0.000000 
#    z 0.000000 0.000000 1.601780 
# 
# From -- ./inp_files/11281.got.cif
#   From: 2010.05.17/outbox.cif.g08.bks.cpg/sg62_6_cif.got.tgz:11281.got - 2010.06.03 15:25:27.
