data_PCOD9464542
_publ_section_title
;
Structure prediction by ZEFSAII (Michael W. Deem and Ramdas Pophale) SiO2 
 PCOD9464542
Probable space group: P N M A
;
_chemical_formula_sum "Si O2"
_cell_formula_units_Z 48
_cell_length_a 23.567487
_cell_length_b 8.105099
_cell_length_c 12.285625
_cell_angle_alpha 90.000000
_cell_angle_beta 90.000000
_cell_angle_gamma 90.000000
_cell_volume 2346.760962
_symmetry_space_group_name_H-M "P N M A"
_symmetry_group_IT_number 62
_symmetry_cell_setting 'orthorhombic'
loop_
_space_group_symop_operation_xyz
x,y,z
1/2-x,-y,1/2+z
1/2+x,1/2-y,1/2-z
-x,1/2+y,-z
-x,-y,-z
1/2+x,y,1/2-z
1/2-x,1/2+y,1/2+z
x,1/2-y,z
loop_
_atom_site_type_symbol
_atom_site_label
_atom_site_fract_x
_atom_site_fract_y
_atom_site_fract_z
Si Si1 0.434867 0.944400 0.984805
Si Si2 0.059548 0.054498 0.046891
Si Si3 0.228233 0.948349 0.116391
Si Si4 0.877981 0.947079 0.736767
Si Si5 0.337895 0.439751 0.412692
Si Si6 0.852880 0.056070 0.325265
O O1 0.437803 0.750000 0.966341
O O2 0.397361 0.978758 0.091501
O O3 0.400474 0.013333 0.879091
O O4 0.500000 0.000000 0.000000
O O5 0.068829 0.250000 0.027761
O O6 0.072152 0.025966 0.174235
O O7 0.105317 0.948556 0.982316
O O8 0.000000 0.000000 0.000000
O O9 0.234686 0.750000 0.111643
O O10 0.207197 0.010872 0.997822
O O11 0.179857 0.985150 0.207474
O O12 0.288265 0.030305 0.138174
O O13 0.868485 0.750000 0.727347
O O14 0.320658 0.250000 0.391678
O O15 0.351668 0.517296 0.296718
O O16 0.867168 0.250000 0.319972
#
# Coordination Sequence:
#
# PCOD9464542 Si02
#       6
#     8   8   8   8   8   8
#     4  11  25  44  64  90 125 167 213 256 308 370
#     4  10  20  35  59  88 116 151 194 243 298 353
#     4  10  21  39  64  94 121 154 202 253 304 366
#     4   9  21  41  62  85 121 162 198 247 307 363
#     4   9  21  40  59  83 119 156 195 244 301 357
#     4  11  24  41  63  90 124 164 201 250 310 365
#
# _framework density 20.453724999999999
#
# number of rings (size 3 to 8) (size 9 to 14) (size 15 to 20)
#    0.000    2.000    0.000    2.000    4.667    4.000 
#    0.000    0.000    0.000    0.000    0.000    0.000 
#    0.000    0.000    0.000    0.000    0.000    0.000 
#
# Total GULP energy -267706.090494 kJ/mol
# GULP energy per Si atom -5577.210219 kJ/mol
# Density = 2.040717 g / cm^3
# Si number density = 20.453725 Si / 1000 Ang^3
#
#
#
# Elastic Constant Matrix: (Units=GPa)
#
#
# Indices 1 2 3 4 5 6 
#
# 1 60.9498 -3.4624 40.2060 0.0000 0.0000 0.0000
# 2 -3.4624 30.6531 5.1411 0.0000 0.0000 0.0000
# 3 40.2060 5.1411 146.4853 0.0000 0.0000 0.0000
# 4 0.0000 0.0000 0.0000 20.0642 0.0000 0.0000
# 5 0.0000 0.0000 0.0000 0.0000 10.8685 0.0000
# 6 0.0000 0.0000 0.0000 0.0000 0.0000 33.0051
#
#
#
# Elastic Compliance Matrix: (Units=1/GPa)
#
#
# Indices 1 2 3 4 5 6 
#
# 1 0.020352 0.003255 -0.005700 0.000000 0.000000 0.000000
# 2 0.003255 0.033337 -0.002063 0.000000 0.000000 0.000000
# 3 -0.005700 -0.002063 0.008464 0.000000 0.000000 0.000000
# 4 0.000000 0.000000 0.000000 0.049840 0.000000 0.000000
# 5 0.000000 0.000000 0.000000 0.000000 0.092009 0.000000
# 6 0.000000 0.000000 0.000000 0.000000 0.000000 0.030298
#
#
# Mechanical properties :
#
#
# Convention : Reuss Voigt Hill
#
# Bulk Modulus (GPa) = 18.81997 35.76194 27.29095
# Shear Modulus (GPa) = 19.15499 25.86782 22.51140
#
# Velocity S-wave (km/s) = 3.06355 3.56012 3.32113
# Velocity P-wave (km/s) = 4.66209 5.86699 5.29890
#
# Compressibility (1/GPa) = 0.05313506
#
# Stress axis : x y z
#
# Youngs Moduli (GPa) = 49.13500 29.99682 118.15289
#
# Poissons Ratio (x) = -0.09764 0.67351
# Poissons Ratio (y) = -0.15993 0.24379
# Poissons Ratio (z) = 0.28008 0.06189
#
# Static dielectric constant tensor:
#      x y z
#    x 1.688130 0.000000 0.000000 
#    y 0.000000 1.742000 0.000000 
#    z 0.000000 0.000000 2.139460 
# 
# From -- ./inp_files/15157.got.cif
#   From: 2010.05.17/outbox.cif.g08.bks.cpg/sg62_8_cif.got.tgz:15157.got - 2010.06.03 15:25:27.
