data_PCOD9464281
_publ_section_title
;
Structure prediction by ZEFSAII (Michael W. Deem and Ramdas Pophale) SiO2 
 PCOD9464281
Probable space group: P N M A
;
_chemical_formula_sum "Si O2"
_cell_formula_units_Z 44
_cell_length_a 5.071740
_cell_length_b 14.261228
_cell_length_c 31.287170
_cell_angle_alpha 90.000000
_cell_angle_beta 90.000000
_cell_angle_gamma 90.000000
_cell_volume 2262.977243
_symmetry_space_group_name_H-M "P N M A"
_symmetry_group_IT_number 62
_symmetry_cell_setting 'orthorhombic'
loop_
_space_group_symop_operation_xyz
x,y,z
1/2-x,-y,1/2+z
1/2+x,1/2-y,1/2-z
-x,1/2+y,-z
-x,-y,-z
1/2+x,y,1/2-z
1/2-x,1/2+y,1/2+z
x,1/2-y,z
loop_
_atom_site_type_symbol
_atom_site_label
_atom_site_fract_x
_atom_site_fract_y
_atom_site_fract_z
Si Si1 0.427181 0.494129 0.873264
Si Si2 0.154593 0.637580 0.564753
Si Si3 0.067086 0.589660 0.156944
Si Si4 0.916235 0.750000 0.222524
Si Si5 0.852677 0.643760 0.069673
Si Si6 0.655798 0.636473 0.514101
O O1 0.546492 0.587400 0.893231
O O2 0.638863 0.447849 0.841795
O O3 0.145955 0.493674 0.849778
O O4 0.377543 0.424464 0.913963
O O5 0.144911 0.750000 0.568870
O O6 0.451095 0.610652 0.551819
O O7 0.951438 0.609883 0.526635
O O8 0.983382 0.658951 0.194248
O O9 0.035223 0.644471 0.111861
O O10 0.114410 0.750000 0.262663
O O11 0.759801 0.750000 0.060291
O O12 0.020510 0.606077 0.029914
O O13 0.657173 0.750000 0.511565
#
# Coordination Sequence:
#
# PCOD9464281 Si02
#       6
#     8   8   8   4   8   8
#     4  10  21  33  54  73 102 145 175 235 257 305
#     4  10  20  35  48  71 106 139 187 238 270 304
#     4  10  21  37  51  81 105 131 179 208 250 335
#     4  12  24  40  64  86 116 148 164 206 274 334
#     4   9  20  33  51  71 103 146 176 224 267 312
#     4   9  19  31  47  69 100 142 188 228 275 309
#
# _framework density 19.443411999999999
#
# number of rings (size 3 to 8) (size 9 to 14) (size 15 to 20)
#    1.091    1.091    0.909    2.182    3.818    1.455 
#    0.000    0.000    0.000    0.000    0.000    0.000 
#    0.000   14.545    0.000    0.000    0.000    0.000 
#
# Total GULP energy -245364.020996 kJ/mol
# GULP energy per Si atom -5576.455023 kJ/mol
# Density = 1.939916 g / cm^3
# Si number density = 19.443412 Si / 1000 Ang^3
#
#
#
# Elastic Constant Matrix: (Units=GPa)
#
#
# Indices 1 2 3 4 5 6 
#
# 1 47.6369 -6.7089 -10.2521 0.0000 0.0000 0.0000
# 2 -6.7089 50.4279 1.7423 0.0000 0.0000 0.0000
# 3 -10.2521 1.7423 34.1419 0.0000 0.0000 0.0000
# 4 0.0000 0.0000 0.0000 9.5501 0.0000 0.0000
# 5 0.0000 0.0000 0.0000 0.0000 28.3832 0.0000
# 6 0.0000 0.0000 0.0000 0.0000 0.0000 12.2295
#
#
#
# Elastic Compliance Matrix: (Units=1/GPa)
#
#
# Indices 1 2 3 4 5 6 
#
# 1 0.022832 0.002806 0.006713 0.000000 0.000000 0.000000
# 2 0.002806 0.020210 -0.000189 0.000000 0.000000 0.000000
# 3 0.006713 -0.000189 0.031315 0.000000 0.000000 0.000000
# 4 0.000000 0.000000 0.000000 0.104711 0.000000 0.000000
# 5 0.000000 0.000000 0.000000 0.000000 0.035232 0.000000
# 6 0.000000 0.000000 0.000000 0.000000 0.000000 0.081769
#
#
# Mechanical properties :
#
#
# Convention : Reuss Voigt Hill
#
# Bulk Modulus (GPa) = 10.75082 11.30767 11.02925
# Shear Modulus (GPa) = 16.21191 19.86094 18.03642
#
# Velocity S-wave (km/s) = 2.89069 3.19952 3.04902
# Velocity P-wave (km/s) = 4.08445 4.41334 4.25207
#
# Compressibility (1/GPa) = 0.09301615
#
# Stress axis : x y z
#
# Youngs Moduli (GPa) = 43.79824 49.48025 31.93371
#
# Poissons Ratio (x) = -0.13882 -0.21437
# Poissons Ratio (y) = -0.12288 0.00603
# Poissons Ratio (z) = -0.29401 0.00934
#
# Static dielectric constant tensor:
#      x y z
#    x 1.703180 0.000000 0.000000 
#    y 0.000000 1.708650 0.000000 
#    z 0.000000 0.000000 1.670020 
# 
# From -- ./inp_files/31569.got.cif
#   From: 2010.05.17/outbox.cif.g08.bks.cpg/sg62_16_cif.got.tgz:31569.got - 2010.06.03 15:25:27.
