data_PCOD9464764
_publ_section_title
;
Structure prediction by ZEFSAII (Michael W. Deem and Ramdas Pophale) SiO2 
 PCOD9464764
Probable space group: P N M A
;
_chemical_formula_sum "Si O2"
_cell_formula_units_Z 64
_cell_length_a 18.946413
_cell_length_b 18.815123
_cell_length_c 10.025638
_cell_angle_alpha 90.000000
_cell_angle_beta 90.000000
_cell_angle_gamma 90.000000
_cell_volume 3573.930321
_symmetry_space_group_name_H-M "P N M A"
_symmetry_group_IT_number 62
_symmetry_cell_setting 'orthorhombic'
loop_
_space_group_symop_operation_xyz
x,y,z
1/2-x,-y,1/2+z
1/2+x,1/2-y,1/2-z
-x,1/2+y,-z
-x,-y,-z
1/2+x,y,1/2-z
1/2-x,1/2+y,1/2+z
x,1/2-y,z
loop_
_atom_site_type_symbol
_atom_site_label
_atom_site_fract_x
_atom_site_fract_y
_atom_site_fract_z
Si Si1 0.985317 0.333146 0.459587
Si Si2 0.382366 0.665252 0.349129
Si Si3 0.342454 0.057580 0.758511
Si Si4 0.189699 0.068424 0.627574
Si Si5 0.841754 0.411641 0.429029
Si Si6 0.126752 0.400847 0.350776
Si Si7 0.701314 0.167992 0.383705
Si Si8 0.461680 0.167785 0.721844
O O1 0.992692 0.250000 0.424135
O O2 0.911993 0.366039 0.407984
O O3 0.981621 0.337261 0.620838
O O4 0.050719 0.378887 0.406892
O O5 0.373976 0.750000 0.325426
O O6 0.348650 0.621518 0.228535
O O7 0.341930 0.646041 0.484571
O O8 0.466167 0.652179 0.356454
O O9 0.270263 0.058741 0.675040
O O10 0.399943 0.111385 0.697830
O O11 0.371505 0.977717 0.778608
O O12 0.329112 0.083704 0.910807
O O13 0.179818 0.095429 0.476602
O O14 0.152297 0.991347 0.626117
O O15 0.772343 0.376598 0.368672
O O16 0.152953 0.344212 0.243963
O O17 0.720576 0.250000 0.400487
O O18 0.440070 0.250000 0.697196
#
# Coordination Sequence:
#
# PCOD9464764 Si02
#       8
#     8   8   8   8   8   8   8   8
#     4  10  20  36  59  88 119 154 201 247 293 352
#     4  10  21  37  61  86 114 153 196 238 291 351
#     4  10  21  36  59  88 121 153 195 247 295 347
#     4  11  21  37  61  86 119 149 197 247 289 350
#     4  10  21  36  60  88 118 155 195 244 298 351
#     4  11  23  37  59  89 121 155 196 242 299 351
#     4  11  22  39  59  83 120 160 197 238 294 358
#     4   9  19  36  58  87 116 148 197 250 295 344
#
# _framework density 17.907457000000001
#
# number of rings (size 3 to 8) (size 9 to 14) (size 15 to 20)
#    0.000    1.750    3.750    0.750    1.750    3.000 
#    0.000    1.875    0.000    1.500    0.000    0.000 
#    0.000    0.000    0.000    0.000    0.000    0.000 
#
# Total GULP energy -357174.782384 kJ/mol
# GULP energy per Si atom -5580.855975 kJ/mol
# Density = 1.786670 g / cm^3
# Si number density = 17.907457 Si / 1000 Ang^3
#
#
#
# Elastic Constant Matrix: (Units=GPa)
#
#
# Indices 1 2 3 4 5 6 
#
# 1 104.2539 44.2119 22.7564 0.0000 0.0000 0.0000
# 2 44.2119 60.5043 26.1424 0.0000 0.0000 0.0000
# 3 22.7564 26.1424 47.2551 0.0000 0.0000 0.0000
# 4 0.0000 0.0000 0.0000 23.5185 0.0000 0.0000
# 5 0.0000 0.0000 0.0000 0.0000 24.1001 0.0000
# 6 0.0000 0.0000 0.0000 0.0000 0.0000 27.9637
#
#
#
# Elastic Compliance Matrix: (Units=1/GPa)
#
#
# Indices 1 2 3 4 5 6 
#
# 1 0.013971 -0.009596 -0.001419 0.000000 0.000000 0.000000
# 2 -0.009596 0.028310 -0.011041 0.000000 0.000000 0.000000
# 3 -0.001419 -0.011041 0.027953 0.000000 0.000000 0.000000
# 4 0.000000 0.000000 0.000000 0.042520 0.000000 0.000000
# 5 0.000000 0.000000 0.000000 0.000000 0.041494 0.000000
# 6 0.000000 0.000000 0.000000 0.000000 0.000000 0.035761
#
#
# Mechanical properties :
#
#
# Convention : Reuss Voigt Hill
#
# Bulk Modulus (GPa) = 38.28099 44.24830 41.26464
# Shear Modulus (GPa) = 20.59074 23.04329 21.81702
#
# Velocity S-wave (km/s) = 3.39461 3.59109 3.49423
# Velocity P-wave (km/s) = 6.06531 6.47747 6.27478
#
# Compressibility (1/GPa) = 0.02612262
#
# Stress axis : x y z
#
# Youngs Moduli (GPa) = 71.57603 35.32326 35.77411
#
# Poissons Ratio (x) = 0.33895 0.05078
# Poissons Ratio (y) = 0.68682 0.39497
# Poissons Ratio (z) = 0.10160 0.38999
#
# Static dielectric constant tensor:
#      x y z
#    x 1.586860 0.000000 0.000000 
#    y 0.000000 1.615590 0.000000 
#    z 0.000000 0.000000 1.594230 
# 
# From -- ./inp_files/14438.got.cif
#   From: 2010.05.17/outbox.cif.g08.bks.cpg/sg62_8_cif.got.tgz:14438.got - 2010.06.03 15:25:27.
