data_PCOD9464498
_publ_section_title
;
Structure prediction by ZEFSAII (Michael W. Deem and Ramdas Pophale) SiO2 
 PCOD9464498
Probable space group: P N M A
;
_chemical_formula_sum "Si O2"
_cell_formula_units_Z 48
_cell_length_a 15.501358
_cell_length_b 8.834678
_cell_length_c 19.364827
_cell_angle_alpha 90.000000
_cell_angle_beta 90.000000
_cell_angle_gamma 90.000000
_cell_volume 2652.003501
_symmetry_space_group_name_H-M "P N M A"
_symmetry_group_IT_number 62
_symmetry_cell_setting 'orthorhombic'
loop_
_space_group_symop_operation_xyz
x,y,z
1/2-x,-y,1/2+z
1/2+x,1/2-y,1/2-z
-x,1/2+y,-z
-x,-y,-z
1/2+x,y,1/2-z
1/2-x,1/2+y,1/2+z
x,1/2-y,z
loop_
_atom_site_type_symbol
_atom_site_label
_atom_site_fract_x
_atom_site_fract_y
_atom_site_fract_z
Si Si1 0.604299 0.431812 0.432162
Si Si2 0.748182 0.932878 0.823683
Si Si3 0.913839 0.067647 0.416172
Si Si4 0.257566 0.568477 0.327818
Si Si5 0.599019 0.567684 0.075197
Si Si6 0.595832 0.569463 0.580777
O O1 0.609981 0.250000 0.442320
O O2 0.672013 0.474461 0.373253
O O3 0.623198 0.510160 0.505183
O O4 0.505714 0.468654 0.411950
O O5 0.748148 0.750000 0.816892
O O6 0.660127 0.978012 0.862784
O O7 0.754168 0.006142 0.748926
O O8 0.919945 0.250000 0.414748
O O9 0.888779 0.023422 0.494788
O O10 0.007432 0.998884 0.401395
O O11 0.259646 0.750000 0.327192
O O12 0.177991 0.519074 0.376793
O O13 0.344889 0.506242 0.361800
O O14 0.594500 0.750000 0.077324
O O15 0.604520 0.750000 0.584088
#
# Coordination Sequence:
#
# PCOD9464498 Si02
#       6
#     8   8   8   8   8   8
#     4   9  19  37  59  81 108 142 178 221 270 318
#     4  10  21  37  55  77 109 145 179 216 264 320
#     4   9  18  34  57  80 102 133 173 218 265 312
#     4  11  23  37  53  76 110 147 180 218 266 316
#     4   9  19  36  56  78 104 136 175 218 265 314
#     4  10  20  35  58  85 109 138 179 222 266 319
#
# _framework density 18.099523000000001
#
# number of rings (size 3 to 8) (size 9 to 14) (size 15 to 20)
#    0.000    2.333    0.000    2.000    0.000    7.333 
#    0.000    8.333    0.000    0.000    0.000    0.000 
#    0.000    0.000    0.000    0.000    0.000    0.000 
#
# Total GULP energy -267990.512277 kJ/mol
# GULP energy per Si atom -5583.135672 kJ/mol
# Density = 1.805833 g / cm^3
# Si number density = 18.099523 Si / 1000 Ang^3
#
#
#
# Elastic Constant Matrix: (Units=GPa)
#
#
# Indices 1 2 3 4 5 6 
#
# 1 55.6202 19.8607 34.3656 0.0000 0.0000 0.0000
# 2 19.8607 16.1413 22.8050 0.0000 0.0000 0.0000
# 3 34.3656 22.8050 67.6113 0.0000 0.0000 0.0000
# 4 0.0000 0.0000 0.0000 35.2050 0.0000 0.0000
# 5 0.0000 0.0000 0.0000 0.0000 2.4529 0.0000
# 6 0.0000 0.0000 0.0000 0.0000 0.0000 27.8088
#
#
#
# Elastic Compliance Matrix: (Units=1/GPa)
#
#
# Indices 1 2 3 4 5 6 
#
# 1 0.033267 -0.032558 -0.005927 0.000000 0.000000 0.000000
# 2 -0.032558 0.150217 -0.034119 0.000000 0.000000 0.000000
# 3 -0.005927 -0.034119 0.029311 0.000000 0.000000 0.000000
# 4 0.000000 0.000000 0.000000 0.028405 0.000000 0.000000
# 5 0.000000 0.000000 0.000000 0.000000 0.407689 0.000000
# 6 0.000000 0.000000 0.000000 0.000000 0.000000 0.035960
#
#
# Mechanical properties :
#
#
# Convention : Reuss Voigt Hill
#
# Bulk Modulus (GPa) = 14.79578 32.60392 23.69985
# Shear Modulus (GPa) = 5.86450 17.24945 11.55698
#
# Velocity S-wave (km/s) = 1.80199 3.09047 2.52964
# Velocity P-wave (km/s) = 3.53864 5.54865 4.65347
#
# Compressibility (1/GPa) = 0.06758684
#
# Stress axis : x y z
#
# Youngs Moduli (GPa) = 30.05965 6.65702 34.11658
#
# Poissons Ratio (x) = 0.21674 0.20222
# Poissons Ratio (y) = 0.97870 1.16401
# Poissons Ratio (z) = 0.17817 0.22713
#
# Static dielectric constant tensor:
#      x y z
#    x 1.611000 0.000000 0.000000 
#    y 0.000000 1.609850 0.000000 
#    z 0.000000 0.000000 1.593240 
# 
# From -- ./inp_files/23729.got.cif
#   From: 2010.05.17/outbox.cif.g08.bks.cpg/sg62_12_cif.got.tgz:23729.got - 2010.06.03 15:25:27.
