data_PCOD9464916
_publ_section_title
;
Structure prediction by ZEFSAII (Michael W. Deem and Ramdas Pophale) SiO2 
 PCOD9464916
Probable space group: P N M A
;
_chemical_formula_sum "Si O2"
_cell_formula_units_Z 64
_cell_length_a 24.405942
_cell_length_b 14.533570
_cell_length_c 9.242916
_cell_angle_alpha 90.000000
_cell_angle_beta 90.000000
_cell_angle_gamma 90.000000
_cell_volume 3278.512831
_symmetry_space_group_name_H-M "P N M A"
_symmetry_group_IT_number 62
_symmetry_cell_setting 'orthorhombic'
loop_
_space_group_symop_operation_xyz
x,y,z
1/2-x,-y,1/2+z
1/2+x,1/2-y,1/2-z
-x,1/2+y,-z
-x,-y,-z
1/2+x,y,1/2-z
1/2-x,1/2+y,1/2+z
x,1/2-y,z
loop_
_atom_site_type_symbol
_atom_site_label
_atom_site_fract_x
_atom_site_fract_y
_atom_site_fract_z
Si Si1 0.026952 0.858590 0.735004
Si Si2 0.826789 0.974155 0.434245
Si Si3 0.870704 0.447334 0.727089
Si Si4 0.054044 0.056171 0.052077
Si Si5 0.216329 0.857613 0.069892
Si Si6 0.476329 0.360280 0.912558
Si Si7 0.650615 0.641029 0.730122
Si Si8 0.914230 0.860672 0.247011
O O1 0.032104 0.750000 0.720044
O O2 0.018363 0.898096 0.574896
O O3 0.086777 0.887814 0.792937
O O4 0.975469 0.876472 0.835031
O O5 0.768471 0.924119 0.431466
O O6 0.868447 0.910925 0.342179
O O7 0.846843 0.988950 0.599006
O O8 0.826555 0.073420 0.353676
O O9 0.901443 0.499792 0.857172
O O10 0.823435 0.386298 0.799004
O O11 0.918554 0.388597 0.652495
O O12 0.082872 0.105839 0.917988
O O13 0.000000 0.000000 0.000000
O O14 0.231937 0.750000 0.081868
O O15 0.183297 0.869069 0.919188
O O16 0.478729 0.250000 0.917674
O O17 0.526949 0.388878 0.813697
O O18 0.652659 0.750000 0.770661
O O19 0.908245 0.750000 0.254376
#
# Coordination Sequence:
#
# PCOD9464916 Si02
#       8
#     8   8   8   8   8   8   8   8
#     4  10  20  37  59  87 126 165 201 254 316 387
#     4  12  24  43  68  92 130 169 224 269 327 380
#     4  12  24  38  67  95 128 167 215 273 330 389
#     4  12  23  36  59  94 130 168 211 260 322 387
#     4  11  25  45  65  91 125 170 221 275 329 384
#     4  10  21  37  60  94 129 164 208 259 325 394
#     4  10  22  40  66  94 127 166 215 269 324 383
#     4  11  24  41  62  92 133 177 215 261 323 394
#
# _framework density 19.521045999999998
#
# number of rings (size 3 to 8) (size 9 to 14) (size 15 to 20)
#    0.000    1.000    2.500    4.875    0.000    1.500 
#    0.000    1.875    0.000    4.500    0.000    0.000 
#    0.000    0.000    0.000    0.000    0.000    0.000 
#
# Total GULP energy -357688.385442 kJ/mol
# GULP energy per Si atom -5588.881023 kJ/mol
# Density = 1.947662 g / cm^3
# Si number density = 19.521046 Si / 1000 Ang^3
#
#
#
# Elastic Constant Matrix: (Units=GPa)
#
#
# Indices 1 2 3 4 5 6 
#
# 1 66.4392 21.1862 39.5635 0.0000 0.0000 0.0000
# 2 21.1862 79.4593 47.7508 0.0000 0.0000 0.0000
# 3 39.5635 47.7508 116.8494 0.0000 0.0000 0.0000
# 4 0.0000 0.0000 0.0000 25.4488 0.0000 0.0000
# 5 0.0000 0.0000 0.0000 0.0000 23.4345 0.0000
# 6 0.0000 0.0000 0.0000 0.0000 0.0000 39.0654
#
#
#
# Elastic Compliance Matrix: (Units=1/GPa)
#
#
# Indices 1 2 3 4 5 6 
#
# 1 0.019003 -0.001591 -0.005784 0.000000 0.000000 0.000000
# 2 -0.001591 0.016815 -0.006333 0.000000 0.000000 0.000000
# 3 -0.005784 -0.006333 0.013104 0.000000 0.000000 0.000000
# 4 0.000000 0.000000 0.000000 0.039295 0.000000 0.000000
# 5 0.000000 0.000000 0.000000 0.000000 0.042672 0.000000
# 6 0.000000 0.000000 0.000000 0.000000 0.000000 0.025598
#
#
# Mechanical properties :
#
#
# Convention : Reuss Voigt Hill
#
# Bulk Modulus (GPa) = 46.49690 53.30542 49.90116
# Shear Modulus (GPa) = 26.16825 27.87291 27.02058
#
# Velocity S-wave (km/s) = 3.66528 3.78278 3.72449
# Velocity P-wave (km/s) = 6.46397 6.81506 6.64184
#
# Compressibility (1/GPa) = 0.02150681
#
# Stress axis : x y z
#
# Youngs Moduli (GPa) = 52.62341 59.47108 76.31073
#
# Poissons Ratio (x) = 0.09461 0.44138
# Poissons Ratio (y) = 0.08372 0.48326
# Poissons Ratio (z) = 0.30437 0.37662
#
# Static dielectric constant tensor:
#      x y z
#    x 1.650930 0.000000 0.000000 
#    y 0.000000 1.706340 0.000000 
#    z 0.000000 0.000000 1.703530 
# 
# From -- ./inp_files/9485.got.cif
#   From: 2010.05.17/outbox.cif.g08.bks.cpg/sg62_5_cif.got.tgz:9485.got - 2010.06.03 15:25:27.
