data_PCOD9464510
_publ_section_title
;
Structure prediction by ZEFSAII (Michael W. Deem and Ramdas Pophale) SiO2 
 PCOD9464510
Probable space group: P N M A
;
_chemical_formula_sum "Si O2"
_cell_formula_units_Z 48
_cell_length_a 9.704652
_cell_length_b 27.214788
_cell_length_c 9.506854
_cell_angle_alpha 90.000000
_cell_angle_beta 90.000000
_cell_angle_gamma 90.000000
_cell_volume 2510.855655
_symmetry_space_group_name_H-M "P N M A"
_symmetry_group_IT_number 62
_symmetry_cell_setting 'orthorhombic'
loop_
_space_group_symop_operation_xyz
x,y,z
1/2-x,-y,1/2+z
1/2+x,1/2-y,1/2-z
-x,1/2+y,-z
-x,-y,-z
1/2+x,y,1/2-z
1/2-x,1/2+y,1/2+z
x,1/2-y,z
loop_
_atom_site_type_symbol
_atom_site_label
_atom_site_fract_x
_atom_site_fract_y
_atom_site_fract_z
Si Si1 0.797454 0.026573 0.764577
Si Si2 0.880201 0.960513 0.988894
Si Si3 0.035208 0.051089 0.581862
Si Si4 0.557658 0.642334 0.893815
Si Si5 0.612414 0.356930 0.396347
Si Si6 0.940350 0.250000 0.391801
Si Si7 0.113726 0.250000 0.104832
O O1 0.695061 0.053247 0.873447
O O2 0.815215 0.973184 0.835394
O O3 0.945177 0.048848 0.725166
O O4 0.000000 0.000000 0.000000
O O5 0.923763 0.904154 0.988708
O O6 0.777149 0.972240 0.114718
O O7 0.989112 0.097283 0.490282
O O8 0.000000 0.000000 0.500000
O O9 0.722565 0.639461 0.870096
O O10 0.474259 0.639847 0.747619
O O11 0.529921 0.696776 0.959485
O O12 0.585408 0.303094 0.463533
O O13 0.026013 0.250000 0.247633
O O14 0.776709 0.250000 0.361052
#
# Coordination Sequence:
#
# PCOD9464510 Si02
#       7
#     8   8   8   8   8   4   4
#     4  12  24  39  56  82 116 150 194 232 284 344
#     4  12  25  37  58  86 120 153 195 238 291 346
#     4  12  23  38  57  82 114 151 188 236 283 343
#     4  10  20  35  59  85 117 150 192 239 292 343
#     4  10  20  35  58  86 117 150 191 238 292 339
#     4   8  16  32  54  83 111 147 187 237 289 340
#     4   8  16  32  54  83 111 145 189 239 283 338
#
# _framework density 19.116987999999999
#
# number of rings (size 3 to 8) (size 9 to 14) (size 15 to 20)
#    0.000    1.333    5.000    1.000    2.333    0.000 
#    0.000    0.000    0.000    2.000    0.000    1.167 
#    0.000    0.000    0.000    0.000    0.000    0.000 
#
# Total GULP energy -267411.888697 kJ/mol
# GULP energy per Si atom -5571.081015 kJ/mol
# Density = 1.907348 g / cm^3
# Si number density = 19.116988 Si / 1000 Ang^3
#
#
#
# Elastic Constant Matrix: (Units=GPa)
#
#
# Indices 1 2 3 4 5 6 
#
# 1 52.5456 29.9151 1.7999 0.0000 0.0000 0.0000
# 2 29.9151 192.8452 46.6764 0.0000 0.0000 0.0000
# 3 1.7999 46.6764 53.8489 0.0000 0.0000 0.0000
# 4 0.0000 0.0000 0.0000 21.6378 0.0000 0.0000
# 5 0.0000 0.0000 0.0000 0.0000 35.3371 0.0000
# 6 0.0000 0.0000 0.0000 0.0000 0.0000 22.7014
#
#
#
# Elastic Compliance Matrix: (Units=1/GPa)
#
#
# Indices 1 2 3 4 5 6 
#
# 1 0.021182 -0.003941 0.002708 0.000000 0.000000 0.000000
# 2 -0.003941 0.007296 -0.006192 0.000000 0.000000 0.000000
# 3 0.002708 -0.006192 0.023847 0.000000 0.000000 0.000000
# 4 0.000000 0.000000 0.000000 0.046215 0.000000 0.000000
# 5 0.000000 0.000000 0.000000 0.000000 0.028299 0.000000
# 6 0.000000 0.000000 0.000000 0.000000 0.000000 0.044050
#
#
# Mechanical properties :
#
#
# Convention : Reuss Voigt Hill
#
# Bulk Modulus (GPa) = 26.68448 50.66914 38.67681
# Shear Modulus (GPa) = 25.22300 30.65848 27.94074
#
# Velocity S-wave (km/s) = 3.63630 4.00900 3.82719
# Velocity P-wave (km/s) = 5.62308 6.92761 6.30915
#
# Compressibility (1/GPa) = 0.03747496
#
# Stress axis : x y z
#
# Youngs Moduli (GPa) = 47.20933 137.06736 41.93336
#
# Poissons Ratio (x) = 0.54024 -0.11357
# Poissons Ratio (y) = 0.18607 0.25966
# Poissons Ratio (z) = -0.12786 0.84875
#
# Static dielectric constant tensor:
#      x y z
#    x 1.774520 0.000000 0.000000 
#    y 0.000000 1.721640 0.000000 
#    z 0.000000 0.000000 1.672460 
# 
# From -- ./inp_files/17283.got.cif
#   From: 2010.05.17/outbox.cif.g08.bks.cpg/sg62_9_cif.got.tgz:17283.got - 2010.06.03 15:25:27.
