data_PCOD9464653
_publ_section_title
;
Structure prediction by ZEFSAII (Michael W. Deem and Ramdas Pophale) SiO2 
 PCOD9464653
Probable space group: P N M A
;
_chemical_formula_sum "Si O2"
_cell_formula_units_Z 64
_cell_length_a 29.215483
_cell_length_b 7.521088
_cell_length_c 11.774806
_cell_angle_alpha 90.000000
_cell_angle_beta 90.000000
_cell_angle_gamma 90.000000
_cell_volume 2587.304246
_symmetry_space_group_name_H-M "P N M A"
_symmetry_group_IT_number 62
_symmetry_cell_setting 'orthorhombic'
loop_
_space_group_symop_operation_xyz
x,y,z
1/2-x,-y,1/2+z
1/2+x,1/2-y,1/2-z
-x,1/2+y,-z
-x,-y,-z
1/2+x,y,1/2-z
1/2-x,1/2+y,1/2+z
x,1/2-y,z
loop_
_atom_site_type_symbol
_atom_site_label
_atom_site_fract_x
_atom_site_fract_y
_atom_site_fract_z
Si Si1 0.164645 0.046598 0.906976
Si Si2 0.432831 0.466719 0.906011
Si Si3 0.654008 0.547090 0.214290
Si Si4 0.995897 0.546114 0.807923
Si Si5 0.927001 0.468241 0.343428
Si Si6 0.224442 0.543590 0.117557
Si Si7 0.824254 0.447777 0.336016
Si Si8 0.410364 0.532457 0.571378
O O1 0.158785 0.250000 0.870828
O O2 0.116583 0.978465 0.958602
O O3 0.200488 0.043999 0.010045
O O4 0.182291 0.942177 0.799599
O O5 0.433801 0.250000 0.896388
O O6 0.380133 0.526600 0.881385
O O7 0.464674 0.542313 0.806901
O O8 0.446806 0.516621 0.033158
O O9 0.663567 0.750000 0.180152
O O10 0.701090 0.470520 0.265772
O O11 0.620715 0.537238 0.324857
O O12 0.004859 0.750000 0.839579
O O13 0.961966 0.470452 0.903880
O O14 0.042807 0.463984 0.761748
O O15 0.927048 0.250000 0.336691
O O16 0.874627 0.528362 0.345859
O O17 0.211173 0.750000 0.113033
O O18 0.278766 0.532491 0.114912
O O19 0.826812 0.250000 0.384970
O O20 0.409513 0.750000 0.576104
#
# Coordination Sequence:
#
# PCOD9464653 Si02
#       8
#     8   8   8   8   8   8   8   8
#     4  10  20  37  58  79 104 136 172 219 273 321
#     4   9  16  29  49  75 103 134 169 208 258 316
#     4   8  15  27  47  74 103 130 162 204 253 309
#     4   9  16  30  51  76 103 135 174 215 258 311
#     4   9  19  33  49  70 104 145 179 211 258 315
#     4  10  20  36  57  81 105 135 175 220 267 321
#     4  11  23  38  54  76 107 145 182 218 261 314
#     4   8  15  28  50  75  99 128 167 213 260 305
#
# _framework density 24.736170999999999
#
# number of rings (size 3 to 8) (size 9 to 14) (size 15 to 20)
#    0.000    2.750    0.000    1.500    0.000    2.000 
#    0.000    5.625    0.000    0.000    0.000    0.000 
#    0.000    0.000    0.000    0.000    0.000    0.000 
#
# Total GULP energy -357220.388974 kJ/mol
# GULP energy per Si atom -5581.568578 kJ/mol
# Density = 2.467987 g / cm^3
# Si number density = 24.736171 Si / 1000 Ang^3
#
#
#
# Elastic Constant Matrix: (Units=GPa)
#
#
# Indices 1 2 3 4 5 6 
#
# 1 140.0032 -3.2209 26.7974 0.0000 0.0000 0.0000
# 2 -3.2209 77.5598 5.6541 0.0000 0.0000 0.0000
# 3 26.7974 5.6541 42.6509 0.0000 0.0000 0.0000
# 4 0.0000 0.0000 0.0000 23.4381 0.0000 0.0000
# 5 0.0000 0.0000 0.0000 0.0000 32.2079 0.0000
# 6 0.0000 0.0000 0.0000 0.0000 0.0000 -2.9864
#
#
#
# Elastic Compliance Matrix: (Units=1/GPa)
#
#
# Indices 1 2 3 4 5 6 
#
# 1 0.008159 0.000719 -0.005221 0.000000 0.000000 0.000000
# 2 0.000719 0.013083 -0.002186 0.000000 0.000000 0.000000
# 3 -0.005221 -0.002186 0.027017 0.000000 0.000000 0.000000
# 4 0.000000 0.000000 0.000000 0.042666 0.000000 0.000000
# 5 0.000000 0.000000 0.000000 0.000000 0.031048 0.000000
# 6 0.000000 0.000000 0.000000 0.000000 0.000000 -0.334846
#
#
# Mechanical properties :
#
#
# Convention : Reuss Voigt Hill
#
# Bulk Modulus (GPa) = 28.66877 35.40834 32.03855
# Shear Modulus (GPa) = -26.61398 25.93080 -0.34159
#
# Velocity S-wave (km/s) = -3.28367 3.24125 -0.37201
# Velocity P-wave (km/s) = 1.66183 5.32476 3.57711
#
# Compressibility (1/GPa) = 0.03488117
#
# Stress axis : x y z
#
# Youngs Moduli (GPa) = 122.56930 76.43773 37.01432
#
# Poissons Ratio (x) = -0.05499 0.19327
# Poissons Ratio (y) = -0.08818 0.08093
# Poissons Ratio (z) = 0.63999 0.16712
#
# Static dielectric constant tensor:
#      x y z
#    x 2.004760 0.000000 0.000000 
#    y 0.000000 1.929920 0.000000 
#    z 0.000000 0.000000 1.950530 
# 
# From -- ./inp_files/15773.got.cif
#   From: 2010.05.17/outbox.cif.g08.bks.cpg/sg62_8_cif.got.tgz:15773.got - 2010.06.03 15:25:27.
