data_PCOD9464919
_publ_section_title
;
Structure prediction by ZEFSAII (Michael W. Deem and Ramdas Pophale) SiO2 
 PCOD9464919
Probable space group: P N M A
;
_chemical_formula_sum "Si O2"
_cell_formula_units_Z 36
_cell_length_a 15.012566
_cell_length_b 14.851307
_cell_length_c 6.989228
_cell_angle_alpha 90.000000
_cell_angle_beta 90.000000
_cell_angle_gamma 90.000000
_cell_volume 1558.291901
_symmetry_space_group_name_H-M "P N M A"
_symmetry_group_IT_number 62
_symmetry_cell_setting 'orthorhombic'
loop_
_space_group_symop_operation_xyz
x,y,z
1/2-x,-y,1/2+z
1/2+x,1/2-y,1/2-z
-x,1/2+y,-z
-x,-y,-z
1/2+x,y,1/2-z
1/2-x,1/2+y,1/2+z
x,1/2-y,z
loop_
_atom_site_type_symbol
_atom_site_label
_atom_site_fract_x
_atom_site_fract_y
_atom_site_fract_z
Si Si1 0.346531 0.564811 0.834110
Si Si2 0.500840 0.554377 0.301262
Si Si3 0.914612 0.250000 0.828618
Si Si4 0.812179 0.572012 0.112141
Si Si5 0.717244 0.750000 0.041384
Si Si6 0.735046 0.250000 0.092084
O O1 0.432303 0.498332 0.840807
O O2 0.257910 0.508117 0.879651
O O3 0.344070 0.582632 0.605604
O O4 0.327835 0.662023 0.927407
O O5 0.500000 0.500000 0.500000
O O6 0.532927 0.656030 0.349077
O O7 0.396107 0.556477 0.250349
O O8 0.884224 0.250000 0.606490
O O9 0.826850 0.250000 0.967293
O O10 0.760274 0.663845 0.142360
O O11 0.731302 0.750000 0.814869
#
# Coordination Sequence:
#
# PCOD9464919 Si02
#       6
#     8   8   4   8   4   4
#     4  10  20  37  59  89 120 161 209 252 314 368
#     4  10  21  36  64  92 119 167 209 254 317 374
#     4  12  21  41  69  88 126 167 209 248 318 379
#     4  10  20  38  61  86 125 160 205 259 315 364
#     4  10  21  37  63  90 119 163 202 259 304 367
#     4  10  22  36  62  90 123 166 207 255 310 366
#
# _framework density 23.102219000000002
#
# number of rings (size 3 to 8) (size 9 to 14) (size 15 to 20)
#    0.000    1.778    2.222    3.333    0.000    2.667 
#    0.000    2.222    9.778    2.667    0.000    0.000 
#    0.000    0.000    0.000    0.000    0.000    0.000 
#
# Total GULP energy -200860.966227 kJ/mol
# GULP energy per Si atom -5579.471284 kJ/mol
# Density = 2.304964 g / cm^3
# Si number density = 23.102219 Si / 1000 Ang^3
#
#
#
# Elastic Constant Matrix: (Units=GPa)
#
#
# Indices 1 2 3 4 5 6 
#
# 1 122.7552 74.3277 9.6356 0.0000 0.0000 0.0000
# 2 74.3277 219.2768 10.7802 0.0000 0.0000 0.0000
# 3 9.6356 10.7802 68.5298 0.0000 0.0000 0.0000
# 4 0.0000 0.0000 0.0000 77.0481 0.0000 0.0000
# 5 0.0000 0.0000 0.0000 0.0000 -705.6996 0.0000
# 6 0.0000 0.0000 0.0000 0.0000 0.0000 45.9081
#
#
#
# Elastic Compliance Matrix: (Units=1/GPa)
#
#
# Indices 1 2 3 4 5 6 
#
# 1 0.010306 -0.003449 -0.000907 0.000000 0.000000 0.000000
# 2 -0.003449 0.005750 -0.000420 0.000000 0.000000 0.000000
# 3 -0.000907 -0.000420 0.014786 0.000000 0.000000 0.000000
# 4 0.000000 0.000000 0.000000 0.012979 0.000000 0.000000
# 5 0.000000 0.000000 0.000000 0.000000 -0.001417 0.000000
# 6 0.000000 0.000000 0.000000 0.000000 0.000000 0.021783
#
#
# Mechanical properties :
#
#
# Convention : Reuss Voigt Hill
#
# Bulk Modulus (GPa) = 46.96671 66.67209 56.81940
# Shear Modulus (GPa) = 61.85607 -95.49414 -16.81903
#
# Velocity S-wave (km/s) = 5.18007 -6.43624 -2.70112
# Velocity P-wave (km/s) = 7.49343 5.12946 3.86265
#
# Compressibility (1/GPa) = 0.02129168
#
# Stress axis : x y z
#
# Youngs Moduli (GPa) = 97.03442 173.91085 67.63306
#
# Poissons Ratio (x) = 0.59977 0.06131
# Poissons Ratio (y) = 0.33464 0.02838
# Poissons Ratio (z) = 0.08796 0.07298
#
# Static dielectric constant tensor:
#      x y z
#    x 1.919260 0.000000 0.000000 
#    y 0.000000 1.780670 0.000000 
#    z 0.000000 0.000000 2.026470 
# 
# From -- ./inp_files/6041.got.cif
#   From: 2010.05.17/outbox.cif.g08.bks.cpg/sg62_4_cif.got.tgz:6041.got - 2010.06.03 15:25:27.
