data_PCOD9464066
_publ_section_title
;
Structure prediction by ZEFSAII (Michael W. Deem and Ramdas Pophale) SiO2 
 PCOD9464066
Probable space group: P N M A
;
_chemical_formula_sum "Si O2"
_cell_formula_units_Z 48
_cell_length_a 18.720741
_cell_length_b 8.987805
_cell_length_c 16.304240
_cell_angle_alpha 90.000000
_cell_angle_beta 90.000000
_cell_angle_gamma 90.000000
_cell_volume 2743.324839
_symmetry_space_group_name_H-M "P N M A"
_symmetry_group_IT_number 62
_symmetry_cell_setting 'orthorhombic'
loop_
_space_group_symop_operation_xyz
x,y,z
1/2-x,-y,1/2+z
1/2+x,1/2-y,1/2-z
-x,1/2+y,-z
-x,-y,-z
1/2+x,y,1/2-z
1/2-x,1/2+y,1/2+z
x,1/2-y,z
loop_
_atom_site_type_symbol
_atom_site_label
_atom_site_fract_x
_atom_site_fract_y
_atom_site_fract_z
Si Si1 0.204576 0.079325 0.412235
Si Si2 0.211020 0.580688 0.086247
Si Si3 0.076833 0.929104 0.985799
Si Si4 0.336135 0.076315 0.169085
Si Si5 0.663225 0.073280 0.663541
Si Si6 0.922495 0.426507 0.499991
O O1 0.195790 0.250000 0.385056
O O2 0.247296 0.082691 0.499007
O O3 0.256683 0.988281 0.352862
O O4 0.129805 0.001878 0.433345
O O5 0.212559 0.750000 0.118811
O O6 0.130838 0.537692 0.061440
O O7 0.256186 0.472264 0.143129
O O8 0.073615 0.750000 0.978401
O O9 0.112934 0.997588 0.904644
O O10 0.000000 0.000000 0.000000
O O11 0.338365 0.250000 0.190718
O O12 0.385345 0.051783 0.089087
O O13 0.359039 0.978181 0.246093
O O14 0.661667 0.250000 0.654346
O O15 0.926962 0.250000 0.514479
O O16 0.000000 0.500000 0.500000
#
# Coordination Sequence:
#
# PCOD9464066 Si02
#       6
#     8   8   8   8   8   8
#     4   9  17  32  53  75 101 132 169 211 253 303
#     4   8  16  31  51  74  99 130 167 206 249 301
#     4  10  20  35  55  79 108 140 175 214 259 313
#     4  10  20  34  53  77 104 135 173 217 262 308
#     4  11  21  34  54  78 105 137 174 217 263 310
#     4  10  20  34  54  79 107 140 177 215 260 315
#
# _framework density 17.497017
#
# number of rings (size 3 to 8) (size 9 to 14) (size 15 to 20)
#    0.000    2.333    0.000    4.500    0.000    6.667 
#    0.000    1.667    0.000    8.000    0.000    0.000 
#    0.000    0.000    0.000    0.000    0.000    0.000 
#
# Total GULP energy -267724.766153 kJ/mol
# GULP energy per Si atom -5577.599295 kJ/mol
# Density = 1.745719 g / cm^3
# Si number density = 17.497017 Si / 1000 Ang^3
#
#
#
# Elastic Constant Matrix: (Units=GPa)
#
#
# Indices 1 2 3 4 5 6 
#
# 1 137.8306 64.8855 19.0535 0.0000 0.0000 0.0000
# 2 64.8855 122.1323 42.6062 0.0000 0.0000 0.0000
# 3 19.0535 42.6062 41.1797 0.0000 0.0000 0.0000
# 4 0.0000 0.0000 0.0000 27.1823 0.0000 0.0000
# 5 0.0000 0.0000 0.0000 0.0000 12.6202 0.0000
# 6 0.0000 0.0000 0.0000 0.0000 0.0000 32.7266
#
#
#
# Elastic Compliance Matrix: (Units=1/GPa)
#
#
# Indices 1 2 3 4 5 6 
#
# 1 0.009721 -0.005626 0.001323 0.000000 0.000000 0.000000
# 2 -0.005626 0.016068 -0.014022 0.000000 0.000000 0.000000
# 3 0.001323 -0.014022 0.038179 0.000000 0.000000 0.000000
# 4 0.000000 0.000000 0.000000 0.036789 0.000000 0.000000
# 5 0.000000 0.000000 0.000000 0.000000 0.079238 0.000000
# 6 0.000000 0.000000 0.000000 0.000000 0.000000 0.030556
#
#
# Mechanical properties :
#
#
# Convention : Reuss Voigt Hill
#
# Bulk Modulus (GPa) = 36.60465 61.58145 49.09305
# Shear Modulus (GPa) = 19.50782 26.14564 22.82673
#
# Velocity S-wave (km/s) = 3.34267 3.86980 3.61585
# Velocity P-wave (km/s) = 5.98864 7.43229 6.74918
#
# Compressibility (1/GPa) = 0.02731893
#
# Stress axis : x y z
#
# Youngs Moduli (GPa) = 102.87110 62.23405 26.19229
#
# Poissons Ratio (x) = 0.35013 -0.03466
# Poissons Ratio (y) = 0.57876 0.36727
# Poissons Ratio (z) = -0.13611 0.87264
#
# Static dielectric constant tensor:
#      x y z
#    x 1.588380 0.000000 0.000000 
#    y 0.000000 1.584260 0.000000 
#    z 0.000000 0.000000 1.598840 
# 
# From -- ./inp_files/19562.got.cif
#   From: 2010.05.17/outbox.cif.g08.bks.cpg/sg62_10_cif.got.tgz:19562.got - 2010.06.03 15:25:27.
