data_PCOD9464206
_publ_section_title
;
Structure prediction by ZEFSAII (Michael W. Deem and Ramdas Pophale) SiO2 
 PCOD9464206
Probable space group: P N M A
;
_chemical_formula_sum "Si O2"
_cell_formula_units_Z 56
_cell_length_a 20.357310
_cell_length_b 7.901328
_cell_length_c 16.296910
_cell_angle_alpha 90.000000
_cell_angle_beta 90.000000
_cell_angle_gamma 90.000000
_cell_volume 2621.354445
_symmetry_space_group_name_H-M "P N M A"
_symmetry_group_IT_number 62
_symmetry_cell_setting 'orthorhombic'
loop_
_space_group_symop_operation_xyz
x,y,z
1/2-x,-y,1/2+z
1/2+x,1/2-y,1/2-z
-x,1/2+y,-z
-x,-y,-z
1/2+x,y,1/2-z
1/2-x,1/2+y,1/2+z
x,1/2-y,z
loop_
_atom_site_type_symbol
_atom_site_label
_atom_site_fract_x
_atom_site_fract_y
_atom_site_fract_z
Si Si1 0.676221 0.044575 0.838885
Si Si2 0.093503 0.454114 0.323300
Si Si3 0.823886 0.549975 0.833105
Si Si4 0.534665 0.059672 0.582051
Si Si5 0.682303 0.456260 0.027278
Si Si6 0.458333 0.545620 0.240710
Si Si7 0.669551 0.947913 0.520412
O O1 0.679487 0.250000 0.836471
O O2 0.613293 0.985991 0.787713
O O3 0.747241 0.978109 0.811410
O O4 0.666580 0.993023 0.934111
O O5 0.097877 0.250000 0.323086
O O6 0.130283 0.514330 0.240454
O O7 0.132247 0.515824 0.403534
O O8 0.017558 0.503461 0.319930
O O9 0.835518 0.750000 0.843805
O O10 0.836069 0.466277 0.921656
O O11 0.511505 0.250000 0.591841
O O12 0.522821 0.973434 0.669585
O O13 0.500000 0.000000 0.500000
O O14 0.612090 0.048185 0.564553
O O15 0.682231 0.250000 0.027845
O O16 0.757558 0.507301 0.044118
O O17 0.453461 0.750000 0.245593
O O18 0.662243 0.750000 0.541033
#
# Coordination Sequence:
#
# PCOD9464206 Si02
#       7
#     8   8   8   8   8   8   8
#     4   9  19  38  59  79 110 149 187 229 284 338
#     4  10  21  36  55  81 111 145 185 229 276 334
#     4  10  20  34  56  84 115 145 184 233 278 330
#     4  11  23  38  56  81 115 149 190 235 284 343
#     4   8  17  35  57  80 107 142 183 226 275 331
#     4  10  23  39  55  81 114 149 187 233 285 337
#     4  10  20  36  59  82 110 147 186 229 284 339
#
# _framework density 21.363002999999999
#
# number of rings (size 3 to 8) (size 9 to 14) (size 15 to 20)
#    0.000    2.286    0.000    3.000    2.000    5.714 
#    0.000    3.571    0.000    0.000    0.000    0.000 
#    0.000    0.000    0.000    0.000    0.000    0.000 
#
# Total GULP energy -312761.440091 kJ/mol
# GULP energy per Si atom -5585.025716 kJ/mol
# Density = 2.131438 g / cm^3
# Si number density = 21.363003 Si / 1000 Ang^3
#
#
#
# Elastic Constant Matrix: (Units=GPa)
#
#
# Indices 1 2 3 4 5 6 
#
# 1 63.1686 -10.6499 15.8056 0.0000 0.0000 0.0000
# 2 -10.6499 18.3278 -5.0628 0.0000 0.0000 0.0000
# 3 15.8056 -5.0628 32.5634 0.0000 0.0000 0.0000
# 4 0.0000 0.0000 0.0000 13.3854 0.0000 0.0000
# 5 0.0000 0.0000 0.0000 0.0000 30.8356 0.0000
# 6 0.0000 0.0000 0.0000 0.0000 0.0000 28.5076
#
#
#
# Elastic Compliance Matrix: (Units=1/GPa)
#
#
# Indices 1 2 3 4 5 6 
#
# 1 0.019353 0.009039 -0.007988 0.000000 0.000000 0.000000
# 2 0.009039 0.061232 0.005133 0.000000 0.000000 0.000000
# 3 -0.007988 0.005133 0.035385 0.000000 0.000000 0.000000
# 4 0.000000 0.000000 0.000000 0.074708 0.000000 0.000000
# 5 0.000000 0.000000 0.000000 0.000000 0.032430 0.000000
# 6 0.000000 0.000000 0.000000 0.000000 0.000000 0.035078
#
#
# Mechanical properties :
#
#
# Convention : Reuss Voigt Hill
#
# Bulk Modulus (GPa) = 7.79196 12.69394 10.24295
# Shear Modulus (GPa) = 17.32504 22.14349 19.73427
#
# Velocity S-wave (km/s) = 2.85087 3.22302 3.04264
# Velocity P-wave (km/s) = 3.80683 4.45032 4.14109
#
# Compressibility (1/GPa) = 0.12833734
#
# Stress axis : x y z
#
# Youngs Moduli (GPa) = 51.67043 16.33125 28.26078
#
# Poissons Ratio (x) = -0.14762 0.22576
# Poissons Ratio (y) = -0.46706 -0.14505
# Poissons Ratio (z) = 0.41276 -0.08382
#
# Static dielectric constant tensor:
#      x y z
#    x 1.753010 0.000000 0.000000 
#    y 0.000000 1.768850 0.000000 
#    z 0.000000 0.000000 1.793720 
# 
# From -- ./inp_files/20342.got.cif
#   From: 2010.05.17/outbox.cif.g08.bks.cpg/sg62_11_cif.got.tgz:20342.got - 2010.06.03 15:25:27.
