data_PCOD9464440
_publ_section_title
;
Structure prediction by ZEFSAII (Michael W. Deem and Ramdas Pophale) SiO2 
 PCOD9464440
Probable space group: P N M A
;
_chemical_formula_sum "Si O2"
_cell_formula_units_Z 48
_cell_length_a 12.377895
_cell_length_b 8.473421
_cell_length_c 24.001227
_cell_angle_alpha 90.000000
_cell_angle_beta 90.000000
_cell_angle_gamma 90.000000
_cell_volume 2517.323462
_symmetry_space_group_name_H-M "P N M A"
_symmetry_group_IT_number 62
_symmetry_cell_setting 'orthorhombic'
loop_
_space_group_symop_operation_xyz
x,y,z
1/2-x,-y,1/2+z
1/2+x,1/2-y,1/2-z
-x,1/2+y,-z
-x,-y,-z
1/2+x,y,1/2-z
1/2-x,1/2+y,1/2+z
x,1/2-y,z
loop_
_atom_site_type_symbol
_atom_site_label
_atom_site_fract_x
_atom_site_fract_y
_atom_site_fract_z
Si Si1 0.314921 0.058042 0.045222
Si Si2 0.775556 0.440517 0.580186
Si Si3 0.338401 0.938938 0.646038
Si Si4 0.919129 0.940806 0.155905
Si Si5 0.150820 0.060888 0.720915
Si Si6 0.004466 0.060842 0.375016
O O1 0.315238 0.250000 0.043830
O O2 0.222346 0.009986 0.089106
O O3 0.428632 0.009308 0.072804
O O4 0.294142 0.000809 0.982855
O O5 0.773898 0.250000 0.578684
O O6 0.663766 0.493781 0.607986
O O7 0.876931 0.492636 0.617243
O O8 0.335774 0.750000 0.647855
O O9 0.460272 0.997258 0.648431
O O10 0.264628 0.002243 0.696426
O O11 0.922606 0.750000 0.155253
O O12 0.872417 0.989983 0.216041
O O13 0.149316 0.250000 0.718812
O O14 0.057954 0.996148 0.679911
O O15 0.008475 0.250000 0.374534
#
# Coordination Sequence:
#
# PCOD9464440 Si02
#       6
#     8   8   8   8   8   8
#     4   8  17  35  57  81 113 147 184 227 277 332
#     4  10  20  36  57  82 113 151 188 229 275 328
#     4  10  21  38  59  83 111 145 184 229 281 332
#     4  10  23  38  55  81 111 147 189 228 273 331
#     4  10  21  38  58  79 109 148 189 231 275 332
#     4  10  20  35  56  86 115 144 185 235 284 332
#
# _framework density 19.067871
#
# number of rings (size 3 to 8) (size 9 to 14) (size 15 to 20)
#    0.000    2.333    0.000    3.000    2.333    2.667 
#    0.000    4.167    0.000    0.000    0.000    0.000 
#    0.000    0.000    0.000    0.000    0.000    0.000 
#
# Total GULP energy -268008.371337 kJ/mol
# GULP energy per Si atom -5583.507736 kJ/mol
# Density = 1.902447 g / cm^3
# Si number density = 19.067871 Si / 1000 Ang^3
#
#
#
# Elastic Constant Matrix: (Units=GPa)
#
#
# Indices 1 2 3 4 5 6 
#
# 1 121.6567 11.8815 5.3816 0.0000 0.0000 0.0000
# 2 11.8815 11.7943 6.6839 0.0000 0.0000 0.0000
# 3 5.3816 6.6839 26.5252 0.0000 0.0000 0.0000
# 4 0.0000 0.0000 0.0000 19.8202 0.0000 0.0000
# 5 0.0000 0.0000 0.0000 0.0000 11.7124 0.0000
# 6 0.0000 0.0000 0.0000 0.0000 0.0000 29.6799
#
#
#
# Elastic Compliance Matrix: (Units=1/GPa)
#
#
# Indices 1 2 3 4 5 6 
#
# 1 0.009124 -0.009498 0.000542 0.000000 0.000000 0.000000
# 2 -0.009498 0.108800 -0.025488 0.000000 0.000000 0.000000
# 3 0.000542 -0.025488 0.044013 0.000000 0.000000 0.000000
# 4 0.000000 0.000000 0.000000 0.050454 0.000000 0.000000
# 5 0.000000 0.000000 0.000000 0.000000 0.085380 0.000000
# 6 0.000000 0.000000 0.000000 0.000000 0.000000 0.033693
#
#
# Mechanical properties :
#
#
# Convention : Reuss Voigt Hill
#
# Bulk Modulus (GPa) = 10.74727 23.09669 16.92198
# Shear Modulus (GPa) = 11.59107 21.31111 16.45109
#
# Velocity S-wave (km/s) = 2.46821 3.34675 2.94047
# Velocity P-wave (km/s) = 3.71097 5.20322 4.51911
#
# Compressibility (1/GPa) = 0.09304690
#
# Stress axis : x y z
#
# Youngs Moduli (GPa) = 109.60704 9.19120 22.72080
#
# Poissons Ratio (x) = 0.08730 -0.01232
# Poissons Ratio (y) = 1.04108 0.57912
# Poissons Ratio (z) = -0.05945 0.23427
#
# Static dielectric constant tensor:
#      x y z
#    x 1.629170 0.000000 0.000000 
#    y 0.000000 1.649560 0.000000 
#    z 0.000000 0.000000 1.667630 
# 
# From -- ./inp_files/29253.got.cif
#   From: 2010.05.17/outbox.cif.g08.bks.cpg/sg62_15_cif.got.tgz:29253.got - 2010.06.03 15:25:27.
