data_PCOD9464656
_publ_section_title
;
Structure prediction by ZEFSAII (Michael W. Deem and Ramdas Pophale) SiO2 
 PCOD9464656
Probable space group: P N M A
;
_chemical_formula_sum "Si O2"
_cell_formula_units_Z 40
_cell_length_a 13.868525
_cell_length_b 14.686182
_cell_length_c 7.156155
_cell_angle_alpha 90.000000
_cell_angle_beta 90.000000
_cell_angle_gamma 90.000000
_cell_volume 1457.534752
_symmetry_space_group_name_H-M "P N M A"
_symmetry_group_IT_number 62
_symmetry_cell_setting 'orthorhombic'
loop_
_space_group_symop_operation_xyz
x,y,z
1/2-x,-y,1/2+z
1/2+x,1/2-y,1/2-z
-x,1/2+y,-z
-x,-y,-z
1/2+x,y,1/2-z
1/2-x,1/2+y,1/2+z
x,1/2-y,z
loop_
_atom_site_type_symbol
_atom_site_label
_atom_site_fract_x
_atom_site_fract_y
_atom_site_fract_z
Si Si1 0.404958 0.149719 0.639536
Si Si2 0.128200 0.656827 0.695037
Si Si3 0.058969 0.413552 0.415905
Si Si4 0.892001 0.860647 0.015542
Si Si5 0.251727 0.010033 0.570505
O O1 0.379945 0.250000 0.713056
O O2 0.395571 0.156748 0.414005
O O3 0.517618 0.126810 0.656868
O O4 0.331233 0.069616 0.682791
O O5 0.183198 0.750000 0.655631
O O6 0.191872 0.569845 0.666168
O O7 0.032227 0.655060 0.569453
O O8 0.080482 0.392242 0.195618
O O9 0.167657 0.420889 0.497654
O O10 0.000000 0.500000 0.500000
O O11 0.874098 0.750000 0.020686
O O12 0.815688 0.940251 0.061087
#
# Coordination Sequence:
#
# PCOD9464656 Si02
#       5
#     8   8   8   8   8
#     4   9  19  34  53  77 108 142 178 222 272 320
#     4   9  18  34  54  78 105 139 183 224 263 322
#     4   9  19  33  52  79 108 138 173 218 266 310
#     4  10  20  36  57  81 107 141 183 224 265 320
#     4  11  19  29  52  85 111 134 174 228 276 316
#
# _framework density 27.443601000000001
#
# number of rings (size 3 to 8) (size 9 to 14) (size 15 to 20)
#    0.000    2.400    0.000    4.200    0.000    3.200 
#    0.000    0.000    0.000   16.800    0.000   36.400 
#    0.000    0.000    0.000    0.000    0.000    0.000 
#
# Total GULP energy -222864.130931 kJ/mol
# GULP energy per Si atom -5571.603273 kJ/mol
# Density = 2.738114 g / cm^3
# Si number density = 27.443601 Si / 1000 Ang^3
#
#
#
# Elastic Constant Matrix: (Units=GPa)
#
#
# Indices 1 2 3 4 5 6 
#
# 1 185.0846 89.1264 14.3818 0.0000 0.0000 0.0000
# 2 89.1264 230.5144 28.9965 0.0000 0.0000 0.0000
# 3 14.3818 28.9965 62.1877 0.0000 0.0000 0.0000
# 4 0.0000 0.0000 0.0000 23.4340 0.0000 0.0000
# 5 0.0000 0.0000 0.0000 0.0000 49.5717 0.0000
# 6 0.0000 0.0000 0.0000 0.0000 0.0000 153.6393
#
#
#
# Elastic Compliance Matrix: (Units=1/GPa)
#
#
# Indices 1 2 3 4 5 6 
#
# 1 0.006647 -0.002525 -0.000360 0.000000 0.000000 0.000000
# 2 -0.002525 0.005567 -0.002012 0.000000 0.000000 0.000000
# 3 -0.000360 -0.002012 0.017102 0.000000 0.000000 0.000000
# 4 0.000000 0.000000 0.000000 0.042673 0.000000 0.000000
# 5 0.000000 0.000000 0.000000 0.000000 0.020173 0.000000
# 6 0.000000 0.000000 0.000000 0.000000 0.000000 0.006509
#
#
# Mechanical properties :
#
#
# Convention : Reuss Voigt Hill
#
# Bulk Modulus (GPa) = 51.22301 82.53291 66.87796
# Shear Modulus (GPa) = 43.48921 68.34779 55.91850
#
# Velocity S-wave (km/s) = 3.98512 4.99589 4.51885
# Velocity P-wave (km/s) = 6.31508 7.96351 7.18671
#
# Compressibility (1/GPa) = 0.01952248
#
# Stress axis : x y z
#
# Youngs Moduli (GPa) = 150.45293 179.61949 58.47350
#
# Poissons Ratio (x) = 0.45346 0.02105
# Poissons Ratio (y) = 0.37983 0.11765
# Poissons Ratio (z) = 0.05416 0.36140
#
# Static dielectric constant tensor:
#      x y z
#    x 2.170580 0.000000 0.000000 
#    y 0.000000 2.127690 0.000000 
#    z 0.000000 0.000000 2.257580 
# 
# From -- ./inp_files/13088.got.cif
#   From: 2010.05.17/outbox.cif.g08.bks.cpg/sg62_7_cif.got.tgz:13088.got - 2010.06.03 15:25:27.
