data_PCOD9464010
_publ_section_title
;
Structure prediction by ZEFSAII (Michael W. Deem and Ramdas Pophale) SiO2 
 PCOD9464010
Probable space group: P N M A
;
_chemical_formula_sum "Si O2"
_cell_formula_units_Z 36
_cell_length_a 14.777945
_cell_length_b 12.669447
_cell_length_c 6.790200
_cell_angle_alpha 90.000000
_cell_angle_beta 90.000000
_cell_angle_gamma 90.000000
_cell_volume 1271.318220
_symmetry_space_group_name_H-M "P N M A"
_symmetry_group_IT_number 62
_symmetry_cell_setting 'orthorhombic'
loop_
_space_group_symop_operation_xyz
x,y,z
1/2-x,-y,1/2+z
1/2+x,1/2-y,1/2-z
-x,1/2+y,-z
-x,-y,-z
1/2+x,y,1/2-z
1/2-x,1/2+y,1/2+z
x,1/2-y,z
loop_
_atom_site_type_symbol
_atom_site_label
_atom_site_fract_x
_atom_site_fract_y
_atom_site_fract_z
Si Si1 0.302554 0.900045 0.666436
Si Si2 0.454279 0.866244 0.206346
Si Si3 0.655555 0.750000 0.819811
Si Si4 0.749025 0.635628 0.380225
Si Si5 0.503272 0.098230 0.258923
O O1 0.217778 0.842633 0.565936
O O2 0.405632 0.865774 0.631458
O O3 0.299634 0.025780 0.655674
O O4 0.277787 0.864110 0.889088
O O5 0.488192 0.750000 0.263363
O O6 0.345978 0.869933 0.227000
O O7 0.493789 0.973470 0.290891
O O8 0.476433 0.877658 0.972359
O O9 0.590344 0.658638 0.715565
O O10 0.705346 0.750000 0.347693
#
# Coordination Sequence:
#
# PCOD9464010 Si02
#       5
#     8   8   4   8   8
#     4  11  23  40  65  91 127 166 207 261 317 369
#     4   9  17  33  58  86 118 149 205 270 293 346
#     4  12  20  38  60  88 122 168 200 266 302 376
#     4  10  21  41  63  92 128 161 208 261 316 369
#     4  10  20  33  58  91 114 159 212 243 307 374
#
# _framework density 28.317064999999999
#
# number of rings (size 3 to 8) (size 9 to 14) (size 15 to 20)
#    0.000    1.778    4.444    0.667    0.000    0.889 
#    2.000    1.111    0.000    0.000    0.000    0.000 
#    0.000    0.000    0.000    0.000    0.000    0.000 
#
# Total GULP energy -200711.950622 kJ/mol
# GULP energy per Si atom -5575.331962 kJ/mol
# Density = 2.825261 g / cm^3
# Si number density = 28.317065 Si / 1000 Ang^3
#
#
#
# Elastic Constant Matrix: (Units=GPa)
#
#
# Indices 1 2 3 4 5 6 
#
# 1 181.6938 89.8273 2.9247 0.0000 0.0000 0.0000
# 2 89.8273 346.7932 13.7013 0.0000 0.0000 0.0000
# 3 2.9247 13.7013 87.2335 0.0000 0.0000 0.0000
# 4 0.0000 0.0000 0.0000 33.5990 0.0000 0.0000
# 5 0.0000 0.0000 0.0000 0.0000 33.4591 0.0000
# 6 0.0000 0.0000 0.0000 0.0000 0.0000 -16.7400
#
#
#
# Elastic Compliance Matrix: (Units=1/GPa)
#
#
# Indices 1 2 3 4 5 6 
#
# 1 0.006312 -0.001637 0.000045 0.000000 0.000000 0.000000
# 2 -0.001637 0.003326 -0.000468 0.000000 0.000000 0.000000
# 3 0.000045 -0.000468 0.011535 0.000000 0.000000 0.000000
# 4 0.000000 0.000000 0.000000 0.029763 0.000000 0.000000
# 5 0.000000 0.000000 0.000000 0.000000 0.029887 0.000000
# 6 0.000000 0.000000 0.000000 0.000000 0.000000 -0.059737
#
#
# Mechanical properties :
#
#
# Convention : Reuss Voigt Hill
#
# Bulk Modulus (GPa) = 58.63073 92.06966 75.35019
# Shear Modulus (GPa) = 161.86703 44.01477 102.94090
#
# Velocity S-wave (km/s) = 7.56878 3.94681 6.03588
# Velocity P-wave (km/s) = 9.85556 7.30439 8.67428
#
# Compressibility (1/GPa) = 0.01705590
#
# Stress axis : x y z
#
# Youngs Moduli (GPa) = 158.42196 300.66091 86.68968
#
# Poissons Ratio (x) = 0.49213 -0.00394
# Poissons Ratio (y) = 0.25931 0.04053
# Poissons Ratio (z) = -0.00720 0.14057
#
# Static dielectric constant tensor:
#      x y z
#    x 2.290870 0.000000 0.000000 
#    y 0.000000 2.088260 0.000000 
#    z 0.000000 0.000000 2.471390 
# 
# From -- ./inp_files/12937.got.cif
#   From: 2010.05.17/outbox.cif.g08.bks.cpg/sg62_7_cif.got.tgz:12937.got - 2010.06.03 15:25:27.
