data_PCOD9464748
_publ_section_title
;
Structure prediction by ZEFSAII (Michael W. Deem and Ramdas Pophale) SiO2 
 PCOD9464748
Probable space group: P N M A
;
_chemical_formula_sum "Si O2"
_cell_formula_units_Z 48
_cell_length_a 9.073789
_cell_length_b 14.397756
_cell_length_c 21.267045
_cell_angle_alpha 90.000000
_cell_angle_beta 90.000000
_cell_angle_gamma 90.000000
_cell_volume 2778.373547
_symmetry_space_group_name_H-M "P N M A"
_symmetry_group_IT_number 62
_symmetry_cell_setting 'orthorhombic'
loop_
_space_group_symop_operation_xyz
x,y,z
1/2-x,-y,1/2+z
1/2+x,1/2-y,1/2-z
-x,1/2+y,-z
-x,-y,-z
1/2+x,y,1/2-z
1/2-x,1/2+y,1/2+z
x,1/2-y,z
loop_
_atom_site_type_symbol
_atom_site_label
_atom_site_fract_x
_atom_site_fract_y
_atom_site_fract_z
Si Si1 0.562739 0.947063 0.180496
Si Si2 0.583519 0.063847 0.695808
Si Si3 0.588137 0.750000 0.320278
Si Si4 0.084237 0.250000 0.642930
Si Si5 0.594526 0.451916 0.553010
Si Si6 0.908271 0.951174 0.554539
Si Si7 0.327867 0.750000 0.994228
Si Si8 0.000299 0.250000 0.964476
O O1 0.738415 0.935017 0.194270
O O2 0.478350 0.985423 0.242166
O O3 0.502033 0.845683 0.158207
O O4 0.536046 0.018940 0.123386
O O5 0.499707 0.161778 0.704342
O O6 0.537541 0.035177 0.624793
O O7 0.764686 0.750000 0.315227
O O8 0.564985 0.750000 0.394627
O O9 0.122716 0.250000 0.568018
O O10 0.500000 0.500000 0.500000
O O11 0.750711 0.499629 0.551442
O O12 0.595289 0.343428 0.534333
O O13 0.887909 0.842766 0.539116
O O14 0.000000 0.000000 0.500000
O O15 0.147307 0.750000 0.992973
#
# Coordination Sequence:
#
# PCOD9464748 Si02
#       8
#     8   8   4   4   8   8   4   4
#     4  11  22  36  55  83 117 157 189 236 287 357
#     4  10  21  34  52  80 118 152 191 233 287 347
#     4   9  18  32  51  83 115 150 181 231 288 362
#     4  11  20  32  59  81 117 153 185 230 300 357
#     4  10  20  36  59  86 117 156 195 240 287 352
#     4  11  23  37  59  87 118 152 194 241 293 344
#     4  11  20  37  59  85 118 152 190 248 294 339
#     4   9  18  33  59  85 118 153 190 235 292 342
#
# _framework density 17.276295000000001
#
# number of rings (size 3 to 8) (size 9 to 14) (size 15 to 20)
#    0.000    1.667    3.333    2.000    0.000    4.000 
#    0.000    0.000    0.000    5.000    0.000    0.000 
#    0.000    0.000    0.000    0.000    0.000    0.000 
#
# Total GULP energy -267362.001241 kJ/mol
# GULP energy per Si atom -5570.041693 kJ/mol
# Density = 1.723697 g / cm^3
# Si number density = 17.276295 Si / 1000 Ang^3
#
#
#
# Elastic Constant Matrix: (Units=GPa)
#
#
# Indices 1 2 3 4 5 6 
#
# 1 59.2991 28.4009 53.8185 0.0000 0.0000 0.0000
# 2 28.4009 118.8691 59.2737 0.0000 0.0000 0.0000
# 3 53.8185 59.2737 153.5228 0.0000 0.0000 0.0000
# 4 0.0000 0.0000 0.0000 17.9484 0.0000 0.0000
# 5 0.0000 0.0000 0.0000 0.0000 32.6307 0.0000
# 6 0.0000 0.0000 0.0000 0.0000 0.0000 16.4261
#
#
#
# Elastic Compliance Matrix: (Units=1/GPa)
#
#
# Indices 1 2 3 4 5 6 
#
# 1 0.025108 -0.001994 -0.008032 0.000000 0.000000 0.000000
# 2 -0.001994 0.010577 -0.003385 0.000000 0.000000 0.000000
# 3 -0.008032 -0.003385 0.010636 0.000000 0.000000 0.000000
# 4 0.000000 0.000000 0.000000 0.055715 0.000000 0.000000
# 5 0.000000 0.000000 0.000000 0.000000 0.030646 0.000000
# 6 0.000000 0.000000 0.000000 0.000000 0.000000 0.060879
#
#
# Mechanical properties :
#
#
# Convention : Reuss Voigt Hill
#
# Bulk Modulus (GPa) = 51.28175 68.29744 59.78959
# Shear Modulus (GPa) = 22.03784 26.08090 24.05937
#
# Velocity S-wave (km/s) = 3.57544 3.88962 3.73584
# Velocity P-wave (km/s) = 6.84053 7.73243 7.30011
#
# Compressibility (1/GPa) = 0.01950012
#
# Stress axis : x y z
#
# Youngs Moduli (GPa) = 39.82740 94.54722 94.01893
#
# Poissons Ratio (x) = 0.18851 0.75517
# Poissons Ratio (y) = 0.07941 0.31822
# Poissons Ratio (z) = 0.31990 0.32001
#
# Static dielectric constant tensor:
#      x y z
#    x 1.588920 0.000000 0.000000 
#    y 0.000000 1.646600 0.000000 
#    z 0.000000 0.000000 1.669850 
# 
# From -- ./inp_files/25905.got.cif
#   From: 2010.05.17/outbox.cif.g08.bks.cpg/sg62_13_cif.got.tgz:25905.got - 2010.06.03 15:25:27.
