data_PCOD9464274
_publ_section_title
;
Structure prediction by ZEFSAII (Michael W. Deem and Ramdas Pophale) SiO2 
 PCOD9464274
Probable space group: P N M A
;
_chemical_formula_sum "Si O2"
_cell_formula_units_Z 52
_cell_length_a 21.038408
_cell_length_b 20.293539
_cell_length_c 5.022402
_cell_angle_alpha 90.000000
_cell_angle_beta 90.000000
_cell_angle_gamma 90.000000
_cell_volume 2144.283160
_symmetry_space_group_name_H-M "P N M A"
_symmetry_group_IT_number 62
_symmetry_cell_setting 'orthorhombic'
loop_
_space_group_symop_operation_xyz
x,y,z
1/2-x,-y,1/2+z
1/2+x,1/2-y,1/2-z
-x,1/2+y,-z
-x,-y,-z
1/2+x,y,1/2-z
1/2-x,1/2+y,1/2+z
x,1/2-y,z
loop_
_atom_site_type_symbol
_atom_site_label
_atom_site_fract_x
_atom_site_fract_y
_atom_site_fract_z
Si Si1 0.871659 0.750000 0.234537
Si Si2 0.334000 0.966610 0.233654
Si Si3 0.920303 0.635745 0.521458
Si Si4 0.692332 0.352083 0.398269
Si Si5 0.538881 0.826992 0.673650
Si Si6 0.211322 0.593958 0.958288
Si Si7 0.623105 0.673153 0.177942
O O1 0.924169 0.690821 0.292499
O O2 0.818350 0.693310 0.150997
O O3 0.394161 0.933087 0.090445
O O4 0.323789 0.925442 0.504801
O O5 0.333716 0.042665 0.305691
O O6 0.272056 0.948260 0.059574
O O7 0.863605 0.669415 0.697327
O O8 0.981124 0.631350 0.707241
O O9 0.757906 0.352675 0.241225
O O10 0.519121 0.750000 0.687743
O O11 0.597339 0.834332 0.880690
O O12 0.564777 0.841742 0.381501
O O13 0.178267 0.626702 0.210882
O O14 0.640143 0.750000 0.218386
#
# Coordination Sequence:
#
# PCOD9464274 Si02
#       7
#     4   8   8   8   8   8   8
#     4  10  20  34  60  98 120 156 198 272 322 362
#     4  10  22  39  63  90 120 169 208 259 325 371
#     4  10  21  37  62  95 124 158 213 265 317 376
#     4  10  22  36  62  91 127 159 204 261 327 374
#     4  10  22  42  65  91 127 170 212 259 326 385
#     4  11  22  42  62  89 128 169 213 260 315 396
#     4  10  25  42  65  94 127 173 213 257 320 387
#
# _framework density 24.250527000000002
#
# number of rings (size 3 to 8) (size 9 to 14) (size 15 to 20)
#    0.000    1.846    2.308    0.462    7.538    0.000 
#    5.538    1.538    0.000    0.000    0.000    0.000 
#    0.000    0.000    0.000    0.000    0.000    0.000 
#
# Total GULP energy -289973.262519 kJ/mol
# GULP energy per Si atom -5576.408895 kJ/mol
# Density = 2.419533 g / cm^3
# Si number density = 24.250527 Si / 1000 Ang^3
#
#
#
# Elastic Constant Matrix: (Units=GPa)
#
#
# Indices 1 2 3 4 5 6 
#
# 1 55.0797 14.7641 4.6430 0.0000 0.0000 0.0000
# 2 14.7641 68.1130 3.2978 0.0000 0.0000 0.0000
# 3 4.6430 3.2978 62.6587 0.0000 0.0000 0.0000
# 4 0.0000 0.0000 0.0000 3106.6164 0.0000 0.0000
# 5 0.0000 0.0000 0.0000 0.0000 35.7097 0.0000
# 6 0.0000 0.0000 0.0000 0.0000 0.0000 21.7217
#
#
#
# Elastic Compliance Matrix: (Units=1/GPa)
#
#
# Indices 1 2 3 4 5 6 
#
# 1 0.019368 -0.004139 -0.001217 0.000000 0.000000 0.000000
# 2 -0.004139 0.015604 -0.000515 0.000000 0.000000 0.000000
# 3 -0.001217 -0.000515 0.016077 0.000000 0.000000 0.000000
# 4 0.000000 0.000000 0.000000 0.000322 0.000000 0.000000
# 5 0.000000 0.000000 0.000000 0.000000 0.028004 0.000000
# 6 0.000000 0.000000 0.000000 0.000000 0.000000 0.046037
#
#
# Mechanical properties :
#
#
# Convention : Reuss Voigt Hill
#
# Bulk Modulus (GPa) = 25.44141 25.69570 25.56856
# Shear Modulus (GPa) = 33.27692 643.68599 338.48146
#
# Velocity S-wave (km/s) = 3.70836 16.30975 11.82709
# Velocity P-wave (km/s) = 5.37120 19.11272 14.03827
#
# Compressibility (1/GPa) = 0.03930600
#
# Stress axis : x y z
#
# Youngs Moduli (GPa) = 51.63257 64.08777 62.20160
#
# Poissons Ratio (x) = 0.26527 0.07572
# Poissons Ratio (y) = 0.21372 0.03200
# Poissons Ratio (z) = 0.06285 0.03297
#
# Static dielectric constant tensor:
#      x y z
#    x 1.997840 0.000000 0.000000 
#    y 0.000000 19.512890 0.000000 
#    z 0.000000 0.000000 2.114370 
# 
# From -- ./inp_files/2232.got.cif
#   From: 2010.05.17/outbox.cif.g08.bks.cpg/sg62_2_cif.got.tgz:2232.got - 2010.06.03 15:25:27.
