data_PCOD9464453
_publ_section_title
;
Structure prediction by ZEFSAII (Michael W. Deem and Ramdas Pophale) SiO2 
 PCOD9464453
Probable space group: P N M A
;
_chemical_formula_sum "Si O2"
_cell_formula_units_Z 64
_cell_length_a 5.377683
_cell_length_b 23.288511
_cell_length_c 25.594152
_cell_angle_alpha 90.000000
_cell_angle_beta 90.000000
_cell_angle_gamma 90.000000
_cell_volume 3205.366287
_symmetry_space_group_name_H-M "P N M A"
_symmetry_group_IT_number 62
_symmetry_cell_setting 'orthorhombic'
loop_
_space_group_symop_operation_xyz
x,y,z
1/2-x,-y,1/2+z
1/2+x,1/2-y,1/2-z
-x,1/2+y,-z
-x,-y,-z
1/2+x,y,1/2-z
1/2-x,1/2+y,1/2+z
x,1/2-y,z
loop_
_atom_site_type_symbol
_atom_site_label
_atom_site_fract_x
_atom_site_fract_y
_atom_site_fract_z
Si Si1 0.154180 0.033402 0.076835
Si Si2 0.799474 0.895425 0.021638
Si Si3 0.670381 0.815138 0.418670
Si Si4 0.090089 0.423908 0.608344
Si Si5 0.440059 0.891741 0.778299
Si Si6 0.173146 0.095574 0.392045
Si Si7 0.552222 0.313565 0.029101
Si Si8 0.430067 0.468902 0.780176
O O1 0.426839 0.058977 0.092390
O O2 0.923367 0.058006 0.109979
O O3 0.186005 0.966415 0.090674
O O4 0.103744 0.055030 0.017481
O O5 0.584804 0.923319 0.057195
O O6 0.946962 0.855489 0.062175
O O7 0.700935 0.847608 0.980647
O O8 0.612373 0.750000 0.401089
O O9 0.823404 0.858300 0.381860
O O10 0.828797 0.809651 0.471892
O O11 0.964809 0.447501 0.660702
O O12 0.709406 0.873698 0.757805
O O13 0.385636 0.874608 0.837400
O O14 0.436241 0.961591 0.780264
O O15 0.211620 0.144475 0.435212
O O16 0.520820 0.250000 0.050478
O O17 0.670587 0.450619 0.746109
#
# Coordination Sequence:
#
# PCOD9464453 Si02
#       8
#     8   8   8   8   8   8   8   8
#     4  11  23  36  58  91 129 158 195 237 308 372
#     4  10  21  37  56  90 124 167 192 247 297 368
#     4  10  21  38  60  85 117 160 208 242 291 362
#     4  11  24  37  61  87 123 158 197 254 307 367
#     4  10  20  35  57  81 115 157 198 247 303 359
#     4  11  21  37  58  88 122 158 199 252 298 361
#     4   9  19  37  57  83 117 161 208 243 286 352
#     4  10  23  39  60  88 117 154 198 249 303 364
#
# _framework density 19.966518000000001
#
# number of rings (size 3 to 8) (size 9 to 14) (size 15 to 20)
#    0.000    1.750    2.500    1.500    7.000    1.000 
#    0.000    0.000    0.000    1.500    0.000    0.000 
#    0.000    0.000    0.000    0.000    0.000    0.000 
#
# Total GULP energy -356855.733127 kJ/mol
# GULP energy per Si atom -5575.870830 kJ/mol
# Density = 1.992107 g / cm^3
# Si number density = 19.966518 Si / 1000 Ang^3
#
#
#
# Elastic Constant Matrix: (Units=GPa)
#
#
# Indices 1 2 3 4 5 6 
#
# 1 76.5806 24.8600 12.3792 0.0000 0.0000 0.0000
# 2 24.8600 84.9189 8.4436 0.0000 0.0000 0.0000
# 3 12.3792 8.4436 48.4915 0.0000 0.0000 0.0000
# 4 0.0000 0.0000 0.0000 -179.4113 0.0000 0.0000
# 5 0.0000 0.0000 0.0000 0.0000 23.6564 0.0000
# 6 0.0000 0.0000 0.0000 0.0000 0.0000 -16.5662
#
#
#
# Elastic Compliance Matrix: (Units=1/GPa)
#
#
# Indices 1 2 3 4 5 6 
#
# 1 0.014871 -0.004046 -0.003092 0.000000 0.000000 0.000000
# 2 -0.004046 0.013084 -0.001245 0.000000 0.000000 0.000000
# 3 -0.003092 -0.001245 0.021628 0.000000 0.000000 0.000000
# 4 0.000000 0.000000 0.000000 -0.005574 0.000000 0.000000
# 5 0.000000 0.000000 0.000000 0.000000 0.042272 0.000000
# 6 0.000000 0.000000 0.000000 0.000000 0.000000 -0.060364
#
#
# Mechanical properties :
#
#
# Convention : Reuss Voigt Hill
#
# Bulk Modulus (GPa) = 30.47191 33.48407 31.97799
# Shear Modulus (GPa) = 93.24159 -23.51034 34.86562
#
# Velocity S-wave (km/s) = 6.84108 -3.43518 4.18329
# Velocity P-wave (km/s) = 8.81448 1.03566 6.27566
#
# Compressibility (1/GPa) = 0.03281711
#
# Stress axis : x y z
#
# Youngs Moduli (GPa) = 67.24304 76.42755 46.23566
#
# Poissons Ratio (x) = 0.30924 0.14296
# Poissons Ratio (y) = 0.27208 0.05758
# Poissons Ratio (z) = 0.20791 0.09518
#
# Static dielectric constant tensor:
#      x y z
#    x 1.808970 0.000000 0.000000 
#    y 0.000000 1.736810 0.000000 
#    z 0.000000 0.000000 1.707800 
# 
# From -- ./inp_files/28461.got.cif
#   From: 2010.05.17/outbox.cif.g08.bks.cpg/sg62_15_cif.got.tgz:28461.got - 2010.06.03 15:25:27.
