data_PCOD9464269
_publ_section_title
;
Structure prediction by ZEFSAII (Michael W. Deem and Ramdas Pophale) SiO2 
 PCOD9464269
Probable space group: P N M A
;
_chemical_formula_sum "Si O2"
_cell_formula_units_Z 64
_cell_length_a 9.625260
_cell_length_b 19.931188
_cell_length_c 18.427532
_cell_angle_alpha 90.000000
_cell_angle_beta 90.000000
_cell_angle_gamma 90.000000
_cell_volume 3535.190563
_symmetry_space_group_name_H-M "P N M A"
_symmetry_group_IT_number 62
_symmetry_cell_setting 'orthorhombic'
loop_
_space_group_symop_operation_xyz
x,y,z
1/2-x,-y,1/2+z
1/2+x,1/2-y,1/2-z
-x,1/2+y,-z
-x,-y,-z
1/2+x,y,1/2-z
1/2-x,1/2+y,1/2+z
x,1/2-y,z
loop_
_atom_site_type_symbol
_atom_site_label
_atom_site_fract_x
_atom_site_fract_y
_atom_site_fract_z
Si Si1 0.353088 0.828053 0.403942
Si Si2 0.722621 0.062721 0.188926
Si Si3 0.148598 0.592336 0.305142
Si Si4 0.897207 0.421440 0.864029
Si Si5 0.275746 0.671645 0.570631
Si Si6 0.090919 0.065952 0.585962
Si Si7 0.456305 0.924430 0.665907
Si Si8 0.008261 0.911100 0.574499
O O1 0.387056 0.750000 0.393916
O O2 0.247540 0.853598 0.342339
O O3 0.487600 0.874670 0.398997
O O4 0.286955 0.836429 0.483654
O O5 0.642245 0.079372 0.263257
O O6 0.628847 0.091647 0.123855
O O7 0.882177 0.085420 0.186307
O O8 0.716812 0.981415 0.182930
O O9 0.123752 0.599471 0.219959
O O10 0.003060 0.591589 0.347854
O O11 0.750060 0.415981 0.903349
O O12 0.941752 0.499538 0.863724
O O13 0.288865 0.750000 0.588228
O O14 0.395748 0.628204 0.608651
O O15 0.126350 0.642231 0.593617
O O16 0.032894 0.092464 0.509825
O O17 0.074262 0.985130 0.586111
#
# Coordination Sequence:
#
# PCOD9464269 Si02
#       8
#     8   8   8   8   8   8   8   8
#     4  11  24  41  58  87 128 167 207 252 311 374
#     4  10  22  36  65  96 121 151 199 262 311 360
#     4  10  20  38  59  89 123 159 201 254 311 364
#     4  11  22  35  63  92 123 161 206 262 302 365
#     4  11  24  43  63  86 126 172 206 251 314 371
#     4  10  20  34  60  92 120 153 205 257 307 354
#     4  11  22  39  63  94 127 158 203 259 313 364
#     4  10  20  38  60  90 121 155 205 254 304 370
#
# _framework density 18.103693
#
# number of rings (size 3 to 8) (size 9 to 14) (size 15 to 20)
#    0.000    1.500    3.750    1.500    8.750    1.000 
#    0.000    4.375    0.000    0.000    0.000    0.000 
#    0.000    0.000    0.000    0.000    0.000    0.000 
#
# Total GULP energy -357540.328765 kJ/mol
# GULP energy per Si atom -5586.567637 kJ/mol
# Density = 1.806249 g / cm^3
# Si number density = 18.103693 Si / 1000 Ang^3
#
#
#
# Elastic Constant Matrix: (Units=GPa)
#
#
# Indices 1 2 3 4 5 6 
#
# 1 124.8701 51.2130 16.1213 0.0000 0.0000 0.0000
# 2 51.2130 76.1009 41.5112 0.0000 0.0000 0.0000
# 3 16.1213 41.5112 37.8560 0.0000 0.0000 0.0000
# 4 0.0000 0.0000 0.0000 22.5021 0.0000 0.0000
# 5 0.0000 0.0000 0.0000 0.0000 22.8916 0.0000
# 6 0.0000 0.0000 0.0000 0.0000 0.0000 22.4007
#
#
#
# Elastic Compliance Matrix: (Units=1/GPa)
#
#
# Indices 1 2 3 4 5 6 
#
# 1 0.012311 -0.013500 0.009561 0.000000 0.000000 0.000000
# 2 -0.013500 0.047503 -0.046341 0.000000 0.000000 0.000000
# 3 0.009561 -0.046341 0.073160 0.000000 0.000000 0.000000
# 4 0.000000 0.000000 0.000000 0.044440 0.000000 0.000000
# 5 0.000000 0.000000 0.000000 0.000000 0.043684 0.000000
# 6 0.000000 0.000000 0.000000 0.000000 0.000000 0.044642
#
#
# Mechanical properties :
#
#
# Convention : Reuss Voigt Hill
#
# Bulk Modulus (GPa) = 30.85123 50.72423 40.78773
# Shear Modulus (GPa) = 13.25895 22.22429 17.74162
#
# Velocity S-wave (km/s) = 2.70920 3.50753 3.13389
# Velocity P-wave (km/s) = 5.18312 6.66957 5.97277
#
# Compressibility (1/GPa) = 0.03241362
#
# Stress axis : x y z
#
# Youngs Moduli (GPa) = 81.23068 21.05131 13.66871
#
# Poissons Ratio (x) = 0.28418 -0.13068
# Poissons Ratio (y) = 1.09658 0.63342
# Poissons Ratio (z) = -0.77661 0.97553
#
# Static dielectric constant tensor:
#      x y z
#    x 1.606050 0.000000 0.000000 
#    y 0.000000 1.595080 0.000000 
#    z 0.000000 0.000000 1.620560 
# 
# From -- ./inp_files/22551.got.cif
#   From: 2010.05.17/outbox.cif.g08.bks.cpg/sg62_12_cif.got.tgz:22551.got - 2010.06.03 15:25:27.
