data_PCOD9464411
_publ_section_title
;
Structure prediction by ZEFSAII (Michael W. Deem and Ramdas Pophale) SiO2 
 PCOD9464411
Probable space group: P N M A
;
_chemical_formula_sum "Si O2"
_cell_formula_units_Z 64
_cell_length_a 20.056324
_cell_length_b 13.718612
_cell_length_c 12.381923
_cell_angle_alpha 90.000000
_cell_angle_beta 90.000000
_cell_angle_gamma 90.000000
_cell_volume 3406.823301
_symmetry_space_group_name_H-M "P N M A"
_symmetry_group_IT_number 62
_symmetry_cell_setting 'orthorhombic'
loop_
_space_group_symop_operation_xyz
x,y,z
1/2-x,-y,1/2+z
1/2+x,1/2-y,1/2-z
-x,1/2+y,-z
-x,-y,-z
1/2+x,y,1/2-z
1/2-x,1/2+y,1/2+z
x,1/2-y,z
loop_
_atom_site_type_symbol
_atom_site_label
_atom_site_fract_x
_atom_site_fract_y
_atom_site_fract_z
Si Si1 0.161818 0.477420 0.177149
Si Si2 0.399880 0.635931 0.265741
Si Si3 0.866558 0.859722 0.617736
Si Si4 0.240388 0.635857 0.548566
Si Si5 0.878556 0.492958 0.426175
Si Si6 0.978462 0.139850 0.320874
Si Si7 0.493328 0.494303 0.629103
Si Si8 0.253981 0.361895 0.799332
O O1 0.166047 0.395882 0.271253
O O2 0.192273 0.423584 0.073101
O O3 0.085262 0.509527 0.159185
O O4 0.206505 0.566901 0.219904
O O5 0.406849 0.750000 0.249289
O O6 0.399902 0.577701 0.154743
O O7 0.460741 0.596227 0.336049
O O8 0.325045 0.616806 0.308805
O O9 0.844835 0.750000 0.585223
O O10 0.945061 0.855620 0.643096
O O11 0.858627 0.946773 0.532144
O O12 0.245440 0.750000 0.578199
O O13 0.183680 0.573935 0.609417
O O14 0.220697 0.632638 0.422359
O O15 0.939456 0.417379 0.415539
O O16 0.952826 0.250000 0.308444
O O17 0.977755 0.081838 0.206160
O O18 0.500000 0.500000 0.500000
O O19 0.260443 0.250000 0.761643
#
# Coordination Sequence:
#
# PCOD9464411 Si02
#       8
#     8   8   8   8   8   8   8   8
#     4  11  21  39  60  86 119 157 202 253 303 361
#     4  10  21  38  59  84 118 158 197 243 303 364
#     4  10  20  35  56  83 113 150 195 241 296 357
#     4  11  22  36  59  86 116 157 202 247 302 363
#     4  11  19  34  57  83 119 150 193 240 297 352
#     4   9  20  36  55  81 115 152 194 245 295 356
#     4  10  22  38  61  87 116 156 204 254 305 360
#     4  10  21  38  59  85 118 159 200 247 304 360
#
# _framework density 18.785831000000002
#
# number of rings (size 3 to 8) (size 9 to 14) (size 15 to 20)
#    0.000    1.750    2.500    2.250    0.000    1.500 
#    0.000    0.000    0.000    0.000    0.000    0.000 
#    0.000    0.000    0.000    0.000    0.000    0.000 
#
# Total GULP energy -356462.579316 kJ/mol
# GULP energy per Si atom -5569.727802 kJ/mol
# Density = 1.874307 g / cm^3
# Si number density = 18.785831 Si / 1000 Ang^3
#
#
#
# Elastic Constant Matrix: (Units=GPa)
#
#
# Indices 1 2 3 4 5 6 
#
# 1 64.9564 57.0532 7.1400 0.0000 0.0000 0.0000
# 2 57.0532 142.0293 35.7816 0.0000 0.0000 0.0000
# 3 7.1400 35.7816 43.7335 0.0000 0.0000 0.0000
# 4 0.0000 0.0000 0.0000 16.8955 0.0000 0.0000
# 5 0.0000 0.0000 0.0000 0.0000 19.3355 0.0000
# 6 0.0000 0.0000 0.0000 0.0000 0.0000 28.5339
#
#
#
# Elastic Compliance Matrix: (Units=1/GPa)
#
#
# Indices 1 2 3 4 5 6 
#
# 1 0.024672 -0.011206 0.005140 0.000000 0.000000 0.000000
# 2 -0.011206 0.013958 -0.009591 0.000000 0.000000 0.000000
# 3 0.005140 -0.009591 0.029874 0.000000 0.000000 0.000000
# 4 0.000000 0.000000 0.000000 0.059187 0.000000 0.000000
# 5 0.000000 0.000000 0.000000 0.000000 0.051718 0.000000
# 6 0.000000 0.000000 0.000000 0.000000 0.000000 0.035046
#
#
# Mechanical properties :
#
#
# Convention : Reuss Voigt Hill
#
# Bulk Modulus (GPa) = 26.88790 50.07429 38.48109
# Shear Modulus (GPa) = 19.36735 23.00261 21.18498
#
# Velocity S-wave (km/s) = 3.21433 3.50303 3.36178
# Velocity P-wave (km/s) = 5.30281 6.56314 5.96635
#
# Compressibility (1/GPa) = 0.03719145
#
# Stress axis : x y z
#
# Youngs Moduli (GPa) = 40.53101 71.64095 33.47436
#
# Poissons Ratio (x) = 0.80281 -0.17207
# Poissons Ratio (y) = 0.45419 0.32105
# Poissons Ratio (z) = -0.20834 0.68711
#
# Static dielectric constant tensor:
#      x y z
#    x 1.675250 0.000000 0.000000 
#    y 0.000000 1.661150 0.000000 
#    z 0.000000 0.000000 1.682590 
# 
# From -- ./inp_files/14318.got.cif
#   From: 2010.05.17/outbox.cif.g08.bks.cpg/sg62_8_cif.got.tgz:14318.got - 2010.06.03 15:25:27.
