data_PCOD9464294
_publ_section_title
;
Structure prediction by ZEFSAII (Michael W. Deem and Ramdas Pophale) SiO2 
 PCOD9464294
Probable space group: P N M A
;
_chemical_formula_sum "Si O2"
_cell_formula_units_Z 64
_cell_length_a 20.286872
_cell_length_b 26.043560
_cell_length_c 5.092167
_cell_angle_alpha 90.000000
_cell_angle_beta 90.000000
_cell_angle_gamma 90.000000
_cell_volume 2690.407572
_symmetry_space_group_name_H-M "P N M A"
_symmetry_group_IT_number 62
_symmetry_cell_setting 'orthorhombic'
loop_
_space_group_symop_operation_xyz
x,y,z
1/2-x,-y,1/2+z
1/2+x,1/2-y,1/2-z
-x,1/2+y,-z
-x,-y,-z
1/2+x,y,1/2-z
1/2-x,1/2+y,1/2+z
x,1/2-y,z
loop_
_atom_site_type_symbol
_atom_site_label
_atom_site_fract_x
_atom_site_fract_y
_atom_site_fract_z
Si Si1 0.291895 0.615759 0.613175
Si Si2 0.173122 0.627552 0.298438
Si Si3 0.390680 0.582440 0.234464
Si Si4 0.967261 0.101271 0.800235
Si Si5 0.510521 0.665276 0.795428
Si Si6 0.649274 0.694783 0.693353
Si Si7 0.274581 0.528748 0.968972
Si Si8 0.631453 0.191020 0.076545
O O1 0.247913 0.611665 0.354113
O O2 0.360280 0.588260 0.526702
O O3 0.254706 0.582228 0.831166
O O4 0.311419 0.670996 0.727284
O O5 0.161316 0.654267 0.579024
O O6 0.110853 0.590108 0.236267
O O7 0.170804 0.671360 0.080515
O O8 0.467916 0.568784 0.224960
O O9 0.347155 0.540508 0.082165
O O10 0.377772 0.640870 0.117151
O O11 0.976650 0.149331 0.597809
O O12 0.981872 0.116710 0.100669
O O13 0.570339 0.698831 0.693665
O O14 0.438903 0.689837 0.775312
O O15 0.679054 0.750000 0.747066
O O16 0.232384 0.507952 0.213857
O O17 0.642271 0.250000 0.980462
#
# Coordination Sequence:
#
# PCOD9464294 Si02
#       8
#     8   8   8   8   8   8   8   8
#     4  11  23  40  61  90 126 157 201 249 309 368
#     4  10  23  36  56  81 117 161 198 247 305 354
#     4  10  21  39  64  90 123 158 207 252 297 363
#     4   9  18  36  57  82 114 155 203 244 296 348
#     4   9  17  33  53  78 109 157 209 256 288 330
#     4  10  20  35  53  76 111 162 217 251 282 340
#     4  11  23  41  69  98 116 151 194 255 311 369
#     4  10  21  34  53  87 127 164 203 250 299 347
#
# _framework density 23.788219000000002
#
# number of rings (size 3 to 8) (size 9 to 14) (size 15 to 20)
#    0.000    2.000    2.500    0.750    3.500    1.500 
#    0.000    3.125    0.000    1.500    0.000    0.000 
#    0.000    0.000    0.000    0.000    0.000    0.000 
#
# Total GULP energy -356502.355146 kJ/mol
# GULP energy per Si atom -5570.349299 kJ/mol
# Density = 2.373408 g / cm^3
# Si number density = 23.788219 Si / 1000 Ang^3
#
#
#
# Elastic Constant Matrix: (Units=GPa)
#
#
# Indices 1 2 3 4 5 6 
#
# 1 99.0935 15.4473 -4.1929 0.0000 0.0000 0.0000
# 2 15.4473 40.6643 7.9604 0.0000 0.0000 0.0000
# 3 -4.1929 7.9604 89.2467 0.0000 0.0000 0.0000
# 4 0.0000 0.0000 0.0000 -13.5430 0.0000 0.0000
# 5 0.0000 0.0000 0.0000 0.0000 33.3901 0.0000
# 6 0.0000 0.0000 0.0000 0.0000 0.0000 -2.0728
#
#
#
# Elastic Compliance Matrix: (Units=1/GPa)
#
#
# Indices 1 2 3 4 5 6 
#
# 1 0.010795 -0.004275 0.000888 0.000000 0.000000 0.000000
# 2 -0.004275 0.026721 -0.002584 0.000000 0.000000 0.000000
# 3 0.000888 -0.002584 0.011477 0.000000 0.000000 0.000000
# 4 0.000000 0.000000 0.000000 -0.073839 0.000000 0.000000
# 5 0.000000 0.000000 0.000000 0.000000 0.029949 0.000000
# 6 0.000000 0.000000 0.000000 0.000000 0.000000 -0.482439
#
#
# Mechanical properties :
#
#
# Convention : Reuss Voigt Hill
#
# Bulk Modulus (GPa) = 26.98857 29.71491 28.35174
# Shear Modulus (GPa) = -11.03649 17.54084 3.25218
#
# Velocity S-wave (km/s) = -2.15628 2.71841 1.17052
# Velocity P-wave (km/s) = 2.27389 4.72986 3.71094
#
# Compressibility (1/GPa) = 0.03705272
#
# Stress axis : x y z
#
# Youngs Moduli (GPa) = 92.63158 37.42325 87.12970
#
# Poissons Ratio (x) = 0.15998 -0.07741
# Poissons Ratio (y) = 0.39598 0.22517
# Poissons Ratio (z) = -0.08230 0.09671
#
# Static dielectric constant tensor:
#      x y z
#    x 2.069880 0.000000 0.000000 
#    y 0.000000 2.055240 0.000000 
#    z 0.000000 0.000000 1.902990 
# 
# From -- ./inp_files/2403.got.cif
#   From: 2010.05.17/outbox.cif.g08.bks.cpg/sg62_2_cif.got.tgz:2403.got - 2010.06.03 15:25:27.
