data_PCOD9464132
_publ_section_title
;
Structure prediction by ZEFSAII (Michael W. Deem and Ramdas Pophale) SiO2 
 PCOD9464132
Probable space group: P N M A
;
_chemical_formula_sum "Si O2"
_cell_formula_units_Z 40
_cell_length_a 12.833509
_cell_length_b 9.650942
_cell_length_c 16.635455
_cell_angle_alpha 90.000000
_cell_angle_beta 90.000000
_cell_angle_gamma 90.000000
_cell_volume 2060.391782
_symmetry_space_group_name_H-M "P N M A"
_symmetry_group_IT_number 62
_symmetry_cell_setting 'orthorhombic'
loop_
_space_group_symop_operation_xyz
x,y,z
1/2-x,-y,1/2+z
1/2+x,1/2-y,1/2-z
-x,1/2+y,-z
-x,-y,-z
1/2+x,y,1/2-z
1/2-x,1/2+y,1/2+z
x,1/2-y,z
loop_
_atom_site_type_symbol
_atom_site_label
_atom_site_fract_x
_atom_site_fract_y
_atom_site_fract_z
Si Si1 0.382396 0.594842 0.422722
Si Si2 0.486333 0.415774 0.082915
Si Si3 0.217175 0.917862 0.681925
Si Si4 0.435616 0.593753 0.609675
Si Si5 0.783398 0.913007 0.639491
O O1 0.367778 0.750000 0.391436
O O2 0.423078 0.605432 0.513791
O O3 0.468427 0.507054 0.374513
O O4 0.275600 0.509366 0.423597
O O5 0.475342 0.250000 0.066100
O O6 0.385865 0.463593 0.134458
O O7 0.592718 0.432345 0.134146
O O8 0.500000 0.500000 0.000000
O O9 0.214994 0.750000 0.678216
O O10 0.325505 0.960890 0.640955
O O11 0.232858 0.953189 0.775154
O O12 0.454418 0.750000 0.642308
O O13 0.762452 0.750000 0.624924
#
# Coordination Sequence:
#
# PCOD9464132 Si02
#       5
#     8   8   8   8   8
#     4  10  20  34  54  82 113 143 178 226 283 334
#     4  10  21  38  60  87 116 151 193 235 285 341
#     4   9  19  35  58  84 109 143 191 238 274 323
#     4   9  18  34  57  80 106 144 185 224 269 330
#     4  10  21  35  57  84 110 146 192 235 276 331
#
# _framework density 19.413784
#
# number of rings (size 3 to 8) (size 9 to 14) (size 15 to 20)
#    0.000    2.400    0.000    1.800    2.800    3.200 
#    0.000    3.000    0.000    0.000    0.000    0.000 
#    0.000    0.000    0.000    0.000    0.000    0.000 
#
# Total GULP energy -223005.735441 kJ/mol
# GULP energy per Si atom -5575.143386 kJ/mol
# Density = 1.936960 g / cm^3
# Si number density = 19.413784 Si / 1000 Ang^3
#
#
#
# Elastic Constant Matrix: (Units=GPa)
#
#
# Indices 1 2 3 4 5 6 
#
# 1 104.4807 45.9591 19.8302 0.0000 0.0000 0.0000
# 2 45.9591 65.2048 16.3175 0.0000 0.0000 0.0000
# 3 19.8302 16.3175 48.5575 0.0000 0.0000 0.0000
# 4 0.0000 0.0000 0.0000 12.8709 0.0000 0.0000
# 5 0.0000 0.0000 0.0000 0.0000 30.5097 0.0000
# 6 0.0000 0.0000 0.0000 0.0000 0.0000 14.3497
#
#
#
# Elastic Compliance Matrix: (Units=1/GPa)
#
#
# Indices 1 2 3 4 5 6 
#
# 1 0.014179 -0.009329 -0.002655 0.000000 0.000000 0.000000
# 2 -0.009329 0.022883 -0.003880 0.000000 0.000000 0.000000
# 3 -0.002655 -0.003880 0.022982 0.000000 0.000000 0.000000
# 4 0.000000 0.000000 0.000000 0.077695 0.000000 0.000000
# 5 0.000000 0.000000 0.000000 0.000000 0.032776 0.000000
# 6 0.000000 0.000000 0.000000 0.000000 0.000000 0.069688
#
#
# Mechanical properties :
#
#
# Convention : Reuss Voigt Hill
#
# Bulk Modulus (GPa) = 35.31668 42.49516 38.90592
# Shear Modulus (GPa) = 17.77018 20.62183 19.19601
#
# Velocity S-wave (km/s) = 3.02874 3.26272 3.14790
# Velocity P-wave (km/s) = 5.51924 6.01086 5.77029
#
# Compressibility (1/GPa) = 0.02831523
#
# Stress axis : x y z
#
# Youngs Moduli (GPa) = 70.52705 43.70068 43.51176
#
# Poissons Ratio (x) = 0.40770 0.11554
# Poissons Ratio (y) = 0.65798 0.16881
# Poissons Ratio (z) = 0.18728 0.16955
#
# Static dielectric constant tensor:
#      x y z
#    x 1.697980 0.000000 0.000000 
#    y 0.000000 1.675670 0.000000 
#    z 0.000000 0.000000 1.720620 
# 
# From -- ./inp_files/17810.got.cif
#   From: 2010.05.17/outbox.cif.g08.bks.cpg/sg62_9_cif.got.tgz:17810.got - 2010.06.03 15:25:27.
