data_PCOD9464412
_publ_section_title
;
Structure prediction by ZEFSAII (Michael W. Deem and Ramdas Pophale) SiO2 
 PCOD9464412
Probable space group: P N M A
;
_chemical_formula_sum "Si O2"
_cell_formula_units_Z 56
_cell_length_a 20.815495
_cell_length_b 8.675215
_cell_length_c 16.330553
_cell_angle_alpha 90.000000
_cell_angle_beta 90.000000
_cell_angle_gamma 90.000000
_cell_volume 2948.953207
_symmetry_space_group_name_H-M "P N M A"
_symmetry_group_IT_number 62
_symmetry_cell_setting 'orthorhombic'
loop_
_space_group_symop_operation_xyz
x,y,z
1/2-x,-y,1/2+z
1/2+x,1/2-y,1/2-z
-x,1/2+y,-z
-x,-y,-z
1/2+x,y,1/2-z
1/2-x,1/2+y,1/2+z
x,1/2-y,z
loop_
_atom_site_type_symbol
_atom_site_label
_atom_site_fract_x
_atom_site_fract_y
_atom_site_fract_z
Si Si1 0.663773 0.065773 0.834133
Si Si2 0.098869 0.437925 0.323847
Si Si3 0.801512 0.564257 0.816151
Si Si4 0.547712 0.934324 0.568038
Si Si5 0.681754 0.436090 0.022847
Si Si6 0.464506 0.436215 0.245356
Si Si7 0.680201 0.434554 0.505743
O O1 0.664001 0.250000 0.829507
O O2 0.731020 0.002684 0.799447
O O3 0.601900 0.000841 0.788742
O O4 0.662579 0.019944 0.930358
O O5 0.097931 0.250000 0.323348
O O6 0.145960 0.485858 0.249976
O O7 0.130270 0.486223 0.409516
O O8 0.026449 0.489351 0.306112
O O9 0.797509 0.750000 0.813414
O O10 0.820912 0.521407 0.909067
O O11 0.546428 0.750000 0.563651
O O12 0.527081 0.980331 0.659623
O O13 0.500000 0.000000 0.500000
O O14 0.619342 0.993426 0.550429
O O15 0.686861 0.250000 0.025751
O O16 0.751923 0.505657 0.039660
O O17 0.461861 0.250000 0.241915
O O18 0.677285 0.250000 0.511098
#
# Coordination Sequence:
#
# PCOD9464412 Si02
#       7
#     8   8   8   8   8   8   8
#     4  10  21  36  54  82 117 147 181 232 288 335
#     4   9  18  35  59  81 104 141 192 235 273 330
#     4   9  18  35  59  82 108 146 189 231 274 334
#     4  11  23  38  58  83 114 149 189 234 286 343
#     4   9  19  36  57  82 111 145 186 234 285 329
#     4  10  22  39  58  81 110 150 193 231 277 341
#     4  10  20  35  56  83 114 146 186 231 279 338
#
# _framework density 18.989789999999999
#
# number of rings (size 3 to 8) (size 9 to 14) (size 15 to 20)
#    0.000    2.286    0.000    2.143    2.000    5.143 
#    0.000    1.429    0.000    0.000    0.000    0.000 
#    0.000    0.000    0.000    0.000    0.000    0.000 
#
# Total GULP energy -312735.125754 kJ/mol
# GULP energy per Si atom -5584.555817 kJ/mol
# Density = 1.894657 g / cm^3
# Si number density = 18.989790 Si / 1000 Ang^3
#
#
#
# Elastic Constant Matrix: (Units=GPa)
#
#
# Indices 1 2 3 4 5 6 
#
# 1 77.4411 12.5038 12.9180 0.0000 0.0000 0.0000
# 2 12.5038 11.1439 12.7015 0.0000 0.0000 0.0000
# 3 12.9180 12.7015 26.3034 0.0000 0.0000 0.0000
# 4 0.0000 0.0000 0.0000 20.9317 0.0000 0.0000
# 5 0.0000 0.0000 0.0000 0.0000 36.3032 0.0000
# 6 0.0000 0.0000 0.0000 0.0000 0.0000 26.1065
#
#
#
# Elastic Compliance Matrix: (Units=1/GPa)
#
#
# Indices 1 2 3 4 5 6 
#
# 1 0.015807 -0.019768 0.001782 0.000000 0.000000 0.000000
# 2 -0.019768 0.224297 -0.098601 0.000000 0.000000 0.000000
# 3 0.001782 -0.098601 0.084755 0.000000 0.000000 0.000000
# 4 0.000000 0.000000 0.000000 0.047774 0.000000 0.000000
# 5 0.000000 0.000000 0.000000 0.000000 0.027546 0.000000
# 6 0.000000 0.000000 0.000000 0.000000 0.000000 0.038305
#
#
# Mechanical properties :
#
#
# Convention : Reuss Voigt Hill
#
# Bulk Modulus (GPa) = 10.90671 21.23722 16.07197
# Shear Modulus (GPa) = 7.12028 21.78596 14.45312
#
# Velocity S-wave (km/s) = 1.93847 3.39078 2.76180
# Velocity P-wave (km/s) = 3.28118 5.15147 4.31878
#
# Compressibility (1/GPa) = 0.09168665
#
# Stress axis : x y z
#
# Youngs Moduli (GPa) = 63.26111 4.45838 11.79867
#
# Poissons Ratio (x) = 0.08813 -0.02103
# Poissons Ratio (y) = 1.25053 1.16336
# Poissons Ratio (z) = -0.11275 0.43960
#
# Static dielectric constant tensor:
#      x y z
#    x 1.623740 0.000000 0.000000 
#    y 0.000000 1.646350 0.000000 
#    z 0.000000 0.000000 1.666390 
# 
# From -- ./inp_files/20340.got.cif
#   From: 2010.05.17/outbox.cif.g08.bks.cpg/sg62_11_cif.got.tgz:20340.got - 2010.06.03 15:25:27.
