data_PCOD9464865
_publ_section_title
;
Structure prediction by ZEFSAII (Michael W. Deem and Ramdas Pophale) SiO2 
 PCOD9464865
Probable space group: P N M A
;
_chemical_formula_sum "Si O2"
_cell_formula_units_Z 64
_cell_length_a 12.420125
_cell_length_b 20.044668
_cell_length_c 13.866027
_cell_angle_alpha 90.000000
_cell_angle_beta 90.000000
_cell_angle_gamma 90.000000
_cell_volume 3452.048396
_symmetry_space_group_name_H-M "P N M A"
_symmetry_group_IT_number 62
_symmetry_cell_setting 'orthorhombic'
loop_
_space_group_symop_operation_xyz
x,y,z
1/2-x,-y,1/2+z
1/2+x,1/2-y,1/2-z
-x,1/2+y,-z
-x,-y,-z
1/2+x,y,1/2-z
1/2-x,1/2+y,1/2+z
x,1/2-y,z
loop_
_atom_site_type_symbol
_atom_site_label
_atom_site_fract_x
_atom_site_fract_y
_atom_site_fract_z
Si Si1 0.593018 0.477189 0.575172
Si Si2 0.733717 0.041280 0.216810
Si Si3 0.593211 0.924297 0.294126
Si Si4 0.475836 0.675978 0.172064
Si Si5 0.788756 0.452526 0.441494
Si Si6 0.072786 0.821454 0.541155
Si Si7 0.841190 0.826002 0.620307
Si Si8 0.204252 0.400175 0.573561
O O1 0.500000 0.500000 0.500000
O O2 0.671469 0.524291 0.640337
O O3 0.520071 0.441827 0.655824
O O4 0.680310 0.442848 0.504419
O O5 0.772576 0.043459 0.326827
O O6 0.691325 0.114519 0.190730
O O7 0.642600 0.982405 0.224527
O O8 0.567805 0.858081 0.234980
O O9 0.679741 0.911746 0.378759
O O10 0.445645 0.750000 0.206525
O O11 0.373555 0.627803 0.156858
O O12 0.522236 0.681785 0.064873
O O13 0.861008 0.388645 0.457400
O O14 0.833047 0.527040 0.465752
O O15 0.129471 0.750000 0.559628
O O16 0.970507 0.826100 0.611501
O O17 0.806846 0.750000 0.642832
O O18 0.796980 0.848582 0.514849
#
# Coordination Sequence:
#
# PCOD9464865 Si02
#       8
#     8   8   8   8   8   8   8   8
#     4  12  22  42  59  93 133 154 204 271 316 355
#     4  11  23  36  63  93 118 167 212 257 315 382
#     4  11  22  38  62  89 122 160 209 253 309 379
#     4  10  22  37  57  88 122 156 200 257 310 369
#     4  11  22  37  63  91 118 166 206 256 313 372
#     4   9  21  38  58  85 124 160 199 258 312 366
#     4  10  21  38  59  86 122 160 203 256 308 368
#     4  10  20  37  57  88 111 160 199 252 302 365
#
# _framework density 18.539715999999999
#
# number of rings (size 3 to 8) (size 9 to 14) (size 15 to 20)
#    0.000    1.500    3.750    3.375    3.500    2.500 
#    0.000    1.875    0.000    0.750    0.000    0.000 
#    0.000    0.000    0.000    0.000    0.000    0.000 
#
# Total GULP energy -356271.799858 kJ/mol
# GULP energy per Si atom -5566.746873 kJ/mol
# Density = 1.849752 g / cm^3
# Si number density = 18.539716 Si / 1000 Ang^3
#
#
#
# Elastic Constant Matrix: (Units=GPa)
#
#
# Indices 1 2 3 4 5 6 
#
# 1 68.1916 59.4840 18.1960 0.0000 0.0000 0.0000
# 2 59.4840 134.4307 17.4092 0.0000 0.0000 0.0000
# 3 18.1960 17.4092 53.6959 0.0000 0.0000 0.0000
# 4 0.0000 0.0000 0.0000 -3.7341 0.0000 0.0000
# 5 0.0000 0.0000 0.0000 0.0000 25.8980 0.0000
# 6 0.0000 0.0000 0.0000 0.0000 0.0000 0.2363
#
#
#
# Elastic Compliance Matrix: (Units=1/GPa)
#
#
# Indices 1 2 3 4 5 6 
#
# 1 0.025170 -0.010472 -0.005134 0.000000 0.000000 0.000000
# 2 -0.010472 0.012122 -0.000381 0.000000 0.000000 0.000000
# 3 -0.005134 -0.000381 0.020487 0.000000 0.000000 0.000000
# 4 0.000000 0.000000 0.000000 -0.267806 0.000000 0.000000
# 5 0.000000 0.000000 0.000000 0.000000 0.038613 0.000000
# 6 0.000000 0.000000 0.000000 0.000000 0.000000 4.232237
#
#
# Mechanical properties :
#
#
# Convention : Reuss Voigt Hill
#
# Bulk Modulus (GPa) = 38.75512 49.61074 44.18293
# Shear Modulus (GPa) = 1.21910 15.22864 8.22387
#
# Velocity S-wave (km/s) = 0.81178 2.86913 2.10842
# Velocity P-wave (km/s) = 4.67203 6.14761 5.45990
#
# Compressibility (1/GPa) = 0.02580304
#
# Stress axis : x y z
#
# Youngs Moduli (GPa) = 39.73040 82.49400 48.81191
#
# Poissons Ratio (x) = 0.86391 0.25060
# Poissons Ratio (y) = 0.41607 0.01862
# Poissons Ratio (z) = 0.20397 0.03146
#
# Static dielectric constant tensor:
#      x y z
#    x 1.673150 0.000000 0.000000 
#    y 0.000000 1.698920 0.000000 
#    z 0.000000 0.000000 1.460020 
# 
# From -- ./inp_files/18254.got.cif
#   From: 2010.05.17/outbox.cif.g08.bks.cpg/sg62_10_cif.got.tgz:18254.got - 2010.06.03 15:25:27.
