data_PCOD9464483
_publ_section_title
;
Structure prediction by ZEFSAII (Michael W. Deem and Ramdas Pophale) SiO2 
 PCOD9464483
Probable space group: P N M A
;
_chemical_formula_sum "Si O2"
_cell_formula_units_Z 64
_cell_length_a 14.517976
_cell_length_b 9.405308
_cell_length_c 24.826904
_cell_angle_alpha 90.000000
_cell_angle_beta 90.000000
_cell_angle_gamma 90.000000
_cell_volume 3390.015323
_symmetry_space_group_name_H-M "P N M A"
_symmetry_group_IT_number 62
_symmetry_cell_setting 'orthorhombic'
loop_
_space_group_symop_operation_xyz
x,y,z
1/2-x,-y,1/2+z
1/2+x,1/2-y,1/2-z
-x,1/2+y,-z
-x,-y,-z
1/2+x,y,1/2-z
1/2-x,1/2+y,1/2+z
x,1/2-y,z
loop_
_atom_site_type_symbol
_atom_site_label
_atom_site_fract_x
_atom_site_fract_y
_atom_site_fract_z
Si Si1 0.553422 0.580877 0.046848
Si Si2 0.013194 0.591717 0.253313
Si Si3 0.251618 0.085679 0.179497
Si Si4 0.953763 0.578246 0.050796
Si Si5 0.963560 0.915695 0.848199
Si Si6 0.774566 0.416075 0.712801
Si Si7 0.750797 0.577864 0.090059
Si Si8 0.096465 0.090099 0.637743
O O1 0.557954 0.750000 0.035048
O O2 0.656908 0.529844 0.060658
O O3 0.488996 0.561910 0.098973
O O4 0.500000 0.500000 0.000000
O O5 0.008931 0.750000 0.228215
O O6 0.996903 0.474992 0.208005
O O7 0.114595 0.578140 0.279781
O O8 0.943173 0.584610 0.302113
O O9 0.272601 0.250000 0.187572
O O10 0.146661 0.071946 0.159469
O O11 0.260633 0.004774 0.236441
O O12 0.320151 0.018527 0.136041
O O13 0.962991 0.750000 0.047055
O O14 0.844894 0.544010 0.058863
O O15 0.002305 0.514925 0.103808
O O16 0.000000 0.500000 0.000000
O O17 0.986366 0.750000 0.857324
O O18 0.746551 0.250000 0.718016
O O19 0.747756 0.468192 0.653022
O O20 0.744384 0.750000 0.092952
O O21 0.130087 0.250000 0.626722
#
# Coordination Sequence:
#
# PCOD9464483 Si02
#       8
#     8   8   8   8   8   8   8   8
#     4  10  21  40  62  88 119 153 195 241 292 348
#     4   9  17  32  57  85 114 149 190 238 289 349
#     4  10  22  36  53  84 125 163 194 236 297 351
#     4  11  24  42  64  88 115 154 204 251 299 349
#     4  10  22  40  58  82 119 158 195 242 297 350
#     4   9  16  33  59  84 111 149 196 240 286 346
#     4   9  19  38  63  86 111 149 194 241 291 351
#     4  10  20  35  57  85 118 155 196 238 285 350
#
# _framework density 18.878969999999999
#
# number of rings (size 3 to 8) (size 9 to 14) (size 15 to 20)
#    0.000    2.250    1.250    1.125    1.750    3.500 
#    0.000    6.250    0.000    0.000    0.000    0.000 
#    0.000    0.000    0.000    0.000    0.000    0.000 
#
# Total GULP energy -357094.901897 kJ/mol
# GULP energy per Si atom -5579.607842 kJ/mol
# Density = 1.883600 g / cm^3
# Si number density = 18.878970 Si / 1000 Ang^3
#
#
#
# Elastic Constant Matrix: (Units=GPa)
#
#
# Indices 1 2 3 4 5 6 
#
# 1 90.6973 60.0773 54.2496 0.0000 0.0000 0.0000
# 2 60.0773 80.2975 52.2428 0.0000 0.0000 0.0000
# 3 54.2496 52.2428 96.7214 0.0000 0.0000 0.0000
# 4 0.0000 0.0000 0.0000 26.5241 0.0000 0.0000
# 5 0.0000 0.0000 0.0000 0.0000 15.8411 0.0000
# 6 0.0000 0.0000 0.0000 0.0000 0.0000 24.5282
#
#
#
# Elastic Compliance Matrix: (Units=1/GPa)
#
#
# Indices 1 2 3 4 5 6 
#
# 1 0.023762 -0.014042 -0.005743 0.000000 0.000000 0.000000
# 2 -0.014042 0.027499 -0.006978 0.000000 0.000000 0.000000
# 3 -0.005743 -0.006978 0.017329 0.000000 0.000000 0.000000
# 4 0.000000 0.000000 0.000000 0.037702 0.000000 0.000000
# 5 0.000000 0.000000 0.000000 0.000000 0.063127 0.000000
# 6 0.000000 0.000000 0.000000 0.000000 0.000000 0.040769
#
#
# Mechanical properties :
#
#
# Convention : Reuss Voigt Hill
#
# Bulk Modulus (GPa) = 66.37801 66.76174 66.56987
# Shear Modulus (GPa) = 18.60566 20.12179 19.36372
#
# Velocity S-wave (km/s) = 3.14271 3.26825 3.20609
# Velocity P-wave (km/s) = 6.95736 7.04853 7.00309
#
# Compressibility (1/GPa) = 0.01506523
#
# Stress axis : x y z
#
# Youngs Moduli (GPa) = 42.08364 36.36469 57.70618
#
# Poissons Ratio (x) = 0.51062 0.33143
# Poissons Ratio (y) = 0.59093 0.40265
# Poissons Ratio (z) = 0.24170 0.25374
#
# Static dielectric constant tensor:
#      x y z
#    x 1.682370 0.000000 0.000000 
#    y 0.000000 1.652360 0.000000 
#    z 0.000000 0.000000 1.641760 
# 
# From -- ./inp_files/29803.got.cif
#   From: 2010.05.17/outbox.cif.g08.bks.cpg/sg62_15_cif.got.tgz:29803.got - 2010.06.03 15:25:27.
