data_PCOD9464935
_publ_section_title
;
Structure prediction by ZEFSAII (Michael W. Deem and Ramdas Pophale) SiO2 
 PCOD9464935
Probable space group: P N M A
;
_chemical_formula_sum "Si O2"
_cell_formula_units_Z 64
_cell_length_a 10.414875
_cell_length_b 11.305275
_cell_length_c 28.700115
_cell_angle_alpha 90.000000
_cell_angle_beta 90.000000
_cell_angle_gamma 90.000000
_cell_volume 3379.238386
_symmetry_space_group_name_H-M "P N M A"
_symmetry_group_IT_number 62
_symmetry_cell_setting 'orthorhombic'
loop_
_space_group_symop_operation_xyz
x,y,z
1/2-x,-y,1/2+z
1/2+x,1/2-y,1/2-z
-x,1/2+y,-z
-x,-y,-z
1/2+x,y,1/2-z
1/2-x,1/2+y,1/2+z
x,1/2-y,z
loop_
_atom_site_type_symbol
_atom_site_label
_atom_site_fract_x
_atom_site_fract_y
_atom_site_fract_z
Si Si1 0.140276 0.384866 0.617350
Si Si2 0.348420 0.388869 0.786694
Si Si3 0.911071 0.001309 0.234976
Si Si4 0.114462 0.964531 0.061991
Si Si5 0.646648 0.610673 0.107046
Si Si6 0.343068 0.613960 0.470493
Si Si7 0.818094 0.120420 0.321425
Si Si8 0.971789 0.616736 0.850570
O O1 0.140621 0.250000 0.638055
O O2 0.265410 0.397231 0.584962
O O3 0.145220 0.498436 0.651886
O O4 0.002392 0.396979 0.592076
O O5 0.374031 0.250000 0.788569
O O6 0.209359 0.413228 0.765020
O O7 0.460084 0.446385 0.756176
O O8 0.347912 0.436243 0.840000
O O9 0.870821 0.106773 0.269438
O O10 0.935592 0.043082 0.182551
O O11 0.061013 0.054855 0.100912
O O12 0.161567 0.035918 0.016859
O O13 0.990037 0.889603 0.047430
O O14 0.679676 0.750000 0.111099
O O15 0.747793 0.564251 0.069435
O O16 0.307489 0.750000 0.480801
O O17 0.859315 0.250000 0.341027
O O18 0.664108 0.121328 0.323327
O O19 0.018234 0.750000 0.857698
#
# Coordination Sequence:
#
# PCOD9464935 Si02
#       8
#     8   8   8   8   8   8   8   8
#     4  10  20  37  62  87 116 154 196 248 302 355
#     4  11  23  37  57  87 123 157 202 255 306 364
#     4  12  21  38  57  84 116 163 204 246 303 365
#     4  10  21  36  59  89 115 154 206 248 299 369
#     4   9  19  36  57  83 117 153 193 251 313 360
#     4  10  20  37  60  85 120 158 195 249 311 368
#     4  10  21  37  57  84 117 156 201 245 297 364
#     4  10  21  38  57  83 117 155 202 254 301 357
#
# _framework density 18.939178999999999
#
# number of rings (size 3 to 8) (size 9 to 14) (size 15 to 20)
#    0.000    1.750    2.500    2.250    0.000    1.500 
#    0.000    1.250    0.000    3.750    0.000    0.000 
#    0.000    0.000    0.000    0.000    0.000    0.000 
#
# Total GULP energy -356701.525603 kJ/mol
# GULP energy per Si atom -5573.461338 kJ/mol
# Density = 1.889607 g / cm^3
# Si number density = 18.939179 Si / 1000 Ang^3
#
#
#
# Elastic Constant Matrix: (Units=GPa)
#
#
# Indices 1 2 3 4 5 6 
#
# 1 68.1997 17.5562 30.7238 0.0000 0.0000 0.0000
# 2 17.5562 79.9855 27.9356 0.0000 0.0000 0.0000
# 3 30.7238 27.9356 83.6830 0.0000 0.0000 0.0000
# 4 0.0000 0.0000 0.0000 10.7192 0.0000 0.0000
# 5 0.0000 0.0000 0.0000 0.0000 28.7015 0.0000
# 6 0.0000 0.0000 0.0000 0.0000 0.0000 -2.8021
#
#
#
# Elastic Compliance Matrix: (Units=1/GPa)
#
#
# Indices 1 2 3 4 5 6 
#
# 1 0.017805 -0.001839 -0.005923 0.000000 0.000000 0.000000
# 2 -0.001839 0.014342 -0.004113 0.000000 0.000000 0.000000
# 3 -0.005923 -0.004113 0.015497 0.000000 0.000000 0.000000
# 4 0.000000 0.000000 0.000000 0.093291 0.000000 0.000000
# 5 0.000000 0.000000 0.000000 0.000000 0.034841 0.000000
# 6 0.000000 0.000000 0.000000 0.000000 0.000000 -0.356878
#
#
# Mechanical properties :
#
#
# Convention : Reuss Voigt Hill
#
# Bulk Modulus (GPa) = 41.85031 42.69994 42.27513
# Shear Modulus (GPa) = -33.47010 17.70057 -7.88477
#
# Velocity S-wave (km/s) = -4.20842 3.06044 -2.04261
# Velocity P-wave (km/s) = 1.21210 5.92310 4.09963
#
# Compressibility (1/GPa) = 0.02389469
#
# Stress axis : x y z
#
# Youngs Moduli (GPa) = 56.16547 69.72373 64.52757
#
# Poissons Ratio (x) = 0.12825 0.38218
# Poissons Ratio (y) = 0.10331 0.26537
# Poissons Ratio (z) = 0.33266 0.28674
#
# Static dielectric constant tensor:
#      x y z
#    x 1.654920 0.000000 0.000000 
#    y 0.000000 1.668540 0.000000 
#    z 0.000000 0.000000 1.666510 
# 
# From -- ./inp_files/32255.got.cif
#   From: 2010.05.17/outbox.cif.g08.bks.cpg/sg62_17_cif.got.tgz:32255.got - 2010.06.03 15:25:27.
