data_PCOD9464921
_publ_section_title
;
Structure prediction by ZEFSAII (Michael W. Deem and Ramdas Pophale) SiO2 
 PCOD9464921
Probable space group: P N M A
;
_chemical_formula_sum "Si O2"
_cell_formula_units_Z 56
_cell_length_a 15.033623
_cell_length_b 8.564455
_cell_length_c 21.925850
_cell_angle_alpha 90.000000
_cell_angle_beta 90.000000
_cell_angle_gamma 90.000000
_cell_volume 2823.058161
_symmetry_space_group_name_H-M "P N M A"
_symmetry_group_IT_number 62
_symmetry_cell_setting 'orthorhombic'
loop_
_space_group_symop_operation_xyz
x,y,z
1/2-x,-y,1/2+z
1/2+x,1/2-y,1/2-z
-x,1/2+y,-z
-x,-y,-z
1/2+x,y,1/2-z
1/2-x,1/2+y,1/2+z
x,1/2-y,z
loop_
_atom_site_type_symbol
_atom_site_label
_atom_site_fract_x
_atom_site_fract_y
_atom_site_fract_z
Si Si1 0.274573 0.936738 0.485923
Si Si2 0.107019 0.439001 0.739546
Si Si3 0.930766 0.563329 0.675784
Si Si4 0.807181 0.438003 0.781263
Si Si5 0.597842 0.060125 0.619304
Si Si6 0.915264 0.563249 0.536047
Si Si7 0.400242 0.438907 0.591964
O O1 0.267398 0.750000 0.484584
O O2 0.320440 0.991493 0.422610
O O3 0.177261 0.008085 0.492949
O O4 0.340601 0.987121 0.539642
O O5 0.100260 0.250000 0.738066
O O6 0.204071 0.484921 0.715011
O O7 0.101809 0.489202 0.810404
O O8 0.025276 0.506570 0.701862
O O9 0.928992 0.750000 0.675849
O O10 0.854923 0.502632 0.721350
O O11 0.917582 0.507706 0.606449
O O12 0.809795 0.250000 0.777150
O O13 0.861042 0.482920 0.841810
O O14 0.598908 0.250000 0.619787
O O15 0.503479 0.012689 0.590309
O O16 0.918386 0.750000 0.535692
O O17 0.000000 0.500000 0.500000
O O18 0.396140 0.250000 0.586973
#
# Coordination Sequence:
#
# PCOD9464921 Si02
#       7
#     8   8   8   8   8   8   8
#     4  11  23  39  62  91 122 162 206 254 309 363
#     4  10  20  37  63  91 118 158 206 246 294 363
#     4  11  24  41  62  92 126 157 195 254 313 359
#     4  10  21  38  64  92 122 164 208 250 300 365
#     4   9  18  36  60  88 124 160 203 248 294 362
#     4  11  26  46  65  89 122 161 207 255 307 370
#     4  10  20  37  59  89 126 163 207 255 301 358
#
# _framework density 19.836645000000001
#
# number of rings (size 3 to 8) (size 9 to 14) (size 15 to 20)
#    0.000    1.714    1.429    2.571    2.000    4.571 
#    0.000    2.143    0.000    0.000    0.000    0.000 
#    0.000    0.000    0.000    0.000    0.000    0.000 
#
# Total GULP energy -313032.574293 kJ/mol
# GULP energy per Si atom -5589.867398 kJ/mol
# Density = 1.979150 g / cm^3
# Si number density = 19.836645 Si / 1000 Ang^3
#
#
#
# Elastic Constant Matrix: (Units=GPa)
#
#
# Indices 1 2 3 4 5 6 
#
# 1 96.8181 6.3740 -11.6014 0.0000 0.0000 0.0000
# 2 6.3740 14.5479 4.7149 0.0000 0.0000 0.0000
# 3 -11.6014 4.7149 38.3362 0.0000 0.0000 0.0000
# 4 0.0000 0.0000 0.0000 23.9826 0.0000 0.0000
# 5 0.0000 0.0000 0.0000 0.0000 29.1284 0.0000
# 6 0.0000 0.0000 0.0000 0.0000 0.0000 26.8876
#
#
#
# Elastic Compliance Matrix: (Units=1/GPa)
#
#
# Indices 1 2 3 4 5 6 
#
# 1 0.011242 -0.006279 0.004174 0.000000 0.000000 0.000000
# 2 -0.006279 0.075099 -0.011136 0.000000 0.000000 0.000000
# 3 0.004174 -0.011136 0.028718 0.000000 0.000000 0.000000
# 4 0.000000 0.000000 0.000000 0.041697 0.000000 0.000000
# 5 0.000000 0.000000 0.000000 0.000000 0.034331 0.000000
# 6 0.000000 0.000000 0.000000 0.000000 0.000000 0.037192
#
#
# Mechanical properties :
#
#
# Convention : Reuss Voigt Hill
#
# Bulk Modulus (GPa) = 11.28952 16.51969 13.90460
# Shear Modulus (GPa) = 17.58799 26.01405 21.80102
#
# Velocity S-wave (km/s) = 2.98088 3.62527 3.31875
# Velocity P-wave (km/s) = 4.18941 5.08620 4.65943
#
# Compressibility (1/GPa) = 0.08857775
#
# Stress axis : x y z
#
# Youngs Moduli (GPa) = 88.95067 13.31583 34.82149
#
# Poissons Ratio (x) = 0.08360 -0.14536
# Poissons Ratio (y) = 0.55848 0.38778
# Poissons Ratio (z) = -0.37131 0.14829
#
# Static dielectric constant tensor:
#      x y z
#    x 1.671660 0.000000 0.000000 
#    y 0.000000 1.682340 0.000000 
#    z 0.000000 0.000000 1.686690 
# 
# From -- ./inp_files/27206.got.cif
#   From: 2010.05.17/outbox.cif.g08.bks.cpg/sg62_14_cif.got.tgz:27206.got - 2010.06.03 15:25:27.
