data_PCOD9464426
_publ_section_title
;
Structure prediction by ZEFSAII (Michael W. Deem and Ramdas Pophale) SiO2 
 PCOD9464426
Probable space group: P N M A
;
_chemical_formula_sum "Si O2"
_cell_formula_units_Z 40
_cell_length_a 7.437968
_cell_length_b 8.127049
_cell_length_c 29.831417
_cell_angle_alpha 90.000000
_cell_angle_beta 90.000000
_cell_angle_gamma 90.000000
_cell_volume 1803.271284
_symmetry_space_group_name_H-M "P N M A"
_symmetry_group_IT_number 62
_symmetry_cell_setting 'orthorhombic'
loop_
_space_group_symop_operation_xyz
x,y,z
1/2-x,-y,1/2+z
1/2+x,1/2-y,1/2-z
-x,1/2+y,-z
-x,-y,-z
1/2+x,y,1/2-z
1/2-x,1/2+y,1/2+z
x,1/2-y,z
loop_
_atom_site_type_symbol
_atom_site_label
_atom_site_fract_x
_atom_site_fract_y
_atom_site_fract_z
Si Si1 0.578392 0.947147 0.952479
Si Si2 0.665089 0.557767 0.712015
Si Si3 0.283731 0.436952 0.694331
Si Si4 0.895199 0.446347 0.898859
Si Si5 0.199606 0.445770 0.379207
O O1 0.581171 0.750000 0.950793
O O2 0.445142 0.016203 0.913671
O O3 0.779613 0.008150 0.942112
O O4 0.500000 0.000000 0.000000
O O5 0.617807 0.750000 0.703915
O O6 0.497768 0.441067 0.702727
O O7 0.712508 0.538502 0.763764
O O8 0.811000 0.509890 0.673845
O O9 0.214852 0.250000 0.695914
O O10 0.277916 0.508326 0.644162
O O11 0.906045 0.250000 0.894459
O O12 0.097104 0.513974 0.895271
O O13 0.178426 0.250000 0.380804
#
# Coordination Sequence:
#
# PCOD9464426 Si02
#       5
#     8   8   8   8   8
#     4  11  24  42  65  92 121 156 204 255 308 365
#     4  10  20  35  56  84 115 155 201 243 292 353
#     4  10  21  36  54  84 120 157 196 242 298 356
#     4  10  22  40  62  89 122 160 200 247 305 363
#     4   9  21  41  62  87 119 158 202 250 300 356
#
# _framework density 22.181906999999999
#
# number of rings (size 3 to 8) (size 9 to 14) (size 15 to 20)
#    0.000    2.000    0.000    2.400    2.800    5.600 
#    0.000    0.000    0.000    0.000    0.000    0.000 
#    0.000    0.000    0.000    0.000    0.000    0.000 
#
# Total GULP energy -223252.782029 kJ/mol
# GULP energy per Si atom -5581.319551 kJ/mol
# Density = 2.213142 g / cm^3
# Si number density = 22.181907 Si / 1000 Ang^3
#
#
#
# Elastic Constant Matrix: (Units=GPa)
#
#
# Indices 1 2 3 4 5 6 
#
# 1 45.2550 -11.9892 24.1071 0.0000 0.0000 0.0000
# 2 -11.9892 39.9312 0.3487 0.0000 0.0000 0.0000
# 3 24.1071 0.3487 51.2688 0.0000 0.0000 0.0000
# 4 0.0000 0.0000 0.0000 28.5374 0.0000 0.0000
# 5 0.0000 0.0000 0.0000 0.0000 36.9665 0.0000
# 6 0.0000 0.0000 0.0000 0.0000 0.0000 22.0785
#
#
#
# Elastic Compliance Matrix: (Units=1/GPa)
#
#
# Indices 1 2 3 4 5 6 
#
# 1 0.033090 0.010072 -0.015628 0.000000 0.000000 0.000000
# 2 0.010072 0.028110 -0.004927 0.000000 0.000000 0.000000
# 3 -0.015628 -0.004927 0.026887 0.000000 0.000000 0.000000
# 4 0.000000 0.000000 0.000000 0.035042 0.000000 0.000000
# 5 0.000000 0.000000 0.000000 0.000000 0.027051 0.000000
# 6 0.000000 0.000000 0.000000 0.000000 0.000000 0.045293
#
#
# Mechanical properties :
#
#
# Convention : Reuss Voigt Hill
#
# Bulk Modulus (GPa) = 14.89850 17.93203 16.41527
# Shear Modulus (GPa) = 20.93686 25.78237 23.35961
#
# Velocity S-wave (km/s) = 3.07558 3.41297 3.24866
# Velocity P-wave (km/s) = 4.39811 4.86136 4.63552
#
# Compressibility (1/GPa) = 0.06712083
#
# Stress axis : x y z
#
# Youngs Moduli (GPa) = 30.22051 35.57440 37.19277
#
# Poissons Ratio (x) = -0.35829 0.58124
# Poissons Ratio (y) = -0.30437 0.18325
# Poissons Ratio (z) = 0.47228 0.17528
#
# Static dielectric constant tensor:
#      x y z
#    x 1.836100 0.000000 0.000000 
#    y 0.000000 1.773300 0.000000 
#    z 0.000000 0.000000 1.899990 
# 
# From -- ./inp_files/30673.got.cif
#   From: 2010.05.17/outbox.cif.g08.bks.cpg/sg62_16_cif.got.tgz:30673.got - 2010.06.03 15:25:27.
