data_PCOD9464524
_publ_section_title
;
Structure prediction by ZEFSAII (Michael W. Deem and Ramdas Pophale) SiO2 
 PCOD9464524
Probable space group: P N M A
;
_chemical_formula_sum "Si O2"
_cell_formula_units_Z 44
_cell_length_a 14.951904
_cell_length_b 14.728476
_cell_length_c 10.207037
_cell_angle_alpha 90.000000
_cell_angle_beta 90.000000
_cell_angle_gamma 90.000000
_cell_volume 2247.781023
_symmetry_space_group_name_H-M "P N M A"
_symmetry_group_IT_number 62
_symmetry_cell_setting 'orthorhombic'
loop_
_space_group_symop_operation_xyz
x,y,z
1/2-x,-y,1/2+z
1/2+x,1/2-y,1/2-z
-x,1/2+y,-z
-x,-y,-z
1/2+x,y,1/2-z
1/2-x,1/2+y,1/2+z
x,1/2-y,z
loop_
_atom_site_type_symbol
_atom_site_label
_atom_site_fract_x
_atom_site_fract_y
_atom_site_fract_z
Si Si1 0.843968 0.250000 0.462961
Si Si2 0.968373 0.901700 0.165361
Si Si3 0.287315 0.250000 0.339944
Si Si4 0.634026 0.250000 0.027624
Si Si5 0.488221 0.104497 0.957799
Si Si6 0.835692 0.750000 0.099420
Si Si7 0.582282 0.250000 0.309990
Si Si8 0.559378 0.610710 0.613035
O O1 0.795071 0.250000 0.323513
O O2 0.907389 0.338678 0.477935
O O3 0.769835 0.250000 0.578270
O O4 0.881410 0.837057 0.165976
O O5 0.020296 0.890602 0.300897
O O6 0.939901 0.005782 0.149100
O O7 0.027436 0.878565 0.037729
O O8 0.237766 0.250000 0.490183
O O9 0.348017 0.159270 0.361760
O O10 0.651728 0.250000 0.188803
O O11 0.577259 0.162690 0.991904
O O12 0.500000 0.000000 0.000000
O O13 0.873818 0.750000 0.950909
O O14 0.517354 0.163148 0.303232
#
# Coordination Sequence:
#
# PCOD9464524 Si02
#       8
#     4   8   4   4   8   4   4   8
#     4  11  23  39  60  88 117 158 192 235 300 345
#     4  10  20  39  58  88 113 149 198 226 296 344
#     4  11  21  38  58  91 113 147 200 233 288 341
#     4  11  22  35  58  85 120 152 190 238 285 341
#     4  11  23  41  60  86 118 157 194 241 292 349
#     4  10  20  35  59  82 119 150 186 241 277 345
#     4   9  16  35  57  82 109 149 190 227 282 330
#     4   9  19  36  64  82 109 151 190 241 272 349
#
# _framework density 19.574862
#
# number of rings (size 3 to 8) (size 9 to 14) (size 15 to 20)
#    0.000    1.818    0.909    6.000    0.000    1.455 
#    6.545    0.000    0.000    0.000    0.000    0.000 
#    0.000    0.000    0.000    0.000    0.000    0.000 
#
# Total GULP energy -245032.356925 kJ/mol
# GULP energy per Si atom -5568.917203 kJ/mol
# Density = 1.953031 g / cm^3
# Si number density = 19.574862 Si / 1000 Ang^3
#
#
#
# Elastic Constant Matrix: (Units=GPa)
#
#
# Indices 1 2 3 4 5 6 
#
# 1 33.5728 26.5411 2.4134 0.0000 0.0000 0.0000
# 2 26.5411 135.1113 24.7213 0.0000 0.0000 0.0000
# 3 2.4134 24.7213 88.9090 0.0000 0.0000 0.0000
# 4 0.0000 0.0000 0.0000 -7.6267 0.0000 0.0000
# 5 0.0000 0.0000 0.0000 0.0000 97.4309 0.0000
# 6 0.0000 0.0000 0.0000 0.0000 0.0000 6.9773
#
#
#
# Elastic Compliance Matrix: (Units=1/GPa)
#
#
# Indices 1 2 3 4 5 6 
#
# 1 0.035350 -0.007131 0.001023 0.000000 0.000000 0.000000
# 2 -0.007131 0.009237 -0.002375 0.000000 0.000000 0.000000
# 3 0.001023 -0.002375 0.011880 0.000000 0.000000 0.000000
# 4 0.000000 0.000000 0.000000 -0.131118 0.000000 0.000000
# 5 0.000000 0.000000 0.000000 0.000000 0.010264 0.000000
# 6 0.000000 0.000000 0.000000 0.000000 0.000000 0.143321
#
#
# Mechanical properties :
#
#
# Convention : Reuss Voigt Hill
#
# Bulk Modulus (GPa) = 25.31559 40.54940 32.93249
# Shear Modulus (GPa) = 45.84382 32.95079 39.39731
#
# Velocity S-wave (km/s) = 4.84464 4.10728 4.49112
# Velocity P-wave (km/s) = 6.65243 6.57670 6.61468
#
# Compressibility (1/GPa) = 0.03950136
#
# Stress axis : x y z
#
# Youngs Moduli (GPa) = 28.28836 108.26404 84.17534
#
# Poissons Ratio (x) = 0.77207 -0.08614
# Poissons Ratio (y) = 0.20174 0.19989
# Poissons Ratio (z) = -0.02895 0.25709
#
# Static dielectric constant tensor:
#      x y z
#    x 1.797740 0.000000 0.000000 
#    y 0.000000 1.667860 0.000000 
#    z 0.000000 0.000000 1.743940 
# 
# From -- ./inp_files/7602.got.cif
#   From: 2010.05.17/outbox.cif.g08.bks.cpg/sg62_4_cif.got.tgz:7602.got - 2010.06.03 15:25:27.
