data_PCOD9464128
_publ_section_title
;
Structure prediction by ZEFSAII (Michael W. Deem and Ramdas Pophale) SiO2 
 PCOD9464128
Probable space group: P N M A
;
_chemical_formula_sum "Si O2"
_cell_formula_units_Z 48
_cell_length_a 18.127960
_cell_length_b 13.905596
_cell_length_c 10.343593
_cell_angle_alpha 90.000000
_cell_angle_beta 90.000000
_cell_angle_gamma 90.000000
_cell_volume 2607.413834
_symmetry_space_group_name_H-M "P N M A"
_symmetry_group_IT_number 62
_symmetry_cell_setting 'orthorhombic'
loop_
_space_group_symop_operation_xyz
x,y,z
1/2-x,-y,1/2+z
1/2+x,1/2-y,1/2-z
-x,1/2+y,-z
-x,-y,-z
1/2+x,y,1/2-z
1/2-x,1/2+y,1/2+z
x,1/2-y,z
loop_
_atom_site_type_symbol
_atom_site_label
_atom_site_fract_x
_atom_site_fract_y
_atom_site_fract_z
Si Si1 0.877988 0.137225 0.986520
Si Si2 0.664341 0.141351 0.336567
Si Si3 0.669081 0.639912 0.947742
Si Si4 0.857289 0.001700 0.224069
Si Si5 0.191446 0.943469 0.273644
Si Si6 0.548536 0.137393 0.568761
O O1 0.868782 0.250000 0.011983
O O2 0.839346 0.108047 0.853474
O O3 0.965001 0.116030 0.971112
O O4 0.847652 0.075927 0.105340
O O5 0.654636 0.250000 0.285339
O O6 0.744494 0.137148 0.405330
O O7 0.602740 0.123681 0.446061
O O8 0.664932 0.054572 0.235264
O O9 0.643585 0.750000 0.931626
O O10 0.630123 0.564833 0.851826
O O11 0.665600 0.606958 0.095632
O O12 0.780266 0.944952 0.233963
O O13 0.921934 0.929969 0.182611
O O14 0.552664 0.250000 0.604784
#
# Coordination Sequence:
#
# PCOD9464128 Si02
#       6
#     8   8   8   8   8   8
#     4  11  23  37  61  89 114 146 196 242 280 337
#     4   9  18  34  56  81 111 150 192 234 283 338
#     4  10  20  34  54  81 119 152 182 233 296 342
#     4  11  20  37  57  86 112 153 193 235 281 344
#     4  11  20  35  56  86 115 151 190 235 290 336
#     4  10  20  37  61  86 114 151 192 242 289 329
#
# _framework density 18.409044999999999
#
# number of rings (size 3 to 8) (size 9 to 14) (size 15 to 20)
#    0.000    1.667    3.333    2.500    0.000    1.333 
#    0.000    1.667    0.000    0.000    0.000    0.000 
#    0.000    0.000    0.000    0.000    0.000    0.000 
#
# Total GULP energy -268080.187784 kJ/mol
# GULP energy per Si atom -5585.003912 kJ/mol
# Density = 1.836715 g / cm^3
# Si number density = 18.409045 Si / 1000 Ang^3
#
#
#
# Elastic Constant Matrix: (Units=GPa)
#
#
# Indices 1 2 3 4 5 6 
#
# 1 -204.3453 126.3537 -499.4640 0.0000 0.0000 0.0000
# 2 126.3537 -9.5846 233.9776 0.0000 0.0000 0.0000
# 3 -499.4640 233.9776 -906.7867 0.0000 0.0000 0.0000
# 4 0.0000 0.0000 0.0000 26.7850 0.0000 0.0000
# 5 0.0000 0.0000 0.0000 0.0000 8.8573 0.0000
# 6 0.0000 0.0000 0.0000 0.0000 0.0000 25.4343
#
#
#
# Elastic Compliance Matrix: (Units=1/GPa)
#
#
# Indices 1 2 3 4 5 6 
#
# 1 0.014157 0.000703 -0.007616 0.000000 0.000000 0.000000
# 2 0.000703 0.019724 0.004702 0.000000 0.000000 0.000000
# 3 -0.007616 0.004702 0.004306 0.000000 0.000000 0.000000
# 4 0.000000 0.000000 0.000000 0.037334 0.000000 0.000000
# 5 0.000000 0.000000 0.000000 0.000000 0.112901 0.000000
# 6 0.000000 0.000000 0.000000 0.000000 0.000000 0.039317
#
#
# Mechanical properties :
#
#
# Convention : Reuss Voigt Hill
#
# Bulk Modulus (GPa) = 29.61644 -155.44243 -62.91300
# Shear Modulus (GPa) = 20.54099 -53.22361 -16.34131
#
# Velocity S-wave (km/s) = 3.34400 -5.38279 -2.98263
# Velocity P-wave (km/s) = 5.57070 11.10198 6.79048
#
# Compressibility (1/GPa) = 0.03376503
#
# Stress axis : x y z
#
# Youngs Moduli (GPa) = 70.63745 50.69856 232.25749
#
# Poissons Ratio (x) = -0.03565 1.76892
# Poissons Ratio (y) = -0.04967 -1.09211
# Poissons Ratio (z) = 0.53799 -0.23839
#
# Static dielectric constant tensor:
#      x y z
#    x 1.621660 0.000000 0.000000 
#    y 0.000000 1.677580 0.000000 
#    z 0.000000 0.000000 1.596250 
# 
# From -- ./inp_files/7632.got.cif
#   From: 2010.05.17/outbox.cif.g08.bks.cpg/sg62_4_cif.got.tgz:7632.got - 2010.06.03 15:25:27.
