data_PCOD9464017
_publ_section_title
;
Structure prediction by ZEFSAII (Michael W. Deem and Ramdas Pophale) SiO2 
 PCOD9464017
Probable space group: P N M A
;
_chemical_formula_sum "Si O2"
_cell_formula_units_Z 64
_cell_length_a 5.405489
_cell_length_b 30.806143
_cell_length_c 20.581765
_cell_angle_alpha 90.000000
_cell_angle_beta 90.000000
_cell_angle_gamma 90.000000
_cell_volume 3427.322169
_symmetry_space_group_name_H-M "P N M A"
_symmetry_group_IT_number 62
_symmetry_cell_setting 'orthorhombic'
loop_
_space_group_symop_operation_xyz
x,y,z
1/2-x,-y,1/2+z
1/2+x,1/2-y,1/2-z
-x,1/2+y,-z
-x,-y,-z
1/2+x,y,1/2-z
1/2-x,1/2+y,1/2+z
x,1/2-y,z
loop_
_atom_site_type_symbol
_atom_site_label
_atom_site_fract_x
_atom_site_fract_y
_atom_site_fract_z
Si Si1 0.710771 0.393914 0.967603
Si Si2 0.912079 0.397488 0.273141
Si Si3 0.390850 0.019510 0.315772
Si Si4 0.187577 0.506633 0.060997
Si Si5 0.778385 0.427847 0.715800
Si Si6 0.520247 0.071354 0.093523
Si Si7 0.626191 0.198190 0.710385
Si Si8 0.787340 0.868364 0.096841
O O1 0.711231 0.444455 0.944099
O O2 0.483233 0.368244 0.935152
O O3 0.980708 0.375334 0.950817
O O4 0.648572 0.396627 0.043510
O O5 0.677690 0.375746 0.239180
O O6 0.962456 0.444068 0.236692
O O7 0.866907 0.405339 0.349376
O O8 0.226179 0.045419 0.367233
O O9 0.592983 0.998666 0.364296
O O10 0.237745 0.979868 0.285505
O O11 0.369068 0.465494 0.055521
O O12 0.000000 0.500000 0.000000
O O13 0.548766 0.413421 0.760895
O O14 0.721224 0.409636 0.645101
O O15 0.363219 0.187377 0.744079
O O16 0.630504 0.250000 0.699848
O O17 0.661385 0.172085 0.643952
#
# Coordination Sequence:
#
# PCOD9464017 Si02
#       8
#     8   8   8   8   8   8   8   8
#     4  12  25  36  53  76 106 145 176 225 283 332
#     4  10  20  34  50  66  85 118 172 236 269 305
#     4  11  22  34  51  66  93 128 187 236 279 314
#     4  12  22  37  48  70  96 140 189 238 275 333
#     4  12  24  35  49  70 100 133 168 226 286 321
#     4  11  23  36  51  68  97 134 189 232 279 324
#     4  10  21  41  69  93 115 146 182 222 271 339
#     4  12  24  40  55  81 111 138 176 218 280 344
#
# _framework density 18.673470999999999
#
# number of rings (size 3 to 8) (size 9 to 14) (size 15 to 20)
#    0.000    0.750    3.750    5.625    1.750    0.000 
#    0.000    0.000    0.000    0.000    0.000    0.000 
#    0.000    0.000    0.000    0.000    0.000   50.000 
#
# Total GULP energy -357498.908440 kJ/mol
# GULP energy per Si atom -5585.920444 kJ/mol
# Density = 1.863097 g / cm^3
# Si number density = 18.673471 Si / 1000 Ang^3
#
#
#
# Elastic Constant Matrix: (Units=GPa)
#
#
# Indices 1 2 3 4 5 6 
#
# 1 90.5196 9.0458 20.4552 0.0000 0.0000 0.0000
# 2 9.0458 25.8249 9.4565 0.0000 0.0000 0.0000
# 3 20.4552 9.4565 83.8941 0.0000 0.0000 0.0000
# 4 0.0000 0.0000 0.0000 17.4541 0.0000 0.0000
# 5 0.0000 0.0000 0.0000 0.0000 42.5791 0.0000
# 6 0.0000 0.0000 0.0000 0.0000 0.0000 13.1883
#
#
#
# Elastic Compliance Matrix: (Units=1/GPa)
#
#
# Indices 1 2 3 4 5 6 
#
# 1 0.011948 -0.003253 -0.002546 0.000000 0.000000 0.000000
# 2 -0.003253 0.041275 -0.003859 0.000000 0.000000 0.000000
# 3 -0.002546 -0.003859 0.012976 0.000000 0.000000 0.000000
# 4 0.000000 0.000000 0.000000 0.057293 0.000000 0.000000
# 5 0.000000 0.000000 0.000000 0.000000 0.023486 0.000000
# 6 0.000000 0.000000 0.000000 0.000000 0.000000 0.075825
#
#
# Mechanical properties :
#
#
# Convention : Reuss Voigt Hill
#
# Bulk Modulus (GPa) = 21.33042 30.90596 26.11819
# Shear Modulus (GPa) = 19.39892 25.39637 22.39765
#
# Velocity S-wave (km/s) = 3.22662 3.69185 3.46705
# Velocity P-wave (km/s) = 5.03280 5.89573 5.48127
#
# Compressibility (1/GPa) = 0.04688141
#
# Stress axis : x y z
#
# Youngs Moduli (GPa) = 83.69737 24.22779 77.06706
#
# Poissons Ratio (x) = 0.07880 0.19625
# Poissons Ratio (y) = 0.27223 0.29744
# Poissons Ratio (z) = 0.21314 0.09351
#
# Static dielectric constant tensor:
#      x y z
#    x 1.784580 0.000000 0.000000 
#    y 0.000000 1.615120 0.000000 
#    z 0.000000 0.000000 1.692280 
# 
# From -- ./inp_files/21687.got.cif
#   From: 2010.05.17/outbox.cif.g08.bks.cpg/sg62_11_cif.got.tgz:21687.got - 2010.06.03 15:25:27.
