data_PCOD9464362
_publ_section_title
;
Structure prediction by ZEFSAII (Michael W. Deem and Ramdas Pophale) SiO2 
 PCOD9464362
Probable space group: P N M A
;
_chemical_formula_sum "Si O2"
_cell_formula_units_Z 48
_cell_length_a 28.405515
_cell_length_b 12.404616
_cell_length_c 7.436918
_cell_angle_alpha 90.000000
_cell_angle_beta 90.000000
_cell_angle_gamma 90.000000
_cell_volume 2620.468752
_symmetry_space_group_name_H-M "P N M A"
_symmetry_group_IT_number 62
_symmetry_cell_setting 'orthorhombic'
loop_
_space_group_symop_operation_xyz
x,y,z
1/2-x,-y,1/2+z
1/2+x,1/2-y,1/2-z
-x,1/2+y,-z
-x,-y,-z
1/2+x,y,1/2-z
1/2-x,1/2+y,1/2+z
x,1/2-y,z
loop_
_atom_site_type_symbol
_atom_site_label
_atom_site_fract_x
_atom_site_fract_y
_atom_site_fract_z
Si Si1 0.937809 0.035282 0.656175
Si Si2 0.354602 0.873674 0.897441
Si Si3 0.105049 0.625907 0.985630
Si Si4 0.310680 0.967741 0.541548
Si Si5 0.729695 0.374288 0.818776
Si Si6 0.979027 0.374233 0.294800
O O1 0.959752 0.104733 0.495706
O O2 0.896917 0.957679 0.579431
O O3 0.915926 0.105426 0.815785
O O4 0.978398 0.957036 0.733352
O O5 0.371030 0.750000 0.910129
O O6 0.332562 0.896199 0.700882
O O7 0.313801 0.890018 0.044306
O O8 0.120447 0.750000 0.966835
O O9 0.147966 0.543558 0.963667
O O10 0.063539 0.605958 0.843143
O O11 0.288033 0.899719 0.381432
O O12 0.271279 0.045256 0.627450
O O13 0.745177 0.250000 0.833089
O O14 0.994218 0.250000 0.274587
#
# Coordination Sequence:
#
# PCOD9464362 Si02
#       6
#     8   8   8   8   8   8
#     4  10  20  35  57  80 110 147 183 227 275 329
#     4  10  21  37  57  81 111 146 185 230 278 331
#     4  10  21  36  55  80 111 145 182 228 278 332
#     4  11  21  38  57  80 111 145 185 230 283 334
#     4  11  22  37  57  81 109 144 186 231 280 337
#     4  10  20  35  55  82 112 144 184 227 275 329
#
# _framework density 18.317333000000001
#
# number of rings (size 3 to 8) (size 9 to 14) (size 15 to 20)
#    0.000    1.667    1.667    3.500    0.000    0.000 
#    0.000    0.000    0.000   16.000    0.000    0.000 
#    0.000    0.000    0.000    0.000    0.000    0.000 
#
# Total GULP energy -268127.475041 kJ/mol
# GULP energy per Si atom -5585.989063 kJ/mol
# Density = 1.827564 g / cm^3
# Si number density = 18.317333 Si / 1000 Ang^3
#
#
#
# Elastic Constant Matrix: (Units=GPa)
#
#
# Indices 1 2 3 4 5 6 
#
# 1 27.3323 -1.8649 -14.2566 0.0000 0.0000 0.0000
# 2 -1.8649 35.6864 -2.3560 0.0000 0.0000 0.0000
# 3 -14.2566 -2.3560 22.9043 0.0000 0.0000 0.0000
# 4 0.0000 0.0000 0.0000 23.2440 0.0000 0.0000
# 5 0.0000 0.0000 0.0000 0.0000 28.8284 0.0000
# 6 0.0000 0.0000 0.0000 0.0000 0.0000 -5.9057
#
#
#
# Elastic Compliance Matrix: (Units=1/GPa)
#
#
# Indices 1 2 3 4 5 6 
#
# 1 0.055111 0.005180 0.034836 0.000000 0.000000 0.000000
# 2 0.005180 0.028700 0.006176 0.000000 0.000000 0.000000
# 3 0.034836 0.006176 0.065979 0.000000 0.000000 0.000000
# 4 0.000000 0.000000 0.000000 0.043022 0.000000 0.000000
# 5 0.000000 0.000000 0.000000 0.000000 0.034688 0.000000
# 6 0.000000 0.000000 0.000000 0.000000 0.000000 -0.169328
#
#
# Mechanical properties :
#
#
# Convention : Reuss Voigt Hill
#
# Bulk Modulus (GPa) = 4.12925 5.44088 4.78506
# Shear Modulus (GPa) = 107.49871 16.19338 61.84604
#
# Velocity S-wave (km/s) = 7.66905 2.97652 5.81696
# Velocity P-wave (km/s) = 8.98211 3.84573 6.90898
#
# Compressibility (1/GPa) = 0.24217482
#
# Stress axis : x y z
#
# Youngs Moduli (GPa) = 18.14529 34.84279 15.15637
#
# Poissons Ratio (x) = -0.18048 -0.52799
# Poissons Ratio (y) = -0.09399 -0.09361
# Poissons Ratio (z) = -0.63211 -0.21520
#
# Static dielectric constant tensor:
#      x y z
#    x 1.603200 0.000000 0.000000 
#    y 0.000000 1.594390 0.000000 
#    z 0.000000 0.000000 1.599140 
# 
# From -- ./inp_files/9291.got.cif
#   From: 2010.05.17/outbox.cif.g08.bks.cpg/sg62_5_cif.got.tgz:9291.got - 2010.06.03 15:25:27.
