data_PCOD9464578
_publ_section_title
;
Structure prediction by ZEFSAII (Michael W. Deem and Ramdas Pophale) SiO2 
 PCOD9464578
Probable space group: P N M A
;
_chemical_formula_sum "Si O2"
_cell_formula_units_Z 40
_cell_length_a 14.597562
_cell_length_b 13.385124
_cell_length_c 9.432173
_cell_angle_alpha 90.000000
_cell_angle_beta 90.000000
_cell_angle_gamma 90.000000
_cell_volume 1842.953956
_symmetry_space_group_name_H-M "P N M A"
_symmetry_group_IT_number 62
_symmetry_cell_setting 'orthorhombic'
loop_
_space_group_symop_operation_xyz
x,y,z
1/2-x,-y,1/2+z
1/2+x,1/2-y,1/2-z
-x,1/2+y,-z
-x,-y,-z
1/2+x,y,1/2-z
1/2-x,1/2+y,1/2+z
x,1/2-y,z
loop_
_atom_site_type_symbol
_atom_site_label
_atom_site_fract_x
_atom_site_fract_y
_atom_site_fract_z
Si Si1 0.091500 0.949919 0.942088
Si Si2 0.405091 0.362939 0.739622
Si Si3 0.079900 0.421286 0.586026
Si Si4 0.298750 0.639426 0.330744
Si Si5 0.942233 0.137057 0.362608
O O1 0.121381 0.888370 0.078946
O O2 0.068227 0.882184 0.805411
O O3 0.158663 0.041805 0.904650
O O4 0.000000 0.000000 0.000000
O O5 0.490014 0.421952 0.809005
O O6 0.309994 0.369670 0.822162
O O7 0.392883 0.462201 0.075540
O O8 0.939551 0.250000 0.754291
O O9 0.157613 0.365014 0.672419
O O10 0.041817 0.374568 0.440373
O O11 0.322313 0.750000 0.390955
O O12 0.910426 0.250000 0.395148
#
# Coordination Sequence:
#
# PCOD9464578 Si02
#       5
#     8   8   8   8   8
#     4  11  22  39  59  92 123 161 202 263 310 362
#     4  11  22  40  64  88 122 166 207 254 317 371
#     4  10  21  39  61  87 122 162 204 255 309 373
#     4  10  22  38  62  90 122 165 210 251 310 380
#     4  10  20  35  62  89 115 157 206 252 309 369
#
# _framework density 21.704287000000001
#
# number of rings (size 3 to 8) (size 9 to 14) (size 15 to 20)
#    0.000    1.600    4.000    2.400    0.000    5.600 
#    0.000    0.000    0.000    6.000    0.000    0.000 
#    0.000    0.000    0.000    0.000    0.000    0.000 
#
# Total GULP energy -222888.621970 kJ/mol
# GULP energy per Si atom -5572.215549 kJ/mol
# Density = 2.165489 g / cm^3
# Si number density = 21.704287 Si / 1000 Ang^3
#
#
#
# Elastic Constant Matrix: (Units=GPa)
#
#
# Indices 1 2 3 4 5 6 
#
# 1 64.7453 27.3802 20.0021 0.0000 0.0000 0.0000
# 2 27.3802 142.7388 44.6819 0.0000 0.0000 0.0000
# 3 20.0021 44.6819 130.1960 0.0000 0.0000 0.0000
# 4 0.0000 0.0000 0.0000 26.2958 0.0000 0.0000
# 5 0.0000 0.0000 0.0000 0.0000 25.8595 0.0000
# 6 0.0000 0.0000 0.0000 0.0000 0.0000 19.3206
#
#
#
# Elastic Compliance Matrix: (Units=1/GPa)
#
#
# Indices 1 2 3 4 5 6 
#
# 1 0.017132 -0.002759 -0.001685 0.000000 0.000000 0.000000
# 2 -0.002759 0.008293 -0.002422 0.000000 0.000000 0.000000
# 3 -0.001685 -0.002422 0.008771 0.000000 0.000000 0.000000
# 4 0.000000 0.000000 0.000000 0.038029 0.000000 0.000000
# 5 0.000000 0.000000 0.000000 0.000000 0.038671 0.000000
# 6 0.000000 0.000000 0.000000 0.000000 0.000000 0.051758
#
#
# Mechanical properties :
#
#
# Convention : Reuss Voigt Hill
#
# Bulk Modulus (GPa) = 48.86664 57.97872 53.42268
# Shear Modulus (GPa) = 27.29133 30.66958 28.98045
#
# Velocity S-wave (km/s) = 3.54985 3.76315 3.65806
# Velocity P-wave (km/s) = 6.27420 6.75669 6.51991
#
# Compressibility (1/GPa) = 0.02046386
#
# Stress axis : x y z
#
# Youngs Moduli (GPa) = 58.36878 120.57979 114.01266
#
# Poissons Ratio (x) = 0.33266 0.19214
# Poissons Ratio (y) = 0.16103 0.27618
# Poissons Ratio (z) = 0.09837 0.29208
#
# Static dielectric constant tensor:
#      x y z
#    x 1.777760 0.000000 0.000000 
#    y 0.000000 1.838690 0.000000 
#    z 0.000000 0.000000 1.915520 
# 
# From -- ./inp_files/6106.got.cif
#   From: 2010.05.17/outbox.cif.g08.bks.cpg/sg62_4_cif.got.tgz:6106.got - 2010.06.03 15:25:27.
