data_PCOD9464353
_publ_section_title
;
Structure prediction by ZEFSAII (Michael W. Deem and Ramdas Pophale) SiO2 
 PCOD9464353
Probable space group: P N M A
;
_chemical_formula_sum "Si O2"
_cell_formula_units_Z 64
_cell_length_a 16.636300
_cell_length_b 8.041708
_cell_length_c 23.316446
_cell_angle_alpha 90.000000
_cell_angle_beta 90.000000
_cell_angle_gamma 90.000000
_cell_volume 3119.373633
_symmetry_space_group_name_H-M "P N M A"
_symmetry_group_IT_number 62
_symmetry_cell_setting 'orthorhombic'
loop_
_space_group_symop_operation_xyz
x,y,z
1/2-x,-y,1/2+z
1/2+x,1/2-y,1/2-z
-x,1/2+y,-z
-x,-y,-z
1/2+x,y,1/2-z
1/2-x,1/2+y,1/2+z
x,1/2-y,z
loop_
_atom_site_type_symbol
_atom_site_label
_atom_site_fract_x
_atom_site_fract_y
_atom_site_fract_z
Si Si1 0.630284 0.555080 0.218656
Si Si2 0.575187 0.951090 0.959439
Si Si3 0.755408 0.442203 0.508761
Si Si4 0.542219 0.952772 0.828546
Si Si5 0.757805 0.059020 0.133349
Si Si6 0.433939 0.451768 0.663986
Si Si7 0.419194 0.447119 0.534040
Si Si8 0.394685 0.053238 0.287654
O O1 0.651534 0.750000 0.214261
O O2 0.541721 0.528393 0.192571
O O3 0.688296 0.447103 0.180102
O O4 0.628857 0.505640 0.285667
O O5 0.577688 0.750000 0.960625
O O6 0.561302 0.002771 0.893410
O O7 0.662753 0.014229 0.980716
O O8 0.500000 0.000000 0.000000
O O9 0.752243 0.250000 0.491930
O O10 0.765616 0.461360 0.576772
O O11 0.667174 0.512063 0.493723
O O12 0.536145 0.750000 0.826896
O O13 0.604753 0.004547 0.778407
O O14 0.774381 0.250000 0.115634
O O15 0.832875 0.980380 0.166825
O O16 0.439611 0.250000 0.664091
O O17 0.418490 0.511951 0.599662
O O18 0.517701 0.523605 0.686495
O O19 0.500000 0.500000 0.500000
O O20 0.424489 0.250000 0.537442
O O21 0.377290 0.250000 0.285946
#
# Coordination Sequence:
#
# PCOD9464353 Si02
#       8
#     8   8   8   8   8   8   8   8
#     4  10  20  35  55  81 110 142 180 226 278 337
#     4  10  22  38  58  82 112 149 188 230 280 334
#     4  11  24  40  58  85 117 152 194 240 288 347
#     4   9  18  36  57  78 105 139 180 227 276 329
#     4  11  22  36  55  81 110 143 183 230 282 336
#     4   9  20  37  56  79 110 144 181 224 277 335
#     4  11  23  40  61  86 117 156 197 240 289 344
#     4   9  19  34  55  80 105 135 177 225 273 326
#
# _framework density 20.516939000000001
#
# number of rings (size 3 to 8) (size 9 to 14) (size 15 to 20)
#    0.000    2.000    0.000    3.000    0.000    9.000 
#    0.000    1.250    0.000    0.000    0.000    0.000 
#    0.000    0.000    0.000    0.000    0.000    0.000 
#
# Total GULP energy -356987.287810 kJ/mol
# GULP energy per Si atom -5577.926372 kJ/mol
# Density = 2.047024 g / cm^3
# Si number density = 20.516939 Si / 1000 Ang^3
#
#
#
# Elastic Constant Matrix: (Units=GPa)
#
#
# Indices 1 2 3 4 5 6 
#
# 1 70.3889 4.6926 24.3289 0.0000 0.0000 0.0000
# 2 4.6926 21.7808 10.6061 0.0000 0.0000 0.0000
# 3 24.3289 10.6061 117.3437 0.0000 0.0000 0.0000
# 4 0.0000 0.0000 0.0000 4.9822 0.0000 0.0000
# 5 0.0000 0.0000 0.0000 0.0000 32.5233 0.0000
# 6 0.0000 0.0000 0.0000 0.0000 0.0000 33.5469
#
#
#
# Elastic Compliance Matrix: (Units=1/GPa)
#
#
# Indices 1 2 3 4 5 6 
#
# 1 0.015374 -0.001841 -0.003021 0.000000 0.000000 0.000000
# 2 -0.001841 0.048246 -0.003979 0.000000 0.000000 0.000000
# 3 -0.003021 -0.003979 0.009508 0.000000 0.000000 0.000000
# 4 0.000000 0.000000 0.000000 0.200714 0.000000 0.000000
# 5 0.000000 0.000000 0.000000 0.000000 0.030747 0.000000
# 6 0.000000 0.000000 0.000000 0.000000 0.000000 0.029809
#
#
# Mechanical properties :
#
#
# Convention : Reuss Voigt Hill
#
# Bulk Modulus (GPa) = 18.03571 32.08538 25.06054
# Shear Modulus (GPa) = 13.49300 25.53620 19.51460
#
# Velocity S-wave (km/s) = 2.56725 3.53177 3.08741
# Velocity P-wave (km/s) = 4.19493 5.68363 4.99505
#
# Compressibility (1/GPa) = 0.05544557
#
# Stress axis : x y z
#
# Youngs Moduli (GPa) = 65.04612 20.72701 105.17505
#
# Poissons Ratio (x) = 0.03816 0.31774
# Poissons Ratio (y) = 0.11976 0.41849
# Poissons Ratio (z) = 0.19651 0.08247
#
# Static dielectric constant tensor:
#      x y z
#    x 1.751490 0.000000 0.000000 
#    y 0.000000 1.736800 0.000000 
#    z 0.000000 0.000000 1.755340 
# 
# From -- ./inp_files/27668.got.cif
#   From: 2010.05.17/outbox.cif.g08.bks.cpg/sg62_14_cif.got.tgz:27668.got - 2010.06.03 15:25:27.
