data_PCOD9464442
_publ_section_title
;
Structure prediction by ZEFSAII (Michael W. Deem and Ramdas Pophale) SiO2 
 PCOD9464442
Probable space group: P N M A
;
_chemical_formula_sum "Si O2"
_cell_formula_units_Z 56
_cell_length_a 15.304717
_cell_length_b 8.853688
_cell_length_c 19.172344
_cell_angle_alpha 90.000000
_cell_angle_beta 90.000000
_cell_angle_gamma 90.000000
_cell_volume 2597.913757
_symmetry_space_group_name_H-M "P N M A"
_symmetry_group_IT_number 62
_symmetry_cell_setting 'orthorhombic'
loop_
_space_group_symop_operation_xyz
x,y,z
1/2-x,-y,1/2+z
1/2+x,1/2-y,1/2-z
-x,1/2+y,-z
-x,-y,-z
1/2+x,y,1/2-z
1/2-x,1/2+y,1/2+z
x,1/2-y,z
loop_
_atom_site_type_symbol
_atom_site_label
_atom_site_fract_x
_atom_site_fract_y
_atom_site_fract_z
Si Si1 0.022907 0.067804 0.736901
Si Si2 0.525964 0.421572 0.607464
Si Si3 0.225486 0.431916 0.735016
Si Si4 0.140110 0.933028 0.356262
Si Si5 0.768651 0.425929 0.406195
Si Si6 0.135370 0.580882 0.999902
Si Si7 0.404367 0.929049 0.000368
O O1 0.023855 0.250000 0.729788
O O2 0.994484 0.032480 0.816099
O O3 0.123940 0.018128 0.733903
O O4 0.950593 0.016600 0.681505
O O5 0.561902 0.250000 0.613371
O O6 0.446505 0.416390 0.553173
O O7 0.598310 0.529838 0.574367
O O8 0.228569 0.250000 0.728821
O O9 0.280207 0.470621 0.804103
O O10 0.265811 0.504768 0.665804
O O11 0.138399 0.750000 0.364784
O O12 0.144258 0.010203 0.431291
O O13 0.786035 0.250000 0.399246
O O14 0.700080 0.460186 0.467277
O O15 0.854380 0.514919 0.430951
O O16 0.173789 0.750000 0.998569
O O17 0.409498 0.750000 0.999969
O O18 0.500000 0.000000 0.000000
#
# Coordination Sequence:
#
# PCOD9464442 Si02
#       7
#     8   8   8   8   8   8   8
#     4   9  18  34  58  85 118 159 204 254 308 374
#     4   9  18  34  57  86 121 160 201 245 301 375
#     4  10  21  38  62  91 124 167 216 265 323 389
#     4  10  21  39  64  95 130 172 218 265 323 394
#     4  12  25  41  63  89 122 166 216 269 323 381
#     4  10  20  35  56  86 121 158 201 253 311 372
#     4  12  26  45  68  95 129 169 217 273 331 390
#
# _framework density 21.555758000000001
#
# number of rings (size 3 to 8) (size 9 to 14) (size 15 to 20)
#    0.000    1.714    0.000    4.714    2.000    4.571 
#    0.000    1.429    0.000    0.000    0.000    0.000 
#    0.000    0.000    0.000    0.000    0.000    0.000 
#
# Total GULP energy -313025.639431 kJ/mol
# GULP energy per Si atom -5589.743561 kJ/mol
# Density = 2.150670 g / cm^3
# Si number density = 21.555758 Si / 1000 Ang^3
#
#
#
# Elastic Constant Matrix: (Units=GPa)
#
#
# Indices 1 2 3 4 5 6 
#
# 1 66.8813 25.3566 19.1451 0.0000 0.0000 0.0000
# 2 25.3566 75.5427 36.7011 0.0000 0.0000 0.0000
# 3 19.1451 36.7011 102.3076 0.0000 0.0000 0.0000
# 4 0.0000 0.0000 0.0000 31.3143 0.0000 0.0000
# 5 0.0000 0.0000 0.0000 0.0000 32.6409 0.0000
# 6 0.0000 0.0000 0.0000 0.0000 0.0000 20.5186
#
#
#
# Elastic Compliance Matrix: (Units=1/GPa)
#
#
# Indices 1 2 3 4 5 6 
#
# 1 0.017295 -0.005126 -0.001398 0.000000 0.000000 0.000000
# 2 -0.005126 0.017551 -0.005337 0.000000 0.000000 0.000000
# 3 -0.001398 -0.005337 0.011950 0.000000 0.000000 0.000000
# 4 0.000000 0.000000 0.000000 0.031934 0.000000 0.000000
# 5 0.000000 0.000000 0.000000 0.000000 0.030636 0.000000
# 6 0.000000 0.000000 0.000000 0.000000 0.000000 0.048736
#
#
# Mechanical properties :
#
#
# Convention : Reuss Voigt Hill
#
# Bulk Modulus (GPa) = 43.33608 45.23746 44.28677
# Shear Modulus (GPa) = 26.38283 27.79671 27.08977
#
# Velocity S-wave (km/s) = 3.50227 3.59489 3.54888
# Velocity P-wave (km/s) = 6.04172 6.18569 6.11413
#
# Compressibility (1/GPa) = 0.02307546
#
# Stress axis : x y z
#
# Youngs Moduli (GPa) = 57.81859 56.97653 83.67878
#
# Poissons Ratio (x) = 0.29209 0.11694
# Poissons Ratio (y) = 0.29640 0.44658
# Poissons Ratio (z) = 0.08080 0.30407
#
# Static dielectric constant tensor:
#      x y z
#    x 1.839960 0.000000 0.000000 
#    y 0.000000 1.730000 0.000000 
#    z 0.000000 0.000000 1.761010 
# 
# From -- ./inp_files/27219.got.cif
#   From: 2010.05.17/outbox.cif.g08.bks.cpg/sg62_14_cif.got.tgz:27219.got - 2010.06.03 15:25:27.
