data_PCOD9464351
_publ_section_title
;
Structure prediction by ZEFSAII (Michael W. Deem and Ramdas Pophale) SiO2 
 PCOD9464351
Probable space group: P N M A
;
_chemical_formula_sum "Si O2"
_cell_formula_units_Z 64
_cell_length_a 15.684705
_cell_length_b 9.123067
_cell_length_c 23.721992
_cell_angle_alpha 90.000000
_cell_angle_beta 90.000000
_cell_angle_gamma 90.000000
_cell_volume 3394.441859
_symmetry_space_group_name_H-M "P N M A"
_symmetry_group_IT_number 62
_symmetry_cell_setting 'orthorhombic'
loop_
_space_group_symop_operation_xyz
x,y,z
1/2-x,-y,1/2+z
1/2+x,1/2-y,1/2-z
-x,1/2+y,-z
-x,-y,-z
1/2+x,y,1/2-z
1/2-x,1/2+y,1/2+z
x,1/2-y,z
loop_
_atom_site_type_symbol
_atom_site_label
_atom_site_fract_x
_atom_site_fract_y
_atom_site_fract_z
Si Si1 0.790639 0.075832 0.548414
Si Si2 0.055330 0.924307 0.076670
Si Si3 0.372086 0.075039 0.696800
Si Si4 0.818946 0.925784 0.307444
Si Si5 0.640860 0.574695 0.925502
Si Si6 0.615703 0.924700 0.549063
Si Si7 0.486714 0.078810 0.227913
Si Si8 0.048009 0.079773 0.401479
O O1 0.781917 0.250000 0.553927
O O2 0.809028 0.041389 0.482517
O O3 0.704240 0.996712 0.566887
O O4 0.872923 0.019440 0.581874
O O5 0.037581 0.750000 0.075497
O O6 0.113750 0.955170 0.130444
O O7 0.099136 0.961883 0.017150
O O8 0.966384 0.010130 0.080557
O O9 0.381784 0.250000 0.705034
O O10 0.275746 0.034381 0.713457
O O11 0.444628 0.992149 0.730934
O O12 0.826413 0.750000 0.307885
O O13 0.827947 0.986536 0.371181
O O14 0.896180 0.996341 0.272614
O O15 0.646657 0.750000 0.913791
O O16 0.540209 0.541838 0.933222
O O17 0.618890 0.750000 0.554764
O O18 0.474153 0.250000 0.240319
O O19 0.523680 0.066873 0.164327
O O20 0.068773 0.250000 0.413502
#
# Coordination Sequence:
#
# PCOD9464351 Si02
#       8
#     8   8   8   8   8   8   8   8
#     4  11  21  32  51  81 112 147 186 223 273 334
#     4   9  19  37  58  81 110 142 181 228 273 325
#     4  10  21  38  61  87 112 144 188 233 281 334
#     4  10  20  36  60  87 113 145 185 230 283 337
#     4   9  19  34  53  80 113 145 183 229 275 328
#     4  10  20  35  55  80 113 148 181 222 275 330
#     4  10  22  40  59  82 113 148 187 235 284 331
#     4   9  19  36  53  73 107 145 183 229 276 325
#
# _framework density 18.854351000000001
#
# number of rings (size 3 to 8) (size 9 to 14) (size 15 to 20)
#    0.000    2.250    0.000    3.375    0.000    6.500 
#    2.250    0.000    0.000    0.000    0.000    0.000 
#    0.000    0.000    0.000    0.000    0.000    0.000 
#
# Total GULP energy -357358.875383 kJ/mol
# GULP energy per Si atom -5583.732428 kJ/mol
# Density = 1.881144 g / cm^3
# Si number density = 18.854351 Si / 1000 Ang^3
#
#
#
# Elastic Constant Matrix: (Units=GPa)
#
#
# Indices 1 2 3 4 5 6 
#
# 1 145.6277 60.4806 23.5576 0.0000 0.0000 0.0000
# 2 60.4806 47.6253 18.9113 0.0000 0.0000 0.0000
# 3 23.5576 18.9113 18.1469 0.0000 0.0000 0.0000
# 4 0.0000 0.0000 0.0000 27.8834 0.0000 0.0000
# 5 0.0000 0.0000 0.0000 0.0000 21.2933 0.0000
# 6 0.0000 0.0000 0.0000 0.0000 0.0000 30.2507
#
#
#
# Elastic Compliance Matrix: (Units=1/GPa)
#
#
# Indices 1 2 3 4 5 6 
#
# 1 0.014534 -0.018706 0.000626 0.000000 0.000000 0.000000
# 2 -0.018706 0.059895 -0.038135 0.000000 0.000000 0.000000
# 3 0.000626 -0.038135 0.094034 0.000000 0.000000 0.000000
# 4 0.000000 0.000000 0.000000 0.035864 0.000000 0.000000
# 5 0.000000 0.000000 0.000000 0.000000 0.046963 0.000000
# 6 0.000000 0.000000 0.000000 0.000000 0.000000 0.033057
#
#
# Mechanical properties :
#
#
# Convention : Reuss Voigt Hill
#
# Bulk Modulus (GPa) = 17.84615 46.36654 32.10634
# Shear Modulus (GPa) = 12.03499 23.11552 17.57526
#
# Velocity S-wave (km/s) = 2.52923 3.50523 3.05644
# Velocity P-wave (km/s) = 4.24442 6.40528 5.43336
#
# Compressibility (1/GPa) = 0.05603450
#
# Stress axis : x y z
#
# Youngs Moduli (GPa) = 68.80220 16.69579 10.63444
#
# Poissons Ratio (x) = 0.31232 -0.00666
# Poissons Ratio (y) = 1.28703 0.40554
# Poissons Ratio (z) = -0.04308 0.63669
#
# Static dielectric constant tensor:
#      x y z
#    x 1.641520 0.000000 0.000000 
#    y 0.000000 1.626150 0.000000 
#    z 0.000000 0.000000 1.648710 
# 
# From -- ./inp_files/29787.got.cif
#   From: 2010.05.17/outbox.cif.g08.bks.cpg/sg62_15_cif.got.tgz:29787.got - 2010.06.03 15:25:27.
