data_PCOD9464947
_publ_section_title
;
Structure prediction by ZEFSAII (Michael W. Deem and Ramdas Pophale) SiO2 
 PCOD9464947
Probable space group: P N M A
;
_chemical_formula_sum "Si O2"
_cell_formula_units_Z 60
_cell_length_a 11.293669
_cell_length_b 26.751562
_cell_length_c 9.143620
_cell_angle_alpha 90.000000
_cell_angle_beta 90.000000
_cell_angle_gamma 90.000000
_cell_volume 2762.500525
_symmetry_space_group_name_H-M "P N M A"
_symmetry_group_IT_number 62
_symmetry_cell_setting 'orthorhombic'
loop_
_space_group_symop_operation_xyz
x,y,z
1/2-x,-y,1/2+z
1/2+x,1/2-y,1/2-z
-x,1/2+y,-z
-x,-y,-z
1/2+x,y,1/2-z
1/2-x,1/2+y,1/2+z
x,1/2-y,z
loop_
_atom_site_type_symbol
_atom_site_label
_atom_site_fract_x
_atom_site_fract_y
_atom_site_fract_z
Si Si1 0.520666 0.008642 0.829407
Si Si2 0.755536 0.397651 0.535118
Si Si3 0.949567 0.838352 0.887170
Si Si4 0.632744 0.500373 0.431522
Si Si5 0.881310 0.250000 0.060536
Si Si6 0.309750 0.838087 0.886043
Si Si7 0.868329 0.090999 0.258696
Si Si8 0.703528 0.409540 0.856747
O O1 0.583981 0.061552 0.810161
O O2 0.400561 0.999414 0.740978
O O3 0.612823 0.967715 0.767396
O O4 0.500000 0.000000 0.000000
O O5 0.658933 0.356982 0.484792
O O6 0.701288 0.452024 0.491038
O O7 0.869671 0.391951 0.429758
O O8 0.771210 0.394879 0.708090
O O9 0.911025 0.820196 0.724417
O O10 0.019848 0.794372 0.963592
O O11 0.032593 0.885346 0.845258
O O12 0.500000 0.500000 0.500000
O O13 0.713735 0.550098 0.443159
O O14 0.783282 0.293926 0.097643
O O15 0.252753 0.885094 0.797527
O O16 0.330996 0.862673 0.043254
#
# Coordination Sequence:
#
# PCOD9464947 Si02
#       8
#     8   8   8   8   4   8   8   8
#     4  12  23  34  56  88 128 176 222 257 310 371
#     4  11  23  39  61  92 131 173 220 262 319 394
#     4  10  21  41  69  92 121 162 217 276 336 386
#     4  12  24  38  59  87 131 184 219 255 309 385
#     4  10  22  42  72  94 116 158 220 284 340 388
#     4  10  23  40  65  93 125 161 216 277 328 390
#     4  10  20  37  60  87 125 168 214 263 308 375
#     4  12  26  38  59  93 140 173 219 262 324 397
#
# _framework density 21.719453000000001
#
# number of rings (size 3 to 8) (size 9 to 14) (size 15 to 20)
#    0.000    1.067    4.000    2.800    3.733    0.000 
#    0.000    0.667    0.000    4.800    0.000    0.000 
#    0.000    0.000    0.000    0.000    0.000    0.000 
#
# Total GULP energy -334036.798527 kJ/mol
# GULP energy per Si atom -5567.279975 kJ/mol
# Density = 2.167002 g / cm^3
# Si number density = 21.719453 Si / 1000 Ang^3
#
#
#
# Elastic Constant Matrix: (Units=GPa)
#
#
# Indices 1 2 3 4 5 6 
#
# 1 27.8358 -1.1141 -18.6461 0.0000 0.0000 0.0000
# 2 -1.1141 78.0014 8.2642 0.0000 0.0000 0.0000
# 3 -18.6461 8.2642 78.7073 0.0000 0.0000 0.0000
# 4 0.0000 0.0000 0.0000 1.3294 0.0000 0.0000
# 5 0.0000 0.0000 0.0000 0.0000 29.4844 0.0000
# 6 0.0000 0.0000 0.0000 0.0000 0.0000 21.5656
#
#
#
# Elastic Compliance Matrix: (Units=1/GPa)
#
#
# Indices 1 2 3 4 5 6 
#
# 1 0.042718 -0.000467 0.010169 0.000000 0.000000 0.000000
# 2 -0.000467 0.012970 -0.001472 0.000000 0.000000 0.000000
# 3 0.010169 -0.001472 0.015269 0.000000 0.000000 0.000000
# 4 0.000000 0.000000 0.000000 0.752245 0.000000 0.000000
# 5 0.000000 0.000000 0.000000 0.000000 0.033916 0.000000
# 6 0.000000 0.000000 0.000000 0.000000 0.000000 0.046370
#
#
# Mechanical properties :
#
#
# Convention : Reuss Voigt Hill
#
# Bulk Modulus (GPa) = 11.43959 17.95026 14.69493
# Shear Modulus (GPa) = 5.45751 23.54524 14.50138
#
# Velocity S-wave (km/s) = 1.58688 3.29608 2.58673
# Velocity P-wave (km/s) = 2.93871 4.77159 3.96258
#
# Compressibility (1/GPa) = 0.08741575
#
# Stress axis : x y z
#
# Youngs Moduli (GPa) = 23.40923 77.10329 65.49202
#
# Poissons Ratio (x) = 0.03603 -0.66600
# Poissons Ratio (y) = 0.01094 0.09644
# Poissons Ratio (z) = -0.23805 0.11353
#
# Static dielectric constant tensor:
#      x y z
#    x 1.866910 0.000000 0.000000 
#    y 0.000000 1.743490 0.000000 
#    z 0.000000 0.000000 1.904440 
# 
# From -- ./inp_files/5455.got.cif
#   From: 2010.05.17/outbox.cif.g08.bks.cpg/sg62_3_cif.got.tgz:5455.got - 2010.06.03 15:25:27.
