data_PCOD9464547
_publ_section_title
;
Structure prediction by ZEFSAII (Michael W. Deem and Ramdas Pophale) SiO2 
 PCOD9464547
Probable space group: P N M A
;
_chemical_formula_sum "Si O2"
_cell_formula_units_Z 40
_cell_length_a 11.804247
_cell_length_b 8.933348
_cell_length_c 20.329494
_cell_angle_alpha 90.000000
_cell_angle_beta 90.000000
_cell_angle_gamma 90.000000
_cell_volume 2143.774545
_symmetry_space_group_name_H-M "P N M A"
_symmetry_group_IT_number 62
_symmetry_cell_setting 'orthorhombic'
loop_
_space_group_symop_operation_xyz
x,y,z
1/2-x,-y,1/2+z
1/2+x,1/2-y,1/2-z
-x,1/2+y,-z
-x,-y,-z
1/2+x,y,1/2-z
1/2-x,1/2+y,1/2+z
x,1/2-y,z
loop_
_atom_site_type_symbol
_atom_site_label
_atom_site_fract_x
_atom_site_fract_y
_atom_site_fract_z
Si Si1 0.316165 0.424825 0.067568
Si Si2 0.977672 0.073744 0.625048
Si Si3 0.262794 0.429052 0.354298
Si Si4 0.613418 0.069926 0.529134
Si Si5 0.651488 0.924967 0.788733
O O1 0.342398 0.250000 0.055038
O O2 0.432530 0.517542 0.070203
O O3 0.275100 0.436182 0.144006
O O4 0.219810 0.472706 0.017631
O O5 0.961859 0.250000 0.621301
O O6 0.858268 0.991688 0.623014
O O7 0.042399 0.023630 0.692227
O O8 0.265010 0.250000 0.361163
O O9 0.357705 0.504000 0.399694
O O10 0.286291 0.466787 0.277915
O O11 0.606380 0.250000 0.530503
O O12 0.500000 0.000000 0.500000
O O13 0.616741 0.750000 0.783572
#
# Coordination Sequence:
#
# PCOD9464547 Si02
#       5
#     8   8   8   8   8
#     4   8  18  40  61  81 113 157 200 236 287 354
#     4  10  20  35  59  90 118 147 193 251 301 344
#     4  11  22  38  62  89 121 160 201 243 294 362
#     4  11  24  41  61  88 121 157 200 249 301 357
#     4   8  18  38  59  82 113 156 200 237 288 354
#
# _framework density 18.658677999999998
#
# number of rings (size 3 to 8) (size 9 to 14) (size 15 to 20)
#    1.200    1.200    0.000    2.400    0.000    5.600 
#    0.000    4.000    0.000    0.000    0.000    0.000 
#    0.000    0.000    0.000    0.000    0.000    0.000 
#
# Total GULP energy -222831.502245 kJ/mol
# GULP energy per Si atom -5570.787556 kJ/mol
# Density = 1.861621 g / cm^3
# Si number density = 18.658678 Si / 1000 Ang^3
#
#
#
# Elastic Constant Matrix: (Units=GPa)
#
#
# Indices 1 2 3 4 5 6 
#
# 1 63.5931 28.7554 17.9717 0.0000 0.0000 0.0000
# 2 28.7554 62.4934 27.2967 0.0000 0.0000 0.0000
# 3 17.9717 27.2967 78.5344 0.0000 0.0000 0.0000
# 4 0.0000 0.0000 0.0000 18.1739 0.0000 0.0000
# 5 0.0000 0.0000 0.0000 0.0000 29.4063 0.0000
# 6 0.0000 0.0000 0.0000 0.0000 0.0000 33.1362
#
#
#
# Elastic Compliance Matrix: (Units=1/GPa)
#
#
# Indices 1 2 3 4 5 6 
#
# 1 0.020031 -0.008506 -0.001627 0.000000 0.000000 0.000000
# 2 -0.008506 0.022478 -0.005866 0.000000 0.000000 0.000000
# 3 -0.001627 -0.005866 0.015145 0.000000 0.000000 0.000000
# 4 0.000000 0.000000 0.000000 0.055024 0.000000 0.000000
# 5 0.000000 0.000000 0.000000 0.000000 0.034006 0.000000
# 6 0.000000 0.000000 0.000000 0.000000 0.000000 0.030179
#
#
# Mechanical properties :
#
#
# Convention : Reuss Voigt Hill
#
# Bulk Modulus (GPa) = 38.98002 39.18540 39.08271
# Shear Modulus (GPa) = 22.99762 24.84974 23.92368
#
# Velocity S-wave (km/s) = 3.51457 3.65335 3.58463
# Velocity P-wave (km/s) = 6.11605 6.23239 6.17449
#
# Compressibility (1/GPa) = 0.02565417
#
# Stress axis : x y z
#
# Youngs Moduli (GPa) = 49.92218 44.48784 66.02988
#
# Poissons Ratio (x) = 0.37842 0.10745
# Poissons Ratio (y) = 0.42465 0.38735
# Poissons Ratio (z) = 0.08124 0.26098
#
# Static dielectric constant tensor:
#      x y z
#    x 1.619160 0.000000 0.000000 
#    y 0.000000 1.623270 0.000000 
#    z 0.000000 0.000000 1.686490 
# 
# From -- ./inp_files/26442.got.cif
#   From: 2010.05.17/outbox.cif.g08.bks.cpg/sg62_14_cif.got.tgz:26442.got - 2010.06.03 15:25:27.
