data_PCOD9464209
_publ_section_title
;
Structure prediction by ZEFSAII (Michael W. Deem and Ramdas Pophale) SiO2 
 PCOD9464209
Probable space group: P N M A
;
_chemical_formula_sum "Si O2"
_cell_formula_units_Z 64
_cell_length_a 24.670754
_cell_length_b 9.143714
_cell_length_c 15.520873
_cell_angle_alpha 90.000000
_cell_angle_beta 90.000000
_cell_angle_gamma 90.000000
_cell_volume 3501.234520
_symmetry_space_group_name_H-M "P N M A"
_symmetry_group_IT_number 62
_symmetry_cell_setting 'orthorhombic'
loop_
_space_group_symop_operation_xyz
x,y,z
1/2-x,-y,1/2+z
1/2+x,1/2-y,1/2-z
-x,1/2+y,-z
-x,-y,-z
1/2+x,y,1/2-z
1/2-x,1/2+y,1/2+z
x,1/2-y,z
loop_
_atom_site_type_symbol
_atom_site_label
_atom_site_fract_x
_atom_site_fract_y
_atom_site_fract_z
Si Si1 0.964143 0.578141 0.123913
Si Si2 0.953251 0.424128 0.294325
Si Si3 0.686005 0.575710 0.190835
Si Si4 0.685971 0.925668 0.384658
Si Si5 0.073940 0.075865 0.354723
Si Si6 0.776916 0.924671 0.522147
Si Si7 0.925637 0.577923 0.931769
Si Si8 0.397200 0.922715 0.047072
O O1 0.971707 0.750000 0.139969
O O2 0.937200 0.501398 0.205563
O O3 0.022106 0.501912 0.107637
O O4 0.931060 0.561458 0.035153
O O5 0.948533 0.250000 0.287478
O O6 0.919439 0.483795 0.374632
O O7 0.016639 0.459976 0.312280
O O8 0.684486 0.750000 0.179699
O O9 0.705958 0.542657 0.287534
O O10 0.625045 0.511657 0.181997
O O11 0.720460 0.504583 0.113880
O O12 0.677883 0.750000 0.389960
O O13 0.728683 0.968217 0.458354
O O14 0.629407 0.006304 0.399538
O O15 0.084429 0.250000 0.344315
O O16 0.071642 0.047300 0.457357
O O17 0.773929 0.750000 0.536812
O O18 0.834405 0.952525 0.475151
O O19 0.927878 0.750000 0.910493
O O20 0.402913 0.750000 0.066575
#
# Coordination Sequence:
#
# PCOD9464209 Si02
#       8
#     8   8   8   8   8   8   8   8
#     4  10  21  37  55  78 112 149 180 217 272 329
#     4  11  21  32  51  81 112 143 183 225 268 325
#     4  10  20  34  56  85 110 138 180 231 277 324
#     4  10  21  38  60  84 111 146 185 227 280 333
#     4   9  19  34  52  76 108 145 181 222 271 325
#     4   9  20  40  59  77 109 150 185 227 279 330
#     4  10  21  37  58  83 109 140 181 229 272 319
#     4   9  18  34  53  72 104 147 183 221 275 327
#
# _framework density 18.279266
#
# number of rings (size 3 to 8) (size 9 to 14) (size 15 to 20)
#    0.000    2.250    0.000    3.375    0.000    8.000 
#    2.250    0.000    0.000    0.000    0.000    0.000 
#    0.000    0.000    0.000    0.000    0.000    0.000 
#
# Total GULP energy -357348.950572 kJ/mol
# GULP energy per Si atom -5583.577353 kJ/mol
# Density = 1.823766 g / cm^3
# Si number density = 18.279266 Si / 1000 Ang^3
#
#
#
# Elastic Constant Matrix: (Units=GPa)
#
#
# Indices 1 2 3 4 5 6 
#
# 1 29.8317 23.5290 44.2826 0.0000 0.0000 0.0000
# 2 23.5290 53.0367 62.5519 0.0000 0.0000 0.0000
# 3 44.2826 62.5519 124.5787 0.0000 0.0000 0.0000
# 4 0.0000 0.0000 0.0000 32.4255 0.0000 0.0000
# 5 0.0000 0.0000 0.0000 0.0000 11.8166 0.0000
# 6 0.0000 0.0000 0.0000 0.0000 0.0000 19.5483
#
#
#
# Elastic Compliance Matrix: (Units=1/GPa)
#
#
# Indices 1 2 3 4 5 6 
#
# 1 0.071359 -0.004270 -0.023221 0.000000 0.000000 0.000000
# 2 -0.004270 0.046490 -0.021825 0.000000 0.000000 0.000000
# 3 -0.023221 -0.021825 0.027240 0.000000 0.000000 0.000000
# 4 0.000000 0.000000 0.000000 0.030840 0.000000 0.000000
# 5 0.000000 0.000000 0.000000 0.000000 0.084627 0.000000
# 6 0.000000 0.000000 0.000000 0.000000 0.000000 0.051155
#
#
# Mechanical properties :
#
#
# Convention : Reuss Voigt Hill
#
# Bulk Modulus (GPa) = 21.52580 52.01937 36.77258
# Shear Modulus (GPa) = 11.74180 17.89698 14.81939
#
# Velocity S-wave (km/s) = 2.53722 3.13243 2.85041
# Velocity P-wave (km/s) = 4.51497 6.45002 5.56721
#
# Compressibility (1/GPa) = 0.04645589
#
# Stress axis : x y z
#
# Youngs Moduli (GPa) = 14.01362 21.51005 36.71116
#
# Poissons Ratio (x) = 0.09186 0.85247
# Poissons Ratio (y) = 0.05984 0.80122
# Poissons Ratio (z) = 0.32541 0.46946
#
# Static dielectric constant tensor:
#      x y z
#    x 1.597280 0.000000 0.000000 
#    y 0.000000 1.604630 0.000000 
#    z 0.000000 0.000000 1.643320 
# 
# From -- ./inp_files/20969.got.cif
#   From: 2010.05.17/outbox.cif.g08.bks.cpg/sg62_11_cif.got.tgz:20969.got - 2010.06.03 15:25:27.
