data_PCOD9464882
_publ_section_title
;
Structure prediction by ZEFSAII (Michael W. Deem and Ramdas Pophale) SiO2 
 PCOD9464882
Probable space group: P N M A
;
_chemical_formula_sum "Si O2"
_cell_formula_units_Z 56
_cell_length_a 12.984944
_cell_length_b 13.720381
_cell_length_c 15.083759
_cell_angle_alpha 90.000000
_cell_angle_beta 90.000000
_cell_angle_gamma 90.000000
_cell_volume 2687.298052
_symmetry_space_group_name_H-M "P N M A"
_symmetry_group_IT_number 62
_symmetry_cell_setting 'orthorhombic'
loop_
_space_group_symop_operation_xyz
x,y,z
1/2-x,-y,1/2+z
1/2+x,1/2-y,1/2-z
-x,1/2+y,-z
-x,-y,-z
1/2+x,y,1/2-z
1/2-x,1/2+y,1/2+z
x,1/2-y,z
loop_
_atom_site_type_symbol
_atom_site_label
_atom_site_fract_x
_atom_site_fract_y
_atom_site_fract_z
Si Si1 0.347087 0.497720 0.065867
Si Si2 0.788611 0.861598 0.061653
Si Si3 0.836207 0.528257 0.237360
Si Si4 0.463201 0.987156 0.646250
Si Si5 0.469284 0.139781 0.509703
Si Si6 0.540715 0.138944 0.069412
Si Si7 0.812550 0.860125 0.740281
O O1 0.313621 0.544819 0.159193
O O2 0.436441 0.419422 0.089364
O O3 0.267820 0.436290 0.004875
O O4 0.398958 0.580726 0.006300
O O5 0.749277 0.750000 0.055713
O O6 0.909203 0.858177 0.035095
O O7 0.785652 0.901869 0.162873
O O8 0.958487 0.528535 0.219314
O O9 0.789305 0.421025 0.220879
O O10 0.533144 0.921974 0.580050
O O11 0.377002 0.918281 0.686201
O O12 0.419768 0.075640 0.587402
O O13 0.431381 0.250000 0.501382
O O14 0.517990 0.250000 0.043864
O O15 0.614450 0.140476 0.154708
O O16 0.790895 0.750000 0.768651
#
# Coordination Sequence:
#
# PCOD9464882 Si02
#       7
#     8   8   8   8   8   8   8
#     4  11  21  39  64  87 123 163 205 252 305 366
#     4  10  21  39  60  88 121 158 204 248 301 373
#     4  11  23  38  62  91 118 158 202 249 305 356
#     4  10  20  37  58  84 120 151 193 248 296 354
#     4   9  19  36  59  84 117 156 191 242 302 357
#     4  10  22  39  60  88 121 159 201 250 303 355
#     4  11  22  38  59  86 119 151 196 248 297 350
#
# _framework density 20.838774999999998
#
# number of rings (size 3 to 8) (size 9 to 14) (size 15 to 20)
#    0.000    1.714    2.857    1.714    0.000    4.000 
#    0.000    0.714    0.000    0.000    0.000    0.000 
#    0.000    0.000    0.000    0.000    0.000    0.000 
#
# Total GULP energy -312763.293481 kJ/mol
# GULP energy per Si atom -5585.058812 kJ/mol
# Density = 2.079135 g / cm^3
# Si number density = 20.838775 Si / 1000 Ang^3
#
#
#
# Elastic Constant Matrix: (Units=GPa)
#
#
# Indices 1 2 3 4 5 6 
#
# 1 26.4784 -12.9016 15.5298 0.0000 0.0000 0.0000
# 2 -12.9016 82.4010 26.7314 0.0000 0.0000 0.0000
# 3 15.5298 26.7314 116.1575 0.0000 0.0000 0.0000
# 4 0.0000 0.0000 0.0000 24.5588 0.0000 0.0000
# 5 0.0000 0.0000 0.0000 0.0000 28.4428 0.0000
# 6 0.0000 0.0000 0.0000 0.0000 0.0000 22.6196
#
#
#
# Elastic Compliance Matrix: (Units=1/GPa)
#
#
# Indices 1 2 3 4 5 6 
#
# 1 0.047979 0.010367 -0.008800 0.000000 0.000000 0.000000
# 2 0.010367 0.015355 -0.004920 0.000000 0.000000 0.000000
# 3 -0.008800 -0.004920 0.010918 0.000000 0.000000 0.000000
# 4 0.000000 0.000000 0.000000 0.040719 0.000000 0.000000
# 5 0.000000 0.000000 0.000000 0.000000 0.035158 0.000000
# 6 0.000000 0.000000 0.000000 0.000000 0.000000 0.044210
#
#
# Mechanical properties :
#
#
# Convention : Reuss Voigt Hill
#
# Bulk Modulus (GPa) = 14.80472 31.52845 23.16659
# Shear Modulus (GPa) = 22.36538 28.16939 25.26739
#
# Velocity S-wave (km/s) = 3.27962 3.68064 3.48590
# Velocity P-wave (km/s) = 4.63260 5.76415 5.22907
#
# Compressibility (1/GPa) = 0.06754603
#
# Stress axis : x y z
#
# Youngs Moduli (GPa) = 20.84228 65.12568 91.59403
#
# Poissons Ratio (x) = -0.67516 0.80607
# Poissons Ratio (y) = -0.21607 0.45061
# Poissons Ratio (z) = 0.18342 0.32040
#
# Static dielectric constant tensor:
#      x y z
#    x 1.748990 0.000000 0.000000 
#    y 0.000000 1.732180 0.000000 
#    z 0.000000 0.000000 1.760560 
# 
# From -- ./inp_files/19128.got.cif
#   From: 2010.05.17/outbox.cif.g08.bks.cpg/sg62_10_cif.got.tgz:19128.got - 2010.06.03 15:25:27.
