data_PCOD9464374
_publ_section_title
;
Structure prediction by ZEFSAII (Michael W. Deem and Ramdas Pophale) SiO2 
 PCOD9464374
Probable space group: P N M A
;
_chemical_formula_sum "Si O2"
_cell_formula_units_Z 48
_cell_length_a 13.134166
_cell_length_b 25.116789
_cell_length_c 5.254733
_cell_angle_alpha 90.000000
_cell_angle_beta 90.000000
_cell_angle_gamma 90.000000
_cell_volume 1733.473760
_symmetry_space_group_name_H-M "P N M A"
_symmetry_group_IT_number 62
_symmetry_cell_setting 'orthorhombic'
loop_
_space_group_symop_operation_xyz
x,y,z
1/2-x,-y,1/2+z
1/2+x,1/2-y,1/2-z
-x,1/2+y,-z
-x,-y,-z
1/2+x,y,1/2-z
1/2-x,1/2+y,1/2+z
x,1/2-y,z
loop_
_atom_site_type_symbol
_atom_site_label
_atom_site_fract_x
_atom_site_fract_y
_atom_site_fract_z
Si Si1 0.851470 0.658319 0.950355
Si Si2 0.013467 0.694299 0.303299
Si Si3 0.821269 0.189097 0.109883
Si Si4 0.884027 0.980835 0.716121
Si Si5 0.031040 0.601142 0.677955
Si Si6 0.771239 0.563425 0.216370
O O1 0.793293 0.680337 0.705556
O O2 0.938246 0.618773 0.857043
O O3 0.780263 0.624848 0.141276
O O4 0.919568 0.697411 0.111256
O O5 0.005849 0.750000 0.455908
O O6 0.006873 0.636762 0.431901
O O7 0.121736 0.693865 0.158883
O O8 0.839934 0.250000 0.211491
O O9 0.871965 0.133335 0.214704
O O10 0.002097 0.961689 0.692700
O O11 0.831222 0.966562 0.987647
O O12 0.845352 0.042313 0.695695
O O13 0.824022 0.950407 0.485275
#
# Coordination Sequence:
#
# PCOD9464374 Si02
#       6
#     8   8   8   8   8   8
#     4  10  20  36  57  81 112 149 194 238 292 348
#     4  10  20  35  56  79 108 147 193 237 289 348
#     4  10  22  37  53  80 115 149 191 244 294 345
#     4   9  17  32  58  86 115 151 194 241 290 348
#     4  10  20  36  56  80 111 152 192 239 290 351
#     4   9  17  32  57  88 114 150 196 238 293 349
#
# _framework density 27.690066999999999
#
# number of rings (size 3 to 8) (size 9 to 14) (size 15 to 20)
#    0.000    2.333    1.667    1.000    0.000    3.333 
#    0.000    2.500    0.000    1.000    0.000    0.000 
#    0.000    0.000    0.000    0.000    0.000    0.000 
#
# Total GULP energy -267391.819522 kJ/mol
# GULP energy per Si atom -5570.662907 kJ/mol
# Density = 2.762704 g / cm^3
# Si number density = 27.690067 Si / 1000 Ang^3
#
#
#
# Elastic Constant Matrix: (Units=GPa)
#
#
# Indices 1 2 3 4 5 6 
#
# 1 78.8496 21.4249 -1.5602 0.0000 0.0000 0.0000
# 2 21.4249 109.3249 13.5688 0.0000 0.0000 0.0000
# 3 -1.5602 13.5688 74.8330 0.0000 0.0000 0.0000
# 4 0.0000 0.0000 0.0000 54.8343 0.0000 0.0000
# 5 0.0000 0.0000 0.0000 0.0000 -0.9864 0.0000
# 6 0.0000 0.0000 0.0000 0.0000 0.0000 283.5478
#
#
#
# Elastic Compliance Matrix: (Units=1/GPa)
#
#
# Indices 1 2 3 4 5 6 
#
# 1 0.013440 -0.002730 0.000775 0.000000 0.000000 0.000000
# 2 -0.002730 0.009912 -0.001854 0.000000 0.000000 0.000000
# 3 0.000775 -0.001854 0.013715 0.000000 0.000000 0.000000
# 4 0.000000 0.000000 0.000000 0.018237 0.000000 0.000000
# 5 0.000000 0.000000 0.000000 0.000000 -1.013770 0.000000
# 6 0.000000 0.000000 0.000000 0.000000 0.000000 0.003527
#
#
# Mechanical properties :
#
#
# Convention : Reuss Voigt Hill
#
# Bulk Modulus (GPa) = 33.95687 36.65273 35.30480
# Shear Modulus (GPa) = -5.33331 82.78407 38.72538
#
# Velocity S-wave (km/s) = -1.38934 5.47372 3.74375
# Velocity P-wave (km/s) = 3.11707 7.29481 5.60939
#
# Compressibility (1/GPa) = 0.02944912
#
# Stress axis : x y z
#
# Youngs Moduli (GPa) = 74.40748 100.88579 72.91046
#
# Poissons Ratio (x) = 0.27542 -0.05652
# Poissons Ratio (y) = 0.20313 0.13519
# Poissons Ratio (z) = -0.05768 0.18706
#
# Static dielectric constant tensor:
#      x y z
#    x 2.138860 0.000000 0.000000 
#    y 0.000000 2.195440 0.000000 
#    z 0.000000 0.000000 2.259600 
# 
# From -- ./inp_files/1138.got.cif
#   From: 2010.05.17/outbox.cif.g08.bks.cpg/sg62_1_cif.got.tgz:1138.got - 2010.06.03 15:25:27.
