data_PCOD9464335
_publ_section_title
;
Structure prediction by ZEFSAII (Michael W. Deem and Ramdas Pophale) SiO2 
 PCOD9464335
Probable space group: P N M A
;
_chemical_formula_sum "Si O2"
_cell_formula_units_Z 64
_cell_length_a 15.828532
_cell_length_b 8.852295
_cell_length_c 23.505133
_cell_angle_alpha 90.000000
_cell_angle_beta 90.000000
_cell_angle_gamma 90.000000
_cell_volume 3293.511845
_symmetry_space_group_name_H-M "P N M A"
_symmetry_group_IT_number 62
_symmetry_cell_setting 'orthorhombic'
loop_
_space_group_symop_operation_xyz
x,y,z
1/2-x,-y,1/2+z
1/2+x,1/2-y,1/2-z
-x,1/2+y,-z
-x,-y,-z
1/2+x,y,1/2-z
1/2-x,1/2+y,1/2+z
x,1/2-y,z
loop_
_atom_site_type_symbol
_atom_site_label
_atom_site_fract_x
_atom_site_fract_y
_atom_site_fract_z
Si Si1 0.789866 0.069662 0.549217
Si Si2 0.061157 0.931773 0.077218
Si Si3 0.362550 0.070746 0.694536
Si Si4 0.811368 0.067908 0.302910
Si Si5 0.637098 0.566178 0.929285
Si Si6 0.613009 0.930500 0.550714
Si Si7 0.492518 0.073574 0.232567
Si Si8 0.046459 0.073457 0.399672
O O1 0.781227 0.250000 0.549398
O O2 0.811163 0.017887 0.484449
O O3 0.702813 0.995557 0.569220
O O4 0.870936 0.020086 0.585397
O O5 0.053327 0.750000 0.078153
O O6 0.119922 0.978911 0.129453
O O7 0.098365 0.975123 0.015734
O O8 0.968269 0.003082 0.082706
O O9 0.352295 0.250000 0.695604
O O10 0.277602 0.994577 0.717459
O O11 0.444366 0.022283 0.729771
O O12 0.809832 0.250000 0.302899
O O13 0.825801 0.016979 0.368528
O O14 0.894800 0.022764 0.267915
O O15 0.636308 0.750000 0.928433
O O16 0.538673 0.519529 0.931664
O O17 0.612792 0.750000 0.554713
O O18 0.496216 0.250000 0.249994
O O19 0.522843 0.066526 0.166948
O O20 0.061256 0.250000 0.413977
#
# Coordination Sequence:
#
# PCOD9464335 Si02
#       8
#     8   8   8   8   8   8   8   8
#     4  11  20  30  49  80 113 143 175 214 270 330
#     4   9  20  38  56  78 108 139 175 223 273 321
#     4  11  22  36  58  86 113 141 176 225 283 332
#     4   9  18  36  60  82 106 141 185 228 269 319
#     4   8  16  31  53  79 106 139 180 224 266 315
#     4  10  20  35  55  78 107 143 180 218 264 320
#     4   9  20  39  59  79 106 144 188 232 268 314
#     4   9  18  35  54  73 104 142 183 225 264 311
#
# _framework density 19.432145999999999
#
# number of rings (size 3 to 8) (size 9 to 14) (size 15 to 20)
#    0.000    2.500    0.000    3.750    0.000    2.500 
#    2.250    3.125    0.000    0.000    0.000    0.000 
#    0.000    0.000    0.000    0.000    0.000    0.000 
#
# Total GULP energy -357216.438221 kJ/mol
# GULP energy per Si atom -5581.506847 kJ/mol
# Density = 1.938792 g / cm^3
# Si number density = 19.432146 Si / 1000 Ang^3
#
#
#
# Elastic Constant Matrix: (Units=GPa)
#
#
# Indices 1 2 3 4 5 6 
#
# 1 148.1057 26.4711 13.0763 0.0000 0.0000 0.0000
# 2 26.4711 14.4540 4.3532 0.0000 0.0000 0.0000
# 3 13.0763 4.3532 10.1486 0.0000 0.0000 0.0000
# 4 0.0000 0.0000 0.0000 21.2345 0.0000 0.0000
# 5 0.0000 0.0000 0.0000 0.0000 20.1305 0.0000
# 6 0.0000 0.0000 0.0000 0.0000 0.0000 23.7709
#
#
#
# Elastic Compliance Matrix: (Units=1/GPa)
#
#
# Indices 1 2 3 4 5 6 
#
# 1 0.010344 -0.017144 -0.005974 0.000000 0.000000 0.000000
# 2 -0.017144 0.107865 -0.024178 0.000000 0.000000 0.000000
# 3 -0.005974 -0.024178 0.116603 0.000000 0.000000 0.000000
# 4 0.000000 0.000000 0.000000 0.047093 0.000000 0.000000
# 5 0.000000 0.000000 0.000000 0.000000 0.049676 0.000000
# 6 0.000000 0.000000 0.000000 0.000000 0.000000 0.042068
#
#
# Mechanical properties :
#
#
# Convention : Reuss Voigt Hill
#
# Bulk Modulus (GPa) = 7.13165 28.94552 18.03858
# Shear Modulus (GPa) = 9.70912 21.61437 15.66175
#
# Velocity S-wave (km/s) = 2.23769 3.33873 2.84204
# Velocity P-wave (km/s) = 3.21782 5.45810 4.48025
#
# Compressibility (1/GPa) = 0.14021993
#
# Stress axis : x y z
#
# Youngs Moduli (GPa) = 96.67876 9.27088 8.57610
#
# Poissons Ratio (x) = 0.15894 0.05123
# Poissons Ratio (y) = 1.65747 0.20735
# Poissons Ratio (z) = 0.57752 0.22415
#
# Static dielectric constant tensor:
#      x y z
#    x 1.671390 0.000000 0.000000 
#    y 0.000000 1.645370 0.000000 
#    z 0.000000 0.000000 1.692440 
# 
# From -- ./inp_files/29788.got.cif
#   From: 2010.05.17/outbox.cif.g08.bks.cpg/sg62_15_cif.got.tgz:29788.got - 2010.06.03 15:25:27.
