data_PCOD9464808
_publ_section_title
;
Structure prediction by ZEFSAII (Michael W. Deem and Ramdas Pophale) SiO2 
 PCOD9464808
Probable space group: P N M A
;
_chemical_formula_sum "Si O2"
_cell_formula_units_Z 56
_cell_length_a 22.004778
_cell_length_b 13.840727
_cell_length_c 9.593876
_cell_angle_alpha 90.000000
_cell_angle_beta 90.000000
_cell_angle_gamma 90.000000
_cell_volume 2921.931261
_symmetry_space_group_name_H-M "P N M A"
_symmetry_group_IT_number 62
_symmetry_cell_setting 'orthorhombic'
loop_
_space_group_symop_operation_xyz
x,y,z
1/2-x,-y,1/2+z
1/2+x,1/2-y,1/2-z
-x,1/2+y,-z
-x,-y,-z
1/2+x,y,1/2-z
1/2-x,1/2+y,1/2+z
x,1/2-y,z
loop_
_atom_site_type_symbol
_atom_site_label
_atom_site_fract_x
_atom_site_fract_y
_atom_site_fract_z
Si Si1 0.671692 0.506700 0.501513
Si Si2 0.715443 0.360575 0.010223
Si Si3 0.632249 0.363297 0.746745
Si Si4 0.564724 0.636034 0.375014
Si Si5 0.849966 0.859381 0.786780
Si Si6 0.013182 0.467150 0.657198
Si Si7 0.992384 0.639475 0.851212
O O1 0.730658 0.566540 0.543578
O O2 0.645481 0.435923 0.620023
O O3 0.621296 0.581229 0.444032
O O4 0.687516 0.436421 0.373370
O O5 0.737760 0.250000 0.022202
O O6 0.686824 0.372288 0.857835
O O7 0.662097 0.372443 0.123733
O O8 0.626955 0.250000 0.704189
O O9 0.570727 0.397088 0.823789
O O10 0.575925 0.750000 0.358320
O O11 0.543266 0.587179 0.231752
O O12 0.510294 0.623327 0.488077
O O13 0.832335 0.750000 0.823477
O O14 0.920512 0.871123 0.826528
O O15 0.000000 0.500000 0.500000
O O16 0.024039 0.562557 0.751260
O O17 0.009424 0.750000 0.817502
#
# Coordination Sequence:
#
# PCOD9464808 Si02
#       7
#     8   8   8   8   8   8   8
#     4  12  21  39  65  91 123 162 207 256 309 370
#     4  10  23  41  60  88 123 165 208 255 310 363
#     4  11  24  41  63  93 128 164 214 262 304 366
#     4  11  23  39  62  93 126 160 204 258 318 373
#     4  10  20  36  61  88 117 158 208 252 299 364
#     4  12  23  39  62  92 128 165 205 255 317 380
#     4  10  20  38  62  91 124 160 204 253 304 372
#
# _framework density 19.165406999999998
#
# number of rings (size 3 to 8) (size 9 to 14) (size 15 to 20)
#    0.000    1.143    2.857    4.286    0.000    3.429 
#    0.000    0.000    0.000    0.857    0.000    0.000 
#    0.000    0.000    0.000    0.000    0.000    0.000 
#
# Total GULP energy -312851.080212 kJ/mol
# GULP energy per Si atom -5586.626432 kJ/mol
# Density = 1.912179 g / cm^3
# Si number density = 19.165407 Si / 1000 Ang^3
#
#
#
# Elastic Constant Matrix: (Units=GPa)
#
#
# Indices 1 2 3 4 5 6 
#
# 1 62.1032 27.4354 16.8739 0.0000 0.0000 0.0000
# 2 27.4354 116.3810 53.7948 0.0000 0.0000 0.0000
# 3 16.8739 53.7948 108.3635 0.0000 0.0000 0.0000
# 4 0.0000 0.0000 0.0000 28.8268 0.0000 0.0000
# 5 0.0000 0.0000 0.0000 0.0000 18.7905 0.0000
# 6 0.0000 0.0000 0.0000 0.0000 0.0000 30.5468
#
#
#
# Elastic Compliance Matrix: (Units=1/GPa)
#
#
# Indices 1 2 3 4 5 6 
#
# 1 0.018042 -0.003835 -0.000906 0.000000 0.000000 0.000000
# 2 -0.003835 0.011966 -0.005343 0.000000 0.000000 0.000000
# 3 -0.000906 -0.005343 0.012022 0.000000 0.000000 0.000000
# 4 0.000000 0.000000 0.000000 0.034690 0.000000 0.000000
# 5 0.000000 0.000000 0.000000 0.000000 0.053218 0.000000
# 6 0.000000 0.000000 0.000000 0.000000 0.000000 0.032737
#
#
# Mechanical properties :
#
#
# Convention : Reuss Voigt Hill
#
# Bulk Modulus (GPa) = 45.73946 53.67289 49.70617
# Shear Modulus (GPa) = 26.29775 28.21574 27.25674
#
# Velocity S-wave (km/s) = 3.70827 3.84112 3.77528
# Velocity P-wave (km/s) = 6.50019 6.90928 6.70785
#
# Compressibility (1/GPa) = 0.02186296
#
# Stress axis : x y z
#
# Youngs Moduli (GPa) = 55.42515 83.56844 83.18202
#
# Poissons Ratio (x) = 0.32045 0.07536
# Poissons Ratio (y) = 0.21253 0.44447
# Poissons Ratio (z) = 0.05021 0.44653
#
# Static dielectric constant tensor:
#      x y z
#    x 1.667440 0.000000 0.000000 
#    y 0.000000 1.680260 0.000000 
#    z 0.000000 0.000000 1.667800 
# 
# From -- ./inp_files/8756.got.cif
#   From: 2010.05.17/outbox.cif.g08.bks.cpg/sg62_5_cif.got.tgz:8756.got - 2010.06.03 15:25:27.
