data_PCOD9464030
_publ_section_title
;
Structure prediction by ZEFSAII (Michael W. Deem and Ramdas Pophale) SiO2 
 PCOD9464030
Probable space group: P N M A
;
_chemical_formula_sum "Si O2"
_cell_formula_units_Z 64
_cell_length_a 9.022878
_cell_length_b 14.742843
_cell_length_c 24.499494
_cell_angle_alpha 90.000000
_cell_angle_beta 90.000000
_cell_angle_gamma 90.000000
_cell_volume 3258.993098
_symmetry_space_group_name_H-M "P N M A"
_symmetry_group_IT_number 62
_symmetry_cell_setting 'orthorhombic'
loop_
_space_group_symop_operation_xyz
x,y,z
1/2-x,-y,1/2+z
1/2+x,1/2-y,1/2-z
-x,1/2+y,-z
-x,-y,-z
1/2+x,y,1/2-z
1/2-x,1/2+y,1/2+z
x,1/2-y,z
loop_
_atom_site_type_symbol
_atom_site_label
_atom_site_fract_x
_atom_site_fract_y
_atom_site_fract_z
Si Si1 0.949689 0.643529 0.471303
Si Si2 0.838359 0.144099 0.901262
Si Si3 0.387283 0.527421 0.379453
Si Si4 0.662936 0.850385 0.190307
Si Si5 0.327877 0.912311 0.208164
Si Si6 0.882319 0.415059 0.222815
Si Si7 0.578343 0.349177 0.181390
Si Si8 0.901839 0.532470 0.578595
O O1 0.996703 0.750000 0.467895
O O2 0.780768 0.640016 0.449668
O O3 0.954440 0.601721 0.531895
O O4 0.038478 0.568473 0.435389
O O5 0.876075 0.250000 0.891616
O O6 0.753468 0.104772 0.848419
O O7 0.985137 0.084339 0.908141
O O8 0.269594 0.593361 0.349163
O O9 0.451439 0.467694 0.329194
O O10 0.277578 0.471021 0.418274
O O11 0.638374 0.750000 0.168215
O O12 0.502304 0.892880 0.201632
O O13 0.751056 0.848077 0.247269
O O14 0.310721 0.009892 0.236721
O O15 0.750569 0.357638 0.196851
O O16 0.992319 0.362775 0.262066
O O17 0.545032 0.250000 0.158344
O O18 0.546090 0.426921 0.136754
#
# Coordination Sequence:
#
# PCOD9464030 Si02
#       8
#     8   8   8   8   8   8   8   8
#     4  10  22  40  62  86 111 144 189 237 286 341
#     4  11  21  33  52  79 109 144 189 234 280 337
#     4  10  21  35  53  78 111 149 183 227 285 341
#     4  11  20  30  47  75 111 149 191 231 276 340
#     4  11  20  32  49  73 110 152 187 230 284 333
#     4  10  20  34  51  77 109 144 184 223 270 334
#     4  11  21  36  58  82 111 146 186 230 278 331
#     4  10  22  40  61  84 112 146 186 235 287 336
#
# _framework density 19.637968000000001
#
# number of rings (size 3 to 8) (size 9 to 14) (size 15 to 20)
#    0.000    1.500    0.000    8.250    0.000    2.500 
#    0.000    0.000    0.000    0.750    0.000    9.625 
#    0.000    0.000    0.000    0.000    0.000    0.000 
#
# Total GULP energy -357174.632300 kJ/mol
# GULP energy per Si atom -5580.853630 kJ/mol
# Density = 1.959327 g / cm^3
# Si number density = 19.637968 Si / 1000 Ang^3
#
#
#
# Elastic Constant Matrix: (Units=GPa)
#
#
# Indices 1 2 3 4 5 6 
#
# 1 66.0719 19.2246 19.5229 0.0000 0.0000 0.0000
# 2 19.2246 117.8778 26.5834 0.0000 0.0000 0.0000
# 3 19.5229 26.5834 58.5060 0.0000 0.0000 0.0000
# 4 0.0000 0.0000 0.0000 4.8828 0.0000 0.0000
# 5 0.0000 0.0000 0.0000 0.0000 23.5188 0.0000
# 6 0.0000 0.0000 0.0000 0.0000 0.0000 13.1048
#
#
#
# Elastic Compliance Matrix: (Units=1/GPa)
#
#
# Indices 1 2 3 4 5 6 
#
# 1 0.017081 -0.001672 -0.004940 0.000000 0.000000 0.000000
# 2 -0.001672 0.009615 -0.003811 0.000000 0.000000 0.000000
# 3 -0.004940 -0.003811 0.020472 0.000000 0.000000 0.000000
# 4 0.000000 0.000000 0.000000 0.204799 0.000000 0.000000
# 5 0.000000 0.000000 0.000000 0.000000 0.042519 0.000000
# 6 0.000000 0.000000 0.000000 0.000000 0.000000 0.076308
#
#
# Mechanical properties :
#
#
# Convention : Reuss Voigt Hill
#
# Bulk Modulus (GPa) = 37.98970 41.45749 39.72359
# Shear Modulus (GPa) = 12.48703 20.10961 16.29832
#
# Velocity S-wave (km/s) = 2.52437 3.20350 2.88399
# Velocity P-wave (km/s) = 5.28049 5.90253 5.60016
#
# Compressibility (1/GPa) = 0.02632293
#
# Stress axis : x y z
#
# Youngs Moduli (GPa) = 58.54395 103.99909 48.84608
#
# Poissons Ratio (x) = 0.17385 0.24131
# Poissons Ratio (y) = 0.09786 0.18616
# Poissons Ratio (z) = 0.28922 0.39636
#
# Static dielectric constant tensor:
#      x y z
#    x 1.674400 0.000000 0.000000 
#    y 0.000000 1.732060 0.000000 
#    z 0.000000 0.000000 1.702180 
# 
# From -- ./inp_files/29005.got.cif
#   From: 2010.05.17/outbox.cif.g08.bks.cpg/sg62_15_cif.got.tgz:29005.got - 2010.06.03 15:25:27.
