data_PCOD9464828
_publ_section_title
;
Structure prediction by ZEFSAII (Michael W. Deem and Ramdas Pophale) SiO2 
 PCOD9464828
Probable space group: P N M A
;
_chemical_formula_sum "Si O2"
_cell_formula_units_Z 64
_cell_length_a 14.535375
_cell_length_b 8.877400
_cell_length_c 25.334617
_cell_angle_alpha 90.000000
_cell_angle_beta 90.000000
_cell_angle_gamma 90.000000
_cell_volume 3269.086203
_symmetry_space_group_name_H-M "P N M A"
_symmetry_group_IT_number 62
_symmetry_cell_setting 'orthorhombic'
loop_
_space_group_symop_operation_xyz
x,y,z
1/2-x,-y,1/2+z
1/2+x,1/2-y,1/2-z
-x,1/2+y,-z
-x,-y,-z
1/2+x,y,1/2-z
1/2-x,1/2+y,1/2+z
x,1/2-y,z
loop_
_atom_site_type_symbol
_atom_site_label
_atom_site_fract_x
_atom_site_fract_y
_atom_site_fract_z
Si Si1 0.824388 0.931223 0.319847
Si Si2 0.905623 0.930708 0.521699
Si Si3 0.392693 0.569061 0.362870
Si Si4 0.653946 0.569726 0.243520
Si Si5 0.454792 0.067998 0.552015
Si Si6 0.744063 0.066833 0.934886
Si Si7 0.188015 0.569841 0.379650
Si Si8 0.959521 0.071801 0.243067
O O1 0.835640 0.750000 0.319462
O O2 0.740576 0.968536 0.280216
O O3 0.798079 0.980072 0.378718
O O4 0.915182 0.005329 0.296211
O O5 0.912013 0.750000 0.520946
O O6 0.822373 0.978344 0.482603
O O7 0.878788 0.987422 0.579856
O O8 0.000000 0.000000 0.500000
O O9 0.392195 0.750000 0.354953
O O10 0.479397 0.527886 0.398990
O O11 0.295243 0.529542 0.389537
O O12 0.402733 0.492611 0.306351
O O13 0.640035 0.750000 0.248071
O O14 0.670345 0.535121 0.181901
O O15 0.563060 0.486501 0.262446
O O16 0.454737 0.250000 0.548355
O O17 0.349555 0.016407 0.559008
O O18 0.500000 0.000000 0.500000
O O19 0.746322 0.250000 0.934231
O O20 0.177561 0.750000 0.386355
O O21 0.955684 0.250000 0.243678
#
# Coordination Sequence:
#
# PCOD9464828 Si02
#       8
#     8   8   8   8   8   8   8   8
#     4  10  20  41  67  88 114 158 209 251 296 356
#     4  11  24  41  60  86 121 161 207 255 305 362
#     4  10  20  39  64  90 120 160 206 244 293 369
#     4  10  21  39  64  88 117 159 206 250 296 366
#     4  10  20  36  62  92 121 152 194 242 295 359
#     4   9  20  38  61  87 116 155 200 244 295 358
#     4  10  21  39  63  90 117 154 205 253 299 358
#     4  12  25  37  56  90 127 157 194 249 312 368
#
# _framework density 19.577335999999999
#
# number of rings (size 3 to 8) (size 9 to 14) (size 15 to 20)
#    0.000    1.750    1.250    3.000    1.750    4.000 
#    0.000    1.875    0.000    0.000    0.000    0.000 
#    0.000    0.000    0.000    0.000    0.000    0.000 
#
# Total GULP energy -357669.750144 kJ/mol
# GULP energy per Si atom -5588.589846 kJ/mol
# Density = 1.953278 g / cm^3
# Si number density = 19.577336 Si / 1000 Ang^3
#
#
#
# Elastic Constant Matrix: (Units=GPa)
#
#
# Indices 1 2 3 4 5 6 
#
# 1 46.8577 12.8302 -17.4064 0.0000 0.0000 0.0000
# 2 12.8302 8.1559 13.0321 0.0000 0.0000 0.0000
# 3 -17.4064 13.0321 63.5978 0.0000 0.0000 0.0000
# 4 0.0000 0.0000 0.0000 27.3547 0.0000 0.0000
# 5 0.0000 0.0000 0.0000 0.0000 34.3080 0.0000
# 6 0.0000 0.0000 0.0000 0.0000 0.0000 16.6416
#
#
#
# Elastic Compliance Matrix: (Units=1/GPa)
#
#
# Indices 1 2 3 4 5 6 
#
# 1 -0.144512 0.431970 -0.128069 0.000000 0.000000 0.000000
# 2 0.431970 -1.108931 0.345464 0.000000 0.000000 0.000000
# 3 -0.128069 0.345464 -0.090118 0.000000 0.000000 0.000000
# 4 0.000000 0.000000 0.000000 0.036557 0.000000 0.000000
# 5 0.000000 0.000000 0.000000 0.000000 0.029148 0.000000
# 6 0.000000 0.000000 0.000000 0.000000 0.000000 0.060090
#
#
# Mechanical properties :
#
#
# Convention : Reuss Voigt Hill
#
# Bulk Modulus (GPa) = -22.30561 15.05812 -3.62375
# Shear Modulus (GPa) = -1.97516 23.00457 10.51470
#
# Velocity S-wave (km/s) = -1.00553 3.43164 2.32002
# Velocity P-wave (km/s) = 3.57302 4.83837 2.30688
#
# Compressibility (1/GPa) = -0.04483178
#
# Stress axis : x y z
#
# Youngs Moduli (GPa) = -6.91985 -0.90177 -11.09651
#
# Poissons Ratio (x) = 0.38954 -1.42112
# Poissons Ratio (y) = 2.98917 3.83344
# Poissons Ratio (z) = -0.88622 0.31153
#
# Static dielectric constant tensor:
#      x y z
#    x 1.685410 0.000000 0.000000 
#    y 0.000000 1.657020 0.000000 
#    z 0.000000 0.000000 1.675100 
# 
# From -- ./inp_files/29884.got.cif
#   From: 2010.05.17/outbox.cif.g08.bks.cpg/sg62_15_cif.got.tgz:29884.got - 2010.06.03 15:25:27.
