data_PCOD9464682
_publ_section_title
;
Structure prediction by ZEFSAII (Michael W. Deem and Ramdas Pophale) SiO2 
 PCOD9464682
Probable space group: P N M A
;
_chemical_formula_sum "Si O2"
_cell_formula_units_Z 48
_cell_length_a 24.923864
_cell_length_b 11.455611
_cell_length_c 8.074928
_cell_angle_alpha 90.000000
_cell_angle_beta 90.000000
_cell_angle_gamma 90.000000
_cell_volume 2305.538024
_symmetry_space_group_name_H-M "P N M A"
_symmetry_group_IT_number 62
_symmetry_cell_setting 'orthorhombic'
loop_
_space_group_symop_operation_xyz
x,y,z
1/2-x,-y,1/2+z
1/2+x,1/2-y,1/2-z
-x,1/2+y,-z
-x,-y,-z
1/2+x,y,1/2-z
1/2-x,1/2+y,1/2+z
x,1/2-y,z
loop_
_atom_site_type_symbol
_atom_site_label
_atom_site_fract_x
_atom_site_fract_y
_atom_site_fract_z
Si Si1 0.862570 0.880203 0.979385
Si Si2 0.121797 0.122106 0.652198
Si Si3 0.605457 0.877577 0.330323
Si Si4 0.499626 0.881001 0.105990
Si Si5 0.255811 0.874348 0.743167
Si Si6 0.313941 0.445656 0.945351
O O1 0.889187 0.750000 0.959252
O O2 0.810516 0.875798 0.863697
O O3 0.891367 0.001721 0.932501
O O4 0.848562 0.888923 0.173228
O O5 0.132610 0.250000 0.581678
O O6 0.058698 0.114694 0.691450
O O7 0.140761 0.031474 0.517548
O O8 0.606943 0.750000 0.417732
O O9 0.550161 0.882742 0.227544
O O10 0.655663 0.879453 0.201461
O O11 0.501571 0.750000 0.022502
O O12 0.500000 0.000000 0.000000
O O13 0.250735 0.750000 0.832046
O O14 0.209064 0.883562 0.607632
O O15 0.264886 0.979065 0.870119
#
# Coordination Sequence:
#
# PCOD9464682 Si02
#       6
#     8   8   8   8   8   8
#     4   9  20  38  58  82 112 149 191 231 278 335
#     4  10  20  36  59  83 111 147 189 235 279 334
#     4  10  21  37  57  84 118 151 184 233 286 331
#     4  10  20  36  57  86 116 147 188 231 278 336
#     4  10  21  36  55  81 109 143 189 234 278 334
#     4  11  20  36  58  80 113 146 187 231 285 337
#
# _framework density 20.819436
#
# number of rings (size 3 to 8) (size 9 to 14) (size 15 to 20)
#    0.000    2.000    1.667    2.000    0.000    2.000 
#    0.000   13.333    0.000    0.000    0.000    0.000 
#    0.000    0.000    0.000    0.000    0.000    0.000 
#
# Total GULP energy -267334.432149 kJ/mol
# GULP energy per Si atom -5569.467336 kJ/mol
# Density = 2.077205 g / cm^3
# Si number density = 20.819436 Si / 1000 Ang^3
#
#
#
# Elastic Constant Matrix: (Units=GPa)
#
#
# Indices 1 2 3 4 5 6 
#
# 1 49.7355 17.4660 -7.8841 0.0000 0.0000 0.0000
# 2 17.4660 157.5341 28.0709 0.0000 0.0000 0.0000
# 3 -7.8841 28.0709 22.1521 0.0000 0.0000 0.0000
# 4 0.0000 0.0000 0.0000 10.2988 0.0000 0.0000
# 5 0.0000 0.0000 0.0000 0.0000 20.6320 0.0000
# 6 0.0000 0.0000 0.0000 0.0000 0.0000 13.5961
#
#
#
# Elastic Compliance Matrix: (Units=1/GPa)
#
#
# Indices 1 2 3 4 5 6 
#
# 1 0.024541 -0.005525 0.015735 0.000000 0.000000 0.000000
# 2 -0.005525 0.009443 -0.013932 0.000000 0.000000 0.000000
# 3 0.015735 -0.013932 0.068397 0.000000 0.000000 0.000000
# 4 0.000000 0.000000 0.000000 0.097099 0.000000 0.000000
# 5 0.000000 0.000000 0.000000 0.000000 0.048468 0.000000
# 6 0.000000 0.000000 0.000000 0.000000 0.000000 0.073550
#
#
# Mechanical properties :
#
#
# Convention : Reuss Voigt Hill
#
# Bulk Modulus (GPa) = 10.53326 33.85860 22.19593
# Shear Modulus (GPa) = 13.86621 21.68996 17.77809
#
# Velocity S-wave (km/s) = 2.58354 3.23121 2.92536
# Velocity P-wave (km/s) = 3.73763 5.49721 4.70049
#
# Compressibility (1/GPa) = 0.09493736
#
# Stress axis : x y z
#
# Youngs Moduli (GPa) = 40.74843 105.89925 14.62044
#
# Poissons Ratio (x) = 0.58506 -0.23005
# Poissons Ratio (y) = 0.22512 0.20370
# Poissons Ratio (z) = -0.64118 1.47541
#
# Static dielectric constant tensor:
#      x y z
#    x 1.744240 0.000000 0.000000 
#    y 0.000000 1.877440 0.000000 
#    z 0.000000 0.000000 1.724120 
# 
# From -- ./inp_files/9300.got.cif
#   From: 2010.05.17/outbox.cif.g08.bks.cpg/sg62_5_cif.got.tgz:9300.got - 2010.06.03 15:25:27.
