data_PCOD9464697
_publ_section_title
;
Structure prediction by ZEFSAII (Michael W. Deem and Ramdas Pophale) SiO2 
 PCOD9464697
Probable space group: P N M A
;
_chemical_formula_sum "Si O2"
_cell_formula_units_Z 40
_cell_length_a 13.945004
_cell_length_b 8.924539
_cell_length_c 17.977320
_cell_angle_alpha 90.000000
_cell_angle_beta 90.000000
_cell_angle_gamma 90.000000
_cell_volume 2237.326589
_symmetry_space_group_name_H-M "P N M A"
_symmetry_group_IT_number 62
_symmetry_cell_setting 'orthorhombic'
loop_
_space_group_symop_operation_xyz
x,y,z
1/2-x,-y,1/2+z
1/2+x,1/2-y,1/2-z
-x,1/2+y,-z
-x,-y,-z
1/2+x,y,1/2-z
1/2-x,1/2+y,1/2+z
x,1/2-y,z
loop_
_atom_site_type_symbol
_atom_site_label
_atom_site_fract_x
_atom_site_fract_y
_atom_site_fract_z
Si Si1 0.206254 0.428964 0.533347
Si Si2 0.823105 0.927807 0.187608
Si Si3 0.600907 0.071306 0.521838
Si Si4 0.585954 0.570321 0.832886
Si Si5 0.367467 0.929127 0.868264
O O1 0.212707 0.250000 0.541839
O O2 0.311888 0.498541 0.524178
O O3 0.149213 0.500010 0.601418
O O4 0.151406 0.461199 0.455521
O O5 0.823101 0.750000 0.200569
O O6 0.875150 0.957544 0.108706
O O7 0.875470 0.010648 0.254620
O O8 0.714777 0.986772 0.177481
O O9 0.599670 0.250000 0.510448
O O10 0.500000 0.000000 0.500000
O O11 0.592780 0.750000 0.835966
O O12 0.474656 0.528526 0.845205
O O13 0.355739 0.750000 0.858051
#
# Coordination Sequence:
#
# PCOD9464697 Si02
#       5
#     8   8   8   8   8
#     4  10  20  36  58  83 111 143 184 230 275 329
#     4  10  22  38  56  81 112 145 183 228 275 324
#     4  10  21  38  59  82 111 149 190 231 277 329
#     4  11  22  36  57  84 113 145 182 225 276 331
#     4   9  20  38  58  80 109 146 183 224 275 327
#
# _framework density 17.87848
#
# number of rings (size 3 to 8) (size 9 to 14) (size 15 to 20)
#    0.000    2.000    0.000    3.000    0.000    6.400 
#    0.000    4.000    0.000    0.000    0.000    0.000 
#    0.000    0.000    0.000    0.000    0.000    0.000 
#
# Total GULP energy -223469.892181 kJ/mol
# GULP energy per Si atom -5586.747305 kJ/mol
# Density = 1.783779 g / cm^3
# Si number density = 17.878480 Si / 1000 Ang^3
#
#
#
# Elastic Constant Matrix: (Units=GPa)
#
#
# Indices 1 2 3 4 5 6 
#
# 1 201.3276 90.4067 98.4770 0.0000 0.0000 0.0000
# 2 90.4067 79.3220 65.2527 0.0000 0.0000 0.0000
# 3 98.4770 65.2527 79.7865 0.0000 0.0000 0.0000
# 4 0.0000 0.0000 0.0000 30.5621 0.0000 0.0000
# 5 0.0000 0.0000 0.0000 0.0000 22.1758 0.0000
# 6 0.0000 0.0000 0.0000 0.0000 0.0000 33.1115
#
#
#
# Elastic Compliance Matrix: (Units=1/GPa)
#
#
# Indices 1 2 3 4 5 6 
#
# 1 0.013153 -0.005001 -0.012144 0.000000 0.000000 0.000000
# 2 -0.005001 0.040428 -0.026892 0.000000 0.000000 0.000000
# 3 -0.012144 -0.026892 0.049516 0.000000 0.000000 0.000000
# 4 0.000000 0.000000 0.000000 0.032720 0.000000 0.000000
# 5 0.000000 0.000000 0.000000 0.000000 0.045094 0.000000
# 6 0.000000 0.000000 0.000000 0.000000 0.000000 0.030201
#
#
# Mechanical properties :
#
#
# Convention : Reuss Voigt Hill
#
# Bulk Modulus (GPa) = 66.56253 96.52322 81.54288
# Shear Modulus (GPa) = 16.43687 24.25651 20.34669
#
# Velocity S-wave (km/s) = 3.03539 3.68740 3.37717
# Velocity P-wave (km/s) = 7.04246 8.49911 7.80484
#
# Compressibility (1/GPa) = 0.01502347
#
# Stress axis : x y z
#
# Youngs Moduli (GPa) = 76.02994 24.73504 20.19550
#
# Poissons Ratio (x) = 0.12369 0.24526
# Poissons Ratio (y) = 0.38019 0.54310
# Poissons Ratio (z) = 0.92332 0.66518
#
# Static dielectric constant tensor:
#      x y z
#    x 1.577960 0.000000 0.000000 
#    y 0.000000 1.591350 0.000000 
#    z 0.000000 0.000000 1.586140 
# 
# From -- ./inp_files/22769.got.cif
#   From: 2010.05.17/outbox.cif.g08.bks.cpg/sg62_12_cif.got.tgz:22769.got - 2010.06.03 15:25:27.
