data_PCOD9464940
_publ_section_title
;
Structure prediction by ZEFSAII (Michael W. Deem and Ramdas Pophale) SiO2 
 PCOD9464940
Probable space group: P N M A
;
_chemical_formula_sum "Si O2"
_cell_formula_units_Z 64
_cell_length_a 17.924074
_cell_length_b 11.645177
_cell_length_c 15.415202
_cell_angle_alpha 90.000000
_cell_angle_beta 90.000000
_cell_angle_gamma 90.000000
_cell_volume 3217.599919
_symmetry_space_group_name_H-M "P N M A"
_symmetry_group_IT_number 62
_symmetry_cell_setting 'orthorhombic'
loop_
_space_group_symop_operation_xyz
x,y,z
1/2-x,-y,1/2+z
1/2+x,1/2-y,1/2-z
-x,1/2+y,-z
-x,-y,-z
1/2+x,y,1/2-z
1/2-x,1/2+y,1/2+z
x,1/2-y,z
loop_
_atom_site_type_symbol
_atom_site_label
_atom_site_fract_x
_atom_site_fract_y
_atom_site_fract_z
Si Si1 0.806465 0.377189 0.769384
Si Si2 0.535639 0.380043 0.122292
Si Si3 0.313690 0.997431 0.907082
Si Si4 0.124474 0.619645 0.559876
Si Si5 0.349833 0.112281 0.405899
Si Si6 0.358428 0.624663 0.158416
Si Si7 0.074952 0.613901 0.085290
Si Si8 0.460534 0.989684 0.282435
O O1 0.831552 0.250000 0.741059
O O2 0.818098 0.463581 0.691990
O O3 0.720430 0.372649 0.793769
O O4 0.852388 0.405092 0.855178
O O5 0.544570 0.250000 0.150750
O O6 0.612975 0.419553 0.080755
O O7 0.465856 0.385082 0.055584
O O8 0.509829 0.448322 0.208449
O O9 0.232852 0.940167 0.919363
O O10 0.329692 0.103185 0.971523
O O11 0.140347 0.750000 0.595661
O O12 0.141832 0.499476 0.610120
O O13 0.343331 0.250000 0.402818
O O14 0.401437 0.080333 0.488526
O O15 0.392837 0.066557 0.320690
O O16 0.365778 0.750000 0.111859
O O17 0.422905 0.614255 0.230152
O O18 0.058108 0.750000 0.083789
O O19 0.009987 0.549620 0.136589
#
# Coordination Sequence:
#
# PCOD9464940 Si02
#       8
#     8   8   8   8   8   8   8   8
#     4  10  20  37  60  86 121 159 207 262 308 360
#     4  10  22  39  61  89 127 166 213 263 313 376
#     4  12  21  40  62  90 122 166 214 256 311 378
#     4  10  23  41  63  94 129 166 204 263 323 372
#     4  11  24  39  62  90 126 168 208 259 322 376
#     4  10  21  39  64  93 124 167 210 258 311 378
#     4  10  21  38  60  88 118 158 208 262 315 373
#     4  11  20  39  62  89 124 163 209 260 315 377
#
# _framework density 19.890602000000001
#
# number of rings (size 3 to 8) (size 9 to 14) (size 15 to 20)
#    0.000    1.500    2.500    3.000    0.000    2.500 
#    0.000    1.875    0.000    3.000    0.000    0.000 
#    0.000    0.000    0.000    0.000    0.000    0.000 
#
# Total GULP energy -356637.636469 kJ/mol
# GULP energy per Si atom -5572.463070 kJ/mol
# Density = 1.984533 g / cm^3
# Si number density = 19.890602 Si / 1000 Ang^3
#
#
#
# Elastic Constant Matrix: (Units=GPa)
#
#
# Indices 1 2 3 4 5 6 
#
# 1 79.8191 22.3935 14.5579 0.0000 0.0000 0.0000
# 2 22.3935 92.8483 26.2427 0.0000 0.0000 0.0000
# 3 14.5579 26.2427 52.1579 0.0000 0.0000 0.0000
# 4 0.0000 0.0000 0.0000 21.9296 0.0000 0.0000
# 5 0.0000 0.0000 0.0000 0.0000 27.5401 0.0000
# 6 0.0000 0.0000 0.0000 0.0000 0.0000 18.0224
#
#
#
# Elastic Compliance Matrix: (Units=1/GPa)
#
#
# Indices 1 2 3 4 5 6 
#
# 1 0.013717 -0.002595 -0.002523 0.000000 0.000000 0.000000
# 2 -0.002595 0.013047 -0.005840 0.000000 0.000000 0.000000
# 3 -0.002523 -0.005840 0.022815 0.000000 0.000000 0.000000
# 4 0.000000 0.000000 0.000000 0.045601 0.000000 0.000000
# 5 0.000000 0.000000 0.000000 0.000000 0.036311 0.000000
# 6 0.000000 0.000000 0.000000 0.000000 0.000000 0.055486
#
#
# Mechanical properties :
#
#
# Convention : Reuss Voigt Hill
#
# Bulk Modulus (GPa) = 36.15000 39.02372 37.58686
# Shear Modulus (GPa) = 22.92393 24.27383 23.59888
#
# Velocity S-wave (km/s) = 3.39853 3.49716 3.44820
# Velocity P-wave (km/s) = 5.79775 5.99739 5.89841
#
# Compressibility (1/GPa) = 0.02766251
#
# Stress axis : x y z
#
# Youngs Moduli (GPa) = 72.90479 76.64717 43.83084
#
# Poissons Ratio (x) = 0.19891 0.11057
# Poissons Ratio (y) = 0.18920 0.25597
# Poissons Ratio (z) = 0.18392 0.44762
#
# Static dielectric constant tensor:
#      x y z
#    x 1.691220 0.000000 0.000000 
#    y 0.000000 1.738620 0.000000 
#    z 0.000000 0.000000 1.728390 
# 
# From -- ./inp_files/19877.got.cif
#   From: 2010.05.17/outbox.cif.g08.bks.cpg/sg62_10_cif.got.tgz:19877.got - 2010.06.03 15:25:27.
