data_PCOD9464009
_publ_section_title
;
Structure prediction by ZEFSAII (Michael W. Deem and Ramdas Pophale) SiO2 
 PCOD9464009
Probable space group: P N M A
;
_chemical_formula_sum "Si O2"
_cell_formula_units_Z 48
_cell_length_a 11.834992
_cell_length_b 18.045172
_cell_length_c 11.813204
_cell_angle_alpha 90.000000
_cell_angle_beta 90.000000
_cell_angle_gamma 90.000000
_cell_volume 2522.880607
_symmetry_space_group_name_H-M "P N M A"
_symmetry_group_IT_number 62
_symmetry_cell_setting 'orthorhombic'
loop_
_space_group_symop_operation_xyz
x,y,z
1/2-x,-y,1/2+z
1/2+x,1/2-y,1/2-z
-x,1/2+y,-z
-x,-y,-z
1/2+x,y,1/2-z
1/2-x,1/2+y,1/2+z
x,1/2-y,z
loop_
_atom_site_type_symbol
_atom_site_label
_atom_site_fract_x
_atom_site_fract_y
_atom_site_fract_z
Si Si1 0.510787 0.085039 0.453622
Si Si2 0.688511 0.884000 0.397960
Si Si3 0.524816 0.566630 0.806273
Si Si4 0.243130 0.553448 0.548993
Si Si5 0.092081 0.910933 0.340714
Si Si6 0.080811 0.333757 0.494887
O O1 0.424327 0.130916 0.529660
O O2 0.476006 0.090313 0.323191
O O3 0.643760 0.101788 0.457300
O O4 0.500000 0.000000 0.500000
O O5 0.654147 0.876198 0.267145
O O6 0.797091 0.842189 0.446521
O O7 0.721307 0.970584 0.416301
O O8 0.647859 0.576729 0.861468
O O9 0.487034 0.480482 0.806502
O O10 0.439666 0.610794 0.889381
O O11 0.183833 0.556152 0.427434
O O12 0.012831 0.855816 0.411482
O O13 0.063897 0.250000 0.456309
#
# Coordination Sequence:
#
# PCOD9464009 Si02
#       6
#     8   8   8   8   8   8
#     4  10  22  31  58  98 122 143 191 260 316 365
#     4  11  22  34  63  91 123 154 202 261 319 360
#     4  11  20  38  63  91 121 159 207 262 311 366
#     4  10  20  33  57  94 121 148 195 258 317 356
#     4  11  21  37  64  91 121 159 209 265 310 360
#     4  11  25  43  61  86 125 173 211 247 315 389
#
# _framework density 19.025870000000001
#
# number of rings (size 3 to 8) (size 9 to 14) (size 15 to 20)
#    0.000    1.333    6.667    1.000    9.333    0.667 
#    0.000    0.833    0.000    1.000    0.000    0.000 
#    0.000    0.000    0.000    0.000    0.000    0.000 
#
# Total GULP energy -267830.388559 kJ/mol
# GULP energy per Si atom -5579.799762 kJ/mol
# Density = 1.898257 g / cm^3
# Si number density = 19.025870 Si / 1000 Ang^3
#
#
#
# Elastic Constant Matrix: (Units=GPa)
#
#
# Indices 1 2 3 4 5 6 
#
# 1 95.7541 -1.0741 31.5838 0.0000 0.0000 0.0000
# 2 -1.0741 34.3411 -7.7626 0.0000 0.0000 0.0000
# 3 31.5838 -7.7626 125.4705 0.0000 0.0000 0.0000
# 4 0.0000 0.0000 0.0000 -1.9976 0.0000 0.0000
# 5 0.0000 0.0000 0.0000 0.0000 18.6795 0.0000
# 6 0.0000 0.0000 0.0000 0.0000 0.0000 3.1538
#
#
#
# Elastic Compliance Matrix: (Units=1/GPa)
#
#
# Indices 1 2 3 4 5 6 
#
# 1 0.011392 -0.000296 -0.002886 0.000000 0.000000 0.000000
# 2 -0.000296 0.029540 0.001902 0.000000 0.000000 0.000000
# 3 -0.002886 0.001902 0.008814 0.000000 0.000000 0.000000
# 4 0.000000 0.000000 0.000000 -0.500611 0.000000 0.000000
# 5 0.000000 0.000000 0.000000 0.000000 0.053535 0.000000
# 6 0.000000 0.000000 0.000000 0.000000 0.000000 0.317082
#
#
# Mechanical properties :
#
#
# Convention : Reuss Voigt Hill
#
# Bulk Modulus (GPa) = 21.19238 33.45110 27.32174
# Shear Modulus (GPa) = -80.69844 19.48837 -30.60504
#
# Velocity S-wave (km/s) = -6.51975 3.20395 -4.01509
# Velocity P-wave (km/s) = 6.74636 5.59528 2.66516
#
# Compressibility (1/GPa) = 0.04718677
#
# Stress axis : x y z
#
# Youngs Moduli (GPa) = 87.78087 33.85201 113.45404
#
# Poissons Ratio (x) = 0.01002 0.32742
# Poissons Ratio (y) = 0.02599 -0.21580
# Poissons Ratio (z) = 0.25333 -0.06439
#
# Static dielectric constant tensor:
#      x y z
#    x 1.694290 0.000000 0.000000 
#    y 0.000000 1.658270 0.000000 
#    z 0.000000 0.000000 1.659410 
# 
# From -- ./inp_files/12256.got.cif
#   From: 2010.05.17/outbox.cif.g08.bks.cpg/sg62_7_cif.got.tgz:12256.got - 2010.06.03 15:25:27.
