data_PCOD9464701
_publ_section_title
;
Structure prediction by ZEFSAII (Michael W. Deem and Ramdas Pophale) SiO2 
 PCOD9464701
Probable space group: P N M A
;
_chemical_formula_sum "Si O2"
_cell_formula_units_Z 40
_cell_length_a 14.197962
_cell_length_b 10.824026
_cell_length_c 11.536457
_cell_angle_alpha 90.000000
_cell_angle_beta 90.000000
_cell_angle_gamma 90.000000
_cell_volume 1772.912442
_symmetry_space_group_name_H-M "P N M A"
_symmetry_group_IT_number 62
_symmetry_cell_setting 'orthorhombic'
loop_
_space_group_symop_operation_xyz
x,y,z
1/2-x,-y,1/2+z
1/2+x,1/2-y,1/2-z
-x,1/2+y,-z
-x,-y,-z
1/2+x,y,1/2-z
1/2-x,1/2+y,1/2+z
x,1/2-y,z
loop_
_atom_site_type_symbol
_atom_site_label
_atom_site_fract_x
_atom_site_fract_y
_atom_site_fract_z
Si Si1 0.507284 0.116116 0.877521
Si Si2 0.862220 0.071275 0.424717
Si Si3 0.652150 0.111601 0.509003
Si Si4 0.400140 0.892005 0.757550
Si Si5 0.182954 0.614620 0.835200
O O1 0.504197 0.250000 0.821436
O O2 0.612576 0.073954 0.911127
O O3 0.461344 0.004971 0.804897
O O4 0.445372 0.119599 0.994375
O O5 0.764091 0.103291 0.483220
O O6 0.857772 0.118595 0.294328
O O7 0.630379 0.250000 0.553386
O O8 0.606595 0.097865 0.381942
O O9 0.636213 0.997185 0.594470
O O10 0.429769 0.750000 0.783494
O O11 0.294900 0.905874 0.812144
O O12 0.169578 0.750000 0.890137
#
# Coordination Sequence:
#
# PCOD9464701 Si02
#       5
#     8   8   8   8   8
#     4  11  22  37  60  88 116 149 192 235 279 334
#     4  10  22  37  56  84 121 151 180 229 292 336
#     4  10  20  38  60  84 114 151 190 234 284 337
#     4   9  20  36  56  82 115 150 186 230 289 343
#     4  10  20  36  58  84 112 149 191 231 280 340
#
# _framework density 22.561747
#
# number of rings (size 3 to 8) (size 9 to 14) (size 15 to 20)
#    0.000    2.000    2.000    3.000    0.000    7.200 
#    0.000    5.000    0.000    0.000    0.000    0.000 
#    0.000    0.000    0.000    0.000    0.000    0.000 
#
# Total GULP energy -223406.183831 kJ/mol
# GULP energy per Si atom -5585.154596 kJ/mol
# Density = 2.251040 g / cm^3
# Si number density = 22.561747 Si / 1000 Ang^3
#
#
#
# Elastic Constant Matrix: (Units=GPa)
#
#
# Indices 1 2 3 4 5 6 
#
# 1 48.9368 25.4086 1.4023 0.0000 0.0000 0.0000
# 2 25.4086 185.4329 55.3517 0.0000 0.0000 0.0000
# 3 1.4023 55.3517 85.8093 0.0000 0.0000 0.0000
# 4 0.0000 0.0000 0.0000 11.2150 0.0000 0.0000
# 5 0.0000 0.0000 0.0000 0.0000 25.0338 0.0000
# 6 0.0000 0.0000 0.0000 0.0000 0.0000 17.5861
#
#
#
# Elastic Compliance Matrix: (Units=1/GPa)
#
#
# Indices 1 2 3 4 5 6 
#
# 1 0.022270 -0.003645 0.001987 0.000000 0.000000 0.000000
# 2 -0.003645 0.007275 -0.004633 0.000000 0.000000 0.000000
# 3 0.001987 -0.004633 0.014610 0.000000 0.000000 0.000000
# 4 0.000000 0.000000 0.000000 0.089166 0.000000 0.000000
# 5 0.000000 0.000000 0.000000 0.000000 0.039946 0.000000
# 6 0.000000 0.000000 0.000000 0.000000 0.000000 0.056863
#
#
# Mechanical properties :
#
#
# Convention : Reuss Voigt Hill
#
# Bulk Modulus (GPa) = 31.67230 53.83379 42.75304
# Shear Modulus (GPa) = 19.74435 26.63474 23.18955
#
# Velocity S-wave (km/s) = 2.96146 3.43961 3.20945
# Velocity P-wave (km/s) = 5.07565 6.29976 5.72054
#
# Compressibility (1/GPa) = 0.03157333
#
# Stress axis : x y z
#
# Youngs Moduli (GPa) = 44.90361 137.45245 68.44604
#
# Poissons Ratio (x) = 0.50096 -0.13601
# Poissons Ratio (y) = 0.16366 0.31714
# Poissons Ratio (z) = -0.08923 0.63687
#
# Static dielectric constant tensor:
#      x y z
#    x 1.885440 0.000000 0.000000 
#    y 0.000000 1.901500 0.000000 
#    z 0.000000 0.000000 1.832740 
# 
# From -- ./inp_files/13871.got.cif
#   From: 2010.05.17/outbox.cif.g08.bks.cpg/sg62_7_cif.got.tgz:13871.got - 2010.06.03 15:25:27.
