data_PCOD9464089
_publ_section_title
;
Structure prediction by ZEFSAII (Michael W. Deem and Ramdas Pophale) SiO2 
 PCOD9464089
Probable space group: P N M A
;
_chemical_formula_sum "Si O2"
_cell_formula_units_Z 56
_cell_length_a 21.837745
_cell_length_b 7.923179
_cell_length_c 15.361103
_cell_angle_alpha 90.000000
_cell_angle_beta 90.000000
_cell_angle_gamma 90.000000
_cell_volume 2657.845055
_symmetry_space_group_name_H-M "P N M A"
_symmetry_group_IT_number 62
_symmetry_cell_setting 'orthorhombic'
loop_
_space_group_symop_operation_xyz
x,y,z
1/2-x,-y,1/2+z
1/2+x,1/2-y,1/2-z
-x,1/2+y,-z
-x,-y,-z
1/2+x,y,1/2-z
1/2-x,1/2+y,1/2+z
x,1/2-y,z
loop_
_atom_site_type_symbol
_atom_site_label
_atom_site_fract_x
_atom_site_fract_y
_atom_site_fract_z
Si Si1 0.096919 0.049888 0.708377
Si Si2 0.016326 0.045086 0.864576
Si Si3 0.730319 0.943931 0.737774
Si Si4 0.597553 0.051788 0.469614
Si Si5 0.570231 0.453697 0.985377
Si Si6 0.729237 0.943945 0.420033
Si Si7 0.313734 0.955902 0.918260
O O1 0.087008 0.250000 0.702276
O O2 0.045011 0.984238 0.774124
O O3 0.092118 0.983067 0.609970
O O4 0.163547 0.024402 0.750643
O O5 0.013040 0.250000 0.864766
O O6 0.062494 0.995866 0.942844
O O7 0.950236 0.976573 0.891244
O O8 0.718903 0.750000 0.713579
O O9 0.776603 0.018087 0.665886
O O10 0.761913 0.954567 0.831765
O O11 0.611324 0.250000 0.477886
O O12 0.660266 0.956400 0.453537
O O13 0.574547 0.250000 0.984596
O O14 0.617352 0.513721 0.060182
O O15 0.500000 0.500000 0.000000
O O16 0.745494 0.750000 0.399623
O O17 0.773947 0.000410 0.496873
O O18 0.315413 0.750000 0.911780
#
# Coordination Sequence:
#
# PCOD9464089 Si02
#       7
#     8   8   8   8   8   8   8
#     4  10  20  38  61  83 113 153 197 241 290 353
#     4   9  19  35  56  82 113 151 194 236 286 348
#     4  11  22  36  59  89 115 146 194 245 295 350
#     4  10  20  34  53  83 119 150 187 240 293 341
#     4  10  21  40  61  82 113 152 194 237 291 348
#     4  11  21  38  60  81 113 155 191 232 291 351
#     4   9  20  39  60  83 117 155 190 238 299 355
#
# _framework density 21.069700999999998
#
# number of rings (size 3 to 8) (size 9 to 14) (size 15 to 20)
#    0.000    2.000    1.429    2.143    0.000    2.857 
#    0.000    6.429    0.000    0.000    0.000    0.000 
#    0.000    0.000    0.000    0.000    0.000    0.000 
#
# Total GULP energy -312739.483206 kJ/mol
# GULP energy per Si atom -5584.633629 kJ/mol
# Density = 2.102175 g / cm^3
# Si number density = 21.069701 Si / 1000 Ang^3
#
#
#
# Elastic Constant Matrix: (Units=GPa)
#
#
# Indices 1 2 3 4 5 6 
#
# 1 109.2254 -7.9377 22.8591 0.0000 0.0000 0.0000
# 2 -7.9377 15.1934 1.3769 0.0000 0.0000 0.0000
# 3 22.8591 1.3769 63.9581 0.0000 0.0000 0.0000
# 4 0.0000 0.0000 0.0000 24.2660 0.0000 0.0000
# 5 0.0000 0.0000 0.0000 0.0000 30.9920 0.0000
# 6 0.0000 0.0000 0.0000 0.0000 0.0000 20.1246
#
#
#
# Elastic Compliance Matrix: (Units=1/GPa)
#
#
# Indices 1 2 3 4 5 6 
#
# 1 0.010377 0.005769 -0.003833 0.000000 0.000000 0.000000
# 2 0.005769 0.069153 -0.003550 0.000000 0.000000 0.000000
# 3 -0.003833 -0.003550 0.017082 0.000000 0.000000 0.000000
# 4 0.000000 0.000000 0.000000 0.041210 0.000000 0.000000
# 5 0.000000 0.000000 0.000000 0.000000 0.032266 0.000000
# 6 0.000000 0.000000 0.000000 0.000000 0.000000 0.049690
#
#
# Mechanical properties :
#
#
# Convention : Reuss Voigt Hill
#
# Bulk Modulus (GPa) = 10.70868 24.55261 17.63064
# Shear Modulus (GPa) = 19.67456 26.54844 23.11150
#
# Velocity S-wave (km/s) = 3.05910 3.55354 3.31555
# Velocity P-wave (km/s) = 4.19178 5.33996 4.80032
#
# Compressibility (1/GPa) = 0.09338222
#
# Stress axis : x y z
#
# Youngs Moduli (GPa) = 96.36921 14.46060 58.54264
#
# Poissons Ratio (x) = -0.08342 0.22439
# Poissons Ratio (y) = -0.55592 0.20785
# Poissons Ratio (z) = 0.36937 0.05134
#
# Static dielectric constant tensor:
#      x y z
#    x 1.735110 0.000000 0.000000 
#    y 0.000000 1.755810 0.000000 
#    z 0.000000 0.000000 1.763500 
# 
# From -- ./inp_files/20424.got.cif
#   From: 2010.05.17/outbox.cif.g08.bks.cpg/sg62_11_cif.got.tgz:20424.got - 2010.06.03 15:25:27.
