data_PCOD9464883
_publ_section_title
;
Structure prediction by ZEFSAII (Michael W. Deem and Ramdas Pophale) SiO2 
 PCOD9464883
Probable space group: P N M A
;
_chemical_formula_sum "Si O2"
_cell_formula_units_Z 48
_cell_length_a 9.497300
_cell_length_b 8.536557
_cell_length_c 31.576401
_cell_angle_alpha 90.000000
_cell_angle_beta 90.000000
_cell_angle_gamma 90.000000
_cell_volume 2560.032801
_symmetry_space_group_name_H-M "P N M A"
_symmetry_group_IT_number 62
_symmetry_cell_setting 'orthorhombic'
loop_
_space_group_symop_operation_xyz
x,y,z
1/2-x,-y,1/2+z
1/2+x,1/2-y,1/2-z
-x,1/2+y,-z
-x,-y,-z
1/2+x,y,1/2-z
1/2-x,1/2+y,1/2+z
x,1/2-y,z
loop_
_atom_site_type_symbol
_atom_site_label
_atom_site_fract_x
_atom_site_fract_y
_atom_site_fract_z
Si Si1 0.913854 0.435941 0.288720
Si Si2 0.591375 0.439873 0.632608
Si Si3 0.096400 0.438482 0.962467
Si Si4 0.587983 0.436677 0.039372
Si Si5 0.918373 0.438272 0.631685
Si Si6 0.402729 0.061937 0.711206
O O1 0.922997 0.250000 0.283961
O O2 0.752067 0.489384 0.286270
O O3 0.981922 0.487867 0.333156
O O4 0.004479 0.516433 0.251718
O O5 0.592162 0.250000 0.634196
O O6 0.546416 0.484217 0.584975
O O7 0.754648 0.487971 0.638905
O O8 0.487631 0.493854 0.669466
O O9 0.104736 0.250000 0.963888
O O10 0.251501 0.509140 0.966947
O O11 0.000000 0.500000 0.000000
O O12 0.579036 0.250000 0.041544
O O13 0.541693 0.509155 0.084357
O O14 0.500000 0.500000 0.000000
O O15 0.924241 0.250000 0.634491
O O16 0.388665 0.250000 0.709392
#
# Coordination Sequence:
#
# PCOD9464883 Si02
#       6
#     8   8   8   8   8   8
#     4  12  25  40  58  88 123 154 191 244 297 346
#     4   8  18  36  60  84 110 145 192 241 288 340
#     4  10  20  37  58  85 118 155 197 245 295 349
#     4  11  22  38  59  86 118 156 198 246 297 349
#     4  10  20  39  63  87 115 153 197 243 292 351
#     4  11  22  40  63  86 113 155 201 241 288 351
#
# _framework density 18.749759000000001
#
# number of rings (size 3 to 8) (size 9 to 14) (size 15 to 20)
#    0.000    1.667    0.000    6.500    0.000    2.667 
#    0.000   14.167    0.000    0.000    0.000    0.000 
#    0.000    0.000    0.000    0.000    0.000    0.000 
#
# Total GULP energy -268229.109853 kJ/mol
# GULP energy per Si atom -5588.106455 kJ/mol
# Density = 1.870708 g / cm^3
# Si number density = 18.749759 Si / 1000 Ang^3
#
#
#
# Elastic Constant Matrix: (Units=GPa)
#
#
# Indices 1 2 3 4 5 6 
#
# 1 82.9755 -4.8103 60.9431 0.0000 0.0000 0.0000
# 2 -4.8103 47.6458 -16.5434 0.0000 0.0000 0.0000
# 3 60.9431 -16.5434 110.4282 0.0000 0.0000 0.0000
# 4 0.0000 0.0000 0.0000 32.1563 0.0000 0.0000
# 5 0.0000 0.0000 0.0000 0.0000 44.0722 0.0000
# 6 0.0000 0.0000 0.0000 0.0000 0.0000 29.3642
#
#
#
# Elastic Compliance Matrix: (Units=1/GPa)
#
#
# Indices 1 2 3 4 5 6 
#
# 1 0.020438 -0.001955 -0.011572 0.000000 0.000000 0.000000
# 2 -0.001955 0.022327 0.004424 0.000000 0.000000 0.000000
# 3 -0.011572 0.004424 0.016105 0.000000 0.000000 0.000000
# 4 0.000000 0.000000 0.000000 0.031098 0.000000 0.000000
# 5 0.000000 0.000000 0.000000 0.000000 0.022690 0.000000
# 6 0.000000 0.000000 0.000000 0.000000 0.000000 0.034055
#
#
# Mechanical properties :
#
#
# Convention : Reuss Voigt Hill
#
# Bulk Modulus (GPa) = 24.59235 35.58093 30.08664
# Shear Modulus (GPa) = 28.01544 34.54921 31.28232
#
# Velocity S-wave (km/s) = 3.86965 4.29726 4.08905
# Velocity P-wave (km/s) = 5.75414 6.60605 6.19476
#
# Compressibility (1/GPa) = 0.04066305
#
# Stress axis : x y z
#
# Youngs Moduli (GPa) = 48.92907 44.78924 62.09360
#
# Poissons Ratio (x) = 0.08754 0.71855
# Poissons Ratio (y) = 0.09564 -0.27467
# Poissons Ratio (z) = 0.56621 -0.19813
#
# Static dielectric constant tensor:
#      x y z
#    x 1.610540 0.000000 0.000000 
#    y 0.000000 1.632310 0.000000 
#    z 0.000000 0.000000 1.642970 
# 
# From -- ./inp_files/32029.got.cif
#   From: 2010.05.17/outbox.cif.g08.bks.cpg/sg62_17_cif.got.tgz:32029.got - 2010.06.03 15:25:27.
