data_PCOD9464339
_publ_section_title
;
Structure prediction by ZEFSAII (Michael W. Deem and Ramdas Pophale) SiO2 
 PCOD9464339
Probable space group: P N M A
;
_chemical_formula_sum "Si O2"
_cell_formula_units_Z 40
_cell_length_a 4.960939
_cell_length_b 18.287799
_cell_length_c 19.348343
_cell_angle_alpha 90.000000
_cell_angle_beta 90.000000
_cell_angle_gamma 90.000000
_cell_volume 1755.371749
_symmetry_space_group_name_H-M "P N M A"
_symmetry_group_IT_number 62
_symmetry_cell_setting 'orthorhombic'
loop_
_space_group_symop_operation_xyz
x,y,z
1/2-x,-y,1/2+z
1/2+x,1/2-y,1/2-z
-x,1/2+y,-z
-x,-y,-z
1/2+x,y,1/2-z
1/2-x,1/2+y,1/2+z
x,1/2-y,z
loop_
_atom_site_type_symbol
_atom_site_label
_atom_site_fract_x
_atom_site_fract_y
_atom_site_fract_z
Si Si1 0.092326 0.146962 0.288214
Si Si2 0.150771 0.026410 0.569776
Si Si3 0.257851 0.863411 0.580818
Si Si4 0.850625 0.470754 0.707871
Si Si5 0.746035 0.830600 0.493645
O O1 0.896536 0.170371 0.225472
O O2 0.915558 0.165236 0.354848
O O3 0.128157 0.059063 0.290697
O O4 0.950552 0.048610 0.631534
O O5 0.324784 0.097455 0.550890
O O6 0.297491 0.951136 0.592016
O O7 0.000000 0.000000 0.500000
O O8 0.546845 0.833428 0.559541
O O9 0.053020 0.844543 0.518061
O O10 0.059368 0.446163 0.767294
O O11 0.722655 0.750000 0.461999
#
# Coordination Sequence:
#
# PCOD9464339 Si02
#       5
#     8   8   8   8   8
#     4   9  16  28  49  75 101 133 173 216 261 314
#     4   9  20  36  59  86 110 143 189 230 268 323
#     4  10  20  35  55  79 107 138 178 224 270 321
#     4   9  18  31  50  79 112 139 171 222 277 321
#     4  11  22  36  54  77 108 141 176 226 279 321
#
# _framework density 22.787196000000002
#
# number of rings (size 3 to 8) (size 9 to 14) (size 15 to 20)
#    0.000    2.400    0.000    2.400    0.000   12.800 
#    0.000    0.000    0.000   13.200    0.000    0.000 
#    0.000    0.000    0.000    0.000    0.000    0.000 
#
# Total GULP energy -223228.905682 kJ/mol
# GULP energy per Si atom -5580.722642 kJ/mol
# Density = 2.273533 g / cm^3
# Si number density = 22.787196 Si / 1000 Ang^3
#
#
#
# Elastic Constant Matrix: (Units=GPa)
#
#
# Indices 1 2 3 4 5 6 
#
# 1 92.5451 6.2373 -7.1096 0.0000 0.0000 0.0000
# 2 6.2373 117.4977 -1.8285 0.0000 0.0000 0.0000
# 3 -7.1096 -1.8285 60.6920 0.0000 0.0000 0.0000
# 4 0.0000 0.0000 0.0000 -16.2150 0.0000 0.0000
# 5 0.0000 0.0000 0.0000 0.0000 28.2613 0.0000
# 6 0.0000 0.0000 0.0000 0.0000 0.0000 -72.8519
#
#
#
# Elastic Compliance Matrix: (Units=1/GPa)
#
#
# Indices 1 2 3 4 5 6 
#
# 1 0.010941 -0.000561 0.001265 0.000000 0.000000 0.000000
# 2 -0.000561 0.008544 0.000192 0.000000 0.000000 0.000000
# 3 0.001265 0.000192 0.016631 0.000000 0.000000 0.000000
# 4 0.000000 0.000000 0.000000 -0.061671 0.000000 0.000000
# 5 0.000000 0.000000 0.000000 0.000000 0.035384 0.000000
# 6 0.000000 0.000000 0.000000 0.000000 0.000000 -0.013726
#
#
# Mechanical properties :
#
#
# Convention : Reuss Voigt Hill
#
# Bulk Modulus (GPa) = 26.38161 29.48148 27.93154
# Shear Modulus (GPa) = 719.90037 6.06793 362.98415
#
# Velocity S-wave (km/s) = 17.79351 1.63360 12.63483
# Velocity P-wave (km/s) = 20.82662 4.06498 15.00453
#
# Compressibility (1/GPa) = 0.03790519
#
# Stress axis : x y z
#
# Youngs Moduli (GPa) = 91.40339 117.04709 60.13025
#
# Poissons Ratio (x) = 0.06567 -0.07605
# Poissons Ratio (y) = 0.05129 -0.01153
# Poissons Ratio (z) = -0.11560 -0.02243
#
# Static dielectric constant tensor:
#      x y z
#    x 1.828750 0.000000 0.000000 
#    y 0.000000 1.829520 0.000000 
#    z 0.000000 0.000000 1.928550 
# 
# From -- ./inp_files/21477.got.cif
#   From: 2010.05.17/outbox.cif.g08.bks.cpg/sg62_11_cif.got.tgz:21477.got - 2010.06.03 15:25:27.
