data_PCOD9464780
_publ_section_title
;
Structure prediction by ZEFSAII (Michael W. Deem and Ramdas Pophale) SiO2 
 PCOD9464780
Probable space group: P N M A
;
_chemical_formula_sum "Si O2"
_cell_formula_units_Z 56
_cell_length_a 14.973615
_cell_length_b 8.732366
_cell_length_c 21.346626
_cell_angle_alpha 90.000000
_cell_angle_beta 90.000000
_cell_angle_gamma 90.000000
_cell_volume 2791.179930
_symmetry_space_group_name_H-M "P N M A"
_symmetry_group_IT_number 62
_symmetry_cell_setting 'orthorhombic'
loop_
_space_group_symop_operation_xyz
x,y,z
1/2-x,-y,1/2+z
1/2+x,1/2-y,1/2-z
-x,1/2+y,-z
-x,-y,-z
1/2+x,y,1/2-z
1/2-x,1/2+y,1/2+z
x,1/2-y,z
loop_
_atom_site_type_symbol
_atom_site_label
_atom_site_fract_x
_atom_site_fract_y
_atom_site_fract_z
Si Si1 0.039355 0.923553 0.367631
Si Si2 0.837724 0.435859 0.845635
Si Si3 0.077466 0.571379 0.542966
Si Si4 0.769253 0.067870 0.980460
Si Si5 0.757571 0.430590 0.610378
Si Si6 0.494170 0.572798 0.271189
Si Si7 0.299919 0.068453 0.257036
O O1 0.009690 0.750000 0.384198
O O2 0.135555 0.951465 0.398018
O O3 0.049688 0.927574 0.293385
O O4 0.965096 0.042741 0.388969
O O5 0.835249 0.250000 0.841957
O O6 0.822093 0.480507 0.917902
O O7 0.935810 0.486646 0.822309
O O8 0.760626 0.495675 0.798427
O O9 0.092180 0.750000 0.530531
O O10 0.167745 0.478601 0.535390
O O11 0.000000 0.500000 0.500000
O O12 0.777020 0.250000 0.987616
O O13 0.789656 0.990541 0.047402
O O14 0.741336 0.250000 0.618387
O O15 0.733698 0.516383 0.674225
O O16 0.471017 0.750000 0.285854
O O17 0.402803 0.485568 0.257796
O O18 0.293893 0.250000 0.250805
#
# Coordination Sequence:
#
# PCOD9464780 Si02
#       7
#     8   8   8   8   8   8   8
#     4  10  20  36  60  86 115 153 201 253 305 369
#     4  10  22  43  67  92 125 167 210 256 314 376
#     4  12  23  34  52  81 121 160 199 243 302 372
#     4  11  23  39  61  90 125 161 205 260 316 372
#     4  11  22  40  64  88 121 164 208 249 307 372
#     4  10  21  41  66  89 118 159 209 255 305 369
#     4  12  25  40  63  96 130 162 207 261 312 368
#
# _framework density 20.063200999999999
#
# number of rings (size 3 to 8) (size 9 to 14) (size 15 to 20)
#    0.000    1.143    2.857    4.286    0.000    6.286 
#    0.000    0.714    0.000    0.000    0.000    0.000 
#    0.000    0.000    0.000    0.000    0.000    0.000 
#
# Total GULP energy -312770.350386 kJ/mol
# GULP energy per Si atom -5585.184828 kJ/mol
# Density = 2.001754 g / cm^3
# Si number density = 20.063201 Si / 1000 Ang^3
#
#
#
# Elastic Constant Matrix: (Units=GPa)
#
#
# Indices 1 2 3 4 5 6 
#
# 1 43.3489 12.3236 2.6220 0.0000 0.0000 0.0000
# 2 12.3236 49.9813 15.6318 0.0000 0.0000 0.0000
# 3 2.6220 15.6318 76.6264 0.0000 0.0000 0.0000
# 4 0.0000 0.0000 0.0000 32.3157 0.0000 0.0000
# 5 0.0000 0.0000 0.0000 0.0000 31.8896 0.0000
# 6 0.0000 0.0000 0.0000 0.0000 0.0000 17.8664
#
#
#
# Elastic Compliance Matrix: (Units=1/GPa)
#
#
# Indices 1 2 3 4 5 6 
#
# 1 0.024821 -0.006253 0.000426 0.000000 0.000000 0.000000
# 2 -0.006253 0.022946 -0.004467 0.000000 0.000000 0.000000
# 3 0.000426 -0.004467 0.013947 0.000000 0.000000 0.000000
# 4 0.000000 0.000000 0.000000 0.030945 0.000000 0.000000
# 5 0.000000 0.000000 0.000000 0.000000 0.031358 0.000000
# 6 0.000000 0.000000 0.000000 0.000000 0.000000 0.055971
#
#
# Mechanical properties :
#
#
# Convention : Reuss Voigt Hill
#
# Bulk Modulus (GPa) = 24.31547 25.67904 24.99726
# Shear Modulus (GPa) = 23.33349 25.70631 24.51990
#
# Velocity S-wave (km/s) = 3.41398 3.58336 3.49969
# Velocity P-wave (km/s) = 5.26176 5.47243 5.36813
#
# Compressibility (1/GPa) = 0.04112608
#
# Stress axis : x y z
#
# Youngs Moduli (GPa) = 40.28922 43.57982 71.69979
#
# Poissons Ratio (x) = 0.27251 -0.03057
# Poissons Ratio (y) = 0.25194 0.32029
# Poissons Ratio (z) = -0.01718 0.19468
#
# Static dielectric constant tensor:
#      x y z
#    x 1.703480 0.000000 0.000000 
#    y 0.000000 1.701140 0.000000 
#    z 0.000000 0.000000 1.807290 
# 
# From -- ./inp_files/27155.got.cif
#   From: 2010.05.17/outbox.cif.g08.bks.cpg/sg62_14_cif.got.tgz:27155.got - 2010.06.03 15:25:27.
