data_PCOD9464613
_publ_section_title
;
Structure prediction by ZEFSAII (Michael W. Deem and Ramdas Pophale) SiO2 
 PCOD9464613
Probable space group: P N M A
;
_chemical_formula_sum "Si O2"
_cell_formula_units_Z 56
_cell_length_a 14.555028
_cell_length_b 8.750270
_cell_length_c 23.256802
_cell_angle_alpha 90.000000
_cell_angle_beta 90.000000
_cell_angle_gamma 90.000000
_cell_volume 2961.996184
_symmetry_space_group_name_H-M "P N M A"
_symmetry_group_IT_number 62
_symmetry_cell_setting 'orthorhombic'
loop_
_space_group_symop_operation_xyz
x,y,z
1/2-x,-y,1/2+z
1/2+x,1/2-y,1/2-z
-x,1/2+y,-z
-x,-y,-z
1/2+x,y,1/2-z
1/2-x,1/2+y,1/2+z
x,1/2-y,z
loop_
_atom_site_type_symbol
_atom_site_label
_atom_site_fract_x
_atom_site_fract_y
_atom_site_fract_z
Si Si1 0.604194 0.934522 0.658401
Si Si2 0.708564 0.933745 0.893850
Si Si3 0.102262 0.066579 0.497546
Si Si4 0.409334 0.931555 0.641983
Si Si5 0.809865 0.565997 0.624883
Si Si6 0.350604 0.923011 0.222805
Si Si7 0.862999 0.422656 0.740549
O O1 0.603561 0.750000 0.660309
O O2 0.511637 0.986964 0.625513
O O3 0.702324 0.980218 0.631330
O O4 0.600950 0.996043 0.723677
O O5 0.708257 0.750000 0.895740
O O6 0.814955 0.989860 0.886790
O O7 0.653133 0.987364 0.837116
O O8 0.661671 0.001340 0.950042
O O9 0.098754 0.250000 0.501363
O O10 0.149317 0.025486 0.436816
O O11 0.000000 0.000000 0.500000
O O12 0.407724 0.750000 0.633833
O O13 0.401596 0.970468 0.709520
O O14 0.813894 0.750000 0.631877
O O15 0.866823 0.490052 0.676737
O O16 0.383478 0.750000 0.214024
O O17 0.244977 0.915916 0.243821
O O18 0.899569 0.250000 0.744100
#
# Coordination Sequence:
#
# PCOD9464613 Si02
#       7
#     8   8   8   8   8   8   8
#     4   9  17  32  54  80 109 141 174 210 255 314
#     4  10  20  36  56  78 106 141 178 217 259 308
#     4  11  24  41  59  78 100 133 177 224 269 315
#     4   9  18  32  53  80 110 142 174 207 252 311
#     4   9  19  36  56  76 103 138 176 216 261 312
#     4   9  17  30  49  76 107 138 172 212 256 301
#     4   9  17  29  49  76 106 137 170 210 255 299
#
# _framework density 18.906168999999998
#
# number of rings (size 3 to 8) (size 9 to 14) (size 15 to 20)
#    0.000    2.571    0.000    1.714    0.000    6.857 
#    0.000    2.143    0.000    0.000    0.000    0.000 
#    0.000    0.000    0.000    0.000    0.000    0.000 
#
# Total GULP energy -312158.553228 kJ/mol
# GULP energy per Si atom -5574.259879 kJ/mol
# Density = 1.886314 g / cm^3
# Si number density = 18.906169 Si / 1000 Ang^3
#
#
#
# Elastic Constant Matrix: (Units=GPa)
#
#
# Indices 1 2 3 4 5 6 
#
# 1 47.2940 -9.7501 3.8672 0.0000 0.0000 0.0000
# 2 -9.7501 18.9343 13.0069 0.0000 0.0000 0.0000
# 3 3.8672 13.0069 98.3830 0.0000 0.0000 0.0000
# 4 0.0000 0.0000 0.0000 30.1497 0.0000 0.0000
# 5 0.0000 0.0000 0.0000 0.0000 16.4892 0.0000
# 6 0.0000 0.0000 0.0000 0.0000 0.0000 12.0380
#
#
#
# Elastic Compliance Matrix: (Units=1/GPa)
#
#
# Indices 1 2 3 4 5 6 
#
# 1 0.024375 0.014530 -0.002879 0.000000 0.000000 0.000000
# 2 0.014530 0.066750 -0.009396 0.000000 0.000000 0.000000
# 3 -0.002879 -0.009396 0.011520 0.000000 0.000000 0.000000
# 4 0.000000 0.000000 0.000000 0.033168 0.000000 0.000000
# 5 0.000000 0.000000 0.000000 0.000000 0.060646 0.000000
# 6 0.000000 0.000000 0.000000 0.000000 0.000000 0.083070
#
#
# Mechanical properties :
#
#
# Convention : Reuss Voigt Hill
#
# Bulk Modulus (GPa) = 9.33233 19.87326 14.60279
# Shear Modulus (GPa) = 16.09073 22.23455 19.16264
#
# Velocity S-wave (km/s) = 2.92050 3.43307 3.18711
# Velocity P-wave (km/s) = 4.03971 5.12338 4.61347
#
# Compressibility (1/GPa) = 0.10715438
#
# Stress axis : x y z
#
# Youngs Moduli (GPa) = 41.02537 14.98117 86.80754
#
# Poissons Ratio (x) = -0.21767 0.24992
# Poissons Ratio (y) = -0.59608 0.81564
# Poissons Ratio (z) = 0.11811 0.14076
#
# Static dielectric constant tensor:
#      x y z
#    x 1.722730 0.000000 0.000000 
#    y 0.000000 1.650630 0.000000 
#    z 0.000000 0.000000 1.609610 
# 
# From -- ./inp_files/27060.got.cif
#   From: 2010.05.17/outbox.cif.g08.bks.cpg/sg62_14_cif.got.tgz:27060.got - 2010.06.03 15:25:27.
