data_PCOD9464454
_publ_section_title
;
Structure prediction by ZEFSAII (Michael W. Deem and Ramdas Pophale) SiO2 
 PCOD9464454
Probable space group: P N M A
;
_chemical_formula_sum "Si O2"
_cell_formula_units_Z 48
_cell_length_a 29.925455
_cell_length_b 9.058425
_cell_length_c 10.363787
_cell_angle_alpha 90.000000
_cell_angle_beta 90.000000
_cell_angle_gamma 90.000000
_cell_volume 2809.389364
_symmetry_space_group_name_H-M "P N M A"
_symmetry_group_IT_number 62
_symmetry_cell_setting 'orthorhombic'
loop_
_space_group_symop_operation_xyz
x,y,z
1/2-x,-y,1/2+z
1/2+x,1/2-y,1/2-z
-x,1/2+y,-z
-x,-y,-z
1/2+x,y,1/2-z
1/2-x,1/2+y,1/2+z
x,1/2-y,z
loop_
_atom_site_type_symbol
_atom_site_label
_atom_site_fract_x
_atom_site_fract_y
_atom_site_fract_z
Si Si1 0.611603 0.575937 0.786909
Si Si2 0.976563 0.573710 0.378457
Si Si3 0.878146 0.424774 0.982258
Si Si4 0.714051 0.927834 0.783363
Si Si5 0.472498 0.072470 0.615610
Si Si6 0.784244 0.573216 0.006013
O O1 0.605606 0.750000 0.814404
O O2 0.573613 0.484565 0.857772
O O3 0.607581 0.555796 0.632099
O O4 0.662718 0.534028 0.818344
O O5 0.976686 0.750000 0.390912
O O6 0.000000 0.500000 0.500000
O O7 0.004686 0.533296 0.250362
O O8 0.869078 0.250000 0.964328
O O9 0.832837 0.514428 0.962942
O O10 0.920415 0.469836 0.896305
O O11 0.715185 0.750000 0.765172
O O12 0.725044 0.002711 0.646388
O O13 0.747728 0.967551 0.897996
O O14 0.474279 0.250000 0.600578
O O15 0.500000 0.000000 0.500000
O O16 0.784913 0.750000 0.017889
#
# Coordination Sequence:
#
# PCOD9464454 Si02
#       6
#     8   8   8   8   8   8
#     4   9  17  34  58  77 104 144 179 217 269 323
#     4  11  23  37  54  79 111 145 181 222 267 321
#     4   9  18  34  56  81 109 141 175 220 275 321
#     4   9  20  38  57  80 112 144 177 221 273 323
#     4  10  20  35  57  82 107 139 179 222 266 316
#     4  10  20  35  57  83 109 141 181 223 265 318
#
# _framework density 17.085563
#
# number of rings (size 3 to 8) (size 9 to 14) (size 15 to 20)
#    0.000    2.333    1.667    2.000    0.000    5.333 
#    3.000    0.000    0.000    0.000    0.000    0.000 
#    0.000    0.000    0.000    0.000    0.000    0.000 
#
# Total GULP energy -267786.585573 kJ/mol
# GULP energy per Si atom -5578.887199 kJ/mol
# Density = 1.704668 g / cm^3
# Si number density = 17.085563 Si / 1000 Ang^3
#
#
#
# Elastic Constant Matrix: (Units=GPa)
#
#
# Indices 1 2 3 4 5 6 
#
# 1 155.8931 58.7337 101.7025 0.0000 0.0000 0.0000
# 2 58.7337 40.4364 57.7305 0.0000 0.0000 0.0000
# 3 101.7025 57.7305 124.3977 0.0000 0.0000 0.0000
# 4 0.0000 0.0000 0.0000 25.3821 0.0000 0.0000
# 5 0.0000 0.0000 0.0000 0.0000 31.4137 0.0000
# 6 0.0000 0.0000 0.0000 0.0000 0.0000 28.5011
#
#
#
# Elastic Compliance Matrix: (Units=1/GPa)
#
#
# Indices 1 2 3 4 5 6 
#
# 1 0.015875 -0.013421 -0.006750 0.000000 0.000000 0.000000
# 2 -0.013421 0.084634 -0.028305 0.000000 0.000000 0.000000
# 3 -0.006750 -0.028305 0.026693 0.000000 0.000000 0.000000
# 4 0.000000 0.000000 0.000000 0.039398 0.000000 0.000000
# 5 0.000000 0.000000 0.000000 0.000000 0.031833 0.000000
# 6 0.000000 0.000000 0.000000 0.000000 0.000000 0.035086
#
#
# Mechanical properties :
#
#
# Convention : Reuss Voigt Hill
#
# Bulk Modulus (GPa) = 33.05731 84.11783 58.58757
# Shear Modulus (GPa) = 14.68194 23.89675 19.28935
#
# Velocity S-wave (km/s) = 2.93459 3.74391 3.36368
# Velocity P-wave (km/s) = 5.55631 8.24799 7.03214
#
# Compressibility (1/GPa) = 0.03025049
#
# Stress axis : x y z
#
# Youngs Moduli (GPa) = 62.99285 11.81557 37.46292
#
# Poissons Ratio (x) = 0.15858 0.25288
# Poissons Ratio (y) = 0.84542 1.06037
# Poissons Ratio (z) = 0.42522 0.33444
#
# Static dielectric constant tensor:
#      x y z
#    x 1.577050 0.000000 0.000000 
#    y 0.000000 1.571810 0.000000 
#    z 0.000000 0.000000 1.553200 
# 
# From -- ./inp_files/10151.got.cif
#   From: 2010.05.17/outbox.cif.g08.bks.cpg/sg62_6_cif.got.tgz:10151.got - 2010.06.03 15:25:27.
