data_PCOD9464350
_publ_section_title
;
Structure prediction by ZEFSAII (Michael W. Deem and Ramdas Pophale) SiO2 
 PCOD9464350
Probable space group: P N M A
;
_chemical_formula_sum "Si O2"
_cell_formula_units_Z 48
_cell_length_a 15.224311
_cell_length_b 8.779515
_cell_length_c 20.524418
_cell_angle_alpha 90.000000
_cell_angle_beta 90.000000
_cell_angle_gamma 90.000000
_cell_volume 2743.336130
_symmetry_space_group_name_H-M "P N M A"
_symmetry_group_IT_number 62
_symmetry_cell_setting 'orthorhombic'
loop_
_space_group_symop_operation_xyz
x,y,z
1/2-x,-y,1/2+z
1/2+x,1/2-y,1/2-z
-x,1/2+y,-z
-x,-y,-z
1/2+x,y,1/2-z
1/2-x,1/2+y,1/2+z
x,1/2-y,z
loop_
_atom_site_type_symbol
_atom_site_label
_atom_site_fract_x
_atom_site_fract_y
_atom_site_fract_z
Si Si1 0.610171 0.566641 0.816566
Si Si2 0.306667 0.567579 0.656140
Si Si3 0.501157 0.066386 0.308323
Si Si4 0.921580 0.567890 0.457895
Si Si5 0.563667 0.068747 0.555497
Si Si6 0.277148 0.431607 0.514869
O O1 0.602680 0.750000 0.821594
O O2 0.713973 0.529996 0.810092
O O3 0.553262 0.516182 0.754830
O O4 0.578489 0.495420 0.884394
O O5 0.306886 0.750000 0.643457
O O6 0.394947 0.531082 0.695346
O O7 0.308210 0.482985 0.586842
O O8 0.492614 0.250000 0.313537
O O9 0.464707 0.993718 0.374399
O O10 0.927701 0.750000 0.456231
O O11 0.825922 0.528248 0.487924
O O12 0.000000 0.500000 0.500000
O O13 0.557055 0.250000 0.553674
O O14 0.500000 0.000000 0.500000
O O15 0.661405 0.014788 0.536825
O O16 0.286868 0.250000 0.508340
#
# Coordination Sequence:
#
# PCOD9464350 Si02
#       6
#     8   8   8   8   8   8
#     4   9  19  36  56  80 111 147 187 229 275 334
#     4   9  17  32  55  77 103 146 186 221 273 329
#     4  10  20  35  55  80 112 147 186 229 277 334
#     4  10  21  38  61  85 112 147 189 234 279 332
#     4  12  23  35  55  83 115 147 184 229 280 334
#     4  10  20  35  56  82 109 143 185 230 277 328
#
# _framework density 17.496945
#
# number of rings (size 3 to 8) (size 9 to 14) (size 15 to 20)
#    0.000    2.000    1.667    2.500    0.000    2.667 
#    3.000    0.000    0.000    0.000    0.000    0.000 
#    0.000    0.000    0.000    0.000    0.000    0.000 
#
# Total GULP energy -267923.815190 kJ/mol
# GULP energy per Si atom -5581.746150 kJ/mol
# Density = 1.745712 g / cm^3
# Si number density = 17.496945 Si / 1000 Ang^3
#
#
#
# Elastic Constant Matrix: (Units=GPa)
#
#
# Indices 1 2 3 4 5 6 
#
# 1 161.9225 56.4187 106.9857 0.0000 0.0000 0.0000
# 2 56.4187 43.3035 44.5911 0.0000 0.0000 0.0000
# 3 106.9857 44.5911 121.4166 0.0000 0.0000 0.0000
# 4 0.0000 0.0000 0.0000 28.9214 0.0000 0.0000
# 5 0.0000 0.0000 0.0000 0.0000 34.9482 0.0000
# 6 0.0000 0.0000 0.0000 0.0000 0.0000 22.6240
#
#
#
# Elastic Compliance Matrix: (Units=1/GPa)
#
#
# Indices 1 2 3 4 5 6 
#
# 1 0.017619 -0.011207 -0.011409 0.000000 0.000000 0.000000
# 2 -0.011207 0.044265 -0.006382 0.000000 0.000000 0.000000
# 3 -0.011409 -0.006382 0.020633 0.000000 0.000000 0.000000
# 4 0.000000 0.000000 0.000000 0.034576 0.000000 0.000000
# 5 0.000000 0.000000 0.000000 0.000000 0.028614 0.000000
# 6 0.000000 0.000000 0.000000 0.000000 0.000000 0.044201
#
#
# Mechanical properties :
#
#
# Convention : Reuss Voigt Hill
#
# Bulk Modulus (GPa) = 40.78023 82.51485 61.64754
# Shear Modulus (GPa) = 19.52538 25.20853 22.36695
#
# Velocity S-wave (km/s) = 3.34418 3.79982 3.57926
# Velocity P-wave (km/s) = 6.18620 8.15558 7.23818
#
# Compressibility (1/GPa) = 0.02452169
#
# Stress axis : x y z
#
# Youngs Moduli (GPa) = 56.75830 22.59099 48.46651
#
# Poissons Ratio (x) = 0.25317 0.55295
# Poissons Ratio (y) = 0.63607 0.30932
# Poissons Ratio (z) = 0.64754 0.14418
#
# Static dielectric constant tensor:
#      x y z
#    x 1.619310 0.000000 0.000000 
#    y 0.000000 1.586350 0.000000 
#    z 0.000000 0.000000 1.550100 
# 
# From -- ./inp_files/23730.got.cif
#   From: 2010.05.17/outbox.cif.g08.bks.cpg/sg62_12_cif.got.tgz:23730.got - 2010.06.03 15:25:27.
