data_PCOD9464724
_publ_section_title
;
Structure prediction by ZEFSAII (Michael W. Deem and Ramdas Pophale) SiO2 
 PCOD9464724
Probable space group: P N M A
;
_chemical_formula_sum "Si O2"
_cell_formula_units_Z 36
_cell_length_a 5.347072
_cell_length_b 21.398971
_cell_length_c 13.921382
_cell_angle_alpha 90.000000
_cell_angle_beta 90.000000
_cell_angle_gamma 90.000000
_cell_volume 1592.910125
_symmetry_space_group_name_H-M "P N M A"
_symmetry_group_IT_number 62
_symmetry_cell_setting 'orthorhombic'
loop_
_space_group_symop_operation_xyz
x,y,z
1/2-x,-y,1/2+z
1/2+x,1/2-y,1/2-z
-x,1/2+y,-z
-x,-y,-z
1/2+x,y,1/2-z
1/2-x,1/2+y,1/2+z
x,1/2-y,z
loop_
_atom_site_type_symbol
_atom_site_label
_atom_site_fract_x
_atom_site_fract_y
_atom_site_fract_z
Si Si1 0.805557 0.945361 0.801977
Si Si2 0.292109 0.416454 0.777882
Si Si3 0.195370 0.104315 0.985029
Si Si4 0.797976 0.680225 0.503336
Si Si5 0.299022 0.250000 0.310335
O O1 0.550588 0.921099 0.753473
O O2 0.813303 0.931720 0.914570
O O3 0.803067 0.019977 0.783729
O O4 0.548343 0.381112 0.758632
O O5 0.262960 0.433987 0.889441
O O6 0.424577 0.153231 0.993041
O O7 0.925964 0.136221 0.968533
O O8 0.782416 0.750000 0.460334
O O9 0.741301 0.692385 0.616563
O O10 0.576309 0.250000 0.266863
#
# Coordination Sequence:
#
# PCOD9464724 Si02
#       5
#     8   8   8   8   4
#     4  10  23  38  59  94 128 163 217 254 313 395
#     4  10  23  41  63  93 126 166 220 266 316 384
#     4  12  22  41  67  89 132 176 204 266 329 371
#     4  10  24  39  61  93 121 173 209 258 318 387
#     4  10  20  36  58  88 128 156 200 266 308 364
#
# _framework density 22.600147
#
# number of rings (size 3 to 8) (size 9 to 14) (size 15 to 20)
#    0.667    0.889    0.000    4.667    0.000   12.444 
#    0.000    0.000    0.000   13.333    0.000    0.000 
#    0.000    0.000    0.000    0.000    0.000    0.000 
#
# Total GULP energy -201092.473466 kJ/mol
# GULP energy per Si atom -5585.902041 kJ/mol
# Density = 2.254871 g / cm^3
# Si number density = 22.600147 Si / 1000 Ang^3
#
#
#
# Elastic Constant Matrix: (Units=GPa)
#
#
# Indices 1 2 3 4 5 6 
#
# 1 156.8541 -3.1935 11.5413 0.0000 0.0000 0.0000
# 2 -3.1935 43.4949 6.0100 0.0000 0.0000 0.0000
# 3 11.5413 6.0100 113.4210 0.0000 0.0000 0.0000
# 4 0.0000 0.0000 0.0000 -0.4546 0.0000 0.0000
# 5 0.0000 0.0000 0.0000 0.0000 32.7856 0.0000
# 6 0.0000 0.0000 0.0000 0.0000 0.0000 -17.4868
#
#
#
# Elastic Compliance Matrix: (Units=1/GPa)
#
#
# Indices 1 2 3 4 5 6 
#
# 1 0.006437 0.000567 -0.000685 0.000000 0.000000 0.000000
# 2 0.000567 0.023211 -0.001288 0.000000 0.000000 0.000000
# 3 -0.000685 -0.001288 0.008955 0.000000 0.000000 0.000000
# 4 0.000000 0.000000 0.000000 -2.199531 0.000000 0.000000
# 5 0.000000 0.000000 0.000000 0.000000 0.030501 0.000000
# 6 0.000000 0.000000 0.000000 0.000000 0.000000 -0.057186
#
#
# Mechanical properties :
#
#
# Convention : Reuss Voigt Hill
#
# Bulk Modulus (GPa) = 27.93932 38.05397 32.99664
# Shear Modulus (GPa) = -2.30110 22.92963 10.31426
#
# Velocity S-wave (km/s) = -1.01014 3.18870 2.13862
# Velocity P-wave (km/s) = 3.32096 5.51648 4.55304
#
# Compressibility (1/GPa) = 0.03579186
#
# Stress axis : x y z
#
# Youngs Moduli (GPa) = 155.34438 43.08348 111.67378
#
# Poissons Ratio (x) = -0.02444 0.07651
# Poissons Ratio (y) = -0.08813 0.14380
# Poissons Ratio (z) = 0.10643 0.05548
#
# Static dielectric constant tensor:
#      x y z
#    x 1.948430 0.000000 0.000000 
#    y 0.000000 1.843860 0.000000 
#    z 0.000000 0.000000 1.831640 
# 
# From -- ./inp_files/21540.got.cif
#   From: 2010.05.17/outbox.cif.g08.bks.cpg/sg62_11_cif.got.tgz:21540.got - 2010.06.03 15:25:27.
