data_PCOD9464477
_publ_section_title
;
Structure prediction by ZEFSAII (Michael W. Deem and Ramdas Pophale) SiO2 
 PCOD9464477
Probable space group: P N M A
;
_chemical_formula_sum "Si O2"
_cell_formula_units_Z 64
_cell_length_a 15.859081
_cell_length_b 7.840781
_cell_length_c 24.262504
_cell_angle_alpha 90.000000
_cell_angle_beta 90.000000
_cell_angle_gamma 90.000000
_cell_volume 3016.983681
_symmetry_space_group_name_H-M "P N M A"
_symmetry_group_IT_number 62
_symmetry_cell_setting 'orthorhombic'
loop_
_space_group_symop_operation_xyz
x,y,z
1/2-x,-y,1/2+z
1/2+x,1/2-y,1/2-z
-x,1/2+y,-z
-x,-y,-z
1/2+x,y,1/2-z
1/2-x,1/2+y,1/2+z
x,1/2-y,z
loop_
_atom_site_type_symbol
_atom_site_label
_atom_site_fract_x
_atom_site_fract_y
_atom_site_fract_z
Si Si1 0.583216 0.956053 0.132960
Si Si2 0.665729 0.448987 0.737823
Si Si3 0.898661 0.452533 0.351538
Si Si4 0.227182 0.550129 0.448308
Si Si5 0.857437 0.043933 0.753320
Si Si6 0.073970 0.046634 0.128859
Si Si7 0.744444 0.040364 0.428373
Si Si8 0.611543 0.947562 0.618836
O O1 0.588841 0.750000 0.133993
O O2 0.651894 0.022107 0.089349
O O3 0.606165 0.015502 0.194773
O O4 0.487664 0.006214 0.120759
O O5 0.672659 0.250000 0.722660
O O6 0.606546 0.468058 0.790721
O O7 0.759199 0.509540 0.755288
O O8 0.633213 0.541840 0.683667
O O9 0.891109 0.250000 0.344886
O O10 0.819750 0.513155 0.387853
O O11 0.207684 0.750000 0.455417
O O12 0.238091 0.479791 0.509679
O O13 0.314232 0.535253 0.415003
O O14 0.859753 0.250000 0.754424
O O15 0.907340 0.982691 0.806671
O O16 0.070225 0.250000 0.120494
O O17 0.154372 0.981191 0.094940
O O18 0.982369 0.978023 0.112006
O O19 0.743018 0.250000 0.428186
O O20 0.611709 0.750000 0.601921
#
# Coordination Sequence:
#
# PCOD9464477 Si02
#       8
#     8   8   8   8   8   8   8   8
#     4  10  21  38  58  84 115 150 192 238 287 346
#     4  11  21  37  60  86 117 154 192 234 286 347
#     4  11  22  37  59  89 118 152 192 236 291 345
#     4  10  21  41  63  81 110 157 201 237 286 345
#     4  10  20  35  57  85 113 147 190 233 283 340
#     4  10  21  38  58  84 117 152 187 230 289 346
#     4   9  20  39  61  82 112 154 197 238 286 345
#     4  11  23  37  58  89 120 150 189 241 293 343
#
# _framework density 21.213239999999999
#
# number of rings (size 3 to 8) (size 9 to 14) (size 15 to 20)
#    0.000    1.750    2.500    1.875    0.000    5.500 
#    0.000    1.875    0.000    0.000    0.000    0.000 
#    0.000    0.000    0.000    0.000    0.000    0.000 
#
# Total GULP energy -357684.981538 kJ/mol
# GULP energy per Si atom -5588.827837 kJ/mol
# Density = 2.116496 g / cm^3
# Si number density = 21.213240 Si / 1000 Ang^3
#
#
#
# Elastic Constant Matrix: (Units=GPa)
#
#
# Indices 1 2 3 4 5 6 
#
# 1 108.4805 -8.8229 18.9588 0.0000 0.0000 0.0000
# 2 -8.8229 23.1641 -10.1619 0.0000 0.0000 0.0000
# 3 18.9588 -10.1619 96.1995 0.0000 0.0000 0.0000
# 4 0.0000 0.0000 0.0000 14.4286 0.0000 0.0000
# 5 0.0000 0.0000 0.0000 0.0000 1.7234 0.0000
# 6 0.0000 0.0000 0.0000 0.0000 0.0000 18.6761
#
#
#
# Elastic Compliance Matrix: (Units=1/GPa)
#
#
# Indices 1 2 3 4 5 6 
#
# 1 0.009743 0.003008 -0.001602 0.000000 0.000000 0.000000
# 2 0.003008 0.046197 0.004287 0.000000 0.000000 0.000000
# 3 -0.001602 0.004287 0.011164 0.000000 0.000000 0.000000
# 4 0.000000 0.000000 0.000000 0.069307 0.000000 0.000000
# 5 0.000000 0.000000 0.000000 0.000000 0.580258 0.000000
# 6 0.000000 0.000000 0.000000 0.000000 0.000000 0.053544
#
#
# Mechanical properties :
#
#
# Convention : Reuss Voigt Hill
#
# Bulk Modulus (GPa) = 12.74067 25.31024 19.02546
# Shear Modulus (GPa) = 6.36950 22.15695 14.26323
#
# Velocity S-wave (km/s) = 1.73468 3.23536 2.59583
# Velocity P-wave (km/s) = 3.16721 5.09058 4.23941
#
# Compressibility (1/GPa) = 0.07848878
#
# Stress axis : x y z
#
# Youngs Moduli (GPa) = 102.63851 21.64659 89.57588
#
# Poissons Ratio (x) = -0.06511 0.14353
# Poissons Ratio (y) = -0.30874 -0.38402
# Poissons Ratio (z) = 0.16447 -0.09280
#
# Static dielectric constant tensor:
#      x y z
#    x 1.770880 0.000000 0.000000 
#    y 0.000000 1.787250 0.000000 
#    z 0.000000 0.000000 1.726430 
# 
# From -- ./inp_files/29878.got.cif
#   From: 2010.05.17/outbox.cif.g08.bks.cpg/sg62_15_cif.got.tgz:29878.got - 2010.06.03 15:25:27.
