data_PCOD9464496
_publ_section_title
;
Structure prediction by ZEFSAII (Michael W. Deem and Ramdas Pophale) SiO2 
 PCOD9464496
Probable space group: P N M A
;
_chemical_formula_sum "Si O2"
_cell_formula_units_Z 64
_cell_length_a 24.331727
_cell_length_b 13.775598
_cell_length_c 8.856494
_cell_angle_alpha 90.000000
_cell_angle_beta 90.000000
_cell_angle_gamma 90.000000
_cell_volume 2968.555880
_symmetry_space_group_name_H-M "P N M A"
_symmetry_group_IT_number 62
_symmetry_cell_setting 'orthorhombic'
loop_
_space_group_symop_operation_xyz
x,y,z
1/2-x,-y,1/2+z
1/2+x,1/2-y,1/2-z
-x,1/2+y,-z
-x,-y,-z
1/2+x,y,1/2-z
1/2-x,1/2+y,1/2+z
x,1/2-y,z
loop_
_atom_site_type_symbol
_atom_site_label
_atom_site_fract_x
_atom_site_fract_y
_atom_site_fract_z
Si Si1 0.953836 0.483502 0.295489
Si Si2 0.053537 0.908248 0.237575
Si Si3 0.700979 0.488871 0.150853
Si Si4 0.001542 0.352904 0.054283
Si Si5 0.621875 0.425947 0.392059
Si Si6 0.135316 0.361269 0.784557
Si Si7 0.752492 0.635786 0.397715
Si Si8 0.875383 0.357373 0.495328
O O1 0.969054 0.439282 0.132816
O O2 0.913066 0.573772 0.282690
O O3 0.920073 0.400742 0.380385
O O4 0.014892 0.520699 0.339150
O O5 0.090467 0.849024 0.349980
O O6 0.096758 0.967759 0.136462
O O7 0.012591 0.857080 0.122012
O O8 0.660529 0.416540 0.245436
O O9 0.722102 0.565314 0.277527
O O10 0.669510 0.558982 0.030679
O O11 0.743274 0.421480 0.057322
O O12 0.982064 0.250000 0.115423
O O13 0.065709 0.363965 0.093812
O O14 0.651048 0.406546 0.551622
O O15 0.118300 0.250000 0.808900
O O16 0.186002 0.360771 0.670466
O O17 0.733444 0.750000 0.405918
O O18 0.854116 0.250000 0.453578
#
# Coordination Sequence:
#
# PCOD9464496 Si02
#       8
#     8   8   8   8   8   8   8   8
#     4  11  20  38  56  87 127 170 209 257 310 363
#     4  10  20  35  58  84 127 175 214 255 308 360
#     4  11  24  45  72  91 132 162 207 275 329 391
#     4  11  20  34  59  91 130 170 215 257 301 372
#     4  10  20  37  61  92 124 169 210 261 316 370
#     4  11  21  37  64  92 124 166 213 261 314 380
#     4  11  25  46  71  99 127 166 216 268 338 403
#     4  11  23  39  61  91 126 167 212 259 319 382
#
# _framework density 21.559304999999998
#
# number of rings (size 3 to 8) (size 9 to 14) (size 15 to 20)
#    0.000    1.250    3.750    3.375    0.000    1.500 
#    0.000    1.250    0.000    0.000    0.000    0.000 
#    0.000    0.000    0.000    0.000    0.000    0.000 
#
# Total GULP energy -356591.244648 kJ/mol
# GULP energy per Si atom -5571.738198 kJ/mol
# Density = 2.151023 g / cm^3
# Si number density = 21.559305 Si / 1000 Ang^3
#
#
#
# Elastic Constant Matrix: (Units=GPa)
#
#
# Indices 1 2 3 4 5 6 
#
# 1 35.6919 14.9677 3.2367 0.0000 0.0000 0.0000
# 2 14.9677 112.6174 33.5826 0.0000 0.0000 0.0000
# 3 3.2367 33.5826 58.8508 0.0000 0.0000 0.0000
# 4 0.0000 0.0000 0.0000 11.4858 0.0000 0.0000
# 5 0.0000 0.0000 0.0000 0.0000 41.2638 0.0000
# 6 0.0000 0.0000 0.0000 0.0000 0.0000 12.5704
#
#
#
# Elastic Compliance Matrix: (Units=1/GPa)
#
#
# Indices 1 2 3 4 5 6 
#
# 1 0.029698 -0.004170 0.000746 0.000000 0.000000 0.000000
# 2 -0.004170 0.011286 -0.006211 0.000000 0.000000 0.000000
# 3 0.000746 -0.006211 0.020495 0.000000 0.000000 0.000000
# 4 0.000000 0.000000 0.000000 0.087064 0.000000 0.000000
# 5 0.000000 0.000000 0.000000 0.000000 0.024234 0.000000
# 6 0.000000 0.000000 0.000000 0.000000 0.000000 0.079552
#
#
# Mechanical properties :
#
#
# Convention : Reuss Voigt Hill
#
# Bulk Modulus (GPa) = 23.69069 34.52600 29.10835
# Shear Modulus (GPa) = 17.50277 23.42221 20.46249
#
# Velocity S-wave (km/s) = 2.85238 3.29965 3.08413
# Velocity P-wave (km/s) = 4.67553 5.52866 5.11989
#
# Compressibility (1/GPa) = 0.04221068
#
# Stress axis : x y z
#
# Youngs Moduli (GPa) = 33.67175 88.60640 48.79185
#
# Poissons Ratio (x) = 0.36945 -0.03640
# Poissons Ratio (y) = 0.14040 0.30304
# Poissons Ratio (z) = -0.02512 0.55032
#
# Static dielectric constant tensor:
#      x y z
#    x 1.807760 0.000000 0.000000 
#    y 0.000000 1.801970 0.000000 
#    z 0.000000 0.000000 1.823310 
# 
# From -- ./inp_files/9468.got.cif
#   From: 2010.05.17/outbox.cif.g08.bks.cpg/sg62_5_cif.got.tgz:9468.got - 2010.06.03 15:25:27.
