data_PCOD9464416
_publ_section_title
;
Structure prediction by ZEFSAII (Michael W. Deem and Ramdas Pophale) SiO2 
 PCOD9464416
Probable space group: P N M A
;
_chemical_formula_sum "Si O2"
_cell_formula_units_Z 64
_cell_length_a 18.983175
_cell_length_b 8.637480
_cell_length_c 20.894917
_cell_angle_alpha 90.000000
_cell_angle_beta 90.000000
_cell_angle_gamma 90.000000
_cell_volume 3426.072560
_symmetry_space_group_name_H-M "P N M A"
_symmetry_group_IT_number 62
_symmetry_cell_setting 'orthorhombic'
loop_
_space_group_symop_operation_xyz
x,y,z
1/2-x,-y,1/2+z
1/2+x,1/2-y,1/2-z
-x,1/2+y,-z
-x,-y,-z
1/2+x,y,1/2-z
1/2-x,1/2+y,1/2+z
x,1/2-y,z
loop_
_atom_site_type_symbol
_atom_site_label
_atom_site_fract_x
_atom_site_fract_y
_atom_site_fract_z
Si Si1 0.542658 0.437355 0.560266
Si Si2 0.789906 0.435643 0.819124
Si Si3 0.202382 0.564794 0.564968
Si Si4 0.704058 0.061518 0.555664
Si Si5 0.541647 0.066044 0.176116
Si Si6 0.954504 0.565766 0.441167
Si Si7 0.197717 0.562953 0.327267
Si Si8 0.953361 0.436746 0.816327
O O1 0.500000 0.500000 0.500000
O O2 0.541999 0.250000 0.558268
O O3 0.623470 0.491098 0.557391
O O4 0.504034 0.483708 0.625942
O O5 0.782924 0.250000 0.826020
O O6 0.737881 0.516207 0.868352
O O7 0.777421 0.475488 0.744635
O O8 0.871909 0.476938 0.831924
O O9 0.196097 0.750000 0.561843
O O10 0.254215 0.512401 0.507738
O O11 0.125504 0.493146 0.555971
O O12 0.702784 0.250000 0.555438
O O13 0.747515 0.014853 0.618477
O O14 0.536933 0.250000 0.171788
O O15 0.489866 0.990548 0.124732
O O16 0.621431 0.011186 0.161692
O O17 0.526954 0.010751 0.248506
O O18 0.955824 0.750000 0.444053
O O19 0.000000 0.500000 0.500000
O O20 0.189122 0.750000 0.329655
O O21 0.955829 0.250000 0.809067
#
# Coordination Sequence:
#
# PCOD9464416 Si02
#       8
#     8   8   8   8   8   8   8   8
#     4  10  20  35  56  83 114 150 191 233 281 332
#     4   9  18  33  54  81 111 147 189 232 280 332
#     4  11  22  36  56  83 114 148 187 232 284 339
#     4   9  19  35  56  80 107 142 184 230 277 327
#     4  11  22  37  59  87 116 147 186 232 285 342
#     4  12  25  42  62  84 113 147 186 233 284 342
#     4   9  18  36  59  81 110 150 193 234 280 335
#     4   9  19  36  58  83 114 155 198 236 279 335
#
# _framework density 18.680281999999998
#
# number of rings (size 3 to 8) (size 9 to 14) (size 15 to 20)
#    0.000    2.000    0.000    4.875    0.000    4.500 
#    0.000    4.375    0.000    0.000    0.000    0.000 
#    0.000    0.000    0.000    0.000    0.000    0.000 
#
# Total GULP energy -357558.208213 kJ/mol
# GULP energy per Si atom -5586.847003 kJ/mol
# Density = 1.863776 g / cm^3
# Si number density = 18.680282 Si / 1000 Ang^3
#
#
#
# Elastic Constant Matrix: (Units=GPa)
#
#
# Indices 1 2 3 4 5 6 
#
# 1 115.3938 32.9642 75.2156 0.0000 0.0000 0.0000
# 2 32.9642 54.9110 30.2519 0.0000 0.0000 0.0000
# 3 75.2156 30.2519 99.2066 0.0000 0.0000 0.0000
# 4 0.0000 0.0000 0.0000 28.7994 0.0000 0.0000
# 5 0.0000 0.0000 0.0000 0.0000 40.5570 0.0000
# 6 0.0000 0.0000 0.0000 0.0000 0.0000 27.5995
#
#
#
# Elastic Compliance Matrix: (Units=1/GPa)
#
#
# Indices 1 2 3 4 5 6 
#
# 1 0.017804 -0.003908 -0.012307 0.000000 0.000000 0.000000
# 2 -0.003908 0.022746 -0.003973 0.000000 0.000000 0.000000
# 3 -0.012307 -0.003973 0.020622 0.000000 0.000000 0.000000
# 4 0.000000 0.000000 0.000000 0.034723 0.000000 0.000000
# 5 0.000000 0.000000 0.000000 0.000000 0.024657 0.000000
# 6 0.000000 0.000000 0.000000 0.000000 0.000000 0.036233
#
#
# Mechanical properties :
#
#
# Convention : Reuss Voigt Hill
#
# Bulk Modulus (GPa) = 48.08520 60.70831 54.39675
# Shear Modulus (GPa) = 24.49853 28.12983 26.31418
#
# Velocity S-wave (km/s) = 3.62534 3.88475 3.75728
# Velocity P-wave (km/s) = 6.58188 7.25884 6.92864
#
# Compressibility (1/GPa) = 0.02079642
#
# Stress axis : x y z
#
# Youngs Moduli (GPa) = 56.16634 43.96309 48.49103
#
# Poissons Ratio (x) = 0.17181 0.59678
# Poissons Ratio (y) = 0.21950 0.19267
# Poissons Ratio (z) = 0.69124 0.17468
#
# Static dielectric constant tensor:
#      x y z
#    x 1.621960 0.000000 0.000000 
#    y 0.000000 1.634070 0.000000 
#    z 0.000000 0.000000 1.624490 
# 
# From -- ./inp_files/27715.got.cif
#   From: 2010.05.17/outbox.cif.g08.bks.cpg/sg62_14_cif.got.tgz:27715.got - 2010.06.03 15:25:27.
