data_PCOD9464818
_publ_section_title
;
Structure prediction by ZEFSAII (Michael W. Deem and Ramdas Pophale) SiO2 
 PCOD9464818
Probable space group: P N M A
;
_chemical_formula_sum "Si O2"
_cell_formula_units_Z 56
_cell_length_a 12.580016
_cell_length_b 14.992416
_cell_length_c 13.286301
_cell_angle_alpha 90.000000
_cell_angle_beta 90.000000
_cell_angle_gamma 90.000000
_cell_volume 2505.860583
_symmetry_space_group_name_H-M "P N M A"
_symmetry_group_IT_number 62
_symmetry_cell_setting 'orthorhombic'
loop_
_space_group_symop_operation_xyz
x,y,z
1/2-x,-y,1/2+z
1/2+x,1/2-y,1/2-z
-x,1/2+y,-z
-x,-y,-z
1/2+x,y,1/2-z
1/2-x,1/2+y,1/2+z
x,1/2-y,z
loop_
_atom_site_type_symbol
_atom_site_label
_atom_site_fract_x
_atom_site_fract_y
_atom_site_fract_z
Si Si1 0.166662 0.403104 0.123140
Si Si2 0.108413 0.648291 0.689305
Si Si3 0.588375 0.457541 0.155678
Si Si4 0.786916 0.149412 0.104289
Si Si5 0.320759 0.351705 0.824812
Si Si6 0.363943 0.100049 0.604402
Si Si7 0.911189 0.648635 0.084225
O O1 0.277718 0.353423 0.135154
O O2 0.113041 0.418676 0.231471
O O3 0.187573 0.504027 0.089179
O O4 0.098578 0.358567 0.036060
O O5 0.066575 0.750000 0.691629
O O6 0.138283 0.618440 0.803460
O O7 0.027548 0.581350 0.635559
O O8 0.683101 0.411433 0.094324
O O9 0.603423 0.564196 0.149587
O O10 0.753742 0.250000 0.132137
O O11 0.847153 0.150696 0.999131
O O12 0.350408 0.250000 0.855914
O O13 0.316590 0.354996 0.703354
O O14 0.204141 0.372297 0.869846
O O15 0.490880 0.088979 0.619853
O O16 0.937429 0.750000 0.114223
#
# Coordination Sequence:
#
# PCOD9464818 Si02
#       7
#     8   8   8   8   8   8   8
#     4  10  22  37  60  90 121 154 197 245 293 359
#     4  10  21  39  62  91 126 160 194 241 306 365
#     4  10  21  37  61  90 122 158 198 246 301 352
#     4  10  20  36  61  93 124 153 195 248 297 355
#     4  10  23  40  57  83 120 159 204 251 294 349
#     4  11  22  38  61  88 118 156 201 247 296 350
#     4  11  22  39  62  85 115 156 199 246 299 354
#
# _framework density 22.347612000000002
#
# number of rings (size 3 to 8) (size 9 to 14) (size 15 to 20)
#    0.000    1.714    0.000    4.286    0.000   10.857 
#    0.000    4.286    0.000    6.857    0.000    0.000 
#    0.000    0.000    0.000    0.000    0.000    0.000 
#
# Total GULP energy -312821.990251 kJ/mol
# GULP energy per Si atom -5586.106969 kJ/mol
# Density = 2.229675 g / cm^3
# Si number density = 22.347612 Si / 1000 Ang^3
#
#
#
# Elastic Constant Matrix: (Units=GPa)
#
#
# Indices 1 2 3 4 5 6 
#
# 1 54.3884 22.2013 8.9573 0.0000 0.0000 0.0000
# 2 22.2013 110.4201 -11.7702 0.0000 0.0000 0.0000
# 3 8.9573 -11.7702 35.5658 0.0000 0.0000 0.0000
# 4 0.0000 0.0000 0.0000 7.4851 0.0000 0.0000
# 5 0.0000 0.0000 0.0000 0.0000 21.9329 0.0000
# 6 0.0000 0.0000 0.0000 0.0000 0.0000 26.4457
#
#
#
# Elastic Compliance Matrix: (Units=1/GPa)
#
#
# Indices 1 2 3 4 5 6 
#
# 1 0.021651 -0.005115 -0.007146 0.000000 0.000000 0.000000
# 2 -0.005115 0.010596 0.004795 0.000000 0.000000 0.000000
# 3 -0.007146 0.004795 0.031503 0.000000 0.000000 0.000000
# 4 0.000000 0.000000 0.000000 0.133598 0.000000 0.000000
# 5 0.000000 0.000000 0.000000 0.000000 0.045594 0.000000
# 6 0.000000 0.000000 0.000000 0.000000 0.000000 0.037813
#
#
# Mechanical properties :
#
#
# Convention : Reuss Voigt Hill
#
# Bulk Modulus (GPa) = 20.48390 26.57234 23.52812
# Shear Modulus (GPa) = 16.02773 23.23847 19.63310
#
# Velocity S-wave (km/s) = 2.68097 3.22819 2.96722
# Velocity P-wave (km/s) = 4.33236 5.08047 4.72126
#
# Compressibility (1/GPa) = 0.04881884
#
# Stress axis : x y z
#
# Youngs Moduli (GPa) = 46.18730 94.37679 31.74273
#
# Poissons Ratio (x) = 0.48272 0.22682
# Poissons Ratio (y) = 0.23624 -0.15220
# Poissons Ratio (z) = 0.33003 -0.45252
#
# Static dielectric constant tensor:
#      x y z
#    x 1.796300 0.000000 0.000000 
#    y 0.000000 1.855240 0.000000 
#    z 0.000000 0.000000 1.854910 
# 
# From -- ./inp_files/18105.got.cif
#   From: 2010.05.17/outbox.cif.g08.bks.cpg/sg62_10_cif.got.tgz:18105.got - 2010.06.03 15:25:27.
