data_PCOD9464759
_publ_section_title
;
Structure prediction by ZEFSAII (Michael W. Deem and Ramdas Pophale) SiO2 
 PCOD9464759
Probable space group: P N M A
;
_chemical_formula_sum "Si O2"
_cell_formula_units_Z 48
_cell_length_a 29.715299
_cell_length_b 8.864472
_cell_length_c 10.299687
_cell_angle_alpha 90.000000
_cell_angle_beta 90.000000
_cell_angle_gamma 90.000000
_cell_volume 2713.045043
_symmetry_space_group_name_H-M "P N M A"
_symmetry_group_IT_number 62
_symmetry_cell_setting 'orthorhombic'
loop_
_space_group_symop_operation_xyz
x,y,z
1/2-x,-y,1/2+z
1/2+x,1/2-y,1/2-z
-x,1/2+y,-z
-x,-y,-z
1/2+x,y,1/2-z
1/2-x,1/2+y,1/2+z
x,1/2-y,z
loop_
_atom_site_type_symbol
_atom_site_label
_atom_site_fract_x
_atom_site_fract_y
_atom_site_fract_z
Si Si1 0.526815 0.570331 0.880829
Si Si2 0.718736 0.570150 0.479837
Si Si3 0.471566 0.929304 0.617486
Si Si4 0.288602 0.069699 0.218637
Si Si5 0.114310 0.929994 0.015169
Si Si6 0.385433 0.930158 0.229832
O O1 0.531958 0.750000 0.896104
O O2 0.497903 0.542325 0.750498
O O3 0.575316 0.494563 0.860660
O O4 0.500000 0.500000 0.000000
O O5 0.726287 0.750000 0.466144
O O6 0.751574 0.482605 0.384086
O O7 0.724856 0.530888 0.632330
O O8 0.666184 0.539989 0.448935
O O9 0.467893 0.750000 0.598586
O O10 0.500000 0.000000 0.500000
O O11 0.422316 0.003140 0.612393
O O12 0.295025 0.250000 0.214890
O O13 0.336175 0.989812 0.191008
O O14 0.108612 0.750000 0.002220
O O15 0.106201 0.004872 0.874627
O O16 0.386361 0.750000 0.232234
#
# Coordination Sequence:
#
# PCOD9464759 Si02
#       6
#     8   8   8   8   8   8
#     4  11  24  41  59  84 119 156 195 239 289 346
#     4   9  20  38  58  84 116 150 190 237 286 342
#     4  11  22  36  60  88 116 151 193 239 285 340
#     4  10  21  38  61  87 116 151 190 238 288 342
#     4  10  20  36  59  87 118 150 193 242 286 340
#     4  11  21  36  61  86 114 154 195 236 288 347
#
# _framework density 17.692298000000001
#
# number of rings (size 3 to 8) (size 9 to 14) (size 15 to 20)
#    0.000    1.667    1.667    4.500    0.000    6.000 
#    3.000    0.000    0.000    0.000    0.000    0.000 
#    0.000    0.000    0.000    0.000    0.000    0.000 
#
# Total GULP energy -268159.402717 kJ/mol
# GULP energy per Si atom -5586.654223 kJ/mol
# Density = 1.765203 g / cm^3
# Si number density = 17.692298 Si / 1000 Ang^3
#
#
#
# Elastic Constant Matrix: (Units=GPa)
#
#
# Indices 1 2 3 4 5 6 
#
# 1 132.2229 79.1562 75.2643 0.0000 0.0000 0.0000
# 2 79.1562 107.3583 73.7739 0.0000 0.0000 0.0000
# 3 75.2643 73.7739 87.2211 0.0000 0.0000 0.0000
# 4 0.0000 0.0000 0.0000 30.9548 0.0000 0.0000
# 5 0.0000 0.0000 0.0000 0.0000 32.7582 0.0000
# 6 0.0000 0.0000 0.0000 0.0000 0.0000 38.2203
#
#
#
# Elastic Compliance Matrix: (Units=1/GPa)
#
#
# Indices 1 2 3 4 5 6 
#
# 1 0.016146 -0.005565 -0.009226 0.000000 0.000000 0.000000
# 2 -0.005565 0.024161 -0.015634 0.000000 0.000000 0.000000
# 3 -0.009226 -0.015634 0.032649 0.000000 0.000000 0.000000
# 4 0.000000 0.000000 0.000000 0.032305 0.000000 0.000000
# 5 0.000000 0.000000 0.000000 0.000000 0.030527 0.000000
# 6 0.000000 0.000000 0.000000 0.000000 0.000000 0.026164
#
#
# Mechanical properties :
#
#
# Convention : Reuss Voigt Hill
#
# Bulk Modulus (GPa) = 82.59276 87.02123 84.80700
# Shear Modulus (GPa) = 22.04230 26.96050 24.50140
#
# Velocity S-wave (km/s) = 3.53352 3.90789 3.72541
# Velocity P-wave (km/s) = 7.96441 8.34595 8.15741
#
# Compressibility (1/GPa) = 0.01210760
#
# Stress axis : x y z
#
# Youngs Moduli (GPa) = 61.93540 41.38924 30.62839
#
# Poissons Ratio (x) = 0.23033 0.28256
# Poissons Ratio (y) = 0.34467 0.47884
# Poissons Ratio (z) = 0.57139 0.64707
#
# Static dielectric constant tensor:
#      x y z
#    x 1.601660 0.000000 0.000000 
#    y 0.000000 1.587450 0.000000 
#    z 0.000000 0.000000 1.582680 
# 
# From -- ./inp_files/10228.got.cif
#   From: 2010.05.17/outbox.cif.g08.bks.cpg/sg62_6_cif.got.tgz:10228.got - 2010.06.03 15:25:27.
