data_PCOD9464730
_publ_section_title
;
Structure prediction by ZEFSAII (Michael W. Deem and Ramdas Pophale) SiO2 
 PCOD9464730
Probable space group: P N M A
;
_chemical_formula_sum "Si O2"
_cell_formula_units_Z 48
_cell_length_a 9.327044
_cell_length_b 15.698406
_cell_length_c 18.073346
_cell_angle_alpha 90.000000
_cell_angle_beta 90.000000
_cell_angle_gamma 90.000000
_cell_volume 2646.294324
_symmetry_space_group_name_H-M "P N M A"
_symmetry_group_IT_number 62
_symmetry_cell_setting 'orthorhombic'
loop_
_space_group_symop_operation_xyz
x,y,z
1/2-x,-y,1/2+z
1/2+x,1/2-y,1/2-z
-x,1/2+y,-z
-x,-y,-z
1/2+x,y,1/2-z
1/2-x,1/2+y,1/2+z
x,1/2-y,z
loop_
_atom_site_type_symbol
_atom_site_label
_atom_site_fract_x
_atom_site_fract_y
_atom_site_fract_z
Si Si1 0.412367 0.250000 0.781837
Si Si2 0.281524 0.750000 0.150541
Si Si3 0.842607 0.072190 0.645742
Si Si4 0.782487 0.554556 0.778503
Si Si5 0.657111 0.064998 0.908196
Si Si6 0.565403 0.648370 0.671323
Si Si7 0.144912 0.522485 0.956593
O O1 0.363059 0.250000 0.697514
O O2 0.583210 0.250000 0.792832
O O3 0.350504 0.333733 0.821130
O O4 0.298011 0.662982 0.105779
O O5 0.985353 0.060046 0.596725
O O6 0.845706 0.006858 0.714549
O O7 0.701184 0.051043 0.598732
O O8 0.716389 0.493946 0.841564
O O9 0.665279 0.612974 0.737627
O O10 0.907116 0.612185 0.812848
O O11 0.730784 0.037009 0.983728
O O12 0.568769 0.750000 0.667747
O O13 0.619935 0.604263 0.595721
O O14 0.000000 0.500000 0.000000
#
# Coordination Sequence:
#
# PCOD9464730 Si02
#       7
#     4   4   8   8   8   8   8
#     4  10  20  36  58  96 118 153 194 247 289 351
#     4  10  22  32  62  88 124 149 196 243 293 351
#     4  10  22  39  61  88 121 159 198 241 294 361
#     4  11  20  38  67  85 116 158 200 250 297 350
#     4  11  21  39  59  89 123 159 193 241 306 356
#     4  11  24  41  61  89 118 154 207 253 297 354
#     4  11  24  40  62  86 119 162 197 243 305 357
#
# _framework density 18.138572
#
# number of rings (size 3 to 8) (size 9 to 14) (size 15 to 20)
#    0.000    1.333    5.000    1.000    1.167    1.333 
#    1.500    0.000    0.000    0.000    0.000    0.000 
#    0.000    0.000    0.000    0.000    0.000    0.000 
#
# Total GULP energy -268052.160059 kJ/mol
# GULP energy per Si atom -5584.420001 kJ/mol
# Density = 1.809729 g / cm^3
# Si number density = 18.138572 Si / 1000 Ang^3
#
#
#
# Elastic Constant Matrix: (Units=GPa)
#
#
# Indices 1 2 3 4 5 6 
#
# 1 49.5640 26.4591 16.0351 0.0000 0.0000 0.0000
# 2 26.4591 109.9790 22.5646 0.0000 0.0000 0.0000
# 3 16.0351 22.5646 72.5089 0.0000 0.0000 0.0000
# 4 0.0000 0.0000 0.0000 15.1953 0.0000 0.0000
# 5 0.0000 0.0000 0.0000 0.0000 39.1302 0.0000
# 6 0.0000 0.0000 0.0000 0.0000 0.0000 13.9626
#
#
#
# Elastic Compliance Matrix: (Units=1/GPa)
#
#
# Indices 1 2 3 4 5 6 
#
# 1 0.024073 -0.005020 -0.003761 0.000000 0.000000 0.000000
# 2 -0.005020 0.010760 -0.002238 0.000000 0.000000 0.000000
# 3 -0.003761 -0.002238 0.015320 0.000000 0.000000 0.000000
# 4 0.000000 0.000000 0.000000 0.065810 0.000000 0.000000
# 5 0.000000 0.000000 0.000000 0.000000 0.025556 0.000000
# 6 0.000000 0.000000 0.000000 0.000000 0.000000 0.071620
#
#
# Mechanical properties :
#
#
# Convention : Reuss Voigt Hill
#
# Bulk Modulus (GPa) = 35.57064 40.24105 37.90585
# Shear Modulus (GPa) = 20.44596 24.79051 22.61823
#
# Velocity S-wave (km/s) = 3.36104 3.70094 3.53508
# Velocity P-wave (km/s) = 5.89196 6.36366 6.13234
#
# Compressibility (1/GPa) = 0.02811307
#
# Stress axis : x y z
#
# Youngs Moduli (GPa) = 41.54102 92.94086 65.27514
#
# Poissons Ratio (x) = 0.46654 0.24553
# Poissons Ratio (y) = 0.20852 0.14610
# Poissons Ratio (z) = 0.15625 0.20802
#
# Static dielectric constant tensor:
#      x y z
#    x 1.622150 0.000000 0.000000 
#    y 0.000000 1.584770 0.000000 
#    z 0.000000 0.000000 1.597130 
# 
# From -- ./inp_files/17004.got.cif
#   From: 2010.05.17/outbox.cif.g08.bks.cpg/sg62_9_cif.got.tgz:17004.got - 2010.06.03 15:25:27.
