data_PCOD9464163
_publ_section_title
;
Structure prediction by ZEFSAII (Michael W. Deem and Ramdas Pophale) SiO2 
 PCOD9464163
Probable space group: P N M A
;
_chemical_formula_sum "Si O2"
_cell_formula_units_Z 48
_cell_length_a 30.606676
_cell_length_b 12.900396
_cell_length_c 6.168039
_cell_angle_alpha 90.000000
_cell_angle_beta 90.000000
_cell_angle_gamma 90.000000
_cell_volume 2435.377667
_symmetry_space_group_name_H-M "P N M A"
_symmetry_group_IT_number 62
_symmetry_cell_setting 'orthorhombic'
loop_
_space_group_symop_operation_xyz
x,y,z
1/2-x,-y,1/2+z
1/2+x,1/2-y,1/2-z
-x,1/2+y,-z
-x,-y,-z
1/2+x,y,1/2-z
1/2-x,1/2+y,1/2+z
x,1/2-y,z
loop_
_atom_site_type_symbol
_atom_site_label
_atom_site_fract_x
_atom_site_fract_y
_atom_site_fract_z
Si Si1 0.240136 0.866286 0.405618
Si Si2 0.161433 0.633420 0.728966
Si Si3 0.033499 0.031702 0.687790
Si Si4 0.457954 0.128464 0.566066
Si Si5 0.106303 0.506517 0.393953
Si Si6 0.816090 0.517357 0.893340
O O1 0.238156 0.750000 0.313561
O O2 0.209200 0.867996 0.617710
O O3 0.219112 0.948569 0.240651
O O4 0.288481 0.897023 0.479804
O O5 0.150673 0.750000 0.794555
O O6 0.129577 0.592909 0.542203
O O7 0.161749 0.557793 0.931453
O O8 0.077140 0.061652 0.557958
O O9 0.043288 0.931927 0.838101
O O10 0.000000 0.000000 0.500000
O O11 0.007005 0.111794 0.837371
O O12 0.447973 0.250000 0.552018
O O13 0.425096 0.066490 0.725211
O O14 0.145284 0.448839 0.267775
#
# Coordination Sequence:
#
# PCOD9464163 Si02
#       6
#     8   8   8   8   8   8
#     4  10  21  36  55  80 108 149 199 238 289 347
#     4  10  20  34  55  82 113 146 188 241 291 338
#     4   9  20  37  55  84 115 148 182 229 286 345
#     4  10  20  37  61  85 114 150 189 233 287 347
#     4  10  21  34  56  85 119 147 188 235 291 342
#     4  11  20  36  56  81 114 154 190 242 289 339
#
# _framework density 19.709468000000001
#
# number of rings (size 3 to 8) (size 9 to 14) (size 15 to 20)
#    0.000    2.000    1.667    2.000    0.000    6.667 
#    0.000    0.833    0.000   11.000    0.000    0.000 
#    0.000    0.000    0.000    0.000    0.000    0.000 
#
# Total GULP energy -267799.087057 kJ/mol
# GULP energy per Si atom -5579.147647 kJ/mol
# Density = 1.966461 g / cm^3
# Si number density = 19.709468 Si / 1000 Ang^3
#
#
#
# Elastic Constant Matrix: (Units=GPa)
#
#
# Indices 1 2 3 4 5 6 
#
# 1 93.9250 9.2006 30.5693 0.0000 0.0000 0.0000
# 2 9.2006 14.9826 2.9441 0.0000 0.0000 0.0000
# 3 30.5693 2.9441 85.2344 0.0000 0.0000 0.0000
# 4 0.0000 0.0000 0.0000 8.1961 0.0000 0.0000
# 5 0.0000 0.0000 0.0000 0.0000 29.3664 0.0000
# 6 0.0000 0.0000 0.0000 0.0000 0.0000 9.9742
#
#
#
# Elastic Compliance Matrix: (Units=1/GPa)
#
#
# Indices 1 2 3 4 5 6 
#
# 1 0.012738 -0.006972 -0.004328 0.000000 0.000000 0.000000
# 2 -0.006972 0.071016 0.000048 0.000000 0.000000 0.000000
# 3 -0.004328 0.000048 0.013283 0.000000 0.000000 0.000000
# 4 0.000000 0.000000 0.000000 0.122010 0.000000 0.000000
# 5 0.000000 0.000000 0.000000 0.000000 0.034053 0.000000
# 6 0.000000 0.000000 0.000000 0.000000 0.000000 0.100259
#
#
# Mechanical properties :
#
#
# Convention : Reuss Voigt Hill
#
# Bulk Modulus (GPa) = 13.41687 31.06332 22.24009
# Shear Modulus (GPa) = 12.47794 19.60252 16.04023
#
# Velocity S-wave (km/s) = 2.51887 3.15711 2.85587
# Velocity P-wave (km/s) = 3.90918 5.39301 4.70990
#
# Compressibility (1/GPa) = 0.07453304
#
# Stress axis : x y z
#
# Youngs Moduli (GPa) = 78.50346 14.08127 75.28495
#
# Poissons Ratio (x) = 0.09817 0.32582
# Poissons Ratio (y) = 0.54733 -0.00358
# Poissons Ratio (z) = 0.33975 -0.00067
#
# Static dielectric constant tensor:
#      x y z
#    x 1.751270 0.000000 0.000000 
#    y 0.000000 1.658990 0.000000 
#    z 0.000000 0.000000 1.692790 
# 
# From -- ./inp_files/3558.got.cif
#   From: 2010.05.17/outbox.cif.g08.bks.cpg/sg62_2_cif.got.tgz:3558.got - 2010.06.03 15:25:27.
