data_PCOD9464775
_publ_section_title
;
Structure prediction by ZEFSAII (Michael W. Deem and Ramdas Pophale) SiO2 
 PCOD9464775
Probable space group: P N M A
;
_chemical_formula_sum "Si O2"
_cell_formula_units_Z 64
_cell_length_a 12.511774
_cell_length_b 9.021643
_cell_length_c 29.194527
_cell_angle_alpha 90.000000
_cell_angle_beta 90.000000
_cell_angle_gamma 90.000000
_cell_volume 3295.383569
_symmetry_space_group_name_H-M "P N M A"
_symmetry_group_IT_number 62
_symmetry_cell_setting 'orthorhombic'
loop_
_space_group_symop_operation_xyz
x,y,z
1/2-x,-y,1/2+z
1/2+x,1/2-y,1/2-z
-x,1/2+y,-z
-x,-y,-z
1/2+x,y,1/2-z
1/2-x,1/2+y,1/2+z
x,1/2-y,z
loop_
_atom_site_type_symbol
_atom_site_label
_atom_site_fract_x
_atom_site_fract_y
_atom_site_fract_z
Si Si1 0.037212 0.921556 0.429232
Si Si2 0.358325 0.425330 0.306820
Si Si3 0.350701 0.574417 0.556406
Si Si4 0.733940 0.427352 0.028686
Si Si5 0.575456 0.570038 0.595303
Si Si6 0.417567 0.923499 0.211944
Si Si7 0.345415 0.076140 0.119098
Si Si8 0.146469 0.582816 0.329144
O O1 0.019530 0.750000 0.441686
O O2 0.099280 0.926209 0.380328
O O3 0.117701 0.000771 0.464102
O O4 0.926050 0.001576 0.417573
O O5 0.373263 0.250000 0.301439
O O6 0.423406 0.477553 0.351799
O O7 0.387129 0.505680 0.260002
O O8 0.236208 0.463374 0.319291
O O9 0.353964 0.750000 0.544208
O O10 0.293713 0.484627 0.516316
O O11 0.470168 0.521663 0.567972
O O12 0.274656 0.560646 0.600674
O O13 0.723965 0.250000 0.028594
O O14 0.815010 0.472465 0.069882
O O15 0.573019 0.750000 0.595488
O O16 0.390335 0.750000 0.210865
O O17 0.544562 0.936858 0.203510
O O18 0.362963 0.002121 0.168373
O O19 0.371810 0.250000 0.122021
O O20 0.190277 0.750000 0.322857
#
# Coordination Sequence:
#
# PCOD9464775 Si02
#       8
#     8   8   8   8   8   8   8   8
#     4  10  20  36  60  85 114 151 192 242 295 345
#     4  11  21  35  59  88 116 150 193 242 293 348
#     4  10  22  40  59  83 120 158 193 237 294 354
#     4  11  21  36  60  89 117 151 198 245 292 349
#     4   9  20  38  58  84 118 152 193 244 291 344
#     4  10  22  39  58  84 118 153 194 240 293 354
#     4  10  21  38  60  85 115 155 198 243 297 352
#     4   9  19  36  56  79 110 148 187 237 291 341
#
# _framework density 19.421109000000001
#
# number of rings (size 3 to 8) (size 9 to 14) (size 15 to 20)
#    0.000    2.000    1.250    3.000    0.000    5.000 
#    0.000    3.125    0.000    0.000    0.000    0.000 
#    0.000    0.000    0.000    0.000    0.000    0.000 
#
# Total GULP energy -357424.746776 kJ/mol
# GULP energy per Si atom -5584.761668 kJ/mol
# Density = 1.937691 g / cm^3
# Si number density = 19.421109 Si / 1000 Ang^3
#
#
#
# Elastic Constant Matrix: (Units=GPa)
#
#
# Indices 1 2 3 4 5 6 
#
# 1 38.2157 13.6507 -0.9341 0.0000 0.0000 0.0000
# 2 13.6507 67.0738 20.1961 0.0000 0.0000 0.0000
# 3 -0.9341 20.1961 68.2561 0.0000 0.0000 0.0000
# 4 0.0000 0.0000 0.0000 28.9945 0.0000 0.0000
# 5 0.0000 0.0000 0.0000 0.0000 23.6706 0.0000
# 6 0.0000 0.0000 0.0000 0.0000 0.0000 24.0452
#
#
#
# Elastic Compliance Matrix: (Units=1/GPa)
#
#
# Indices 1 2 3 4 5 6 
#
# 1 0.028548 -0.006507 0.002316 0.000000 0.000000 0.000000
# 2 -0.006507 0.017851 -0.005371 0.000000 0.000000 0.000000
# 3 0.002316 -0.005371 0.016272 0.000000 0.000000 0.000000
# 4 0.000000 0.000000 0.000000 0.034489 0.000000 0.000000
# 5 0.000000 0.000000 0.000000 0.000000 0.042247 0.000000
# 6 0.000000 0.000000 0.000000 0.000000 0.000000 0.041588
#
#
# Mechanical properties :
#
#
# Convention : Reuss Voigt Hill
#
# Bulk Modulus (GPa) = 22.96413 26.59677 24.78045
# Shear Modulus (GPa) = 23.29545 24.71758 24.00651
#
# Velocity S-wave (km/s) = 3.46712 3.57139 3.51964
# Velocity P-wave (km/s) = 5.27995 5.54355 5.41336
#
# Compressibility (1/GPa) = 0.04354618
#
# Stress axis : x y z
#
# Youngs Moduli (GPa) = 35.02830 56.02081 61.45697
#
# Poissons Ratio (x) = 0.36456 -0.14234
# Poissons Ratio (y) = 0.22795 0.33007
# Poissons Ratio (z) = -0.08113 0.30088
#
# Static dielectric constant tensor:
#      x y z
#    x 1.665900 0.000000 0.000000 
#    y 0.000000 1.660120 0.000000 
#    z 0.000000 0.000000 1.678790 
# 
# From -- ./inp_files/32439.got.cif
#   From: 2010.05.17/outbox.cif.g08.bks.cpg/sg62_17_cif.got.tgz:32439.got - 2010.06.03 15:25:27.
