data_PCOD9464634
_publ_section_title
;
Structure prediction by ZEFSAII (Michael W. Deem and Ramdas Pophale) SiO2 
 PCOD9464634
Probable space group: P N M A
;
_chemical_formula_sum "Si O2"
_cell_formula_units_Z 48
_cell_length_a 23.717084
_cell_length_b 16.042526
_cell_length_c 5.204100
_cell_angle_alpha 90.000000
_cell_angle_beta 90.000000
_cell_angle_gamma 90.000000
_cell_volume 1980.066047
_symmetry_space_group_name_H-M "P N M A"
_symmetry_group_IT_number 62
_symmetry_cell_setting 'orthorhombic'
loop_
_space_group_symop_operation_xyz
x,y,z
1/2-x,-y,1/2+z
1/2+x,1/2-y,1/2-z
-x,1/2+y,-z
-x,-y,-z
1/2+x,y,1/2-z
1/2-x,1/2+y,1/2+z
x,1/2-y,z
loop_
_atom_site_type_symbol
_atom_site_label
_atom_site_fract_x
_atom_site_fract_y
_atom_site_fract_z
Si Si1 0.880517 0.574077 0.028274
Si Si2 0.773865 0.910780 0.360191
Si Si3 0.459171 0.061047 0.343594
Si Si4 0.104238 0.250000 0.903170
Si Si5 0.322882 0.750000 0.901496
Si Si6 0.837380 0.449562 0.626966
Si Si7 0.057871 0.653171 0.364976
O O1 0.919681 0.656892 0.044058
O O2 0.872773 0.524912 0.761770
O O3 0.818662 0.600277 0.127137
O O4 0.906629 0.501782 0.206321
O O5 0.789212 0.834300 0.545307
O O6 0.707394 0.909564 0.323796
O O7 0.792835 0.002554 0.449005
O O8 0.445228 0.128587 0.564603
O O9 0.500000 0.000000 0.500000
O O10 0.478528 0.100775 0.074594
O O11 0.152192 0.250000 0.120715
O O12 0.126005 0.250000 0.610943
O O13 0.879323 0.375971 0.550104
O O14 0.046575 0.750000 0.396816
#
# Coordination Sequence:
#
# PCOD9464634 Si02
#       7
#     8   8   8   4   4   8   8
#     4  10  21  38  59  89 126 169 212 272 332 391
#     4  11  20  36  57  89 123 176 218 267 320 397
#     4  11  24  46  75  98 133 178 227 283 350 411
#     4  10  20  36  56  84 118 158 204 268 322 378
#     4  10  22  34  56  82 122 158 214 264 314 370
#     4  11  21  35  63  88 132 178 223 264 332 400
#     4  11  25  46  70 103 140 177 225 285 341 411
#
# _framework density 24.241613999999998
#
# number of rings (size 3 to 8) (size 9 to 14) (size 15 to 20)
#    0.000    1.333    5.000    1.000    1.167    0.000 
#    3.000    0.000    1.833    0.000    0.000    0.000 
#    0.000    0.000    0.000    0.000    0.000    0.000 
#
# Total GULP energy -267669.328103 kJ/mol
# GULP energy per Si atom -5576.444335 kJ/mol
# Density = 2.418644 g / cm^3
# Si number density = 24.241614 Si / 1000 Ang^3
#
#
#
# Elastic Constant Matrix: (Units=GPa)
#
#
# Indices 1 2 3 4 5 6 
#
# 1 32.2984 -2.9883 -16.2779 0.0000 0.0000 0.0000
# 2 -2.9883 131.6744 27.3038 0.0000 0.0000 0.0000
# 3 -16.2779 27.3038 80.6383 0.0000 0.0000 0.0000
# 4 0.0000 0.0000 0.0000 38.3098 0.0000 0.0000
# 5 0.0000 0.0000 0.0000 0.0000 20.2843 0.0000
# 6 0.0000 0.0000 0.0000 0.0000 0.0000 24.1100
#
#
#
# Elastic Compliance Matrix: (Units=1/GPa)
#
#
# Indices 1 2 3 4 5 6 
#
# 1 0.034530 -0.000712 0.007211 0.000000 0.000000 0.000000
# 2 -0.000712 0.008183 -0.002914 0.000000 0.000000 0.000000
# 3 0.007211 -0.002914 0.014844 0.000000 0.000000 0.000000
# 4 0.000000 0.000000 0.000000 0.026103 0.000000 0.000000
# 5 0.000000 0.000000 0.000000 0.000000 0.049299 0.000000
# 6 0.000000 0.000000 0.000000 0.000000 0.000000 0.041477
#
#
# Mechanical properties :
#
#
# Convention : Reuss Voigt Hill
#
# Bulk Modulus (GPa) = 15.44959 28.96514 22.20736
# Shear Modulus (GPa) = 26.47751 32.31240 29.39495
#
# Velocity S-wave (km/s) = 3.30848 3.65489 3.48599
# Velocity P-wave (km/s) = 4.58058 5.45760 5.03821
#
# Compressibility (1/GPa) = 0.06472663
#
# Stress axis : x y z
#
# Youngs Moduli (GPa) = 28.96049 122.20997 67.36947
#
# Poissons Ratio (x) = 0.08697 -0.48582
# Poissons Ratio (y) = 0.02061 0.19633
# Poissons Ratio (z) = -0.20884 0.35615
#
# Static dielectric constant tensor:
#      x y z
#    x 2.060670 0.000000 0.000000 
#    y 0.000000 1.981990 0.000000 
#    z 0.000000 0.000000 2.034810 
# 
# From -- ./inp_files/3213.got.cif
#   From: 2010.05.17/outbox.cif.g08.bks.cpg/sg62_2_cif.got.tgz:3213.got - 2010.06.03 15:25:27.
