data_PCOD9464888
_publ_section_title
;
Structure prediction by ZEFSAII (Michael W. Deem and Ramdas Pophale) SiO2 
 PCOD9464888
Probable space group: P N M A
;
_chemical_formula_sum "Si O2"
_cell_formula_units_Z 64
_cell_length_a 31.832151
_cell_length_b 7.539785
_cell_length_c 12.116131
_cell_angle_alpha 90.000000
_cell_angle_beta 90.000000
_cell_angle_gamma 90.000000
_cell_volume 2907.963215
_symmetry_space_group_name_H-M "P N M A"
_symmetry_group_IT_number 62
_symmetry_cell_setting 'orthorhombic'
loop_
_space_group_symop_operation_xyz
x,y,z
1/2-x,-y,1/2+z
1/2+x,1/2-y,1/2-z
-x,1/2+y,-z
-x,-y,-z
1/2+x,y,1/2-z
1/2-x,1/2+y,1/2+z
x,1/2-y,z
loop_
_atom_site_type_symbol
_atom_site_label
_atom_site_fract_x
_atom_site_fract_y
_atom_site_fract_z
Si Si1 0.458743 0.952708 0.277493
Si Si2 0.953763 0.468240 0.704988
Si Si3 0.708084 0.962482 0.199868
Si Si4 0.564908 0.547042 0.965154
Si Si5 0.802331 0.533002 0.240059
Si Si6 0.871117 0.036850 0.834317
Si Si7 0.120660 0.461952 0.908386
Si Si8 0.339279 0.960835 0.024917
O O1 0.463867 0.750000 0.315900
O O2 0.505514 0.030156 0.272391
O O3 0.421665 0.034325 0.350758
O O4 0.443751 0.951698 0.149954
O O5 0.954083 0.250000 0.702735
O O6 0.955845 0.524942 0.577096
O O7 0.910484 0.526249 0.761282
O O8 0.710154 0.750000 0.213679
O O9 0.755246 0.030246 0.216045
O O10 0.673099 0.030232 0.286012
O O11 0.689973 0.999615 0.078896
O O12 0.551544 0.750000 0.949470
O O13 0.614827 0.543844 0.987833
O O14 0.801521 0.750000 0.237251
O O15 0.837326 0.472308 0.152543
O O16 0.817860 0.480310 0.361415
O O17 0.870715 0.250000 0.823593
O O18 0.877540 0.994288 0.961976
O O19 0.120046 0.250000 0.889417
O O20 0.345905 0.750000 0.031893
#
# Coordination Sequence:
#
# PCOD9464888 Si02
#       8
#     8   8   8   8   8   8   8   8
#     4  10  20  37  59  81 111 149 186 231 283 332
#     4   9  19  36  57  81 111 147 184 228 284 334
#     4  10  21  39  60  82 113 149 183 231 285 327
#     4  11  20  35  58  86 118 147 183 229 280 336
#     4   9  20  38  58  81 113 148 181 225 281 332
#     4  10  21  38  57  79 111 149 187 229 280 334
#     4  10  21  38  56  79 111 147 185 228 279 331
#     4  11  21  37  61  87 115 149 189 229 277 337
#
# _framework density 22.008531999999999
#
# number of rings (size 3 to 8) (size 9 to 14) (size 15 to 20)
#    0.000    2.000    2.500    1.125    1.750    1.500 
#    0.000    2.500    0.000    0.000    0.000    0.000 
#    0.000    0.000    0.000    0.000    0.000    0.000 
#
# Total GULP energy -357695.297610 kJ/mol
# GULP energy per Si atom -5588.989025 kJ/mol
# Density = 2.195844 g / cm^3
# Si number density = 22.008532 Si / 1000 Ang^3
#
#
#
# Elastic Constant Matrix: (Units=GPa)
#
#
# Indices 1 2 3 4 5 6 
#
# 1 103.5459 6.3318 12.0478 0.0000 0.0000 0.0000
# 2 6.3318 56.1359 -13.8080 0.0000 0.0000 0.0000
# 3 12.0478 -13.8080 82.8932 0.0000 0.0000 0.0000
# 4 0.0000 0.0000 0.0000 25.4765 0.0000 0.0000
# 5 0.0000 0.0000 0.0000 0.0000 11.9984 0.0000
# 6 0.0000 0.0000 0.0000 0.0000 0.0000 -0.8179
#
#
#
# Elastic Compliance Matrix: (Units=1/GPa)
#
#
# Indices 1 2 3 4 5 6 
#
# 1 0.009950 -0.001541 -0.001703 0.000000 0.000000 0.000000
# 2 -0.001541 0.018814 0.003358 0.000000 0.000000 0.000000
# 3 -0.001703 0.003358 0.012871 0.000000 0.000000 0.000000
# 4 0.000000 0.000000 0.000000 0.039252 0.000000 0.000000
# 5 0.000000 0.000000 0.000000 0.000000 0.083345 0.000000
# 6 0.000000 0.000000 0.000000 0.000000 0.000000 -1.222671
#
#
# Mechanical properties :
#
#
# Convention : Reuss Voigt Hill
#
# Bulk Modulus (GPa) = 23.88804 27.96870 25.92837
# Shear Modulus (GPa) = -4.78600 23.19830 9.20615
#
# Velocity S-wave (km/s) = -1.47626 3.25015 2.04746
# Velocity P-wave (km/s) = 2.82343 5.17884 4.17086
#
# Compressibility (1/GPa) = 0.04186195
#
# Stress axis : x y z
#
# Youngs Moduli (GPa) = 100.50329 53.15278 77.69676
#
# Poissons Ratio (x) = 0.08192 0.13231
# Poissons Ratio (y) = 0.15489 -0.26090
# Poissons Ratio (z) = 0.17114 -0.17848
#
# Static dielectric constant tensor:
#      x y z
#    x 1.815350 0.000000 0.000000 
#    y 0.000000 1.817700 0.000000 
#    z 0.000000 0.000000 1.744640 
# 
# From -- ./inp_files/15830.got.cif
#   From: 2010.05.17/outbox.cif.g08.bks.cpg/sg62_8_cif.got.tgz:15830.got - 2010.06.03 15:25:27.
