data_PCOD9464280
_publ_section_title
;
Structure prediction by ZEFSAII (Michael W. Deem and Ramdas Pophale) SiO2 
 PCOD9464280
Probable space group: P N M A
;
_chemical_formula_sum "Si O2"
_cell_formula_units_Z 56
_cell_length_a 16.763720
_cell_length_b 30.463642
_cell_length_c 5.094017
_cell_angle_alpha 90.000000
_cell_angle_beta 90.000000
_cell_angle_gamma 90.000000
_cell_volume 2601.432798
_symmetry_space_group_name_H-M "P N M A"
_symmetry_group_IT_number 62
_symmetry_cell_setting 'orthorhombic'
loop_
_space_group_symop_operation_xyz
x,y,z
1/2-x,-y,1/2+z
1/2+x,1/2-y,1/2-z
-x,1/2+y,-z
-x,-y,-z
1/2+x,y,1/2-z
1/2-x,1/2+y,1/2+z
x,1/2-y,z
loop_
_atom_site_type_symbol
_atom_site_label
_atom_site_fract_x
_atom_site_fract_y
_atom_site_fract_z
Si Si1 0.003460 0.899258 0.964985
Si Si2 0.799131 0.502836 0.397533
Si Si3 0.756994 0.750000 0.972483
Si Si4 0.742532 0.651352 0.974442
Si Si5 0.856335 0.909134 0.661347
Si Si6 0.392925 0.084634 0.956379
Si Si7 0.589606 0.161307 0.773037
Si Si8 0.365372 0.750000 0.022059
O O1 0.059785 0.900153 0.714269
O O2 0.917322 0.920846 0.896700
O O3 0.050350 0.920818 0.206036
O O4 0.977414 0.850828 0.063647
O O5 0.777221 0.503404 0.091140
O O6 0.833852 0.548747 0.495224
O O7 0.853272 0.461479 0.468555
O O8 0.832006 0.750000 0.771523
O O9 0.717055 0.702035 0.916751
O O10 0.790355 0.750000 0.271904
O O11 0.673666 0.621959 0.102544
O O12 0.822719 0.658262 0.143836
O O13 0.778832 0.619273 0.747531
O O14 0.908684 0.876357 0.488365
O O15 0.584015 0.207399 0.912660
#
# Coordination Sequence:
#
# PCOD9464280 Si02
#       8
#     8   8   4   8   8   8   8   4
#     4  11  26  43  63  93 133 174 211 263 328 393
#     4  12  26  42  67 101 126 169 224 273 324 387
#     4  10  20  36  62 103 121 158 217 272 330 373
#     4  10  22  39  69  94 129 168 216 279 323 385
#     4  11  22  43  69  93 130 171 217 270 322 386
#     4  12  25  44  63  95 135 172 216 268 331 391
#     4  10  21  43  66  98 127 169 219 271 325 385
#     4  10  20  34  68  95 125 158 219 270 314 381
#
# _framework density 21.526599000000001
#
# number of rings (size 3 to 8) (size 9 to 14) (size 15 to 20)
#    0.000    1.143    4.286    1.714    4.000    1.143 
#    0.000    1.429    0.000    0.000    0.000    0.000 
#    0.000    0.000    0.000    0.000    0.000    0.000 
#
# Total GULP energy -312588.007908 kJ/mol
# GULP energy per Si atom -5581.928713 kJ/mol
# Density = 2.147760 g / cm^3
# Si number density = 21.526599 Si / 1000 Ang^3
#
#
#
# Elastic Constant Matrix: (Units=GPa)
#
#
# Indices 1 2 3 4 5 6 
#
# 1 36.2751 32.6091 11.1266 0.0000 0.0000 0.0000
# 2 32.6091 140.5276 -0.3263 0.0000 0.0000 0.0000
# 3 11.1266 -0.3263 68.9247 0.0000 0.0000 0.0000
# 4 0.0000 0.0000 0.0000 40.0523 0.0000 0.0000
# 5 0.0000 0.0000 0.0000 0.0000 37.3882 0.0000
# 6 0.0000 0.0000 0.0000 0.0000 0.0000 12.0992
#
#
#
# Elastic Compliance Matrix: (Units=1/GPa)
#
#
# Indices 1 2 3 4 5 6 
#
# 1 0.037192 -0.008644 -0.006045 0.000000 0.000000 0.000000
# 2 -0.008644 0.009125 0.001439 0.000000 0.000000 0.000000
# 3 -0.006045 0.001439 0.015491 0.000000 0.000000 0.000000
# 4 0.000000 0.000000 0.000000 0.024967 0.000000 0.000000
# 5 0.000000 0.000000 0.000000 0.000000 0.026746 0.000000
# 6 0.000000 0.000000 0.000000 0.000000 0.000000 0.082650
#
#
# Mechanical properties :
#
#
# Convention : Reuss Voigt Hill
#
# Bulk Modulus (GPa) = 28.32269 36.94959 32.63614
# Shear Modulus (GPa) = 21.32717 31.39581 26.36149
#
# Velocity S-wave (km/s) = 3.15101 3.82313 3.50323
# Velocity P-wave (km/s) = 5.14044 6.05725 5.61758
#
# Compressibility (1/GPa) = 0.03530738
#
# Stress axis : x y z
#
# Youngs Moduli (GPa) = 26.88749 109.58573 64.55265
#
# Poissons Ratio (x) = 0.94730 0.39021
# Poissons Ratio (y) = 0.23242 -0.09287
# Poissons Ratio (z) = 0.16253 -0.15766
#
# Static dielectric constant tensor:
#      x y z
#    x 1.799220 0.000000 0.000000 
#    y 0.000000 1.808300 0.000000 
#    z 0.000000 0.000000 1.839370 
# 
# From -- ./inp_files/1311.got.cif
#   From: 2010.05.17/outbox.cif.g08.bks.cpg/sg62_1_cif.got.tgz:1311.got - 2010.06.03 15:25:27.
