data_PCOD9464435
_publ_section_title
;
Structure prediction by ZEFSAII (Michael W. Deem and Ramdas Pophale) SiO2 
 PCOD9464435
Probable space group: P N M A
;
_chemical_formula_sum "Si O2"
_cell_formula_units_Z 64
_cell_length_a 24.326657
_cell_length_b 8.658907
_cell_length_c 15.440671
_cell_angle_alpha 90.000000
_cell_angle_beta 90.000000
_cell_angle_gamma 90.000000
_cell_volume 3252.457844
_symmetry_space_group_name_H-M "P N M A"
_symmetry_group_IT_number 62
_symmetry_cell_setting 'orthorhombic'
loop_
_space_group_symop_operation_xyz
x,y,z
1/2-x,-y,1/2+z
1/2+x,1/2-y,1/2-z
-x,1/2+y,-z
-x,-y,-z
1/2+x,y,1/2-z
1/2-x,1/2+y,1/2+z
x,1/2-y,z
loop_
_atom_site_type_symbol
_atom_site_label
_atom_site_fract_x
_atom_site_fract_y
_atom_site_fract_z
Si Si1 0.362330 0.569255 0.193606
Si Si2 0.467556 0.936016 0.918429
Si Si3 0.527816 0.563649 0.744587
Si Si4 0.750930 0.931621 0.075788
Si Si5 0.643932 0.067944 0.004943
Si Si6 0.243740 0.433877 0.232314
Si Si7 0.333460 0.561156 0.571847
Si Si8 0.460896 0.563524 0.574690
O O1 0.353844 0.750000 0.211339
O O2 0.411177 0.505043 0.252493
O O3 0.378390 0.551486 0.092619
O O4 0.304965 0.482794 0.204895
O O5 0.469473 0.750000 0.921293
O O6 0.495901 0.988148 0.830647
O O7 0.403811 0.978580 0.928900
O O8 0.500000 0.000000 0.000000
O O9 0.532318 0.750000 0.746014
O O10 0.490871 0.518558 0.663538
O O11 0.758672 0.750000 0.089316
O O12 0.739102 0.005588 0.169320
O O13 0.801883 0.988617 0.016264
O O14 0.697488 0.966818 0.018299
O O15 0.657552 0.250000 0.017120
O O16 0.238783 0.250000 0.234826
O O17 0.200335 0.489085 0.158366
O O18 0.332269 0.750000 0.572412
O O19 0.397187 0.512077 0.571763
O O20 0.500000 0.500000 0.500000
O O21 0.460023 0.750000 0.569971
#
# Coordination Sequence:
#
# PCOD9464435 Si02
#       8
#     8   8   8   8   8   8   8   8
#     4  11  22  38  61  89 125 159 200 254 306 366
#     4  10  20  35  56  85 121 160 199 241 297 362
#     4  10  22  38  61  88 119 159 207 253 301 368
#     4  11  23  40  62  92 122 159 204 251 309 371
#     4  10  21  37  58  87 122 161 200 246 302 365
#     4  11  23  41  65  92 122 162 204 249 309 372
#     4   9  21  42  66  88 122 162 201 250 310 369
#     4  10  23  44  65  88 116 159 211 259 307 360
#
# _framework density 19.677427000000002
#
# number of rings (size 3 to 8) (size 9 to 14) (size 15 to 20)
#    0.000    1.750    2.500    1.125    3.500    1.500 
#    0.000    1.875    0.000    0.000    0.000    0.000 
#    0.000    0.000    0.000    0.000    0.000    0.000 
#
# Total GULP energy -357267.619876 kJ/mol
# GULP energy per Si atom -5582.306561 kJ/mol
# Density = 1.963264 g / cm^3
# Si number density = 19.677427 Si / 1000 Ang^3
#
#
#
# Elastic Constant Matrix: (Units=GPa)
#
#
# Indices 1 2 3 4 5 6 
#
# 1 152.0506 19.3098 62.4733 0.0000 0.0000 0.0000
# 2 19.3098 16.2562 25.6899 0.0000 0.0000 0.0000
# 3 62.4733 25.6899 118.9306 0.0000 0.0000 0.0000
# 4 0.0000 0.0000 0.0000 30.3452 0.0000 0.0000
# 5 0.0000 0.0000 0.0000 0.0000 30.7084 0.0000
# 6 0.0000 0.0000 0.0000 0.0000 0.0000 22.6728
#
#
#
# Elastic Compliance Matrix: (Units=1/GPa)
#
#
# Indices 1 2 3 4 5 6 
#
# 1 0.008615 -0.004679 -0.003515 0.000000 0.000000 0.000000
# 2 -0.004679 0.095938 -0.018266 0.000000 0.000000 0.000000
# 3 -0.003515 -0.018266 0.014200 0.000000 0.000000 0.000000
# 4 0.000000 0.000000 0.000000 0.032954 0.000000 0.000000
# 5 0.000000 0.000000 0.000000 0.000000 0.032564 0.000000
# 6 0.000000 0.000000 0.000000 0.000000 0.000000 0.044106
#
#
# Mechanical properties :
#
#
# Convention : Reuss Voigt Hill
#
# Bulk Modulus (GPa) = 15.18954 55.79815 35.49385
# Shear Modulus (GPa) = 16.48854 28.72957 22.60906
#
# Velocity S-wave (km/s) = 2.89786 3.82518 3.39334
# Velocity P-wave (km/s) = 4.35119 6.92295 5.78187
#
# Compressibility (1/GPa) = 0.06583477
#
# Stress axis : x y z
#
# Youngs Moduli (GPa) = 116.07560 10.42338 70.42240
#
# Poissons Ratio (x) = 0.04877 0.24752
# Poissons Ratio (y) = 0.54311 1.28630
# Poissons Ratio (z) = 0.40798 0.19039
#
# Static dielectric constant tensor:
#      x y z
#    x 1.683160 0.000000 0.000000 
#    y 0.000000 1.677700 0.000000 
#    z 0.000000 0.000000 1.719800 
# 
# From -- ./inp_files/20892.got.cif
#   From: 2010.05.17/outbox.cif.g08.bks.cpg/sg62_11_cif.got.tgz:20892.got - 2010.06.03 15:25:27.
