data_PCOD9464580
_publ_section_title
;
Structure prediction by ZEFSAII (Michael W. Deem and Ramdas Pophale) SiO2 
 PCOD9464580
Probable space group: P N M A
;
_chemical_formula_sum "Si O2"
_cell_formula_units_Z 40
_cell_length_a 23.295896
_cell_length_b 10.011343
_cell_length_c 7.301282
_cell_angle_alpha 90.000000
_cell_angle_beta 90.000000
_cell_angle_gamma 90.000000
_cell_volume 1702.828391
_symmetry_space_group_name_H-M "P N M A"
_symmetry_group_IT_number 62
_symmetry_cell_setting 'orthorhombic'
loop_
_space_group_symop_operation_xyz
x,y,z
1/2-x,-y,1/2+z
1/2+x,1/2-y,1/2-z
-x,1/2+y,-z
-x,-y,-z
1/2+x,y,1/2-z
1/2-x,1/2+y,1/2+z
x,1/2-y,z
loop_
_atom_site_type_symbol
_atom_site_label
_atom_site_fract_x
_atom_site_fract_y
_atom_site_fract_z
Si Si1 0.756104 0.750000 0.382225
Si Si2 0.955855 0.750000 0.116393
Si Si3 0.667401 0.461690 0.086045
Si Si4 0.988097 0.750000 0.714557
Si Si5 0.637152 0.250000 0.343648
Si Si6 0.653260 0.750000 0.651417
Si Si7 0.711167 0.750000 0.032719
Si Si8 0.930262 0.020381 0.309223
O O1 0.787551 0.620211 0.463719
O O2 0.691332 0.750000 0.467743
O O3 0.766501 0.750000 0.162327
O O4 0.959197 0.608133 0.215110
O O5 0.890624 0.750000 0.039643
O O6 0.996389 0.750000 0.937438
O O7 0.667623 0.384079 0.278881
O O8 0.682706 0.614823 0.102712
O O9 0.608224 0.466603 0.974135
O O10 0.019570 0.621913 0.635216
O O11 0.919842 0.750000 0.711838
O O12 0.613243 0.882207 0.688647
O O13 0.701082 0.750000 0.816047
#
# Coordination Sequence:
#
# PCOD9464580 Si02
#       8
#     4   4   8   4   4   4   4   8
#     4  11  24  41  64  88 123 168 212 260 321 373
#     4  10  20  35  62  93 118 165 202 253 308 377
#     4  10  23  44  57  91 124 159 212 258 315 381
#     4   9  21  37  64  91 122 163 208 254 311 381
#     4   9  22  38  59  92 124 152 209 262 295 385
#     4   9  23  42  63  90 125 163 213 267 308 382
#     4  10  24  41  64  90 122 167 210 260 317 374
#     4  10  20  41  62  85 128 163 202 260 319 365
#
# _framework density 23.490328999999999
#
# number of rings (size 3 to 8) (size 9 to 14) (size 15 to 20)
#    0.600    1.600    0.000    2.400    8.400    0.800 
#    7.200    1.000    0.000    0.000    0.000    0.000 
#    0.000    0.000    0.000    0.000    0.000    0.000 
#
# Total GULP energy -223008.818023 kJ/mol
# GULP energy per Si atom -5575.220451 kJ/mol
# Density = 2.343686 g / cm^3
# Si number density = 23.490329 Si / 1000 Ang^3
#
#
#
# Elastic Constant Matrix: (Units=GPa)
#
#
# Indices 1 2 3 4 5 6 
#
# 1 60.5011 6.2183 -7.3202 0.0000 0.0000 0.0000
# 2 6.2183 148.8669 27.9690 0.0000 0.0000 0.0000
# 3 -7.3202 27.9690 55.0001 0.0000 0.0000 0.0000
# 4 0.0000 0.0000 0.0000 18.4523 0.0000 0.0000
# 5 0.0000 0.0000 0.0000 0.0000 41.0344 0.0000
# 6 0.0000 0.0000 0.0000 0.0000 0.0000 26.6110
#
#
#
# Elastic Compliance Matrix: (Units=1/GPa)
#
#
# Indices 1 2 3 4 5 6 
#
# 1 0.017009 -0.001256 0.002902 0.000000 0.000000 0.000000
# 2 -0.001256 0.007520 -0.003991 0.000000 0.000000 0.000000
# 3 0.002902 -0.003991 0.020598 0.000000 0.000000 0.000000
# 4 0.000000 0.000000 0.000000 0.054194 0.000000 0.000000
# 5 0.000000 0.000000 0.000000 0.000000 0.024370 0.000000
# 6 0.000000 0.000000 0.000000 0.000000 0.000000 0.037578
#
#
# Mechanical properties :
#
#
# Convention : Reuss Voigt Hill
#
# Bulk Modulus (GPa) = 24.72971 35.34471 30.03721
# Shear Modulus (GPa) = 27.86503 33.05292 30.45898
#
# Velocity S-wave (km/s) = 3.44791 3.75518 3.60482
# Velocity P-wave (km/s) = 5.13822 5.82074 5.49010
#
# Compressibility (1/GPa) = 0.04043719
#
# Stress axis : x y z
#
# Youngs Moduli (GPa) = 58.79292 132.98376 48.54921
#
# Poissons Ratio (x) = 0.16700 -0.14091
# Poissons Ratio (y) = 0.07383 0.19377
# Poissons Ratio (z) = -0.17064 0.53075
#
# Static dielectric constant tensor:
#      x y z
#    x 1.957730 0.000000 0.000000 
#    y 0.000000 1.860850 0.000000 
#    z 0.000000 0.000000 1.938400 
# 
# From -- ./inp_files/9753.got.cif
#   From: 2010.05.17/outbox.cif.g08.bks.cpg/sg62_5_cif.got.tgz:9753.got - 2010.06.03 15:25:27.
