data_PCOD9464795
_publ_section_title
;
Structure prediction by ZEFSAII (Michael W. Deem and Ramdas Pophale) SiO2 
 PCOD9464795
Probable space group: P N M A
;
_chemical_formula_sum "Si O2"
_cell_formula_units_Z 48
_cell_length_a 23.062998
_cell_length_b 8.533897
_cell_length_c 12.226290
_cell_angle_alpha 90.000000
_cell_angle_beta 90.000000
_cell_angle_gamma 90.000000
_cell_volume 2406.344769
_symmetry_space_group_name_H-M "P N M A"
_symmetry_group_IT_number 62
_symmetry_cell_setting 'orthorhombic'
loop_
_space_group_symop_operation_xyz
x,y,z
1/2-x,-y,1/2+z
1/2+x,1/2-y,1/2-z
-x,1/2+y,-z
-x,-y,-z
1/2+x,y,1/2-z
1/2-x,1/2+y,1/2+z
x,1/2-y,z
loop_
_atom_site_type_symbol
_atom_site_label
_atom_site_fract_x
_atom_site_fract_y
_atom_site_fract_z
Si Si1 0.727212 0.439937 0.869846
Si Si2 0.880899 0.063556 0.231557
Si Si3 0.453080 0.926886 0.080288
Si Si4 0.340023 0.571840 0.928866
Si Si5 0.646441 0.062450 0.311511
Si Si6 0.934439 0.437419 0.001600
O O1 0.731071 0.250000 0.871946
O O2 0.676846 0.485955 0.783251
O O3 0.788372 0.515816 0.843320
O O4 0.708002 0.498571 0.990943
O O5 0.871484 0.250000 0.230153
O O6 0.899356 0.009410 0.110538
O O7 0.934262 0.023594 0.313236
O O8 0.469426 0.750000 0.112255
O O9 0.395480 0.919518 0.006578
O O10 0.500000 0.000000 0.000000
O O11 0.320365 0.750000 0.903751
O O12 0.358230 0.501770 0.813499
O O13 0.638078 0.250000 0.314399
O O14 0.600712 0.989076 0.394615
O O15 0.936797 0.250000 0.006409
O O16 0.000000 0.500000 0.000000
#
# Coordination Sequence:
#
# PCOD9464795 Si02
#       6
#     8   8   8   8   8   8
#     4  10  21  40  64  93 124 159 203 253 310 370
#     4  10  22  41  63  88 122 163 205 253 311 369
#     4  10  20  36  60  89 119 156 200 249 303 360
#     4   8  19  38  58  82 119 156 192 243 304 360
#     4  11  23  40  64  92 123 164 205 249 310 374
#     4  11  26  45  64  90 126 169 214 261 315 375
#
# _framework density 19.947267
#
# number of rings (size 3 to 8) (size 9 to 14) (size 15 to 20)
#    0.000    2.000    0.000    3.500    4.667    2.667 
#    0.000    8.333    0.000    0.000    0.000    0.000 
#    0.000    0.000    0.000    0.000    0.000    0.000 
#
# Total GULP energy -267825.152509 kJ/mol
# GULP energy per Si atom -5579.690677 kJ/mol
# Density = 1.990187 g / cm^3
# Si number density = 19.947267 Si / 1000 Ang^3
#
#
#
# Elastic Constant Matrix: (Units=GPa)
#
#
# Indices 1 2 3 4 5 6 
#
# 1 59.4776 10.4606 30.2028 0.0000 0.0000 0.0000
# 2 10.4606 36.1489 14.2455 0.0000 0.0000 0.0000
# 3 30.2028 14.2455 150.9631 0.0000 0.0000 0.0000
# 4 0.0000 0.0000 0.0000 27.4252 0.0000 0.0000
# 5 0.0000 0.0000 0.0000 0.0000 12.4936 0.0000
# 6 0.0000 0.0000 0.0000 0.0000 0.0000 34.8119
#
#
#
# Elastic Compliance Matrix: (Units=1/GPa)
#
#
# Indices 1 2 3 4 5 6 
#
# 1 0.019316 -0.004224 -0.003466 0.000000 0.000000 0.000000
# 2 -0.004224 0.029655 -0.001953 0.000000 0.000000 0.000000
# 3 -0.003466 -0.001953 0.007502 0.000000 0.000000 0.000000
# 4 0.000000 0.000000 0.000000 0.036463 0.000000 0.000000
# 5 0.000000 0.000000 0.000000 0.000000 0.080041 0.000000
# 6 0.000000 0.000000 0.000000 0.000000 0.000000 0.028726
#
#
# Mechanical properties :
#
#
# Convention : Reuss Voigt Hill
#
# Bulk Modulus (GPa) = 26.89102 39.60082 33.24592
# Shear Modulus (GPa) = 21.42386 27.72483 24.57435
#
# Velocity S-wave (km/s) = 3.28079 3.73219 3.51374
# Velocity P-wave (km/s) = 5.27842 6.20227 5.75890
#
# Compressibility (1/GPa) = 0.03718714
#
# Stress axis : x y z
#
# Youngs Moduli (GPa) = 51.77083 33.72071 133.29990
#
# Poissons Ratio (x) = 0.14243 0.46201
# Poissons Ratio (y) = 0.21867 0.26038
# Poissons Ratio (z) = 0.17943 0.06587
#
# Static dielectric constant tensor:
#      x y z
#    x 1.696110 0.000000 0.000000 
#    y 0.000000 1.734480 0.000000 
#    z 0.000000 0.000000 1.738050 
# 
# From -- ./inp_files/15124.got.cif
#   From: 2010.05.17/outbox.cif.g08.bks.cpg/sg62_8_cif.got.tgz:15124.got - 2010.06.03 15:25:27.
