data_PCOD9464319
_publ_section_title
;
Structure prediction by ZEFSAII (Michael W. Deem and Ramdas Pophale) SiO2 
 PCOD9464319
Probable space group: P N M A
;
_chemical_formula_sum "Si O2"
_cell_formula_units_Z 48
_cell_length_a 9.529138
_cell_length_b 8.163676
_cell_length_c 31.830801
_cell_angle_alpha 90.000000
_cell_angle_beta 90.000000
_cell_angle_gamma 90.000000
_cell_volume 2476.206983
_symmetry_space_group_name_H-M "P N M A"
_symmetry_group_IT_number 62
_symmetry_cell_setting 'orthorhombic'
loop_
_space_group_symop_operation_xyz
x,y,z
1/2-x,-y,1/2+z
1/2+x,1/2-y,1/2-z
-x,1/2+y,-z
-x,-y,-z
1/2+x,y,1/2-z
1/2-x,1/2+y,1/2+z
x,1/2-y,z
loop_
_atom_site_type_symbol
_atom_site_label
_atom_site_fract_x
_atom_site_fract_y
_atom_site_fract_z
Si Si1 0.911135 0.949787 0.380167
Si Si2 0.910478 0.448107 0.540209
Si Si3 0.410524 0.551963 0.459763
Si Si4 0.889627 0.560953 0.788237
Si Si5 0.087310 0.551896 0.120385
Si Si6 0.920831 0.558723 0.285984
O O1 0.912142 0.750000 0.379792
O O2 0.749198 0.999044 0.387605
O O3 0.953980 0.002041 0.333241
O O4 0.012020 0.005543 0.417372
O O5 0.908073 0.250000 0.541463
O O6 0.749986 0.506411 0.537533
O O7 0.000000 0.500000 0.500000
O O8 0.500000 0.500000 0.500000
O O9 0.408261 0.750000 0.458659
O O10 0.487203 0.495587 0.417122
O O11 0.848459 0.750000 0.790144
O O12 0.997248 0.531875 0.750662
O O13 0.951948 0.510087 0.833373
O O14 0.746767 0.459765 0.781490
O O15 0.084846 0.750000 0.121370
O O16 0.958134 0.750000 0.283335
#
# Coordination Sequence:
#
# PCOD9464319 Si02
#       6
#     8   8   8   8   8   8
#     4   8  16  32  54  75 100 136 182 225 260 307
#     4  10  20  35  54  80 108 138 176 221 269 319
#     4  10  21  35  55  81 110 143 183 227 274 329
#     4  11  22  36  55  84 117 145 178 232 287 328
#     4   9  18  35  55  75 103 146 189 224 268 332
#     4  10  20  37  59  81 107 148 191 225 270 337
#
# _framework density 19.384485999999999
#
# number of rings (size 3 to 8) (size 9 to 14) (size 15 to 20)
#    0.000    2.333    0.000    4.000    0.000    4.000 
#    0.000    9.167    0.000    0.000    0.000    0.000 
#    0.000    0.000    0.000    0.000    0.000    0.000 
#
# Total GULP energy -267970.498581 kJ/mol
# GULP energy per Si atom -5582.718720 kJ/mol
# Density = 1.934037 g / cm^3
# Si number density = 19.384486 Si / 1000 Ang^3
#
#
#
# Elastic Constant Matrix: (Units=GPa)
#
#
# Indices 1 2 3 4 5 6 
#
# 1 121.4381 6.5655 112.8862 0.0000 0.0000 0.0000
# 2 6.5655 20.4654 8.1387 0.0000 0.0000 0.0000
# 3 112.8862 8.1387 189.0597 0.0000 0.0000 0.0000
# 4 0.0000 0.0000 0.0000 23.5958 0.0000 0.0000
# 5 0.0000 0.0000 0.0000 0.0000 41.4323 0.0000
# 6 0.0000 0.0000 0.0000 0.0000 0.0000 19.4815
#
#
#
# Elastic Compliance Matrix: (Units=1/GPa)
#
#
# Indices 1 2 3 4 5 6 
#
# 1 0.018556 -0.001574 -0.011012 0.000000 0.000000 0.000000
# 2 -0.001574 0.049847 -0.001206 0.000000 0.000000 0.000000
# 3 -0.011012 -0.001206 0.011917 0.000000 0.000000 0.000000
# 4 0.000000 0.000000 0.000000 0.042380 0.000000 0.000000
# 5 0.000000 0.000000 0.000000 0.000000 0.024136 0.000000
# 6 0.000000 0.000000 0.000000 0.000000 0.000000 0.051331
#
#
# Mechanical properties :
#
#
# Convention : Reuss Voigt Hill
#
# Bulk Modulus (GPa) = 18.96230 65.12711 42.04470
# Shear Modulus (GPa) = 20.54824 30.46012 25.50418
#
# Velocity S-wave (km/s) = 3.25935 3.96835 3.63119
# Velocity P-wave (km/s) = 4.89570 7.39375 6.27038
#
# Compressibility (1/GPa) = 0.05273622
#
# Stress axis : x y z
#
# Youngs Moduli (GPa) = 53.88986 20.06123 83.91705
#
# Poissons Ratio (x) = 0.03157 0.92411
# Poissons Ratio (y) = 0.08481 0.10122
# Poissons Ratio (z) = 0.59344 0.02420
#
# Static dielectric constant tensor:
#      x y z
#    x 1.650230 0.000000 0.000000 
#    y 0.000000 1.688270 0.000000 
#    z 0.000000 0.000000 1.656680 
# 
# From -- ./inp_files/31901.got.cif
#   From: 2010.05.17/outbox.cif.g08.bks.cpg/sg62_16_cif.got.tgz:31901.got - 2010.06.03 15:25:27.
