data_PCOD9464080
_publ_section_title
;
Structure prediction by ZEFSAII (Michael W. Deem and Ramdas Pophale) SiO2 
 PCOD9464080
Probable space group: P N M A
;
_chemical_formula_sum "Si O2"
_cell_formula_units_Z 40
_cell_length_a 12.559204
_cell_length_b 14.328981
_cell_length_c 9.316745
_cell_angle_alpha 90.000000
_cell_angle_beta 90.000000
_cell_angle_gamma 90.000000
_cell_volume 1676.646978
_symmetry_space_group_name_H-M "P N M A"
_symmetry_group_IT_number 62
_symmetry_cell_setting 'orthorhombic'
loop_
_space_group_symop_operation_xyz
x,y,z
1/2-x,-y,1/2+z
1/2+x,1/2-y,1/2-z
-x,1/2+y,-z
-x,-y,-z
1/2+x,y,1/2-z
1/2-x,1/2+y,1/2+z
x,1/2-y,z
loop_
_atom_site_type_symbol
_atom_site_label
_atom_site_fract_x
_atom_site_fract_y
_atom_site_fract_z
Si Si1 0.138255 0.142627 0.381754
Si Si2 0.051112 0.140942 0.825615
Si Si3 0.570543 0.965967 0.846511
Si Si4 0.625904 0.860813 0.549846
Si Si5 0.234033 0.143183 0.060968
O O1 0.103733 0.250000 0.406038
O O2 0.247989 0.126151 0.467376
O O3 0.175455 0.135796 0.214571
O O4 0.042208 0.071813 0.399771
O O5 0.045079 0.250000 0.787806
O O6 0.069018 0.074025 0.693289
O O7 0.148348 0.127965 0.936808
O O8 0.943823 0.113807 0.911790
O O9 0.588314 0.916009 0.689895
O O10 0.667687 0.926697 0.939562
O O11 0.607576 0.750000 0.576303
O O12 0.273933 0.250000 0.049836
#
# Coordination Sequence:
#
# PCOD9464080 Si02
#       5
#     8   8   8   8   8
#     4   9  16  27  48  78 108 134 172 230 279 318
#     4  10  20  34  53  80 113 147 186 232 278 331
#     4  11  18  29  55  80 105 143 192 231 273 331
#     4   9  17  29  48  79 110 134 173 230 281 321
#     4   9  18  31  50  80 113 139 179 238 286 324
#
# _framework density 23.857140000000001
#
# number of rings (size 3 to 8) (size 9 to 14) (size 15 to 20)
#    0.000    2.400    2.000    3.600    0.000    0.000 
#    0.000    0.000    0.000   15.600    0.000    0.000 
#    0.000    0.000    0.000    0.000    0.000    0.000 
#
# Total GULP energy -224207.461775 kJ/mol
# GULP energy per Si atom -5605.186544 kJ/mol
# Density = 2.380284 g / cm^3
# Si number density = 23.857140 Si / 1000 Ang^3
#
#
#
# Elastic Constant Matrix: (Units=GPa)
#
#
# Indices 1 2 3 4 5 6 
#
# 1 119.3754 83.3356 42.1775 0.0000 0.0000 0.0000
# 2 83.3356 116.7359 57.5465 0.0000 0.0000 0.0000
# 3 42.1775 57.5465 75.7257 0.0000 0.0000 0.0000
# 4 0.0000 0.0000 0.0000 26.7377 0.0000 0.0000
# 5 0.0000 0.0000 0.0000 0.0000 8.8211 0.0000
# 6 0.0000 0.0000 0.0000 0.0000 0.0000 38.9057
#
#
#
# Elastic Compliance Matrix: (Units=1/GPa)
#
#
# Indices 1 2 3 4 5 6 
#
# 1 0.016706 -0.011736 -0.000387 0.000000 0.000000 0.000000
# 2 -0.011736 0.021942 -0.010138 0.000000 0.000000 0.000000
# 3 -0.000387 -0.010138 0.021125 0.000000 0.000000 0.000000
# 4 0.000000 0.000000 0.000000 0.037400 0.000000 0.000000
# 5 0.000000 0.000000 0.000000 0.000000 0.113364 0.000000
# 6 0.000000 0.000000 0.000000 0.000000 0.000000 0.025703
#
#
# Mechanical properties :
#
#
# Convention : Reuss Voigt Hill
#
# Bulk Modulus (GPa) = 65.56203 75.32845 70.44524
# Shear Modulus (GPa) = 17.49199 23.47806 20.48502
#
# Velocity S-wave (km/s) = 2.71070 3.14046 2.93346
# Velocity P-wave (km/s) = 6.11048 6.69278 6.40825
#
# Compressibility (1/GPa) = 0.01525273
#
# Stress axis : x y z
#
# Youngs Moduli (GPa) = 59.85832 45.57532 47.33730
#
# Poissons Ratio (x) = 0.53485 0.01830
# Poissons Ratio (y) = 0.70247 0.47990
# Poissons Ratio (z) = 0.02315 0.46203
#
# Static dielectric constant tensor:
#      x y z
#    x 1.859610 0.000000 0.000000 
#    y 0.000000 1.904180 0.000000 
#    z 0.000000 0.000000 1.887110 
# 
# From -- ./inp_files/12040.got.cif
#   From: 2010.05.17/outbox.cif.g08.bks.cpg/sg62_7_cif.got.tgz:12040.got - 2010.06.03 15:25:27.
