data_PCOD9464984
_publ_section_title
;
Structure prediction by ZEFSAII (Michael W. Deem and Ramdas Pophale) SiO2 
 PCOD9464984
Probable space group: P N M A
;
_chemical_formula_sum "Si O2"
_cell_formula_units_Z 48
_cell_length_a 9.303587
_cell_length_b 12.122619
_cell_length_c 20.202601
_cell_angle_alpha 90.000000
_cell_angle_beta 90.000000
_cell_angle_gamma 90.000000
_cell_volume 2278.526930
_symmetry_space_group_name_H-M "P N M A"
_symmetry_group_IT_number 62
_symmetry_cell_setting 'orthorhombic'
loop_
_space_group_symop_operation_xyz
x,y,z
1/2-x,-y,1/2+z
1/2+x,1/2-y,1/2-z
-x,1/2+y,-z
-x,-y,-z
1/2+x,y,1/2-z
1/2-x,1/2+y,1/2+z
x,1/2-y,z
loop_
_atom_site_type_symbol
_atom_site_label
_atom_site_fract_x
_atom_site_fract_y
_atom_site_fract_z
Si Si1 0.401445 0.630615 0.352117
Si Si2 0.777552 0.628238 0.842795
Si Si3 0.909092 0.370472 0.648963
Si Si4 0.516870 0.952381 0.753164
Si Si5 0.876829 0.453433 0.951833
Si Si6 0.574228 0.378954 0.981754
O O1 0.404890 0.750000 0.318762
O O2 0.245783 0.621494 0.386875
O O3 0.409109 0.533969 0.299239
O O4 0.533350 0.622778 0.401823
O O5 0.767907 0.750000 0.871005
O O6 0.634854 0.603289 0.800029
O O7 0.807258 0.544862 0.902898
O O8 0.909916 0.620329 0.790848
O O9 0.912710 0.250000 0.681881
O O10 0.924303 0.468192 0.699991
O O11 0.034397 0.373713 0.595654
O O12 0.744968 0.396229 0.989623
O O13 0.000000 0.500000 0.000000
O O14 0.536808 0.250000 0.006384
O O15 0.500000 0.500000 0.000000
#
# Coordination Sequence:
#
# PCOD9464984 Si02
#       6
#     8   8   8   8   8   8
#     4  10  21  37  63  94 125 165 208 267 328 391
#     4  11  24  40  64  91 128 174 219 272 333 403
#     4  10  20  37  61  90 125 163 212 270 331 393
#     4  11  20  40  60  91 127 163 214 261 333 396
#     4  11  24  43  67  93 134 174 228 276 341 405
#     4  11  24  43  67  97 131 176 229 284 344 409
#
# _framework density 21.066241999999999
#
# number of rings (size 3 to 8) (size 9 to 14) (size 15 to 20)
#    0.000    1.333    3.333    2.500    0.000    2.000 
#    0.000    0.000    0.000    0.000    0.000    0.000 
#    0.000    0.000    0.000    0.000    0.000    0.000 
#
# Total GULP energy -267400.508488 kJ/mol
# GULP energy per Si atom -5570.843927 kJ/mol
# Density = 2.101829 g / cm^3
# Si number density = 21.066242 Si / 1000 Ang^3
#
#
#
# Elastic Constant Matrix: (Units=GPa)
#
#
# Indices 1 2 3 4 5 6 
#
# 1 114.3486 30.9181 5.4714 0.0000 0.0000 0.0000
# 2 30.9181 123.2443 18.7622 0.0000 0.0000 0.0000
# 3 5.4714 18.7622 33.3868 0.0000 0.0000 0.0000
# 4 0.0000 0.0000 0.0000 -25.9539 0.0000 0.0000
# 5 0.0000 0.0000 0.0000 0.0000 35.8185 0.0000
# 6 0.0000 0.0000 0.0000 0.0000 0.0000 17.3053
#
#
#
# Elastic Compliance Matrix: (Units=1/GPa)
#
#
# Indices 1 2 3 4 5 6 
#
# 1 0.009383 -0.002318 -0.000235 0.000000 0.000000 0.000000
# 2 -0.002318 0.009446 -0.004928 0.000000 0.000000 0.000000
# 3 -0.000235 -0.004928 0.032760 0.000000 0.000000 0.000000
# 4 0.000000 0.000000 0.000000 -0.038530 0.000000 0.000000
# 5 0.000000 0.000000 0.000000 0.000000 0.027919 0.000000
# 6 0.000000 0.000000 0.000000 0.000000 0.000000 0.057786
#
#
# Mechanical properties :
#
#
# Convention : Reuss Voigt Hill
#
# Bulk Modulus (GPa) = 27.30293 42.36477 34.83385
# Shear Modulus (GPa) = 39.70305 19.82252 29.76278
#
# Velocity S-wave (km/s) = 4.34600 3.07084 3.76283
# Velocity P-wave (km/s) = 6.17837 5.72078 5.95397
#
# Compressibility (1/GPa) = 0.03662611
#
# Stress axis : x y z
#
# Youngs Moduli (GPa) = 106.57305 105.86737 30.52503
#
# Poissons Ratio (x) = 0.24542 0.00717
# Poissons Ratio (y) = 0.24706 0.15044
# Poissons Ratio (z) = 0.02504 0.52174
#
# Static dielectric constant tensor:
#      x y z
#    x 1.795350 0.000000 0.000000 
#    y 0.000000 1.791100 0.000000 
#    z 0.000000 0.000000 1.728720 
# 
# From -- ./inp_files/28799.got.cif
#   From: 2010.05.17/outbox.cif.g08.bks.cpg/sg62_15_cif.got.tgz:28799.got - 2010.06.03 15:25:27.
