data_PCOD9464370
_publ_section_title
;
Structure prediction by ZEFSAII (Michael W. Deem and Ramdas Pophale) SiO2 
 PCOD9464370
Probable space group: P N M A
;
_chemical_formula_sum "Si O2"
_cell_formula_units_Z 64
_cell_length_a 9.628566
_cell_length_b 20.161682
_cell_length_c 16.786420
_cell_angle_alpha 90.000000
_cell_angle_beta 90.000000
_cell_angle_gamma 90.000000
_cell_volume 3258.715582
_symmetry_space_group_name_H-M "P N M A"
_symmetry_group_IT_number 62
_symmetry_cell_setting 'orthorhombic'
loop_
_space_group_symop_operation_xyz
x,y,z
1/2-x,-y,1/2+z
1/2+x,1/2-y,1/2-z
-x,1/2+y,-z
-x,-y,-z
1/2+x,y,1/2-z
1/2-x,1/2+y,1/2+z
x,1/2-y,z
loop_
_atom_site_type_symbol
_atom_site_label
_atom_site_fract_x
_atom_site_fract_y
_atom_site_fract_z
Si Si1 0.238816 0.676674 0.518415
Si Si2 0.560224 0.360281 0.710701
Si Si3 0.443697 0.322979 0.544507
Si Si4 0.863767 0.137832 0.650962
Si Si5 0.257804 0.035340 0.081807
Si Si6 0.490430 0.514615 0.692022
Si Si7 0.552468 0.486165 0.132102
Si Si8 0.185916 0.941708 0.948360
O O1 0.211468 0.750000 0.551325
O O2 0.400292 0.673681 0.491460
O O3 0.149746 0.665812 0.437866
O O4 0.219404 0.613782 0.575002
O O5 0.468118 0.331823 0.638603
O O6 0.494045 0.341220 0.795154
O O7 0.720793 0.343407 0.696096
O O8 0.545896 0.439837 0.700960
O O9 0.386036 0.250000 0.527681
O O10 0.356029 0.381310 0.504858
O O11 0.874192 0.057643 0.643841
O O12 0.164419 0.014979 0.156353
O O13 0.408574 0.002745 0.086791
O O14 0.180368 0.007903 0.003197
O O15 0.485660 0.542257 0.781105
O O16 0.583731 0.551764 0.626862
O O17 0.658967 0.439777 0.085841
#
# Coordination Sequence:
#
# PCOD9464370 Si02
#       8
#     8   8   8   8   8   8   8   8
#     4  10  21  39  60  85 117 161 204 246 301 362
#     4  10  20  35  55  87 121 157 194 240 297 363
#     4  10  21  37  60  85 115 158 206 250 296 361
#     4  10  21  35  57  86 124 157 193 238 299 364
#     4  12  22  37  63  89 119 159 199 254 301 355
#     4  11  21  36  60  88 115 155 196 243 301 361
#     4  11  24  36  57  92 128 147 191 252 317 350
#     4  12  20  38  62  88 118 153 203 250 298 358
#
# _framework density 19.639641000000001
#
# number of rings (size 3 to 8) (size 9 to 14) (size 15 to 20)
#    0.000    1.250    5.000    2.250    5.250    0.500 
#    0.000    0.625    0.000    4.500    0.000    0.000 
#    0.000    0.000    0.000    0.000    0.000    0.000 
#
# Total GULP energy -357532.695202 kJ/mol
# GULP energy per Si atom -5586.448363 kJ/mol
# Density = 1.959494 g / cm^3
# Si number density = 19.639641 Si / 1000 Ang^3
#
#
#
# Elastic Constant Matrix: (Units=GPa)
#
#
# Indices 1 2 3 4 5 6 
#
# 1 63.4064 2.0644 3.5681 0.0000 0.0000 0.0000
# 2 2.0644 67.5236 10.8197 0.0000 0.0000 0.0000
# 3 3.5681 10.8197 39.8854 0.0000 0.0000 0.0000
# 4 0.0000 0.0000 0.0000 10.2679 0.0000 0.0000
# 5 0.0000 0.0000 0.0000 0.0000 31.9157 0.0000
# 6 0.0000 0.0000 0.0000 0.0000 0.0000 7.5769
#
#
#
# Elastic Compliance Matrix: (Units=1/GPa)
#
#
# Indices 1 2 3 4 5 6 
#
# 1 0.015856 -0.000269 -0.001345 0.000000 0.000000 0.000000
# 2 -0.000269 0.015487 -0.004177 0.000000 0.000000 0.000000
# 3 -0.001345 -0.004177 0.026325 0.000000 0.000000 0.000000
# 4 0.000000 0.000000 0.000000 0.097390 0.000000 0.000000
# 5 0.000000 0.000000 0.000000 0.000000 0.031333 0.000000
# 6 0.000000 0.000000 0.000000 0.000000 0.000000 0.131980
#
#
# Mechanical properties :
#
#
# Convention : Reuss Voigt Hill
#
# Bulk Modulus (GPa) = 21.69910 22.63552 22.16731
# Shear Modulus (GPa) = 14.47948 20.24299 17.36124
#
# Velocity S-wave (km/s) = 2.71819 3.21397 2.97642
# Velocity P-wave (km/s) = 4.57428 5.03222 4.80870
#
# Compressibility (1/GPa) = 0.04608485
#
# Stress axis : x y z
#
# Youngs Moduli (GPa) = 63.06855 64.56948 37.98625
#
# Poissons Ratio (x) = 0.01738 0.05111
# Poissons Ratio (y) = 0.01698 0.15867
# Poissons Ratio (z) = 0.08485 0.26972
#
# Static dielectric constant tensor:
#      x y z
#    x 1.707500 0.000000 0.000000 
#    y 0.000000 1.691640 0.000000 
#    z 0.000000 0.000000 1.707270 
# 
# From -- ./inp_files/22582.got.cif
#   From: 2010.05.17/outbox.cif.g08.bks.cpg/sg62_12_cif.got.tgz:22582.got - 2010.06.03 15:25:27.
