data_PCOD9464544
_publ_section_title
;
Structure prediction by ZEFSAII (Michael W. Deem and Ramdas Pophale) SiO2 
 PCOD9464544
Probable space group: P N M A
;
_chemical_formula_sum "Si O2"
_cell_formula_units_Z 56
_cell_length_a 21.778934
_cell_length_b 8.750594
_cell_length_c 15.000006
_cell_angle_alpha 90.000000
_cell_angle_beta 90.000000
_cell_angle_gamma 90.000000
_cell_volume 2858.680281
_symmetry_space_group_name_H-M "P N M A"
_symmetry_group_IT_number 62
_symmetry_cell_setting 'orthorhombic'
loop_
_space_group_symop_operation_xyz
x,y,z
1/2-x,-y,1/2+z
1/2+x,1/2-y,1/2-z
-x,1/2+y,-z
-x,-y,-z
1/2+x,y,1/2-z
1/2-x,1/2+y,1/2+z
x,1/2-y,z
loop_
_atom_site_type_symbol
_atom_site_label
_atom_site_fract_x
_atom_site_fract_y
_atom_site_fract_z
Si Si1 0.809958 0.064051 0.202941
Si Si2 0.934715 0.567240 0.892204
Si Si3 0.168793 0.932791 0.599947
Si Si4 0.977003 0.431763 0.406560
Si Si5 0.077437 0.934323 0.917915
Si Si6 0.082560 0.931716 0.294379
Si Si7 0.808275 0.932877 0.588755
O O1 0.811724 0.250000 0.205547
O O2 0.805084 0.013660 0.305178
O O3 0.873073 0.015468 0.155255
O O4 0.752175 0.019499 0.143174
O O5 0.929712 0.750000 0.889046
O O6 0.905286 0.495812 0.804223
O O7 0.007430 0.525054 0.892915
O O8 0.908793 0.504805 0.985328
O O9 0.178375 0.750000 0.590858
O O10 0.095373 0.958807 0.603038
O O11 0.194912 0.014866 0.513310
O O12 0.987341 0.250000 0.405750
O O13 0.000000 0.500000 0.500000
O O14 0.017169 0.505912 0.328717
O O15 0.079940 0.750000 0.924844
O O16 0.082426 0.750000 0.294267
O O17 0.132902 0.992587 0.363948
O O18 0.814195 0.750000 0.593316
#
# Coordination Sequence:
#
# PCOD9464544 Si02
#       7
#     8   8   8   8   8   8   8
#     4   9  20  39  62  85 113 155 200 242 291 349
#     4  10  20  35  59  89 120 153 190 239 293 349
#     4  10  21  40  63  86 117 155 194 238 297 360
#     4  11  21  35  60  90 120 153 190 240 302 361
#     4   9  18  37  61  86 117 152 191 238 294 352
#     4  12  24  38  57  84 119 158 198 243 296 353
#     4  11  23  39  59  84 116 151 196 246 289 344
#
# _framework density 19.589458
#
# number of rings (size 3 to 8) (size 9 to 14) (size 15 to 20)
#    0.000    1.714    1.429    3.429    0.000    4.571 
#    0.000    6.429    0.000    0.000    0.000    0.000 
#    0.000    0.000    0.000    0.000    0.000    0.000 
#
# Total GULP energy -312999.688722 kJ/mol
# GULP energy per Si atom -5589.280156 kJ/mol
# Density = 1.954487 g / cm^3
# Si number density = 19.589458 Si / 1000 Ang^3
#
#
#
# Elastic Constant Matrix: (Units=GPa)
#
#
# Indices 1 2 3 4 5 6 
#
# 1 41.5774 27.0578 40.1114 0.0000 0.0000 0.0000
# 2 27.0578 41.2936 36.3980 0.0000 0.0000 0.0000
# 3 40.1114 36.3980 171.9688 0.0000 0.0000 0.0000
# 4 0.0000 0.0000 0.0000 35.1328 0.0000 0.0000
# 5 0.0000 0.0000 0.0000 0.0000 27.4362 0.0000
# 6 0.0000 0.0000 0.0000 0.0000 0.0000 13.1194
#
#
#
# Elastic Compliance Matrix: (Units=1/GPa)
#
#
# Indices 1 2 3 4 5 6 
#
# 1 0.045543 -0.025176 -0.005294 0.000000 0.000000 0.000000
# 2 -0.025176 0.043688 -0.003375 0.000000 0.000000 0.000000
# 3 -0.005294 -0.003375 0.007764 0.000000 0.000000 0.000000
# 4 0.000000 0.000000 0.000000 0.028463 0.000000 0.000000
# 5 0.000000 0.000000 0.000000 0.000000 0.036448 0.000000
# 6 0.000000 0.000000 0.000000 0.000000 0.000000 0.076223
#
#
# Mechanical properties :
#
#
# Convention : Reuss Voigt Hill
#
# Bulk Modulus (GPa) = 34.12278 51.33048 42.72663
# Shear Modulus (GPa) = 15.84351 25.22253 20.53302
#
# Velocity S-wave (km/s) = 2.84699 3.59215 3.24105
# Velocity P-wave (km/s) = 5.31638 6.59277 5.98868
#
# Compressibility (1/GPa) = 0.02930593
#
# Stress axis : x y z
#
# Youngs Moduli (GPa) = 21.95731 22.88972 128.79755
#
# Poissons Ratio (x) = 0.57626 0.68189
# Poissons Ratio (y) = 0.55279 0.43463
# Poissons Ratio (z) = 0.11625 0.07724
#
# Static dielectric constant tensor:
#      x y z
#    x 1.681490 0.000000 0.000000 
#    y 0.000000 1.657120 0.000000 
#    z 0.000000 0.000000 1.680350 
# 
# From -- ./inp_files/20277.got.cif
#   From: 2010.05.17/outbox.cif.g08.bks.cpg/sg62_11_cif.got.tgz:20277.got - 2010.06.03 15:25:27.
