data_PCOD9464896
_publ_section_title
;
Structure prediction by ZEFSAII (Michael W. Deem and Ramdas Pophale) SiO2 
 PCOD9464896
Probable space group: P N M A
;
_chemical_formula_sum "Si O2"
_cell_formula_units_Z 56
_cell_length_a 15.217157
_cell_length_b 7.798789
_cell_length_c 21.680165
_cell_angle_alpha 90.000000
_cell_angle_beta 90.000000
_cell_angle_gamma 90.000000
_cell_volume 2572.902180
_symmetry_space_group_name_H-M "P N M A"
_symmetry_group_IT_number 62
_symmetry_cell_setting 'orthorhombic'
loop_
_space_group_symop_operation_xyz
x,y,z
1/2-x,-y,1/2+z
1/2+x,1/2-y,1/2-z
-x,1/2+y,-z
-x,-y,-z
1/2+x,y,1/2-z
1/2-x,1/2+y,1/2+z
x,1/2-y,z
loop_
_atom_site_type_symbol
_atom_site_label
_atom_site_fract_x
_atom_site_fract_y
_atom_site_fract_z
Si Si1 0.602978 0.947315 0.327016
Si Si2 0.704217 0.038751 0.810029
Si Si3 0.089555 0.452769 0.576587
Si Si4 0.911398 0.947037 0.964297
Si Si5 0.295533 0.046070 0.424027
Si Si6 0.410947 0.957408 0.306174
Si Si7 0.398126 0.542509 0.935626
O O1 0.603347 0.750000 0.305722
O O2 0.695700 0.023569 0.306418
O O3 0.510652 0.024785 0.305480
O O4 0.601520 0.949611 0.401566
O O5 0.705436 0.250000 0.811278
O O6 0.656715 0.979376 0.872703
O O7 0.646482 0.985608 0.751746
O O8 0.105774 0.250000 0.572238
O O9 0.100111 0.520530 0.507005
O O10 0.987855 0.479271 0.595181
O O11 0.919754 0.750000 0.945925
O O12 0.832391 0.969314 0.012552
O O13 0.000000 0.000000 0.000000
O O14 0.293308 0.250000 0.433216
O O15 0.196139 0.988736 0.409109
O O16 0.362222 0.005302 0.369236
O O17 0.415091 0.750000 0.304979
O O18 0.402433 0.750000 0.935169
#
# Coordination Sequence:
#
# PCOD9464896 Si02
#       7
#     8   8   8   8   8   8   8
#     4  10  20  37  59  83 117 155 193 241 292 342
#     4   9  19  36  58  83 112 152 198 238 281 336
#     4   9  17  33  56  80 107 142 186 231 273 329
#     4  12  23  36  58  87 117 149 188 236 293 351
#     4  11  22  37  57  82 116 152 186 232 291 346
#     4  10  21  36  56  82 111 148 195 236 275 333
#     4   9  19  34  54  81 112 144 178 226 288 338
#
# _framework density 21.765304
#
# number of rings (size 3 to 8) (size 9 to 14) (size 15 to 20)
#    0.000    2.000    1.429    2.571    0.000    4.571 
#    0.000    7.857    0.000    0.000    0.000    0.000 
#    0.000    0.000    0.000    0.000    0.000    0.000 
#
# Total GULP energy -312863.015467 kJ/mol
# GULP energy per Si atom -5586.839562 kJ/mol
# Density = 2.171577 g / cm^3
# Si number density = 21.765304 Si / 1000 Ang^3
#
#
#
# Elastic Constant Matrix: (Units=GPa)
#
#
# Indices 1 2 3 4 5 6 
#
# 1 189.8535 -3.5995 46.0757 0.0000 0.0000 0.0000
# 2 -3.5995 39.1070 -7.5147 0.0000 0.0000 0.0000
# 3 46.0757 -7.5147 53.8497 0.0000 0.0000 0.0000
# 4 0.0000 0.0000 0.0000 14.2617 0.0000 0.0000
# 5 0.0000 0.0000 0.0000 0.0000 28.8126 0.0000
# 6 0.0000 0.0000 0.0000 0.0000 0.0000 19.2363
#
#
#
# Elastic Compliance Matrix: (Units=1/GPa)
#
#
# Indices 1 2 3 4 5 6 
#
# 1 0.006657 -0.000495 -0.005765 0.000000 0.000000 0.000000
# 2 -0.000495 0.026312 0.004095 0.000000 0.000000 0.000000
# 3 -0.005765 0.004095 0.024074 0.000000 0.000000 0.000000
# 4 0.000000 0.000000 0.000000 0.070118 0.000000 0.000000
# 5 0.000000 0.000000 0.000000 0.000000 0.034707 0.000000
# 6 0.000000 0.000000 0.000000 0.000000 0.000000 0.051985
#
#
# Mechanical properties :
#
#
# Convention : Reuss Voigt Hill
#
# Bulk Modulus (GPa) = 18.97010 39.19257 29.08133
# Shear Modulus (GPa) = 21.20849 28.98535 25.09692
#
# Velocity S-wave (km/s) = 3.12495 3.65324 3.39937
# Velocity P-wave (km/s) = 4.66424 5.98672 5.36637
#
# Compressibility (1/GPa) = 0.05271454
#
# Stress axis : x y z
#
# Youngs Moduli (GPa) = 150.21899 38.00505 41.53776
#
# Poissons Ratio (x) = 0.01882 0.23947
# Poissons Ratio (y) = 0.07437 -0.17012
# Poissons Ratio (z) = 0.86601 -0.15565
#
# Static dielectric constant tensor:
#      x y z
#    x 1.815320 0.000000 0.000000 
#    y 0.000000 1.805640 0.000000 
#    z 0.000000 0.000000 1.763990 
# 
# From -- ./inp_files/27277.got.cif
#   From: 2010.05.17/outbox.cif.g08.bks.cpg/sg62_14_cif.got.tgz:27277.got - 2010.06.03 15:25:27.
