data_PCOD9464825
_publ_section_title
;
Structure prediction by ZEFSAII (Michael W. Deem and Ramdas Pophale) SiO2 
 PCOD9464825
Probable space group: P N M A
;
_chemical_formula_sum "Si O2"
_cell_formula_units_Z 48
_cell_length_a 8.708293
_cell_length_b 17.576431
_cell_length_c 14.180739
_cell_angle_alpha 90.000000
_cell_angle_beta 90.000000
_cell_angle_gamma 90.000000
_cell_volume 2170.513994
_symmetry_space_group_name_H-M "P N M A"
_symmetry_group_IT_number 62
_symmetry_cell_setting 'orthorhombic'
loop_
_space_group_symop_operation_xyz
x,y,z
1/2-x,-y,1/2+z
1/2+x,1/2-y,1/2-z
-x,1/2+y,-z
-x,-y,-z
1/2+x,y,1/2-z
1/2-x,1/2+y,1/2+z
x,1/2-y,z
loop_
_atom_site_type_symbol
_atom_site_label
_atom_site_fract_x
_atom_site_fract_y
_atom_site_fract_z
Si Si1 0.941328 0.920650 0.039441
Si Si2 0.941514 0.446274 0.311671
Si Si3 0.719483 0.549497 0.207182
Si Si4 0.274135 0.339638 0.636743
Si Si5 0.104699 0.339773 0.450658
Si Si6 0.451899 0.339001 0.366403
O O1 0.802928 0.942447 0.107399
O O2 0.074133 0.882601 0.101702
O O3 0.932129 0.865894 0.948673
O O4 0.000000 0.000000 0.000000
O O5 0.050441 0.519764 0.310817
O O6 0.982162 0.396759 0.403974
O O7 0.782758 0.484946 0.280346
O O8 0.976465 0.388359 0.226195
O O9 0.749143 0.628537 0.259638
O O10 0.299955 0.250000 0.634159
O O11 0.139842 0.355187 0.560675
O O12 0.064898 0.250000 0.438797
O O13 0.274505 0.350902 0.402125
O O14 0.471088 0.250000 0.347721
#
# Coordination Sequence:
#
# PCOD9464825 Si02
#       6
#     8   8   8   8   8   8
#     4  11  19  39  63  89 119 159 211 248 297 366
#     4  12  21  38  59  91 121 152 201 252 299 360
#     4  12  23  37  63  88 119 157 199 250 303 359
#     4  10  22  40  60  87 122 162 203 249 310 370
#     4   9  19  37  60  85 120 161 195 245 306 363
#     4  10  20  36  62  89 118 160 206 248 299 366
#
# _framework density 22.114578999999999
#
# number of rings (size 3 to 8) (size 9 to 14) (size 15 to 20)
#    0.000    1.333    5.000    3.000    0.000    2.000 
#    0.000    0.000    0.000    2.000    0.000    0.000 
#    0.000    0.000    0.000    0.000    0.000    0.000 
#
# Total GULP energy -268117.466773 kJ/mol
# GULP energy per Si atom -5585.780558 kJ/mol
# Density = 2.206424 g / cm^3
# Si number density = 22.114579 Si / 1000 Ang^3
#
#
#
# Elastic Constant Matrix: (Units=GPa)
#
#
# Indices 1 2 3 4 5 6 
#
# 1 22.5433 16.9589 -11.6947 0.0000 0.0000 0.0000
# 2 16.9589 86.1568 20.5457 0.0000 0.0000 0.0000
# 3 -11.6947 20.5457 45.7142 0.0000 0.0000 0.0000
# 4 0.0000 0.0000 0.0000 47.2847 0.0000 0.0000
# 5 0.0000 0.0000 0.0000 0.0000 31.0890 0.0000
# 6 0.0000 0.0000 0.0000 0.0000 0.0000 27.4150
#
#
#
# Elastic Compliance Matrix: (Units=1/GPa)
#
#
# Indices 1 2 3 4 5 6 
#
# 1 0.076127 -0.021985 0.029356 0.000000 0.000000 0.000000
# 2 -0.021985 0.019349 -0.014321 0.000000 0.000000 0.000000
# 3 0.029356 -0.014321 0.035821 0.000000 0.000000 0.000000
# 4 0.000000 0.000000 0.000000 0.021149 0.000000 0.000000
# 5 0.000000 0.000000 0.000000 0.000000 0.032166 0.000000
# 6 0.000000 0.000000 0.000000 0.000000 0.000000 0.036476
#
#
# Mechanical properties :
#
#
# Convention : Reuss Voigt Hill
#
# Bulk Modulus (GPa) = 8.51807 22.89269 15.70538
# Shear Modulus (GPa) = 18.24020 29.73135 23.98577
#
# Velocity S-wave (km/s) = 2.87506 3.67062 3.29692
# Velocity P-wave (km/s) = 3.85764 5.32343 4.64867
#
# Compressibility (1/GPa) = 0.11739747
#
# Stress axis : x y z
#
# Youngs Moduli (GPa) = 13.13598 51.68163 27.91652
#
# Poissons Ratio (x) = 1.13622 -0.81951
# Poissons Ratio (y) = 0.28880 0.39978
# Poissons Ratio (z) = -0.38562 0.74011
#
# Static dielectric constant tensor:
#      x y z
#    x 3.331630 0.000000 0.000000 
#    y 0.000000 1.668040 0.000000 
#    z 0.000000 0.000000 1.848060 
# 
# From -- ./inp_files/16958.got.cif
#   From: 2010.05.17/outbox.cif.g08.bks.cpg/sg62_9_cif.got.tgz:16958.got - 2010.06.03 15:25:27.
