data_PCOD9464695
_publ_section_title
;
Structure prediction by ZEFSAII (Michael W. Deem and Ramdas Pophale) SiO2 
 PCOD9464695
Probable space group: P N M A
;
_chemical_formula_sum "Si O2"
_cell_formula_units_Z 56
_cell_length_a 14.008483
_cell_length_b 17.092672
_cell_length_c 10.508938
_cell_angle_alpha 90.000000
_cell_angle_beta 90.000000
_cell_angle_gamma 90.000000
_cell_volume 2516.285390
_symmetry_space_group_name_H-M "P N M A"
_symmetry_group_IT_number 62
_symmetry_cell_setting 'orthorhombic'
loop_
_space_group_symop_operation_xyz
x,y,z
1/2-x,-y,1/2+z
1/2+x,1/2-y,1/2-z
-x,1/2+y,-z
-x,-y,-z
1/2+x,y,1/2-z
1/2-x,1/2+y,1/2+z
x,1/2-y,z
loop_
_atom_site_type_symbol
_atom_site_label
_atom_site_fract_x
_atom_site_fract_y
_atom_site_fract_z
Si Si1 0.976028 0.657745 0.932737
Si Si2 0.217464 0.342130 0.214079
Si Si3 0.006920 0.660923 0.209833
Si Si4 0.277504 0.159051 0.725666
Si Si5 0.887949 0.554967 0.363985
Si Si6 0.791330 0.436648 0.513964
Si Si7 0.341086 0.447025 0.378647
O O1 0.001724 0.750000 0.922488
O O2 0.890390 0.642998 0.834144
O O3 0.065145 0.602210 0.907921
O O4 0.946146 0.646378 0.081264
O O5 0.228916 0.250000 0.234216
O O6 0.254649 0.390720 0.334055
O O7 0.281492 0.372808 0.096464
O O8 0.990623 0.750000 0.252067
O O9 0.116798 0.655665 0.166972
O O10 0.981445 0.602324 0.322847
O O11 0.255605 0.250000 0.752952
O O12 0.195713 0.120363 0.640800
O O13 0.289359 0.108574 0.853827
O O14 0.877122 0.497042 0.482938
O O15 0.865613 0.499543 0.243733
O O16 0.698875 0.494480 0.514279
#
# Coordination Sequence:
#
# PCOD9464695 Si02
#       7
#     8   8   8   8   8   8   8
#     4  10  20  36  59  83 109 145 187 232 281 334
#     4  10  21  38  59  82 112 150 189 227 275 340
#     4  10  21  36  57  83 107 141 190 235 278 332
#     4  10  20  36  58  82 112 149 191 237 281 336
#     4  10  21  35  55  82 112 145 184 235 284 334
#     4  10  21  36  55  81 116 153 184 228 289 334
#     4  10  21  35  56  85 114 144 183 232 281 332
#
# _framework density 22.255027999999999
#
# number of rings (size 3 to 8) (size 9 to 14) (size 15 to 20)
#    0.000    2.000    0.000    3.857    0.000    7.429 
#    0.000    3.571    0.000    6.857    0.000    0.000 
#    0.000    0.000    0.000    0.000    0.000    0.000 
#
# Total GULP energy -312700.661307 kJ/mol
# GULP energy per Si atom -5583.940380 kJ/mol
# Density = 2.220437 g / cm^3
# Si number density = 22.255028 Si / 1000 Ang^3
#
#
#
# Elastic Constant Matrix: (Units=GPa)
#
#
# Indices 1 2 3 4 5 6 
#
# 1 65.4322 42.8728 -4.8727 0.0000 0.0000 0.0000
# 2 42.8728 135.5860 33.8584 0.0000 0.0000 0.0000
# 3 -4.8727 33.8584 40.3607 0.0000 0.0000 0.0000
# 4 0.0000 0.0000 0.0000 13.0474 0.0000 0.0000
# 5 0.0000 0.0000 0.0000 0.0000 23.0392 0.0000
# 6 0.0000 0.0000 0.0000 0.0000 0.0000 40.5493
#
#
#
# Elastic Compliance Matrix: (Units=1/GPa)
#
#
# Indices 1 2 3 4 5 6 
#
# 1 0.022589 -0.009897 0.011030 0.000000 0.000000 0.000000
# 2 -0.009897 0.013666 -0.012659 0.000000 0.000000 0.000000
# 3 0.011030 -0.012659 0.036728 0.000000 0.000000 0.000000
# 4 0.000000 0.000000 0.000000 0.076643 0.000000 0.000000
# 5 0.000000 0.000000 0.000000 0.000000 0.043404 0.000000
# 6 0.000000 0.000000 0.000000 0.000000 0.000000 0.024661
#
#
# Mechanical properties :
#
#
# Convention : Reuss Voigt Hill
#
# Bulk Modulus (GPa) = 20.02798 42.78843 31.40821
# Shear Modulus (GPa) = 19.42583 26.62856 23.02720
#
# Velocity S-wave (km/s) = 2.95765 3.46283 3.22016
# Velocity P-wave (km/s) = 4.54779 5.93771 5.28861
#
# Compressibility (1/GPa) = 0.04993015
#
# Stress axis : x y z
#
# Youngs Moduli (GPa) = 44.26888 73.17330 27.22711
#
# Poissons Ratio (x) = 0.72421 -0.30031
# Poissons Ratio (y) = 0.43814 0.34468
# Poissons Ratio (z) = -0.48828 0.92633
#
# Static dielectric constant tensor:
#      x y z
#    x 1.859460 0.000000 0.000000 
#    y 0.000000 1.802890 0.000000 
#    z 0.000000 0.000000 1.804440 
# 
# From -- ./inp_files/13367.got.cif
#   From: 2010.05.17/outbox.cif.g08.bks.cpg/sg62_7_cif.got.tgz:13367.got - 2010.06.03 15:25:27.
