data_PCOD9464257
_publ_section_title
;
Structure prediction by ZEFSAII (Michael W. Deem and Ramdas Pophale) SiO2 
 PCOD9464257
Probable space group: P N M A
;
_chemical_formula_sum "Si O2"
_cell_formula_units_Z 48
_cell_length_a 22.869021
_cell_length_b 17.662291
_cell_length_c 4.765641
_cell_angle_alpha 90.000000
_cell_angle_beta 90.000000
_cell_angle_gamma 90.000000
_cell_volume 1924.934395
_symmetry_space_group_name_H-M "P N M A"
_symmetry_group_IT_number 62
_symmetry_cell_setting 'orthorhombic'
loop_
_space_group_symop_operation_xyz
x,y,z
1/2-x,-y,1/2+z
1/2+x,1/2-y,1/2-z
-x,1/2+y,-z
-x,-y,-z
1/2+x,y,1/2-z
1/2-x,1/2+y,1/2+z
x,1/2-y,z
loop_
_atom_site_type_symbol
_atom_site_label
_atom_site_fract_x
_atom_site_fract_y
_atom_site_fract_z
Si Si1 0.413505 0.618295 0.848555
Si Si2 0.430379 0.250000 0.727272
Si Si3 0.995913 0.750000 0.726956
Si Si4 0.882635 0.525732 0.194761
Si Si5 0.348789 0.123908 0.980536
Si Si6 0.330328 0.750000 0.104283
Si Si7 0.753152 0.543662 0.188929
Si Si8 0.244292 0.750000 0.632195
O O1 0.461102 0.673349 0.709919
O O2 0.392811 0.556259 0.618978
O O3 0.368886 0.679949 0.986611
O O4 0.430846 0.566535 0.112418
O O5 0.443862 0.250000 0.399212
O O6 0.396328 0.175758 0.829514
O O7 0.491280 0.250000 0.895639
O O8 0.875773 0.439221 0.308407
O O9 0.818689 0.562273 0.270732
O O10 0.307215 0.084158 0.746596
O O11 0.299431 0.179874 0.102151
O O12 0.270150 0.750000 0.938010
O O13 0.302191 0.750000 0.422142
O O14 0.745487 0.465269 0.354873
#
# Coordination Sequence:
#
# PCOD9464257 Si02
#       8
#     8   4   4   8   8   4   8   4
#     4  11  23  41  68  92 123 163 217 284 335 381
#     4  11  26  47  68  88 126 173 216 269 320 394
#     4  11  26  49  68  90 118 163 222 281 344 380
#     4  11  22  39  65 100 132 166 208 266 326 387
#     4  10  24  41  63  95 134 176 214 251 319 395
#     4  11  22  39  62  96 130 175 222 259 320 392
#     4  10  20  34  58  92 133 168 197 241 301 380
#     4  11  24  37  60  94 138 179 214 255 308 406
#
# _framework density 24.935912999999999
#
# number of rings (size 3 to 8) (size 9 to 14) (size 15 to 20)
#    0.000    1.333    0.000    6.000    0.000   16.000 
#    0.000    5.000    0.000    0.000    0.000    0.000 
#    0.000    0.000    0.000    0.000    0.000    0.000 
#
# Total GULP energy -267442.481679 kJ/mol
# GULP energy per Si atom -5571.718368 kJ/mol
# Density = 2.487916 g / cm^3
# Si number density = 24.935913 Si / 1000 Ang^3
#
#
#
# Elastic Constant Matrix: (Units=GPa)
#
#
# Indices 1 2 3 4 5 6 
#
# 1 37.1453 11.8870 -11.7357 0.0000 0.0000 0.0000
# 2 11.8870 119.0905 20.2214 0.0000 0.0000 0.0000
# 3 -11.7357 20.2214 79.8351 0.0000 0.0000 0.0000
# 4 0.0000 0.0000 0.0000 37.5538 0.0000 0.0000
# 5 0.0000 0.0000 0.0000 0.0000 32.9965 0.0000
# 6 0.0000 0.0000 0.0000 0.0000 0.0000 23.9171
#
#
#
# Elastic Compliance Matrix: (Units=1/GPa)
#
#
# Indices 1 2 3 4 5 6 
#
# 1 0.029866 -0.003894 0.005377 0.000000 0.000000 0.000000
# 2 -0.003894 0.009282 -0.002923 0.000000 0.000000 0.000000
# 3 0.005377 -0.002923 0.014057 0.000000 0.000000 0.000000
# 4 0.000000 0.000000 0.000000 0.026628 0.000000 0.000000
# 5 0.000000 0.000000 0.000000 0.000000 0.030306 0.000000
# 6 0.000000 0.000000 0.000000 0.000000 0.000000 0.041811
#
#
# Mechanical properties :
#
#
# Convention : Reuss Voigt Hill
#
# Bulk Modulus (GPa) = 19.87160 30.75739 25.31449
# Shear Modulus (GPa) = 29.13637 33.27336 31.20486
#
# Velocity S-wave (km/s) = 3.42197 3.65685 3.54135
# Velocity P-wave (km/s) = 4.85793 5.49467 5.18608
#
# Compressibility (1/GPa) = 0.05032308
#
# Stress axis : x y z
#
# Youngs Moduli (GPa) = 33.48273 107.73473 71.14067
#
# Poissons Ratio (x) = 0.41952 -0.38250
# Poissons Ratio (y) = 0.13038 0.20798
# Poissons Ratio (z) = -0.18002 0.31496
#
# Static dielectric constant tensor:
#      x y z
#    x 2.020940 0.000000 0.000000 
#    y 0.000000 2.444130 0.000000 
#    z 0.000000 0.000000 1.949610 
# 
# From -- ./inp_files/2775.got.cif
#   From: 2010.05.17/outbox.cif.g08.bks.cpg/sg62_2_cif.got.tgz:2775.got - 2010.06.03 15:25:27.
