data_PCOD9464228
_publ_section_title
;
Structure prediction by ZEFSAII (Michael W. Deem and Ramdas Pophale) SiO2 
 PCOD9464228
Probable space group: P N M A
;
_chemical_formula_sum "Si O2"
_cell_formula_units_Z 40
_cell_length_a 10.914945
_cell_length_b 9.864993
_cell_length_c 20.462707
_cell_angle_alpha 90.000000
_cell_angle_beta 90.000000
_cell_angle_gamma 90.000000
_cell_volume 2203.339493
_symmetry_space_group_name_H-M "P N M A"
_symmetry_group_IT_number 62
_symmetry_cell_setting 'orthorhombic'
loop_
_space_group_symop_operation_xyz
x,y,z
1/2-x,-y,1/2+z
1/2+x,1/2-y,1/2-z
-x,1/2+y,-z
-x,-y,-z
1/2+x,y,1/2-z
1/2-x,1/2+y,1/2+z
x,1/2-y,z
loop_
_atom_site_type_symbol
_atom_site_label
_atom_site_fract_x
_atom_site_fract_y
_atom_site_fract_z
Si Si1 0.382500 0.250000 0.179372
Si Si2 0.390121 0.750000 0.726314
Si Si3 0.399302 0.030256 0.655005
Si Si4 0.895214 0.750000 0.138769
Si Si5 0.312088 0.250000 0.961215
Si Si6 0.679779 0.527413 0.928794
Si Si7 0.767759 0.750000 0.276386
Si Si8 0.941703 0.750000 0.396799
O O1 0.261201 0.250000 0.227388
O O2 0.516149 0.250000 0.212600
O O3 0.367416 0.119347 0.132142
O O4 0.423060 0.614407 0.686793
O O5 0.518566 0.118579 0.642750
O O6 0.312468 0.119862 0.702817
O O7 0.319696 0.007518 0.589830
O O8 0.818107 0.750000 0.073057
O O9 0.808965 0.750000 0.202316
O O10 0.413923 0.250000 0.904886
O O11 0.328964 0.119375 0.007432
O O12 0.609042 0.385867 0.930826
O O13 0.887041 0.750000 0.323683
#
# Coordination Sequence:
#
# PCOD9464228 Si02
#       8
#     4   4   8   4   4   8   4   4
#     4   9  20  36  57  85 119 160 193 245 303 364
#     4  10  20  34  57  85 117 158 203 237 303 363
#     4   9  21  39  58  80 119 160 192 240 301 360
#     4  11  24  36  57  93 117 156 199 247 294 355
#     4  11  23  37  60  89 119 150 204 247 285 358
#     4   9  20  41  59  81 116 161 195 238 305 349
#     4   9  21  38  59  85 120 150 193 241 305 359
#     4  10  20  37  64  87 112 158 194 251 292 347
#
# _framework density 18.154261000000002
#
# number of rings (size 3 to 8) (size 9 to 14) (size 15 to 20)
#    0.000    2.400    0.000    1.800   11.200    0.800 
#    0.000    1.000    0.000    0.000    0.000    0.000 
#    0.000    0.000    0.000    0.000    0.000    0.000 
#
# Total GULP energy -223070.780835 kJ/mol
# GULP energy per Si atom -5576.769521 kJ/mol
# Density = 1.811294 g / cm^3
# Si number density = 18.154261 Si / 1000 Ang^3
#
#
#
# Elastic Constant Matrix: (Units=GPa)
#
#
# Indices 1 2 3 4 5 6 
#
# 1 91.4705 37.8261 44.5189 0.0000 0.0000 0.0000
# 2 37.8261 143.7769 23.8315 0.0000 0.0000 0.0000
# 3 44.5189 23.8315 51.5302 0.0000 0.0000 0.0000
# 4 0.0000 0.0000 0.0000 -6.9214 0.0000 0.0000
# 5 0.0000 0.0000 0.0000 0.0000 15.6012 0.0000
# 6 0.0000 0.0000 0.0000 0.0000 0.0000 187.2482
#
#
#
# Elastic Compliance Matrix: (Units=1/GPa)
#
#
# Indices 1 2 3 4 5 6 
#
# 1 0.019696 -0.002557 -0.015834 0.000000 0.000000 0.000000
# 2 -0.002557 0.007865 -0.001428 0.000000 0.000000 0.000000
# 3 -0.015834 -0.001428 0.033746 0.000000 0.000000 0.000000
# 4 0.000000 0.000000 0.000000 -0.144480 0.000000 0.000000
# 5 0.000000 0.000000 0.000000 0.000000 0.064098 0.000000
# 6 0.000000 0.000000 0.000000 0.000000 0.000000 0.005341
#
#
# Mechanical properties :
#
#
# Convention : Reuss Voigt Hill
#
# Bulk Modulus (GPa) = 46.14883 55.45896 50.80390
# Shear Modulus (GPa) = 150.93779 51.22567 101.08173
#
# Velocity S-wave (km/s) = 9.12810 5.31772 7.46995
# Velocity P-wave (km/s) = 11.68640 8.26555 10.12154
#
# Compressibility (1/GPa) = 0.02166902
#
# Stress axis : x y z
#
# Youngs Moduli (GPa) = 50.77086 127.15034 29.63333
#
# Poissons Ratio (x) = 0.32517 0.46921
# Poissons Ratio (y) = 0.12984 0.04231
# Poissons Ratio (z) = 0.80389 0.18155
#
# Static dielectric constant tensor:
#      x y z
#    x 1.632980 0.000000 0.000000 
#    y 0.000000 1.615390 0.000000 
#    z 0.000000 0.000000 1.596270 
# 
# From -- ./inp_files/25814.got.cif
#   From: 2010.05.17/outbox.cif.g08.bks.cpg/sg62_13_cif.got.tgz:25814.got - 2010.06.03 15:25:27.
