data_PCOD9464493
_publ_section_title
;
Structure prediction by ZEFSAII (Michael W. Deem and Ramdas Pophale) SiO2 
 PCOD9464493
Probable space group: P N M A
;
_chemical_formula_sum "Si O2"
_cell_formula_units_Z 52
_cell_length_a 4.885232
_cell_length_b 18.098259
_cell_length_c 26.399494
_cell_angle_alpha 90.000000
_cell_angle_beta 90.000000
_cell_angle_gamma 90.000000
_cell_volume 2334.089984
_symmetry_space_group_name_H-M "P N M A"
_symmetry_group_IT_number 62
_symmetry_cell_setting 'orthorhombic'
loop_
_space_group_symop_operation_xyz
x,y,z
1/2-x,-y,1/2+z
1/2+x,1/2-y,1/2-z
-x,1/2+y,-z
-x,-y,-z
1/2+x,y,1/2-z
1/2-x,1/2+y,1/2+z
x,1/2-y,z
loop_
_atom_site_type_symbol
_atom_site_label
_atom_site_fract_x
_atom_site_fract_y
_atom_site_fract_z
Si Si1 0.077178 0.487923 0.715658
Si Si2 0.975767 0.750000 0.586897
Si Si3 0.688542 0.539837 0.942243
Si Si4 0.494167 0.250000 0.284588
Si Si5 0.497953 0.750000 0.516908
Si Si6 0.444605 0.169077 0.786659
Si Si7 0.184791 0.593736 0.004631
Si Si8 0.210667 0.876595 0.654361
O O1 0.888907 0.487268 0.765619
O O2 0.005934 0.410405 0.687727
O O3 0.040100 0.566039 0.688247
O O4 0.184766 0.750000 0.537960
O O5 0.034156 0.819336 0.622105
O O6 0.665203 0.750000 0.569603
O O7 0.398328 0.574467 0.959150
O O8 0.815260 0.569493 0.890331
O O9 0.890062 0.565419 0.986669
O O10 0.696853 0.451563 0.947972
O O11 0.682644 0.250000 0.233817
O O12 0.581609 0.324314 0.314691
O O13 0.615725 0.821019 0.488456
O O14 0.143166 0.168061 0.762672
O O15 0.486904 0.250000 0.811830
#
# Coordination Sequence:
#
# PCOD9464493 Si02
#       8
#     8   4   8   4   4   8   8   8
#     4  10  21  34  52  76 105 146 186 228 285 334
#     4  11  24  32  54  85 106 140 200 223 282 316
#     4  10  21  36  54  87 106 151 179 240 277 344
#     4  11  26  41  56  82 118 158 194 248 287 320
#     4  12  18  37  56  83 108 148 176 237 269 354
#     4   8  14  27  47  70  91 117 162 214 263 317
#     4  10  20  35  58  80 119 133 191 228 291 339
#     4  11  22  38  57  78 115 149 194 238 274 350
#
# _framework density 22.278490000000001
#
# number of rings (size 3 to 8) (size 9 to 14) (size 15 to 20)
#    0.000    1.846    3.077    0.923    0.000    6.154 
#    0.000    0.000    1.692    0.000    0.000    0.000 
#    0.000    0.000    0.000    0.000    0.000    0.000 
#
# Total GULP energy -289772.926016 kJ/mol
# GULP energy per Si atom -5572.556270 kJ/mol
# Density = 2.222778 g / cm^3
# Si number density = 22.278490 Si / 1000 Ang^3
#
#
#
# Elastic Constant Matrix: (Units=GPa)
#
#
# Indices 1 2 3 4 5 6 
#
# 1 71.1292 3.3527 -4.4974 0.0000 0.0000 0.0000
# 2 3.3527 173.2777 33.6665 0.0000 0.0000 0.0000
# 3 -4.4974 33.6665 44.0084 0.0000 0.0000 0.0000
# 4 0.0000 0.0000 0.0000 39.0836 0.0000 0.0000
# 5 0.0000 0.0000 0.0000 0.0000 10.3141 0.0000
# 6 0.0000 0.0000 0.0000 0.0000 0.0000 -9.3926
#
#
#
# Elastic Compliance Matrix: (Units=1/GPa)
#
#
# Indices 1 2 3 4 5 6 
#
# 1 0.014213 -0.000655 0.001953 0.000000 0.000000 0.000000
# 2 -0.000655 0.006809 -0.005276 0.000000 0.000000 0.000000
# 3 0.001953 -0.005276 0.026958 0.000000 0.000000 0.000000
# 4 0.000000 0.000000 0.000000 0.025586 0.000000 0.000000
# 5 0.000000 0.000000 0.000000 0.000000 0.096955 0.000000
# 6 0.000000 0.000000 0.000000 0.000000 0.000000 -0.106467
#
#
# Mechanical properties :
#
#
# Convention : Reuss Voigt Hill
#
# Bulk Modulus (GPa) = 24.98333 39.27321 32.12827
# Shear Modulus (GPa) = 58.58187 25.06058 41.82122
#
# Velocity S-wave (km/s) = 5.13345 3.35756 4.33737
# Velocity P-wave (km/s) = 6.80991 5.71817 6.28778
#
# Compressibility (1/GPa) = 0.04002669
#
# Stress axis : x y z
#
# Youngs Moduli (GPa) = 70.35673 146.86972 37.09416
#
# Poissons Ratio (x) = 0.09613 -0.07245
# Poissons Ratio (y) = 0.04605 0.19569
# Poissons Ratio (z) = -0.13742 0.77483
#
# Static dielectric constant tensor:
#      x y z
#    x 1.790940 0.000000 0.000000 
#    y 0.000000 2.066800 0.000000 
#    z 0.000000 0.000000 1.862760 
# 
# From -- ./inp_files/30495.got.cif
#   From: 2010.05.17/outbox.cif.g08.bks.cpg/sg62_16_cif.got.tgz:30495.got - 2010.06.03 15:25:27.
