data_PCOD9464609
_publ_section_title
;
Structure prediction by ZEFSAII (Michael W. Deem and Ramdas Pophale) SiO2 
 PCOD9464609
Probable space group: P N M A
;
_chemical_formula_sum "Si O2"
_cell_formula_units_Z 56
_cell_length_a 9.591419
_cell_length_b 14.925479
_cell_length_c 17.423820
_cell_angle_alpha 90.000000
_cell_angle_beta 90.000000
_cell_angle_gamma 90.000000
_cell_volume 2494.333486
_symmetry_space_group_name_H-M "P N M A"
_symmetry_group_IT_number 62
_symmetry_cell_setting 'orthorhombic'
loop_
_space_group_symop_operation_xyz
x,y,z
1/2-x,-y,1/2+z
1/2+x,1/2-y,1/2-z
-x,1/2+y,-z
-x,-y,-z
1/2+x,y,1/2-z
1/2-x,1/2+y,1/2+z
x,1/2-y,z
loop_
_atom_site_type_symbol
_atom_site_label
_atom_site_fract_x
_atom_site_fract_y
_atom_site_fract_z
Si Si1 0.990633 0.848200 0.854947
Si Si2 0.706463 0.150848 0.214969
Si Si3 0.073129 0.966903 0.293702
Si Si4 0.538444 0.535568 0.389414
Si Si5 0.062662 0.646948 0.521380
Si Si6 0.351767 0.542172 0.080105
Si Si7 0.721647 0.349405 0.618950
O O1 0.997944 0.750000 0.891390
O O2 0.851225 0.850560 0.802277
O O3 0.127816 0.857084 0.799540
O O4 0.991296 0.932296 0.910617
O O5 0.667375 0.250000 0.185420
O O6 0.627721 0.065513 0.180052
O O7 0.042606 0.966582 0.203937
O O8 0.200690 0.901944 0.313409
O O9 0.938680 0.938873 0.342482
O O10 0.690126 0.563482 0.415914
O O11 0.411930 0.598076 0.410323
O O12 0.047784 0.750000 0.550707
O O13 0.128541 0.565383 0.569918
O O14 0.166334 0.653806 0.448997
O O15 0.922585 0.600851 0.487214
O O16 0.682607 0.250000 0.643306
#
# Coordination Sequence:
#
# PCOD9464609 Si02
#       7
#     8   8   8   8   8   8   8
#     4   9  18  30  46  73 111 153 186 219 270 339
#     4   9  17  29  47  71 107 153 188 217 265 335
#     4  10  20  36  55  86 124 156 184 231 290 362
#     4  11  21  34  57  90 122 152 185 237 296 360
#     4   9  21  44  64  81 109 151 204 253 288 329
#     4  10  22  37  63  89 113 153 199 237 288 345
#     4  10  21  38  58  79 112 155 197 246 295 335
#
# _framework density 22.450886000000001
#
# number of rings (size 3 to 8) (size 9 to 14) (size 15 to 20)
#    0.000    2.286    1.429    0.857    6.000    2.857 
#    0.000    2.857    0.000    0.000    0.000    0.000 
#    0.000    0.000    0.000    0.000    0.000    0.000 
#
# Total GULP energy -312687.438065 kJ/mol
# GULP energy per Si atom -5583.704251 kJ/mol
# Density = 2.239979 g / cm^3
# Si number density = 22.450886 Si / 1000 Ang^3
#
#
#
# Elastic Constant Matrix: (Units=GPa)
#
#
# Indices 1 2 3 4 5 6 
#
# 1 87.4131 47.9548 0.0092 0.0000 0.0000 0.0000
# 2 47.9548 138.9732 -4.7965 0.0000 0.0000 0.0000
# 3 0.0092 -4.7965 31.1011 0.0000 0.0000 0.0000
# 4 0.0000 0.0000 0.0000 15.0134 0.0000 0.0000
# 5 0.0000 0.0000 0.0000 0.0000 12.4912 0.0000
# 6 0.0000 0.0000 0.0000 0.0000 0.0000 8.9665
#
#
#
# Elastic Compliance Matrix: (Units=1/GPa)
#
#
# Indices 1 2 3 4 5 6 
#
# 1 0.014129 -0.004902 -0.000760 0.000000 0.000000 0.000000
# 2 -0.004902 0.008935 0.001379 0.000000 0.000000 0.000000
# 3 -0.000760 0.001379 0.032366 0.000000 0.000000 0.000000
# 4 0.000000 0.000000 0.000000 0.066607 0.000000 0.000000
# 5 0.000000 0.000000 0.000000 0.000000 0.080056 0.000000
# 6 0.000000 0.000000 0.000000 0.000000 0.000000 0.111526
#
#
# Mechanical properties :
#
#
# Convention : Reuss Voigt Hill
#
# Bulk Modulus (GPa) = 21.33786 38.20248 29.77017
# Shear Modulus (GPa) = 14.80141 21.58222 18.19182
#
# Velocity S-wave (km/s) = 2.57043 3.10386 2.84965
# Velocity P-wave (km/s) = 4.28186 5.46793 4.91083
#
# Compressibility (1/GPa) = 0.04686505
#
# Stress axis : x y z
#
# Youngs Moduli (GPa) = 70.77603 111.92386 30.89642
#
# Poissons Ratio (x) = 0.54862 0.02349
# Poissons Ratio (y) = 0.34692 -0.04262
# Poissons Ratio (z) = 0.05380 -0.15439
#
# Static dielectric constant tensor:
#      x y z
#    x 1.800390 0.000000 0.000000 
#    y 0.000000 1.880730 0.000000 
#    z 0.000000 0.000000 1.838910 
# 
# From -- ./inp_files/25990.got.cif
#   From: 2010.05.17/outbox.cif.g08.bks.cpg/sg62_13_cif.got.tgz:25990.got - 2010.06.03 15:25:27.
