data_PCOD9464046
_publ_section_title
;
Structure prediction by ZEFSAII (Michael W. Deem and Ramdas Pophale) SiO2 
 PCOD9464046
Probable space group: P N M A
;
_chemical_formula_sum "Si O2"
_cell_formula_units_Z 64
_cell_length_a 11.859246
_cell_length_b 8.958340
_cell_length_c 33.918756
_cell_angle_alpha 90.000000
_cell_angle_beta 90.000000
_cell_angle_gamma 90.000000
_cell_volume 3603.500071
_symmetry_space_group_name_H-M "P N M A"
_symmetry_group_IT_number 62
_symmetry_cell_setting 'orthorhombic'
loop_
_space_group_symop_operation_xyz
x,y,z
1/2-x,-y,1/2+z
1/2+x,1/2-y,1/2-z
-x,1/2+y,-z
-x,-y,-z
1/2+x,y,1/2-z
1/2-x,1/2+y,1/2+z
x,1/2-y,z
loop_
_atom_site_type_symbol
_atom_site_label
_atom_site_fract_x
_atom_site_fract_y
_atom_site_fract_z
Si Si1 0.587875 0.071893 0.444771
Si Si2 0.791580 0.070251 0.870115
Si Si3 0.338877 0.070395 0.475013
Si Si4 0.532790 0.070342 0.865365
Si Si5 0.826570 0.929366 0.592630
Si Si6 0.191947 0.928329 0.828238
Si Si7 0.899664 0.070114 0.713547
Si Si8 0.039733 0.929383 0.198055
O O1 0.597873 0.250000 0.443030
O O2 0.455735 0.035703 0.452015
O O3 0.637515 0.000428 0.405485
O O4 0.652872 0.008562 0.482937
O O5 0.475115 0.250000 0.697321
O O6 0.661438 0.021066 0.870758
O O7 0.852274 0.034141 0.828838
O O8 0.335842 0.250000 0.480510
O O9 0.233503 0.025509 0.447943
O O10 0.529396 0.250000 0.868268
O O11 0.485541 0.030620 0.821832
O O12 0.445588 0.002434 0.896700
O O13 0.838820 0.750000 0.592435
O O14 0.741876 0.967526 0.628674
O O15 0.188362 0.750000 0.825365
O O16 0.281237 0.995204 0.797314
O O17 0.069943 0.995635 0.820503
O O18 0.885896 0.250000 0.713345
O O19 0.942515 0.025380 0.756603
O O20 0.206731 0.750000 0.125667
#
# Coordination Sequence:
#
# PCOD9464046 Si02
#       8
#     8   8   8   8   8   8   8   8
#     4  10  20  34  54  82 111 140 173 215 266 318
#     4  10  21  36  53  77 108 142 177 217 268 319
#     4   9  18  34  56  80 108 139 172 216 265 313
#     4   9  19  35  54  76 104 138 177 223 266 308
#     4   9  18  34  55  77 103 139 176 213 263 317
#     4  10  20  34  52  77 110 137 168 217 268 320
#     4   9  19  35  56  77 101 136 181 225 263 310
#     4  10  21  34  55  79 102 138 181 223 264 314
#
# _framework density 17.760511000000001
#
# number of rings (size 3 to 8) (size 9 to 14) (size 15 to 20)
#    0.000    2.500    0.000    1.500    1.750    4.000 
#    0.000    0.625    0.000    0.000    0.000    0.000 
#    0.000    0.000    0.000    0.000    0.000    0.000 
#
# Total GULP energy -357111.074416 kJ/mol
# GULP energy per Si atom -5579.860538 kJ/mol
# Density = 1.772009 g / cm^3
# Si number density = 17.760511 Si / 1000 Ang^3
#
#
#
# Elastic Constant Matrix: (Units=GPa)
#
#
# Indices 1 2 3 4 5 6 
#
# 1 54.2014 14.0707 12.3474 0.0000 0.0000 0.0000
# 2 14.0707 8.2363 14.1855 0.0000 0.0000 0.0000
# 3 12.3474 14.1855 62.5566 0.0000 0.0000 0.0000
# 4 0.0000 0.0000 0.0000 24.9352 0.0000 0.0000
# 5 0.0000 0.0000 0.0000 0.0000 15.9925 0.0000
# 6 0.0000 0.0000 0.0000 0.0000 0.0000 27.3295
#
#
#
# Elastic Compliance Matrix: (Units=1/GPa)
#
#
# Indices 1 2 3 4 5 6 
#
# 1 0.037797 -0.084870 0.011785 0.000000 0.000000 0.000000
# 2 -0.084870 0.389789 -0.071638 0.000000 0.000000 0.000000
# 3 0.011785 -0.071638 0.029904 0.000000 0.000000 0.000000
# 4 0.000000 0.000000 0.000000 0.040104 0.000000 0.000000
# 5 0.000000 0.000000 0.000000 0.000000 0.062529 0.000000
# 6 0.000000 0.000000 0.000000 0.000000 0.000000 0.036590
#
#
# Mechanical properties :
#
#
# Convention : Reuss Voigt Hill
#
# Bulk Modulus (GPa) = 5.95080 22.91128 14.43104
# Shear Modulus (GPa) = 5.30687 19.27750 12.29218
#
# Velocity S-wave (km/s) = 1.73046 3.29814 2.63365
# Velocity P-wave (km/s) = 2.71118 5.23753 4.17027
#
# Compressibility (1/GPa) = 0.16804460
#
# Stress axis : x y z
#
# Youngs Moduli (GPa) = 26.45689 2.56549 33.44006
#
# Poissons Ratio (x) = 0.21773 -0.39409
# Poissons Ratio (y) = 2.24539 2.39558
# Poissons Ratio (z) = -0.31179 0.18379
#
# Static dielectric constant tensor:
#      x y z
#    x 1.588460 0.000000 0.000000 
#    y 0.000000 1.593380 0.000000 
#    z 0.000000 0.000000 1.596270 
# 
# From -- ./inp_files/32453.got.cif
#   From: 2010.05.17/outbox.cif.g08.bks.cpg/sg62_17_cif.got.tgz:32453.got - 2010.06.03 15:25:27.
