data_PCOD9464996
_publ_section_title
;
Structure prediction by ZEFSAII (Michael W. Deem and Ramdas Pophale) SiO2 
 PCOD9464996
Probable space group: P N M A
;
_chemical_formula_sum "Si O2"
_cell_formula_units_Z 56
_cell_length_a 15.681077
_cell_length_b 19.800710
_cell_length_c 9.624912
_cell_angle_alpha 90.000000
_cell_angle_beta 90.000000
_cell_angle_gamma 90.000000
_cell_volume 2988.501086
_symmetry_space_group_name_H-M "P N M A"
_symmetry_group_IT_number 62
_symmetry_cell_setting 'orthorhombic'
loop_
_space_group_symop_operation_xyz
x,y,z
1/2-x,-y,1/2+z
1/2+x,1/2-y,1/2-z
-x,1/2+y,-z
-x,-y,-z
1/2+x,y,1/2-z
1/2-x,1/2+y,1/2+z
x,1/2-y,z
loop_
_atom_site_type_symbol
_atom_site_label
_atom_site_fract_x
_atom_site_fract_y
_atom_site_fract_z
Si Si1 0.822256 0.129847 0.365974
Si Si2 0.256950 0.422578 0.611564
Si Si3 0.868592 0.326626 0.073804
Si Si4 0.155331 0.054392 0.198901
Si Si5 0.398778 0.997681 0.996831
Si Si6 0.937032 0.828630 0.960450
Si Si7 0.728801 0.175088 0.636009
O O1 0.740673 0.098277 0.287824
O O2 0.783048 0.172568 0.492818
O O3 0.870528 0.069370 0.441819
O O4 0.874778 0.162648 0.240785
O O5 0.300594 0.374230 0.499934
O O6 0.313169 0.491323 0.605723
O O7 0.159020 0.443689 0.581675
O O8 0.257300 0.383321 0.758723
O O9 0.841771 0.250000 0.050654
O O10 0.962919 0.336276 0.009178
O O11 0.126416 0.019659 0.339727
O O12 0.088604 0.108619 0.138607
O O13 0.500000 0.000000 0.000000
O O14 0.925982 0.750000 0.907791
O O15 0.869441 0.834490 0.086745
O O16 0.737860 0.250000 0.698345
#
# Coordination Sequence:
#
# PCOD9464996 Si02
#       7
#     8   8   8   8   8   8   8
#     4  10  20  37  62  84 120 159 198 244 300 359
#     4  11  23  38  61  88 120 159 200 250 304 353
#     4  11  22  39  62  93 123 155 204 254 297 358
#     4  10  20  38  59  87 118 154 201 243 296 360
#     4  11  22  37  58  87 122 152 198 253 296 349
#     4   9  21  38  62  88 121 161 200 245 305 366
#     4  10  20  39  60  84 121 163 200 243 304 370
#
# _framework density 18.738489999999999
#
# number of rings (size 3 to 8) (size 9 to 14) (size 15 to 20)
#    0.000    1.714    2.857    1.714    0.000    2.286 
#    0.000    0.000    0.000    1.714    0.000    0.000 
#    0.000    0.000    0.000    0.000    0.000    0.000 
#
# Total GULP energy -311814.823137 kJ/mol
# GULP energy per Si atom -5568.121842 kJ/mol
# Density = 1.869584 g / cm^3
# Si number density = 18.738490 Si / 1000 Ang^3
#
#
#
# Elastic Constant Matrix: (Units=GPa)
#
#
# Indices 1 2 3 4 5 6 
#
# 1 72.7717 34.9305 26.6130 0.0000 0.0000 0.0000
# 2 34.9305 96.7031 36.7808 0.0000 0.0000 0.0000
# 3 26.6130 36.7808 70.7193 0.0000 0.0000 0.0000
# 4 0.0000 0.0000 0.0000 25.7658 0.0000 0.0000
# 5 0.0000 0.0000 0.0000 0.0000 11.3555 0.0000
# 6 0.0000 0.0000 0.0000 0.0000 0.0000 37.0895
#
#
#
# Elastic Compliance Matrix: (Units=1/GPa)
#
#
# Indices 1 2 3 4 5 6 
#
# 1 0.017537 -0.004768 -0.004120 0.000000 0.000000 0.000000
# 2 -0.004768 0.014187 -0.005585 0.000000 0.000000 0.000000
# 3 -0.004120 -0.005585 0.018595 0.000000 0.000000 0.000000
# 4 0.000000 0.000000 0.000000 0.038811 0.000000 0.000000
# 5 0.000000 0.000000 0.000000 0.000000 0.088063 0.000000
# 6 0.000000 0.000000 0.000000 0.000000 0.000000 0.026962
#
#
# Mechanical properties :
#
#
# Convention : Reuss Voigt Hill
#
# Bulk Modulus (GPa) = 46.78303 48.53810 47.66057
# Shear Modulus (GPa) = 20.81392 24.30014 22.55703
#
# Velocity S-wave (km/s) = 3.33642 3.60502 3.47332
# Velocity P-wave (km/s) = 6.31369 6.57931 6.44787
#
# Compressibility (1/GPa) = 0.02137527
#
# Stress axis : x y z
#
# Youngs Moduli (GPa) = 57.02340 70.48655 53.77712
#
# Poissons Ratio (x) = 0.33605 0.22155
# Poissons Ratio (y) = 0.27186 0.30032
# Poissons Ratio (z) = 0.23493 0.39363
#
# Static dielectric constant tensor:
#      x y z
#    x 1.657760 0.000000 0.000000 
#    y 0.000000 1.663530 0.000000 
#    z 0.000000 0.000000 1.650970 
# 
# From -- ./inp_files/6758.got.cif
#   From: 2010.05.17/outbox.cif.g08.bks.cpg/sg62_4_cif.got.tgz:6758.got - 2010.06.03 15:25:27.
