data_PCOD9464677
_publ_section_title
;
Structure prediction by ZEFSAII (Michael W. Deem and Ramdas Pophale) SiO2 
 PCOD9464677
Probable space group: P N M A
;
_chemical_formula_sum "Si O2"
_cell_formula_units_Z 48
_cell_length_a 7.886001
_cell_length_b 8.610554
_cell_length_c 28.343288
_cell_angle_alpha 90.000000
_cell_angle_beta 90.000000
_cell_angle_gamma 90.000000
_cell_volume 1924.589678
_symmetry_space_group_name_H-M "P N M A"
_symmetry_group_IT_number 62
_symmetry_cell_setting 'orthorhombic'
loop_
_space_group_symop_operation_xyz
x,y,z
1/2-x,-y,1/2+z
1/2+x,1/2-y,1/2-z
-x,1/2+y,-z
-x,-y,-z
1/2+x,y,1/2-z
1/2-x,1/2+y,1/2+z
x,1/2-y,z
loop_
_atom_site_type_symbol
_atom_site_label
_atom_site_fract_x
_atom_site_fract_y
_atom_site_fract_z
Si Si1 0.441625 0.068476 0.260934
Si Si2 0.953763 0.068947 0.401559
Si Si3 0.909184 0.572351 0.067143
Si Si4 0.368560 0.436754 0.653738
Si Si5 0.635064 0.570318 0.182174
Si Si6 0.224252 0.073232 0.514105
O O1 0.450273 0.250000 0.248968
O O2 0.589482 0.016330 0.297051
O O3 0.469035 0.964074 0.214537
O O4 0.274577 0.032315 0.291293
O O5 0.988964 0.250000 0.396667
O O6 0.781964 0.021134 0.373696
O O7 0.091935 0.973918 0.371494
O O8 0.905995 0.028911 0.455574
O O9 0.852359 0.750000 0.061924
O O10 0.964685 0.542388 0.120559
O O11 0.092123 0.560335 0.040407
O O12 0.775313 0.468253 0.039253
O O13 0.339140 0.250000 0.657024
O O14 0.683115 0.750000 0.185433
O O15 0.167834 0.250000 0.518380
#
# Coordination Sequence:
#
# PCOD9464677 Si02
#       6
#     8   8   8   8   8   8
#     4  12  25  42  62  87 115 145 184 230 280 333
#     4  11  21  35  56  84 116 150 189 235 283 330
#     4   8  15  27  46  74 109 146 186 230 273 321
#     4  10  20  36  57  84 116 152 191 231 279 333
#     4  12  25  43  63  84 112 148 187 228 278 335
#     4   9  16  27  46  75 110 147 187 230 277 328
#
# _framework density 24.940382
#
# number of rings (size 3 to 8) (size 9 to 14) (size 15 to 20)
#    0.000    1.667    0.000    7.500    0.000    4.667 
#    0.000    0.000    0.000    1.000    0.000    0.000 
#    0.000    0.000    0.000    0.000    0.000    0.000 
#
# Total GULP energy -268853.202933 kJ/mol
# GULP energy per Si atom -5601.108394 kJ/mol
# Density = 2.488362 g / cm^3
# Si number density = 24.940382 Si / 1000 Ang^3
#
#
#
# Elastic Constant Matrix: (Units=GPa)
#
#
# Indices 1 2 3 4 5 6 
#
# 1 73.8474 -2.4022 -10.8015 0.0000 0.0000 0.0000
# 2 -2.4022 85.2449 10.6445 0.0000 0.0000 0.0000
# 3 -10.8015 10.6445 130.4452 0.0000 0.0000 0.0000
# 4 0.0000 0.0000 0.0000 38.0967 0.0000 0.0000
# 5 0.0000 0.0000 0.0000 0.0000 43.2982 0.0000
# 6 0.0000 0.0000 0.0000 0.0000 0.0000 29.6901
#
#
#
# Elastic Compliance Matrix: (Units=1/GPa)
#
#
# Indices 1 2 3 4 5 6 
#
# 1 0.013713 0.000247 0.001115 0.000000 0.000000 0.000000
# 2 0.000247 0.011856 -0.000947 0.000000 0.000000 0.000000
# 3 0.001115 -0.000947 0.007836 0.000000 0.000000 0.000000
# 4 0.000000 0.000000 0.000000 0.026249 0.000000 0.000000
# 5 0.000000 0.000000 0.000000 0.000000 0.023096 0.000000
# 6 0.000000 0.000000 0.000000 0.000000 0.000000 0.033681
#
#
# Mechanical properties :
#
#
# Convention : Reuss Voigt Hill
#
# Bulk Modulus (GPa) = 29.20963 31.60214 30.40588
# Shear Modulus (GPa) = 39.36660 41.69011 40.52835
#
# Velocity S-wave (km/s) = 3.97725 4.09294 4.03551
# Velocity P-wave (km/s) = 5.72962 5.91902 5.82509
#
# Compressibility (1/GPa) = 0.03423529
#
# Stress axis : x y z
#
# Youngs Moduli (GPa) = 72.92562 84.34463 127.62124
#
# Poissons Ratio (x) = -0.02085 -0.14234
# Poissons Ratio (y) = -0.01802 0.12086
# Poissons Ratio (z) = -0.08133 0.07988
#
# Static dielectric constant tensor:
#      x y z
#    x 2.099110 0.000000 0.000000 
#    y 0.000000 1.816450 0.000000 
#    z 0.000000 0.000000 2.066170 
# 
# From -- ./inp_files/31948.got.cif
#   From: 2010.05.17/outbox.cif.g08.bks.cpg/sg62_16_cif.got.tgz:31948.got - 2010.06.03 15:25:27.
