data_PCOD9464378
_publ_section_title
;
Structure prediction by ZEFSAII (Michael W. Deem and Ramdas Pophale) SiO2 
 PCOD9464378
Probable space group: P N M A
;
_chemical_formula_sum "Si O2"
_cell_formula_units_Z 64
_cell_length_a 23.014930
_cell_length_b 8.035908
_cell_length_c 16.537057
_cell_angle_alpha 90.000000
_cell_angle_beta 90.000000
_cell_angle_gamma 90.000000
_cell_volume 3058.460230
_symmetry_space_group_name_H-M "P N M A"
_symmetry_group_IT_number 62
_symmetry_cell_setting 'orthorhombic'
loop_
_space_group_symop_operation_xyz
x,y,z
1/2-x,-y,1/2+z
1/2+x,1/2-y,1/2-z
-x,1/2+y,-z
-x,-y,-z
1/2+x,y,1/2-z
1/2-x,1/2+y,1/2+z
x,1/2-y,z
loop_
_atom_site_type_symbol
_atom_site_label
_atom_site_fract_x
_atom_site_fract_y
_atom_site_fract_z
Si Si1 0.506950 0.442885 0.235514
Si Si2 0.322295 0.555829 0.055852
Si Si3 0.149145 0.443645 0.920932
Si Si4 0.727667 0.550152 0.113888
Si Si5 0.047160 0.054351 0.567716
Si Si6 0.132955 0.948764 0.252760
Si Si7 0.198394 0.952807 0.092142
Si Si8 0.521455 0.560976 0.587918
O O1 0.488485 0.250000 0.237556
O O2 0.475283 0.523272 0.158804
O O3 0.575485 0.457672 0.220870
O O4 0.497746 0.518204 0.326016
O O5 0.327618 0.750000 0.078268
O O6 0.387119 0.480923 0.060669
O O7 0.265547 0.492138 0.104858
O O8 0.299214 0.538101 0.964222
O O9 0.135406 0.250000 0.905220
O O10 0.205535 0.497086 0.869931
O O11 0.091014 0.546996 0.911134
O O12 0.172961 0.466221 0.011656
O O13 0.728152 0.750000 0.097681
O O14 0.685972 0.517779 0.187884
O O15 0.052616 0.250000 0.554186
O O16 0.000000 0.000000 0.500000
O O17 0.120928 0.750000 0.254899
O O18 0.155270 0.994475 0.164316
O O19 0.198732 0.750000 0.083143
O O20 0.500000 0.500000 0.500000
O O21 0.500578 0.750000 0.591650
#
# Coordination Sequence:
#
# PCOD9464378 Si02
#       8
#     8   8   8   8   8   8   8   8
#     4  11  25  41  57  83 117 151 193 241 286 342
#     4   9  19  35  55  80 108 142 184 227 275 332
#     4  10  20  35  56  82 112 145 183 226 277 337
#     4   9  19  34  54  81 110 141 179 226 277 333
#     4  11  23  39  61  87 118 156 195 237 286 339
#     4  10  20  35  56  80 106 140 182 228 281 336
#     4   9  18  34  56  80 108 141 180 228 280 336
#     4  11  24  41  61  85 116 154 195 241 291 343
#
# _framework density 20.925563
#
# number of rings (size 3 to 8) (size 9 to 14) (size 15 to 20)
#    0.000    2.000    0.000    3.000    0.000    9.500 
#    0.000    2.500    0.000    0.000    0.000    0.000 
#    0.000    0.000    0.000    0.000    0.000    0.000 
#
# Total GULP energy -356958.499163 kJ/mol
# GULP energy per Si atom -5577.476549 kJ/mol
# Density = 2.087794 g / cm^3
# Si number density = 20.925563 Si / 1000 Ang^3
#
#
#
# Elastic Constant Matrix: (Units=GPa)
#
#
# Indices 1 2 3 4 5 6 
#
# 1 69.7967 -3.8234 -6.3186 0.0000 0.0000 0.0000
# 2 -3.8234 9.6525 -3.9387 0.0000 0.0000 0.0000
# 3 -6.3186 -3.9387 40.4798 0.0000 0.0000 0.0000
# 4 0.0000 0.0000 0.0000 22.5643 0.0000 0.0000
# 5 0.0000 0.0000 0.0000 0.0000 29.5274 0.0000
# 6 0.0000 0.0000 0.0000 0.0000 0.0000 18.1247
#
#
#
# Elastic Compliance Matrix: (Units=1/GPa)
#
#
# Indices 1 2 3 4 5 6 
#
# 1 0.014996 0.007180 0.003039 0.000000 0.000000 0.000000
# 2 0.007180 0.111322 0.011952 0.000000 0.000000 0.000000
# 3 0.003039 0.011952 0.026341 0.000000 0.000000 0.000000
# 4 0.000000 0.000000 0.000000 0.044318 0.000000 0.000000
# 5 0.000000 0.000000 0.000000 0.000000 0.033867 0.000000
# 6 0.000000 0.000000 0.000000 0.000000 0.000000 0.055173
#
#
# Mechanical properties :
#
#
# Convention : Reuss Voigt Hill
#
# Bulk Modulus (GPa) = 5.07607 10.19640 7.63624
# Shear Modulus (GPa) = 16.26861 22.97726 19.62294
#
# Velocity S-wave (km/s) = 2.79131 3.31727 3.06559
# Velocity P-wave (km/s) = 3.58044 4.42218 4.02339
#
# Compressibility (1/GPa) = 0.19700266
#
# Stress axis : x y z
#
# Youngs Moduli (GPa) = 66.68535 8.98296 37.96353
#
# Poissons Ratio (x) = -0.06450 -0.11538
# Poissons Ratio (y) = -0.47881 -0.45376
# Poissons Ratio (z) = -0.20268 -0.10737
#
# Static dielectric constant tensor:
#      x y z
#    x 1.784330 0.000000 0.000000 
#    y 0.000000 1.800930 0.000000 
#    z 0.000000 0.000000 1.749370 
# 
# From -- ./inp_files/20881.got.cif
#   From: 2010.05.17/outbox.cif.g08.bks.cpg/sg62_11_cif.got.tgz:20881.got - 2010.06.03 15:25:27.
