data_PCOD9464380
_publ_section_title
;
Structure prediction by ZEFSAII (Michael W. Deem and Ramdas Pophale) SiO2 
 PCOD9464380
Probable space group: P N M A
;
_chemical_formula_sum "Si O2"
_cell_formula_units_Z 40
_cell_length_a 13.811848
_cell_length_b 8.934254
_cell_length_c 18.496956
_cell_angle_alpha 90.000000
_cell_angle_beta 90.000000
_cell_angle_gamma 90.000000
_cell_volume 2282.497702
_symmetry_space_group_name_H-M "P N M A"
_symmetry_group_IT_number 62
_symmetry_cell_setting 'orthorhombic'
loop_
_space_group_symop_operation_xyz
x,y,z
1/2-x,-y,1/2+z
1/2+x,1/2-y,1/2-z
-x,1/2+y,-z
-x,-y,-z
1/2+x,y,1/2-z
1/2-x,1/2+y,1/2+z
x,1/2-y,z
loop_
_atom_site_type_symbol
_atom_site_label
_atom_site_fract_x
_atom_site_fract_y
_atom_site_fract_z
Si Si1 0.907928 0.429857 0.671550
Si Si2 0.625034 0.429287 0.874137
Si Si3 0.403954 0.929149 0.532215
Si Si4 0.181974 0.429447 0.185830
Si Si5 0.807137 0.430290 0.520896
O O1 0.900351 0.250000 0.680847
O O2 0.864678 0.509884 0.741231
O O3 0.849479 0.470040 0.598755
O O4 0.020366 0.467126 0.658266
O O5 0.634696 0.250000 0.875421
O O6 0.712594 0.500498 0.828744
O O7 0.635840 0.492250 0.955387
O O8 0.412951 0.750000 0.529031
O O9 0.382564 0.971177 0.615544
O O10 0.305944 0.970511 0.488912
O O11 0.500000 0.000000 0.500000
O O12 0.190087 0.250000 0.187027
O O13 0.815114 0.250000 0.511844
#
# Coordination Sequence:
#
# PCOD9464380 Si02
#       5
#     8   8   8   8   8
#     4  10  21  36  56  82 109 139 178 224 271 318
#     4  10  20  35  56  80 107 140 177 220 271 322
#     4   9  19  35  54  75 102 138 176 217 262 309
#     4  10  22  38  54  77 110 144 179 221 268 319
#     4   9  19  36  55  78 108 139 176 220 266 320
#
# _framework density 17.524661999999999
#
# number of rings (size 3 to 8) (size 9 to 14) (size 15 to 20)
#    0.000    2.400    0.000    3.000    0.000    8.000 
#    0.000    6.000    0.000    0.000    0.000    0.000 
#    0.000    0.000    0.000    0.000    0.000    0.000 
#
# Total GULP energy -223264.935720 kJ/mol
# GULP energy per Si atom -5581.623393 kJ/mol
# Density = 1.748477 g / cm^3
# Si number density = 17.524662 Si / 1000 Ang^3
#
#
#
# Elastic Constant Matrix: (Units=GPa)
#
#
# Indices 1 2 3 4 5 6 
#
# 1 148.5185 62.4467 133.3871 0.0000 0.0000 0.0000
# 2 62.4467 41.8601 66.6266 0.0000 0.0000 0.0000
# 3 133.3871 66.6266 169.7607 0.0000 0.0000 0.0000
# 4 0.0000 0.0000 0.0000 35.9487 0.0000 0.0000
# 5 0.0000 0.0000 0.0000 0.0000 22.0183 0.0000
# 6 0.0000 0.0000 0.0000 0.0000 0.0000 25.4968
#
#
#
# Elastic Compliance Matrix: (Units=1/GPa)
#
#
# Indices 1 2 3 4 5 6 
#
# 1 0.026864 -0.017263 -0.014333 0.000000 0.000000 0.000000
# 2 -0.017263 0.074743 -0.015770 0.000000 0.000000 0.000000
# 3 -0.014333 -0.015770 0.023342 0.000000 0.000000 0.000000
# 4 0.000000 0.000000 0.000000 0.027817 0.000000 0.000000
# 5 0.000000 0.000000 0.000000 0.000000 0.045417 0.000000
# 6 0.000000 0.000000 0.000000 0.000000 0.000000 0.039221
#
#
# Mechanical properties :
#
#
# Convention : Reuss Voigt Hill
#
# Bulk Modulus (GPa) = 33.09455 98.34000 65.71728
# Shear Modulus (GPa) = 14.61092 23.20468 18.90780
#
# Velocity S-wave (km/s) = 2.89058 3.64279 3.28826
# Velocity P-wave (km/s) = 5.48326 8.59827 7.21098
#
# Compressibility (1/GPa) = 0.03021645
#
# Stress axis : x y z
#
# Youngs Moduli (GPa) = 37.22387 13.37918 42.84102
#
# Poissons Ratio (x) = 0.23097 0.61404
# Poissons Ratio (y) = 0.64260 0.67562
# Poissons Ratio (z) = 0.53353 0.21099
#
# Static dielectric constant tensor:
#      x y z
#    x 1.579410 0.000000 0.000000 
#    y 0.000000 1.586760 0.000000 
#    z 0.000000 0.000000 1.571860 
# 
# From -- ./inp_files/18613.got.cif
#   From: 2010.05.17/outbox.cif.g08.bks.cpg/sg62_10_cif.got.tgz:18613.got - 2010.06.03 15:25:27.
