data_PCOD9464981
_publ_section_title
;
Structure prediction by ZEFSAII (Michael W. Deem and Ramdas Pophale) SiO2 
 PCOD9464981
Probable space group: P N M A
;
_chemical_formula_sum "Si O2"
_cell_formula_units_Z 40
_cell_length_a 10.312123
_cell_length_b 8.002638
_cell_length_c 27.431773
_cell_angle_alpha 90.000000
_cell_angle_beta 90.000000
_cell_angle_gamma 90.000000
_cell_volume 2263.784775
_symmetry_space_group_name_H-M "P N M A"
_symmetry_group_IT_number 62
_symmetry_cell_setting 'orthorhombic'
loop_
_space_group_symop_operation_xyz
x,y,z
1/2-x,-y,1/2+z
1/2+x,1/2-y,1/2-z
-x,1/2+y,-z
-x,-y,-z
1/2+x,y,1/2-z
1/2-x,1/2+y,1/2+z
x,1/2-y,z
loop_
_atom_site_type_symbol
_atom_site_label
_atom_site_fract_x
_atom_site_fract_y
_atom_site_fract_z
Si Si1 0.380737 0.051718 0.534372
Si Si2 0.477300 0.937460 0.636057
Si Si3 0.130644 0.551647 0.473012
Si Si4 0.015572 0.750000 0.206599
Si Si5 0.706224 0.750000 0.201748
Si Si6 0.715106 0.062310 0.131128
O O1 0.385029 0.250000 0.541715
O O2 0.500000 0.000000 0.500000
O O3 0.397099 0.966319 0.586815
O O4 0.250555 0.001511 0.506749
O O5 0.453985 0.750000 0.655256
O O6 0.629784 0.948748 0.621946
O O7 0.454885 0.085055 0.674457
O O8 0.134881 0.750000 0.465554
O O9 0.145561 0.466837 0.420305
O O10 0.000000 0.500000 0.500000
O O11 0.859594 0.750000 0.216679
O O12 0.106821 0.750000 0.253618
O O13 0.684076 0.585051 0.168803
O O14 0.687585 0.250000 0.149423
#
# Coordination Sequence:
#
# PCOD9464981 Si02
#       6
#     8   8   8   4   4   8
#     4  12  22  35  59  92 124 161 205 248 296 360
#     4  10  20  37  61  90 120 156 202 254 298 359
#     4  12  24  39  57  88 128 167 205 247 302 373
#     4  10  22  42  64  88 118 152 206 256 313 358
#     4  10  22  42  66  88 114 158 202 260 307 362
#     4  10  20  38  62  87 120 161 204 242 301 372
#
# _framework density 17.669523000000002
#
# number of rings (size 3 to 8) (size 9 to 14) (size 15 to 20)
#    0.000    1.200    4.000    3.600    0.000    0.800 
#    3.600    0.000    0.000    0.000    0.000    0.000 
#    0.000    0.000    0.000    0.000    0.000    0.000 
#
# Total GULP energy -223462.224416 kJ/mol
# GULP energy per Si atom -5586.555610 kJ/mol
# Density = 1.762931 g / cm^3
# Si number density = 17.669523 Si / 1000 Ang^3
#
#
#
# Elastic Constant Matrix: (Units=GPa)
#
#
# Indices 1 2 3 4 5 6 
#
# 1 99.1016 37.7873 68.6919 0.0000 0.0000 0.0000
# 2 37.7873 162.6107 60.5705 0.0000 0.0000 0.0000
# 3 68.6919 60.5705 128.3351 0.0000 0.0000 0.0000
# 4 0.0000 0.0000 0.0000 20.5679 0.0000 0.0000
# 5 0.0000 0.0000 0.0000 0.0000 38.3834 0.0000
# 6 0.0000 0.0000 0.0000 0.0000 0.0000 23.4852
#
#
#
# Elastic Compliance Matrix: (Units=1/GPa)
#
#
# Indices 1 2 3 4 5 6 
#
# 1 0.016098 -0.000645 -0.008312 0.000000 0.000000 0.000000
# 2 -0.000645 0.007487 -0.003189 0.000000 0.000000 0.000000
# 3 -0.008312 -0.003189 0.013746 0.000000 0.000000 0.000000
# 4 0.000000 0.000000 0.000000 0.048619 0.000000 0.000000
# 5 0.000000 0.000000 0.000000 0.000000 0.026053 0.000000
# 6 0.000000 0.000000 0.000000 0.000000 0.000000 0.042580
#
#
# Mechanical properties :
#
#
# Convention : Reuss Voigt Hill
#
# Bulk Modulus (GPa) = 76.68551 80.46074 78.57312
# Shear Modulus (GPa) = 27.28932 31.35384 29.32158
#
# Velocity S-wave (km/s) = 3.93419 4.21700 4.07805
# Velocity P-wave (km/s) = 8.00819 8.32743 8.16937
#
# Compressibility (1/GPa) = 0.01304027
#
# Stress axis : x y z
#
# Youngs Moduli (GPa) = 62.11914 133.56114 72.74689
#
# Poissons Ratio (x) = 0.08610 0.60470
# Poissons Ratio (y) = 0.04004 0.23197
# Poissons Ratio (z) = 0.51635 0.42589
#
# Static dielectric constant tensor:
#      x y z
#    x 1.576710 0.000000 0.000000 
#    y 0.000000 1.624270 0.000000 
#    z 0.000000 0.000000 1.573110 
# 
# From -- ./inp_files/28620.got.cif
#   From: 2010.05.17/outbox.cif.g08.bks.cpg/sg62_15_cif.got.tgz:28620.got - 2010.06.03 15:25:27.
