data_PCOD9464014
_publ_section_title
;
Structure prediction by ZEFSAII (Michael W. Deem and Ramdas Pophale) SiO2 
 PCOD9464014
Probable space group: P N M A
;
_chemical_formula_sum "Si O2"
_cell_formula_units_Z 36
_cell_length_a 5.023712
_cell_length_b 13.139353
_cell_length_c 21.791194
_cell_angle_alpha 90.000000
_cell_angle_beta 90.000000
_cell_angle_gamma 90.000000
_cell_volume 1438.400223
_symmetry_space_group_name_H-M "P N M A"
_symmetry_group_IT_number 62
_symmetry_cell_setting 'orthorhombic'
loop_
_space_group_symop_operation_xyz
x,y,z
1/2-x,-y,1/2+z
1/2+x,1/2-y,1/2-z
-x,1/2+y,-z
-x,-y,-z
1/2+x,y,1/2-z
1/2-x,1/2+y,1/2+z
x,1/2-y,z
loop_
_atom_site_type_symbol
_atom_site_label
_atom_site_fract_x
_atom_site_fract_y
_atom_site_fract_z
Si Si1 0.234189 0.092027 0.708154
Si Si2 0.578341 0.918942 0.092906
Si Si3 0.471031 0.424649 0.350587
Si Si4 0.791831 0.918877 0.972117
Si Si5 0.345520 0.750000 0.785748
O O1 0.501266 0.119901 0.744227
O O2 0.295975 0.971794 0.692421
O O3 0.123938 0.129681 0.641860
O O4 0.819189 0.970696 0.130045
O O5 0.682346 0.861918 0.032085
O O6 0.434027 0.015463 0.061582
O O7 0.569145 0.370750 0.413019
O O8 0.265296 0.349599 0.319258
O O9 0.000000 0.000000 0.000000
O O10 0.661417 0.750000 0.776070
#
# Coordination Sequence:
#
# PCOD9464014 Si02
#       5
#     8   8   8   8   4
#     4  11  19  28  45  63  93 125 157 196 241 294
#     4   9  17  30  49  69  89 119 164 212 262 301
#     4  10  20  34  48  64  93 130 176 215 249 287
#     4   8  16  30  50  70  86 114 162 218 263 299
#     4  12  28  36  48  68 102 146 188 214 238 280
#
# _framework density 25.027805000000001
#
# number of rings (size 3 to 8) (size 9 to 14) (size 15 to 20)
#    0.000    2.222    2.222    1.333    6.222    0.000 
#    0.000    0.000    0.000    0.000    0.000    0.000 
#    0.000    0.000    0.000    2.000    0.444   26.333 
#
# Total GULP energy -200540.426313 kJ/mol
# GULP energy per Si atom -5570.567398 kJ/mol
# Density = 2.497084 g / cm^3
# Si number density = 25.027805 Si / 1000 Ang^3
#
#
#
# Elastic Constant Matrix: (Units=GPa)
#
#
# Indices 1 2 3 4 5 6 
#
# 1 123.3302 8.3706 28.7058 0.0000 0.0000 0.0000
# 2 8.3706 74.6060 12.9758 0.0000 0.0000 0.0000
# 3 28.7058 12.9758 127.8893 0.0000 0.0000 0.0000
# 4 0.0000 0.0000 0.0000 -6.6679 0.0000 0.0000
# 5 0.0000 0.0000 0.0000 0.0000 57.8220 0.0000
# 6 0.0000 0.0000 0.0000 0.0000 0.0000 -6.0592
#
#
#
# Elastic Compliance Matrix: (Units=1/GPa)
#
#
# Indices 1 2 3 4 5 6 
#
# 1 0.008585 -0.000639 -0.001862 0.000000 0.000000 0.000000
# 2 -0.000639 0.013692 -0.001246 0.000000 0.000000 0.000000
# 3 -0.001862 -0.001246 0.008364 0.000000 0.000000 0.000000
# 4 0.000000 0.000000 0.000000 -0.149973 0.000000 0.000000
# 5 0.000000 0.000000 0.000000 0.000000 0.017294 0.000000
# 6 0.000000 0.000000 0.000000 0.000000 0.000000 -0.165037
#
#
# Mechanical properties :
#
#
# Convention : Reuss Voigt Hill
#
# Bulk Modulus (GPa) = 43.20309 47.32555 45.26432
# Shear Modulus (GPa) = -19.85194 27.40386 3.77596
#
# Velocity S-wave (km/s) = -2.81943 3.31257 1.22963
# Velocity P-wave (km/s) = 2.58855 5.79492 4.48786
#
# Compressibility (1/GPa) = 0.02314649
#
# Stress axis : x y z
#
# Youngs Moduli (GPa) = 116.48048 73.03459 119.56537
#
# Poissons Ratio (x) = 0.04669 0.22265
# Poissons Ratio (y) = 0.07447 0.14894
# Poissons Ratio (z) = 0.21690 0.09098
#
# Static dielectric constant tensor:
#      x y z
#    x 2.202280 0.000000 0.000000 
#    y 0.000000 1.996710 0.000000 
#    z 0.000000 0.000000 2.196160 
# 
# From -- ./inp_files/25233.got.cif
#   From: 2010.05.17/outbox.cif.g08.bks.cpg/sg62_13_cif.got.tgz:25233.got - 2010.06.03 15:25:27.
