data_PCOD9464266
_publ_section_title
;
Structure prediction by ZEFSAII (Michael W. Deem and Ramdas Pophale) SiO2 
 PCOD9464266
Probable space group: P N M A
;
_chemical_formula_sum "Si O2"
_cell_formula_units_Z 52
_cell_length_a 8.828893
_cell_length_b 14.634465
_cell_length_c 15.762806
_cell_angle_alpha 90.000000
_cell_angle_beta 90.000000
_cell_angle_gamma 90.000000
_cell_volume 2036.651092
_symmetry_space_group_name_H-M "P N M A"
_symmetry_group_IT_number 62
_symmetry_cell_setting 'orthorhombic'
loop_
_space_group_symop_operation_xyz
x,y,z
1/2-x,-y,1/2+z
1/2+x,1/2-y,1/2-z
-x,1/2+y,-z
-x,-y,-z
1/2+x,y,1/2-z
1/2-x,1/2+y,1/2+z
x,1/2-y,z
loop_
_atom_site_type_symbol
_atom_site_label
_atom_site_fract_x
_atom_site_fract_y
_atom_site_fract_z
Si Si1 0.730251 0.616634 0.431701
Si Si2 0.933829 0.045966 0.416787
Si Si3 0.919964 0.904510 0.024256
Si Si4 0.190149 0.559829 0.333855
Si Si5 0.086250 0.750000 0.627103
Si Si6 0.254731 0.750000 0.907714
Si Si7 0.083436 0.250000 0.116487
Si Si8 0.413424 0.652610 0.230671
O O1 0.776116 0.510370 0.413611
O O2 0.554116 0.634935 0.415290
O O3 0.756388 0.662865 0.525264
O O4 0.839605 0.658739 0.362564
O O5 0.911870 0.153093 0.420250
O O6 0.000000 0.000000 0.500000
O O7 0.066702 0.020260 0.348271
O O8 0.767036 0.915806 0.076739
O O9 0.909847 0.837477 0.945347
O O10 0.000000 0.000000 0.000000
O O11 0.338007 0.563293 0.274500
O O12 0.088417 0.636307 0.289172
O O13 0.257206 0.750000 0.668369
O O14 0.905142 0.750000 0.650839
O O15 0.094920 0.750000 0.855770
O O16 0.387554 0.750000 0.274556
#
# Coordination Sequence:
#
# PCOD9464266 Si02
#       8
#     8   8   8   8   4   4   4   8
#     4  10  20  37  58  90 134 177 222 276 339 413
#     4  11  22  39  63  96 130 179 228 287 358 417
#     4  11  23  38  58  90 133 176 225 284 341 416
#     4  11  25  40  64  92 136 180 230 280 349 417
#     4  12  22  38  64  88 139 177 234 289 356 425
#     4  10  20  34  59  93 137 183 226 275 346 427
#     4  10  24  34  57  93 126 174 224 270 340 408
#     4  11  23  39  63  94 133 181 228 272 340 433
#
# _framework density 25.532108999999998
#
# number of rings (size 3 to 8) (size 9 to 14) (size 15 to 20)
#    0.000    1.231    2.308    4.154    6.462    0.000 
#    1.385    0.000    0.000    3.692    0.000    4.308 
#    0.000    0.000    0.000    0.000    0.000    0.000 
#
# Total GULP energy -289503.848759 kJ/mol
# GULP energy per Si atom -5567.381707 kJ/mol
# Density = 2.547400 g / cm^3
# Si number density = 25.532109 Si / 1000 Ang^3
#
#
#
# Elastic Constant Matrix: (Units=GPa)
#
#
# Indices 1 2 3 4 5 6 
#
# 1 216.8254 13.3410 25.3273 0.0000 0.0000 0.0000
# 2 13.3410 172.9434 7.5319 0.0000 0.0000 0.0000
# 3 25.3273 7.5319 46.8339 0.0000 0.0000 0.0000
# 4 0.0000 0.0000 0.0000 -18.3944 0.0000 0.0000
# 5 0.0000 0.0000 0.0000 0.0000 46.4499 0.0000
# 6 0.0000 0.0000 0.0000 0.0000 0.0000 82.3755
#
#
#
# Elastic Compliance Matrix: (Units=1/GPa)
#
#
# Indices 1 2 3 4 5 6 
#
# 1 0.004935 -0.000266 -0.002626 0.000000 0.000000 0.000000
# 2 -0.000266 0.005837 -0.000795 0.000000 0.000000 0.000000
# 3 -0.002626 -0.000795 0.022900 0.000000 0.000000 0.000000
# 4 0.000000 0.000000 0.000000 -0.054364 0.000000 0.000000
# 5 0.000000 0.000000 0.000000 0.000000 0.021529 0.000000
# 6 0.000000 0.000000 0.000000 0.000000 0.000000 0.012140
#
#
# Mechanical properties :
#
#
# Convention : Reuss Voigt Hill
#
# Bulk Modulus (GPa) = 38.02530 58.77812 48.40171
# Shear Modulus (GPa) = 171.72315 48.11303 109.91809
#
# Velocity S-wave (km/s) = 8.20998 4.34569 6.56844
# Velocity P-wave (km/s) = 10.23705 6.94631 8.74781
#
# Compressibility (1/GPa) = 0.02629828
#
# Stress axis : x y z
#
# Youngs Moduli (GPa) = 202.62852 171.30929 43.66815
#
# Poissons Ratio (x) = 0.04563 0.11467
# Poissons Ratio (y) = 0.05397 0.03471
# Poissons Ratio (z) = 0.53211 0.13615
#
# Static dielectric constant tensor:
#      x y z
#    x 2.099070 0.000000 0.000000 
#    y 0.000000 2.203350 0.000000 
#    z 0.000000 0.000000 2.148690 
# 
# From -- ./inp_files/25954.got.cif
#   From: 2010.05.17/outbox.cif.g08.bks.cpg/sg62_13_cif.got.tgz:25954.got - 2010.06.03 15:25:27.
