data_PCOD9464879
_publ_section_title
;
Structure prediction by ZEFSAII (Michael W. Deem and Ramdas Pophale) SiO2 
 PCOD9464879
Probable space group: P N M A
;
_chemical_formula_sum "Si O2"
_cell_formula_units_Z 48
_cell_length_a 9.636072
_cell_length_b 25.639150
_cell_length_c 8.860400
_cell_angle_alpha 90.000000
_cell_angle_beta 90.000000
_cell_angle_gamma 90.000000
_cell_volume 2189.056586
_symmetry_space_group_name_H-M "P N M A"
_symmetry_group_IT_number 62
_symmetry_cell_setting 'orthorhombic'
loop_
_space_group_symop_operation_xyz
x,y,z
1/2-x,-y,1/2+z
1/2+x,1/2-y,1/2-z
-x,1/2+y,-z
-x,-y,-z
1/2+x,y,1/2-z
1/2-x,1/2+y,1/2+z
x,1/2-y,z
loop_
_atom_site_type_symbol
_atom_site_label
_atom_site_fract_x
_atom_site_fract_y
_atom_site_fract_z
Si Si1 0.691954 0.170984 0.302957
Si Si2 0.111949 0.750000 0.308447
Si Si3 0.010978 0.998552 0.177179
Si Si4 0.558870 0.057163 0.947995
Si Si5 0.909980 0.750000 0.046440
Si Si6 0.251757 0.058705 0.290378
Si Si7 0.479191 0.169623 0.052163
O O1 0.610204 0.200115 0.436346
O O2 0.696340 0.108249 0.300447
O O3 0.619123 0.183701 0.143540
O O4 0.852965 0.183904 0.334081
O O5 0.277757 0.750000 0.337968
O O6 0.048960 0.798708 0.400651
O O7 0.051445 0.750000 0.140521
O O8 0.912418 0.047146 0.224584
O O9 0.166936 0.009661 0.227327
O O10 0.951511 0.948984 0.267737
O O11 0.000000 0.000000 0.000000
O O12 0.705132 0.063270 0.034896
O O13 0.479865 0.108806 0.004134
O O14 0.500000 0.000000 0.000000
#
# Coordination Sequence:
#
# PCOD9464879 Si02
#       7
#     8   4   8   8   4   8   8
#     4  10  20  38  61  86 110 153 198 242 296 356
#     4  10  23  42  58  88 122 158 197 250 306 350
#     4  11  22  36  57  84 116 155 196 237 290 354
#     4   9  19  36  56  82 118 155 192 240 290 345
#     4  10  23  40  62  86 120 154 199 250 298 364
#     4  10  20  37  58  83 117 151 194 244 290 347
#     4  10  21  38  63  87 120 154 196 249 301 357
#
# _framework density 21.927253
#
# number of rings (size 3 to 8) (size 9 to 14) (size 15 to 20)
#    0.000    2.000    0.000    4.500    0.000    4.000 
#    0.000   10.000    0.000    0.000    0.000    0.000 
#    0.000    0.000    0.000    0.000    0.000    0.000 
#
# Total GULP energy -267507.004926 kJ/mol
# GULP energy per Si atom -5573.062603 kJ/mol
# Density = 2.187735 g / cm^3
# Si number density = 21.927253 Si / 1000 Ang^3
#
#
#
# Elastic Constant Matrix: (Units=GPa)
#
#
# Indices 1 2 3 4 5 6 
#
# 1 47.6452 13.7016 13.4578 0.0000 0.0000 0.0000
# 2 13.7016 93.4609 31.1842 0.0000 0.0000 0.0000
# 3 13.4578 31.1842 116.1815 0.0000 0.0000 0.0000
# 4 0.0000 0.0000 0.0000 32.4836 0.0000 0.0000
# 5 0.0000 0.0000 0.0000 0.0000 35.7762 0.0000
# 6 0.0000 0.0000 0.0000 0.0000 0.0000 19.4038
#
#
#
# Elastic Compliance Matrix: (Units=1/GPa)
#
#
# Indices 1 2 3 4 5 6 
#
# 1 0.022277 -0.002641 -0.001871 0.000000 0.000000 0.000000
# 2 -0.002641 0.012065 -0.002932 0.000000 0.000000 0.000000
# 3 -0.001871 -0.002932 0.009611 0.000000 0.000000 0.000000
# 4 0.000000 0.000000 0.000000 0.030785 0.000000 0.000000
# 5 0.000000 0.000000 0.000000 0.000000 0.027952 0.000000
# 6 0.000000 0.000000 0.000000 0.000000 0.000000 0.051536
#
#
# Mechanical properties :
#
#
# Convention : Reuss Voigt Hill
#
# Bulk Modulus (GPa) = 34.40860 41.55276 37.98068
# Shear Modulus (GPa) = 27.96360 30.79565 29.37963
#
# Velocity S-wave (km/s) = 3.57499 3.75166 3.66439
# Velocity P-wave (km/s) = 5.72425 6.14476 5.93822
#
# Compressibility (1/GPa) = 0.02906250
#
# Stress axis : x y z
#
# Youngs Moduli (GPa) = 44.89003 82.88197 104.04633
#
# Poissons Ratio (x) = 0.21892 0.19471
# Poissons Ratio (y) = 0.11857 0.30511
# Poissons Ratio (z) = 0.08401 0.24305
#
# Static dielectric constant tensor:
#      x y z
#    x 1.797370 0.000000 0.000000 
#    y 0.000000 1.822750 0.000000 
#    z 0.000000 0.000000 1.869570 
# 
# From -- ./inp_files/4575.got.cif
#   From: 2010.05.17/outbox.cif.g08.bks.cpg/sg62_3_cif.got.tgz:4575.got - 2010.06.03 15:25:27.
