data_PCOD9464721
_publ_section_title
;
Structure prediction by ZEFSAII (Michael W. Deem and Ramdas Pophale) SiO2 
 PCOD9464721
Probable space group: P N M A
;
_chemical_formula_sum "Si O2"
_cell_formula_units_Z 48
_cell_length_a 14.704481
_cell_length_b 8.892086
_cell_length_c 20.740616
_cell_angle_alpha 90.000000
_cell_angle_beta 90.000000
_cell_angle_gamma 90.000000
_cell_volume 2711.908334
_symmetry_space_group_name_H-M "P N M A"
_symmetry_group_IT_number 62
_symmetry_cell_setting 'orthorhombic'
loop_
_space_group_symop_operation_xyz
x,y,z
1/2-x,-y,1/2+z
1/2+x,1/2-y,1/2-z
-x,1/2+y,-z
-x,-y,-z
1/2+x,y,1/2-z
1/2-x,1/2+y,1/2+z
x,1/2-y,z
loop_
_atom_site_type_symbol
_atom_site_label
_atom_site_fract_x
_atom_site_fract_y
_atom_site_fract_z
Si Si1 0.183297 0.930348 0.570692
Si Si2 0.688833 0.070108 0.682987
Si Si3 0.487576 0.429620 0.730194
Si Si4 0.489278 0.930696 0.872416
Si Si5 0.794237 0.570506 0.566040
Si Si6 0.200370 0.069955 0.197788
O O1 0.186615 0.750000 0.561417
O O2 0.079159 0.972125 0.587550
O O3 0.244229 0.967337 0.633015
O O4 0.215642 0.010844 0.506199
O O5 0.699625 0.250000 0.683903
O O6 0.583433 0.034005 0.696600
O O7 0.725053 0.004655 0.616018
O O8 0.748357 0.999914 0.740708
O O9 0.475977 0.250000 0.730417
O O10 0.491008 0.489097 0.803472
O O11 0.401351 0.506462 0.696803
O O12 0.491740 0.750000 0.861850
O O13 0.396295 0.967500 0.909298
O O14 0.784475 0.750000 0.568294
O O15 0.198776 0.250000 0.205111
#
# Coordination Sequence:
#
# PCOD9464721 Si02
#       6
#     8   8   8   8   8   8
#     4  10  22  39  59  85 121 160 195 242 295 349
#     4  11  23  39  60  87 119 156 198 243 293 349
#     4  11  23  37  59  90 120 154 196 246 294 344
#     4  10  20  36  58  87 122 156 192 237 294 355
#     4  11  23  37  59  89 120 159 198 240 296 354
#     4  11  22  38  62  88 117 156 199 243 294 349
#
# _framework density 17.699712999999999
#
# number of rings (size 3 to 8) (size 9 to 14) (size 15 to 20)
#    0.000    1.333    3.333    2.500    0.000    4.667 
#    0.000    0.833    0.000    0.000    0.000    0.000 
#    0.000    0.000    0.000    0.000    0.000    0.000 
#
# Total GULP energy -268314.788266 kJ/mol
# GULP energy per Si atom -5589.891422 kJ/mol
# Density = 1.765943 g / cm^3
# Si number density = 17.699713 Si / 1000 Ang^3
#
#
#
# Elastic Constant Matrix: (Units=GPa)
#
#
# Indices 1 2 3 4 5 6 
#
# 1 82.1383 26.7004 10.3019 0.0000 0.0000 0.0000
# 2 26.7004 29.7031 19.0598 0.0000 0.0000 0.0000
# 3 10.3019 19.0598 54.8131 0.0000 0.0000 0.0000
# 4 0.0000 0.0000 0.0000 28.1681 0.0000 0.0000
# 5 0.0000 0.0000 0.0000 0.0000 21.2836 0.0000
# 6 0.0000 0.0000 0.0000 0.0000 0.0000 27.6504
#
#
#
# Elastic Compliance Matrix: (Units=1/GPa)
#
#
# Indices 1 2 3 4 5 6 
#
# 1 0.017531 -0.017564 0.002812 0.000000 0.000000 0.000000
# 2 -0.017564 0.060932 -0.017887 0.000000 0.000000 0.000000
# 3 0.002812 -0.017887 0.023935 0.000000 0.000000 0.000000
# 4 0.000000 0.000000 0.000000 0.035501 0.000000 0.000000
# 5 0.000000 0.000000 0.000000 0.000000 0.046985 0.000000
# 6 0.000000 0.000000 0.000000 0.000000 0.000000 0.036166
#
#
# Mechanical properties :
#
#
# Convention : Reuss Voigt Hill
#
# Bulk Modulus (GPa) = 26.93783 30.97542 28.95662
# Shear Modulus (GPa) = 16.73924 22.79325 19.76624
#
# Velocity S-wave (km/s) = 3.07862 3.59245 3.34541
# Velocity P-wave (km/s) = 5.28106 5.89458 5.59623
#
# Compressibility (1/GPa) = 0.03712252
#
# Stress axis : x y z
#
# Youngs Moduli (GPa) = 57.04107 16.41171 41.78014
#
# Poissons Ratio (x) = 0.28825 -0.11750
# Poissons Ratio (y) = 1.00185 0.74730
# Poissons Ratio (z) = -0.16042 0.29355
#
# Static dielectric constant tensor:
#      x y z
#    x 1.597730 0.000000 0.000000 
#    y 0.000000 1.590250 0.000000 
#    z 0.000000 0.000000 1.564560 
# 
# From -- ./inp_files/23649.got.cif
#   From: 2010.05.17/outbox.cif.g08.bks.cpg/sg62_12_cif.got.tgz:23649.got - 2010.06.03 15:25:27.
