data_PCOD9464220
_publ_section_title
;
Structure prediction by ZEFSAII (Michael W. Deem and Ramdas Pophale) SiO2 
 PCOD9464220
Probable space group: P N M A
;
_chemical_formula_sum "Si O2"
_cell_formula_units_Z 52
_cell_length_a 8.978319
_cell_length_b 26.593989
_cell_length_c 10.865697
_cell_angle_alpha 90.000000
_cell_angle_beta 90.000000
_cell_angle_gamma 90.000000
_cell_volume 2594.395048
_symmetry_space_group_name_H-M "P N M A"
_symmetry_group_IT_number 62
_symmetry_cell_setting 'orthorhombic'
loop_
_space_group_symop_operation_xyz
x,y,z
1/2-x,-y,1/2+z
1/2+x,1/2-y,1/2-z
-x,1/2+y,-z
-x,-y,-z
1/2+x,y,1/2-z
1/2-x,1/2+y,1/2+z
x,1/2-y,z
loop_
_atom_site_type_symbol
_atom_site_label
_atom_site_fract_x
_atom_site_fract_y
_atom_site_fract_z
Si Si1 0.984103 0.640764 0.099508
Si Si2 0.918133 0.250000 0.169158
Si Si3 0.498404 0.548442 0.084303
Si Si4 0.471285 0.862107 0.908445
Si Si5 0.639959 0.859937 0.648154
Si Si6 0.131012 0.250000 0.958416
Si Si7 0.460778 0.250000 0.039767
Si Si8 0.265392 0.085523 0.744376
O O1 0.937985 0.699352 0.097775
O O2 0.847772 0.610560 0.158821
O O3 0.130367 0.627401 0.179374
O O4 0.026099 0.624629 0.959768
O O5 0.838598 0.199871 0.128063
O O6 0.929290 0.250000 0.314150
O O7 0.078281 0.250000 0.102318
O O8 0.622957 0.547158 0.189740
O O9 0.338286 0.558074 0.145413
O O10 0.500000 0.500000 0.000000
O O11 0.533260 0.598260 0.005322
O O12 0.569610 0.863891 0.783694
O O13 0.305343 0.880240 0.870678
O O14 0.469977 0.806316 0.971148
O O15 0.308834 0.250000 0.961160
#
# Coordination Sequence:
#
# PCOD9464220 Si02
#       8
#     8   4   8   8   8   4   4   8
#     4  10  21  41  64  92 134 169 221 260 325 372
#     4   8  19  28  50  78 128 161 202 253 309 364
#     4  11  25  47  69  95 129 166 221 264 330 389
#     4  11  23  37  63  94 133 167 215 268 320 383
#     4  10  21  35  58  92 127 168 212 263 318 379
#     4  10  20  34  56  91 125 177 218 254 306 389
#     4  10  21  32  60  91 131 172 214 257 333 369
#     4  10  23  46  68  89 127 171 205 280 320 379
#
# _framework density 20.043209000000001
#
# number of rings (size 3 to 8) (size 9 to 14) (size 15 to 20)
#    0.000    1.846    1.538    1.385   15.077    1.846 
#    0.000    4.615    0.000    0.000    0.000    0.000 
#    0.000    0.000    0.000    0.000    0.000    0.000 
#
# Total GULP energy -290006.611426 kJ/mol
# GULP energy per Si atom -5577.050220 kJ/mol
# Density = 1.999759 g / cm^3
# Si number density = 20.043209 Si / 1000 Ang^3
#
#
#
# Elastic Constant Matrix: (Units=GPa)
#
#
# Indices 1 2 3 4 5 6 
#
# 1 94.3561 32.2990 35.9868 0.0000 0.0000 0.0000
# 2 32.2990 84.1354 43.6503 0.0000 0.0000 0.0000
# 3 35.9868 43.6503 77.5042 0.0000 0.0000 0.0000
# 4 0.0000 0.0000 0.0000 28.9611 0.0000 0.0000
# 5 0.0000 0.0000 0.0000 0.0000 34.5202 0.0000
# 6 0.0000 0.0000 0.0000 0.0000 0.0000 8.5452
#
#
#
# Elastic Compliance Matrix: (Units=1/GPa)
#
#
# Indices 1 2 3 4 5 6 
#
# 1 0.013295 -0.002686 -0.004660 0.000000 0.000000 0.000000
# 2 -0.002686 0.017335 -0.008516 0.000000 0.000000 0.000000
# 3 -0.004660 -0.008516 0.019863 0.000000 0.000000 0.000000
# 4 0.000000 0.000000 0.000000 0.034529 0.000000 0.000000
# 5 0.000000 0.000000 0.000000 0.000000 0.028969 0.000000
# 6 0.000000 0.000000 0.000000 0.000000 0.000000 0.117025
#
#
# Mechanical properties :
#
#
# Convention : Reuss Voigt Hill
#
# Bulk Modulus (GPa) = 53.28218 53.31863 53.30041
# Shear Modulus (GPa) = 18.58769 24.00927 21.29848
#
# Velocity S-wave (km/s) = 3.04860 3.46479 3.26333
# Velocity P-wave (km/s) = 6.24766 6.53192 6.39137
#
# Compressibility (1/GPa) = 0.01876800
#
# Stress axis : x y z
#
# Youngs Moduli (GPa) = 75.21596 57.68736 50.34602
#
# Poissons Ratio (x) = 0.15495 0.23463
# Poissons Ratio (y) = 0.20203 0.42874
# Poissons Ratio (z) = 0.35054 0.49125
#
# Static dielectric constant tensor:
#      x y z
#    x 1.731720 0.000000 0.000000 
#    y 0.000000 1.704950 0.000000 
#    z 0.000000 0.000000 1.714580 
# 
# From -- ./inp_files/11425.got.cif
#   From: 2010.05.17/outbox.cif.g08.bks.cpg/sg62_6_cif.got.tgz:11425.got - 2010.06.03 15:25:27.
