data_PCOD9464959
_publ_section_title
;
Structure prediction by ZEFSAII (Michael W. Deem and Ramdas Pophale) SiO2 
 PCOD9464959
Probable space group: P N M A
;
_chemical_formula_sum "Si O2"
_cell_formula_units_Z 60
_cell_length_a 14.151415
_cell_length_b 15.533060
_cell_length_c 12.033636
_cell_angle_alpha 90.000000
_cell_angle_beta 90.000000
_cell_angle_gamma 90.000000
_cell_volume 2645.171029
_symmetry_space_group_name_H-M "P N M A"
_symmetry_group_IT_number 62
_symmetry_cell_setting 'orthorhombic'
loop_
_space_group_symop_operation_xyz
x,y,z
1/2-x,-y,1/2+z
1/2+x,1/2-y,1/2-z
-x,1/2+y,-z
-x,-y,-z
1/2+x,y,1/2-z
1/2-x,1/2+y,1/2+z
x,1/2-y,z
loop_
_atom_site_type_symbol
_atom_site_label
_atom_site_fract_x
_atom_site_fract_y
_atom_site_fract_z
Si Si1 0.765501 0.881379 0.651649
Si Si2 0.758754 0.750000 0.830244
Si Si3 0.356318 0.922747 0.070275
Si Si4 0.719124 0.602034 0.995600
Si Si5 0.709003 0.925912 0.235633
Si Si6 0.954253 0.345739 0.174344
Si Si7 0.992378 0.958490 0.248598
Si Si8 0.065911 0.082320 0.982383
O O1 0.805294 0.824618 0.750654
O O2 0.828289 0.872978 0.541377
O O3 0.760283 0.979875 0.690761
O O4 0.709264 0.824160 0.906884
O O5 0.656360 0.648130 0.638468
O O6 0.276744 0.902228 0.163258
O O7 0.454957 0.920857 0.135208
O O8 0.346367 0.022169 0.032918
O O9 0.710548 0.630755 0.123646
O O10 0.826913 0.568204 0.983564
O O11 0.601246 0.938026 0.271175
O O12 0.963359 0.250000 0.227506
O O13 0.975654 0.437034 0.237660
O O14 0.020149 0.348234 0.064325
O O15 0.936969 0.908757 0.150127
O O16 0.000000 0.000000 0.000000
#
# Coordination Sequence:
#
# PCOD9464959 Si02
#       8
#     8   4   8   8   8   8   8   8
#     4  11  23  39  64  96 138 171 219 269 338 396
#     4  12  24  42  64  98 132 178 210 276 346 392
#     4  11  20  41  67  97 130 176 226 273 323 400
#     4  11  23  38  67  93 135 171 221 275 333 395
#     4  11  21  41  67 101 128 177 226 268 332 402
#     4  11  21  36  62 100 135 167 223 289 337 381
#     4  11  21  38  68  94 132 177 225 277 328 404
#     4  10  20  37  60  95 127 169 229 281 320 380
#
# _framework density 22.682843999999999
#
# number of rings (size 3 to 8) (size 9 to 14) (size 15 to 20)
#    0.000    1.067    4.667    4.800    0.933    2.133 
#    0.000    0.667    5.867    0.000    0.000    0.000 
#    0.000    0.000    0.000    0.000    0.000    0.000 
#
# Total GULP energy -334055.854838 kJ/mol
# GULP energy per Si atom -5567.597581 kJ/mol
# Density = 2.263122 g / cm^3
# Si number density = 22.682844 Si / 1000 Ang^3
#
#
#
# Elastic Constant Matrix: (Units=GPa)
#
#
# Indices 1 2 3 4 5 6 
#
# 1 51.3275 -3.7309 -21.5599 0.0000 0.0000 0.0000
# 2 -3.7309 45.1869 24.5745 0.0000 0.0000 0.0000
# 3 -21.5599 24.5745 102.8677 0.0000 0.0000 0.0000
# 4 0.0000 0.0000 0.0000 -108.4564 0.0000 0.0000
# 5 0.0000 0.0000 0.0000 0.0000 41.5018 0.0000
# 6 0.0000 0.0000 0.0000 0.0000 0.0000 164.4642
#
#
#
# Elastic Compliance Matrix: (Units=1/GPa)
#
#
# Indices 1 2 3 4 5 6 
#
# 1 0.021387 -0.000772 0.004667 0.000000 0.000000 0.000000
# 2 -0.000772 0.025463 -0.006245 0.000000 0.000000 0.000000
# 3 0.004667 -0.006245 0.012191 0.000000 0.000000 0.000000
# 4 0.000000 0.000000 0.000000 -0.009220 0.000000 0.000000
# 5 0.000000 0.000000 0.000000 0.000000 0.024095 0.000000
# 6 0.000000 0.000000 0.000000 0.000000 0.000000 0.006080
#
#
# Mechanical properties :
#
#
# Convention : Reuss Voigt Hill
#
# Bulk Modulus (GPa) = 18.40239 21.99439 20.19839
# Shear Modulus (GPa) = 48.63345 32.84180 40.73763
#
# Velocity S-wave (km/s) = 4.63543 3.80922 4.24248
# Velocity P-wave (km/s) = 6.06466 5.39114 5.73779
#
# Compressibility (1/GPa) = 0.05434076
#
# Stress axis : x y z
#
# Youngs Moduli (GPa) = 46.75751 39.27315 82.02645
#
# Poissons Ratio (x) = 0.03033 -0.38281
# Poissons Ratio (y) = 0.03611 0.51223
# Poissons Ratio (z) = -0.21821 0.24525
#
# Static dielectric constant tensor:
#      x y z
#    x 1.914260 0.000000 0.000000 
#    y 0.000000 1.819870 0.000000 
#    z 0.000000 0.000000 1.746700 
# 
# From -- ./inp_files/13547.got.cif
#   From: 2010.05.17/outbox.cif.g08.bks.cpg/sg62_7_cif.got.tgz:13547.got - 2010.06.03 15:25:27.
