data_PCOD9464997
_publ_section_title
;
Structure prediction by ZEFSAII (Michael W. Deem and Ramdas Pophale) SiO2 
 PCOD9464997
Probable space group: P N M A
;
_chemical_formula_sum "Si O2"
_cell_formula_units_Z 48
_cell_length_a 15.190802
_cell_length_b 7.535529
_cell_length_c 19.208984
_cell_angle_alpha 90.000000
_cell_angle_beta 90.000000
_cell_angle_gamma 90.000000
_cell_volume 2198.866402
_symmetry_space_group_name_H-M "P N M A"
_symmetry_group_IT_number 62
_symmetry_cell_setting 'orthorhombic'
loop_
_space_group_symop_operation_xyz
x,y,z
1/2-x,-y,1/2+z
1/2+x,1/2-y,1/2-z
-x,1/2+y,-z
-x,-y,-z
1/2+x,y,1/2-z
1/2-x,1/2+y,1/2+z
x,1/2-y,z
loop_
_atom_site_type_symbol
_atom_site_label
_atom_site_fract_x
_atom_site_fract_y
_atom_site_fract_z
Si Si1 0.742444 0.532712 0.423477
Si Si2 0.590985 0.541063 0.689370
Si Si3 0.095589 0.537331 0.968275
Si Si4 0.057325 0.462682 0.567746
Si Si5 0.450383 0.454530 0.801001
Si Si6 0.774236 0.035059 0.764561
O O1 0.741018 0.750000 0.424477
O O2 0.672082 0.470482 0.480395
O O3 0.842360 0.473261 0.438250
O O4 0.719034 0.477421 0.344832
O O5 0.571385 0.750000 0.685577
O O6 0.600177 0.470281 0.610945
O O7 0.512150 0.457089 0.733246
O O8 0.681497 0.515735 0.731168
O O9 0.106620 0.750000 0.964689
O O10 0.000000 0.500000 0.000000
O O11 0.064853 0.250000 0.576577
O O12 0.000000 0.500000 0.500000
O O13 0.006017 0.534376 0.635466
O O14 0.433142 0.250000 0.820679
O O15 0.356239 0.533202 0.780703
O O16 0.777836 0.250000 0.765524
#
# Coordination Sequence:
#
# PCOD9464997 Si02
#       6
#     8   8   8   8   8   8
#     4   9  18  37  60  80 111 152 188 225 281 344
#     4  11  23  37  57  88 122 150 186 240 297 348
#     4  10  22  39  59  85 115 152 192 235 289 344
#     4  10  21  37  57  83 114 150 193 237 282 341
#     4  10  21  39  63  86 112 151 199 241 282 343
#     4  10  20  37  62  85 109 148 195 239 282 340
#
# _framework density 21.829429999999999
#
# number of rings (size 3 to 8) (size 9 to 14) (size 15 to 20)
#    0.000    2.000    1.667    1.500    2.333    4.000 
#    0.000    1.667    0.000    0.000    0.000    0.000 
#    0.000    0.000    0.000    0.000    0.000    0.000 
#
# Total GULP energy -268271.414910 kJ/mol
# GULP energy per Si atom -5588.987811 kJ/mol
# Density = 2.177975 g / cm^3
# Si number density = 21.829430 Si / 1000 Ang^3
#
#
#
# Elastic Constant Matrix: (Units=GPa)
#
#
# Indices 1 2 3 4 5 6 
#
# 1 81.4372 -13.8069 -3.5582 0.0000 0.0000 0.0000
# 2 -13.8069 53.2213 -9.9424 0.0000 0.0000 0.0000
# 3 -3.5582 -9.9424 100.2639 0.0000 0.0000 0.0000
# 4 0.0000 0.0000 0.0000 12.1400 0.0000 0.0000
# 5 0.0000 0.0000 0.0000 0.0000 42.3663 0.0000
# 6 0.0000 0.0000 0.0000 0.0000 0.0000 89.6983
#
#
#
# Elastic Compliance Matrix: (Units=1/GPa)
#
#
# Indices 1 2 3 4 5 6 
#
# 1 0.012908 0.003499 0.000805 0.000000 0.000000 0.000000
# 2 0.003499 0.020093 0.002117 0.000000 0.000000 0.000000
# 3 0.000805 0.002117 0.010212 0.000000 0.000000 0.000000
# 4 0.000000 0.000000 0.000000 0.082372 0.000000 0.000000
# 5 0.000000 0.000000 0.000000 0.000000 0.023604 0.000000
# 6 0.000000 0.000000 0.000000 0.000000 0.000000 0.011148
#
#
# Mechanical properties :
#
#
# Convention : Reuss Voigt Hill
#
# Bulk Modulus (GPa) = 17.84001 20.03416 18.93708
# Shear Modulus (GPa) = 30.08779 46.32292 38.20536
#
# Velocity S-wave (km/s) = 3.71659 4.61156 4.18805
# Velocity P-wave (km/s) = 5.15826 6.12803 5.66394
#
# Compressibility (1/GPa) = 0.05605379
#
# Stress axis : x y z
#
# Youngs Moduli (GPa) = 77.47258 49.76960 97.92267
#
# Poissons Ratio (x) = -0.17414 -0.07883
# Poissons Ratio (y) = -0.27108 -0.20726
# Poissons Ratio (z) = -0.06237 -0.10534
#
# Static dielectric constant tensor:
#      x y z
#    x 1.795260 0.000000 0.000000 
#    y 0.000000 1.827500 0.000000 
#    z 0.000000 0.000000 1.780440 
# 
# From -- ./inp_files/23651.got.cif
#   From: 2010.05.17/outbox.cif.g08.bks.cpg/sg62_12_cif.got.tgz:23651.got - 2010.06.03 15:25:27.
