data_PCOD9464452
_publ_section_title
;
Structure prediction by ZEFSAII (Michael W. Deem and Ramdas Pophale) SiO2 
 PCOD9464452
Probable space group: P N M A
;
_chemical_formula_sum "Si O2"
_cell_formula_units_Z 40
_cell_length_a 15.752549
_cell_length_b 12.666595
_cell_length_c 10.624575
_cell_angle_alpha 90.000000
_cell_angle_beta 90.000000
_cell_angle_gamma 90.000000
_cell_volume 2119.933757
_symmetry_space_group_name_H-M "P N M A"
_symmetry_group_IT_number 62
_symmetry_cell_setting 'orthorhombic'
loop_
_space_group_symop_operation_xyz
x,y,z
1/2-x,-y,1/2+z
1/2+x,1/2-y,1/2-z
-x,1/2+y,-z
-x,-y,-z
1/2+x,y,1/2-z
1/2-x,1/2+y,1/2+z
x,1/2-y,z
loop_
_atom_site_type_symbol
_atom_site_label
_atom_site_fract_x
_atom_site_fract_y
_atom_site_fract_z
Si Si1 0.912394 0.128812 0.750415
Si Si2 0.466928 0.131939 0.134339
Si Si3 0.626241 0.471981 0.023150
Si Si4 0.310126 0.373368 0.486703
Si Si5 0.542894 0.988456 0.635408
O O1 0.913228 0.250000 0.708863
O O2 0.877459 0.051419 0.642806
O O3 0.854470 0.120373 0.875765
O O4 0.007376 0.089965 0.789194
O O5 0.436846 0.250000 0.119334
O O6 0.491863 0.107088 0.278138
O O7 0.547994 0.107569 0.047253
O O8 0.396828 0.046307 0.094593
O O9 0.713502 0.410951 0.009085
O O10 0.316947 0.250000 0.446473
O O11 0.361510 0.453334 0.395557
O O12 0.500000 0.000000 0.500000
#
# Coordination Sequence:
#
# PCOD9464452 Si02
#       5
#     8   8   8   8   8
#     4   9  19  37  56  78 114 151 186 233 290 343
#     4  10  20  36  57  81 113 152 190 232 284 337
#     4  10  21  34  57  84 114 150 188 238 278 346
#     4  10  20  35  57  81 112 150 189 237 289 335
#     4   9  19  36  58  82 108 147 190 234 282 339
#
# _framework density 18.868513
#
# number of rings (size 3 to 8) (size 9 to 14) (size 15 to 20)
#    0.000    2.400    0.000    1.800    2.800    0.800 
#    0.000    3.000    0.000    3.600    0.000    0.000 
#    0.000    0.000    0.000    0.000    0.000    0.000 
#
# Total GULP energy -222786.787282 kJ/mol
# GULP energy per Si atom -5569.669682 kJ/mol
# Density = 1.882557 g / cm^3
# Si number density = 18.868513 Si / 1000 Ang^3
#
#
#
# Elastic Constant Matrix: (Units=GPa)
#
#
# Indices 1 2 3 4 5 6 
#
# 1 90.6433 22.7462 4.9583 0.0000 0.0000 0.0000
# 2 22.7462 58.1065 19.0844 0.0000 0.0000 0.0000
# 3 4.9583 19.0844 70.8193 0.0000 0.0000 0.0000
# 4 0.0000 0.0000 0.0000 14.1327 0.0000 0.0000
# 5 0.0000 0.0000 0.0000 0.0000 19.3215 0.0000
# 6 0.0000 0.0000 0.0000 0.0000 0.0000 25.7941
#
#
#
# Elastic Compliance Matrix: (Units=1/GPa)
#
#
# Indices 1 2 3 4 5 6 
#
# 1 0.012249 -0.004951 0.000477 0.000000 0.000000 0.000000
# 2 -0.004951 0.020882 -0.005281 0.000000 0.000000 0.000000
# 3 0.000477 -0.005281 0.015510 0.000000 0.000000 0.000000
# 4 0.000000 0.000000 0.000000 0.070758 0.000000 0.000000
# 5 0.000000 0.000000 0.000000 0.000000 0.051756 0.000000
# 6 0.000000 0.000000 0.000000 0.000000 0.000000 0.038768
#
#
# Mechanical properties :
#
#
# Convention : Reuss Voigt Hill
#
# Bulk Modulus (GPa) = 34.32838 34.79410 34.56124
# Shear Modulus (GPa) = 20.90788 23.36836 22.13812
#
# Velocity S-wave (km/s) = 3.33240 3.52303 3.42904
# Velocity P-wave (km/s) = 5.74800 5.91856 5.83390
#
# Compressibility (1/GPa) = 0.02913042
#
# Stress axis : x y z
#
# Youngs Moduli (GPa) = 81.64138 47.88714 64.47404
#
# Poissons Ratio (x) = 0.23711 -0.03074
# Poissons Ratio (y) = 0.40424 0.34047
# Poissons Ratio (z) = -0.03892 0.25288
#
# Static dielectric constant tensor:
#      x y z
#    x 1.637640 0.000000 0.000000 
#    y 0.000000 1.645150 0.000000 
#    z 0.000000 0.000000 1.728680 
# 
# From -- ./inp_files/12981.got.cif
#   From: 2010.05.17/outbox.cif.g08.bks.cpg/sg62_7_cif.got.tgz:12981.got - 2010.06.03 15:25:27.
