data_PCOD9464461
_publ_section_title
;
Structure prediction by ZEFSAII (Michael W. Deem and Ramdas Pophale) SiO2 
 PCOD9464461
Probable space group: P N M A
;
_chemical_formula_sum "Si O2"
_cell_formula_units_Z 56
_cell_length_a 21.668563
_cell_length_b 9.301376
_cell_length_c 14.505555
_cell_angle_alpha 90.000000
_cell_angle_beta 90.000000
_cell_angle_gamma 90.000000
_cell_volume 2923.557648
_symmetry_space_group_name_H-M "P N M A"
_symmetry_group_IT_number 62
_symmetry_cell_setting 'orthorhombic'
loop_
_space_group_symop_operation_xyz
x,y,z
1/2-x,-y,1/2+z
1/2+x,1/2-y,1/2-z
-x,1/2+y,-z
-x,-y,-z
1/2+x,y,1/2-z
1/2-x,1/2+y,1/2+z
x,1/2-y,z
loop_
_atom_site_type_symbol
_atom_site_label
_atom_site_fract_x
_atom_site_fract_y
_atom_site_fract_z
Si Si1 0.386508 0.421674 0.302177
Si Si2 0.630365 0.084073 0.322088
Si Si3 0.724146 0.581257 0.832227
Si Si4 0.434776 0.920971 0.482336
Si Si5 0.403145 0.418261 0.852285
Si Si6 0.343257 0.584625 0.010316
Si Si7 0.957579 0.585036 0.351925
O O1 0.390289 0.250000 0.316091
O O2 0.320606 0.456911 0.253627
O O3 0.400641 0.505640 0.395938
O O4 0.436507 0.475422 0.227084
O O5 0.616430 0.250000 0.296162
O O6 0.703769 0.062802 0.314304
O O7 0.606209 0.063077 0.425492
O O8 0.598917 0.976532 0.251246
O O9 0.712407 0.750000 0.851273
O O10 0.704627 0.491310 0.921575
O O11 0.444074 0.750000 0.466338
O O12 0.500000 0.000000 0.500000
O O13 0.389707 0.250000 0.856701
O O14 0.473321 0.442367 0.885378
O O15 0.355258 0.503895 0.915247
O O16 0.326843 0.750000 0.994544
O O17 0.407537 0.577641 0.067170
O O18 0.955990 0.750000 0.315321
#
# Coordination Sequence:
#
# PCOD9464461 Si02
#       7
#     8   8   8   8   8   8   8
#     4  10  20  35  59  85 111 146 184 228 281 335
#     4  10  23  41  58  79 110 148 188 233 281 330
#     4   9  20  40  60  81 111 145 186 231 277 332
#     4  11  23  39  60  85 115 150 191 238 286 338
#     4  11  22  35  54  81 112 145 180 222 273 326
#     4  10  20  35  57  83 112 146 183 223 269 325
#     4   9  19  35  55  82 114 146 181 221 267 324
#
# _framework density 19.154745999999999
#
# number of rings (size 3 to 8) (size 9 to 14) (size 15 to 20)
#    0.000    2.000    0.000    3.000    0.000    7.429 
#    0.000    2.857    0.000    0.000    0.000    0.000 
#    0.000    0.000    0.000    0.000    0.000    0.000 
#
# Total GULP energy -312735.547082 kJ/mol
# GULP energy per Si atom -5584.563341 kJ/mol
# Density = 1.911115 g / cm^3
# Si number density = 19.154746 Si / 1000 Ang^3
#
#
#
# Elastic Constant Matrix: (Units=GPa)
#
#
# Indices 1 2 3 4 5 6 
#
# 1 51.8712 32.5614 4.8926 0.0000 0.0000 0.0000
# 2 32.5614 71.6336 38.2231 0.0000 0.0000 0.0000
# 3 4.8926 38.2231 67.5779 0.0000 0.0000 0.0000
# 4 0.0000 0.0000 0.0000 40.1714 0.0000 0.0000
# 5 0.0000 0.0000 0.0000 0.0000 13.0264 0.0000
# 6 0.0000 0.0000 0.0000 0.0000 0.0000 22.6743
#
#
#
# Elastic Compliance Matrix: (Units=1/GPa)
#
#
# Indices 1 2 3 4 5 6 
#
# 1 0.029614 -0.017641 0.007834 0.000000 0.000000 0.000000
# 2 -0.017641 0.030504 -0.015976 0.000000 0.000000 0.000000
# 3 0.007834 -0.015976 0.023267 0.000000 0.000000 0.000000
# 4 0.000000 0.000000 0.000000 0.024893 0.000000 0.000000
# 5 0.000000 0.000000 0.000000 0.000000 0.076767 0.000000
# 6 0.000000 0.000000 0.000000 0.000000 0.000000 0.044103
#
#
# Mechanical properties :
#
#
# Convention : Reuss Voigt Hill
#
# Bulk Modulus (GPa) = 31.42903 38.04852 34.73877
# Shear Modulus (GPa) = 17.16329 22.86812 20.01571
#
# Velocity S-wave (km/s) = 2.99663 3.45898 3.23607
# Velocity P-wave (km/s) = 5.33072 5.98829 5.66905
#
# Compressibility (1/GPa) = 0.03181772
#
# Stress axis : x y z
#
# Youngs Moduli (GPa) = 33.76824 32.78311 42.97962
#
# Poissons Ratio (x) = 0.57833 -0.33671
# Poissons Ratio (y) = 0.59571 0.68664
# Poissons Ratio (z) = -0.26454 0.52374
#
# Static dielectric constant tensor:
#      x y z
#    x 1.670160 0.000000 0.000000 
#    y 0.000000 1.651540 0.000000 
#    z 0.000000 0.000000 1.649780 
# 
# From -- ./inp_files/20314.got.cif
#   From: 2010.05.17/outbox.cif.g08.bks.cpg/sg62_11_cif.got.tgz:20314.got - 2010.06.03 15:25:27.
