data_PCOD9464588
_publ_section_title
;
Structure prediction by ZEFSAII (Michael W. Deem and Ramdas Pophale) SiO2 
 PCOD9464588
Probable space group: P N M A
;
_chemical_formula_sum "Si O2"
_cell_formula_units_Z 44
_cell_length_a 5.166140
_cell_length_b 20.008378
_cell_length_c 23.528502
_cell_angle_alpha 90.000000
_cell_angle_beta 90.000000
_cell_angle_gamma 90.000000
_cell_volume 2432.049065
_symmetry_space_group_name_H-M "P N M A"
_symmetry_group_IT_number 62
_symmetry_cell_setting 'orthorhombic'
loop_
_space_group_symop_operation_xyz
x,y,z
1/2-x,-y,1/2+z
1/2+x,1/2-y,1/2-z
-x,1/2+y,-z
-x,-y,-z
1/2+x,y,1/2-z
1/2-x,1/2+y,1/2+z
x,1/2-y,z
loop_
_atom_site_type_symbol
_atom_site_label
_atom_site_fract_x
_atom_site_fract_y
_atom_site_fract_z
Si Si1 0.561316 0.826425 0.434115
Si Si2 0.948853 0.514958 0.286969
Si Si3 0.051320 0.643800 0.713120
Si Si4 0.058170 0.626499 0.374921
Si Si5 0.500623 0.250000 0.788746
Si Si6 0.949148 0.750000 0.957602
Si Si7 0.949901 0.750000 0.617081
O O1 0.558353 0.750000 0.409846
O O2 0.338305 0.867711 0.403287
O O3 0.498891 0.812773 0.500156
O O4 0.839026 0.857317 0.421452
O O5 0.172095 0.531082 0.240921
O O6 0.960271 0.435618 0.298089
O O7 0.003018 0.557769 0.342769
O O8 0.828160 0.659618 0.759080
O O9 0.998806 0.686303 0.657196
O O10 0.033984 0.684723 0.327679
O O11 0.779567 0.250000 0.759177
O O12 0.661994 0.750000 0.932956
O O13 0.163032 0.750000 0.908618
#
# Coordination Sequence:
#
# PCOD9464588 Si02
#       7
#     8   8   8   8   4   4   4
#     4  10  20  36  52  74 100 141 184 229 265 307
#     4  10  21  36  52  78 113 149 179 216 265 327
#     4  10  21  37  58  86 117 141 171 209 268 334
#     4  12  19  34  52  71 103 145 189 213 271 315
#     4  12  20  26  40  68  98 124 170 226 254 290
#     4  10  22  36  56  86 108 136 178 234 282 306
#     4  12  20  36  64  86 108 136 176 224 270 332
#
# _framework density 18.091740000000001
#
# number of rings (size 3 to 8) (size 9 to 14) (size 15 to 20)
#    0.545    0.727    1.818    6.000    0.000    0.000 
#    0.000    0.000    0.000    6.545    0.000    0.000 
#    0.000    0.000    0.000    0.000    0.000    0.000 
#
# Total GULP energy -245754.542099 kJ/mol
# GULP energy per Si atom -5585.330502 kJ/mol
# Density = 1.805056 g / cm^3
# Si number density = 18.091740 Si / 1000 Ang^3
#
#
#
# Elastic Constant Matrix: (Units=GPa)
#
#
# Indices 1 2 3 4 5 6 
#
# 1 42.0706 -8.8014 -24.9866 0.0000 0.0000 0.0000
# 2 -8.8014 34.2384 11.9068 0.0000 0.0000 0.0000
# 3 -24.9866 11.9068 36.6132 0.0000 0.0000 0.0000
# 4 0.0000 0.0000 0.0000 16.2142 0.0000 0.0000
# 5 0.0000 0.0000 0.0000 0.0000 39.0657 0.0000
# 6 0.0000 0.0000 0.0000 0.0000 0.0000 7.6779
#
#
#
# Elastic Compliance Matrix: (Units=1/GPa)
#
#
# Indices 1 2 3 4 5 6 
#
# 1 0.039994 0.000890 0.027005 0.000000 0.000000 0.000000
# 2 0.000890 0.032951 -0.010109 0.000000 0.000000 0.000000
# 3 0.027005 -0.010109 0.049029 0.000000 0.000000 0.000000
# 4 0.000000 0.000000 0.000000 0.061674 0.000000 0.000000
# 5 0.000000 0.000000 0.000000 0.000000 0.025598 0.000000
# 6 0.000000 0.000000 0.000000 0.000000 0.000000 0.130244
#
#
# Mechanical properties :
#
#
# Convention : Reuss Voigt Hill
#
# Bulk Modulus (GPa) = 6.34733 7.68442 7.01587
# Shear Modulus (GPa) = 14.02781 21.57844 17.80313
#
# Velocity S-wave (km/s) = 2.78757 3.45733 3.14036
# Velocity P-wave (km/s) = 3.72515 4.49379 4.12741
#
# Compressibility (1/GPa) = 0.15754649
#
# Stress axis : x y z
#
# Youngs Moduli (GPa) = 25.00355 30.34801 20.39605
#
# Poissons Ratio (x) = -0.02701 -0.55079
# Poissons Ratio (y) = -0.02225 0.20617
# Poissons Ratio (z) = -0.67521 0.30677
#
# Static dielectric constant tensor:
#      x y z
#    x 1.606600 0.000000 0.000000 
#    y 0.000000 1.612270 0.000000 
#    z 0.000000 0.000000 1.602440 
# 
# From -- ./inp_files/25294.got.cif
#   From: 2010.05.17/outbox.cif.g08.bks.cpg/sg62_13_cif.got.tgz:25294.got - 2010.06.03 15:25:27.
