data_PCOD9464322
_publ_section_title
;
Structure prediction by ZEFSAII (Michael W. Deem and Ramdas Pophale) SiO2 
 PCOD9464322
Probable space group: P N M A
;
_chemical_formula_sum "Si O2"
_cell_formula_units_Z 56
_cell_length_a 9.342417
_cell_length_b 13.855979
_cell_length_c 21.971485
_cell_angle_alpha 90.000000
_cell_angle_beta 90.000000
_cell_angle_gamma 90.000000
_cell_volume 2844.172124
_symmetry_space_group_name_H-M "P N M A"
_symmetry_group_IT_number 62
_symmetry_cell_setting 'orthorhombic'
loop_
_space_group_symop_operation_xyz
x,y,z
1/2-x,-y,1/2+z
1/2+x,1/2-y,1/2-z
-x,1/2+y,-z
-x,-y,-z
1/2+x,y,1/2-z
1/2-x,1/2+y,1/2+z
x,1/2-y,z
loop_
_atom_site_type_symbol
_atom_site_label
_atom_site_fract_x
_atom_site_fract_y
_atom_site_fract_z
Si Si1 0.947412 0.359363 0.528207
Si Si2 0.957273 0.467378 0.067270
Si Si3 0.707113 0.361485 0.776064
Si Si4 0.017934 0.138242 0.835826
Si Si5 0.954223 0.000786 0.365125
Si Si6 0.735001 0.360543 0.428069
Si Si7 0.339458 0.637320 0.911381
O O1 0.952566 0.250000 0.551559
O O2 0.792928 0.376491 0.497142
O O3 0.990808 0.432375 0.580293
O O4 0.056859 0.366389 0.471033
O O5 0.070680 0.382927 0.081380
O O6 0.977554 0.558357 0.111963
O O7 0.802517 0.420450 0.072682
O O8 0.000000 0.500000 0.000000
O O9 0.673668 0.250000 0.792679
O O10 0.659899 0.371502 0.705921
O O11 0.603760 0.433744 0.812096
O O12 0.872887 0.376404 0.795171
O O13 0.011942 0.250000 0.858014
O O14 0.820456 0.063339 0.387997
O O15 0.079242 0.079737 0.357577
O O16 0.772848 0.250000 0.413566
O O17 0.315456 0.750000 0.897858
#
# Coordination Sequence:
#
# PCOD9464322 Si02
#       7
#     8   8   8   8   8   8   8
#     4   9  18  33  53  84 120 156 200 253 307 371
#     4  12  23  39  60  91 123 166 207 259 320 371
#     4  10  22  41  66  93 123 158 200 253 312 373
#     4  10  24  44  65  94 126 161 204 256 315 374
#     4  11  18  35  60  87 112 159 206 249 304 364
#     4  10  20  35  54  80 118 159 204 252 303 359
#     4  10  22  35  54  84 125 163 201 253 307 363
#
# _framework density 19.689385999999999
#
# number of rings (size 3 to 8) (size 9 to 14) (size 15 to 20)
#    0.000    1.714    1.429    5.571    2.000    1.143 
#    0.000    0.714    0.000    5.143    0.000    0.000 
#    0.000    0.000    0.000    0.000    0.000    0.000 
#
# Total GULP energy -312610.477578 kJ/mol
# GULP energy per Si atom -5582.329957 kJ/mol
# Density = 1.964457 g / cm^3
# Si number density = 19.689386 Si / 1000 Ang^3
#
#
#
# Elastic Constant Matrix: (Units=GPa)
#
#
# Indices 1 2 3 4 5 6 
#
# 1 72.2719 23.2189 1.6279 0.0000 0.0000 0.0000
# 2 23.2189 124.4570 39.8392 0.0000 0.0000 0.0000
# 3 1.6279 39.8392 44.2258 0.0000 0.0000 0.0000
# 4 0.0000 0.0000 0.0000 29.7164 0.0000 0.0000
# 5 0.0000 0.0000 0.0000 0.0000 14.5227 0.0000
# 6 0.0000 0.0000 0.0000 0.0000 0.0000 30.3931
#
#
#
# Elastic Compliance Matrix: (Units=1/GPa)
#
#
# Indices 1 2 3 4 5 6 
#
# 1 0.014954 -0.003673 0.002758 0.000000 0.000000 0.000000
# 2 -0.003673 0.012193 -0.010848 0.000000 0.000000 0.000000
# 3 0.002758 -0.010848 0.032282 0.000000 0.000000 0.000000
# 4 0.000000 0.000000 0.000000 0.033651 0.000000 0.000000
# 5 0.000000 0.000000 0.000000 0.000000 0.068858 0.000000
# 6 0.000000 0.000000 0.000000 0.000000 0.000000 0.032902
#
#
# Mechanical properties :
#
#
# Convention : Reuss Voigt Hill
#
# Bulk Modulus (GPa) = 27.85262 41.14741 34.50002
# Shear Modulus (GPa) = 21.70764 26.67769 24.19267
#
# Velocity S-wave (km/s) = 3.32400 3.68493 3.50911
# Velocity P-wave (km/s) = 5.37668 6.24888 5.82912
#
# Compressibility (1/GPa) = 0.03590326
#
# Stress axis : x y z
#
# Youngs Moduli (GPa) = 66.86957 82.01671 30.97714
#
# Poissons Ratio (x) = 0.30123 -0.08544
# Poissons Ratio (y) = 0.24560 0.33604
# Poissons Ratio (z) = -0.18443 0.88973
#
# Static dielectric constant tensor:
#      x y z
#    x 1.727640 0.000000 0.000000 
#    y 0.000000 1.698000 0.000000 
#    z 0.000000 0.000000 1.682690 
# 
# From -- ./inp_files/26013.got.cif
#   From: 2010.05.17/outbox.cif.g08.bks.cpg/sg62_14_cif.got.tgz:26013.got - 2010.06.03 15:25:27.
