data_PCOD9464160
_publ_section_title
;
Structure prediction by ZEFSAII (Michael W. Deem and Ramdas Pophale) SiO2 
 PCOD9464160
Probable space group: P N M A
;
_chemical_formula_sum "Si O2"
_cell_formula_units_Z 56
_cell_length_a 15.174276
_cell_length_b 7.544507
_cell_length_c 21.013283
_cell_angle_alpha 90.000000
_cell_angle_beta 90.000000
_cell_angle_gamma 90.000000
_cell_volume 2405.651732
_symmetry_space_group_name_H-M "P N M A"
_symmetry_group_IT_number 62
_symmetry_cell_setting 'orthorhombic'
loop_
_space_group_symop_operation_xyz
x,y,z
1/2-x,-y,1/2+z
1/2+x,1/2-y,1/2-z
-x,1/2+y,-z
-x,-y,-z
1/2+x,y,1/2-z
1/2-x,1/2+y,1/2+z
x,1/2-y,z
loop_
_atom_site_type_symbol
_atom_site_label
_atom_site_fract_x
_atom_site_fract_y
_atom_site_fract_z
Si Si1 0.691416 0.537303 0.818311
Si Si2 0.226184 0.545073 0.958626
Si Si3 0.347950 0.039128 0.585648
Si Si4 0.198063 0.954358 0.821046
Si Si5 0.506893 0.533170 0.316507
Si Si6 0.083013 0.961447 0.455998
Si Si7 0.485551 0.041916 0.823474
O O1 0.687560 0.750000 0.814760
O O2 0.760362 0.486919 0.872231
O O3 0.721073 0.468300 0.748296
O O4 0.591367 0.476312 0.830719
O O5 0.198594 0.750000 0.950132
O O6 0.227178 0.462824 0.888029
O O7 0.326693 0.540337 0.981950
O O8 0.166781 0.465725 0.014695
O O9 0.360574 0.250000 0.578906
O O10 0.429364 0.971856 0.627377
O O11 0.228629 0.750000 0.820099
O O12 0.091912 0.963838 0.823602
O O13 0.503455 0.750000 0.316428
O O14 0.538905 0.473189 0.246460
O O15 0.094280 0.750000 0.453878
O O16 0.062177 0.033354 0.385263
O O17 0.000000 0.000000 0.500000
O O18 0.465026 0.250000 0.822897
#
# Coordination Sequence:
#
# PCOD9464160 Si02
#       7
#     8   8   8   8   8   8   8
#     4  10  20  34  55  82 110 142 181 225 273 326
#     4  10  22  39  56  79 113 150 183 222 277 333
#     4  10  21  36  56  80 109 145 183 224 273 325
#     4   9  20  38  56  79 112 146 180 224 279 331
#     4   9  19  36  57  81 106 138 183 229 271 320
#     4  11  23  37  56  82 112 147 186 228 276 330
#     4   9  19  36  55  77 106 140 179 224 273 323
#
# _framework density 23.278516
#
# number of rings (size 3 to 8) (size 9 to 14) (size 15 to 20)
#    0.000    2.286    0.000    1.714    2.000    7.429 
#    0.000    0.000    0.000    0.000    0.000    0.000 
#    0.000    0.000    0.000    0.000    0.000    0.000 
#
# Total GULP energy -312841.532326 kJ/mol
# GULP energy per Si atom -5586.455934 kJ/mol
# Density = 2.322553 g / cm^3
# Si number density = 23.278516 Si / 1000 Ang^3
#
#
#
# Elastic Constant Matrix: (Units=GPa)
#
#
# Indices 1 2 3 4 5 6 
#
# 1 27.0655 -13.5885 7.3493 0.0000 0.0000 0.0000
# 2 -13.5885 68.5813 8.0453 0.0000 0.0000 0.0000
# 3 7.3493 8.0453 94.8967 0.0000 0.0000 0.0000
# 4 0.0000 0.0000 0.0000 7.4818 0.0000 0.0000
# 5 0.0000 0.0000 0.0000 0.0000 32.6886 0.0000
# 6 0.0000 0.0000 0.0000 0.0000 0.0000 18.3623
#
#
#
# Elastic Compliance Matrix: (Units=1/GPa)
#
#
# Indices 1 2 3 4 5 6 
#
# 1 0.042514 0.008898 -0.004047 0.000000 0.000000 0.000000
# 2 0.008898 0.016590 -0.002096 0.000000 0.000000 0.000000
# 3 -0.004047 -0.002096 0.011029 0.000000 0.000000 0.000000
# 4 0.000000 0.000000 0.000000 0.133657 0.000000 0.000000
# 5 0.000000 0.000000 0.000000 0.000000 0.030592 0.000000
# 6 0.000000 0.000000 0.000000 0.000000 0.000000 0.054459
#
#
# Mechanical properties :
#
#
# Convention : Reuss Voigt Hill
#
# Bulk Modulus (GPa) = 13.21978 21.57286 17.39632
# Shear Modulus (GPa) = 16.20516 24.28906 20.24711
#
# Velocity S-wave (km/s) = 2.64131 3.23369 2.95240
# Velocity P-wave (km/s) = 3.87212 4.81973 4.37168
#
# Compressibility (1/GPa) = 0.07564424
#
# Stress axis : x y z
#
# Youngs Moduli (GPa) = 23.52182 60.27671 90.67125
#
# Poissons Ratio (x) = -0.53636 0.36694
# Poissons Ratio (y) = -0.20930 0.19001
# Poissons Ratio (z) = 0.09519 0.12632
#
# Static dielectric constant tensor:
#      x y z
#    x 1.828120 0.000000 0.000000 
#    y 0.000000 1.878670 0.000000 
#    z 0.000000 0.000000 1.931390 
# 
# From -- ./inp_files/27242.got.cif
#   From: 2010.05.17/outbox.cif.g08.bks.cpg/sg62_14_cif.got.tgz:27242.got - 2010.06.03 15:25:27.
