data_PCOD9464296
_publ_section_title
;
Structure prediction by ZEFSAII (Michael W. Deem and Ramdas Pophale) SiO2 
 PCOD9464296
Probable space group: P N M A
;
_chemical_formula_sum "Si O2"
_cell_formula_units_Z 60
_cell_length_a 8.412614
_cell_length_b 14.609735
_cell_length_c 26.389383
_cell_angle_alpha 90.000000
_cell_angle_beta 90.000000
_cell_angle_gamma 90.000000
_cell_volume 3243.415122
_symmetry_space_group_name_H-M "P N M A"
_symmetry_group_IT_number 62
_symmetry_cell_setting 'orthorhombic'
loop_
_space_group_symop_operation_xyz
x,y,z
1/2-x,-y,1/2+z
1/2+x,1/2-y,1/2-z
-x,1/2+y,-z
-x,-y,-z
1/2+x,y,1/2-z
1/2-x,1/2+y,1/2+z
x,1/2-y,z
loop_
_atom_site_type_symbol
_atom_site_label
_atom_site_fract_x
_atom_site_fract_y
_atom_site_fract_z
Si Si1 0.254526 0.410181 0.969644
Si Si2 0.470590 0.250000 0.995930
Si Si3 0.605623 0.860602 0.827398
Si Si4 0.221047 0.041024 0.087759
Si Si5 0.290775 0.615360 0.950065
Si Si6 0.933537 0.354574 0.140047
Si Si7 0.780879 0.860439 0.728760
Si Si8 0.898492 0.143970 0.947544
O O1 0.227980 0.422813 0.030245
O O2 0.314892 0.506859 0.949191
O O3 0.378988 0.329905 0.963695
O O4 0.083224 0.383910 0.946464
O O5 0.560312 0.171182 0.030272
O O6 0.604521 0.750000 0.836847
O O7 0.638574 0.917593 0.878016
O O8 0.745593 0.883301 0.786909
O O9 0.443897 0.887072 0.798390
O O10 0.063218 0.082888 0.113358
O O11 0.202212 0.931469 0.083257
O O12 0.159179 0.634250 0.994121
O O13 0.218501 0.647223 0.897244
O O14 0.994595 0.250000 0.144906
O O15 0.867265 0.388655 0.193557
O O16 0.779834 0.750000 0.727342
O O17 0.872928 0.250000 0.933087
#
# Coordination Sequence:
#
# PCOD9464296 Si02
#       8
#     8   4   8   8   8   8   8   8
#     4  11  23  36  53  78 108 148 192 225 270 322
#     4  12  24  32  54  72 110 154 174 234 272 312
#     4  10  20  35  53  78 113 140 174 215 266 327
#     4  11  22  33  55  80 103 142 188 228 261 325
#     4  11  21  37  51  76 110 145 187 226 268 319
#     4  11  19  31  53  76 107 143 176 216 267 321
#     4   9  20  34  52  78 113 146 172 211 265 330
#     4  11  20  40  57  73 105 149 192 234 270 318
#
# _framework density 18.499019000000001
#
# number of rings (size 3 to 8) (size 9 to 14) (size 15 to 20)
#    0.000    1.333    4.667    2.400    3.733    2.133 
#    0.000    0.000    0.000    0.000    0.000    3.733 
#    0.000    0.000    0.000    0.000    0.000    0.000 
#
# Total GULP energy -334110.097679 kJ/mol
# GULP energy per Si atom -5568.501628 kJ/mol
# Density = 1.845691 g / cm^3
# Si number density = 18.499019 Si / 1000 Ang^3
#
#
#
# Elastic Constant Matrix: (Units=GPa)
#
#
# Indices 1 2 3 4 5 6 
#
# 1 36.2992 9.1112 0.3750 0.0000 0.0000 0.0000
# 2 9.1112 119.0147 9.1887 0.0000 0.0000 0.0000
# 3 0.3750 9.1887 60.7973 0.0000 0.0000 0.0000
# 4 0.0000 0.0000 0.0000 18.6957 0.0000 0.0000
# 5 0.0000 0.0000 0.0000 0.0000 30.8413 0.0000
# 6 0.0000 0.0000 0.0000 0.0000 0.0000 52.6631
#
#
#
# Elastic Compliance Matrix: (Units=1/GPa)
#
#
# Indices 1 2 3 4 5 6 
#
# 1 0.028090 -0.002162 0.000154 0.000000 0.000000 0.000000
# 2 -0.002162 0.008668 -0.001297 0.000000 0.000000 0.000000
# 3 0.000154 -0.001297 0.016643 0.000000 0.000000 0.000000
# 4 0.000000 0.000000 0.000000 0.053488 0.000000 0.000000
# 5 0.000000 0.000000 0.000000 0.000000 0.032424 0.000000
# 6 0.000000 0.000000 0.000000 0.000000 0.000000 0.018989
#
#
# Mechanical properties :
#
#
# Convention : Reuss Voigt Hill
#
# Bulk Modulus (GPa) = 21.37201 28.16232 24.76717
# Shear Modulus (GPa) = 27.69935 33.60244 30.65090
#
# Velocity S-wave (km/s) = 3.87375 4.26660 4.07491
# Velocity P-wave (km/s) = 5.62015 6.28717 5.96299
#
# Compressibility (1/GPa) = 0.04679016
#
# Stress axis : x y z
#
# Youngs Moduli (GPa) = 35.59995 115.36725 60.08481
#
# Poissons Ratio (x) = 0.24946 -0.00923
# Poissons Ratio (y) = 0.07698 0.07791
# Poissons Ratio (z) = -0.00547 0.14960
#
# Static dielectric constant tensor:
#      x y z
#    x 1.739430 0.000000 0.000000 
#    y 0.000000 1.626200 0.000000 
#    z 0.000000 0.000000 1.642250 
# 
# From -- ./inp_files/28926.got.cif
#   From: 2010.05.17/outbox.cif.g08.bks.cpg/sg62_15_cif.got.tgz:28926.got - 2010.06.03 15:25:27.
