data_PCOD9464492
_publ_section_title
;
Structure prediction by ZEFSAII (Michael W. Deem and Ramdas Pophale) SiO2 
 PCOD9464492
Probable space group: P N M A
;
_chemical_formula_sum "Si O2"
_cell_formula_units_Z 56
_cell_length_a 13.472298
_cell_length_b 19.074505
_cell_length_c 9.517853
_cell_angle_alpha 90.000000
_cell_angle_beta 90.000000
_cell_angle_gamma 90.000000
_cell_volume 2445.873266
_symmetry_space_group_name_H-M "P N M A"
_symmetry_group_IT_number 62
_symmetry_cell_setting 'orthorhombic'
loop_
_space_group_symop_operation_xyz
x,y,z
1/2-x,-y,1/2+z
1/2+x,1/2-y,1/2-z
-x,1/2+y,-z
-x,-y,-z
1/2+x,y,1/2-z
1/2-x,1/2+y,1/2+z
x,1/2-y,z
loop_
_atom_site_type_symbol
_atom_site_label
_atom_site_fract_x
_atom_site_fract_y
_atom_site_fract_z
Si Si1 0.135234 0.611650 0.464223
Si Si2 0.743803 0.093945 0.087090
Si Si3 0.561156 0.481286 0.203113
Si Si4 0.028473 0.327581 0.980008
Si Si5 0.685458 0.829411 0.331052
Si Si6 0.165523 0.042582 0.010488
Si Si7 0.919107 0.363107 0.257609
O O1 0.068820 0.549986 0.393412
O O2 0.180825 0.650752 0.330978
O O3 0.228217 0.576719 0.546543
O O4 0.084106 0.660224 0.580737
O O5 0.634360 0.077598 0.137952
O O6 0.812416 0.143877 0.181912
O O7 0.748025 0.121012 0.928016
O O8 0.801351 0.019683 0.090209
O O9 0.608154 0.491992 0.357938
O O10 0.456720 0.443650 0.221353
O O11 0.071425 0.250000 0.952558
O O12 0.097580 0.394573 0.953227
O O13 0.995424 0.332055 0.144066
O O14 0.927067 0.334545 0.891576
O O15 0.719026 0.750000 0.349970
#
# Coordination Sequence:
#
# PCOD9464492 Si02
#       7
#     8   8   8   8   8   8   8
#     4  11  21  36  56  90 119 146 191 238 290 347
#     4  10  20  38  59  85 120 152 200 234 287 351
#     4  10  20  35  57  91 120 147 190 243 284 340
#     4   9  21  40  58  80 111 151 200 239 288 353
#     4  10  22  39  58  81 118 156 190 236 290 351
#     4  10  20  35  62  85 115 155 193 244 282 342
#     4  10  21  35  61  84 114 151 190 239 299 333
#
# _framework density 22.895707999999999
#
# number of rings (size 3 to 8) (size 9 to 14) (size 15 to 20)
#    0.000    2.000    2.857    0.429    2.000    2.857 
#    2.571    2.857    0.000    0.000    0.000    0.000 
#    0.000    0.000    0.000    0.000    0.000    0.000 
#
# Total GULP energy -312598.128545 kJ/mol
# GULP energy per Si atom -5582.109438 kJ/mol
# Density = 2.284360 g / cm^3
# Si number density = 22.895708 Si / 1000 Ang^3
#
#
#
# Elastic Constant Matrix: (Units=GPa)
#
#
# Indices 1 2 3 4 5 6 
#
# 1 52.2119 4.9175 21.9933 0.0000 0.0000 0.0000
# 2 4.9175 63.9476 -6.4597 0.0000 0.0000 0.0000
# 3 21.9933 -6.4597 74.3793 0.0000 0.0000 0.0000
# 4 0.0000 0.0000 0.0000 2.3769 0.0000 0.0000
# 5 0.0000 0.0000 0.0000 0.0000 29.9890 0.0000
# 6 0.0000 0.0000 0.0000 0.0000 0.0000 8.9115
#
#
#
# Elastic Compliance Matrix: (Units=1/GPa)
#
#
# Indices 1 2 3 4 5 6 
#
# 1 0.022235 -0.002395 -0.006783 0.000000 0.000000 0.000000
# 2 -0.002395 0.016034 0.002101 0.000000 0.000000 0.000000
# 3 -0.006783 0.002101 0.015633 0.000000 0.000000 0.000000
# 4 0.000000 0.000000 0.000000 0.420714 0.000000 0.000000
# 5 0.000000 0.000000 0.000000 0.000000 0.033346 0.000000
# 6 0.000000 0.000000 0.000000 0.000000 0.000000 0.112215
#
#
# Mechanical properties :
#
#
# Convention : Reuss Voigt Hill
#
# Bulk Modulus (GPa) = 25.15848 25.71565 25.43707
# Shear Modulus (GPa) = 7.72105 19.59467 13.65786
#
# Velocity S-wave (km/s) = 1.83837 2.92862 2.44504
# Velocity P-wave (km/s) = 3.93932 4.76359 4.37093
#
# Compressibility (1/GPa) = 0.03974803
#
# Stress axis : x y z
#
# Youngs Moduli (GPa) = 44.97325 62.36675 63.96860
#
# Poissons Ratio (x) = 0.14937 0.43389
# Poissons Ratio (y) = 0.10771 -0.13438
# Poissons Ratio (z) = 0.30505 -0.13102
#
# Static dielectric constant tensor:
#      x y z
#    x 1.873660 0.000000 0.000000 
#    y 0.000000 1.853690 0.000000 
#    z 0.000000 0.000000 1.903560 
# 
# From -- ./inp_files/6753.got.cif
#   From: 2010.05.17/outbox.cif.g08.bks.cpg/sg62_4_cif.got.tgz:6753.got - 2010.06.03 15:25:27.
