data_PCOD9464739
_publ_section_title
;
Structure prediction by ZEFSAII (Michael W. Deem and Ramdas Pophale) SiO2 
 PCOD9464739
Probable space group: P N M A
;
_chemical_formula_sum "Si O2"
_cell_formula_units_Z 48
_cell_length_a 19.101419
_cell_length_b 8.364248
_cell_length_c 15.456447
_cell_angle_alpha 90.000000
_cell_angle_beta 90.000000
_cell_angle_gamma 90.000000
_cell_volume 2469.461168
_symmetry_space_group_name_H-M "P N M A"
_symmetry_group_IT_number 62
_symmetry_cell_setting 'orthorhombic'
loop_
_space_group_symop_operation_xyz
x,y,z
1/2-x,-y,1/2+z
1/2+x,1/2-y,1/2-z
-x,1/2+y,-z
-x,-y,-z
1/2+x,y,1/2-z
1/2-x,1/2+y,1/2+z
x,1/2-y,z
loop_
_atom_site_type_symbol
_atom_site_label
_atom_site_fract_x
_atom_site_fract_y
_atom_site_fract_z
Si Si1 0.332635 0.061532 0.501188
Si Si2 0.091218 0.061504 0.837991
Si Si3 0.411934 0.058466 0.830287
Si Si4 0.827025 0.943667 0.509490
Si Si5 0.929619 0.555671 0.357440
Si Si6 0.937990 0.563815 0.856711
O O1 0.335720 0.250000 0.520358
O O2 0.252454 0.006779 0.509250
O O3 0.359625 0.029922 0.404355
O O4 0.384777 0.974295 0.566667
O O5 0.106802 0.250000 0.842304
O O6 0.096198 0.007218 0.738130
O O7 0.010243 0.034009 0.864519
O O8 0.412159 0.250000 0.821180
O O9 0.489091 0.007335 0.864933
O O10 0.354412 0.005764 0.898823
O O11 0.404554 0.983174 0.735504
O O12 0.828421 0.750000 0.511166
O O13 0.880215 0.000175 0.434664
O O14 0.928758 0.750000 0.358256
O O15 0.956474 0.750000 0.857004
#
# Coordination Sequence:
#
# PCOD9464739 Si02
#       6
#     8   8   8   8   8   8
#     4  11  23  37  54  81 116 151 186 228 279 335
#     4  10  20  37  60  84 110 143 187 235 282 334
#     4  10  20  36  59  85 112 144 186 233 279 329
#     4  10  21  37  56  81 115 151 185 224 274 331
#     4   8  17  35  58  82 107 141 184 228 273 322
#     4  11  22  38  60  83 109 144 187 234 283 335
#
# _framework density 19.437436999999999
#
# number of rings (size 3 to 8) (size 9 to 14) (size 15 to 20)
#    0.000    2.000    0.000    5.000    0.000    2.667 
#    0.000    5.833    0.000    0.000    0.000    0.000 
#    0.000    0.000    0.000    0.000    0.000    0.000 
#
# Total GULP energy -268160.956635 kJ/mol
# GULP energy per Si atom -5586.686597 kJ/mol
# Density = 1.939320 g / cm^3
# Si number density = 19.437437 Si / 1000 Ang^3
#
#
#
# Elastic Constant Matrix: (Units=GPa)
#
#
# Indices 1 2 3 4 5 6 
#
# 1 22.6678 -6.4515 10.7461 0.0000 0.0000 0.0000
# 2 -6.4515 21.4560 -4.6979 0.0000 0.0000 0.0000
# 3 10.7461 -4.6979 38.4534 0.0000 0.0000 0.0000
# 4 0.0000 0.0000 0.0000 19.9759 0.0000 0.0000
# 5 0.0000 0.0000 0.0000 0.0000 0.5755 0.0000
# 6 0.0000 0.0000 0.0000 0.0000 0.0000 21.3180
#
#
#
# Elastic Compliance Matrix: (Units=1/GPa)
#
#
# Indices 1 2 3 4 5 6 
#
# 1 0.054347 0.013374 -0.013554 0.000000 0.000000 0.000000
# 2 0.013374 0.051179 0.002515 0.000000 0.000000 0.000000
# 3 -0.013554 0.002515 0.030100 0.000000 0.000000 0.000000
# 4 0.000000 0.000000 0.000000 0.050060 0.000000 0.000000
# 5 0.000000 0.000000 0.000000 0.000000 1.737649 0.000000
# 6 0.000000 0.000000 0.000000 0.000000 0.000000 0.046909
#
#
# Mechanical properties :
#
#
# Convention : Reuss Voigt Hill
#
# Bulk Modulus (GPa) = 7.12775 9.08562 8.10668
# Shear Modulus (GPa) = 2.48467 13.90591 8.19529
#
# Velocity S-wave (km/s) = 1.13184 2.67763 2.05558
# Velocity P-wave (km/s) = 2.32014 3.77413 3.13266
#
# Compressibility (1/GPa) = 0.14029674
#
# Stress axis : x y z
#
# Youngs Moduli (GPa) = 18.40024 19.53927 33.22207
#
# Poissons Ratio (x) = -0.26131 0.45028
# Poissons Ratio (y) = -0.24608 -0.08356
# Poissons Ratio (z) = 0.24939 -0.04915
#
# Static dielectric constant tensor:
#      x y z
#    x 1.660270 0.000000 0.000000 
#    y 0.000000 1.661530 0.000000 
#    z 0.000000 0.000000 1.660900 
# 
# From -- ./inp_files/19658.got.cif
#   From: 2010.05.17/outbox.cif.g08.bks.cpg/sg62_10_cif.got.tgz:19658.got - 2010.06.03 15:25:27.
