data_PCOD9464443
_publ_section_title
;
Structure prediction by ZEFSAII (Michael W. Deem and Ramdas Pophale) SiO2 
 PCOD9464443
Probable space group: P N M A
;
_chemical_formula_sum "Si O2"
_cell_formula_units_Z 56
_cell_length_a 8.945342
_cell_length_b 18.400055
_cell_length_c 14.074159
_cell_angle_alpha 90.000000
_cell_angle_beta 90.000000
_cell_angle_gamma 90.000000
_cell_volume 2316.533172
_symmetry_space_group_name_H-M "P N M A"
_symmetry_group_IT_number 62
_symmetry_cell_setting 'orthorhombic'
loop_
_space_group_symop_operation_xyz
x,y,z
1/2-x,-y,1/2+z
1/2+x,1/2-y,1/2-z
-x,1/2+y,-z
-x,-y,-z
1/2+x,y,1/2-z
1/2-x,1/2+y,1/2+z
x,1/2-y,z
loop_
_atom_site_type_symbol
_atom_site_label
_atom_site_fract_x
_atom_site_fract_y
_atom_site_fract_z
Si Si1 0.335615 0.663985 0.876334
Si Si2 0.352439 0.595741 0.534856
Si Si3 0.508895 0.513876 0.113736
Si Si4 0.518123 0.664539 0.697068
Si Si5 0.784384 0.520481 0.239159
Si Si6 0.069020 0.560710 0.109114
Si Si7 0.955885 0.162517 0.548168
O O1 0.308716 0.750000 0.878373
O O2 0.474481 0.655027 0.805483
O O3 0.178136 0.635849 0.836568
O O4 0.403601 0.647214 0.978419
O O5 0.389899 0.626097 0.637522
O O6 0.364013 0.508051 0.548928
O O7 0.497601 0.614831 0.468280
O O8 0.202493 0.632644 0.494590
O O9 0.659341 0.489380 0.167294
O O10 0.375326 0.481159 0.176052
O O11 0.500000 0.500000 0.000000
O O12 0.513135 0.601842 0.127937
O O13 0.507280 0.750000 0.677437
O O14 0.918360 0.542150 0.168671
O O15 0.690151 0.575864 0.308460
O O16 0.947494 0.250000 0.566080
#
# Coordination Sequence:
#
# PCOD9464443 Si02
#       7
#     8   8   8   8   8   8   8
#     4   9  20  36  56  88 127 165 215 272 336 411
#     4  11  22  37  61  92 130 167 219 268 343 414
#     4  11  24  44  74 103 140 188 235 295 366 417
#     4  10  20  35  56  86 124 168 212 272 338 412
#     4  10  23  44  67  99 136 173 235 299 341 429
#     4  10  23  40  61  92 126 165 216 282 345 402
#     4  11  23  42  66  97 138 186 231 283 349 419
#
# _framework density 24.174057000000001
#
# number of rings (size 3 to 8) (size 9 to 14) (size 15 to 20)
#    0.000    1.714    1.429    2.143    4.000    6.857 
#    0.000    0.714    0.000    0.000    0.000    0.000 
#    0.000    0.000    0.000    0.000    0.000    0.000 
#
# Total GULP energy -312060.404950 kJ/mol
# GULP energy per Si atom -5572.507231 kJ/mol
# Density = 2.411904 g / cm^3
# Si number density = 24.174057 Si / 1000 Ang^3
#
#
#
# Elastic Constant Matrix: (Units=GPa)
#
#
# Indices 1 2 3 4 5 6 
#
# 1 145.3909 21.5866 22.8421 0.0000 0.0000 0.0000
# 2 21.5866 101.0611 5.2138 0.0000 0.0000 0.0000
# 3 22.8421 5.2138 106.6153 0.0000 0.0000 0.0000
# 4 0.0000 0.0000 0.0000 28.2037 0.0000 0.0000
# 5 0.0000 0.0000 0.0000 0.0000 31.6310 0.0000
# 6 0.0000 0.0000 0.0000 0.0000 0.0000 32.3554
#
#
#
# Elastic Compliance Matrix: (Units=1/GPa)
#
#
# Indices 1 2 3 4 5 6 
#
# 1 0.007335 -0.001489 -0.001499 0.000000 0.000000 0.000000
# 2 -0.001489 0.010222 -0.000181 0.000000 0.000000 0.000000
# 3 -0.001499 -0.000181 0.009709 0.000000 0.000000 0.000000
# 4 0.000000 0.000000 0.000000 0.035456 0.000000 0.000000
# 5 0.000000 0.000000 0.000000 0.000000 0.031615 0.000000
# 6 0.000000 0.000000 0.000000 0.000000 0.000000 0.030907
#
#
# Mechanical properties :
#
#
# Convention : Reuss Voigt Hill
#
# Bulk Modulus (GPa) = 47.78067 50.26136 49.02102
# Shear Modulus (GPa) = 36.08599 38.66634 37.37617
#
# Velocity S-wave (km/s) = 3.86781 4.00371 3.93635
# Velocity P-wave (km/s) = 6.30514 6.49688 6.40173
#
# Compressibility (1/GPa) = 0.02092896
#
# Stress axis : x y z
#
# Youngs Moduli (GPa) = 136.34057 97.82382 102.99267
#
# Poissons Ratio (x) = 0.14569 0.15434
# Poissons Ratio (y) = 0.20306 0.01862
# Poissons Ratio (z) = 0.20432 0.01769
#
# Static dielectric constant tensor:
#      x y z
#    x 1.990770 0.000000 0.000000 
#    y 0.000000 1.971630 0.000000 
#    z 0.000000 0.000000 1.989510 
# 
# From -- ./inp_files/17207.got.cif
#   From: 2010.05.17/outbox.cif.g08.bks.cpg/sg62_9_cif.got.tgz:17207.got - 2010.06.03 15:25:27.
