data_PCOD9464237
_publ_section_title
;
Structure prediction by ZEFSAII (Michael W. Deem and Ramdas Pophale) SiO2 
 PCOD9464237
Probable space group: P N M A
;
_chemical_formula_sum "Si O2"
_cell_formula_units_Z 40
_cell_length_a 17.594173
_cell_length_b 8.277441
_cell_length_c 12.930041
_cell_angle_alpha 90.000000
_cell_angle_beta 90.000000
_cell_angle_gamma 90.000000
_cell_volume 1883.063016
_symmetry_space_group_name_H-M "P N M A"
_symmetry_group_IT_number 62
_symmetry_cell_setting 'orthorhombic'
loop_
_space_group_symop_operation_xyz
x,y,z
1/2-x,-y,1/2+z
1/2+x,1/2-y,1/2-z
-x,1/2+y,-z
-x,-y,-z
1/2+x,y,1/2-z
1/2-x,1/2+y,1/2+z
x,1/2-y,z
loop_
_atom_site_type_symbol
_atom_site_label
_atom_site_fract_x
_atom_site_fract_y
_atom_site_fract_z
Si Si1 0.423537 0.065561 0.635399
Si Si2 0.085154 0.559334 0.914463
Si Si3 0.337621 0.563673 0.810266
Si Si4 0.586994 0.558877 0.983329
Si Si5 0.315329 0.057496 0.211293
O O1 0.406604 0.250000 0.664797
O O2 0.381460 0.021600 0.527932
O O3 0.511507 0.047493 0.605958
O O4 0.406891 0.950047 0.730382
O O5 0.063677 0.750000 0.919077
O O6 0.139996 0.538903 0.818515
O O7 0.320216 0.750000 0.835472
O O8 0.268100 0.493176 0.741689
O O9 0.362686 0.478369 0.915287
O O10 0.580331 0.750000 0.969033
O O11 0.633483 0.492155 0.883298
O O12 0.500000 0.500000 0.000000
O O13 0.305472 0.250000 0.190059
#
# Coordination Sequence:
#
# PCOD9464237 Si02
#       5
#     8   8   8   8   8
#     4  10  20  34  57  88 118 150 194 245 295 356
#     4   9  18  36  60  84 114 153 195 241 297 361
#     4  11  23  39  60  86 121 163 202 247 305 363
#     4  11  23  42  66  94 125 163 210 258 309 373
#     4   9  21  39  60  85 118 158 200 247 305 362
#
# _framework density 21.241986000000001
#
# number of rings (size 3 to 8) (size 9 to 14) (size 15 to 20)
#    0.000    2.000    0.000    3.000    2.800    2.400 
#    0.000    6.000    0.000    0.000    0.000    0.000 
#    0.000    0.000    0.000    0.000    0.000    0.000 
#
# Total GULP energy -223039.650539 kJ/mol
# GULP energy per Si atom -5575.991263 kJ/mol
# Density = 2.119364 g / cm^3
# Si number density = 21.241986 Si / 1000 Ang^3
#
#
#
# Elastic Constant Matrix: (Units=GPa)
#
#
# Indices 1 2 3 4 5 6 
#
# 1 48.7633 6.9974 -2.9785 0.0000 0.0000 0.0000
# 2 6.9974 25.6559 7.3777 0.0000 0.0000 0.0000
# 3 -2.9785 7.3777 65.6424 0.0000 0.0000 0.0000
# 4 0.0000 0.0000 0.0000 22.9971 0.0000 0.0000
# 5 0.0000 0.0000 0.0000 0.0000 25.1765 0.0000
# 6 0.0000 0.0000 0.0000 0.0000 0.0000 23.5949
#
#
#
# Elastic Compliance Matrix: (Units=1/GPa)
#
#
# Indices 1 2 3 4 5 6 
#
# 1 0.021523 -0.006356 0.001691 0.000000 0.000000 0.000000
# 2 -0.006356 0.042157 -0.005027 0.000000 0.000000 0.000000
# 3 0.001691 -0.005027 0.015876 0.000000 0.000000 0.000000
# 4 0.000000 0.000000 0.000000 0.043484 0.000000 0.000000
# 5 0.000000 0.000000 0.000000 0.000000 0.039720 0.000000
# 6 0.000000 0.000000 0.000000 0.000000 0.000000 0.042382
#
#
# Mechanical properties :
#
#
# Convention : Reuss Voigt Hill
#
# Bulk Modulus (GPa) = 16.61926 18.09499 17.35712
# Shear Modulus (GPa) = 20.44312 22.93135 21.68724
#
# Velocity S-wave (km/s) = 3.10561 3.28918 3.19871
# Velocity P-wave (km/s) = 4.54978 4.79186 4.67239
#
# Compressibility (1/GPa) = 0.06017114
#
# Stress axis : x y z
#
# Youngs Moduli (GPa) = 46.46276 23.72113 62.98927
#
# Poissons Ratio (x) = 0.15078 -0.10651
# Poissons Ratio (y) = 0.29533 0.31662
# Poissons Ratio (z) = -0.07857 0.11923
#
# Static dielectric constant tensor:
#      x y z
#    x 1.818250 0.000000 0.000000 
#    y 0.000000 1.755940 0.000000 
#    z 0.000000 0.000000 1.814160 
# 
# From -- ./inp_files/13842.got.cif
#   From: 2010.05.17/outbox.cif.g08.bks.cpg/sg62_7_cif.got.tgz:13842.got - 2010.06.03 15:25:27.
