data_PCOD9464404
_publ_section_title
;
Structure prediction by ZEFSAII (Michael W. Deem and Ramdas Pophale) SiO2 
 PCOD9464404
Probable space group: P N M A
;
_chemical_formula_sum "Si O2"
_cell_formula_units_Z 48
_cell_length_a 18.354064
_cell_length_b 12.713528
_cell_length_c 11.861923
_cell_angle_alpha 90.000000
_cell_angle_beta 90.000000
_cell_angle_gamma 90.000000
_cell_volume 2767.919314
_symmetry_space_group_name_H-M "P N M A"
_symmetry_group_IT_number 62
_symmetry_cell_setting 'orthorhombic'
loop_
_space_group_symop_operation_xyz
x,y,z
1/2-x,-y,1/2+z
1/2+x,1/2-y,1/2-z
-x,1/2+y,-z
-x,-y,-z
1/2+x,y,1/2-z
1/2-x,1/2+y,1/2+z
x,1/2-y,z
loop_
_atom_site_type_symbol
_atom_site_label
_atom_site_fract_x
_atom_site_fract_y
_atom_site_fract_z
Si Si1 0.034615 0.125711 0.882786
Si Si2 0.922283 0.558903 0.866132
Si Si3 0.636061 0.006889 0.795835
Si Si4 0.499841 0.129445 0.142368
Si Si5 0.221381 0.122890 0.252156
Si Si6 0.141082 0.375064 0.484209
O O1 0.024923 0.250000 0.861561
O O2 0.096368 0.075794 0.800847
O O3 0.059763 0.106715 0.011769
O O4 0.960587 0.056707 0.864765
O O5 0.962433 0.621820 0.765579
O O6 0.837404 0.570825 0.833605
O O7 0.572531 0.936503 0.849364
O O8 0.700298 0.930777 0.756617
O O9 0.664652 0.077930 0.897859
O O10 0.483439 0.250000 0.116145
O O11 0.560270 0.089729 0.054498
O O12 0.222870 0.250000 0.234836
O O13 0.192234 0.101358 0.378222
O O14 0.137541 0.250000 0.494319
#
# Coordination Sequence:
#
# PCOD9464404 Si02
#       6
#     8   8   8   8   8   8
#     4  10  20  35  56  83 110 143 181 230 281 324
#     4   9  19  36  58  78 106 146 185 226 266 328
#     4  11  21  31  55  82 113 138 181 227 275 327
#     4   9  17  33  56  79 101 139 185 224 262 315
#     4  10  21  37  56  77 109 149 186 225 271 327
#     4   9  19  36  53  72 105 145 179 219 273 325
#
# _framework density 17.341546000000001
#
# number of rings (size 3 to 8) (size 9 to 14) (size 15 to 20)
#    0.000    2.333    0.000    4.000    2.333    0.000 
#    0.000    2.500    0.000    4.000    0.000    0.000 
#    0.000    0.000    0.000    0.000    0.000    0.000 
#
# Total GULP energy -267493.673272 kJ/mol
# GULP energy per Si atom -5572.784860 kJ/mol
# Density = 1.730208 g / cm^3
# Si number density = 17.341546 Si / 1000 Ang^3
#
#
#
# Elastic Constant Matrix: (Units=GPa)
#
#
# Indices 1 2 3 4 5 6 
#
# 1 89.4803 51.9214 22.2916 0.0000 0.0000 0.0000
# 2 51.9214 88.7355 33.8211 0.0000 0.0000 0.0000
# 3 22.2916 33.8211 71.1123 0.0000 0.0000 0.0000
# 4 0.0000 0.0000 0.0000 22.3618 0.0000 0.0000
# 5 0.0000 0.0000 0.0000 0.0000 12.2627 0.0000
# 6 0.0000 0.0000 0.0000 0.0000 0.0000 20.6098
#
#
#
# Elastic Compliance Matrix: (Units=1/GPa)
#
#
# Indices 1 2 3 4 5 6 
#
# 1 0.016951 -0.009641 -0.000728 0.000000 0.000000 0.000000
# 2 -0.009641 0.019248 -0.006132 0.000000 0.000000 0.000000
# 3 -0.000728 -0.006132 0.017207 0.000000 0.000000 0.000000
# 4 0.000000 0.000000 0.000000 0.044719 0.000000 0.000000
# 5 0.000000 0.000000 0.000000 0.000000 0.081548 0.000000
# 6 0.000000 0.000000 0.000000 0.000000 0.000000 0.048521
#
#
# Mechanical properties :
#
#
# Convention : Reuss Voigt Hill
#
# Bulk Modulus (GPa) = 49.01226 51.71069 50.36147
# Shear Modulus (GPa) = 18.65682 20.46646 19.56164
#
# Velocity S-wave (km/s) = 3.28357 3.43913 3.36225
# Velocity P-wave (km/s) = 6.53452 6.75676 6.64657
#
# Compressibility (1/GPa) = 0.02040306
#
# Stress axis : x y z
#
# Youngs Moduli (GPa) = 58.99228 51.95376 58.11569
#
# Poissons Ratio (x) = 0.50089 0.04234
# Poissons Ratio (y) = 0.56875 0.35637
# Poissons Ratio (z) = 0.04297 0.31859
#
# Static dielectric constant tensor:
#      x y z
#    x 1.592590 0.000000 0.000000 
#    y 0.000000 1.587740 0.000000 
#    z 0.000000 0.000000 1.581430 
# 
# From -- ./inp_files/14117.got.cif
#   From: 2010.05.17/outbox.cif.g08.bks.cpg/sg62_8_cif.got.tgz:14117.got - 2010.06.03 15:25:27.
