data_PCOD9464854
_publ_section_title
;
Structure prediction by ZEFSAII (Michael W. Deem and Ramdas Pophale) SiO2 
 PCOD9464854
Probable space group: P N M A
;
_chemical_formula_sum "Si O2"
_cell_formula_units_Z 56
_cell_length_a 8.282457
_cell_length_b 19.787062
_cell_length_c 13.382105
_cell_angle_alpha 90.000000
_cell_angle_beta 90.000000
_cell_angle_gamma 90.000000
_cell_volume 2193.132837
_symmetry_space_group_name_H-M "P N M A"
_symmetry_group_IT_number 62
_symmetry_cell_setting 'orthorhombic'
loop_
_space_group_symop_operation_xyz
x,y,z
1/2-x,-y,1/2+z
1/2+x,1/2-y,1/2-z
-x,1/2+y,-z
-x,-y,-z
1/2+x,y,1/2-z
1/2-x,1/2+y,1/2+z
x,1/2-y,z
loop_
_atom_site_type_symbol
_atom_site_label
_atom_site_fract_x
_atom_site_fract_y
_atom_site_fract_z
Si Si1 0.910527 0.063701 0.957570
Si Si2 0.277369 0.750000 0.092421
Si Si3 0.936904 0.672592 0.901229
Si Si4 0.894794 0.879173 0.534890
Si Si5 0.621767 0.891931 0.127154
Si Si6 0.919733 0.250000 0.727226
Si Si7 0.584963 0.467011 0.724641
Si Si8 0.717335 0.880664 0.732044
O O1 0.923345 0.050733 0.840128
O O2 0.731511 0.064001 0.000705
O O3 0.005913 0.127637 0.004720
O O4 0.000000 0.000000 0.000000
O O5 0.320788 0.686402 0.023171
O O6 0.395600 0.750000 0.188770
O O7 0.109673 0.750000 0.153457
O O8 0.908450 0.750000 0.929045
O O9 0.788250 0.643560 0.836797
O O10 0.088122 0.666708 0.824035
O O11 0.868339 0.878278 0.653098
O O12 0.071196 0.887238 0.488434
O O13 0.644155 0.818423 0.176195
O O14 0.463582 0.927697 0.175798
O O15 0.776538 0.933945 0.157447
O O16 0.635752 0.544853 0.736255
#
# Coordination Sequence:
#
# PCOD9464854 Si02
#       8
#     8   4   8   8   8   4   8   8
#     4  11  23  44  65  97 131 174 227 280 339 408
#     4  10  20  36  66  86 130 174 208 270 332 390
#     4  11  25  45  71  99 133 181 231 290 343 401
#     4  10  23  40  65  94 133 173 218 275 331 405
#     4  11  24  39  67  98 133 176 219 268 345 394
#     4  10  20  40  54  98 126 164 214 262 318 408
#     4  12  23  41  67  98 135 178 218 282 333 412
#     4  11  25  43  67  97 133 173 232 278 340 406
#
# _framework density 25.534248000000002
#
# number of rings (size 3 to 8) (size 9 to 14) (size 15 to 20)
#    0.000    1.143    2.857    4.714    7.000    1.714 
#    2.571    0.000    0.000    0.000    0.000    0.000 
#    0.000    0.000    0.000    0.000    0.000    0.000 
#
# Total GULP energy -313378.295974 kJ/mol
# GULP energy per Si atom -5596.041000 kJ/mol
# Density = 2.547613 g / cm^3
# Si number density = 25.534248 Si / 1000 Ang^3
#
#
#
# Elastic Constant Matrix: (Units=GPa)
#
#
# Indices 1 2 3 4 5 6 
#
# 1 63.6040 19.0925 27.8758 0.0000 0.0000 0.0000
# 2 19.0925 129.1164 27.0844 0.0000 0.0000 0.0000
# 3 27.8758 27.0844 124.1517 0.0000 0.0000 0.0000
# 4 0.0000 0.0000 0.0000 14.8452 0.0000 0.0000
# 5 0.0000 0.0000 0.0000 0.0000 58.5825 0.0000
# 6 0.0000 0.0000 0.0000 0.0000 0.0000 31.9321
#
#
#
# Elastic Compliance Matrix: (Units=1/GPa)
#
#
# Indices 1 2 3 4 5 6 
#
# 1 0.017866 -0.001887 -0.003600 0.000000 0.000000 0.000000
# 2 -0.001887 0.008316 -0.001390 0.000000 0.000000 0.000000
# 3 -0.003600 -0.001390 0.009166 0.000000 0.000000 0.000000
# 4 0.000000 0.000000 0.000000 0.067362 0.000000 0.000000
# 5 0.000000 0.000000 0.000000 0.000000 0.017070 0.000000
# 6 0.000000 0.000000 0.000000 0.000000 0.000000 0.031316
#
#
# Mechanical properties :
#
#
# Convention : Reuss Voigt Hill
#
# Bulk Modulus (GPa) = 46.30919 51.66416 48.98667
# Shear Modulus (GPa) = 29.06148 37.25991 33.16070
#
# Velocity S-wave (km/s) = 3.37729 3.82411 3.60762
# Velocity P-wave (km/s) = 5.77785 6.30679 6.04811
#
# Compressibility (1/GPa) = 0.02159399
#
# Stress axis : x y z
#
# Youngs Moduli (GPa) = 55.97097 120.25561 109.09528
#
# Poissons Ratio (x) = 0.22689 0.39274
# Poissons Ratio (y) = 0.10560 0.15169
# Poissons Ratio (z) = 0.20149 0.16721
#
# Static dielectric constant tensor:
#      x y z
#    x 2.106300 0.000000 0.000000 
#    y 0.000000 1.970640 0.000000 
#    z 0.000000 0.000000 1.588360 
# 
# From -- ./inp_files/17236.got.cif
#   From: 2010.05.17/outbox.cif.g08.bks.cpg/sg62_9_cif.got.tgz:17236.got - 2010.06.03 15:25:27.
