data_PCOD9464749
_publ_section_title
;
Structure prediction by ZEFSAII (Michael W. Deem and Ramdas Pophale) SiO2 
 PCOD9464749
Probable space group: P N M A
;
_chemical_formula_sum "Si O2"
_cell_formula_units_Z 64
_cell_length_a 12.087586
_cell_length_b 9.644193
_cell_length_c 28.332233
_cell_angle_alpha 90.000000
_cell_angle_beta 90.000000
_cell_angle_gamma 90.000000
_cell_volume 3302.830410
_symmetry_space_group_name_H-M "P N M A"
_symmetry_group_IT_number 62
_symmetry_cell_setting 'orthorhombic'
loop_
_space_group_symop_operation_xyz
x,y,z
1/2-x,-y,1/2+z
1/2+x,1/2-y,1/2-z
-x,1/2+y,-z
-x,-y,-z
1/2+x,y,1/2-z
1/2-x,1/2+y,1/2+z
x,1/2-y,z
loop_
_atom_site_type_symbol
_atom_site_label
_atom_site_fract_x
_atom_site_fract_y
_atom_site_fract_z
Si Si1 0.532313 0.034783 0.553587
Si Si2 0.270117 0.087749 0.162860
Si Si3 0.042769 0.089633 0.220891
Si Si4 0.716528 0.592200 0.428519
Si Si5 0.769209 0.404701 0.517873
Si Si6 0.137497 0.592155 0.858554
Si Si7 0.025381 0.415427 0.693581
Si Si8 0.347568 0.085550 0.884316
O O1 0.566128 0.922014 0.592971
O O2 0.500000 0.000000 0.500000
O O3 0.418041 0.098990 0.572130
O O4 0.650363 0.106568 0.544732
O O5 0.299243 0.250000 0.155971
O O6 0.155423 0.083463 0.191327
O O7 0.253689 0.006221 0.113924
O O8 0.362513 0.003035 0.191110
O O9 0.029120 0.250000 0.237504
O O10 0.942516 0.057618 0.184903
O O11 0.042361 0.980462 0.263068
O O12 0.758561 0.750000 0.424754
O O13 0.754728 0.517133 0.476859
O O14 0.795838 0.250000 0.499689
O O15 0.851951 0.447887 0.559853
O O16 0.174284 0.750000 0.853510
O O17 0.244144 0.495687 0.862291
O O18 0.042279 0.250000 0.698530
O O19 0.957208 0.442031 0.645491
O O20 0.326450 0.250000 0.881288
#
# Coordination Sequence:
#
# PCOD9464749 Si02
#       8
#     8   8   8   8   8   8   8   8
#     4   9  18  30  50  83 121 159 195 243 299 356
#     4  11  24  44  66  90 123 161 205 250 302 365
#     4  10  23  42  63  90 119 155 199 248 303 364
#     4  11  21  34  56  89 125 160 203 253 305 360
#     4   9  18  34  56  83 120 164 203 243 300 365
#     4  10  20  36  59  86 118 156 199 243 294 359
#     4  11  25  44  65  90 121 157 201 255 308 360
#     4   9  21  40  60  87 123 160 201 250 303 359
#
# _framework density 19.377320000000001
#
# number of rings (size 3 to 8) (size 9 to 14) (size 15 to 20)
#    0.000    2.000    1.250    1.500    1.750    9.500 
#    0.000    0.625    0.000    0.000    0.000    0.000 
#    0.000    0.000    0.000    0.000    0.000    0.000 
#
# Total GULP energy -356724.871190 kJ/mol
# GULP energy per Si atom -5573.826112 kJ/mol
# Density = 1.933322 g / cm^3
# Si number density = 19.377320 Si / 1000 Ang^3
#
#
#
# Elastic Constant Matrix: (Units=GPa)
#
#
# Indices 1 2 3 4 5 6 
#
# 1 26.9326 24.2175 2.2106 0.0000 0.0000 0.0000
# 2 24.2175 109.1983 44.9777 0.0000 0.0000 0.0000
# 3 2.2106 44.9777 67.8001 0.0000 0.0000 0.0000
# 4 0.0000 0.0000 0.0000 28.7137 0.0000 0.0000
# 5 0.0000 0.0000 0.0000 0.0000 20.4798 0.0000
# 6 0.0000 0.0000 0.0000 0.0000 0.0000 18.9321
#
#
#
# Elastic Compliance Matrix: (Units=1/GPa)
#
#
# Indices 1 2 3 4 5 6 
#
# 1 0.049168 -0.014096 0.007748 0.000000 0.000000 0.000000
# 2 -0.014096 0.016642 -0.010580 0.000000 0.000000 0.000000
# 3 0.007748 -0.010580 0.021515 0.000000 0.000000 0.000000
# 4 0.000000 0.000000 0.000000 0.034827 0.000000 0.000000
# 5 0.000000 0.000000 0.000000 0.000000 0.048829 0.000000
# 6 0.000000 0.000000 0.000000 0.000000 0.000000 0.052820
#
#
# Mechanical properties :
#
#
# Convention : Reuss Voigt Hill
#
# Bulk Modulus (GPa) = 18.70235 38.52695 28.61465
# Shear Modulus (GPa) = 18.15014 22.46014 20.30514
#
# Velocity S-wave (km/s) = 3.06383 3.40824 3.24061
# Velocity P-wave (km/s) = 4.71048 5.95095 5.36668
#
# Compressibility (1/GPa) = 0.05346923
#
# Stress axis : x y z
#
# Youngs Moduli (GPa) = 20.33827 60.09049 46.47833
#
# Poissons Ratio (x) = 0.84701 -0.36010
# Poissons Ratio (y) = 0.28668 0.49175
# Poissons Ratio (z) = -0.15757 0.63577
#
# Static dielectric constant tensor:
#      x y z
#    x 1.712560 0.000000 0.000000 
#    y 0.000000 1.608300 0.000000 
#    z 0.000000 0.000000 1.774630 
# 
# From -- ./inp_files/32503.got.cif
#   From: 2010.05.17/outbox.cif.g08.bks.cpg/sg62_17_cif.got.tgz:32503.got - 2010.06.03 15:25:27.
