data_PCOD9464784
_publ_section_title
;
Structure prediction by ZEFSAII (Michael W. Deem and Ramdas Pophale) SiO2 
 PCOD9464784
Probable space group: P N M A
;
_chemical_formula_sum "Si O2"
_cell_formula_units_Z 40
_cell_length_a 16.714864
_cell_length_b 9.472771
_cell_length_c 12.646280
_cell_angle_alpha 90.000000
_cell_angle_beta 90.000000
_cell_angle_gamma 90.000000
_cell_volume 2002.362389
_symmetry_space_group_name_H-M "P N M A"
_symmetry_group_IT_number 62
_symmetry_cell_setting 'orthorhombic'
loop_
_space_group_symop_operation_xyz
x,y,z
1/2-x,-y,1/2+z
1/2+x,1/2-y,1/2-z
-x,1/2+y,-z
-x,-y,-z
1/2+x,y,1/2-z
1/2-x,1/2+y,1/2+z
x,1/2-y,z
loop_
_atom_site_type_symbol
_atom_site_label
_atom_site_fract_x
_atom_site_fract_y
_atom_site_fract_z
Si Si1 0.073931 0.592180 0.619740
Si Si2 0.915364 0.919651 0.988679
Si Si3 0.349137 0.917397 0.282312
Si Si4 0.193259 0.417181 0.212352
Si Si5 0.888152 0.905746 0.561571
O O1 0.099491 0.750000 0.648743
O O2 0.077957 0.486820 0.718060
O O3 0.126069 0.525619 0.524997
O O4 0.983287 0.600556 0.579643
O O5 0.930162 0.750000 0.983521
O O6 0.862456 0.947617 0.093779
O O7 0.864345 0.959896 0.884599
O O8 0.000000 0.000000 0.000000
O O9 0.345837 0.750000 0.268549
O O10 0.272864 0.992263 0.229468
O O11 0.210892 0.250000 0.197884
O O12 0.148764 0.432307 0.324482
O O13 0.861679 0.750000 0.523459
#
# Coordination Sequence:
#
# PCOD9464784 Si02
#       5
#     8   8   8   8   8
#     4  10  20  36  60  86 117 156 195 241 299 357
#     4  10  23  43  66  92 125 163 208 257 307 370
#     4  11  24  39  58  89 125 158 202 254 301 359
#     4  10  22  40  61  87 122 160 200 249 305 363
#     4   9  19  36  59  87 117 151 196 244 293 356
#
# _framework density 19.976403999999999
#
# number of rings (size 3 to 8) (size 9 to 14) (size 15 to 20)
#    0.000    2.000    0.000    2.400    2.800    5.600 
#    0.000    0.000    0.000    0.000    0.000    0.000 
#    0.000    0.000    0.000    0.000    0.000    0.000 
#
# Total GULP energy -223220.614642 kJ/mol
# GULP energy per Si atom -5580.515366 kJ/mol
# Density = 1.993094 g / cm^3
# Si number density = 19.976404 Si / 1000 Ang^3
#
#
#
# Elastic Constant Matrix: (Units=GPa)
#
#
# Indices 1 2 3 4 5 6 
#
# 1 63.1244 33.3192 24.3221 0.0000 0.0000 0.0000
# 2 33.3192 82.4556 42.3321 0.0000 0.0000 0.0000
# 3 24.3221 42.3321 77.4977 0.0000 0.0000 0.0000
# 4 0.0000 0.0000 0.0000 -10.5184 0.0000 0.0000
# 5 0.0000 0.0000 0.0000 0.0000 33.0643 0.0000
# 6 0.0000 0.0000 0.0000 0.0000 0.0000 25.0138
#
#
#
# Elastic Compliance Matrix: (Units=1/GPa)
#
#
# Indices 1 2 3 4 5 6 
#
# 1 0.020523 -0.006929 -0.002656 0.000000 0.000000 0.000000
# 2 -0.006929 0.019194 -0.008310 0.000000 0.000000 0.000000
# 3 -0.002656 -0.008310 0.018276 0.000000 0.000000 0.000000
# 4 0.000000 0.000000 0.000000 -0.095071 0.000000 0.000000
# 5 0.000000 0.000000 0.000000 0.000000 0.030244 0.000000
# 6 0.000000 0.000000 0.000000 0.000000 0.000000 0.039978
#
#
# Mechanical properties :
#
#
# Convention : Reuss Voigt Hill
#
# Bulk Modulus (GPa) = 45.03911 47.00273 46.02092
# Shear Modulus (GPa) = 65.50133 17.71890 41.61012
#
# Velocity S-wave (km/s) = 5.73241 2.98147 4.56890
# Velocity P-wave (km/s) = 8.14918 5.95251 7.13588
#
# Compressibility (1/GPa) = 0.02220293
#
# Stress axis : x y z
#
# Youngs Moduli (GPa) = 48.72670 52.09972 54.71619
#
# Poissons Ratio (x) = 0.36102 0.14531
# Poissons Ratio (y) = 0.33765 0.45467
# Poissons Ratio (z) = 0.12941 0.43293
#
# Static dielectric constant tensor:
#      x y z
#    x 1.739440 0.000000 0.000000 
#    y 0.000000 1.704820 0.000000 
#    z 0.000000 0.000000 1.720100 
# 
# From -- ./inp_files/13841.got.cif
#   From: 2010.05.17/outbox.cif.g08.bks.cpg/sg62_7_cif.got.tgz:13841.got - 2010.06.03 15:25:27.
