data_PCOD9464144
_publ_section_title
;
Structure prediction by ZEFSAII (Michael W. Deem and Ramdas Pophale) SiO2 
 PCOD9464144
Probable space group: P N M A
;
_chemical_formula_sum "Si O2"
_cell_formula_units_Z 40
_cell_length_a 10.552299
_cell_length_b 7.656035
_cell_length_c 22.125158
_cell_angle_alpha 90.000000
_cell_angle_beta 90.000000
_cell_angle_gamma 90.000000
_cell_volume 1787.464311
_symmetry_space_group_name_H-M "P N M A"
_symmetry_group_IT_number 62
_symmetry_cell_setting 'orthorhombic'
loop_
_space_group_symop_operation_xyz
x,y,z
1/2-x,-y,1/2+z
1/2+x,1/2-y,1/2-z
-x,1/2+y,-z
-x,-y,-z
1/2+x,y,1/2-z
1/2-x,1/2+y,1/2+z
x,1/2-y,z
loop_
_atom_site_type_symbol
_atom_site_label
_atom_site_fract_x
_atom_site_fract_y
_atom_site_fract_z
Si Si1 0.973541 0.035049 0.303308
Si Si2 0.536232 0.054722 0.067244
Si Si3 0.305603 0.963190 0.714878
Si Si4 0.188954 0.456006 0.956763
Si Si5 0.087503 0.460987 0.085782
O O1 0.977442 0.250000 0.303758
O O2 0.982326 0.968404 0.372268
O O3 0.093629 0.977212 0.264381
O O4 0.839214 0.983720 0.275013
O O5 0.486504 0.250000 0.070880
O O6 0.688433 0.046470 0.070767
O O7 0.500000 0.000000 0.000000
O O8 0.307609 0.750000 0.714948
O O9 0.350419 0.019044 0.648106
O O10 0.217222 0.250000 0.959307
O O11 0.058690 0.484084 0.920824
O O12 0.160355 0.520362 0.025170
O O13 0.089836 0.250000 0.084434
#
# Coordination Sequence:
#
# PCOD9464144 Si02
#       5
#     8   8   8   8   8
#     4   9  19  32  52  83 114 143 182 233 285 334
#     4  11  22  36  56  82 112 148 192 237 288 341
#     4   9  17  31  52  80 112 141 179 235 285 325
#     4  10  20  34  54  83 115 146 185 231 282 338
#     4   9  18  33  55  81 111 145 184 228 280 336
#
# _framework density 22.378069
#
# number of rings (size 3 to 8) (size 9 to 14) (size 15 to 20)
#    0.000    2.400    0.000    2.400    2.800    4.000 
#    0.000    0.000    0.000    2.400    0.000    0.000 
#    0.000    0.000    0.000    0.000    0.000    0.000 
#
# Total GULP energy -223438.025003 kJ/mol
# GULP energy per Si atom -5585.950625 kJ/mol
# Density = 2.232714 g / cm^3
# Si number density = 22.378069 Si / 1000 Ang^3
#
#
#
# Elastic Constant Matrix: (Units=GPa)
#
#
# Indices 1 2 3 4 5 6 
#
# 1 136.8202 -6.8349 78.5056 0.0000 0.0000 0.0000
# 2 -6.8349 38.0832 5.8676 0.0000 0.0000 0.0000
# 3 78.5056 5.8676 106.3528 0.0000 0.0000 0.0000
# 4 0.0000 0.0000 0.0000 11.2956 0.0000 0.0000
# 5 0.0000 0.0000 0.0000 0.0000 31.3779 0.0000
# 6 0.0000 0.0000 0.0000 0.0000 0.0000 13.4307
#
#
#
# Elastic Compliance Matrix: (Units=1/GPa)
#
#
# Indices 1 2 3 4 5 6 
#
# 1 0.013233 0.003913 -0.009984 0.000000 0.000000 0.000000
# 2 0.003913 0.027641 -0.004414 0.000000 0.000000 0.000000
# 3 -0.009984 -0.004414 0.017016 0.000000 0.000000 0.000000
# 4 0.000000 0.000000 0.000000 0.088530 0.000000 0.000000
# 5 0.000000 0.000000 0.000000 0.000000 0.031870 0.000000
# 6 0.000000 0.000000 0.000000 0.000000 0.000000 0.074456
#
#
# Mechanical properties :
#
#
# Convention : Reuss Voigt Hill
#
# Bulk Modulus (GPa) = 27.08487 48.48141 37.78314
# Shear Modulus (GPa) = 17.48123 24.80204 21.14163
#
# Velocity S-wave (km/s) = 2.79799 3.33275 3.07701
# Velocity P-wave (km/s) = 4.75057 6.04329 5.43550
#
# Compressibility (1/GPa) = 0.03692098
#
# Stress axis : x y z
#
# Youngs Moduli (GPa) = 75.56837 36.17862 58.76823
#
# Poissons Ratio (x) = -0.14158 0.58674
# Poissons Ratio (y) = -0.29572 0.25938
# Poissons Ratio (z) = 0.75448 0.15968
#
# Static dielectric constant tensor:
#      x y z
#    x 1.793650 0.000000 0.000000 
#    y 0.000000 2.156330 0.000000 
#    z 0.000000 0.000000 1.831400 
# 
# From -- ./inp_files/28596.got.cif
#   From: 2010.05.17/outbox.cif.g08.bks.cpg/sg62_15_cif.got.tgz:28596.got - 2010.06.03 15:25:27.
