data_PCOD9464864
_publ_section_title
;
Structure prediction by ZEFSAII (Michael W. Deem and Ramdas Pophale) SiO2 
 PCOD9464864
Probable space group: P N M A
;
_chemical_formula_sum "Si O2"
_cell_formula_units_Z 56
_cell_length_a 14.459650
_cell_length_b 13.510391
_cell_length_c 14.720498
_cell_angle_alpha 90.000000
_cell_angle_beta 90.000000
_cell_angle_gamma 90.000000
_cell_volume 2875.730618
_symmetry_space_group_name_H-M "P N M A"
_symmetry_group_IT_number 62
_symmetry_cell_setting 'orthorhombic'
loop_
_space_group_symop_operation_xyz
x,y,z
1/2-x,-y,1/2+z
1/2+x,1/2-y,1/2-z
-x,1/2+y,-z
-x,-y,-z
1/2+x,y,1/2-z
1/2-x,1/2+y,1/2+z
x,1/2-y,z
loop_
_atom_site_type_symbol
_atom_site_label
_atom_site_fract_x
_atom_site_fract_y
_atom_site_fract_z
Si Si1 0.866289 0.058043 0.942035
Si Si2 0.243902 0.865199 0.894491
Si Si3 0.326821 0.943315 0.301908
Si Si4 0.068794 0.364919 0.974348
Si Si5 0.453307 0.942828 0.132234
Si Si6 0.132406 0.633657 0.260689
Si Si7 0.544759 0.362836 0.068761
O O1 0.860371 0.080687 0.836504
O O2 0.960359 0.109224 0.979088
O O3 0.784993 0.102626 0.003411
O O4 0.877505 0.941316 0.960846
O O5 0.220731 0.750000 0.879922
O O6 0.354385 0.877007 0.885840
O O7 0.190654 0.942691 0.830324
O O8 0.397135 0.894246 0.373409
O O9 0.368973 0.933458 0.201901
O O10 0.228481 0.889456 0.310777
O O11 0.084833 0.250000 0.992512
O O12 0.544962 0.904105 0.183105
O O13 0.473462 0.056707 0.106249
O O14 0.442282 0.883962 0.038476
O O15 0.122349 0.750000 0.244638
O O16 0.515206 0.250000 0.082654
#
# Coordination Sequence:
#
# PCOD9464864 Si02
#       7
#     8   8   8   8   8   8   8
#     4  10  21  35  57  87 117 152 200 241 291 364
#     4  10  20  38  62  88 122 163 202 244 300 364
#     4  11  23  38  61  92 123 155 203 252 301 359
#     4  10  20  37  57  83 120 157 191 243 302 353
#     4  11  23  40  63  93 122 156 208 258 297 364
#     4  12  23  38  61  90 121 155 200 255 307 354
#     4  10  22  42  65  86 120 166 204 248 307 364
#
# _framework density 19.473312
#
# number of rings (size 3 to 8) (size 9 to 14) (size 15 to 20)
#    0.000    1.429    2.857    3.000    0.000    3.429 
#    0.000    1.429    0.000    0.000    0.000    0.000 
#    0.000    0.000    0.000    0.000    0.000    0.000 
#
# Total GULP energy -312941.672952 kJ/mol
# GULP energy per Si atom -5588.244160 kJ/mol
# Density = 1.942899 g / cm^3
# Si number density = 19.473312 Si / 1000 Ang^3
#
#
#
# Elastic Constant Matrix: (Units=GPa)
#
#
# Indices 1 2 3 4 5 6 
#
# 1 45.8935 0.3802 -5.8562 0.0000 0.0000 0.0000
# 2 0.3802 132.4477 9.6702 0.0000 0.0000 0.0000
# 3 -5.8562 9.6702 44.5575 0.0000 0.0000 0.0000
# 4 0.0000 0.0000 0.0000 8.4617 0.0000 0.0000
# 5 0.0000 0.0000 0.0000 0.0000 11.4719 0.0000
# 6 0.0000 0.0000 0.0000 0.0000 0.0000 18.0942
#
#
#
# Elastic Compliance Matrix: (Units=1/GPa)
#
#
# Indices 1 2 3 4 5 6 
#
# 1 0.022172 -0.000281 0.002975 0.000000 0.000000 0.000000
# 2 -0.000281 0.007675 -0.001703 0.000000 0.000000 0.000000
# 3 0.002975 -0.001703 0.023203 0.000000 0.000000 0.000000
# 4 0.000000 0.000000 0.000000 0.118179 0.000000 0.000000
# 5 0.000000 0.000000 0.000000 0.000000 0.087169 0.000000
# 6 0.000000 0.000000 0.000000 0.000000 0.000000 0.055266
#
#
# Mechanical properties :
#
#
# Convention : Reuss Voigt Hill
#
# Bulk Modulus (GPa) = 18.17088 25.69858 21.93473
# Shear Modulus (GPa) = 15.15028 22.18586 18.66807
#
# Velocity S-wave (km/s) = 2.79230 3.37901 3.09956
# Velocity P-wave (km/s) = 4.44380 5.33377 4.90899
#
# Compressibility (1/GPa) = 0.05503310
#
# Stress axis : x y z
#
# Youngs Moduli (GPa) = 45.10294 130.28854 43.09706
#
# Poissons Ratio (x) = 0.03659 -0.12821
# Poissons Ratio (y) = 0.01267 0.07338
# Poissons Ratio (z) = -0.13418 0.22184
#
# Static dielectric constant tensor:
#      x y z
#    x 1.680640 0.000000 0.000000 
#    y 0.000000 1.665210 0.000000 
#    z 0.000000 0.000000 1.663340 
# 
# From -- ./inp_files/19023.got.cif
#   From: 2010.05.17/outbox.cif.g08.bks.cpg/sg62_10_cif.got.tgz:19023.got - 2010.06.03 15:25:27.
