data_PCOD9464158
_publ_section_title
;
Structure prediction by ZEFSAII (Michael W. Deem and Ramdas Pophale) SiO2 
 PCOD9464158
Probable space group: P N M A
;
_chemical_formula_sum "Si O2"
_cell_formula_units_Z 64
_cell_length_a 9.982218
_cell_length_b 14.247661
_cell_length_c 26.401145
_cell_angle_alpha 90.000000
_cell_angle_beta 90.000000
_cell_angle_gamma 90.000000
_cell_volume 3754.856859
_symmetry_space_group_name_H-M "P N M A"
_symmetry_group_IT_number 62
_symmetry_cell_setting 'orthorhombic'
loop_
_space_group_symop_operation_xyz
x,y,z
1/2-x,-y,1/2+z
1/2+x,1/2-y,1/2-z
-x,1/2+y,-z
-x,-y,-z
1/2+x,y,1/2-z
1/2-x,1/2+y,1/2+z
x,1/2-y,z
loop_
_atom_site_type_symbol
_atom_site_label
_atom_site_fract_x
_atom_site_fract_y
_atom_site_fract_z
Si Si1 0.110459 0.952410 0.916598
Si Si2 0.530623 0.142567 0.924063
Si Si3 0.280697 0.643981 0.449003
Si Si4 0.868396 0.861371 0.538353
Si Si5 0.174892 0.139924 0.067436
Si Si6 0.074897 0.949792 0.618962
Si Si7 0.651633 0.861108 0.691229
Si Si8 0.953883 0.638866 0.718749
O O1 0.221165 0.901740 0.951758
O O2 0.144425 0.921588 0.859477
O O3 0.963593 0.915317 0.928961
O O4 0.128439 0.062707 0.925989
O O5 0.564890 0.250000 0.910476
O O6 0.369496 0.135347 0.927567
O O7 0.583371 0.061512 0.887708
O O8 0.586346 0.124123 0.980642
O O9 0.329532 0.750000 0.439490
O O10 0.272453 0.632122 0.509773
O O11 0.872516 0.750000 0.548986
O O12 0.969087 0.912738 0.576773
O O13 0.153003 0.250000 0.078314
O O14 0.284879 0.098326 0.105153
O O15 0.019882 0.918275 0.673032
O O16 0.645705 0.750000 0.677588
O O17 0.529618 0.881968 0.729016
O O18 0.794396 0.876930 0.718559
O O19 0.974931 0.750000 0.708441
#
# Coordination Sequence:
#
# PCOD9464158 Si02
#       8
#     8   8   8   8   8   8   8   8
#     4  12  22  36  54  79 110 149 182 219 269 321
#     4  10  20  34  55  82 109 140 185 230 261 306
#     4  10  20  36  54  79 111 145 185 225 262 311
#     4  11  19  31  54  80 108 140 178 217 260 321
#     4  11  23  34  51  82 117 146 177 219 267 322
#     4  12  20  35  56  78 106 146 182 216 269 321
#     4  10  21  36  54  78 107 136 175 223 273 328
#     4  10  21  35  54  79 105 136 174 221 275 329
#
# _framework density 17.044591
#
# number of rings (size 3 to 8) (size 9 to 14) (size 15 to 20)
#    0.000    1.250    3.750    3.750    1.750    0.000 
#    0.000    1.875    0.000    0.750    0.000    0.000 
#    0.000    0.000    0.000    0.000    0.000    0.000 
#
# Total GULP energy -357619.831347 kJ/mol
# GULP energy per Si atom -5587.809865 kJ/mol
# Density = 1.700580 g / cm^3
# Si number density = 17.044591 Si / 1000 Ang^3
#
#
#
# Elastic Constant Matrix: (Units=GPa)
#
#
# Indices 1 2 3 4 5 6 
#
# 1 42.4048 5.9329 -7.5421 0.0000 0.0000 0.0000
# 2 5.9329 83.5607 23.3288 0.0000 0.0000 0.0000
# 3 -7.5421 23.3288 25.1146 0.0000 0.0000 0.0000
# 4 0.0000 0.0000 0.0000 19.0802 0.0000 0.0000
# 5 0.0000 0.0000 0.0000 0.0000 13.6481 0.0000
# 6 0.0000 0.0000 0.0000 0.0000 0.0000 24.7904
#
#
#
# Elastic Compliance Matrix: (Units=1/GPa)
#
#
# Indices 1 2 3 4 5 6 
#
# 1 0.026713 -0.005585 0.013210 0.000000 0.000000 0.000000
# 2 -0.005585 0.017325 -0.017770 0.000000 0.000000 0.000000
# 3 0.013210 -0.017770 0.060291 0.000000 0.000000 0.000000
# 4 0.000000 0.000000 0.000000 0.052410 0.000000 0.000000
# 5 0.000000 0.000000 0.000000 0.000000 0.073270 0.000000
# 6 0.000000 0.000000 0.000000 0.000000 0.000000 0.040338
#
#
# Mechanical properties :
#
#
# Convention : Reuss Voigt Hill
#
# Bulk Modulus (GPa) = 11.89929 21.61327 16.75628
# Shear Modulus (GPa) = 15.69114 20.12778 17.90946
#
# Velocity S-wave (km/s) = 3.03742 3.44014 3.24503
# Velocity P-wave (km/s) = 4.39291 5.33735 4.88799
#
# Compressibility (1/GPa) = 0.08403866
#
# Stress axis : x y z
#
# Youngs Moduli (GPa) = 37.43499 57.72004 16.58620
#
# Poissons Ratio (x) = 0.32234 -0.21910
# Poissons Ratio (y) = 0.20906 0.29474
# Poissons Ratio (z) = -0.49450 1.02570
#
# Static dielectric constant tensor:
#      x y z
#    x 1.576820 0.000000 0.000000 
#    y 0.000000 1.586580 0.000000 
#    z 0.000000 0.000000 1.550310 
# 
# From -- ./inp_files/28974.got.cif
#   From: 2010.05.17/outbox.cif.g08.bks.cpg/sg62_15_cif.got.tgz:28974.got - 2010.06.03 15:25:27.
