data_PCOD9464976
_publ_section_title
;
Structure prediction by ZEFSAII (Michael W. Deem and Ramdas Pophale) SiO2 
 PCOD9464976
Probable space group: P N M A
;
_chemical_formula_sum "Si O2"
_cell_formula_units_Z 56
_cell_length_a 14.259732
_cell_length_b 13.319166
_cell_length_c 11.706229
_cell_angle_alpha 90.000000
_cell_angle_beta 90.000000
_cell_angle_gamma 90.000000
_cell_volume 2223.337590
_symmetry_space_group_name_H-M "P N M A"
_symmetry_group_IT_number 62
_symmetry_cell_setting 'orthorhombic'
loop_
_space_group_symop_operation_xyz
x,y,z
1/2-x,-y,1/2+z
1/2+x,1/2-y,1/2-z
-x,1/2+y,-z
-x,-y,-z
1/2+x,y,1/2-z
1/2-x,1/2+y,1/2+z
x,1/2-y,z
loop_
_atom_site_type_symbol
_atom_site_label
_atom_site_fract_x
_atom_site_fract_y
_atom_site_fract_z
Si Si1 0.573271 0.864577 0.820758
Si Si2 0.472869 0.632548 0.049768
Si Si3 0.636800 0.924101 0.413403
Si Si4 0.767912 0.860917 0.936694
Si Si5 0.044657 0.444832 0.798161
Si Si6 0.715231 0.362121 0.082182
Si Si7 0.735173 0.576628 0.180566
O O1 0.544403 0.750000 0.803984
O O2 0.684141 0.868469 0.844701
O O3 0.544877 0.935380 0.717773
O O4 0.527163 0.905909 0.937954
O O5 0.495099 0.750000 0.052541
O O6 0.491725 0.593785 0.175733
O O7 0.363289 0.622647 0.016223
O O8 0.666307 0.041750 0.427454
O O9 0.526446 0.912501 0.395790
O O10 0.685665 0.888102 0.295498
O O11 0.685128 0.869577 0.519160
O O12 0.811340 0.750000 0.928176
O O13 0.716238 0.869355 0.060400
O O14 0.152284 0.413197 0.808463
O O15 0.700971 0.250000 0.130869
O O16 0.706843 0.459705 0.161213
#
# Coordination Sequence:
#
# PCOD9464976 Si02
#       7
#     8   8   8   8   8   8   8
#     4  10  20  37  61  89 115 149 201 255 302 342
#     4  10  20  37  61  89 115 149 201 255 302 342
#     4  11  23  40  60  88 122 158 199 243 301 355
#     4  10  22  40  60  85 123 159 195 248 299 351
#     4  12  22  36  62  87 119 158 198 243 291 358
#     4  10  22  40  60  85 123 159 195 248 299 351
#     4  11  22  39  60  89 116 157 205 242 298 353
#
# _framework density 25.187358
#
# number of rings (size 3 to 8) (size 9 to 14) (size 15 to 20)
#    0.000    1.429    2.857    3.000    0.000    5.714 
#    0.000    1.429    0.000    0.000    0.000    0.000 
#    0.000    0.000    0.000    0.000    0.000    0.000 
#
# Total GULP energy -313560.486938 kJ/mol
# GULP energy per Si atom -5599.294410 kJ/mol
# Density = 2.513003 g / cm^3
# Si number density = 25.187358 Si / 1000 Ang^3
#
#
#
# Elastic Constant Matrix: (Units=GPa)
#
#
# Indices 1 2 3 4 5 6 
#
# 1 78.0706 -2.2140 -6.3464 0.0000 0.0000 0.0000
# 2 -2.2140 56.1612 -14.1157 0.0000 0.0000 0.0000
# 3 -6.3464 -14.1157 54.7201 0.0000 0.0000 0.0000
# 4 0.0000 0.0000 0.0000 13.8448 0.0000 0.0000
# 5 0.0000 0.0000 0.0000 0.0000 40.6506 0.0000
# 6 0.0000 0.0000 0.0000 0.0000 0.0000 19.9118
#
#
#
# Elastic Compliance Matrix: (Units=1/GPa)
#
#
# Indices 1 2 3 4 5 6 
#
# 1 0.012978 0.000952 0.001751 0.000000 0.000000 0.000000
# 2 0.000952 0.019110 0.005040 0.000000 0.000000 0.000000
# 3 0.001751 0.005040 0.019778 0.000000 0.000000 0.000000
# 4 0.000000 0.000000 0.000000 0.072229 0.000000 0.000000
# 5 0.000000 0.000000 0.000000 0.000000 0.024600 0.000000
# 6 0.000000 0.000000 0.000000 0.000000 0.000000 0.050222
#
#
# Mechanical properties :
#
#
# Convention : Reuss Voigt Hill
#
# Bulk Modulus (GPa) = 14.84752 15.95552 15.40152
# Shear Modulus (GPa) = 24.28567 28.98996 26.63782
#
# Velocity S-wave (km/s) = 3.10853 3.39628 3.25558
# Velocity P-wave (km/s) = 4.33492 4.66134 4.50109
#
# Compressibility (1/GPa) = 0.06735129
#
# Stress axis : x y z
#
# Youngs Moduli (GPa) = 77.05216 52.32810 50.56115
#
# Poissons Ratio (x) = -0.04980 -0.08852
# Poissons Ratio (y) = -0.07333 -0.25483
# Poissons Ratio (z) = -0.13489 -0.26374
#
# Static dielectric constant tensor:
#      x y z
#    x 2.000710 0.000000 0.000000 
#    y 0.000000 1.993000 0.000000 
#    z 0.000000 0.000000 1.982400 
# 
# From -- ./inp_files/13360.got.cif
#   From: 2010.05.17/outbox.cif.g08.bks.cpg/sg62_7_cif.got.tgz:13360.got - 2010.06.03 15:25:27.
