data_PCOD9464801
_publ_section_title
;
Structure prediction by ZEFSAII (Michael W. Deem and Ramdas Pophale) SiO2 
 PCOD9464801
Probable space group: P N M A
;
_chemical_formula_sum "Si O2"
_cell_formula_units_Z 40
_cell_length_a 5.307097
_cell_length_b 12.897934
_cell_length_c 24.521292
_cell_angle_alpha 90.000000
_cell_angle_beta 90.000000
_cell_angle_gamma 90.000000
_cell_volume 1678.496827
_symmetry_space_group_name_H-M "P N M A"
_symmetry_group_IT_number 62
_symmetry_cell_setting 'orthorhombic'
loop_
_space_group_symop_operation_xyz
x,y,z
1/2-x,-y,1/2+z
1/2+x,1/2-y,1/2-z
-x,1/2+y,-z
-x,-y,-z
1/2+x,y,1/2-z
1/2-x,1/2+y,1/2+z
x,1/2-y,z
loop_
_atom_site_type_symbol
_atom_site_label
_atom_site_fract_x
_atom_site_fract_y
_atom_site_fract_z
Si Si1 0.707160 0.953809 0.279963
Si Si2 0.971213 0.368495 0.329342
Si Si3 0.026520 0.638154 0.449484
Si Si4 0.774431 0.927659 0.943855
Si Si5 0.862263 0.524001 0.127284
O O1 0.474956 0.916220 0.242598
O O2 0.603111 0.931285 0.340748
O O3 0.770684 0.077273 0.288740
O O4 0.028234 0.250000 0.316498
O O5 0.208637 0.446813 0.333132
O O6 0.856064 0.376388 0.390784
O O7 0.902490 0.750000 0.447762
O O8 0.212786 0.633012 0.501640
O O9 0.189274 0.613661 0.395908
O O10 0.838081 0.542282 0.453568
O O11 0.055802 0.951404 0.923588
#
# Coordination Sequence:
#
# PCOD9464801 Si02
#       5
#     8   8   8   8   8
#     4  11  22  41  61  88 122 166 205 262 325 382
#     4  10  21  36  57  89 127 168 214 261 313 388
#     4  10  20  36  60  91 127 171 224 271 319 391
#     4   9  20  37  56  88 132 174 210 262 334 383
#     4  10  21  38  61  89 126 170 217 265 327 385
#
# _framework density 23.830843999999999
#
# number of rings (size 3 to 8) (size 9 to 14) (size 15 to 20)
#    0.000    2.000    2.000    1.200    0.000    5.600 
#    0.000    0.000    0.000    1.200    0.000    0.000 
#    0.000    0.000    0.000    0.000    0.000    0.000 
#
# Total GULP energy -223143.491620 kJ/mol
# GULP energy per Si atom -5578.587290 kJ/mol
# Density = 2.377660 g / cm^3
# Si number density = 23.830844 Si / 1000 Ang^3
#
#
#
# Elastic Constant Matrix: (Units=GPa)
#
#
# Indices 1 2 3 4 5 6 
#
# 1 100.3898 6.4040 26.1971 0.0000 0.0000 0.0000
# 2 6.4040 87.2807 4.8647 0.0000 0.0000 0.0000
# 3 26.1971 4.8647 91.6433 0.0000 0.0000 0.0000
# 4 0.0000 0.0000 0.0000 9.6316 0.0000 0.0000
# 5 0.0000 0.0000 0.0000 0.0000 53.2426 0.0000
# 6 0.0000 0.0000 0.0000 0.0000 0.0000 3.7390
#
#
#
# Elastic Compliance Matrix: (Units=1/GPa)
#
#
# Indices 1 2 3 4 5 6 
#
# 1 0.010798 -0.000622 -0.003054 0.000000 0.000000 0.000000
# 2 -0.000622 0.011527 -0.000434 0.000000 0.000000 0.000000
# 3 -0.003054 -0.000434 0.011808 0.000000 0.000000 0.000000
# 4 0.000000 0.000000 0.000000 0.103825 0.000000 0.000000
# 5 0.000000 0.000000 0.000000 0.000000 0.018782 0.000000
# 6 0.000000 0.000000 0.000000 0.000000 0.000000 0.267452
#
#
# Mechanical properties :
#
#
# Convention : Reuss Voigt Hill
#
# Bulk Modulus (GPa) = 38.59040 39.36059 38.97550
# Shear Modulus (GPa) = 11.33660 29.44583 20.39121
#
# Velocity S-wave (km/s) = 2.18345 3.51895 2.92835
# Velocity P-wave (km/s) = 4.75239 5.75006 5.27486
#
# Compressibility (1/GPa) = 0.02591318
#
# Stress axis : x y z
#
# Youngs Moduli (GPa) = 92.61235 86.75193 84.68969
#
# Poissons Ratio (x) = 0.05396 0.25861
# Poissons Ratio (y) = 0.05761 0.03676
# Poissons Ratio (z) = 0.28280 0.03766
#
# Static dielectric constant tensor:
#      x y z
#    x 1.993540 0.000000 0.000000 
#    y 0.000000 1.866080 0.000000 
#    z 0.000000 0.000000 1.999870 
# 
# From -- ./inp_files/30247.got.cif
#   From: 2010.05.17/outbox.cif.g08.bks.cpg/sg62_16_cif.got.tgz:30247.got - 2010.06.03 15:25:27.
