data_PCOD9464608
_publ_section_title
;
Structure prediction by ZEFSAII (Michael W. Deem and Ramdas Pophale) SiO2 
 PCOD9464608
Probable space group: P N M A
;
_chemical_formula_sum "Si O2"
_cell_formula_units_Z 64
_cell_length_a 10.165650
_cell_length_b 19.137415
_cell_length_c 14.941108
_cell_angle_alpha 90.000000
_cell_angle_beta 90.000000
_cell_angle_gamma 90.000000
_cell_volume 2906.706841
_symmetry_space_group_name_H-M "P N M A"
_symmetry_group_IT_number 62
_symmetry_cell_setting 'orthorhombic'
loop_
_space_group_symop_operation_xyz
x,y,z
1/2-x,-y,1/2+z
1/2+x,1/2-y,1/2-z
-x,1/2+y,-z
-x,-y,-z
1/2+x,y,1/2-z
1/2-x,1/2+y,1/2+z
x,1/2-y,z
loop_
_atom_site_type_symbol
_atom_site_label
_atom_site_fract_x
_atom_site_fract_y
_atom_site_fract_z
Si Si1 0.803690 0.042838 0.688209
Si Si2 0.795962 0.672682 0.819833
Si Si3 0.601057 0.976525 0.575740
Si Si4 0.389782 0.581643 0.153431
Si Si5 0.142918 0.565040 0.580122
Si Si6 0.208194 0.826916 0.884187
Si Si7 0.459285 0.672240 0.006027
Si Si8 0.535123 0.072828 0.254493
O O1 0.709005 0.079106 0.761585
O O2 0.953970 0.071210 0.679156
O O3 0.724992 0.028502 0.594979
O O4 0.829312 0.964367 0.725512
O O5 0.780957 0.750000 0.856025
O O6 0.764470 0.613453 0.892880
O O7 0.721391 0.670094 0.723896
O O8 0.941321 0.650151 0.790635
O O9 0.644907 0.895541 0.571012
O O10 0.524133 0.975992 0.669655
O O11 0.500000 0.000000 0.500000
O O12 0.344002 0.518752 0.084436
O O13 0.383638 0.652551 0.096938
O O14 0.061106 0.608592 0.507746
O O15 0.053373 0.573439 0.668673
O O16 0.153274 0.750000 0.908530
O O17 0.356664 0.827978 0.924388
O O18 0.518448 0.750000 0.010287
#
# Coordination Sequence:
#
# PCOD9464608 Si02
#       8
#     8   8   8   8   8   8   8   8
#     4  11  21  43  62 100 120 166 215 266 318 385
#     4  11  20  31  55  86 126 173 204 246 311 386
#     4  12  24  38  64  95 131 168 213 273 322 378
#     4  11  23  40  71  90 132 163 220 269 327 381
#     4  11  19  36  58  86 123 164 205 257 310 380
#     4  10  20  36  55  85 127 167 214 256 317 392
#     4  11  24  39  59  93 127 166 214 270 321 381
#     4  11  19  37  55  86 131 162 210 253 309 391
#
# _framework density 22.018042999999999
#
# number of rings (size 3 to 8) (size 9 to 14) (size 15 to 20)
#    0.000    1.000    7.500    1.500    1.750    2.000 
#    0.000    0.625    0.000    1.500    0.000    0.000 
#    0.000    0.000    0.000    0.000    0.000    0.000 
#
# Total GULP energy -356749.065793 kJ/mol
# GULP energy per Si atom -5574.204153 kJ/mol
# Density = 2.196793 g / cm^3
# Si number density = 22.018043 Si / 1000 Ang^3
#
#
#
# Elastic Constant Matrix: (Units=GPa)
#
#
# Indices 1 2 3 4 5 6 
#
# 1 63.1839 2.9669 9.9323 0.0000 0.0000 0.0000
# 2 2.9669 66.2452 10.4463 0.0000 0.0000 0.0000
# 3 9.9323 10.4463 51.5675 0.0000 0.0000 0.0000
# 4 0.0000 0.0000 0.0000 22.0133 0.0000 0.0000
# 5 0.0000 0.0000 0.0000 0.0000 33.1288 0.0000
# 6 0.0000 0.0000 0.0000 0.0000 0.0000 19.6001
#
#
#
# Elastic Compliance Matrix: (Units=1/GPa)
#
#
# Indices 1 2 3 4 5 6 
#
# 1 0.016325 -0.000243 -0.003095 0.000000 0.000000 0.000000
# 2 -0.000243 0.015597 -0.003113 0.000000 0.000000 0.000000
# 3 -0.003095 -0.003113 0.020619 0.000000 0.000000 0.000000
# 4 0.000000 0.000000 0.000000 0.045427 0.000000 0.000000
# 5 0.000000 0.000000 0.000000 0.000000 0.030185 0.000000
# 6 0.000000 0.000000 0.000000 0.000000 0.000000 0.051020
#
#
# Mechanical properties :
#
#
# Convention : Reuss Voigt Hill
#
# Bulk Modulus (GPa) = 25.22774 25.29863 25.26319
# Shear Modulus (GPa) = 24.35603 25.45850 24.90726
#
# Velocity S-wave (km/s) = 3.32954 3.40407 3.36701
# Velocity P-wave (km/s) = 5.12482 5.19279 5.15892
#
# Compressibility (1/GPa) = 0.03963890
#
# Stress axis : x y z
#
# Youngs Moduli (GPa) = 61.25664 64.11417 48.49955
#
# Poissons Ratio (x) = 0.01558 0.15011
# Poissons Ratio (y) = 0.01489 0.15097
# Poissons Ratio (z) = 0.18959 0.19957
#
# Static dielectric constant tensor:
#      x y z
#    x 1.952260 0.000000 0.000000 
#    y 0.000000 1.856930 0.000000 
#    z 0.000000 0.000000 1.866990 
# 
# From -- ./inp_files/23310.got.cif
#   From: 2010.05.17/outbox.cif.g08.bks.cpg/sg62_12_cif.got.tgz:23310.got - 2010.06.03 15:25:27.
