data_PCOD9464386
_publ_section_title
;
Structure prediction by ZEFSAII (Michael W. Deem and Ramdas Pophale) SiO2 
 PCOD9464386
Probable space group: P N M A
;
_chemical_formula_sum "Si O2"
_cell_formula_units_Z 64
_cell_length_a 11.896117
_cell_length_b 9.184196
_cell_length_c 33.084053
_cell_angle_alpha 90.000000
_cell_angle_beta 90.000000
_cell_angle_gamma 90.000000
_cell_volume 3614.640233
_symmetry_space_group_name_H-M "P N M A"
_symmetry_group_IT_number 62
_symmetry_cell_setting 'orthorhombic'
loop_
_space_group_symop_operation_xyz
x,y,z
1/2-x,-y,1/2+z
1/2+x,1/2-y,1/2-z
-x,1/2+y,-z
-x,-y,-z
1/2+x,y,1/2-z
1/2-x,1/2+y,1/2+z
x,1/2-y,z
loop_
_atom_site_type_symbol
_atom_site_label
_atom_site_fract_x
_atom_site_fract_y
_atom_site_fract_z
Si Si1 0.577762 0.078891 0.442679
Si Si2 0.778852 0.076369 0.874110
Si Si3 0.350022 0.921081 0.464798
Si Si4 0.517672 0.075887 0.866479
Si Si5 0.818798 0.922601 0.589571
Si Si6 0.182150 0.922519 0.827831
Si Si7 0.883782 0.075718 0.714891
Si Si8 0.045603 0.923498 0.195169
O O1 0.558145 0.250000 0.435158
O O2 0.633121 0.063224 0.487082
O O3 0.657498 0.010139 0.409093
O O4 0.458991 0.995795 0.444622
O O5 0.785784 0.250000 0.882366
O O6 0.648040 0.036892 0.870716
O O7 0.845348 0.049876 0.832425
O O8 0.347493 0.750000 0.454950
O O9 0.239621 0.999593 0.448134
O O10 0.506046 0.250000 0.872677
O O11 0.471128 0.044555 0.821374
O O12 0.437164 0.991847 0.897455
O O13 0.828463 0.750000 0.583429
O O14 0.736138 0.948583 0.627985
O O15 0.176143 0.750000 0.821615
O O16 0.268815 0.995041 0.796406
O O17 0.060788 0.993689 0.823002
O O18 0.863624 0.250000 0.715336
O O19 0.930910 0.033604 0.758574
O O20 0.022615 0.750000 0.194433
#
# Coordination Sequence:
#
# PCOD9464386 Si02
#       8
#     8   8   8   8   8   8   8   8
#     4  10  21  36  55  83 115 146 179 221 275 328
#     4  10  21  36  55  81 111 144 184 225 270 326
#     4  10  20  35  58  84 111 142 181 226 271 322
#     4   9  19  36  56  78 107 144 184 227 271 318
#     4  10  20  35  56  81 108 141 181 223 271 325
#     4  10  21  35  51  76 110 139 172 218 268 324
#     4   9  19  35  57  78 102 137 181 228 268 312
#     4  10  21  34  55  81 105 138 181 226 269 317
#
# _framework density 17.705774000000002
#
# number of rings (size 3 to 8) (size 9 to 14) (size 15 to 20)
#    0.000    2.250    0.000    2.250    1.750    6.500 
#    0.000    0.625    0.000    0.000    0.000    0.000 
#    0.000    0.000    0.000    0.000    0.000    0.000 
#
# Total GULP energy -357350.482828 kJ/mol
# GULP energy per Si atom -5583.601294 kJ/mol
# Density = 1.766547 g / cm^3
# Si number density = 17.705774 Si / 1000 Ang^3
#
#
#
# Elastic Constant Matrix: (Units=GPa)
#
#
# Indices 1 2 3 4 5 6 
#
# 1 81.8716 32.3480 32.3464 0.0000 0.0000 0.0000
# 2 32.3480 42.2712 35.7495 0.0000 0.0000 0.0000
# 3 32.3464 35.7495 51.2508 0.0000 0.0000 0.0000
# 4 0.0000 0.0000 0.0000 22.1328 0.0000 0.0000
# 5 0.0000 0.0000 0.0000 0.0000 16.6940 0.0000
# 6 0.0000 0.0000 0.0000 0.0000 0.0000 22.7180
#
#
#
# Elastic Compliance Matrix: (Units=1/GPa)
#
#
# Indices 1 2 3 4 5 6 
#
# 1 0.017879 -0.010092 -0.004244 0.000000 0.000000 0.000000
# 2 -0.010092 0.063385 -0.037844 0.000000 0.000000 0.000000
# 3 -0.004244 -0.037844 0.048588 0.000000 0.000000 0.000000
# 4 0.000000 0.000000 0.000000 0.045182 0.000000 0.000000
# 5 0.000000 0.000000 0.000000 0.000000 0.059902 0.000000
# 6 0.000000 0.000000 0.000000 0.000000 0.000000 0.044018
#
#
# Mechanical properties :
#
#
# Convention : Reuss Voigt Hill
#
# Bulk Modulus (GPa) = 39.22933 41.80906 40.51919
# Shear Modulus (GPa) = 12.76123 17.30562 15.03343
#
# Velocity S-wave (km/s) = 2.68757 3.12973 2.91704
# Velocity P-wave (km/s) = 5.64226 6.06010 5.85491
#
# Compressibility (1/GPa) = 0.02549113
#
# Stress axis : x y z
#
# Youngs Moduli (GPa) = 55.93303 15.77655 20.58105
#
# Poissons Ratio (x) = 0.15922 0.08735
# Poissons Ratio (y) = 0.56448 0.77887
# Poissons Ratio (z) = 0.23739 0.59705
#
# Static dielectric constant tensor:
#      x y z
#    x 1.573000 0.000000 0.000000 
#    y 0.000000 1.587330 0.000000 
#    z 0.000000 0.000000 1.599980 
# 
# From -- ./inp_files/32489.got.cif
#   From: 2010.05.17/outbox.cif.g08.bks.cpg/sg62_17_cif.got.tgz:32489.got - 2010.06.03 15:25:27.
