data_PCOD9464983
_publ_section_title
;
Structure prediction by ZEFSAII (Michael W. Deem and Ramdas Pophale) SiO2 
 PCOD9464983
Probable space group: P N M A
;
_chemical_formula_sum "Si O2"
_cell_formula_units_Z 64
_cell_length_a 14.001932
_cell_length_b 12.516660
_cell_length_c 17.735836
_cell_angle_alpha 90.000000
_cell_angle_beta 90.000000
_cell_angle_gamma 90.000000
_cell_volume 3108.336898
_symmetry_space_group_name_H-M "P N M A"
_symmetry_group_IT_number 62
_symmetry_cell_setting 'orthorhombic'
loop_
_space_group_symop_operation_xyz
x,y,z
1/2-x,-y,1/2+z
1/2+x,1/2-y,1/2-z
-x,1/2+y,-z
-x,-y,-z
1/2+x,y,1/2-z
1/2-x,1/2+y,1/2+z
x,1/2-y,z
loop_
_atom_site_type_symbol
_atom_site_label
_atom_site_fract_x
_atom_site_fract_y
_atom_site_fract_z
Si Si1 0.614801 0.030686 0.640005
Si Si2 0.692504 0.137575 0.372584
Si Si3 0.831955 0.870839 0.446468
Si Si4 0.010797 0.620471 0.954016
Si Si5 0.541939 0.629324 0.264978
Si Si6 0.765617 0.429455 0.523234
Si Si7 0.754272 0.931308 0.286303
Si Si8 0.534294 0.620766 0.098803
O O1 0.593712 0.913785 0.605068
O O2 0.674558 0.093145 0.575705
O O3 0.679199 0.047716 0.714533
O O4 0.511692 0.074423 0.665798
O O5 0.699814 0.250000 0.332606
O O6 0.588549 0.126059 0.409353
O O7 0.718267 0.044102 0.317265
O O8 0.761651 0.133507 0.445176
O O9 0.823725 0.750000 0.472270
O O10 0.765339 0.948573 0.493958
O O11 0.942052 0.908444 0.450428
O O12 0.805541 0.877339 0.357863
O O13 0.024590 0.750000 0.981923
O O14 0.000000 0.500000 0.000000
O O15 0.504894 0.750000 0.264771
O O16 0.656274 0.630021 0.269359
O O17 0.520199 0.577791 0.183729
O O18 0.863089 0.411019 0.567614
O O19 0.533484 0.750000 0.103476
#
# Coordination Sequence:
#
# PCOD9464983 Si02
#       8
#     8   8   8   8   8   8   8   8
#     4  12  24  40  64  99 129 172 224 285 340 407
#     4  10  22  41  62  86 124 171 216 262 326 399
#     4  10  22  40  61  91 127 171 219 277 340 407
#     4  11  24  45  67  99 138 180 229 283 343 408
#     4  11  23  37  60  95 133 170 217 280 344 407
#     4  11  22  38  63  92 127 167 214 274 336 402
#     4  11  22  41  64  89 132 169 220 269 342 403
#     4  10  20  37  61  90 124 164 214 273 335 402
#
# _framework density 20.589787999999999
#
# number of rings (size 3 to 8) (size 9 to 14) (size 15 to 20)
#    0.000    1.250    5.000    1.125    0.000    3.000 
#    0.000    0.000    0.000    0.750    0.000    0.000 
#    0.000    0.000    0.000    0.000    0.000    0.000 
#
# Total GULP energy -356310.662931 kJ/mol
# GULP energy per Si atom -5567.354108 kJ/mol
# Density = 2.054292 g / cm^3
# Si number density = 20.589788 Si / 1000 Ang^3
#
#
#
# Elastic Constant Matrix: (Units=GPa)
#
#
# Indices 1 2 3 4 5 6 
#
# 1 68.7107 4.4564 10.9157 0.0000 0.0000 0.0000
# 2 4.4564 101.7697 15.7206 0.0000 0.0000 0.0000
# 3 10.9157 15.7206 59.4734 0.0000 0.0000 0.0000
# 4 0.0000 0.0000 0.0000 -188.5205 0.0000 0.0000
# 5 0.0000 0.0000 0.0000 0.0000 40.9020 0.0000
# 6 0.0000 0.0000 0.0000 0.0000 0.0000 140.2650
#
#
#
# Elastic Compliance Matrix: (Units=1/GPa)
#
#
# Indices 1 2 3 4 5 6 
#
# 1 0.014997 -0.000241 -0.002689 0.000000 0.000000 0.000000
# 2 -0.000241 0.010248 -0.002665 0.000000 0.000000 0.000000
# 3 -0.002689 -0.002665 0.018012 0.000000 0.000000 0.000000
# 4 0.000000 0.000000 0.000000 -0.005304 0.000000 0.000000
# 5 0.000000 0.000000 0.000000 0.000000 0.024449 0.000000
# 6 0.000000 0.000000 0.000000 0.000000 0.000000 0.007129
#
#
# Mechanical properties :
#
#
# Convention : Reuss Voigt Hill
#
# Bulk Modulus (GPa) = 31.18412 32.45992 31.82202
# Shear Modulus (GPa) = 54.69924 11.78671 33.24298
#
# Velocity S-wave (km/s) = 5.15983 2.39520 4.02249
# Velocity P-wave (km/s) = 7.11876 4.84237 6.08791
#
# Compressibility (1/GPa) = 0.03206760
#
# Stress axis : x y z
#
# Youngs Moduli (GPa) = 66.68202 97.57731 55.51841
#
# Poissons Ratio (x) = 0.02355 0.14927
# Poissons Ratio (y) = 0.01609 0.14794
# Poissons Ratio (z) = 0.17928 0.26001
#
# Static dielectric constant tensor:
#      x y z
#    x 1.774870 0.000000 0.000000 
#    y 0.000000 1.828400 0.000000 
#    z 0.000000 0.000000 1.754630 
# 
# From -- ./inp_files/24006.got.cif
#   From: 2010.05.17/outbox.cif.g08.bks.cpg/sg62_13_cif.got.tgz:24006.got - 2010.06.03 15:25:27.
