data_PCOD9464190
_publ_section_title
;
Structure prediction by ZEFSAII (Michael W. Deem and Ramdas Pophale) SiO2 
 PCOD9464190
Probable space group: P N M A
;
_chemical_formula_sum "Si O2"
_cell_formula_units_Z 56
_cell_length_a 14.493712
_cell_length_b 7.477623
_cell_length_c 21.575086
_cell_angle_alpha 90.000000
_cell_angle_beta 90.000000
_cell_angle_gamma 90.000000
_cell_volume 2338.275765
_symmetry_space_group_name_H-M "P N M A"
_symmetry_group_IT_number 62
_symmetry_cell_setting 'orthorhombic'
loop_
_space_group_symop_operation_xyz
x,y,z
1/2-x,-y,1/2+z
1/2+x,1/2-y,1/2-z
-x,1/2+y,-z
-x,-y,-z
1/2+x,y,1/2-z
1/2-x,1/2+y,1/2+z
x,1/2-y,z
loop_
_atom_site_type_symbol
_atom_site_label
_atom_site_fract_x
_atom_site_fract_y
_atom_site_fract_z
Si Si1 0.506311 0.039747 0.071942
Si Si2 0.138679 0.955174 0.323053
Si Si3 0.390510 0.962821 0.500038
Si Si4 0.340433 0.970261 0.363579
Si Si5 0.657596 0.030596 0.363278
Si Si6 0.362257 0.466384 0.173362
Si Si7 0.998747 0.000762 0.223782
O O1 0.519255 0.250000 0.079322
O O2 0.412889 0.992390 0.108616
O O3 0.590192 0.954443 0.109766
O O4 0.500000 0.000000 0.000000
O O5 0.137104 0.750000 0.300033
O O6 0.243046 0.015100 0.332159
O O7 0.073421 0.063241 0.276076
O O8 0.378413 0.750000 0.500086
O O9 0.345915 0.024832 0.435579
O O10 0.347179 0.024950 0.564857
O O11 0.500000 0.000000 0.500000
O O12 0.351893 0.750000 0.359988
O O13 0.423541 0.061631 0.326943
O O14 0.644596 0.250000 0.359799
O O15 0.755494 0.989136 0.332362
O O16 0.575161 0.940317 0.325879
O O17 0.370180 0.250000 0.184733
O O18 0.421543 0.562140 0.226328
#
# Coordination Sequence:
#
# PCOD9464190 Si02
#       7
#     8   8   8   8   8   8   8
#     4  10  21  38  61  86 117 155 195 242 290 342
#     4  10  22  38  59  86 116 155 196 236 290 352
#     4  10  20  37  58  81 110 148 194 239 287 344
#     4  10  21  36  57  82 113 153 194 236 290 350
#     4  10  20  34  56  82 113 153 192 231 287 351
#     4   9  20  35  54  82 112 149 190 229 281 346
#     4  11  19  35  57  82 117 146 191 244 288 335
#
# _framework density 23.949271
#
# number of rings (size 3 to 8) (size 9 to 14) (size 15 to 20)
#    0.000    2.000    1.429    2.143    2.000    0.571 
#    0.000    2.143    0.000    3.429    0.000    0.000 
#    0.000    0.000    0.000    0.000    0.000    0.000 
#
# Total GULP energy -312059.539803 kJ/mol
# GULP energy per Si atom -5572.491782 kJ/mol
# Density = 2.389476 g / cm^3
# Si number density = 23.949271 Si / 1000 Ang^3
#
#
#
# Elastic Constant Matrix: (Units=GPa)
#
#
# Indices 1 2 3 4 5 6 
#
# 1 226.2773 33.0248 81.7421 0.0000 0.0000 0.0000
# 2 33.0248 92.0547 25.9584 0.0000 0.0000 0.0000
# 3 81.7421 25.9584 212.3175 0.0000 0.0000 0.0000
# 4 0.0000 0.0000 0.0000 -73.9332 0.0000 0.0000
# 5 0.0000 0.0000 0.0000 0.0000 26.8863 0.0000
# 6 0.0000 0.0000 0.0000 0.0000 0.0000 -0.4912
#
#
#
# Elastic Compliance Matrix: (Units=1/GPa)
#
#
# Indices 1 2 3 4 5 6 
#
# 1 0.005296 -0.001372 -0.001871 0.000000 0.000000 0.000000
# 2 -0.001372 0.011607 -0.000891 0.000000 0.000000 0.000000
# 3 -0.001871 -0.000891 0.005539 0.000000 0.000000 0.000000
# 4 0.000000 0.000000 0.000000 -0.013526 0.000000 0.000000
# 5 0.000000 0.000000 0.000000 0.000000 0.037194 0.000000
# 6 0.000000 0.000000 0.000000 0.000000 0.000000 -2.036006
#
#
# Mechanical properties :
#
#
# Convention : Reuss Voigt Hill
#
# Bulk Modulus (GPa) = 70.55482 90.23333 80.39407
# Shear Modulus (GPa) = -2.52921 16.48736 6.97908
#
# Velocity S-wave (km/s) = -1.02877 2.62664 1.70893
# Velocity P-wave (km/s) = 5.30216 6.85256 6.12660
#
# Compressibility (1/GPa) = 0.01417338
#
# Stress axis : x y z
#
# Youngs Moduli (GPa) = 188.83898 86.15817 180.53254
#
# Poissons Ratio (x) = 0.11822 0.33778
# Poissons Ratio (y) = 0.25912 0.16081
# Poissons Ratio (z) = 0.35332 0.07675
#
# Static dielectric constant tensor:
#      x y z
#    x 1.835150 0.000000 0.000000 
#    y 0.000000 1.938460 0.000000 
#    z 0.000000 0.000000 1.891680 
# 
# From -- ./inp_files/27290.got.cif
#   From: 2010.05.17/outbox.cif.g08.bks.cpg/sg62_14_cif.got.tgz:27290.got - 2010.06.03 15:25:27.
