data_PCOD9464139
_publ_section_title
;
Structure prediction by ZEFSAII (Michael W. Deem and Ramdas Pophale) SiO2 
 PCOD9464139
Probable space group: P N M A
;
_chemical_formula_sum "Si O2"
_cell_formula_units_Z 56
_cell_length_a 9.316755
_cell_length_b 18.608678
_cell_length_c 14.778439
_cell_angle_alpha 90.000000
_cell_angle_beta 90.000000
_cell_angle_gamma 90.000000
_cell_volume 2562.174824
_symmetry_space_group_name_H-M "P N M A"
_symmetry_group_IT_number 62
_symmetry_cell_setting 'orthorhombic'
loop_
_space_group_symop_operation_xyz
x,y,z
1/2-x,-y,1/2+z
1/2+x,1/2-y,1/2-z
-x,1/2+y,-z
-x,-y,-z
1/2+x,y,1/2-z
1/2-x,1/2+y,1/2+z
x,1/2-y,z
loop_
_atom_site_type_symbol
_atom_site_label
_atom_site_fract_x
_atom_site_fract_y
_atom_site_fract_z
Si Si1 0.710910 0.936986 0.929185
Si Si2 0.290374 0.520392 0.374326
Si Si3 0.954090 0.077953 0.747415
Si Si4 0.702104 0.106249 0.873017
Si Si5 0.568508 0.170132 0.342967
Si Si6 0.496091 0.669933 0.855534
Si Si7 0.295059 0.142110 0.435441
O O1 0.563350 0.893379 0.915477
O O2 0.819941 0.891785 0.866866
O O3 0.700014 0.019830 0.896859
O O4 0.762490 0.935020 0.033394
O O5 0.148071 0.525683 0.312026
O O6 0.428901 0.543299 0.315614
O O7 0.313966 0.441028 0.410251
O O8 0.836608 0.119060 0.806974
O O9 0.053176 0.121378 0.677300
O O10 0.730860 0.147770 0.964872
O O11 0.632316 0.250000 0.331769
O O12 0.482639 0.154250 0.250425
O O13 0.451059 0.173546 0.421737
O O14 0.550225 0.750000 0.878356
O O15 0.325628 0.671075 0.868964
#
# Coordination Sequence:
#
# PCOD9464139 Si02
#       7
#     8   8   8   8   8   8   8
#     4  11  22  37  57  82 119 146 193 240 273 344
#     4  10  22  35  56  89 111 151 187 229 301 335
#     4  10  20  34  54  82 118 140 182 222 290 354
#     4  10  22  35  56  89 111 151 187 229 301 335
#     4  11  24  38  57  85 116 158 197 223 270 340
#     4  11  24  38  57  85 116 158 197 223 270 340
#     4  11  22  37  57  82 119 146 193 240 273 344
#
# _framework density 21.856432000000002
#
# number of rings (size 3 to 8) (size 9 to 14) (size 15 to 20)
#    0.000    1.429    0.000    5.143   12.000    6.857 
#    0.000    0.000    0.000    0.000    0.000   70.000 
#    0.000    0.000    0.000    0.000    0.000    0.000 
#
# Total GULP energy -312969.835395 kJ/mol
# GULP energy per Si atom -5588.747061 kJ/mol
# Density = 2.180669 g / cm^3
# Si number density = 21.856432 Si / 1000 Ang^3
#
#
#
# Elastic Constant Matrix: (Units=GPa)
#
#
# Indices 1 2 3 4 5 6 
#
# 1 89.3706 -6.1833 -1.6431 0.0000 0.0000 0.0000
# 2 -6.1833 40.8844 5.5100 0.0000 0.0000 0.0000
# 3 -1.6431 5.5100 81.5115 0.0000 0.0000 0.0000
# 4 0.0000 0.0000 0.0000 -0.1418 0.0000 0.0000
# 5 0.0000 0.0000 0.0000 0.0000 36.6080 0.0000
# 6 0.0000 0.0000 0.0000 0.0000 0.0000 53.8106
#
#
#
# Elastic Compliance Matrix: (Units=1/GPa)
#
#
# Indices 1 2 3 4 5 6 
#
# 1 0.011309 0.001695 0.000113 0.000000 0.000000 0.000000
# 2 0.001695 0.024938 -0.001652 0.000000 0.000000 0.000000
# 3 0.000113 -0.001652 0.012382 0.000000 0.000000 0.000000
# 4 0.000000 0.000000 0.000000 -7.052383 0.000000 0.000000
# 5 0.000000 0.000000 0.000000 0.000000 0.027316 0.000000
# 6 0.000000 0.000000 0.000000 0.000000 0.000000 0.018584
#
#
# Mechanical properties :
#
#
# Convention : Reuss Voigt Hill
#
# Bulk Modulus (GPa) = 20.43208 23.01487 21.72348
# Shear Modulus (GPa) = -0.72027 32.32755 15.80364
#
# Velocity S-wave (km/s) = -0.57468 3.85006 2.69191
# Velocity P-wave (km/s) = 2.98802 5.50607 4.42974
#
# Compressibility (1/GPa) = 0.04894263
#
# Stress axis : x y z
#
# Youngs Moduli (GPa) = 88.42732 40.09920 80.76152
#
# Poissons Ratio (x) = -0.06797 -0.00916
# Poissons Ratio (y) = -0.14989 0.13339
# Poissons Ratio (z) = -0.01003 0.06623
#
# Static dielectric constant tensor:
#      x y z
#    x 1.803460 0.000000 0.000000 
#    y 0.000000 1.803020 0.000000 
#    z 0.000000 0.000000 1.811870 
# 
# From -- ./inp_files/17189.got.cif
#   From: 2010.05.17/outbox.cif.g08.bks.cpg/sg62_9_cif.got.tgz:17189.got - 2010.06.03 15:25:27.
