data_PCOD9464025
_publ_section_title
;
Structure prediction by ZEFSAII (Michael W. Deem and Ramdas Pophale) SiO2 
 PCOD9464025
Probable space group: P N M A
;
_chemical_formula_sum "Si O2"
_cell_formula_units_Z 48
_cell_length_a 24.677442
_cell_length_b 9.237863
_cell_length_c 9.638870
_cell_angle_alpha 90.000000
_cell_angle_beta 90.000000
_cell_angle_gamma 90.000000
_cell_volume 2197.342623
_symmetry_space_group_name_H-M "P N M A"
_symmetry_group_IT_number 62
_symmetry_cell_setting 'orthorhombic'
loop_
_space_group_symop_operation_xyz
x,y,z
1/2-x,-y,1/2+z
1/2+x,1/2-y,1/2-z
-x,1/2+y,-z
-x,-y,-z
1/2+x,y,1/2-z
1/2-x,1/2+y,1/2+z
x,1/2-y,z
loop_
_atom_site_type_symbol
_atom_site_label
_atom_site_fract_x
_atom_site_fract_y
_atom_site_fract_z
Si Si1 0.917082 0.420567 0.032891
Si Si2 0.248594 0.918013 0.541478
Si Si3 0.082794 0.578279 0.435394
Si Si4 0.361200 0.582039 0.712079
Si Si5 0.304903 0.079595 0.302029
Si Si6 0.519542 0.923795 0.795290
O O1 0.922920 0.250000 0.996833
O O2 0.863347 0.435268 0.128885
O O3 0.964602 0.464111 0.138521
O O4 0.903692 0.514011 0.898230
O O5 0.239219 0.750000 0.505560
O O6 0.302972 0.927982 0.637475
O O7 0.202005 0.973310 0.644656
O O8 0.262701 0.004535 0.404595
O O9 0.086783 0.750000 0.416895
O O10 0.132344 0.503034 0.356103
O O11 0.069380 0.551331 0.596995
O O12 0.030228 0.513213 0.356418
O O13 0.373293 0.750000 0.735066
O O14 0.292577 0.250000 0.296783
O O15 0.509045 0.750000 0.799188
#
# Coordination Sequence:
#
# PCOD9464025 Si02
#       6
#     8   8   8   8   8   8
#     4   9  18  34  54  74  98 129 166 206 245 289
#     4   9  19  34  51  74 103 133 166 204 246 292
#     4  10  20  34  53  76 100 129 166 205 248 298
#     4  10  20  34  51  73 103 135 166 203 246 292
#     4   9  18  33  52  74 100 130 165 204 244 289
#     4   9  19  35  53  74 100 129 163 205 251 296
#
# _framework density 21.844567999999999
#
# number of rings (size 3 to 8) (size 9 to 14) (size 15 to 20)
#    0.000    2.667    0.000    1.000    0.000    4.667 
#    0.000    1.667    0.000    0.000    0.000    0.000 
#    0.000    0.000    0.000    0.000    0.000    0.000 
#
# Total GULP energy -268106.354897 kJ/mol
# GULP energy per Si atom -5585.549060 kJ/mol
# Density = 2.179485 g / cm^3
# Si number density = 21.844568 Si / 1000 Ang^3
#
#
#
# Elastic Constant Matrix: (Units=GPa)
#
#
# Indices 1 2 3 4 5 6 
#
# 1 38.7583 4.5234 5.7369 0.0000 0.0000 0.0000
# 2 4.5234 42.6267 31.1583 0.0000 0.0000 0.0000
# 3 5.7369 31.1583 106.0832 0.0000 0.0000 0.0000
# 4 0.0000 0.0000 0.0000 28.8360 0.0000 0.0000
# 5 0.0000 0.0000 0.0000 0.0000 44.2302 0.0000
# 6 0.0000 0.0000 0.0000 0.0000 0.0000 10.4731
#
#
#
# Elastic Compliance Matrix: (Units=1/GPa)
#
#
# Indices 1 2 3 4 5 6 
#
# 1 0.026173 -0.002219 -0.000764 0.000000 0.000000 0.000000
# 2 -0.002219 0.030061 -0.008709 0.000000 0.000000 0.000000
# 3 -0.000764 -0.008709 0.012026 0.000000 0.000000 0.000000
# 4 0.000000 0.000000 0.000000 0.034679 0.000000 0.000000
# 5 0.000000 0.000000 0.000000 0.000000 0.022609 0.000000
# 6 0.000000 0.000000 0.000000 0.000000 0.000000 0.095483
#
#
# Mechanical properties :
#
#
# Convention : Reuss Voigt Hill
#
# Bulk Modulus (GPa) = 22.28381 30.03393 26.15887
# Shear Modulus (GPa) = 19.27720 26.44451 22.86086
#
# Velocity S-wave (km/s) = 2.97386 3.48311 3.23851
# Velocity P-wave (km/s) = 4.69202 5.47310 5.09754
#
# Compressibility (1/GPa) = 0.04487564
#
# Stress axis : x y z
#
# Youngs Moduli (GPa) = 38.20736 33.26549 83.15349
#
# Poissons Ratio (x) = 0.07382 0.06350
# Poissons Ratio (y) = 0.08479 0.72422
# Poissons Ratio (z) = 0.02918 0.28972
#
# Static dielectric constant tensor:
#      x y z
#    x 1.892950 0.000000 0.000000 
#    y 0.000000 1.722200 0.000000 
#    z 0.000000 0.000000 1.783910 
# 
# From -- ./inp_files/10184.got.cif
#   From: 2010.05.17/outbox.cif.g08.bks.cpg/sg62_6_cif.got.tgz:10184.got - 2010.06.03 15:25:27.
