data_PCOD9464812
_publ_section_title
;
Structure prediction by ZEFSAII (Michael W. Deem and Ramdas Pophale) SiO2 
 PCOD9464812
Probable space group: P N M A
;
_chemical_formula_sum "Si O2"
_cell_formula_units_Z 40
_cell_length_a 8.383185
_cell_length_b 10.983330
_cell_length_c 21.011959
_cell_angle_alpha 90.000000
_cell_angle_beta 90.000000
_cell_angle_gamma 90.000000
_cell_volume 1934.682162
_symmetry_space_group_name_H-M "P N M A"
_symmetry_group_IT_number 62
_symmetry_cell_setting 'orthorhombic'
loop_
_space_group_symop_operation_xyz
x,y,z
1/2-x,-y,1/2+z
1/2+x,1/2-y,1/2-z
-x,1/2+y,-z
-x,-y,-z
1/2+x,y,1/2-z
1/2-x,1/2+y,1/2+z
x,1/2-y,z
loop_
_atom_site_type_symbol
_atom_site_label
_atom_site_fract_x
_atom_site_fract_y
_atom_site_fract_z
Si Si1 0.969368 0.110078 0.389281
Si Si2 0.974920 0.005359 0.167824
Si Si3 0.228189 0.613789 0.098191
Si Si4 0.194807 0.385302 0.266139
Si Si5 0.704536 0.891411 0.547335
O O1 0.908529 0.250000 0.399078
O O2 0.064514 0.110380 0.322445
O O3 0.107875 0.083707 0.441100
O O4 0.846388 0.999159 0.389942
O O5 0.826416 0.012771 0.216616
O O6 0.898278 0.042585 0.100684
O O7 0.103026 0.095144 0.200583
O O8 0.084970 0.891982 0.149267
O O9 0.300824 0.750000 0.098897
O O10 0.164800 0.591854 0.026293
O O11 0.269262 0.250000 0.267936
O O12 0.683578 0.750000 0.562756
#
# Coordination Sequence:
#
# PCOD9464812 Si02
#       5
#     8   8   8   8   8
#     4   9  19  37  63  93 118 148 190 239 291 341
#     4  11  21  36  56  83 114 151 189 236 292 342
#     4  11  23  38  56  85 123 160 193 229 278 345
#     4  10  20  36  61  90 115 141 189 250 299 342
#     4   9  19  37  60  87 120 152 190 238 287 340
#
# _framework density 20.675229999999999
#
# number of rings (size 3 to 8) (size 9 to 14) (size 15 to 20)
#    0.000    2.000    0.000    5.400    0.000    4.000 
#    0.000    9.000    0.000    0.000    0.000    0.000 
#    0.000    0.000    0.000    0.000    0.000    0.000 
#
# Total GULP energy -222819.588290 kJ/mol
# GULP energy per Si atom -5570.489707 kJ/mol
# Density = 2.062817 g / cm^3
# Si number density = 20.675230 Si / 1000 Ang^3
#
#
#
# Elastic Constant Matrix: (Units=GPa)
#
#
# Indices 1 2 3 4 5 6 
#
# 1 72.8168 63.5858 26.6379 0.0000 0.0000 0.0000
# 2 63.5858 102.1282 26.8030 0.0000 0.0000 0.0000
# 3 26.6379 26.8030 43.7220 0.0000 0.0000 0.0000
# 4 0.0000 0.0000 0.0000 21.0125 0.0000 0.0000
# 5 0.0000 0.0000 0.0000 0.0000 35.8677 0.0000
# 6 0.0000 0.0000 0.0000 0.0000 0.0000 26.5969
#
#
#
# Elastic Compliance Matrix: (Units=1/GPa)
#
#
# Indices 1 2 3 4 5 6 
#
# 1 0.032755 -0.018062 -0.008884 0.000000 0.000000 0.000000
# 2 -0.018062 0.021629 -0.002255 0.000000 0.000000 0.000000
# 3 -0.008884 -0.002255 0.029666 0.000000 0.000000 0.000000
# 4 0.000000 0.000000 0.000000 0.047591 0.000000 0.000000
# 5 0.000000 0.000000 0.000000 0.000000 0.027880 0.000000
# 6 0.000000 0.000000 0.000000 0.000000 0.000000 0.037598
#
#
# Mechanical properties :
#
#
# Convention : Reuss Voigt Hill
#
# Bulk Modulus (GPa) = 38.98711 50.30228 44.64469
# Shear Modulus (GPa) = 18.93426 23.47146 21.20286
#
# Velocity S-wave (km/s) = 3.02949 3.37300 3.20585
# Velocity P-wave (km/s) = 5.57987 6.28904 5.94504
#
# Compressibility (1/GPa) = 0.02564950
#
# Stress axis : x y z
#
# Youngs Moduli (GPa) = 30.52926 46.23399 33.70810
#
# Poissons Ratio (x) = 0.83509 0.29945
# Poissons Ratio (y) = 0.55143 0.07600
# Poissons Ratio (z) = 0.27121 0.10425
#
# Static dielectric constant tensor:
#      x y z
#    x 1.820080 0.000000 0.000000 
#    y 0.000000 1.719990 0.000000 
#    z 0.000000 0.000000 1.772780 
# 
# From -- ./inp_files/25759.got.cif
#   From: 2010.05.17/outbox.cif.g08.bks.cpg/sg62_13_cif.got.tgz:25759.got - 2010.06.03 15:25:27.
