data_PCOD9464950
_publ_section_title
;
Structure prediction by ZEFSAII (Michael W. Deem and Ramdas Pophale) SiO2 
 PCOD9464950
Probable space group: P N M A
;
_chemical_formula_sum "Si O2"
_cell_formula_units_Z 64
_cell_length_a 14.947470
_cell_length_b 7.715762
_cell_length_c 25.036424
_cell_angle_alpha 90.000000
_cell_angle_beta 90.000000
_cell_angle_gamma 90.000000
_cell_volume 2887.478846
_symmetry_space_group_name_H-M "P N M A"
_symmetry_group_IT_number 62
_symmetry_cell_setting 'orthorhombic'
loop_
_space_group_symop_operation_xyz
x,y,z
1/2-x,-y,1/2+z
1/2+x,1/2-y,1/2-z
-x,1/2+y,-z
-x,-y,-z
1/2+x,y,1/2-z
1/2-x,1/2+y,1/2+z
x,1/2-y,z
loop_
_atom_site_type_symbol
_atom_site_label
_atom_site_fract_x
_atom_site_fract_y
_atom_site_fract_z
Si Si1 0.803091 0.039254 0.327627
Si Si2 0.909093 0.055459 0.528740
Si Si3 0.406799 0.542370 0.368619
Si Si4 0.658250 0.459440 0.240255
Si Si5 0.443995 0.041858 0.552677
Si Si6 0.741357 0.047295 0.947745
Si Si7 0.211757 0.542196 0.380186
Si Si8 0.956297 0.041373 0.250330
O O1 0.802283 0.250000 0.330485
O O2 0.723791 0.983184 0.287596
O O3 0.895063 0.982813 0.299424
O O4 0.789212 0.969389 0.386580
O O5 0.929453 0.250000 0.545482
O O6 0.865683 0.968019 0.581382
O O7 0.829006 0.046122 0.485889
O O8 0.000000 0.000000 0.500000
O O9 0.406755 0.750000 0.375602
O O10 0.495373 0.474794 0.398298
O O11 0.312363 0.475120 0.391657
O O12 0.411841 0.504970 0.305949
O O13 0.657809 0.250000 0.242024
O O14 0.691616 0.510754 0.181746
O O15 0.557435 0.524339 0.248149
O O16 0.436169 0.250000 0.558366
O O17 0.342614 0.976124 0.549021
O O18 0.500000 0.000000 0.500000
O O19 0.741010 0.250000 0.963171
O O20 0.215380 0.750000 0.388637
O O21 0.959210 0.250000 0.253036
#
# Coordination Sequence:
#
# PCOD9464950 Si02
#       8
#     8   8   8   8   8   8   8   8
#     4  10  21  38  58  86 123 160 199 245 302 361
#     4  11  25  45  66  90 122 163 210 260 311 368
#     4  10  20  37  60  88 121 155 192 244 303 361
#     4  10  21  37  59  87 120 157 198 247 300 357
#     4  10  22  39  61  90 122 157 201 249 305 369
#     4  11  24  41  62  91 124 161 207 256 308 371
#     4  10  22  39  61  88 118 154 199 248 305 365
#     4  10  21  36  56  85 116 152 198 242 295 360
#
# _framework density 22.164664999999999
#
# number of rings (size 3 to 8) (size 9 to 14) (size 15 to 20)
#    0.000    1.750    1.250    2.250    1.750    5.000 
#    0.000    0.000    0.000    0.000    0.000    0.000 
#    0.000    0.000    0.000    0.000    0.000    0.000 
#
# Total GULP energy -357666.088377 kJ/mol
# GULP energy per Si atom -5588.532631 kJ/mol
# Density = 2.211422 g / cm^3
# Si number density = 22.164665 Si / 1000 Ang^3
#
#
#
# Elastic Constant Matrix: (Units=GPa)
#
#
# Indices 1 2 3 4 5 6 
#
# 1 43.0355 0.9461 -32.5599 0.0000 0.0000 0.0000
# 2 0.9461 31.6898 -22.3628 0.0000 0.0000 0.0000
# 3 -32.5599 -22.3628 52.1493 0.0000 0.0000 0.0000
# 4 0.0000 0.0000 0.0000 28.0620 0.0000 0.0000
# 5 0.0000 0.0000 0.0000 0.0000 39.0169 0.0000
# 6 0.0000 0.0000 0.0000 0.0000 0.0000 -3.5904
#
#
#
# Elastic Compliance Matrix: (Units=1/GPa)
#
#
# Indices 1 2 3 4 5 6 
#
# 1 0.066488 0.039160 0.058305 0.000000 0.000000 0.000000
# 2 0.039160 0.068312 0.053744 0.000000 0.000000 0.000000
# 3 0.058305 0.053744 0.078626 0.000000 0.000000 0.000000
# 4 0.000000 0.000000 0.000000 0.035635 0.000000 0.000000
# 5 0.000000 0.000000 0.000000 0.000000 0.025630 0.000000
# 6 0.000000 0.000000 0.000000 0.000000 0.000000 -0.278521
#
#
# Mechanical properties :
#
#
# Convention : Reuss Voigt Hill
#
# Bulk Modulus (GPa) = 1.93857 2.10238 2.02048
# Shear Modulus (GPa) = -37.23057 24.75446 -6.23805
#
# Velocity S-wave (km/s) = -4.10289 3.34555 -1.67944
# Velocity P-wave (km/s) = 4.64418 3.98424 1.68735
#
# Compressibility (1/GPa) = 0.51584324
#
# Stress axis : x y z
#
# Youngs Moduli (GPa) = 15.04022 14.63862 12.71851
#
# Poissons Ratio (x) = -0.57324 -0.74155
# Poissons Ratio (y) = -0.58897 -0.68354
# Poissons Ratio (z) = -0.87692 -0.78673
#
# Static dielectric constant tensor:
#      x y z
#    x 1.854190 0.000000 0.000000 
#    y 0.000000 1.755430 0.000000 
#    z 0.000000 0.000000 1.767570 
# 
# From -- ./inp_files/29882.got.cif
#   From: 2010.05.17/outbox.cif.g08.bks.cpg/sg62_15_cif.got.tgz:29882.got - 2010.06.03 15:25:27.
