data_PCOD9464707
_publ_section_title
;
Structure prediction by ZEFSAII (Michael W. Deem and Ramdas Pophale) SiO2 
 PCOD9464707
Probable space group: P N M A
;
_chemical_formula_sum "Si O2"
_cell_formula_units_Z 48
_cell_length_a 27.311192
_cell_length_b 16.365266
_cell_length_c 5.034042
_cell_angle_alpha 90.000000
_cell_angle_beta 90.000000
_cell_angle_gamma 90.000000
_cell_volume 2249.989849
_symmetry_space_group_name_H-M "P N M A"
_symmetry_group_IT_number 62
_symmetry_cell_setting 'orthorhombic'
loop_
_space_group_symop_operation_xyz
x,y,z
1/2-x,-y,1/2+z
1/2+x,1/2-y,1/2-z
-x,1/2+y,-z
-x,-y,-z
1/2+x,y,1/2-z
1/2-x,1/2+y,1/2+z
x,1/2-y,z
loop_
_atom_site_type_symbol
_atom_site_label
_atom_site_fract_x
_atom_site_fract_y
_atom_site_fract_z
Si Si1 0.230804 0.044143 0.839615
Si Si2 0.952044 0.839198 0.871092
Si Si3 0.443139 0.013758 0.574555
Si Si4 0.520839 0.661302 0.125722
Si Si5 0.814463 0.345838 0.763625
Si Si6 0.855294 0.059780 0.265926
O O1 0.257490 0.129127 0.781256
O O2 0.239845 0.018629 0.144247
O O3 0.175232 0.024810 0.762628
O O4 0.928100 0.750000 0.828785
O O5 0.997366 0.843231 0.664307
O O6 0.924351 0.924780 0.831153
O O7 0.975306 0.839125 0.166078
O O8 0.446367 0.085620 0.788982
O O9 0.409884 0.043015 0.332464
O O10 0.500000 0.000000 0.500000
O O11 0.545794 0.750000 0.155469
O O12 0.822226 0.250000 0.733854
O O13 0.831773 0.378421 0.048979
O O14 0.843805 0.399063 0.545932
#
# Coordination Sequence:
#
# PCOD9464707 Si02
#       6
#     8   8   8   8   8   8
#     4   8  16  33  54  75 104 138 170 213 272 328
#     4   9  18  33  50  68  92 130 181 228 261 300
#     4  10  21  36  54  77 110 153 190 223 270 324
#     4   9  18  31  48  69  95 131 177 223 264 304
#     4  10  20  36  58  85 111 138 177 230 287 339
#     4  10  21  35  54  82 114 146 182 225 272 331
#
# _framework density 21.333428999999999
#
# number of rings (size 3 to 8) (size 9 to 14) (size 15 to 20)
#    0.000    2.667    0.000    1.000    0.000    6.667 
#    0.000    4.167    0.000    0.000    0.000   11.667 
#    0.000    0.000    0.000    0.000    0.000    0.000 
#
# Total GULP energy -267640.883968 kJ/mol
# GULP energy per Si atom -5575.851749 kJ/mol
# Density = 2.128487 g / cm^3
# Si number density = 21.333429 Si / 1000 Ang^3
#
#
#
# Elastic Constant Matrix: (Units=GPa)
#
#
# Indices 1 2 3 4 5 6 
#
# 1 63.7942 0.9836 2.1917 0.0000 0.0000 0.0000
# 2 0.9836 138.9142 -1.5187 0.0000 0.0000 0.0000
# 3 2.1917 -1.5187 63.3303 0.0000 0.0000 0.0000
# 4 0.0000 0.0000 0.0000 -106.3311 0.0000 0.0000
# 5 0.0000 0.0000 0.0000 0.0000 20.4733 0.0000
# 6 0.0000 0.0000 0.0000 0.0000 0.0000 -2.1572
#
#
#
# Elastic Compliance Matrix: (Units=1/GPa)
#
#
# Indices 1 2 3 4 5 6 
#
# 1 0.015696 -0.000117 -0.000546 0.000000 0.000000 0.000000
# 2 -0.000117 0.007201 0.000177 0.000000 0.000000 0.000000
# 3 -0.000546 0.000177 0.015813 0.000000 0.000000 0.000000
# 4 0.000000 0.000000 0.000000 -0.009405 0.000000 0.000000
# 5 0.000000 0.000000 0.000000 0.000000 0.048844 0.000000
# 6 0.000000 0.000000 0.000000 0.000000 0.000000 -0.463561
#
#
# Mechanical properties :
#
#
# Convention : Reuss Voigt Hill
#
# Bulk Modulus (GPa) = 26.49845 29.92799 28.21322
# Shear Modulus (GPa) = -13.44596 0.02247 -6.71175
#
# Velocity S-wave (km/s) = -2.51325 0.10273 -1.77565
# Velocity P-wave (km/s) = 2.00652 3.75143 3.00827
#
# Compressibility (1/GPa) = 0.03773805
#
# Stress axis : x y z
#
# Youngs Moduli (GPa) = 63.71061 138.86095 63.23770
#
# Poissons Ratio (x) = 0.01626 0.03453
# Poissons Ratio (y) = 0.00746 -0.01118
# Poissons Ratio (z) = 0.03479 -0.02454
#
# Static dielectric constant tensor:
#      x y z
#    x 1.803570 0.000000 0.000000 
#    y 0.000000 1.835530 0.000000 
#    z 0.000000 0.000000 1.764130 
# 
# From -- ./inp_files/3191.got.cif
#   From: 2010.05.17/outbox.cif.g08.bks.cpg/sg62_2_cif.got.tgz:3191.got - 2010.06.03 15:25:27.
