data_PCOD9464164
_publ_section_title
;
Structure prediction by ZEFSAII (Michael W. Deem and Ramdas Pophale) SiO2 
 PCOD9464164
Probable space group: P N M A
;
_chemical_formula_sum "Si O2"
_cell_formula_units_Z 56
_cell_length_a 15.322018
_cell_length_b 8.293482
_cell_length_c 21.977772
_cell_angle_alpha 90.000000
_cell_angle_beta 90.000000
_cell_angle_gamma 90.000000
_cell_volume 2792.778795
_symmetry_space_group_name_H-M "P N M A"
_symmetry_group_IT_number 62
_symmetry_cell_setting 'orthorhombic'
loop_
_space_group_symop_operation_xyz
x,y,z
1/2-x,-y,1/2+z
1/2+x,1/2-y,1/2-z
-x,1/2+y,-z
-x,-y,-z
1/2+x,y,1/2-z
1/2-x,1/2+y,1/2+z
x,1/2-y,z
loop_
_atom_site_type_symbol
_atom_site_label
_atom_site_fract_x
_atom_site_fract_y
_atom_site_fract_z
Si Si1 0.641344 0.057350 0.518401
Si Si2 0.425454 0.446690 0.724485
Si Si3 0.467603 0.055187 0.589720
Si Si4 0.426110 0.554949 0.183773
Si Si5 0.736381 0.444501 0.734346
Si Si6 0.982625 0.942702 0.568478
Si Si7 0.211179 0.058679 0.396967
O O1 0.647381 0.250000 0.522201
O O2 0.558801 0.002034 0.559753
O O3 0.612375 0.006524 0.451062
O O4 0.729092 0.983607 0.545183
O O5 0.425680 0.250000 0.724519
O O6 0.459402 0.498903 0.658895
O O7 0.489623 0.499075 0.777713
O O8 0.327589 0.500417 0.737076
O O9 0.466529 0.250000 0.588104
O O10 0.423653 0.750000 0.182518
O O11 0.343044 0.498791 0.223243
O O12 0.442145 0.496709 0.115393
O O13 0.733244 0.250000 0.735539
O O14 0.741376 0.491555 0.663457
O O15 0.979061 0.750000 0.568249
O O16 0.887703 0.004191 0.592672
O O17 0.000000 0.000000 0.500000
O O18 0.206223 0.250000 0.389981
#
# Coordination Sequence:
#
# PCOD9464164 Si02
#       7
#     8   8   8   8   8   8   8
#     4  10  20  34  55  82 114 154 198 240 289 350
#     4   9  17  32  55  81 112 148 184 233 284 339
#     4   9  18  34  54  81 118 154 192 238 290 347
#     4  10  20  37  61  89 120 155 199 245 296 360
#     4  10  20  35  60  88 113 150 196 238 295 361
#     4  11  25  43  63  87 118 159 204 252 307 362
#     4  11  23  39  59  85 117 155 200 247 299 359
#
# _framework density 20.051714
#
# number of rings (size 3 to 8) (size 9 to 14) (size 15 to 20)
#    0.000    2.000    1.429    2.143    0.000    6.286 
#    0.000    4.286    0.000    0.000    0.000    0.000 
#    0.000    0.000    0.000    0.000    0.000    0.000 
#
# Total GULP energy -312659.130649 kJ/mol
# GULP energy per Si atom -5583.198762 kJ/mol
# Density = 2.000608 g / cm^3
# Si number density = 20.051714 Si / 1000 Ang^3
#
#
#
# Elastic Constant Matrix: (Units=GPa)
#
#
# Indices 1 2 3 4 5 6 
#
# 1 92.8809 14.8522 34.6587 0.0000 0.0000 0.0000
# 2 14.8522 15.5892 9.7958 0.0000 0.0000 0.0000
# 3 34.6587 9.7958 131.0215 0.0000 0.0000 0.0000
# 4 0.0000 0.0000 0.0000 27.9862 0.0000 0.0000
# 5 0.0000 0.0000 0.0000 0.0000 26.9093 0.0000
# 6 0.0000 0.0000 0.0000 0.0000 0.0000 15.4573
#
#
#
# Elastic Compliance Matrix: (Units=1/GPa)
#
#
# Indices 1 2 3 4 5 6 
#
# 1 0.013588 -0.011214 -0.002756 0.000000 0.000000 0.000000
# 2 -0.011214 0.076563 -0.002758 0.000000 0.000000 0.000000
# 3 -0.002756 -0.002758 0.008568 0.000000 0.000000 0.000000
# 4 0.000000 0.000000 0.000000 0.035732 0.000000 0.000000
# 5 0.000000 0.000000 0.000000 0.000000 0.037162 0.000000
# 6 0.000000 0.000000 0.000000 0.000000 0.000000 0.064694
#
#
# Mechanical properties :
#
#
# Convention : Reuss Voigt Hill
#
# Bulk Modulus (GPa) = 15.32247 39.78945 27.55596
# Shear Modulus (GPa) = 17.15165 26.08290 21.61727
#
# Velocity S-wave (km/s) = 2.92784 3.61055 3.28697
# Velocity P-wave (km/s) = 4.36895 6.10474 5.30828
#
# Compressibility (1/GPa) = 0.06526363
#
# Stress axis : x y z
#
# Youngs Moduli (GPa) = 73.59414 13.06106 116.71928
#
# Poissons Ratio (x) = 0.14646 0.32168
# Poissons Ratio (y) = 0.82527 0.32190
# Poissons Ratio (z) = 0.20283 0.03602
#
# Static dielectric constant tensor:
#      x y z
#    x 1.717120 0.000000 0.000000 
#    y 0.000000 1.693760 0.000000 
#    z 0.000000 0.000000 1.702550 
# 
# From -- ./inp_files/27164.got.cif
#   From: 2010.05.17/outbox.cif.g08.bks.cpg/sg62_14_cif.got.tgz:27164.got - 2010.06.03 15:25:27.
