data_PCOD9464455
_publ_section_title
;
Structure prediction by ZEFSAII (Michael W. Deem and Ramdas Pophale) SiO2 
 PCOD9464455
Probable space group: P N M A
;
_chemical_formula_sum "Si O2"
_cell_formula_units_Z 56
_cell_length_a 16.617817
_cell_length_b 7.866650
_cell_length_c 20.753171
_cell_angle_alpha 90.000000
_cell_angle_beta 90.000000
_cell_angle_gamma 90.000000
_cell_volume 2712.990449
_symmetry_space_group_name_H-M "P N M A"
_symmetry_group_IT_number 62
_symmetry_cell_setting 'orthorhombic'
loop_
_space_group_symop_operation_xyz
x,y,z
1/2-x,-y,1/2+z
1/2+x,1/2-y,1/2-z
-x,1/2+y,-z
-x,-y,-z
1/2+x,y,1/2-z
1/2-x,1/2+y,1/2+z
x,1/2-y,z
loop_
_atom_site_type_symbol
_atom_site_label
_atom_site_fract_x
_atom_site_fract_y
_atom_site_fract_z
Si Si1 0.247240 0.045595 0.471447
Si Si2 0.190956 0.950831 0.696482
Si Si3 0.670413 0.950475 0.400415
Si Si4 0.516568 0.953996 0.326304
Si Si5 0.166012 0.453818 0.839462
Si Si6 0.507009 0.544685 0.816914
Si Si7 0.431436 0.545140 0.949370
O O1 0.243293 0.250000 0.478860
O O2 0.298464 0.977232 0.531726
O O3 0.155711 0.980195 0.470961
O O4 0.287206 0.007600 0.403014
O O5 0.192681 0.750000 0.683939
O O6 0.100238 0.015110 0.681483
O O7 0.258582 0.031921 0.651859
O O8 0.203538 0.981071 0.772550
O O9 0.655806 0.750000 0.410570
O O10 0.588081 0.023271 0.370729
O O11 0.514910 0.750000 0.333133
O O12 0.426653 0.017328 0.342129
O O13 0.530547 0.992471 0.251121
O O14 0.164830 0.250000 0.835899
O O15 0.509332 0.750000 0.818278
O O16 0.458050 0.483188 0.878745
O O17 0.426563 0.750000 0.945707
O O18 0.500000 0.500000 0.000000
#
# Coordination Sequence:
#
# PCOD9464455 Si02
#       7
#     8   8   8   8   8   8   8
#     4  10  22  38  56  82 117 152 186 233 286 337
#     4  10  20  35  57  82 111 145 184 233 285 335
#     4  10  21  37  56  81 114 149 188 231 283 337
#     4   9  20  37  56  80 108 143 188 233 279 332
#     4  10  21  38  58  81 111 146 189 237 283 337
#     4   9  19  35  54  79 109 141 182 230 276 330
#     4  10  21  36  55  81 113 147 184 226 277 335
#
# _framework density 20.641427
#
# number of rings (size 3 to 8) (size 9 to 14) (size 15 to 20)
#    0.000    2.286    0.000    1.714    2.000    4.000 
#    0.000    0.000    0.000    0.000    0.000    0.000 
#    0.000    0.000    0.000    0.000    0.000    0.000 
#
# Total GULP energy -312767.478240 kJ/mol
# GULP energy per Si atom -5585.133540 kJ/mol
# Density = 2.059445 g / cm^3
# Si number density = 20.641427 Si / 1000 Ang^3
#
#
#
# Elastic Constant Matrix: (Units=GPa)
#
#
# Indices 1 2 3 4 5 6 
#
# 1 29.1783 2.7232 19.2475 0.0000 0.0000 0.0000
# 2 2.7232 15.1777 -7.3396 0.0000 0.0000 0.0000
# 3 19.2475 -7.3396 80.3935 0.0000 0.0000 0.0000
# 4 0.0000 0.0000 0.0000 23.2235 0.0000 0.0000
# 5 0.0000 0.0000 0.0000 0.0000 31.2370 0.0000
# 6 0.0000 0.0000 0.0000 0.0000 0.0000 2.0375
#
#
#
# Elastic Compliance Matrix: (Units=1/GPa)
#
#
# Indices 1 2 3 4 5 6 
#
# 1 0.043129 -0.013320 -0.011542 0.000000 0.000000 0.000000
# 2 -0.013320 0.073043 0.009857 0.000000 0.000000 0.000000
# 3 -0.011542 0.009857 0.016102 0.000000 0.000000 0.000000
# 4 0.000000 0.000000 0.000000 0.043060 0.000000 0.000000
# 5 0.000000 0.000000 0.000000 0.000000 0.032013 0.000000
# 6 0.000000 0.000000 0.000000 0.000000 0.000000 0.490787
#
#
# Mechanical properties :
#
#
# Convention : Reuss Voigt Hill
#
# Bulk Modulus (GPa) = 9.77844 17.11240 13.44542
# Shear Modulus (GPa) = 6.55970 18.64083 12.60026
#
# Velocity S-wave (km/s) = 1.78461 3.00839 2.47338
# Velocity P-wave (km/s) = 2.99900 4.51392 3.83207
#
# Compressibility (1/GPa) = 0.10226585
#
# Stress axis : x y z
#
# Youngs Moduli (GPa) = 23.18641 13.69060 62.10399
#
# Poissons Ratio (x) = 0.18235 0.71679
# Poissons Ratio (y) = 0.30883 -0.61219
# Poissons Ratio (z) = 0.26761 -0.13495
#
# Static dielectric constant tensor:
#      x y z
#    x 1.744090 0.000000 0.000000 
#    y 0.000000 1.746630 0.000000 
#    z 0.000000 0.000000 1.706380 
# 
# From -- ./inp_files/27192.got.cif
#   From: 2010.05.17/outbox.cif.g08.bks.cpg/sg62_14_cif.got.tgz:27192.got - 2010.06.03 15:25:27.
