data_PCOD9464691
_publ_section_title
;
Structure prediction by ZEFSAII (Michael W. Deem and Ramdas Pophale) SiO2 
 PCOD9464691
Probable space group: P N M A
;
_chemical_formula_sum "Si O2"
_cell_formula_units_Z 48
_cell_length_a 20.596342
_cell_length_b 7.917321
_cell_length_c 14.770805
_cell_angle_alpha 90.000000
_cell_angle_beta 90.000000
_cell_angle_gamma 90.000000
_cell_volume 2408.643429
_symmetry_space_group_name_H-M "P N M A"
_symmetry_group_IT_number 62
_symmetry_cell_setting 'orthorhombic'
loop_
_space_group_symop_operation_xyz
x,y,z
1/2-x,-y,1/2+z
1/2+x,1/2-y,1/2-z
-x,1/2+y,-z
-x,-y,-z
1/2+x,y,1/2-z
1/2-x,1/2+y,1/2+z
x,1/2-y,z
loop_
_atom_site_type_symbol
_atom_site_label
_atom_site_fract_x
_atom_site_fract_y
_atom_site_fract_z
Si Si1 0.827534 0.454402 0.827713
Si Si2 0.084587 0.553249 0.655954
Si Si3 0.122076 0.446798 0.464636
Si Si4 0.200079 0.546900 0.783111
Si Si5 0.728323 0.956348 0.518049
Si Si6 0.947373 0.054360 0.714652
O O1 0.830066 0.250000 0.828845
O O2 0.769284 0.504085 0.760659
O O3 0.808379 0.514375 0.927980
O O4 0.896009 0.514636 0.787737
O O5 0.097739 0.750000 0.637574
O O6 0.083949 0.464313 0.558702
O O7 0.142601 0.483162 0.718452
O O8 0.015944 0.536466 0.705327
O O9 0.124692 0.250000 0.438149
O O10 0.195809 0.505934 0.482833
O O11 0.088493 0.541964 0.382334
O O12 0.194158 0.750000 0.786023
O O13 0.198414 0.486414 0.886680
O O14 0.727449 0.750000 0.516445
O O15 0.960588 0.250000 0.735114
#
# Coordination Sequence:
#
# PCOD9464691 Si02
#       6
#     8   8   8   8   8   8
#     4  10  20  36  58  82 109 143 183 226 272 326
#     4  11  23  37  55  81 115 149 185 227 274 330
#     4  11  20  34  59  84 113 146 180 226 280 334
#     4  10  20  36  58  82 109 143 183 226 272 326
#     4   9  18  34  57  84 110 140 176 223 278 325
#     4  11  23  37  55  81 115 149 185 227 274 330
#
# _framework density 19.928231
#
# number of rings (size 3 to 8) (size 9 to 14) (size 15 to 20)
#    0.000    1.667    3.333    2.000    0.000    1.333 
#    0.000    1.667    0.000    0.000    0.000    0.000 
#    0.000    0.000    0.000    0.000    0.000    0.000 
#
# Total GULP energy -268167.303287 kJ/mol
# GULP energy per Si atom -5586.818818 kJ/mol
# Density = 1.988287 g / cm^3
# Si number density = 19.928231 Si / 1000 Ang^3
#
#
#
# Elastic Constant Matrix: (Units=GPa)
#
#
# Indices 1 2 3 4 5 6 
#
# 1 41.7698 -4.1403 -13.0936 0.0000 0.0000 0.0000
# 2 -4.1403 22.4481 -4.3191 0.0000 0.0000 0.0000
# 3 -13.0936 -4.3191 76.6334 0.0000 0.0000 0.0000
# 4 0.0000 0.0000 0.0000 5.5633 0.0000 0.0000
# 5 0.0000 0.0000 0.0000 0.0000 27.6361 0.0000
# 6 0.0000 0.0000 0.0000 0.0000 0.0000 13.2413
#
#
#
# Elastic Compliance Matrix: (Units=1/GPa)
#
#
# Indices 1 2 3 4 5 6 
#
# 1 0.026000 0.005712 0.004764 0.000000 0.000000 0.000000
# 2 0.005712 0.046291 0.003585 0.000000 0.000000 0.000000
# 3 0.004764 0.003585 0.014065 0.000000 0.000000 0.000000
# 4 0.000000 0.000000 0.000000 0.179749 0.000000 0.000000
# 5 0.000000 0.000000 0.000000 0.000000 0.036185 0.000000
# 6 0.000000 0.000000 0.000000 0.000000 0.000000 0.075521
#
#
# Mechanical properties :
#
#
# Convention : Reuss Voigt Hill
#
# Bulk Modulus (GPa) = 8.73520 10.86057 9.79788
# Shear Modulus (GPa) = 12.89166 20.11509 16.50337
#
# Velocity S-wave (km/s) = 2.54619 3.18052 2.88086
# Velocity P-wave (km/s) = 3.61067 4.35307 3.99914
#
# Compressibility (1/GPa) = 0.11447937
#
# Stress axis : x y z
#
# Youngs Moduli (GPa) = 38.46087 21.60266 71.09720
#
# Poissons Ratio (x) = -0.12340 -0.33874
# Poissons Ratio (y) = -0.21969 -0.25488
# Poissons Ratio (z) = -0.18324 -0.07744
#
# Static dielectric constant tensor:
#      x y z
#    x 1.689280 0.000000 0.000000 
#    y 0.000000 1.699720 0.000000 
#    z 0.000000 0.000000 1.698280 
# 
# From -- ./inp_files/19534.got.cif
#   From: 2010.05.17/outbox.cif.g08.bks.cpg/sg62_10_cif.got.tgz:19534.got - 2010.06.03 15:25:27.
