data_PCOD9464186
_publ_section_title
;
Structure prediction by ZEFSAII (Michael W. Deem and Ramdas Pophale) SiO2 
 PCOD9464186
Probable space group: P N M A
;
_chemical_formula_sum "Si O2"
_cell_formula_units_Z 48
_cell_length_a 18.452532
_cell_length_b 8.868536
_cell_length_c 16.836348
_cell_angle_alpha 90.000000
_cell_angle_beta 90.000000
_cell_angle_gamma 90.000000
_cell_volume 2755.216904
_symmetry_space_group_name_H-M "P N M A"
_symmetry_group_IT_number 62
_symmetry_cell_setting 'orthorhombic'
loop_
_space_group_symop_operation_xyz
x,y,z
1/2-x,-y,1/2+z
1/2+x,1/2-y,1/2-z
-x,1/2+y,-z
-x,-y,-z
1/2+x,y,1/2-z
1/2-x,1/2+y,1/2+z
x,1/2-y,z
loop_
_atom_site_type_symbol
_atom_site_label
_atom_site_fract_x
_atom_site_fract_y
_atom_site_fract_z
Si Si1 0.054058 0.070304 0.755796
Si Si2 0.168576 0.930872 0.645738
Si Si3 0.584814 0.428743 0.177602
Si Si4 0.974521 0.069424 0.917335
Si Si5 0.419742 0.929933 0.000410
Si Si6 0.335115 0.569447 0.662099
O O1 0.062343 0.250000 0.752326
O O2 0.028448 0.026929 0.844509
O O3 0.125527 0.991508 0.722436
O O4 0.987637 0.019850 0.699097
O O5 0.164497 0.750000 0.644631
O O6 0.252746 0.976519 0.646452
O O7 0.128095 0.996847 0.568961
O O8 0.566798 0.250000 0.181973
O O9 0.610268 0.459148 0.088370
O O10 0.642423 0.461638 0.246547
O O11 0.973479 0.250000 0.922303
O O12 0.895331 0.010152 0.891936
O O13 0.000000 0.000000 0.000000
O O14 0.424090 0.750000 0.012768
O O15 0.500000 0.000000 0.000000
O O16 0.340796 0.750000 0.650112
#
# Coordination Sequence:
#
# PCOD9464186 Si02
#       6
#     8   8   8   8   8   8
#     4  10  20  34  56  82 109 141 183 229 273 328
#     4  11  22  36  55  81 116 151 183 228 284 333
#     4   9  18  35  57  78 103 142 185 224 271 327
#     4  10  21  38  61  86 111 145 189 235 281 332
#     4  11  21  33  55  84 115 145 185 230 274 332
#     4   9  20  39  59  79 110 147 187 233 279 329
#
# _framework density 17.421496000000001
#
# number of rings (size 3 to 8) (size 9 to 14) (size 15 to 20)
#    0.000    2.000    1.667    2.000    0.000    4.000 
#    3.000    0.000    0.000    0.000    0.000    0.000 
#    0.000    0.000    0.000    0.000    0.000    0.000 
#
# Total GULP energy -267911.482607 kJ/mol
# GULP energy per Si atom -5581.489221 kJ/mol
# Density = 1.738184 g / cm^3
# Si number density = 17.421496 Si / 1000 Ang^3
#
#
#
# Elastic Constant Matrix: (Units=GPa)
#
#
# Indices 1 2 3 4 5 6 
#
# 1 147.1326 55.5540 89.7432 0.0000 0.0000 0.0000
# 2 55.5540 54.3430 56.2231 0.0000 0.0000 0.0000
# 3 89.7432 56.2231 141.1781 0.0000 0.0000 0.0000
# 4 0.0000 0.0000 0.0000 30.8901 0.0000 0.0000
# 5 0.0000 0.0000 0.0000 0.0000 21.3388 0.0000
# 6 0.0000 0.0000 0.0000 0.0000 0.0000 26.3818
#
#
#
# Elastic Compliance Matrix: (Units=1/GPa)
#
#
# Indices 1 2 3 4 5 6 
#
# 1 0.012854 -0.007971 -0.004996 0.000000 0.000000 0.000000
# 2 -0.007971 0.036239 -0.009365 0.000000 0.000000 0.000000
# 3 -0.004996 -0.009365 0.013989 0.000000 0.000000 0.000000
# 4 0.000000 0.000000 0.000000 0.032373 0.000000 0.000000
# 5 0.000000 0.000000 0.000000 0.000000 0.046863 0.000000
# 6 0.000000 0.000000 0.000000 0.000000 0.000000 0.037905
#
#
# Mechanical properties :
#
#
# Convention : Reuss Voigt Hill
#
# Bulk Modulus (GPa) = 54.29749 82.85493 68.57621
# Shear Modulus (GPa) = 21.64249 25.13104 23.38676
#
# Velocity S-wave (km/s) = 3.52843 3.80219 3.66786
# Velocity P-wave (km/s) = 6.91624 8.18155 7.57536
#
# Compressibility (1/GPa) = 0.01841706
#
# Stress axis : x y z
#
# Youngs Moduli (GPa) = 77.79782 27.59433 71.48488
#
# Poissons Ratio (x) = 0.21995 0.35717
# Poissons Ratio (y) = 0.62012 0.66946
# Poissons Ratio (z) = 0.38872 0.25842
#
# Static dielectric constant tensor:
#      x y z
#    x 1.562130 0.000000 0.000000 
#    y 0.000000 1.584400 0.000000 
#    z 0.000000 0.000000 1.600340 
# 
# From -- ./inp_files/19643.got.cif
#   From: 2010.05.17/outbox.cif.g08.bks.cpg/sg62_10_cif.got.tgz:19643.got - 2010.06.03 15:25:27.
