data_PCOD9464056
_publ_section_title
;
Structure prediction by ZEFSAII (Michael W. Deem and Ramdas Pophale) SiO2 
 PCOD9464056
Probable space group: P N M A
;
_chemical_formula_sum "Si O2"
_cell_formula_units_Z 48
_cell_length_a 28.957121
_cell_length_b 7.383397
_cell_length_c 8.005557
_cell_angle_alpha 90.000000
_cell_angle_beta 90.000000
_cell_angle_gamma 90.000000
_cell_volume 1711.603460
_symmetry_space_group_name_H-M "P N M A"
_symmetry_group_IT_number 62
_symmetry_cell_setting 'orthorhombic'
loop_
_space_group_symop_operation_xyz
x,y,z
1/2-x,-y,1/2+z
1/2+x,1/2-y,1/2-z
-x,1/2+y,-z
-x,-y,-z
1/2+x,y,1/2-z
1/2-x,1/2+y,1/2+z
x,1/2-y,z
loop_
_atom_site_type_symbol
_atom_site_label
_atom_site_fract_x
_atom_site_fract_y
_atom_site_fract_z
Si Si1 0.346399 0.461934 0.151929
Si Si2 0.431541 0.533091 0.946767
Si Si3 0.177075 0.959118 0.163036
Si Si4 0.991686 0.461440 0.218786
Si Si5 0.594642 0.527513 0.533764
Si Si6 0.738942 0.529953 0.036885
O O1 0.341133 0.250000 0.183323
O O2 0.379295 0.479108 0.988273
O O3 0.295903 0.533613 0.110589
O O4 0.375945 0.536030 0.304465
O O5 0.433358 0.750000 0.940612
O O6 0.459649 0.459839 0.785249
O O7 0.460280 0.473573 0.111711
O O8 0.169655 0.750000 0.206923
O O9 0.127079 0.037094 0.117318
O O10 0.209782 0.963794 0.998604
O O11 0.211075 0.038318 0.301664
O O12 0.997825 0.250000 0.187484
O O13 0.957571 0.533683 0.073637
O O14 0.593971 0.750000 0.532741
O O15 0.740586 0.750000 0.040518
#
# Coordination Sequence:
#
# PCOD9464056 Si02
#       6
#     8   8   8   8   8   8
#     4   9  17  30  46  64  92 127 157 189 234 284
#     4   9  15  23  40  67  93 118 155 198 232 268
#     4  10  20  34  53  74  95 123 160 199 239 286
#     4   8  14  25  41  63  93 126 155 187 232 280
#     4   8  14  27  47  67  89 121 156 187 226 276
#     4  10  21  35  51  72  96 124 159 196 239 291
#
# _framework density 28.043876000000001
#
# number of rings (size 3 to 8) (size 9 to 14) (size 15 to 20)
#    0.000    3.000    0.000    2.500    0.000    3.333 
#    0.000    5.000    0.000    1.000    0.000    0.000 
#    0.000    0.000    0.000    0.000    0.000    1.500 
#
# Total GULP energy -268521.728939 kJ/mol
# GULP energy per Si atom -5594.202686 kJ/mol
# Density = 2.798005 g / cm^3
# Si number density = 28.043876 Si / 1000 Ang^3
#
#
#
# Elastic Constant Matrix: (Units=GPa)
#
#
# Indices 1 2 3 4 5 6 
#
# 1 217.3865 4.2920 27.0932 0.0000 0.0000 0.0000
# 2 4.2920 138.0647 13.2931 0.0000 0.0000 0.0000
# 3 27.0932 13.2931 93.2953 0.0000 0.0000 0.0000
# 4 0.0000 0.0000 0.0000 17.6730 0.0000 0.0000
# 5 0.0000 0.0000 0.0000 0.0000 60.7526 0.0000
# 6 0.0000 0.0000 0.0000 0.0000 0.0000 20.4858
#
#
#
# Elastic Compliance Matrix: (Units=1/GPa)
#
#
# Indices 1 2 3 4 5 6 
#
# 1 0.004773 -0.000015 -0.001384 0.000000 0.000000 0.000000
# 2 -0.000015 0.007344 -0.001042 0.000000 0.000000 0.000000
# 3 -0.001384 -0.001042 0.011269 0.000000 0.000000 0.000000
# 4 0.000000 0.000000 0.000000 0.056583 0.000000 0.000000
# 5 0.000000 0.000000 0.000000 0.000000 0.016460 0.000000
# 6 0.000000 0.000000 0.000000 0.000000 0.000000 0.048814
#
#
# Mechanical properties :
#
#
# Convention : Reuss Voigt Hill
#
# Bulk Modulus (GPa) = 54.04340 59.78924 56.91632
# Shear Modulus (GPa) = 31.99111 46.72016 39.35564
#
# Velocity S-wave (km/s) = 3.38117 4.08605 3.75021
# Velocity P-wave (km/s) = 5.87843 6.60510 6.25233
#
# Compressibility (1/GPa) = 0.01850365
#
# Stress axis : x y z
#
# Youngs Moduli (GPa) = 209.51724 136.16974 88.73893
#
# Poissons Ratio (x) = 0.00206 0.12281
# Poissons Ratio (y) = 0.00317 0.09246
# Poissons Ratio (z) = 0.28995 0.14189
#
# Static dielectric constant tensor:
#      x y z
#    x 2.147440 0.000000 0.000000 
#    y 0.000000 1.993420 0.000000 
#    z 0.000000 0.000000 2.358960 
# 
# From -- ./inp_files/10266.got.cif
#   From: 2010.05.17/outbox.cif.g08.bks.cpg/sg62_6_cif.got.tgz:10266.got - 2010.06.03 15:25:27.
