data_PCOD9464070
_publ_section_title
;
Structure prediction by ZEFSAII (Michael W. Deem and Ramdas Pophale) SiO2 
 PCOD9464070
Probable space group: P N M A
;
_chemical_formula_sum "Si O2"
_cell_formula_units_Z 48
_cell_length_a 30.980561
_cell_length_b 8.919981
_cell_length_c 10.034972
_cell_angle_alpha 90.000000
_cell_angle_beta 90.000000
_cell_angle_gamma 90.000000
_cell_volume 2773.124528
_symmetry_space_group_name_H-M "P N M A"
_symmetry_group_IT_number 62
_symmetry_cell_setting 'orthorhombic'
loop_
_space_group_symop_operation_xyz
x,y,z
1/2-x,-y,1/2+z
1/2+x,1/2-y,1/2-z
-x,1/2+y,-z
-x,-y,-z
1/2+x,y,1/2-z
1/2-x,1/2+y,1/2+z
x,1/2-y,z
loop_
_atom_site_type_symbol
_atom_site_label
_atom_site_fract_x
_atom_site_fract_y
_atom_site_fract_z
Si Si1 0.283806 0.429332 0.150066
Si Si2 0.946823 0.429052 0.139347
Si Si3 0.788168 0.428970 0.661956
Si Si4 0.880326 0.929661 0.642991
Si Si5 0.546125 0.069909 0.351489
Si Si6 0.376554 0.929130 0.166909
O O1 0.285676 0.250000 0.162990
O O2 0.245711 0.494999 0.239487
O O3 0.329559 0.500110 0.192201
O O4 0.277649 0.465265 0.993012
O O5 0.941906 0.250000 0.142320
O O6 0.912252 0.504462 0.235524
O O7 0.996241 0.466454 0.180272
O O8 0.941867 0.489169 0.989029
O O9 0.786786 0.250000 0.677278
O O10 0.836469 0.488968 0.686447
O O11 0.873830 0.750000 0.653348
O O12 0.920737 0.970981 0.734973
O O13 0.887837 0.964373 0.487335
O O14 0.548429 0.250000 0.371674
O O15 0.374191 0.750000 0.181392
#
# Coordination Sequence:
#
# PCOD9464070 Si02
#       6
#     8   8   8   8   8   8
#     4  10  21  37  56  78 105 137 173 213 257 307
#     4  10  20  34  53  78 107 139 175 215 260 310
#     4  10  21  36  55  80 107 136 172 214 260 309
#     4   9  19  36  56  77 103 137 175 215 260 308
#     4   9  19  36  55  76 105 139 176 218 261 307
#     4  10  20  35  55  78 105 137 173 214 260 309
#
# _framework density 17.308996
#
# number of rings (size 3 to 8) (size 9 to 14) (size 15 to 20)
#    0.000    2.333    0.000    2.000    0.000    6.000 
#    0.000    1.667    0.000    0.000    0.000    0.000 
#    0.000    0.000    0.000    0.000    0.000    0.000 
#
# Total GULP energy -267925.611951 kJ/mol
# GULP energy per Si atom -5581.783582 kJ/mol
# Density = 1.726960 g / cm^3
# Si number density = 17.308996 Si / 1000 Ang^3
#
#
#
# Elastic Constant Matrix: (Units=GPa)
#
#
# Indices 1 2 3 4 5 6 
#
# 1 -490.5878 -255.8922 -405.3944 0.0000 0.0000 0.0000
# 2 -255.8922 -108.9603 -203.4879 0.0000 0.0000 0.0000
# 3 -405.3944 -203.4879 -316.6862 0.0000 0.0000 0.0000
# 4 0.0000 0.0000 0.0000 27.1093 0.0000 0.0000
# 5 0.0000 0.0000 0.0000 0.0000 43.6882 0.0000
# 6 0.0000 0.0000 0.0000 0.0000 0.0000 1.0516
#
#
#
# Elastic Compliance Matrix: (Units=1/GPa)
#
#
# Indices 1 2 3 4 5 6 
#
# 1 0.036504 -0.007698 -0.041783 0.000000 0.000000 0.000000
# 2 -0.007698 0.047513 -0.020675 0.000000 0.000000 0.000000
# 3 -0.041783 -0.020675 0.063614 0.000000 0.000000 0.000000
# 4 0.000000 0.000000 0.000000 0.036888 0.000000 0.000000
# 5 0.000000 0.000000 0.000000 0.000000 0.022889 0.000000
# 6 0.000000 0.000000 0.000000 0.000000 0.000000 0.950897
#
#
# Mechanical properties :
#
#
# Convention : Reuss Voigt Hill
#
# Bulk Modulus (GPa) = 136.63626 -293.97593 -78.66983
# Shear Modulus (GPa) = 3.84303 10.93917 7.39110
#
# Velocity S-wave (km/s) = 1.49167 2.51668 2.06866
# Velocity P-wave (km/s) = 9.05967 12.71864 6.31214
#
# Compressibility (1/GPa) = 0.00731870
#
# Stress axis : x y z
#
# Youngs Moduli (GPa) = 27.39405 21.04709 15.71978
#
# Poissons Ratio (x) = 0.16202 0.65682
# Poissons Ratio (y) = 0.21088 0.32500
# Poissons Ratio (z) = 1.14461 0.43514
#
# Static dielectric constant tensor:
#      x y z
#    x 1.557990 0.000000 0.000000 
#    y 0.000000 1.575370 0.000000 
#    z 0.000000 0.000000 1.565600 
# 
# From -- ./inp_files/10173.got.cif
#   From: 2010.05.17/outbox.cif.g08.bks.cpg/sg62_6_cif.got.tgz:10173.got - 2010.06.03 15:25:27.
