data_PCOD9464345
_publ_section_title
;
Structure prediction by ZEFSAII (Michael W. Deem and Ramdas Pophale) SiO2 
 PCOD9464345
Probable space group: P N M A
;
_chemical_formula_sum "Si O2"
_cell_formula_units_Z 64
_cell_length_a 16.168420
_cell_length_b 7.898454
_cell_length_c 22.713244
_cell_angle_alpha 90.000000
_cell_angle_beta 90.000000
_cell_angle_gamma 90.000000
_cell_volume 2900.606673
_symmetry_space_group_name_H-M "P N M A"
_symmetry_group_IT_number 62
_symmetry_cell_setting 'orthorhombic'
loop_
_space_group_symop_operation_xyz
x,y,z
1/2-x,-y,1/2+z
1/2+x,1/2-y,1/2-z
-x,1/2+y,-z
-x,-y,-z
1/2+x,y,1/2-z
1/2-x,1/2+y,1/2+z
x,1/2-y,z
loop_
_atom_site_type_symbol
_atom_site_label
_atom_site_fract_x
_atom_site_fract_y
_atom_site_fract_z
Si Si1 0.423288 0.454405 0.542380
Si Si2 0.713478 0.447301 0.793091
Si Si3 0.094540 0.437710 0.500019
Si Si4 0.730030 0.957554 0.536746
Si Si5 0.570952 0.047213 0.195620
Si Si6 0.919172 0.443330 0.378397
Si Si7 0.257733 0.454708 0.332892
Si Si8 0.900802 0.453399 0.824526
O O1 0.500000 0.500000 0.500000
O O2 0.419773 0.250000 0.544648
O O3 0.337989 0.513508 0.510760
O O4 0.428787 0.514992 0.610650
O O5 0.706122 0.250000 0.808826
O O6 0.646844 0.554141 0.827113
O O7 0.699211 0.468787 0.723820
O O8 0.805623 0.505412 0.811446
O O9 0.092038 0.250000 0.474426
O O10 0.175805 0.522005 0.472183
O O11 0.114265 0.443786 0.569043
O O12 0.000000 0.500000 0.500000
O O13 0.732950 0.750000 0.532985
O O14 0.706912 0.002426 0.603676
O O15 0.568961 0.250000 0.191815
O O16 0.503357 0.985696 0.149248
O O17 0.661890 0.990656 0.175494
O O18 0.553577 0.003382 0.263845
O O19 0.929841 0.250000 0.399696
O O20 0.259583 0.250000 0.328719
O O21 0.902332 0.250000 0.826345
#
# Coordination Sequence:
#
# PCOD9464345 Si02
#       8
#     8   8   8   8   8   8   8   8
#     4  10  21  38  57  79 106 142 186 232 277 327
#     4  10  20  35  55  80 108 141 178 223 275 328
#     4  11  22  38  60  87 118 153 189 230 280 341
#     4   9  19  37  60  80 110 154 190 221 273 339
#     4   9  19  34  54  78 106 138 176 221 270 323
#     4  11  22  36  54  81 113 145 183 227 273 330
#     4   9  17  34  57  79 103 138 181 222 265 323
#     4   9  19  36  56  76 104 139 179 224 276 331
#
# _framework density 22.064349
#
# number of rings (size 3 to 8) (size 9 to 14) (size 15 to 20)
#    0.000    2.250    0.000    2.625    0.000    7.000 
#    0.000   10.625    0.000    0.000    0.000    0.000 
#    0.000    0.000    0.000    0.000    0.000    0.000 
#
# Total GULP energy -357079.005456 kJ/mol
# GULP energy per Si atom -5579.359460 kJ/mol
# Density = 2.201413 g / cm^3
# Si number density = 22.064349 Si / 1000 Ang^3
#
#
#
# Elastic Constant Matrix: (Units=GPa)
#
#
# Indices 1 2 3 4 5 6 
#
# 1 32.9282 2.3054 -7.7413 0.0000 0.0000 0.0000
# 2 2.3054 23.7804 0.7402 0.0000 0.0000 0.0000
# 3 -7.7413 0.7402 105.6692 0.0000 0.0000 0.0000
# 4 0.0000 0.0000 0.0000 24.5687 0.0000 0.0000
# 5 0.0000 0.0000 0.0000 0.0000 35.5516 0.0000
# 6 0.0000 0.0000 0.0000 0.0000 0.0000 19.5027
#
#
#
# Elastic Compliance Matrix: (Units=1/GPa)
#
#
# Indices 1 2 3 4 5 6 
#
# 1 0.031127 -0.003089 0.002302 0.000000 0.000000 0.000000
# 2 -0.003089 0.042367 -0.000523 0.000000 0.000000 0.000000
# 3 0.002302 -0.000523 0.009636 0.000000 0.000000 0.000000
# 4 0.000000 0.000000 0.000000 0.040702 0.000000 0.000000
# 5 0.000000 0.000000 0.000000 0.000000 0.028128 0.000000
# 6 0.000000 0.000000 0.000000 0.000000 0.000000 0.051275
#
#
# Mechanical properties :
#
#
# Convention : Reuss Voigt Hill
#
# Bulk Modulus (GPa) = 12.42100 16.99849 14.70975
# Shear Modulus (GPa) = 21.48762 27.06282 24.27522
#
# Velocity S-wave (km/s) = 3.12406 3.50600 3.32053
# Velocity P-wave (km/s) = 4.31911 4.91021 4.62411
#
# Compressibility (1/GPa) = 0.08050881
#
# Stress axis : x y z
#
# Youngs Moduli (GPa) = 32.12689 23.60312 103.77960
#
# Poissons Ratio (x) = 0.07292 -0.23890
# Poissons Ratio (y) = 0.09925 0.05429
# Poissons Ratio (z) = -0.07396 0.01235
#
# Static dielectric constant tensor:
#      x y z
#    x 1.827670 0.000000 0.000000 
#    y 0.000000 1.843250 0.000000 
#    z 0.000000 0.000000 1.819270 
# 
# From -- ./inp_files/27716.got.cif
#   From: 2010.05.17/outbox.cif.g08.bks.cpg/sg62_14_cif.got.tgz:27716.got - 2010.06.03 15:25:27.
