data_PCOD9464239
_publ_section_title
;
Structure prediction by ZEFSAII (Michael W. Deem and Ramdas Pophale) SiO2 
 PCOD9464239
Probable space group: P N M A
;
_chemical_formula_sum "Si O2"
_cell_formula_units_Z 40
_cell_length_a 21.402163
_cell_length_b 8.787987
_cell_length_c 10.554876
_cell_angle_alpha 90.000000
_cell_angle_beta 90.000000
_cell_angle_gamma 90.000000
_cell_volume 1985.181451
_symmetry_space_group_name_H-M "P N M A"
_symmetry_group_IT_number 62
_symmetry_cell_setting 'orthorhombic'
loop_
_space_group_symop_operation_xyz
x,y,z
1/2-x,-y,1/2+z
1/2+x,1/2-y,1/2-z
-x,1/2+y,-z
-x,-y,-z
1/2+x,y,1/2-z
1/2-x,1/2+y,1/2+z
x,1/2-y,z
loop_
_atom_site_type_symbol
_atom_site_label
_atom_site_fract_x
_atom_site_fract_y
_atom_site_fract_z
Si Si1 0.954116 0.930262 0.315078
Si Si2 0.697712 0.933524 0.463548
Si Si3 0.279939 0.932868 0.799019
Si Si4 0.082952 0.067790 0.400507
Si Si5 0.435495 0.068546 0.450047
O O1 0.950782 0.750000 0.292374
O O2 0.920999 0.964793 0.449043
O O3 0.927028 0.018180 0.195316
O O4 0.026095 0.980602 0.334238
O O5 0.699501 0.750000 0.459704
O O6 0.732363 0.982932 0.591782
O O7 0.625288 0.982690 0.471404
O O8 0.730135 0.996369 0.338275
O O9 0.276323 0.750000 0.789676
O O10 0.349971 0.972636 0.844736
O O11 0.073087 0.250000 0.385360
O O12 0.439254 0.250000 0.457417
O O13 0.500000 0.000000 0.500000
#
# Coordination Sequence:
#
# PCOD9464239 Si02
#       5
#     8   8   8   8   8
#     4  10  20  34  57  89 118 152 196 242 295 349
#     4  10  24  42  61  89 122 156 199 248 297 354
#     4  10  22  41  62  86 118 156 199 243 294 355
#     4   9  19  36  58  84 118 156 194 240 291 351
#     4  11  23  39  59  85 119 155 198 248 297 352
#
# _framework density 20.149293
#
# number of rings (size 3 to 8) (size 9 to 14) (size 15 to 20)
#    0.000    2.000    0.000    2.400    2.800    7.200 
#    0.000    0.000    0.000    0.000    0.000    0.000 
#    0.000    0.000    0.000    0.000    0.000    0.000 
#
# Total GULP energy -223584.669994 kJ/mol
# GULP energy per Si atom -5589.616750 kJ/mol
# Density = 2.010343 g / cm^3
# Si number density = 20.149293 Si / 1000 Ang^3
#
#
#
# Elastic Constant Matrix: (Units=GPa)
#
#
# Indices 1 2 3 4 5 6 
#
# 1 69.4796 19.1958 52.2901 0.0000 0.0000 0.0000
# 2 19.1958 17.7179 23.6856 0.0000 0.0000 0.0000
# 3 52.2901 23.6856 120.5403 0.0000 0.0000 0.0000
# 4 0.0000 0.0000 0.0000 39.3480 0.0000 0.0000
# 5 0.0000 0.0000 0.0000 0.0000 30.1723 0.0000
# 6 0.0000 0.0000 0.0000 0.0000 0.0000 20.1401
#
#
#
# Elastic Compliance Matrix: (Units=1/GPa)
#
#
# Indices 1 2 3 4 5 6 
#
# 1 0.024567 -0.016777 -0.007361 0.000000 0.000000 0.000000
# 2 -0.016777 0.088004 -0.010015 0.000000 0.000000 0.000000
# 3 -0.007361 -0.010015 0.013457 0.000000 0.000000 0.000000
# 4 0.000000 0.000000 0.000000 0.025414 0.000000 0.000000
# 5 0.000000 0.000000 0.000000 0.000000 0.033143 0.000000
# 6 0.000000 0.000000 0.000000 0.000000 0.000000 0.049652
#
#
# Mechanical properties :
#
#
# Convention : Reuss Voigt Hill
#
# Bulk Modulus (GPa) = 17.32382 44.23124 30.77753
# Shear Modulus (GPa) = 15.53840 25.43650 20.48745
#
# Velocity S-wave (km/s) = 2.78000 3.55688 3.19216
# Velocity P-wave (km/s) = 4.34982 6.23442 5.37535
#
# Compressibility (1/GPa) = 0.05772399
#
# Stress axis : x y z
#
# Youngs Moduli (GPa) = 40.70422 11.36312 74.31133
#
# Poissons Ratio (x) = 0.19064 0.54699
# Poissons Ratio (y) = 0.68288 0.74420
# Poissons Ratio (z) = 0.29961 0.11380
#
# Static dielectric constant tensor:
#      x y z
#    x 1.709740 0.000000 0.000000 
#    y 0.000000 1.678070 0.000000 
#    z 0.000000 0.000000 1.710830 
# 
# From -- ./inp_files/9114.got.cif
#   From: 2010.05.17/outbox.cif.g08.bks.cpg/sg62_5_cif.got.tgz:9114.got - 2010.06.03 15:25:27.
