data_PCOD9464327
_publ_section_title
;
Structure prediction by ZEFSAII (Michael W. Deem and Ramdas Pophale) SiO2 
 PCOD9464327
Probable space group: P N M A
;
_chemical_formula_sum "Si O2"
_cell_formula_units_Z 60
_cell_length_a 5.437247
_cell_length_b 24.765381
_cell_length_c 22.802524
_cell_angle_alpha 90.000000
_cell_angle_beta 90.000000
_cell_angle_gamma 90.000000
_cell_volume 3070.485123
_symmetry_space_group_name_H-M "P N M A"
_symmetry_group_IT_number 62
_symmetry_cell_setting 'orthorhombic'
loop_
_space_group_symop_operation_xyz
x,y,z
1/2-x,-y,1/2+z
1/2+x,1/2-y,1/2-z
-x,1/2+y,-z
-x,-y,-z
1/2+x,y,1/2-z
1/2-x,1/2+y,1/2+z
x,1/2-y,z
loop_
_atom_site_type_symbol
_atom_site_label
_atom_site_fract_x
_atom_site_fract_y
_atom_site_fract_z
Si Si1 0.613610 0.688864 0.491073
Si Si2 0.647379 0.647280 0.624345
Si Si3 0.944436 0.189163 0.786607
Si Si4 0.176308 0.978435 0.051936
Si Si5 0.092907 0.113124 0.889644
Si Si6 0.527269 0.619228 0.030910
Si Si7 0.168163 0.750000 0.788793
Si Si8 0.342948 0.409361 0.096386
O O1 0.536095 0.750000 0.484505
O O2 0.622154 0.672872 0.559194
O O3 0.466159 0.650691 0.446514
O O4 0.890943 0.676270 0.470096
O O5 0.665282 0.696230 0.670489
O O6 0.397073 0.612309 0.631066
O O7 0.898165 0.611459 0.622977
O O8 0.673584 0.184698 0.758587
O O9 0.962544 0.250000 0.812318
O O10 0.994943 0.143610 0.834173
O O11 0.345929 0.932481 0.023111
O O12 0.017777 0.945263 0.098994
O O13 0.317051 0.026924 0.083773
O O14 0.000000 0.000000 0.000000
O O15 0.380426 0.109213 0.902721
O O16 0.671356 0.615133 0.969563
O O17 0.419427 0.750000 0.750519
#
# Coordination Sequence:
#
# PCOD9464327 Si02
#       8
#     8   8   8   8   8   8   4   8
#     4  10  20  35  54  90 135 164 200 268 336 391
#     4  11  23  41  63  96 125 163 215 263 327 393
#     4  10  24  45  66  87 123 174 227 276 324 382
#     4  11  21  36  58  93 136 177 210 257 328 410
#     4  11  22  37  61  94 126 172 220 269 331 397
#     4  10  21  33  55  91 131 173 211 249 323 406
#     4  12  26  48  74  96 126 178 222 270 326 406
#     4  11  21  38  60  92 133 170 202 260 321 391
#
# _framework density 19.540883999999998
#
# number of rings (size 3 to 8) (size 9 to 14) (size 15 to 20)
#    0.000    1.333    3.333    3.200    5.600    1.067 
#    1.200    0.000    0.000    4.800    0.000    0.000 
#    0.000    0.000    0.000    0.000    0.000    0.000 
#
# Total GULP energy -334203.140391 kJ/mol
# GULP energy per Si atom -5570.052340 kJ/mol
# Density = 1.949641 g / cm^3
# Si number density = 19.540884 Si / 1000 Ang^3
#
#
#
# Elastic Constant Matrix: (Units=GPa)
#
#
# Indices 1 2 3 4 5 6 
#
# 1 73.6706 21.3649 13.8975 0.0000 0.0000 0.0000
# 2 21.3649 74.6136 18.3469 0.0000 0.0000 0.0000
# 3 13.8975 18.3469 42.3582 0.0000 0.0000 0.0000
# 4 0.0000 0.0000 0.0000 37.1010 0.0000 0.0000
# 5 0.0000 0.0000 0.0000 0.0000 20.4110 0.0000
# 6 0.0000 0.0000 0.0000 0.0000 0.0000 19.6865
#
#
#
# Elastic Compliance Matrix: (Units=1/GPa)
#
#
# Indices 1 2 3 4 5 6 
#
# 1 0.015249 -0.003510 -0.003483 0.000000 0.000000 0.000000
# 2 -0.003510 0.015808 -0.005695 0.000000 0.000000 0.000000
# 3 -0.003483 -0.005695 0.027218 0.000000 0.000000 0.000000
# 4 0.000000 0.000000 0.000000 0.026953 0.000000 0.000000
# 5 0.000000 0.000000 0.000000 0.000000 0.048993 0.000000
# 6 0.000000 0.000000 0.000000 0.000000 0.000000 0.050796
#
#
# Mechanical properties :
#
#
# Convention : Reuss Voigt Hill
#
# Bulk Modulus (GPa) = 30.39678 33.09567 31.74623
# Shear Modulus (GPa) = 22.58767 24.57524 23.58145
#
# Velocity S-wave (km/s) = 3.40357 3.55016 3.47764
# Velocity P-wave (km/s) = 5.57090 5.81190 5.69268
#
# Compressibility (1/GPa) = 0.03289822
#
# Stress axis : x y z
#
# Youngs Moduli (GPa) = 65.57870 63.25955 36.74075
#
# Poissons Ratio (x) = 0.22204 0.12796
# Poissons Ratio (y) = 0.23018 0.20925
# Poissons Ratio (z) = 0.22840 0.36029
#
# Static dielectric constant tensor:
#      x y z
#    x 3.157060 0.000000 0.000000 
#    y 0.000000 1.627990 0.000000 
#    z 0.000000 0.000000 1.672660 
# 
# From -- ./inp_files/25424.got.cif
#   From: 2010.05.17/outbox.cif.g08.bks.cpg/sg62_13_cif.got.tgz:25424.got - 2010.06.03 15:25:27.
