data_PCOD9464690
_publ_section_title
;
Structure prediction by ZEFSAII (Michael W. Deem and Ramdas Pophale) SiO2 
 PCOD9464690
Probable space group: P N M A
;
_chemical_formula_sum "Si O2"
_cell_formula_units_Z 48
_cell_length_a 20.174381
_cell_length_b 8.836822
_cell_length_c 15.425626
_cell_angle_alpha 90.000000
_cell_angle_beta 90.000000
_cell_angle_gamma 90.000000
_cell_volume 2750.040710
_symmetry_space_group_name_H-M "P N M A"
_symmetry_group_IT_number 62
_symmetry_cell_setting 'orthorhombic'
loop_
_space_group_symop_operation_xyz
x,y,z
1/2-x,-y,1/2+z
1/2+x,1/2-y,1/2-z
-x,1/2+y,-z
-x,-y,-z
1/2+x,y,1/2-z
1/2-x,1/2+y,1/2+z
x,1/2-y,z
loop_
_atom_site_type_symbol
_atom_site_label
_atom_site_fract_x
_atom_site_fract_y
_atom_site_fract_z
Si Si1 0.056834 0.068092 0.938563
Si Si2 0.687178 0.432115 0.116503
Si Si3 0.513744 0.931074 0.263815
Si Si4 0.193363 0.566562 0.007965
Si Si5 0.832685 0.068721 0.798251
Si Si6 0.464179 0.569057 0.917191
O O1 0.056317 0.250000 0.946079
O O2 0.037036 0.028540 0.839841
O O3 0.127127 0.002206 0.966879
O O4 0.000000 0.000000 0.000000
O O5 0.687510 0.250000 0.120602
O O6 0.698528 0.495243 0.212938
O O7 0.613195 0.479576 0.087745
O O8 0.743020 0.479552 0.048229
O O9 0.511191 0.750000 0.250517
O O10 0.588534 0.967905 0.296210
O O11 0.503703 0.012692 0.172612
O O12 0.188287 0.750000 0.006100
O O13 0.196490 0.521210 0.109116
O O14 0.826736 0.250000 0.791288
O O15 0.466300 0.750000 0.921481
O O16 0.500000 0.500000 0.000000
#
# Coordination Sequence:
#
# PCOD9464690 Si02
#       6
#     8   8   8   8   8   8
#     4  11  21  34  55  84 114 144 181 223 272 328
#     4   9  20  37  56  78 108 143 181 225 271 324
#     4   9  18  34  54  78 106 139 178 220 264 320
#     4  10  20  37  56  78 111 146 180 226 279 326
#     4   9  17  33  56  76 102 142 181 217 266 323
#     4  10  20  36  58  82 107 142 183 226 274 322
#
# _framework density 17.454287000000001
#
# number of rings (size 3 to 8) (size 9 to 14) (size 15 to 20)
#    0.000    2.333    1.667    1.000    0.000    3.333 
#    3.000    0.000    0.000    0.000    0.000    0.000 
#    0.000    0.000    0.000    0.000    0.000    0.000 
#
# Total GULP energy -267797.366597 kJ/mol
# GULP energy per Si atom -5579.111804 kJ/mol
# Density = 1.741456 g / cm^3
# Si number density = 17.454287 Si / 1000 Ang^3
#
#
#
# Elastic Constant Matrix: (Units=GPa)
#
#
# Indices 1 2 3 4 5 6 
#
# 1 82.4208 27.3073 90.7254 0.0000 0.0000 0.0000
# 2 27.3073 21.5320 49.4844 0.0000 0.0000 0.0000
# 3 90.7254 49.4844 200.8381 0.0000 0.0000 0.0000
# 4 0.0000 0.0000 0.0000 34.6073 0.0000 0.0000
# 5 0.0000 0.0000 0.0000 0.0000 34.8207 0.0000
# 6 0.0000 0.0000 0.0000 0.0000 0.0000 22.3054
#
#
#
# Elastic Compliance Matrix: (Units=1/GPa)
#
#
# Indices 1 2 3 4 5 6 
#
# 1 0.025767 -0.013666 -0.008272 0.000000 0.000000 0.000000
# 2 -0.013666 0.114320 -0.021994 0.000000 0.000000 0.000000
# 3 -0.008272 -0.021994 0.014135 0.000000 0.000000 0.000000
# 4 0.000000 0.000000 0.000000 0.028896 0.000000 0.000000
# 5 0.000000 0.000000 0.000000 0.000000 0.028719 0.000000
# 6 0.000000 0.000000 0.000000 0.000000 0.000000 0.044832
#
#
# Mechanical properties :
#
#
# Convention : Reuss Voigt Hill
#
# Bulk Modulus (GPa) = 15.07006 71.09168 43.08087
# Shear Modulus (GPa) = 13.63692 27.49826 20.56759
#
# Velocity S-wave (km/s) = 2.79820 3.97349 3.43646
# Velocity P-wave (km/s) = 4.36951 7.86576 6.36250
#
# Compressibility (1/GPa) = 0.06635674
#
# Stress axis : x y z
#
# Youngs Moduli (GPa) = 38.80974 8.74740 70.74587
#
# Poissons Ratio (x) = 0.11954 0.58524
# Poissons Ratio (y) = 0.53038 1.55596
# Poissons Ratio (z) = 0.32105 0.19239
#
# Static dielectric constant tensor:
#      x y z
#    x 1.577630 0.000000 0.000000 
#    y 0.000000 1.589570 0.000000 
#    z 0.000000 0.000000 1.582490 
# 
# From -- ./inp_files/15092.got.cif
#   From: 2010.05.17/outbox.cif.g08.bks.cpg/sg62_8_cif.got.tgz:15092.got - 2010.06.03 15:25:27.
