data_PCOD9464660
_publ_section_title
;
Structure prediction by ZEFSAII (Michael W. Deem and Ramdas Pophale) SiO2 
 PCOD9464660
Probable space group: P N M A
;
_chemical_formula_sum "Si O2"
_cell_formula_units_Z 56
_cell_length_a 22.277191
_cell_length_b 8.999973
_cell_length_c 14.744689
_cell_angle_alpha 90.000000
_cell_angle_beta 90.000000
_cell_angle_gamma 90.000000
_cell_volume 2956.223409
_symmetry_space_group_name_H-M "P N M A"
_symmetry_group_IT_number 62
_symmetry_cell_setting 'orthorhombic'
loop_
_space_group_symop_operation_xyz
x,y,z
1/2-x,-y,1/2+z
1/2+x,1/2-y,1/2-z
-x,1/2+y,-z
-x,-y,-z
1/2+x,y,1/2-z
1/2-x,1/2+y,1/2+z
x,1/2-y,z
loop_
_atom_site_type_symbol
_atom_site_label
_atom_site_fract_x
_atom_site_fract_y
_atom_site_fract_z
Si Si1 0.783505 0.076179 0.394708
Si Si2 0.498433 0.928484 0.098544
Si Si3 0.609935 0.928617 0.225219
Si Si4 0.641010 0.426338 0.408006
Si Si5 0.883965 0.573341 0.279934
Si Si6 0.276405 0.073596 0.897069
Si Si7 0.353224 0.073330 0.401359
O O1 0.793859 0.250000 0.372769
O O2 0.712326 0.047343 0.390436
O O3 0.800478 0.051987 0.500313
O O4 0.822522 0.976104 0.328720
O O5 0.499883 0.750000 0.088687
O O6 0.555748 0.971883 0.159030
O O7 0.438246 0.967960 0.153214
O O8 0.500000 0.000000 0.000000
O O9 0.608180 0.750000 0.237257
O O10 0.672604 0.964939 0.175000
O O11 0.607039 0.007201 0.321994
O O12 0.632531 0.250000 0.416221
O O13 0.626290 0.504768 0.502906
O O14 0.884421 0.750000 0.265840
O O15 0.888815 0.491787 0.183957
O O16 0.261721 0.250000 0.889230
O O17 0.215671 0.981061 0.887457
O O18 0.355792 0.250000 0.403956
#
# Coordination Sequence:
#
# PCOD9464660 Si02
#       7
#     8   8   8   8   8   8   8
#     4   9  18  33  54  82 114 146 180 221 271 325
#     4  10  23  41  60  83 112 145 182 225 268 316
#     4  10  20  36  57  81 110 145 184 225 272 322
#     4  10  21  37  56  81 112 143 179 225 275 327
#     4  11  22  36  55  80 111 147 185 225 270 319
#     4   9  18  33  55  82 113 146 179 222 273 324
#     4  11  22  36  56  81 110 144 182 225 272 325
#
# _framework density 18.943087999999999
#
# number of rings (size 3 to 8) (size 9 to 14) (size 15 to 20)
#    0.000    2.000    0.000    4.714    0.000    8.571 
#    0.000    0.714    0.000    0.000    0.000    0.000 
#    0.000    0.000    0.000    0.000    0.000    0.000 
#
# Total GULP energy -312925.345240 kJ/mol
# GULP energy per Si atom -5587.952594 kJ/mol
# Density = 1.889997 g / cm^3
# Si number density = 18.943088 Si / 1000 Ang^3
#
#
#
# Elastic Constant Matrix: (Units=GPa)
#
#
# Indices 1 2 3 4 5 6 
#
# 1 36.9056 35.6047 60.9798 0.0000 0.0000 0.0000
# 2 35.6047 65.9949 79.2680 0.0000 0.0000 0.0000
# 3 60.9798 79.2680 185.2776 0.0000 0.0000 0.0000
# 4 0.0000 0.0000 0.0000 38.5255 0.0000 0.0000
# 5 0.0000 0.0000 0.0000 0.0000 28.0306 0.0000
# 6 0.0000 0.0000 0.0000 0.0000 0.0000 17.8402
#
#
#
# Elastic Compliance Matrix: (Units=1/GPa)
#
#
# Indices 1 2 3 4 5 6 
#
# 1 0.071361 -0.021166 -0.014431 0.000000 0.000000 0.000000
# 2 -0.021166 0.037449 -0.009055 0.000000 0.000000 0.000000
# 3 -0.014431 -0.009055 0.014021 0.000000 0.000000 0.000000
# 4 0.000000 0.000000 0.000000 0.025957 0.000000 0.000000
# 5 0.000000 0.000000 0.000000 0.000000 0.035675 0.000000
# 6 0.000000 0.000000 0.000000 0.000000 0.000000 0.056053
#
#
# Mechanical properties :
#
#
# Convention : Reuss Voigt Hill
#
# Bulk Modulus (GPa) = 29.82810 71.09813 50.46312
# Shear Modulus (GPa) = 14.66289 24.36765 19.51527
#
# Velocity S-wave (km/s) = 2.78519 3.59048 3.21316
# Velocity P-wave (km/s) = 5.11111 7.40288 6.36106
#
# Compressibility (1/GPa) = 0.03352543
#
# Stress axis : x y z
#
# Youngs Moduli (GPa) = 14.01323 26.70325 71.32010
#
# Poissons Ratio (x) = 0.56520 1.02924
# Poissons Ratio (y) = 0.29660 0.64584
# Poissons Ratio (z) = 0.20223 0.24181
#
# Static dielectric constant tensor:
#      x y z
#    x 1.649500 0.000000 0.000000 
#    y 0.000000 1.631230 0.000000 
#    z 0.000000 0.000000 1.651800 
# 
# From -- ./inp_files/20407.got.cif
#   From: 2010.05.17/outbox.cif.g08.bks.cpg/sg62_11_cif.got.tgz:20407.got - 2010.06.03 15:25:27.
