data_PCOD9464246
_publ_section_title
;
Structure prediction by ZEFSAII (Michael W. Deem and Ramdas Pophale) SiO2 
 PCOD9464246
Probable space group: P N M A
;
_chemical_formula_sum "Si O2"
_cell_formula_units_Z 48
_cell_length_a 19.424240
_cell_length_b 13.981930
_cell_length_c 10.147027
_cell_angle_alpha 90.000000
_cell_angle_beta 90.000000
_cell_angle_gamma 90.000000
_cell_volume 2755.814462
_symmetry_space_group_name_H-M "P N M A"
_symmetry_group_IT_number 62
_symmetry_cell_setting 'orthorhombic'
loop_
_space_group_symop_operation_xyz
x,y,z
1/2-x,-y,1/2+z
1/2+x,1/2-y,1/2-z
-x,1/2+y,-z
-x,-y,-z
1/2+x,y,1/2-z
1/2-x,1/2+y,1/2+z
x,1/2-y,z
loop_
_atom_site_type_symbol
_atom_site_label
_atom_site_fract_x
_atom_site_fract_y
_atom_site_fract_z
Si Si1 0.612205 0.539755 0.049229
Si Si2 0.637054 0.862590 0.566939
Si Si3 0.026015 0.359815 0.483696
Si Si4 0.516402 0.140046 0.332390
Si Si5 0.285485 0.363887 0.158040
Si Si6 0.351382 0.986191 0.657259
O O1 0.542204 0.602385 0.055898
O O2 0.664674 0.589310 0.950176
O O3 0.587110 0.435818 0.996138
O O4 0.642787 0.525807 0.194168
O O5 0.643247 0.750000 0.534658
O O6 0.557303 0.881446 0.604428
O O7 0.681932 0.880879 0.697562
O O8 0.658535 0.929678 0.447362
O O9 0.042170 0.250000 0.516759
O O10 0.009758 0.364499 0.326823
O O11 0.534663 0.250000 0.364987
O O12 0.577088 0.068891 0.371272
O O13 0.282275 0.250000 0.138000
O O14 0.211062 0.411865 0.150293
#
# Coordination Sequence:
#
# PCOD9464246 Si02
#       6
#     8   8   8   8   8   8
#     4  10  20  34  58  85 108 145 186 230 272 322
#     4  10  21  37  57  79 109 148 182 222 276 333
#     4   9  17  33  58  85 110 141 187 232 271 320
#     4   9  17  34  58  82 108 145 187 222 265 326
#     4  11  22  39  59  78 109 151 188 220 273 340
#     4  11  22  35  55  86 113 140 180 236 275 317
#
# _framework density 17.417717
#
# number of rings (size 3 to 8) (size 9 to 14) (size 15 to 20)
#    0.000    2.000    1.667    2.500    0.000    2.000 
#    0.000    0.833    0.000    1.000    0.000    0.000 
#    0.000    0.000    0.000    0.000    0.000    0.000 
#
# Total GULP energy -267942.747128 kJ/mol
# GULP energy per Si atom -5582.140565 kJ/mol
# Density = 1.737807 g / cm^3
# Si number density = 17.417717 Si / 1000 Ang^3
#
#
#
# Elastic Constant Matrix: (Units=GPa)
#
#
# Indices 1 2 3 4 5 6 
#
# 1 78.0030 61.4754 36.6869 0.0000 0.0000 0.0000
# 2 61.4754 126.7666 62.6306 0.0000 0.0000 0.0000
# 3 36.6869 62.6306 60.7366 0.0000 0.0000 0.0000
# 4 0.0000 0.0000 0.0000 27.4267 0.0000 0.0000
# 5 0.0000 0.0000 0.0000 0.0000 6.3060 0.0000
# 6 0.0000 0.0000 0.0000 0.0000 0.0000 30.7945
#
#
#
# Elastic Compliance Matrix: (Units=1/GPa)
#
#
# Indices 1 2 3 4 5 6 
#
# 1 0.021344 -0.008116 -0.004523 0.000000 0.000000 0.000000
# 2 -0.008116 0.019168 -0.014863 0.000000 0.000000 0.000000
# 3 -0.004523 -0.014863 0.034524 0.000000 0.000000 0.000000
# 4 0.000000 0.000000 0.000000 0.036461 0.000000 0.000000
# 5 0.000000 0.000000 0.000000 0.000000 0.158580 0.000000
# 6 0.000000 0.000000 0.000000 0.000000 0.000000 0.032473
#
#
# Mechanical properties :
#
#
# Convention : Reuss Voigt Hill
#
# Bulk Modulus (GPa) = 49.92492 65.23245 57.57868
# Shear Modulus (GPa) = 13.72760 19.88632 16.80696
#
# Velocity S-wave (km/s) = 2.81043 3.38261 3.10971
# Velocity P-wave (km/s) = 6.26553 7.26562 6.78403
#
# Compressibility (1/GPa) = 0.02003008
#
# Stress axis : x y z
#
# Youngs Moduli (GPa) = 46.85230 52.17152 28.96577
#
# Poissons Ratio (x) = 0.42341 0.13103
# Poissons Ratio (y) = 0.38024 0.43052
# Poissons Ratio (z) = 0.21194 0.77543
#
# Static dielectric constant tensor:
#      x y z
#    x 1.579870 0.000000 0.000000 
#    y 0.000000 1.589090 0.000000 
#    z 0.000000 0.000000 1.562020 
# 
# From -- ./inp_files/7640.got.cif
#   From: 2010.05.17/outbox.cif.g08.bks.cpg/sg62_4_cif.got.tgz:7640.got - 2010.06.03 15:25:27.
