data_PCOD9464229
_publ_section_title
;
Structure prediction by ZEFSAII (Michael W. Deem and Ramdas Pophale) SiO2 
 PCOD9464229
Probable space group: P N M A
;
_chemical_formula_sum "Si O2"
_cell_formula_units_Z 64
_cell_length_a 19.350773
_cell_length_b 15.535179
_cell_length_c 11.625722
_cell_angle_alpha 90.000000
_cell_angle_beta 90.000000
_cell_angle_gamma 90.000000
_cell_volume 3494.898068
_symmetry_space_group_name_H-M "P N M A"
_symmetry_group_IT_number 62
_symmetry_cell_setting 'orthorhombic'
loop_
_space_group_symop_operation_xyz
x,y,z
1/2-x,-y,1/2+z
1/2+x,1/2-y,1/2-z
-x,1/2+y,-z
-x,-y,-z
1/2+x,y,1/2-z
1/2-x,1/2+y,1/2+z
x,1/2-y,z
loop_
_atom_site_type_symbol
_atom_site_label
_atom_site_fract_x
_atom_site_fract_y
_atom_site_fract_z
Si Si1 0.938498 0.982473 0.251349
Si Si2 0.936338 0.588262 0.816900
Si Si3 0.509274 0.347234 0.560681
Si Si4 0.203589 0.522466 0.862117
Si Si5 0.754090 0.846636 0.227575
Si Si6 0.821061 0.653678 0.658738
Si Si7 0.882273 0.846787 0.406134
Si Si8 0.860037 0.083890 0.899979
O O1 0.865045 0.022889 0.216325
O O2 0.997922 0.053658 0.254238
O O3 0.958030 0.916828 0.147318
O O4 0.931805 0.922632 0.363169
O O5 0.885216 0.646932 0.744725
O O6 0.892611 0.503693 0.850733
O O7 0.964023 0.631064 0.933477
O O8 0.528447 0.250000 0.593274
O O9 0.426569 0.359375 0.565764
O O10 0.230982 0.423990 0.861026
O O11 0.263275 0.583478 0.813367
O O12 0.183170 0.558057 0.987186
O O13 0.747519 0.750000 0.179460
O O14 0.819486 0.846684 0.314352
O O15 0.688040 0.870707 0.305714
O O16 0.791444 0.750000 0.659585
O O17 0.850546 0.636835 0.531084
O O18 0.912906 0.750000 0.405452
#
# Coordination Sequence:
#
# PCOD9464229 Si02
#       8
#     8   8   8   8   8   8   8   8
#     4  10  20  37  58  80 110 147 190 238 292 337
#     4  11  21  38  54  82 118 151 187 230 289 349
#     4  11  21  34  57  87 118 149 187 240 293 347
#     4  11  20  37  58  81 118 149 185 244 290 340
#     4  10  20  34  57  86 112 146 193 241 290 339
#     4  11  23  37  56  83 114 153 195 234 280 345
#     4   9  19  34  55  81 105 139 192 236 275 333
#     4  11  19  36  58  85 115 150 191 237 290 349
#
# _framework density 18.312407
#
# number of rings (size 3 to 8) (size 9 to 14) (size 15 to 20)
#    0.000    1.500    5.000    1.875    0.000    1.500 
#    0.000    0.000    0.000    0.000    0.000    0.875 
#    0.000    0.000    0.000    0.000    0.000    0.000 
#
# Total GULP energy -357227.396871 kJ/mol
# GULP energy per Si atom -5581.678076 kJ/mol
# Density = 1.827073 g / cm^3
# Si number density = 18.312407 Si / 1000 Ang^3
#
#
#
# Elastic Constant Matrix: (Units=GPa)
#
#
# Indices 1 2 3 4 5 6 
#
# 1 75.9990 26.7811 11.9997 0.0000 0.0000 0.0000
# 2 26.7811 68.9556 8.1043 0.0000 0.0000 0.0000
# 3 11.9997 8.1043 14.4795 0.0000 0.0000 0.0000
# 4 0.0000 0.0000 0.0000 17.9351 0.0000 0.0000
# 5 0.0000 0.0000 0.0000 0.0000 17.7000 0.0000
# 6 0.0000 0.0000 0.0000 0.0000 0.0000 9.7309
#
#
#
# Elastic Compliance Matrix: (Units=1/GPa)
#
#
# Indices 1 2 3 4 5 6 
#
# 1 0.016721 -0.005208 -0.010942 0.000000 0.000000 0.000000
# 2 -0.005208 0.017145 -0.005280 0.000000 0.000000 0.000000
# 3 -0.010942 -0.005280 0.081087 0.000000 0.000000 0.000000
# 4 0.000000 0.000000 0.000000 0.055756 0.000000 0.000000
# 5 0.000000 0.000000 0.000000 0.000000 0.056497 0.000000
# 6 0.000000 0.000000 0.000000 0.000000 0.000000 0.102765
#
#
# Mechanical properties :
#
#
# Convention : Reuss Voigt Hill
#
# Bulk Modulus (GPa) = 13.87118 28.13379 21.00249
# Shear Modulus (GPa) = 12.59877 16.57649 14.58763
#
# Velocity S-wave (km/s) = 2.62580 3.01193 2.82547
# Velocity P-wave (km/s) = 4.09687 5.24330 4.70513
#
# Compressibility (1/GPa) = 0.07209190
#
# Stress axis : x y z
#
# Youngs Moduli (GPa) = 59.80484 58.32473 12.33247
#
# Poissons Ratio (x) = 0.30376 0.13495
# Poissons Ratio (y) = 0.31147 0.06512
# Poissons Ratio (z) = 0.65440 0.30797
#
# Static dielectric constant tensor:
#      x y z
#    x 1.635670 0.000000 0.000000 
#    y 0.000000 1.639410 0.000000 
#    z 0.000000 0.000000 1.614320 
# 
# From -- ./inp_files/14358.got.cif
#   From: 2010.05.17/outbox.cif.g08.bks.cpg/sg62_8_cif.got.tgz:14358.got - 2010.06.03 15:25:27.
