data_PCOD9464490
_publ_section_title
;
Structure prediction by ZEFSAII (Michael W. Deem and Ramdas Pophale) SiO2 
 PCOD9464490
Probable space group: P N M A
;
_chemical_formula_sum "Si O2"
_cell_formula_units_Z 56
_cell_length_a 21.097686
_cell_length_b 8.851710
_cell_length_c 14.424200
_cell_angle_alpha 90.000000
_cell_angle_beta 90.000000
_cell_angle_gamma 90.000000
_cell_volume 2693.727978
_symmetry_space_group_name_H-M "P N M A"
_symmetry_group_IT_number 62
_symmetry_cell_setting 'orthorhombic'
loop_
_space_group_symop_operation_xyz
x,y,z
1/2-x,-y,1/2+z
1/2+x,1/2-y,1/2-z
-x,1/2+y,-z
-x,-y,-z
1/2+x,y,1/2-z
1/2-x,1/2+y,1/2+z
x,1/2-y,z
loop_
_atom_site_type_symbol
_atom_site_label
_atom_site_fract_x
_atom_site_fract_y
_atom_site_fract_z
Si Si1 0.104303 0.931313 0.701911
Si Si2 0.003116 0.925808 0.852227
Si Si3 0.734385 0.071457 0.772755
Si Si4 0.598058 0.923509 0.472277
Si Si5 0.569560 0.429712 0.993525
Si Si6 0.728712 0.077773 0.458798
Si Si7 0.331188 0.074435 0.877655
O O1 0.106081 0.750000 0.695094
O O2 0.042386 0.974042 0.761797
O O3 0.168570 0.988742 0.750534
O O4 0.100362 0.002432 0.599976
O O5 0.984190 0.750000 0.841531
O O6 0.052847 0.932312 0.937829
O O7 0.943600 0.024232 0.884179
O O8 0.726804 0.250000 0.756526
O O9 0.795654 0.020089 0.714505
O O10 0.748420 0.034153 0.879004
O O11 0.618630 0.750000 0.461267
O O12 0.657919 0.030880 0.485130
O O13 0.566672 0.250000 0.987395
O O14 0.500000 0.500000 0.000000
O O15 0.611036 0.479669 0.081886
O O16 0.730763 0.250000 0.423301
O O17 0.775778 0.069445 0.545177
O O18 0.350772 0.250000 0.866552
#
# Coordination Sequence:
#
# PCOD9464490 Si02
#       7
#     8   8   8   8   8   8   8
#     4  11  22  40  64  91 125 164 209 259 314 381
#     4   9  20  37  58  85 119 161 203 247 304 370
#     4  11  23  39  63  94 124 161 207 257 312 374
#     4  10  20  35  57  87 122 158 202 255 305 362
#     4  12  26  44  68  93 124 166 213 265 322 383
#     4  11  22  38  61  87 122 163 199 250 309 367
#     4  10  23  43  65  92 128 165 209 263 318 378
#
# _framework density 20.789033
#
# number of rings (size 3 to 8) (size 9 to 14) (size 15 to 20)
#    0.000    1.429    1.429    3.857    0.000    4.571 
#    0.000    0.000    0.000    0.000    0.000    0.000 
#    0.000    0.000    0.000    0.000    0.000    0.000 
#
# Total GULP energy -313142.798584 kJ/mol
# GULP energy per Si atom -5591.835689 kJ/mol
# Density = 2.074172 g / cm^3
# Si number density = 20.789033 Si / 1000 Ang^3
#
#
#
# Elastic Constant Matrix: (Units=GPa)
#
#
# Indices 1 2 3 4 5 6 
#
# 1 75.4264 25.6346 -15.0434 0.0000 0.0000 0.0000
# 2 25.6346 62.4966 -0.9611 0.0000 0.0000 0.0000
# 3 -15.0434 -0.9611 26.8135 0.0000 0.0000 0.0000
# 4 0.0000 0.0000 0.0000 18.8251 0.0000 0.0000
# 5 0.0000 0.0000 0.0000 0.0000 31.9650 0.0000
# 6 0.0000 0.0000 0.0000 0.0000 0.0000 30.7334
#
#
#
# Elastic Compliance Matrix: (Units=1/GPa)
#
#
# Indices 1 2 3 4 5 6 
#
# 1 0.017573 -0.007060 0.009606 0.000000 0.000000 0.000000
# 2 -0.007060 0.018846 -0.003286 0.000000 0.000000 0.000000
# 3 0.009606 -0.003286 0.042566 0.000000 0.000000 0.000000
# 4 0.000000 0.000000 0.000000 0.053121 0.000000 0.000000
# 5 0.000000 0.000000 0.000000 0.000000 0.031284 0.000000
# 6 0.000000 0.000000 0.000000 0.000000 0.000000 0.032538
#
#
# Mechanical properties :
#
#
# Convention : Reuss Voigt Hill
#
# Bulk Modulus (GPa) = 12.90214 20.44408 16.67311
# Shear Modulus (GPa) = 22.39701 26.64513 24.52107
#
# Velocity S-wave (km/s) = 3.28586 3.58396 3.43814
# Velocity P-wave (km/s) = 4.54043 5.19440 4.87838
#
# Compressibility (1/GPa) = 0.07750654
#
# Stress axis : x y z
#
# Youngs Moduli (GPa) = 56.90395 53.06060 23.49273
#
# Poissons Ratio (x) = 0.37463 -0.22568
# Poissons Ratio (y) = 0.40177 0.07719
# Poissons Ratio (z) = -0.54664 0.17434
#
# Static dielectric constant tensor:
#      x y z
#    x 1.750760 0.000000 0.000000 
#    y 0.000000 1.703740 0.000000 
#    z 0.000000 0.000000 1.741720 
# 
# From -- ./inp_files/20425.got.cif
#   From: 2010.05.17/outbox.cif.g08.bks.cpg/sg62_11_cif.got.tgz:20425.got - 2010.06.03 15:25:27.
