data_PCOD9464870
_publ_section_title
;
Structure prediction by ZEFSAII (Michael W. Deem and Ramdas Pophale) SiO2 
 PCOD9464870
Probable space group: P N M A
;
_chemical_formula_sum "Si O2"
_cell_formula_units_Z 64
_cell_length_a 24.599895
_cell_length_b 7.559120
_cell_length_c 15.397214
_cell_angle_alpha 90.000000
_cell_angle_beta 90.000000
_cell_angle_gamma 90.000000
_cell_volume 2863.166731
_symmetry_space_group_name_H-M "P N M A"
_symmetry_group_IT_number 62
_symmetry_cell_setting 'orthorhombic'
loop_
_space_group_symop_operation_xyz
x,y,z
1/2-x,-y,1/2+z
1/2+x,1/2-y,1/2-z
-x,1/2+y,-z
-x,-y,-z
1/2+x,y,1/2-z
1/2-x,1/2+y,1/2+z
x,1/2-y,z
loop_
_atom_site_type_symbol
_atom_site_label
_atom_site_fract_x
_atom_site_fract_y
_atom_site_fract_z
Si Si1 0.664964 0.541502 0.575139
Si Si2 0.028341 0.039378 0.591875
Si Si3 0.970739 0.547230 0.767006
Si Si4 0.244662 0.966655 0.772983
Si Si5 0.958178 0.462779 0.077306
Si Si6 0.633022 0.034236 0.182038
Si Si7 0.246663 0.046711 0.076736
Si Si8 0.864096 0.964185 0.488761
O O1 0.659880 0.750000 0.592054
O O2 0.699866 0.469851 0.657364
O O3 0.603605 0.469253 0.566528
O O4 0.700362 0.525767 0.487115
O O5 0.027347 0.250000 0.605366
O O6 0.090880 0.980221 0.580705
O O7 0.998662 0.953391 0.672839
O O8 0.000000 0.000000 0.500000
O O9 0.961843 0.750000 0.795192
O O10 0.012004 0.467324 0.836147
O O11 0.910969 0.467765 0.751319
O O12 0.241737 0.750000 0.773430
O O13 0.305063 0.017255 0.803242
O O14 0.241998 0.028575 0.673027
O O15 0.953374 0.250000 0.083637
O O16 0.000000 0.500000 0.000000
O O17 0.631302 0.250000 0.184642
O O18 0.617196 0.980230 0.084736
O O19 0.231242 0.250000 0.090388
O O20 0.304168 0.032413 0.028528
O O21 0.861686 0.750000 0.488232
#
# Coordination Sequence:
#
# PCOD9464870 Si02
#       8
#     8   8   8   8   8   8   8   8
#     4  10  21  42  63  84 119 162 198 240 302 370
#     4  11  22  36  56  86 123 161 196 238 295 359
#     4  10  21  38  61  87 114 156 206 248 297 359
#     4   9  19  35  59  85 111 148 195 239 292 356
#     4  10  24  42  65  88 117 162 210 256 305 356
#     4   9  16  33  59  81 107 148 194 237 287 355
#     4  11  23  36  60  93 115 146 196 252 298 343
#     4  10  20  37  58  81 117 161 192 226 293 365
#
# _framework density 22.352872999999999
#
# number of rings (size 3 to 8) (size 9 to 14) (size 15 to 20)
#    0.000    2.000    2.500    0.750    3.500    2.000 
#    0.000    1.250    0.000    0.000    0.000    0.000 
#    0.000    0.000    0.000    0.000    0.000    0.000 
#
# Total GULP energy -357310.601657 kJ/mol
# GULP energy per Si atom -5582.978151 kJ/mol
# Density = 2.230200 g / cm^3
# Si number density = 22.352873 Si / 1000 Ang^3
#
#
#
# Elastic Constant Matrix: (Units=GPa)
#
#
# Indices 1 2 3 4 5 6 
#
# 1 196.5178 1.4286 77.7304 0.0000 0.0000 0.0000
# 2 1.4286 54.2943 -3.2086 0.0000 0.0000 0.0000
# 3 77.7304 -3.2086 129.6471 0.0000 0.0000 0.0000
# 4 0.0000 0.0000 0.0000 15.9745 0.0000 0.0000
# 5 0.0000 0.0000 0.0000 0.0000 25.5943 0.0000
# 6 0.0000 0.0000 0.0000 0.0000 0.0000 10.0256
#
#
#
# Elastic Compliance Matrix: (Units=1/GPa)
#
#
# Indices 1 2 3 4 5 6 
#
# 1 0.006680 -0.000413 -0.004015 0.000000 0.000000 0.000000
# 2 -0.000413 0.018471 0.000705 0.000000 0.000000 0.000000
# 3 -0.004015 0.000705 0.010138 0.000000 0.000000 0.000000
# 4 0.000000 0.000000 0.000000 0.062600 0.000000 0.000000
# 5 0.000000 0.000000 0.000000 0.000000 0.039071 0.000000
# 6 0.000000 0.000000 0.000000 0.000000 0.000000 0.099745
#
#
# Mechanical properties :
#
#
# Convention : Reuss Voigt Hill
#
# Bulk Modulus (GPa) = 35.91744 59.15110 47.53427
# Shear Modulus (GPa) = 19.72921 30.61947 25.17434
#
# Velocity S-wave (km/s) = 2.97412 3.70513 3.35957
# Velocity P-wave (km/s) = 5.28177 6.69506 6.02997
#
# Compressibility (1/GPa) = 0.02784163
#
# Stress axis : x y z
#
# Youngs Moduli (GPa) = 149.70686 54.13994 98.63930
#
# Poissons Ratio (x) = 0.02236 0.39604
# Poissons Ratio (y) = 0.06183 -0.06952
# Poissons Ratio (z) = 0.60108 -0.03816
#
# Static dielectric constant tensor:
#      x y z
#    x 1.823970 0.000000 0.000000 
#    y 0.000000 1.858130 0.000000 
#    z 0.000000 0.000000 1.829080 
# 
# From -- ./inp_files/20895.got.cif
#   From: 2010.05.17/outbox.cif.g08.bks.cpg/sg62_11_cif.got.tgz:20895.got - 2010.06.03 15:25:27.
