data_PCOD9464223
_publ_section_title
;
Structure prediction by ZEFSAII (Michael W. Deem and Ramdas Pophale) SiO2 
 PCOD9464223
Probable space group: P N M A
;
_chemical_formula_sum "Si O2"
_cell_formula_units_Z 64
_cell_length_a 32.498229
_cell_length_b 10.914257
_cell_length_c 8.933776
_cell_angle_alpha 90.000000
_cell_angle_beta 90.000000
_cell_angle_gamma 90.000000
_cell_volume 3168.756953
_symmetry_space_group_name_H-M "P N M A"
_symmetry_group_IT_number 62
_symmetry_cell_setting 'orthorhombic'
loop_
_space_group_symop_operation_xyz
x,y,z
1/2-x,-y,1/2+z
1/2+x,1/2-y,1/2-z
-x,1/2+y,-z
-x,-y,-z
1/2+x,y,1/2-z
1/2-x,1/2+y,1/2+z
x,1/2-y,z
loop_
_atom_site_type_symbol
_atom_site_label
_atom_site_fract_x
_atom_site_fract_y
_atom_site_fract_z
Si Si1 0.173398 0.616414 0.705947
Si Si2 0.839279 0.889770 0.070107
Si Si3 0.263814 0.534101 0.630747
Si Si4 0.595391 0.393381 0.313251
Si Si5 0.493881 0.888116 0.786994
Si Si6 0.871894 0.529428 0.505247
Si Si7 0.544160 0.386112 0.875167
Si Si8 0.284738 0.617064 0.930228
O O1 0.168493 0.750000 0.776292
O O2 0.165273 0.500784 0.813800
O O3 0.220051 0.603006 0.645528
O O4 0.141669 0.597488 0.569478
O O5 0.841245 0.750000 0.130166
O O6 0.798958 0.900328 0.964338
O O7 0.879098 0.910862 0.964423
O O8 0.279977 0.519076 0.798517
O O9 0.250450 0.409422 0.549709
O O10 0.601924 0.250000 0.268561
O O11 0.546322 0.410571 0.315632
O O12 0.613240 0.472893 0.176573
O O13 0.509960 0.750000 0.757090
O O14 0.525182 0.001243 0.782772
O O15 0.476825 0.886316 0.959024
O O16 0.908148 0.589263 0.409259
O O17 0.829781 0.606230 0.502086
O O18 0.538092 0.250000 0.810270
O O19 0.279869 0.750000 0.860131
#
# Coordination Sequence:
#
# PCOD9464223 Si02
#       8
#     8   8   8   8   8   8   8   8
#     4  11  25  42  55  78 119 152 183 232 288 333
#     4  11  22  37  60  83 107 144 191 232 274 328
#     4  11  22  37  56  81 106 146 186 229 280 326
#     4   9  17  33  58  87 114 142 186 237 273 321
#     4   8  15  28  49  78 113 147 173 212 276 334
#     4  10  20  34  57  82 106 146 191 227 276 324
#     4   9  16  28  49  80 113 141 177 225 269 322
#     4  11  21  37  56  78 112 146 185 233 277 325
#
# _framework density 20.197194
#
# number of rings (size 3 to 8) (size 9 to 14) (size 15 to 20)
#    0.000    2.000    2.500    3.000    0.000    3.500 
#    0.000    3.750    0.000    0.750    0.000    0.000 
#    0.000    0.000    0.000    0.000    0.000    0.000 
#
# Total GULP energy -356882.557560 kJ/mol
# GULP energy per Si atom -5576.289962 kJ/mol
# Density = 2.015122 g / cm^3
# Si number density = 20.197194 Si / 1000 Ang^3
#
#
#
# Elastic Constant Matrix: (Units=GPa)
#
#
# Indices 1 2 3 4 5 6 
#
# 1 50.3039 25.3996 6.3349 0.0000 0.0000 0.0000
# 2 25.3996 95.9917 24.5425 0.0000 0.0000 0.0000
# 3 6.3349 24.5425 47.5908 0.0000 0.0000 0.0000
# 4 0.0000 0.0000 0.0000 19.7668 0.0000 0.0000
# 5 0.0000 0.0000 0.0000 0.0000 13.4209 0.0000
# 6 0.0000 0.0000 0.0000 0.0000 0.0000 9.2007
#
#
#
# Elastic Compliance Matrix: (Units=1/GPa)
#
#
# Indices 1 2 3 4 5 6 
#
# 1 0.022945 -0.006094 0.000088 0.000000 0.000000 0.000000
# 2 -0.006094 0.013618 -0.006212 0.000000 0.000000 0.000000
# 3 0.000088 -0.006212 0.024204 0.000000 0.000000 0.000000
# 4 0.000000 0.000000 0.000000 0.050590 0.000000 0.000000
# 5 0.000000 0.000000 0.000000 0.000000 0.074511 0.000000
# 6 0.000000 0.000000 0.000000 0.000000 0.000000 0.108687
#
#
# Mechanical properties :
#
#
# Convention : Reuss Voigt Hill
#
# Bulk Modulus (GPa) = 27.52337 34.04893 30.78615
# Shear Modulus (GPa) = 15.10116 17.65164 16.37640
#
# Velocity S-wave (km/s) = 2.73735 2.95950 2.85059
# Velocity P-wave (km/s) = 4.86289 5.34537 5.10983
#
# Compressibility (1/GPa) = 0.03633277
#
# Stress axis : x y z
#
# Youngs Moduli (GPa) = 43.58247 73.43121 41.31538
#
# Poissons Ratio (x) = 0.44748 -0.00365
# Poissons Ratio (y) = 0.26559 0.25664
# Poissons Ratio (z) = -0.00385 0.45613
#
# Static dielectric constant tensor:
#      x y z
#    x 1.717910 0.000000 0.000000 
#    y 0.000000 1.718670 0.000000 
#    z 0.000000 0.000000 1.738390 
# 
# From -- ./inp_files/10461.got.cif
#   From: 2010.05.17/outbox.cif.g08.bks.cpg/sg62_6_cif.got.tgz:10461.got - 2010.06.03 15:25:27.
