data_PCOD9464398
_publ_section_title
;
Structure prediction by ZEFSAII (Michael W. Deem and Ramdas Pophale) SiO2 
 PCOD9464398
Probable space group: P N M A
;
_chemical_formula_sum "Si O2"
_cell_formula_units_Z 56
_cell_length_a 21.899896
_cell_length_b 7.881511
_cell_length_c 15.077466
_cell_angle_alpha 90.000000
_cell_angle_beta 90.000000
_cell_angle_gamma 90.000000
_cell_volume 2602.435031
_symmetry_space_group_name_H-M "P N M A"
_symmetry_group_IT_number 62
_symmetry_cell_setting 'orthorhombic'
loop_
_space_group_symop_operation_xyz
x,y,z
1/2-x,-y,1/2+z
1/2+x,1/2-y,1/2-z
-x,1/2+y,-z
-x,-y,-z
1/2+x,y,1/2-z
1/2-x,1/2+y,1/2+z
x,1/2-y,z
loop_
_atom_site_type_symbol
_atom_site_label
_atom_site_fract_x
_atom_site_fract_y
_atom_site_fract_z
Si Si1 0.827985 0.444919 0.399367
Si Si2 0.436585 0.544909 0.601878
Si Si3 0.810434 0.040588 0.203579
Si Si4 0.035173 0.447056 0.589494
Si Si5 0.922484 0.955761 0.701491
Si Si6 0.075976 0.951003 0.909236
Si Si7 0.306147 0.549956 0.905294
O O1 0.808551 0.250000 0.403608
O O2 0.806232 0.516295 0.305238
O O3 0.901730 0.454652 0.399036
O O4 0.805109 0.527831 0.489623
O O5 0.436787 0.750000 0.596508
O O6 0.409045 0.497415 0.696799
O O7 0.507127 0.481604 0.601771
O O8 0.406229 0.479676 0.511866
O O9 0.811751 0.250000 0.204105
O O10 0.873233 0.981990 0.157694
O O11 0.753266 0.983084 0.144931
O O12 0.051403 0.250000 0.582199
O O13 0.000000 0.500000 0.500000
O O14 0.987660 0.477554 0.668697
O O15 0.926391 0.750000 0.696794
O O16 0.869243 0.018510 0.636121
O O17 0.071798 0.750000 0.893428
O O18 0.307540 0.750000 0.886285
#
# Coordination Sequence:
#
# PCOD9464398 Si02
#       7
#     8   8   8   8   8   8   8
#     4  11  22  39  62  87 117 152 195 242 293 350
#     4   9  18  32  53  80 109 142 182 232 286 339
#     4   9  20  38  59  81 111 155 197 235 288 350
#     4  12  23  36  58  87 119 152 189 237 295 350
#     4  10  20  35  56  82 115 152 189 232 288 347
#     4   9  17  33  54  76 105 143 186 232 282 337
#     4  10  21  38  58  81 112 149 192 235 281 340
#
# _framework density 21.518308000000001
#
# number of rings (size 3 to 8) (size 9 to 14) (size 15 to 20)
#    0.000    2.000    1.429    2.571    0.000    4.000 
#    0.000    7.857    0.000    0.000    0.000    0.000 
#    0.000    0.000    0.000    0.000    0.000    0.000 
#
# Total GULP energy -312833.373708 kJ/mol
# GULP energy per Si atom -5586.310245 kJ/mol
# Density = 2.146933 g / cm^3
# Si number density = 21.518308 Si / 1000 Ang^3
#
#
#
# Elastic Constant Matrix: (Units=GPa)
#
#
# Indices 1 2 3 4 5 6 
#
# 1 61.4691 -6.5247 38.8895 0.0000 0.0000 0.0000
# 2 -6.5247 24.2665 -11.1300 0.0000 0.0000 0.0000
# 3 38.8895 -11.1300 134.0403 0.0000 0.0000 0.0000
# 4 0.0000 0.0000 0.0000 28.5046 0.0000 0.0000
# 5 0.0000 0.0000 0.0000 0.0000 29.7604 0.0000
# 6 0.0000 0.0000 0.0000 0.0000 0.0000 7.6999
#
#
#
# Elastic Compliance Matrix: (Units=1/GPa)
#
#
# Indices 1 2 3 4 5 6 
#
# 1 0.020112 0.002840 -0.005599 0.000000 0.000000 0.000000
# 2 0.002840 0.043242 0.002767 0.000000 0.000000 0.000000
# 3 -0.005599 0.002767 0.009315 0.000000 0.000000 0.000000
# 4 0.000000 0.000000 0.000000 0.035082 0.000000 0.000000
# 5 0.000000 0.000000 0.000000 0.000000 0.033602 0.000000
# 6 0.000000 0.000000 0.000000 0.000000 0.000000 0.129871
#
#
# Mechanical properties :
#
#
# Convention : Reuss Voigt Hill
#
# Bulk Modulus (GPa) = 13.75855 29.13839 21.44847
# Shear Modulus (GPa) = 16.92406 26.42906 21.67656
#
# Velocity S-wave (km/s) = 2.80750 3.50839 3.17733
# Velocity P-wave (km/s) = 4.11304 5.47561 4.84249
#
# Compressibility (1/GPa) = 0.07268210
#
# Stress axis : x y z
#
# Youngs Moduli (GPa) = 49.72071 23.12593 107.35644
#
# Poissons Ratio (x) = -0.06567 0.60114
# Poissons Ratio (y) = -0.14118 -0.29702
# Poissons Ratio (z) = 0.27841 -0.06398
#
# Static dielectric constant tensor:
#      x y z
#    x 1.771530 0.000000 0.000000 
#    y 0.000000 1.797510 0.000000 
#    z 0.000000 0.000000 1.779590 
# 
# From -- ./inp_files/20355.got.cif
#   From: 2010.05.17/outbox.cif.g08.bks.cpg/sg62_11_cif.got.tgz:20355.got - 2010.06.03 15:25:27.
