data_PCOD9464872
_publ_section_title
;
Structure prediction by ZEFSAII (Michael W. Deem and Ramdas Pophale) SiO2 
 PCOD9464872
Probable space group: P N M A
;
_chemical_formula_sum "Si O2"
_cell_formula_units_Z 56
_cell_length_a 10.284564
_cell_length_b 13.505733
_cell_length_c 17.043934
_cell_angle_alpha 90.000000
_cell_angle_beta 90.000000
_cell_angle_gamma 90.000000
_cell_volume 2367.412240
_symmetry_space_group_name_H-M "P N M A"
_symmetry_group_IT_number 62
_symmetry_cell_setting 'orthorhombic'
loop_
_space_group_symop_operation_xyz
x,y,z
1/2-x,-y,1/2+z
1/2+x,1/2-y,1/2-z
-x,1/2+y,-z
-x,-y,-z
1/2+x,y,1/2-z
1/2-x,1/2+y,1/2+z
x,1/2-y,z
loop_
_atom_site_type_symbol
_atom_site_label
_atom_site_fract_x
_atom_site_fract_y
_atom_site_fract_z
Si Si1 0.566886 0.033567 0.870710
Si Si2 0.338876 0.367327 0.413606
Si Si3 0.443566 0.638640 0.473206
Si Si4 0.541258 0.043413 0.294611
Si Si5 0.245004 0.640253 0.618013
Si Si6 0.805308 0.134981 0.799154
Si Si7 0.293633 0.051462 0.877740
O O1 0.512891 0.982142 0.790576
O O2 0.644024 0.943042 0.909283
O O3 0.675021 0.114016 0.847856
O O4 0.437483 0.081356 0.906643
O O5 0.317829 0.250000 0.416999
O O6 0.418088 0.399069 0.492758
O O7 0.433121 0.396782 0.341522
O O8 0.214219 0.434317 0.397000
O O9 0.468697 0.750000 0.444239
O O10 0.358116 0.645230 0.553402
O O11 0.337207 0.590154 0.417455
O O12 0.677249 0.102553 0.304467
O O13 0.579798 0.935813 0.331384
O O14 0.189958 0.750000 0.629185
O O15 0.836795 0.250000 0.795137
O O16 0.783567 0.090601 0.711655
#
# Coordination Sequence:
#
# PCOD9464872 Si02
#       7
#     8   8   8   8   8   8   8
#     4  10  21  35  52  81 116 140 185 228 282 335
#     4  10  20  37  58  82 115 147 183 234 274 327
#     4   9  19  36  58  80 104 145 194 231 278 329
#     4   9  18  36  52  78 108 143 182 222 279 330
#     4   9  19  35  55  78 108 146 187 232 277 330
#     4  10  21  37  56  79 112 146 183 232 278 331
#     4  11  21  36  57  83 113 148 188 227 280 335
#
# _framework density 23.654522
#
# number of rings (size 3 to 8) (size 9 to 14) (size 15 to 20)
#    0.000    2.286    1.429    2.143    0.000    5.143 
#    0.000    2.143    0.000    7.714    0.000    0.000 
#    0.000    0.000    0.000    0.000    0.000    0.000 
#
# Total GULP energy -312429.263746 kJ/mol
# GULP energy per Si atom -5579.093995 kJ/mol
# Density = 2.360068 g / cm^3
# Si number density = 23.654522 Si / 1000 Ang^3
#
#
#
# Elastic Constant Matrix: (Units=GPa)
#
#
# Indices 1 2 3 4 5 6 
#
# 1 83.7412 4.4667 -7.9791 0.0000 0.0000 0.0000
# 2 4.4667 97.1772 -4.9143 0.0000 0.0000 0.0000
# 3 -7.9791 -4.9143 40.4870 0.0000 0.0000 0.0000
# 4 0.0000 0.0000 0.0000 16.3416 0.0000 0.0000
# 5 0.0000 0.0000 0.0000 0.0000 17.8271 0.0000
# 6 0.0000 0.0000 0.0000 0.0000 0.0000 20.8502
#
#
#
# Elastic Compliance Matrix: (Units=1/GPa)
#
#
# Indices 1 2 3 4 5 6 
#
# 1 0.012189 -0.000441 0.002349 0.000000 0.000000 0.000000
# 2 -0.000441 0.010370 0.001172 0.000000 0.000000 0.000000
# 3 0.002349 0.001172 0.025304 0.000000 0.000000 0.000000
# 4 0.000000 0.000000 0.000000 0.061194 0.000000 0.000000
# 5 0.000000 0.000000 0.000000 0.000000 0.056094 0.000000
# 6 0.000000 0.000000 0.000000 0.000000 0.000000 0.047961
#
#
# Mechanical properties :
#
#
# Convention : Reuss Voigt Hill
#
# Bulk Modulus (GPa) = 18.51140 22.72802 20.61971
# Shear Modulus (GPa) = 22.22600 26.32592 24.27596
#
# Velocity S-wave (km/s) = 3.06863 3.33969 3.20702
# Velocity P-wave (km/s) = 4.51642 4.94980 4.73807
#
# Compressibility (1/GPa) = 0.05402078
#
# Stress axis : x y z
#
# Youngs Moduli (GPa) = 82.04203 96.43175 39.51891
#
# Poissons Ratio (x) = 0.04257 -0.09281
# Poissons Ratio (y) = 0.03622 -0.04630
# Poissons Ratio (z) = -0.19268 -0.11299
#
# Static dielectric constant tensor:
#      x y z
#    x 1.906270 0.000000 0.000000 
#    y 0.000000 1.924740 0.000000 
#    z 0.000000 0.000000 2.003010 
# 
# From -- ./inp_files/26617.got.cif
#   From: 2010.05.17/outbox.cif.g08.bks.cpg/sg62_14_cif.got.tgz:26617.got - 2010.06.03 15:25:27.
