data_PCOD9464300
_publ_section_title
;
Structure prediction by ZEFSAII (Michael W. Deem and Ramdas Pophale) SiO2 
 PCOD9464300
Probable space group: P N M A
;
_chemical_formula_sum "Si O2"
_cell_formula_units_Z 40
_cell_length_a 24.263281
_cell_length_b 7.436453
_cell_length_c 8.167176
_cell_angle_alpha 90.000000
_cell_angle_beta 90.000000
_cell_angle_gamma 90.000000
_cell_volume 1473.626015
_symmetry_space_group_name_H-M "P N M A"
_symmetry_group_IT_number 62
_symmetry_cell_setting 'orthorhombic'
loop_
_space_group_symop_operation_xyz
x,y,z
1/2-x,-y,1/2+z
1/2+x,1/2-y,1/2-z
-x,1/2+y,-z
-x,-y,-z
1/2+x,y,1/2-z
1/2-x,1/2+y,1/2+z
x,1/2-y,z
loop_
_atom_site_type_symbol
_atom_site_label
_atom_site_fract_x
_atom_site_fract_y
_atom_site_fract_z
Si Si1 0.631438 0.469072 0.963844
Si Si2 0.429811 0.963446 0.361107
Si Si3 0.762112 0.532250 0.633955
Si Si4 0.836120 0.955749 0.929395
Si Si5 0.533452 0.461696 0.168912
O O1 0.629239 0.250000 0.960663
O O2 0.694359 0.519327 0.990728
O O3 0.601639 0.534772 0.800593
O O4 0.594135 0.528781 0.119509
O O5 0.420842 0.750000 0.369430
O O6 0.394929 0.034620 0.515377
O O7 0.494203 0.981775 0.318069
O O8 0.756758 0.750000 0.640300
O O9 0.702654 0.455661 0.591178
O O10 0.795288 0.465347 0.793338
O O11 0.845414 0.750000 0.874295
O O12 0.538036 0.250000 0.189751
O O13 0.500000 0.500000 0.000000
#
# Coordination Sequence:
#
# PCOD9464300 Si02
#       5
#     8   8   8   8   8
#     4   8  15  29  49  70  95 129 162 197 242 289
#     4   9  17  31  49  70  99 132 165 203 247 293
#     4  10  20  35  54  74  99 133 170 207 252 305
#     4  10  21  35  52  75 101 131 167 208 255 302
#     4   9  16  28  48  73  99 129 166 203 244 293
#
# _framework density 27.143927000000001
#
# number of rings (size 3 to 8) (size 9 to 14) (size 15 to 20)
#    0.000    2.800    0.000    3.000    0.000    3.200 
#    0.000    8.000    0.000    0.000    0.000    0.000 
#    0.000    0.000    0.000    0.000    0.000    0.000 
#
# Total GULP energy -223536.361425 kJ/mol
# GULP energy per Si atom -5588.409036 kJ/mol
# Density = 2.708215 g / cm^3
# Si number density = 27.143927 Si / 1000 Ang^3
#
#
#
# Elastic Constant Matrix: (Units=GPa)
#
#
# Indices 1 2 3 4 5 6 
#
# 1 187.9852 -6.4913 20.8908 0.0000 0.0000 0.0000
# 2 -6.4913 93.6306 -2.6203 0.0000 0.0000 0.0000
# 3 20.8908 -2.6203 94.2734 0.0000 0.0000 0.0000
# 4 0.0000 0.0000 0.0000 1.6608 0.0000 0.0000
# 5 0.0000 0.0000 0.0000 0.0000 60.9288 0.0000
# 6 0.0000 0.0000 0.0000 0.0000 0.0000 13.6285
#
#
#
# Elastic Compliance Matrix: (Units=1/GPa)
#
#
# Indices 1 2 3 4 5 6 
#
# 1 0.005465 0.000345 -0.001201 0.000000 0.000000 0.000000
# 2 0.000345 0.010710 0.000221 0.000000 0.000000 0.000000
# 3 -0.001201 0.000221 0.010880 0.000000 0.000000 0.000000
# 4 0.000000 0.000000 0.000000 0.602127 0.000000 0.000000
# 5 0.000000 0.000000 0.000000 0.000000 0.016413 0.000000
# 6 0.000000 0.000000 0.000000 0.000000 0.000000 0.073376
#
#
# Mechanical properties :
#
#
# Convention : Reuss Voigt Hill
#
# Bulk Modulus (GPa) = 38.78189 44.38309 41.58249
# Shear Modulus (GPa) = 6.86026 39.51762 23.18894
#
# Velocity S-wave (km/s) = 1.59149 3.81971 2.92600
# Velocity P-wave (km/s) = 4.20662 5.98666 5.17377
#
# Compressibility (1/GPa) = 0.02578523
#
# Stress axis : x y z
#
# Youngs Moduli (GPa) = 182.98239 93.36726 91.91320
#
# Poissons Ratio (x) = -0.03224 0.11043
# Poissons Ratio (y) = -0.06318 -0.02033
# Poissons Ratio (z) = 0.21984 -0.02065
#
# Static dielectric constant tensor:
#      x y z
#    x 2.086260 0.000000 0.000000 
#    y 0.000000 2.073180 0.000000 
#    z 0.000000 0.000000 2.232170 
# 
# From -- ./inp_files/10011.got.cif
#   From: 2010.05.17/outbox.cif.g08.bks.cpg/sg62_6_cif.got.tgz:10011.got - 2010.06.03 15:25:27.
