data_PCOD9464436
_publ_section_title
;
Structure prediction by ZEFSAII (Michael W. Deem and Ramdas Pophale) SiO2 
 PCOD9464436
Probable space group: P N M A
;
_chemical_formula_sum "Si O2"
_cell_formula_units_Z 48
_cell_length_a 8.783781
_cell_length_b 13.839851
_cell_length_c 19.817974
_cell_angle_alpha 90.000000
_cell_angle_beta 90.000000
_cell_angle_gamma 90.000000
_cell_volume 2409.196192
_symmetry_space_group_name_H-M "P N M A"
_symmetry_group_IT_number 62
_symmetry_cell_setting 'orthorhombic'
loop_
_space_group_symop_operation_xyz
x,y,z
1/2-x,-y,1/2+z
1/2+x,1/2-y,1/2-z
-x,1/2+y,-z
-x,-y,-z
1/2+x,y,1/2-z
1/2-x,1/2+y,1/2+z
x,1/2-y,z
loop_
_atom_site_type_symbol
_atom_site_label
_atom_site_fract_x
_atom_site_fract_y
_atom_site_fract_z
Si Si1 0.005026 0.997088 0.919146
Si Si2 0.077862 0.030986 0.289891
Si Si3 0.245785 0.361140 0.850734
Si Si4 0.475546 0.355680 0.977533
Si Si5 0.120618 0.637838 0.820382
Si Si6 0.343066 0.479594 0.086875
O O1 0.086090 0.898391 0.895619
O O2 0.830998 0.993768 0.895016
O O3 0.101238 0.082691 0.883072
O O4 0.000000 0.000000 0.000000
O O5 0.205341 0.111408 0.304933
O O6 0.985188 0.068414 0.225616
O O7 0.173365 0.929739 0.294229
O O8 0.952929 0.023690 0.349040
O O9 0.214685 0.250000 0.829550
O O10 0.365339 0.357100 0.912652
O O11 0.541531 0.250000 0.986168
O O12 0.604633 0.433680 0.962317
O O13 0.376318 0.385396 0.042051
O O14 0.088660 0.750000 0.809191
#
# Coordination Sequence:
#
# PCOD9464436 Si02
#       6
#     8   8   8   8   8   8
#     4  11  22  38  60  90 129 166 208 263 315 375
#     4  10  22  41  62  90 125 161 209 264 319 381
#     4   9  19  38  61  87 122 164 211 260 314 376
#     4   9  18  32  53  81 115 159 204 248 302 363
#     4  11  24  41  63  91 124 165 209 258 322 390
#     4  10  20  35  56  85 122 160 203 256 311 366
#
# _framework density 19.923658
#
# number of rings (size 3 to 8) (size 9 to 14) (size 15 to 20)
#    0.000    2.000    1.667    1.500    2.333    3.333 
#    0.000    3.333    0.000    4.000    0.000    0.000 
#    0.000    0.000    0.000    0.000    0.000    0.000 
#
# Total GULP energy -267713.808761 kJ/mol
# GULP energy per Si atom -5577.371016 kJ/mol
# Density = 1.987831 g / cm^3
# Si number density = 19.923658 Si / 1000 Ang^3
#
#
#
# Elastic Constant Matrix: (Units=GPa)
#
#
# Indices 1 2 3 4 5 6 
#
# 1 97.3938 13.8732 23.9321 0.0000 0.0000 0.0000
# 2 13.8732 117.2976 39.9912 0.0000 0.0000 0.0000
# 3 23.9321 39.9912 72.1152 0.0000 0.0000 0.0000
# 4 0.0000 0.0000 0.0000 13.0418 0.0000 0.0000
# 5 0.0000 0.0000 0.0000 0.0000 27.6276 0.0000
# 6 0.0000 0.0000 0.0000 0.0000 0.0000 15.7109
#
#
#
# Elastic Compliance Matrix: (Units=1/GPa)
#
#
# Indices 1 2 3 4 5 6 
#
# 1 0.011180 -0.000071 -0.003671 0.000000 0.000000 0.000000
# 2 -0.000071 0.010513 -0.005807 0.000000 0.000000 0.000000
# 3 -0.003671 -0.005807 0.018305 0.000000 0.000000 0.000000
# 4 0.000000 0.000000 0.000000 0.076677 0.000000 0.000000
# 5 0.000000 0.000000 0.000000 0.000000 0.036196 0.000000
# 6 0.000000 0.000000 0.000000 0.000000 0.000000 0.063650
#
#
# Mechanical properties :
#
#
# Convention : Reuss Voigt Hill
#
# Bulk Modulus (GPa) = 47.84340 49.15550 48.49945
# Shear Modulus (GPa) = 20.61137 25.21005 22.91071
#
# Velocity S-wave (km/s) = 3.21988 3.56101 3.39473
# Velocity P-wave (km/s) = 6.15540 6.45238 6.30564
#
# Compressibility (1/GPa) = 0.02090152
#
# Stress axis : x y z
#
# Youngs Moduli (GPa) = 89.44791 95.11656 54.62991
#
# Poissons Ratio (x) = 0.00673 0.20054
# Poissons Ratio (y) = 0.00633 0.31722
# Poissons Ratio (z) = 0.32835 0.55231
#
# Static dielectric constant tensor:
#      x y z
#    x 1.695340 0.000000 0.000000 
#    y 0.000000 1.717170 0.000000 
#    z 0.000000 0.000000 1.751470 
# 
# From -- ./inp_files/22194.got.cif
#   From: 2010.05.17/outbox.cif.g08.bks.cpg/sg62_12_cif.got.tgz:22194.got - 2010.06.03 15:25:27.
