data_PCOD9464904
_publ_section_title
;
Structure prediction by ZEFSAII (Michael W. Deem and Ramdas Pophale) SiO2 
 PCOD9464904
Probable space group: P N M A
;
_chemical_formula_sum "Si O2"
_cell_formula_units_Z 64
_cell_length_a 14.366437
_cell_length_b 9.250858
_cell_length_c 25.263940
_cell_angle_alpha 90.000000
_cell_angle_beta 90.000000
_cell_angle_gamma 90.000000
_cell_volume 3357.624836
_symmetry_space_group_name_H-M "P N M A"
_symmetry_group_IT_number 62
_symmetry_cell_setting 'orthorhombic'
loop_
_space_group_symop_operation_xyz
x,y,z
1/2-x,-y,1/2+z
1/2+x,1/2-y,1/2-z
-x,1/2+y,-z
-x,-y,-z
1/2+x,y,1/2-z
1/2-x,1/2+y,1/2+z
x,1/2-y,z
loop_
_atom_site_type_symbol
_atom_site_label
_atom_site_fract_x
_atom_site_fract_y
_atom_site_fract_z
Si Si1 0.628408 0.577208 0.120940
Si Si2 0.279707 0.076821 0.446273
Si Si3 0.755414 0.581097 0.836544
Si Si4 0.543213 0.077620 0.602644
Si Si5 0.232298 0.583344 0.269180
Si Si6 0.844529 0.078112 0.935772
Si Si7 0.967533 0.419091 0.328466
Si Si8 0.456087 0.916993 0.277480
O O1 0.626213 0.750000 0.113940
O O2 0.687441 0.500034 0.075396
O O3 0.682109 0.544980 0.176258
O O4 0.526824 0.510145 0.129596
O O5 0.274385 0.250000 0.439733
O O6 0.299880 0.043434 0.507718
O O7 0.367117 0.012717 0.413834
O O8 0.777223 0.750000 0.837506
O O9 0.790596 0.511819 0.781727
O O10 0.796882 0.503948 0.887590
O O11 0.643072 0.563952 0.836751
O O12 0.565248 0.250000 0.600715
O O13 0.454907 0.046446 0.565711
O O14 0.513269 0.046104 0.663198
O O15 0.209965 0.750000 0.256809
O O16 0.343422 0.574552 0.278496
O O17 0.835430 0.250000 0.926810
O O18 0.991025 0.250000 0.331519
O O19 0.988699 0.482044 0.270003
O O20 0.481355 0.750000 0.265775
#
# Coordination Sequence:
#
# PCOD9464904 Si02
#       8
#     8   8   8   8   8   8   8   8
#     4  11  22  38  61  87 114 156 202 239 290 353
#     4  11  23  39  59  87 121 154 194 247 298 343
#     4  10  22  39  59  85 117 152 193 242 297 348
#     4  10  20  37  59  85 118 157 199 238 282 349
#     4   9  18  34  56  81 112 150 189 232 283 343
#     4  10  23  40  60  85 116 157 200 243 292 346
#     4  10  22  38  56  85 122 153 189 246 301 348
#     4   9  17  33  55  82 115 153 192 229 276 344
#
# _framework density 19.061091999999999
#
# number of rings (size 3 to 8) (size 9 to 14) (size 15 to 20)
#    0.000    2.000    1.250    1.875    1.750    4.500 
#    0.000    0.625    0.000    0.000    0.000    0.000 
#    0.000    0.000    0.000    0.000    0.000    0.000 
#
# Total GULP energy -357603.405052 kJ/mol
# GULP energy per Si atom -5587.553204 kJ/mol
# Density = 1.901771 g / cm^3
# Si number density = 19.061092 Si / 1000 Ang^3
#
#
#
# Elastic Constant Matrix: (Units=GPa)
#
#
# Indices 1 2 3 4 5 6 
#
# 1 21.7654 14.2918 6.6808 0.0000 0.0000 0.0000
# 2 14.2918 43.6202 33.4090 0.0000 0.0000 0.0000
# 3 6.6808 33.4090 63.2500 0.0000 0.0000 0.0000
# 4 0.0000 0.0000 0.0000 31.9391 0.0000 0.0000
# 5 0.0000 0.0000 0.0000 0.0000 30.4253 0.0000
# 6 0.0000 0.0000 0.0000 0.0000 0.0000 26.3191
#
#
#
# Elastic Compliance Matrix: (Units=1/GPa)
#
#
# Indices 1 2 3 4 5 6 
#
# 1 0.060242 -0.024963 0.006823 0.000000 0.000000 0.000000
# 2 -0.024963 0.048845 -0.023164 0.000000 0.000000 0.000000
# 3 0.006823 -0.023164 0.027325 0.000000 0.000000 0.000000
# 4 0.000000 0.000000 0.000000 0.031310 0.000000 0.000000
# 5 0.000000 0.000000 0.000000 0.000000 0.032867 0.000000
# 6 0.000000 0.000000 0.000000 0.000000 0.000000 0.037995
#
#
# Mechanical properties :
#
#
# Convention : Reuss Voigt Hill
#
# Bulk Modulus (GPa) = 18.58610 26.37764 22.48187
# Shear Modulus (GPa) = 14.74371 22.68698 18.71535
#
# Velocity S-wave (km/s) = 2.78420 3.45371 3.13687
# Velocity P-wave (km/s) = 4.48416 5.45643 4.99401
#
# Compressibility (1/GPa) = 0.05380365
#
# Stress axis : x y z
#
# Youngs Moduli (GPa) = 16.59967 20.47276 36.59681
#
# Poissons Ratio (x) = 0.51107 -0.24969
# Poissons Ratio (y) = 0.41439 0.84772
# Poissons Ratio (z) = -0.11326 0.47422
#
# Static dielectric constant tensor:
#      x y z
#    x 1.682410 0.000000 0.000000 
#    y 0.000000 1.635980 0.000000 
#    z 0.000000 0.000000 1.643150 
# 
# From -- ./inp_files/29755.got.cif
#   From: 2010.05.17/outbox.cif.g08.bks.cpg/sg62_15_cif.got.tgz:29755.got - 2010.06.03 15:25:27.
