data_PCOD9464581
_publ_section_title
;
Structure prediction by ZEFSAII (Michael W. Deem and Ramdas Pophale) SiO2 
 PCOD9464581
Probable space group: P N M A
;
_chemical_formula_sum "Si O2"
_cell_formula_units_Z 56
_cell_length_a 9.222888
_cell_length_b 18.986849
_cell_length_c 14.349809
_cell_angle_alpha 90.000000
_cell_angle_beta 90.000000
_cell_angle_gamma 90.000000
_cell_volume 2512.846452
_symmetry_space_group_name_H-M "P N M A"
_symmetry_group_IT_number 62
_symmetry_cell_setting 'orthorhombic'
loop_
_space_group_symop_operation_xyz
x,y,z
1/2-x,-y,1/2+z
1/2+x,1/2-y,1/2-z
-x,1/2+y,-z
-x,-y,-z
1/2+x,y,1/2-z
1/2-x,1/2+y,1/2+z
x,1/2-y,z
loop_
_atom_site_type_symbol
_atom_site_label
_atom_site_fract_x
_atom_site_fract_y
_atom_site_fract_z
Si Si1 0.016465 0.381051 0.988968
Si Si2 0.457958 0.940935 0.076147
Si Si3 0.717866 0.168575 0.047130
Si Si4 0.177005 0.827236 0.448947
Si Si5 0.189542 0.967369 0.737846
Si Si6 0.960106 0.998532 0.865402
Si Si7 0.449550 0.171093 0.159981
O O1 0.890153 0.342842 0.046579
O O2 0.946049 0.423073 0.902930
O O3 0.150569 0.335812 0.954439
O O4 0.080522 0.443149 0.054339
O O5 0.349044 0.886162 0.026359
O O6 0.596988 0.892389 0.100254
O O7 0.383743 0.980164 0.162062
O O8 0.500000 0.000000 0.000000
O O9 0.689833 0.250000 0.020931
O O10 0.620656 0.157273 0.140108
O O11 0.139230 0.750000 0.410597
O O12 0.120403 0.829587 0.556203
O O13 0.358536 0.978544 0.720699
O O14 0.130756 0.889579 0.715517
O O15 0.127120 0.987350 0.837907
O O16 0.432539 0.250000 0.199165
#
# Coordination Sequence:
#
# PCOD9464581 Si02
#       7
#     8   8   8   8   8   8   8
#     4  11  22  42  61  92 123 163 207 260 301 363
#     4  11  19  35  64  90 123 159 203 250 305 358
#     4  10  20  35  62  93 120 161 206 249 301 368
#     4  10  20  36  63  93 120 162 205 246 302 368
#     4  12  23  42  59  93 125 162 203 261 306 367
#     4  11  27  38  64  91 125 157 212 254 309 360
#     4   9  19  37  60  89 126 161 200 244 304 373
#
# _framework density 22.285485999999999
#
# number of rings (size 3 to 8) (size 9 to 14) (size 15 to 20)
#    0.000    1.429    5.714    1.714    6.000    0.000 
#    0.000    2.143    0.000    5.143    0.000    0.000 
#    0.000    0.000    0.000    0.000    0.000    0.000 
#
# Total GULP energy -312936.605524 kJ/mol
# GULP energy per Si atom -5588.153670 kJ/mol
# Density = 2.223476 g / cm^3
# Si number density = 22.285486 Si / 1000 Ang^3
#
#
#
# Elastic Constant Matrix: (Units=GPa)
#
#
# Indices 1 2 3 4 5 6 
#
# 1 115.9059 35.0694 -9.1508 0.0000 0.0000 0.0000
# 2 35.0694 127.5006 13.1184 0.0000 0.0000 0.0000
# 3 -9.1508 13.1184 20.5395 0.0000 0.0000 0.0000
# 4 0.0000 0.0000 0.0000 18.3342 0.0000 0.0000
# 5 0.0000 0.0000 0.0000 0.0000 30.8861 0.0000
# 6 0.0000 0.0000 0.0000 0.0000 0.0000 26.6027
#
#
#
# Elastic Compliance Matrix: (Units=1/GPa)
#
#
# Indices 1 2 3 4 5 6 
#
# 1 0.010227 -0.003513 0.006800 0.000000 0.000000 0.000000
# 2 -0.003513 0.009601 -0.007697 0.000000 0.000000 0.000000
# 3 0.006800 -0.007697 0.056633 0.000000 0.000000 0.000000
# 4 0.000000 0.000000 0.000000 0.054543 0.000000 0.000000
# 5 0.000000 0.000000 0.000000 0.000000 0.032377 0.000000
# 6 0.000000 0.000000 0.000000 0.000000 0.000000 0.037590
#
#
# Mechanical properties :
#
#
# Convention : Reuss Voigt Hill
#
# Bulk Modulus (GPa) = 14.78384 38.00223 26.39303
# Shear Modulus (GPa) = 21.52035 30.15853 25.83944
#
# Velocity S-wave (km/s) = 3.11089 3.68269 3.40880
# Velocity P-wave (km/s) = 4.42174 5.93063 5.23088
#
# Compressibility (1/GPa) = 0.06764144
#
# Stress axis : x y z
#
# Youngs Moduli (GPa) = 97.77659 104.15306 17.65768
#
# Poissons Ratio (x) = 0.36586 -0.12007
# Poissons Ratio (y) = 0.34346 0.13592
# Poissons Ratio (z) = -0.66489 0.80169
#
# Static dielectric constant tensor:
#      x y z
#    x 1.901170 0.000000 0.000000 
#    y 0.000000 1.819750 0.000000 
#    z 0.000000 0.000000 1.789150 
# 
# From -- ./inp_files/17212.got.cif
#   From: 2010.05.17/outbox.cif.g08.bks.cpg/sg62_9_cif.got.tgz:17212.got - 2010.06.03 15:25:27.
