data_PCOD9464451
_publ_section_title
;
Structure prediction by ZEFSAII (Michael W. Deem and Ramdas Pophale) SiO2 
 PCOD9464451
Probable space group: P N M A
;
_chemical_formula_sum "Si O2"
_cell_formula_units_Z 48
_cell_length_a 14.850859
_cell_length_b 18.257225
_cell_length_c 9.185345
_cell_angle_alpha 90.000000
_cell_angle_beta 90.000000
_cell_angle_gamma 90.000000
_cell_volume 2490.472872
_symmetry_space_group_name_H-M "P N M A"
_symmetry_group_IT_number 62
_symmetry_cell_setting 'orthorhombic'
loop_
_space_group_symop_operation_xyz
x,y,z
1/2-x,-y,1/2+z
1/2+x,1/2-y,1/2-z
-x,1/2+y,-z
-x,-y,-z
1/2+x,y,1/2-z
1/2-x,1/2+y,1/2+z
x,1/2-y,z
loop_
_atom_site_type_symbol
_atom_site_label
_atom_site_fract_x
_atom_site_fract_y
_atom_site_fract_z
Si Si1 0.146993 0.908699 0.463441
Si Si2 0.727046 0.334515 0.309421
Si Si3 0.526593 0.164178 0.427194
Si Si4 0.917706 0.418604 0.835133
Si Si5 0.285517 0.460016 0.404833
Si Si6 0.543775 0.545141 0.777744
O O1 0.197319 0.853338 0.571169
O O2 0.118485 0.877939 0.307461
O O3 0.062431 0.939624 0.554428
O O4 0.214949 0.976089 0.434067
O O5 0.732386 0.250000 0.262339
O O6 0.631317 0.346153 0.389069
O O7 0.739746 0.390794 0.175818
O O8 0.506955 0.250000 0.432052
O O9 0.492293 0.125360 0.573745
O O10 0.472819 0.122837 0.300120
O O11 0.837765 0.438216 0.947263
O O12 0.963916 0.492327 0.772883
O O13 0.363892 0.485514 0.293178
#
# Coordination Sequence:
#
# PCOD9464451 Si02
#       6
#     8   8   8   8   8   8
#     4  11  21  34  57  86 114 143 181 231 280 332
#     4  10  22  40  59  79 110 151 189 227 277 336
#     4  10  21  38  57  77 107 149 190 227 275 333
#     4  11  21  34  56  84 113 141 179 231 276 325
#     4  10  20  35  58  83 109 145 190 231 270 327
#     4  10  20  35  57  81 112 147 182 225 276 335
#
# _framework density 19.273447000000001
#
# number of rings (size 3 to 8) (size 9 to 14) (size 15 to 20)
#    0.000    1.667    0.000    7.500    0.000    6.667 
#    0.000    0.000    0.000    5.000    0.000    0.000 
#    0.000    0.000    0.000    0.000    0.000    0.000 
#
# Total GULP energy -268057.068754 kJ/mol
# GULP energy per Si atom -5584.522266 kJ/mol
# Density = 1.922958 g / cm^3
# Si number density = 19.273447 Si / 1000 Ang^3
#
#
#
# Elastic Constant Matrix: (Units=GPa)
#
#
# Indices 1 2 3 4 5 6 
#
# 1 64.9191 29.6797 28.1935 0.0000 0.0000 0.0000
# 2 29.6797 62.1934 11.6201 0.0000 0.0000 0.0000
# 3 28.1935 11.6201 107.8844 0.0000 0.0000 0.0000
# 4 0.0000 0.0000 0.0000 15.9568 0.0000 0.0000
# 5 0.0000 0.0000 0.0000 0.0000 18.9432 0.0000
# 6 0.0000 0.0000 0.0000 0.0000 0.0000 29.6929
#
#
#
# Elastic Compliance Matrix: (Units=1/GPa)
#
#
# Indices 1 2 3 4 5 6 
#
# 1 0.021785 -0.009524 -0.004667 0.000000 0.000000 0.000000
# 2 -0.009524 0.020573 0.000273 0.000000 0.000000 0.000000
# 3 -0.004667 0.000273 0.010459 0.000000 0.000000 0.000000
# 4 0.000000 0.000000 0.000000 0.062669 0.000000 0.000000
# 5 0.000000 0.000000 0.000000 0.000000 0.052789 0.000000
# 6 0.000000 0.000000 0.000000 0.000000 0.000000 0.033678
#
#
# Mechanical properties :
#
#
# Convention : Reuss Voigt Hill
#
# Bulk Modulus (GPa) = 40.03082 41.55369 40.79226
# Shear Modulus (GPa) = 20.99806 23.95217 22.47511
#
# Velocity S-wave (km/s) = 3.30431 3.52910 3.41855
# Velocity P-wave (km/s) = 5.94752 6.18166 6.06572
#
# Compressibility (1/GPa) = 0.02498075
#
# Stress axis : x y z
#
# Youngs Moduli (GPa) = 45.90330 48.60762 95.60721
#
# Poissons Ratio (x) = 0.46294 0.44622
# Poissons Ratio (y) = 0.43719 -0.02611
# Poissons Ratio (z) = 0.21424 -0.01327
#
# Static dielectric constant tensor:
#      x y z
#    x 1.723700 0.000000 0.000000 
#    y 0.000000 1.653350 0.000000 
#    z 0.000000 0.000000 1.676580 
# 
# From -- ./inp_files/6622.got.cif
#   From: 2010.05.17/outbox.cif.g08.bks.cpg/sg62_4_cif.got.tgz:6622.got - 2010.06.03 15:25:27.
