data_PCOD9464863
_publ_section_title
;
Structure prediction by ZEFSAII (Michael W. Deem and Ramdas Pophale) SiO2 
 PCOD9464863
Probable space group: P N M A
;
_chemical_formula_sum "Si O2"
_cell_formula_units_Z 48
_cell_length_a 14.636141
_cell_length_b 7.728950
_cell_length_c 20.652227
_cell_angle_alpha 90.000000
_cell_angle_beta 90.000000
_cell_angle_gamma 90.000000
_cell_volume 2336.221264
_symmetry_space_group_name_H-M "P N M A"
_symmetry_group_IT_number 62
_symmetry_cell_setting 'orthorhombic'
loop_
_space_group_symop_operation_xyz
x,y,z
1/2-x,-y,1/2+z
1/2+x,1/2-y,1/2-z
-x,1/2+y,-z
-x,-y,-z
1/2+x,y,1/2-z
1/2-x,1/2+y,1/2+z
x,1/2-y,z
loop_
_atom_site_type_symbol
_atom_site_label
_atom_site_fract_x
_atom_site_fract_y
_atom_site_fract_z
Si Si1 0.159000 0.462568 0.418495
Si Si2 0.150685 0.544705 0.167329
Si Si3 0.540847 0.549148 0.886636
Si Si4 0.528346 0.454840 0.737850
Si Si5 0.229648 0.450877 0.553436
Si Si6 0.231115 0.957673 0.791370
O O1 0.157108 0.250000 0.418917
O O2 0.211400 0.524848 0.482326
O O3 0.209595 0.516360 0.352830
O O4 0.053293 0.518479 0.417471
O O5 0.138464 0.750000 0.157035
O O6 0.195008 0.470942 0.101738
O O7 0.223108 0.521757 0.225214
O O8 0.054587 0.475548 0.194085
O O9 0.551825 0.750000 0.904370
O O10 0.529469 0.536660 0.809203
O O11 0.632335 0.456842 0.909797
O O12 0.514125 0.250000 0.747606
O O13 0.626612 0.483844 0.705936
O O14 0.254221 0.250000 0.543493
O O15 0.232957 0.750000 0.789915
#
# Coordination Sequence:
#
# PCOD9464863 Si02
#       6
#     8   8   8   8   8   8
#     4   9  20  36  55  81 114 148 182 224 280 335
#     4  10  21  36  57  81 109 146 187 229 273 327
#     4  11  20  33  54  84 114 143 181 229 280 332
#     4  11  22  36  54  82 113 145 186 230 277 329
#     4  10  20  37  57  80 112 149 184 224 279 335
#     4  11  21  36  58  82 111 145 185 232 275 326
#
# _framework density 20.545999999999999
#
# number of rings (size 3 to 8) (size 9 to 14) (size 15 to 20)
#    0.000    1.667    3.333    2.000    0.000    0.667 
#    0.000    3.333    0.000    0.000    0.000    0.000 
#    0.000    0.000    0.000    0.000    0.000    0.000 
#
# Total GULP energy -268158.759717 kJ/mol
# GULP energy per Si atom -5586.640827 kJ/mol
# Density = 2.049924 g / cm^3
# Si number density = 20.546000 Si / 1000 Ang^3
#
#
#
# Elastic Constant Matrix: (Units=GPa)
#
#
# Indices 1 2 3 4 5 6 
#
# 1 66.8775 -14.5574 -14.7676 0.0000 0.0000 0.0000
# 2 -14.5574 35.8599 -10.9105 0.0000 0.0000 0.0000
# 3 -14.7676 -10.9105 43.3255 0.0000 0.0000 0.0000
# 4 0.0000 0.0000 0.0000 9.4043 0.0000 0.0000
# 5 0.0000 0.0000 0.0000 0.0000 29.3476 0.0000
# 6 0.0000 0.0000 0.0000 0.0000 0.0000 13.7786
#
#
#
# Elastic Compliance Matrix: (Units=1/GPa)
#
#
# Indices 1 2 3 4 5 6 
#
# 1 0.019321 0.010664 0.009271 0.000000 0.000000 0.000000
# 2 0.010664 0.036086 0.012722 0.000000 0.000000 0.000000
# 3 0.009271 0.012722 0.029445 0.000000 0.000000 0.000000
# 4 0.000000 0.000000 0.000000 0.106335 0.000000 0.000000
# 5 0.000000 0.000000 0.000000 0.000000 0.034074 0.000000
# 6 0.000000 0.000000 0.000000 0.000000 0.000000 0.072576
#
#
# Mechanical properties :
#
#
# Convention : Reuss Voigt Hill
#
# Bulk Modulus (GPa) = 6.65918 7.28800 6.97359
# Shear Modulus (GPa) = 17.69421 22.92597 20.31009
#
# Velocity S-wave (km/s) = 2.93780 3.34404 3.14748
# Velocity P-wave (km/s) = 3.84132 4.29709 4.07558
#
# Compressibility (1/GPa) = 0.15016858
#
# Stress axis : x y z
#
# Youngs Moduli (GPa) = 51.75643 27.71133 33.96156
#
# Poissons Ratio (x) = -0.29552 -0.31487
# Poissons Ratio (y) = -0.55195 -0.43207
# Poissons Ratio (z) = -0.47985 -0.35256
#
# Static dielectric constant tensor:
#      x y z
#    x 1.723210 0.000000 0.000000 
#    y 0.000000 1.771700 0.000000 
#    z 0.000000 0.000000 1.717360 
# 
# From -- ./inp_files/23692.got.cif
#   From: 2010.05.17/outbox.cif.g08.bks.cpg/sg62_12_cif.got.tgz:23692.got - 2010.06.03 15:25:27.
