data_PCOD9464550
_publ_section_title
;
Structure prediction by ZEFSAII (Michael W. Deem and Ramdas Pophale) SiO2 
 PCOD9464550
Probable space group: P N M A
;
_chemical_formula_sum "Si O2"
_cell_formula_units_Z 40
_cell_length_a 12.750698
_cell_length_b 9.067394
_cell_length_c 16.440132
_cell_angle_alpha 90.000000
_cell_angle_beta 90.000000
_cell_angle_gamma 90.000000
_cell_volume 1900.735767
_symmetry_space_group_name_H-M "P N M A"
_symmetry_group_IT_number 62
_symmetry_cell_setting 'orthorhombic'
loop_
_space_group_symop_operation_xyz
x,y,z
1/2-x,-y,1/2+z
1/2+x,1/2-y,1/2-z
-x,1/2+y,-z
-x,-y,-z
1/2+x,y,1/2-z
1/2-x,1/2+y,1/2+z
x,1/2-y,z
loop_
_atom_site_type_symbol
_atom_site_label
_atom_site_fract_x
_atom_site_fract_y
_atom_site_fract_z
Si Si1 0.578209 0.912919 0.896156
Si Si2 0.384535 0.413564 0.913211
Si Si3 0.979266 0.573669 0.911371
Si Si4 0.276154 0.076448 0.666615
Si Si5 0.677433 0.423936 0.659198
O O1 0.599398 0.750000 0.861751
O O2 0.464205 0.973486 0.871963
O O3 0.667588 0.028780 0.875020
O O4 0.581616 0.900803 0.993541
O O5 0.394745 0.250000 0.875251
O O6 0.262213 0.452453 0.911514
O O7 0.976007 0.750000 0.919799
O O8 0.075491 0.521426 0.854044
O O9 0.871855 0.514307 0.871403
O O10 0.000000 0.500000 0.000000
O O11 0.297163 0.250000 0.656512
O O12 0.247320 0.047167 0.760835
O O13 0.647714 0.250000 0.659344
#
# Coordination Sequence:
#
# PCOD9464550 Si02
#       5
#     8   8   8   8   8
#     4  10  20  35  59  90 123 159 205 260 314 374
#     4   9  19  37  60  86 118 160 206 255 311 376
#     4  12  26  45  70  98 133 175 224 276 329 395
#     4  11  24  41  64  93 130 172 215 264 322 386
#     4  10  23  42  65  92 127 171 217 265 322 386
#
# _framework density 21.044481999999999
#
# number of rings (size 3 to 8) (size 9 to 14) (size 15 to 20)
#    0.000    1.600    0.000    4.200    2.800    4.800 
#    0.000    0.000    0.000    0.000    0.000    0.000 
#    0.000    0.000    0.000    0.000    0.000    0.000 
#
# Total GULP energy -223327.040935 kJ/mol
# GULP energy per Si atom -5583.176023 kJ/mol
# Density = 2.099658 g / cm^3
# Si number density = 21.044482 Si / 1000 Ang^3
#
#
#
# Elastic Constant Matrix: (Units=GPa)
#
#
# Indices 1 2 3 4 5 6 
#
# 1 67.3753 24.1816 0.1189 0.0000 0.0000 0.0000
# 2 24.1816 92.4025 28.6410 0.0000 0.0000 0.0000
# 3 0.1189 28.6410 36.4753 0.0000 0.0000 0.0000
# 4 0.0000 0.0000 0.0000 24.0288 0.0000 0.0000
# 5 0.0000 0.0000 0.0000 0.0000 23.4262 0.0000
# 6 0.0000 0.0000 0.0000 0.0000 0.0000 42.2699
#
#
#
# Elastic Compliance Matrix: (Units=1/GPa)
#
#
# Indices 1 2 3 4 5 6 
#
# 1 0.016928 -0.005832 0.004524 0.000000 0.000000 0.000000
# 2 -0.005832 0.016313 -0.012790 0.000000 0.000000 0.000000
# 3 0.004524 -0.012790 0.037444 0.000000 0.000000 0.000000
# 4 0.000000 0.000000 0.000000 0.041617 0.000000 0.000000
# 5 0.000000 0.000000 0.000000 0.000000 0.042687 0.000000
# 6 0.000000 0.000000 0.000000 0.000000 0.000000 0.023657
#
#
# Mechanical properties :
#
#
# Convention : Reuss Voigt Hill
#
# Bulk Modulus (GPa) = 23.53576 33.57068 28.55322
# Shear Modulus (GPa) = 22.62393 27.49909 25.06151
#
# Velocity S-wave (km/s) = 3.28236 3.61877 3.45466
# Velocity P-wave (km/s) = 5.05700 5.78338 5.43235
#
# Compressibility (1/GPa) = 0.04248853
#
# Stress axis : x y z
#
# Youngs Moduli (GPa) = 59.07536 61.30097 26.70648
#
# Poissons Ratio (x) = 0.35753 -0.12083
# Poissons Ratio (y) = 0.34455 0.34158
# Poissons Ratio (z) = -0.26728 0.78405
#
# Static dielectric constant tensor:
#      x y z
#    x 1.773090 0.000000 0.000000 
#    y 0.000000 1.781430 0.000000 
#    z 0.000000 0.000000 1.742130 
# 
# From -- ./inp_files/22779.got.cif
#   From: 2010.05.17/outbox.cif.g08.bks.cpg/sg62_12_cif.got.tgz:22779.got - 2010.06.03 15:25:27.
