data_PCOD9464146
_publ_section_title
;
Structure prediction by ZEFSAII (Michael W. Deem and Ramdas Pophale) SiO2 
 PCOD9464146
Probable space group: P N M A
;
_chemical_formula_sum "Si O2"
_cell_formula_units_Z 56
_cell_length_a 15.089327
_cell_length_b 8.907669
_cell_length_c 21.677628
_cell_angle_alpha 90.000000
_cell_angle_beta 90.000000
_cell_angle_gamma 90.000000
_cell_volume 2913.705812
_symmetry_space_group_name_H-M "P N M A"
_symmetry_group_IT_number 62
_symmetry_cell_setting 'orthorhombic'
loop_
_space_group_symop_operation_xyz
x,y,z
1/2-x,-y,1/2+z
1/2+x,1/2-y,1/2-z
-x,1/2+y,-z
-x,-y,-z
1/2+x,y,1/2-z
1/2-x,1/2+y,1/2+z
x,1/2-y,z
loop_
_atom_site_type_symbol
_atom_site_label
_atom_site_fract_x
_atom_site_fract_y
_atom_site_fract_z
Si Si1 0.790909 0.429898 0.097908
Si Si2 0.519462 0.068874 0.566753
Si Si3 0.571196 0.574207 0.770029
Si Si4 0.518731 0.573201 0.910670
Si Si5 0.143610 0.926630 0.479081
Si Si6 0.573121 0.927380 0.312120
Si Si7 0.771044 0.572301 0.732883
O O1 0.802269 0.250000 0.100147
O O2 0.886056 0.507071 0.090553
O O3 0.727924 0.478780 0.041840
O O4 0.741700 0.477289 0.161661
O O5 0.522356 0.250000 0.563442
O O6 0.444656 0.024481 0.617213
O O7 0.500000 0.000000 0.500000
O O8 0.555439 0.750000 0.754165
O O9 0.538652 0.549328 0.839409
O O10 0.515760 0.472341 0.724212
O O11 0.675451 0.547918 0.763771
O O12 0.495687 0.750000 0.919907
O O13 0.438303 0.473629 0.935187
O O14 0.605104 0.543413 0.952669
O O15 0.162737 0.750000 0.473315
O O16 0.585059 0.750000 0.312108
O O17 0.653118 0.998689 0.273751
O O18 0.789729 0.750000 0.730763
#
# Coordination Sequence:
#
# PCOD9464146 Si02
#       7
#     8   8   8   8   8   8   8
#     4  11  22  39  62  89 120 159 208 254 303 369
#     4  11  25  44  65  90 122 162 206 256 314 374
#     4  10  20  38  61  84 113 153 199 244 292 355
#     4   9  19  35  55  82 116 154 200 247 296 358
#     4  10  20  34  54  83 119 157 198 245 300 358
#     4  11  24  40  61  92 126 157 198 257 316 365
#     4  10  22  38  61  89 118 159 205 249 303 368
#
# _framework density 19.21951
#
# number of rings (size 3 to 8) (size 9 to 14) (size 15 to 20)
#    0.000    1.714    1.429    2.571    0.000    9.143 
#    0.000    1.429    0.000    0.000    0.000    0.000 
#    0.000    0.000    0.000    0.000    0.000    0.000 
#
# Total GULP energy -312818.397824 kJ/mol
# GULP energy per Si atom -5586.042818 kJ/mol
# Density = 1.917577 g / cm^3
# Si number density = 19.219510 Si / 1000 Ang^3
#
#
#
# Elastic Constant Matrix: (Units=GPa)
#
#
# Indices 1 2 3 4 5 6 
#
# 1 53.8530 22.0282 31.9162 0.0000 0.0000 0.0000
# 2 22.0282 39.4834 38.5533 0.0000 0.0000 0.0000
# 3 31.9162 38.5533 104.1313 0.0000 0.0000 0.0000
# 4 0.0000 0.0000 0.0000 25.9778 0.0000 0.0000
# 5 0.0000 0.0000 0.0000 0.0000 21.4060 0.0000
# 6 0.0000 0.0000 0.0000 0.0000 0.0000 21.6450
#
#
#
# Elastic Compliance Matrix: (Units=1/GPa)
#
#
# Indices 1 2 3 4 5 6 
#
# 1 0.025041 -0.010143 -0.003920 0.000000 0.000000 0.000000
# 2 -0.010143 0.043776 -0.013099 0.000000 0.000000 0.000000
# 3 -0.003920 -0.013099 0.015654 0.000000 0.000000 0.000000
# 4 0.000000 0.000000 0.000000 0.038494 0.000000 0.000000
# 5 0.000000 0.000000 0.000000 0.000000 0.046716 0.000000
# 6 0.000000 0.000000 0.000000 0.000000 0.000000 0.046200
#
#
# Mechanical properties :
#
#
# Convention : Reuss Voigt Hill
#
# Bulk Modulus (GPa) = 33.16939 42.49591 37.83265
# Shear Modulus (GPa) = 17.84088 20.80376 19.32232
#
# Velocity S-wave (km/s) = 3.05006 3.29360 3.17416
# Velocity P-wave (km/s) = 5.44972 6.05166 5.75856
#
# Compressibility (1/GPa) = 0.03014828
#
# Stress axis : x y z
#
# Youngs Moduli (GPa) = 39.93419 22.84334 63.88045
#
# Poissons Ratio (x) = 0.23171 0.25039
# Poissons Ratio (y) = 0.40507 0.83675
# Poissons Ratio (z) = 0.15653 0.29922
#
# Static dielectric constant tensor:
#      x y z
#    x 1.653720 0.000000 0.000000 
#    y 0.000000 1.644850 0.000000 
#    z 0.000000 0.000000 1.676690 
# 
# From -- ./inp_files/27210.got.cif
#   From: 2010.05.17/outbox.cif.g08.bks.cpg/sg62_14_cif.got.tgz:27210.got - 2010.06.03 15:25:27.
