data_PCOD9464387
_publ_section_title
;
Structure prediction by ZEFSAII (Michael W. Deem and Ramdas Pophale) SiO2 
 PCOD9464387
Probable space group: P N M A
;
_chemical_formula_sum "Si O2"
_cell_formula_units_Z 64
_cell_length_a 12.504186
_cell_length_b 9.492221
_cell_length_c 28.751961
_cell_angle_alpha 90.000000
_cell_angle_beta 90.000000
_cell_angle_gamma 90.000000
_cell_volume 3412.642043
_symmetry_space_group_name_H-M "P N M A"
_symmetry_group_IT_number 62
_symmetry_cell_setting 'orthorhombic'
loop_
_space_group_symop_operation_xyz
x,y,z
1/2-x,-y,1/2+z
1/2+x,1/2-y,1/2-z
-x,1/2+y,-z
-x,-y,-z
1/2+x,y,1/2-z
1/2-x,1/2+y,1/2+z
x,1/2-y,z
loop_
_atom_site_type_symbol
_atom_site_label
_atom_site_fract_x
_atom_site_fract_y
_atom_site_fract_z
Si Si1 0.165108 0.081331 0.874492
Si Si2 0.939627 0.415434 0.208315
Si Si3 0.228949 0.418145 0.029868
Si Si4 0.149874 0.586915 0.688074
Si Si5 0.638181 0.912048 0.323882
Si Si6 0.543582 0.911332 0.428178
Si Si7 0.860386 0.082419 0.562003
Si Si8 0.565890 0.915543 0.909929
O O1 0.151136 0.250000 0.866011
O O2 0.283041 0.056248 0.894042
O O3 0.077024 0.044782 0.914423
O O4 0.137040 0.993829 0.828641
O O5 0.948085 0.250000 0.196518
O O6 0.899353 0.427432 0.260970
O O7 0.052550 0.492956 0.202944
O O8 0.211050 0.250000 0.028986
O O9 0.116688 0.494241 0.038778
O O10 0.316209 0.450057 0.070177
O O11 0.290802 0.459205 0.982912
O O12 0.187237 0.750000 0.682490
O O13 0.246951 0.480341 0.682347
O O14 0.068662 0.561853 0.645518
O O15 0.634935 0.750000 0.308368
O O16 0.602439 0.914357 0.377859
O O17 0.540382 0.750000 0.444998
O O18 0.879337 0.250000 0.558563
O O19 0.971899 0.003068 0.566544
O O20 0.548755 0.750000 0.919530
#
# Coordination Sequence:
#
# PCOD9464387 Si02
#       8
#     8   8   8   8   8   8   8   8
#     4   9  20  39  56  78 115 150 185 234 285 334
#     4  10  21  36  57  83 111 146 186 229 281 336
#     4  10  20  35  57  83 110 146 187 231 282 333
#     4  10  21  37  57  82 111 144 185 234 280 329
#     4  10  20  35  56  81 110 144 181 228 280 330
#     4   9  18  33  55  80 107 141 181 229 278 328
#     4  10  22  38  56  80 114 152 187 230 282 335
#     4  10  21  37  56  80 112 146 185 234 281 333
#
# _framework density 18.753799000000001
#
# number of rings (size 3 to 8) (size 9 to 14) (size 15 to 20)
#    0.000    2.250    1.250    1.875    0.000    6.500 
#    0.000    3.750    0.000    0.000    0.000    0.000 
#    0.000    0.000    0.000    0.000    0.000    0.000 
#
# Total GULP energy -357205.653205 kJ/mol
# GULP energy per Si atom -5581.338331 kJ/mol
# Density = 1.871111 g / cm^3
# Si number density = 18.753799 Si / 1000 Ang^3
#
#
#
# Elastic Constant Matrix: (Units=GPa)
#
#
# Indices 1 2 3 4 5 6 
#
# 1 40.7453 19.9955 -2.6334 0.0000 0.0000 0.0000
# 2 19.9955 48.6910 21.0655 0.0000 0.0000 0.0000
# 3 -2.6334 21.0655 53.0219 0.0000 0.0000 0.0000
# 4 0.0000 0.0000 0.0000 25.3020 0.0000 0.0000
# 5 0.0000 0.0000 0.0000 0.0000 17.2667 0.0000
# 6 0.0000 0.0000 0.0000 0.0000 0.0000 27.9032
#
#
#
# Elastic Compliance Matrix: (Units=1/GPa)
#
#
# Indices 1 2 3 4 5 6 
#
# 1 0.033745 -0.017610 0.008672 0.000000 0.000000 0.000000
# 2 -0.017610 0.033990 -0.014379 0.000000 0.000000 0.000000
# 3 0.008672 -0.014379 0.025004 0.000000 0.000000 0.000000
# 4 0.000000 0.000000 0.000000 0.039523 0.000000 0.000000
# 5 0.000000 0.000000 0.000000 0.000000 0.057915 0.000000
# 6 0.000000 0.000000 0.000000 0.000000 0.000000 0.035838
#
#
# Mechanical properties :
#
#
# Convention : Reuss Voigt Hill
#
# Bulk Modulus (GPa) = 21.68904 24.36814 23.02859
# Shear Modulus (GPa) = 17.36015 21.02976 19.19496
#
# Velocity S-wave (km/s) = 3.04581 3.35230 3.20273
# Velocity P-wave (km/s) = 4.89485 5.29205 5.09732
#
# Compressibility (1/GPa) = 0.04610624
#
# Stress axis : x y z
#
# Youngs Moduli (GPa) = 29.63389 29.42026 39.99434
#
# Poissons Ratio (x) = 0.51809 -0.34684
# Poissons Ratio (y) = 0.52185 0.57507
# Poissons Ratio (z) = -0.25700 0.42303
#
# Static dielectric constant tensor:
#      x y z
#    x 1.628190 0.000000 0.000000 
#    y 0.000000 1.630540 0.000000 
#    z 0.000000 0.000000 1.665230 
# 
# From -- ./inp_files/32474.got.cif
#   From: 2010.05.17/outbox.cif.g08.bks.cpg/sg62_17_cif.got.tgz:32474.got - 2010.06.03 15:25:27.
