data_PCOD9464393
_publ_section_title
;
Structure prediction by ZEFSAII (Michael W. Deem and Ramdas Pophale) SiO2 
 PCOD9464393
Probable space group: P N M A
;
_chemical_formula_sum "Si O2"
_cell_formula_units_Z 64
_cell_length_a 24.622819
_cell_length_b 9.360201
_cell_length_c 14.173675
_cell_angle_alpha 90.000000
_cell_angle_beta 90.000000
_cell_angle_gamma 90.000000
_cell_volume 3266.671155
_symmetry_space_group_name_H-M "P N M A"
_symmetry_group_IT_number 62
_symmetry_cell_setting 'orthorhombic'
loop_
_space_group_symop_operation_xyz
x,y,z
1/2-x,-y,1/2+z
1/2+x,1/2-y,1/2-z
-x,1/2+y,-z
-x,-y,-z
1/2+x,y,1/2-z
1/2-x,1/2+y,1/2+z
x,1/2-y,z
loop_
_atom_site_type_symbol
_atom_site_label
_atom_site_fract_x
_atom_site_fract_y
_atom_site_fract_z
Si Si1 0.441717 0.078495 0.270712
Si Si2 0.376157 0.584458 0.893696
Si Si3 0.118127 0.079337 0.613050
Si Si4 0.162571 0.917129 0.116050
Si Si5 0.835804 0.415541 0.110908
Si Si6 0.769495 0.088065 0.613774
Si Si7 0.729396 0.585097 0.883761
Si Si8 0.063475 0.417496 0.207547
O O1 0.441054 0.250000 0.252783
O O2 0.392799 0.043998 0.342194
O O3 0.501137 0.043311 0.310393
O O4 0.428041 0.991765 0.176469
O O5 0.358202 0.750000 0.892036
O O6 0.325375 0.489764 0.861763
O O7 0.424384 0.568487 0.819344
O O8 0.390982 0.551692 0.001654
O O9 0.121841 0.250000 0.627200
O O10 0.174780 0.001501 0.639463
O O11 0.166693 0.750000 0.140586
O O12 0.216230 0.003589 0.147599
O O13 0.108220 0.987847 0.156077
O O14 0.160419 0.927672 0.002152
O O15 0.825300 0.250000 0.133263
O O16 0.784589 0.506752 0.144619
O O17 0.769125 0.250000 0.646992
O O18 0.768511 0.087737 0.498702
O O19 0.727481 0.750000 0.851758
O O20 0.071641 0.250000 0.182882
#
# Coordination Sequence:
#
# PCOD9464393 Si02
#       8
#     8   8   8   8   8   8   8   8
#     4  10  22  39  56  76 105 144 188 225 262 318
#     4   9  19  36  56  78 108 143 174 213 269 323
#     4  10  20  35  56  82 110 139 174 220 271 317
#     4  10  20  35  56  82 110 139 174 220 271 317
#     4   9  19  36  56  78 108 143 174 213 269 323
#     4   9  17  30  53  84 110 134 172 218 261 315
#     4   9  17  32  55  82 110 140 174 212 261 323
#     4  10  22  39  56  76 105 144 188 225 262 318
#
# _framework density 19.591809000000001
#
# number of rings (size 3 to 8) (size 9 to 14) (size 15 to 20)
#    0.000    2.500    0.000    1.500    0.000    7.500 
#    0.000    1.250    0.000    0.000    0.000    0.000 
#    0.000    0.000    0.000    0.000    0.000    0.000 
#
# Total GULP energy -357487.636249 kJ/mol
# GULP energy per Si atom -5585.744316 kJ/mol
# Density = 1.954722 g / cm^3
# Si number density = 19.591809 Si / 1000 Ang^3
#
#
#
# Elastic Constant Matrix: (Units=GPa)
#
#
# Indices 1 2 3 4 5 6 
#
# 1 74.6593 23.4359 2.0567 0.0000 0.0000 0.0000
# 2 23.4359 51.2038 9.8082 0.0000 0.0000 0.0000
# 3 2.0567 9.8082 39.2185 0.0000 0.0000 0.0000
# 4 0.0000 0.0000 0.0000 19.8601 0.0000 0.0000
# 5 0.0000 0.0000 0.0000 0.0000 27.9754 0.0000
# 6 0.0000 0.0000 0.0000 0.0000 0.0000 29.8584
#
#
#
# Elastic Compliance Matrix: (Units=1/GPa)
#
#
# Indices 1 2 3 4 5 6 
#
# 1 0.015680 -0.007373 0.001022 0.000000 0.000000 0.000000
# 2 -0.007373 0.023979 -0.005610 0.000000 0.000000 0.000000
# 3 0.001022 -0.005610 0.026848 0.000000 0.000000 0.000000
# 4 0.000000 0.000000 0.000000 0.050352 0.000000 0.000000
# 5 0.000000 0.000000 0.000000 0.000000 0.035746 0.000000
# 6 0.000000 0.000000 0.000000 0.000000 0.000000 0.033491
#
#
# Mechanical properties :
#
#
# Convention : Reuss Voigt Hill
#
# Bulk Modulus (GPa) = 23.48286 26.18701 24.83493
# Shear Modulus (GPa) = 22.30015 24.19081 23.24548
#
# Velocity S-wave (km/s) = 3.37744 3.51770 3.44828
# Velocity P-wave (km/s) = 5.21743 5.46757 5.34396
#
# Compressibility (1/GPa) = 0.04258426
#
# Stress axis : x y z
#
# Youngs Moduli (GPa) = 63.77424 41.70340 37.24718
#
# Poissons Ratio (x) = 0.30746 -0.03805
# Poissons Ratio (y) = 0.47018 0.20897
# Poissons Ratio (z) = -0.06515 0.23397
#
# Static dielectric constant tensor:
#      x y z
#    x 1.640360 0.000000 0.000000 
#    y 0.000000 1.662970 0.000000 
#    z 0.000000 0.000000 1.726790 
# 
# From -- ./inp_files/21007.got.cif
#   From: 2010.05.17/outbox.cif.g08.bks.cpg/sg62_11_cif.got.tgz:21007.got - 2010.06.03 15:25:27.
