data_PCOD9464277
_publ_section_title
;
Structure prediction by ZEFSAII (Michael W. Deem and Ramdas Pophale) SiO2 
 PCOD9464277
Probable space group: P N M A
;
_chemical_formula_sum "Si O2"
_cell_formula_units_Z 48
_cell_length_a 14.975840
_cell_length_b 29.158801
_cell_length_c 4.908002
_cell_angle_alpha 90.000000
_cell_angle_beta 90.000000
_cell_angle_gamma 90.000000
_cell_volume 2143.214232
_symmetry_space_group_name_H-M "P N M A"
_symmetry_group_IT_number 62
_symmetry_cell_setting 'orthorhombic'
loop_
_space_group_symop_operation_xyz
x,y,z
1/2-x,-y,1/2+z
1/2+x,1/2-y,1/2-z
-x,1/2+y,-z
-x,-y,-z
1/2+x,y,1/2-z
1/2-x,1/2+y,1/2+z
x,1/2-y,z
loop_
_atom_site_type_symbol
_atom_site_label
_atom_site_fract_x
_atom_site_fract_y
_atom_site_fract_z
Si Si1 0.921396 0.093895 0.415320
Si Si2 0.387576 0.600063 0.744901
Si Si3 0.675561 0.750000 0.501003
Si Si4 0.135197 0.849026 0.102613
Si Si5 0.736854 0.529536 0.876179
Si Si6 0.195727 0.250000 0.987676
Si Si7 0.656900 0.155621 0.757700
O O1 0.924403 0.132248 0.651435
O O2 0.852143 0.053988 0.487548
O O3 0.019898 0.077865 0.335769
O O4 0.879473 0.117625 0.149225
O O5 0.304391 0.565986 0.759608
O O6 0.386609 0.618141 0.437744
O O7 0.374118 0.644601 0.937819
O O8 0.622683 0.702390 0.514280
O O9 0.715262 0.750000 0.197356
O O10 0.761348 0.750000 0.708463
O O11 0.235860 0.851014 0.221580
O O12 0.716361 0.494093 0.634536
O O13 0.144149 0.295205 0.885327
#
# Coordination Sequence:
#
# PCOD9464277 Si02
#       7
#     8   8   4   8   8   4   8
#     4  12  25  43  68 100 133 173 220 277 340 406
#     4  12  25  43  68 100 133 173 220 277 340 406
#     4  10  20  34  63 102 131 179 232 265 309 378
#     4  11  20  41  66  95 137 181 223 270 324 394
#     4  12  26  46  72  95 128 171 220 284 352 416
#     4  10  20  34  63 102 131 179 232 265 309 378
#     4  11  20  41  66  95 137 181 223 270 324 394
#
# _framework density 22.396267000000002
#
# number of rings (size 3 to 8) (size 9 to 14) (size 15 to 20)
#    0.000    0.667    3.333    7.000    0.000    1.333 
#    0.000    5.000    0.000    0.000    0.000    0.000 
#    0.000    0.000    0.000    0.000    0.000    0.000 
#
# Total GULP energy -268174.012548 kJ/mol
# GULP energy per Si atom -5586.958595 kJ/mol
# Density = 2.234529 g / cm^3
# Si number density = 22.396267 Si / 1000 Ang^3
#
#
#
# Elastic Constant Matrix: (Units=GPa)
#
#
# Indices 1 2 3 4 5 6 
#
# 1 75.3335 26.9116 2.7613 0.0000 0.0000 0.0000
# 2 26.9116 53.5396 13.5320 0.0000 0.0000 0.0000
# 3 2.7613 13.5320 90.2036 0.0000 0.0000 0.0000
# 4 0.0000 0.0000 0.0000 34.5196 0.0000 0.0000
# 5 0.0000 0.0000 0.0000 0.0000 29.6589 0.0000
# 6 0.0000 0.0000 0.0000 0.0000 0.0000 0.1174
#
#
#
# Elastic Compliance Matrix: (Units=1/GPa)
#
#
# Indices 1 2 3 4 5 6 
#
# 1 0.016229 -0.008348 0.000756 0.000000 0.000000 0.000000
# 2 -0.008348 0.023708 -0.003301 0.000000 0.000000 0.000000
# 3 0.000756 -0.003301 0.011558 0.000000 0.000000 0.000000
# 4 0.000000 0.000000 0.000000 0.028969 0.000000 0.000000
# 5 0.000000 0.000000 0.000000 0.000000 0.033717 0.000000
# 6 0.000000 0.000000 0.000000 0.000000 0.000000 8.516333
#
#
# Mechanical properties :
#
#
# Convention : Reuss Voigt Hill
#
# Bulk Modulus (GPa) = 33.66135 33.94295 33.80215
# Shear Modulus (GPa) = 0.57722 24.58397 12.58059
#
# Velocity S-wave (km/s) = 0.50822 3.31672 2.37265
# Velocity P-wave (km/s) = 3.92516 5.46407 4.75726
#
# Compressibility (1/GPa) = 0.02970766
#
# Stress axis : x y z
#
# Youngs Moduli (GPa) = 61.61823 42.17901 86.51927
#
# Poissons Ratio (x) = 0.35213 -0.06537
# Poissons Ratio (y) = 0.51442 0.28561
# Poissons Ratio (z) = -0.04656 0.13924
#
# Static dielectric constant tensor:
#      x y z
#    x 1.838570 0.000000 0.000000 
#    y 0.000000 1.891560 0.000000 
#    z 0.000000 0.000000 1.776050 
# 
# From -- ./inp_files/1187.got.cif
#   From: 2010.05.17/outbox.cif.g08.bks.cpg/sg62_1_cif.got.tgz:1187.got - 2010.06.03 15:25:27.
