data_PCOD9464646
_publ_section_title
;
Structure prediction by ZEFSAII (Michael W. Deem and Ramdas Pophale) SiO2 
 PCOD9464646
Probable space group: P N M A
;
_chemical_formula_sum "Si O2"
_cell_formula_units_Z 64
_cell_length_a 22.489915
_cell_length_b 8.395225
_cell_length_c 17.819608
_cell_angle_alpha 90.000000
_cell_angle_beta 90.000000
_cell_angle_gamma 90.000000
_cell_volume 3364.482706
_symmetry_space_group_name_H-M "P N M A"
_symmetry_group_IT_number 62
_symmetry_cell_setting 'orthorhombic'
loop_
_space_group_symop_operation_xyz
x,y,z
1/2-x,-y,1/2+z
1/2+x,1/2-y,1/2-z
-x,1/2+y,-z
-x,-y,-z
1/2+x,y,1/2-z
1/2-x,1/2+y,1/2+z
x,1/2-y,z
loop_
_atom_site_type_symbol
_atom_site_label
_atom_site_fract_x
_atom_site_fract_y
_atom_site_fract_z
Si Si1 0.280371 0.057514 0.660924
Si Si2 0.384237 0.442183 0.772078
Si Si3 0.969197 0.557746 0.853063
Si Si4 0.074649 0.557463 0.429952
Si Si5 0.635605 0.440366 0.464649
Si Si6 0.938194 0.558651 0.410090
Si Si7 0.104910 0.559559 0.872961
Si Si8 0.348767 0.557166 0.216306
O O1 0.280921 0.250000 0.659217
O O2 0.326690 0.004043 0.725554
O O3 0.214261 0.005000 0.681888
O O4 0.307653 0.997215 0.582966
O O5 0.384845 0.250000 0.771797
O O6 0.441527 0.498721 0.725164
O O7 0.387035 0.494284 0.858342
O O8 0.969189 0.750000 0.852682
O O9 0.923014 0.504112 0.917866
O O10 0.036254 0.501414 0.866724
O O11 0.075216 0.750000 0.433805
O O12 0.091245 0.491858 0.511280
O O13 0.006655 0.504139 0.413151
O O14 0.634853 0.250000 0.465540
O O15 0.632247 0.502618 0.548828
O O16 0.939367 0.750000 0.406847
O O17 0.901578 0.500472 0.338525
O O18 0.103738 0.750000 0.872429
O O19 0.140169 0.500215 0.800353
O O20 0.349148 0.750000 0.216740
#
# Coordination Sequence:
#
# PCOD9464646 Si02
#       8
#     8   8   8   8   8   8   8   8
#     4   9  19  37  57  75 104 140 177 220 265 312
#     4   9  17  31  53  78 103 137 175 215 262 312
#     4   9  19  33  52  81 113 142 173 216 267 320
#     4   9  17  30  49  75 103 129 168 215 259 312
#     4  10  20  36  57  80 108 142 180 219 266 320
#     4   9  18  32  50  72 100 135 169 209 263 314
#     4  11  22  35  54  82 112 140 176 220 268 320
#     4  10  21  38  56  75 106 144 181 221 267 319
#
# _framework density 19.022241000000001
#
# number of rings (size 3 to 8) (size 9 to 14) (size 15 to 20)
#    0.000    2.500    0.000    1.875    0.000    4.000 
#    2.250    2.500    0.000    0.000    0.000    0.000 
#    0.000    0.000    0.000    0.000    0.000    0.000 
#
# Total GULP energy -357143.547688 kJ/mol
# GULP energy per Si atom -5580.367933 kJ/mol
# Density = 1.897895 g / cm^3
# Si number density = 19.022241 Si / 1000 Ang^3
#
#
#
# Elastic Constant Matrix: (Units=GPa)
#
#
# Indices 1 2 3 4 5 6 
#
# 1 62.7763 11.9155 20.4687 0.0000 0.0000 0.0000
# 2 11.9155 3.9238 5.1450 0.0000 0.0000 0.0000
# 3 20.4687 5.1450 101.8008 0.0000 0.0000 0.0000
# 4 0.0000 0.0000 0.0000 29.9851 0.0000 0.0000
# 5 0.0000 0.0000 0.0000 0.0000 8.1803 0.0000
# 6 0.0000 0.0000 0.0000 0.0000 0.0000 16.8028
#
#
#
# Elastic Compliance Matrix: (Units=1/GPa)
#
#
# Indices 1 2 3 4 5 6 
#
# 1 0.037958 -0.112734 -0.001935 0.000000 0.000000 0.000000
# 2 -0.112734 0.607757 -0.008049 0.000000 0.000000 0.000000
# 3 -0.001935 -0.008049 0.010619 0.000000 0.000000 0.000000
# 4 0.000000 0.000000 0.000000 0.033350 0.000000 0.000000
# 5 0.000000 0.000000 0.000000 0.000000 0.122245 0.000000
# 6 0.000000 0.000000 0.000000 0.000000 0.000000 0.059514
#
#
# Mechanical properties :
#
#
# Convention : Reuss Voigt Hill
#
# Bulk Modulus (GPa) = 2.43369 27.06215 14.74792
# Shear Modulus (GPa) = 3.98774 19.72506 11.85640
#
# Velocity S-wave (km/s) = 1.44945 3.22366 2.49929
# Velocity P-wave (km/s) = 2.02074 5.30221 4.01228
#
# Compressibility (1/GPa) = 0.41089949
#
# Stress axis : x y z
#
# Youngs Moduli (GPa) = 26.34471 1.64540 94.17181
#
# Poissons Ratio (x) = 0.18549 0.18219
# Poissons Ratio (y) = 2.96993 0.75799
# Poissons Ratio (z) = 0.05097 0.01324
#
# Static dielectric constant tensor:
#      x y z
#    x 1.665060 0.000000 0.000000 
#    y 0.000000 1.649970 0.000000 
#    z 0.000000 0.000000 1.645480 
# 
# From -- ./inp_files/24686.got.cif
#   From: 2010.05.17/outbox.cif.g08.bks.cpg/sg62_13_cif.got.tgz:24686.got - 2010.06.03 15:25:27.
