data_PCOD9464178
_publ_section_title
;
Structure prediction by ZEFSAII (Michael W. Deem and Ramdas Pophale) SiO2 
 PCOD9464178
Probable space group: P N M A
;
_chemical_formula_sum "Si O2"
_cell_formula_units_Z 48
_cell_length_a 19.598978
_cell_length_b 8.582186
_cell_length_c 11.791542
_cell_angle_alpha 90.000000
_cell_angle_beta 90.000000
_cell_angle_gamma 90.000000
_cell_volume 1983.361827
_symmetry_space_group_name_H-M "P N M A"
_symmetry_group_IT_number 62
_symmetry_cell_setting 'orthorhombic'
loop_
_space_group_symop_operation_xyz
x,y,z
1/2-x,-y,1/2+z
1/2+x,1/2-y,1/2-z
-x,1/2+y,-z
-x,-y,-z
1/2+x,y,1/2-z
1/2-x,1/2+y,1/2+z
x,1/2-y,z
loop_
_atom_site_type_symbol
_atom_site_label
_atom_site_fract_x
_atom_site_fract_y
_atom_site_fract_z
Si Si1 0.466998 0.574346 0.670003
Si Si2 0.597316 0.076496 0.578073
Si Si3 0.236153 0.570541 0.943671
Si Si4 0.408954 0.934101 0.109337
Si Si5 0.070115 0.934823 0.378078
Si Si6 0.227232 0.935893 0.693064
O O1 0.484211 0.750000 0.707605
O O2 0.434370 0.584643 0.546964
O O3 0.533723 0.467596 0.656597
O O4 0.413123 0.497015 0.754452
O O5 0.624589 0.250000 0.605927
O O6 0.654673 0.946743 0.571721
O O7 0.257733 0.750000 0.952118
O O8 0.257186 0.507311 0.816147
O O9 0.247834 0.494193 0.068407
O O10 0.404326 0.750000 0.124620
O O11 0.488928 0.978627 0.116727
O O12 0.353020 0.017114 0.186336
O O13 0.391551 0.980522 0.979335
O O14 0.076737 0.750000 0.390332
O O15 0.234746 0.750000 0.694315
#
# Coordination Sequence:
#
# PCOD9464178 Si02
#       6
#     8   8   8   8   8   8
#     4  10  20  34  55  85 121 158 197 245 300 361
#     4  10  21  37  58  85 118 157 200 246 300 362
#     4  11  25  44  67  93 122 161 208 257 311 369
#     4  10  21  37  58  85 118 156 198 245 300 361
#     4  10  20  34  56  86 119 157 199 245 300 361
#     4  11  25  44  66  92 122 159 206 257 309 368
#
# _framework density 24.201333000000002
#
# number of rings (size 3 to 8) (size 9 to 14) (size 15 to 20)
#    0.000    1.667    0.000    4.000    0.000   10.667 
#    0.000    1.667    0.000    0.000    0.000    0.000 
#    0.000    0.000    0.000    0.000    0.000    0.000 
#
# Total GULP energy -268030.189761 kJ/mol
# GULP energy per Si atom -5583.962287 kJ/mol
# Density = 2.414625 g / cm^3
# Si number density = 24.201333 Si / 1000 Ang^3
#
#
#
# Elastic Constant Matrix: (Units=GPa)
#
#
# Indices 1 2 3 4 5 6 
#
# 1 33.0033 3.4174 9.1321 0.0000 0.0000 0.0000
# 2 3.4174 56.7780 24.1028 0.0000 0.0000 0.0000
# 3 9.1321 24.1028 168.4796 0.0000 0.0000 0.0000
# 4 0.0000 0.0000 0.0000 26.3997 0.0000 0.0000
# 5 0.0000 0.0000 0.0000 0.0000 34.3953 0.0000
# 6 0.0000 0.0000 0.0000 0.0000 0.0000 32.1028
#
#
#
# Elastic Compliance Matrix: (Units=1/GPa)
#
#
# Indices 1 2 3 4 5 6 
#
# 1 0.030841 -0.001221 -0.001497 0.000000 0.000000 0.000000
# 2 -0.001221 0.018800 -0.002623 0.000000 0.000000 0.000000
# 3 -0.001497 -0.002623 0.006392 0.000000 0.000000 0.000000
# 4 0.000000 0.000000 0.000000 0.037879 0.000000 0.000000
# 5 0.000000 0.000000 0.000000 0.000000 0.029074 0.000000
# 6 0.000000 0.000000 0.000000 0.000000 0.000000 0.031150
#
#
# Mechanical properties :
#
#
# Convention : Reuss Voigt Hill
#
# Bulk Modulus (GPa) = 22.05077 36.84062 29.44569
# Shear Modulus (GPa) = 27.78799 33.35346 30.57073
#
# Velocity S-wave (km/s) = 3.39219 3.71639 3.55799
# Velocity P-wave (km/s) = 4.94709 5.80268 5.39188
#
# Compressibility (1/GPa) = 0.04534990
#
# Stress axis : x y z
#
# Youngs Moduli (GPa) = 32.42471 53.19270 156.44872
#
# Poissons Ratio (x) = 0.06494 0.23420
# Poissons Ratio (y) = 0.03958 0.41041
# Poissons Ratio (z) = 0.04854 0.13954
#
# Static dielectric constant tensor:
#      x y z
#    x 1.959920 0.000000 0.000000 
#    y 0.000000 1.838970 0.000000 
#    z 0.000000 0.000000 2.093890 
# 
# From -- ./inp_files/15133.got.cif
#   From: 2010.05.17/outbox.cif.g08.bks.cpg/sg62_8_cif.got.tgz:15133.got - 2010.06.03 15:25:27.
