data_PCOD9464122
_publ_section_title
;
Structure prediction by ZEFSAII (Michael W. Deem and Ramdas Pophale) SiO2 
 PCOD9464122
Probable space group: P N M A
;
_chemical_formula_sum "Si O2"
_cell_formula_units_Z 56
_cell_length_a 14.292767
_cell_length_b 13.965284
_cell_length_c 10.602772
_cell_angle_alpha 90.000000
_cell_angle_beta 90.000000
_cell_angle_gamma 90.000000
_cell_volume 2116.340331
_symmetry_space_group_name_H-M "P N M A"
_symmetry_group_IT_number 62
_symmetry_cell_setting 'orthorhombic'
loop_
_space_group_symop_operation_xyz
x,y,z
1/2-x,-y,1/2+z
1/2+x,1/2-y,1/2-z
-x,1/2+y,-z
-x,-y,-z
1/2+x,y,1/2-z
1/2-x,1/2+y,1/2+z
x,1/2-y,z
loop_
_atom_site_type_symbol
_atom_site_label
_atom_site_fract_x
_atom_site_fract_y
_atom_site_fract_z
Si Si1 0.759001 0.361610 0.463926
Si Si2 0.896608 0.140141 0.834800
Si Si3 0.598848 0.145400 0.142285
Si Si4 0.035632 0.602992 0.450293
Si Si5 0.292479 0.135647 0.311938
Si Si6 0.310503 0.635212 0.257336
Si Si7 0.033970 0.991518 0.808527
O O1 0.734344 0.250000 0.460164
O O2 0.746404 0.398441 0.322005
O O3 0.713319 0.393945 0.595547
O O4 0.869899 0.373460 0.474801
O O5 0.910471 0.250000 0.878412
O O6 0.785120 0.122040 0.823046
O O7 0.930912 0.130590 0.688949
O O8 0.967545 0.061233 0.892339
O O9 0.604854 0.250000 0.206316
O O10 0.702919 0.114146 0.103224
O O11 0.540595 0.072846 0.230030
O O12 0.546671 0.160266 0.012073
O O13 0.000000 0.500000 0.500000
O O14 0.310262 0.250000 0.306722
O O15 0.386932 0.083793 0.350626
O O16 0.331436 0.750000 0.254916
O O17 0.398015 0.565969 0.229979
#
# Coordination Sequence:
#
# PCOD9464122 Si02
#       7
#     8   8   8   8   8   8   8
#     4   9  17  34  54  73 100 137 178 215 256 313
#     4  10  20  34  54  81 110 137 171 218 268 318
#     4  11  22  35  53  79 109 142 178 220 263 313
#     4  11  18  31  53  80 106 136 173 219 267 313
#     4  10  21  35  53  77 107 142 179 217 259 312
#     4   9  20  35  55  79 104 136 176 219 263 317
#     4  12  20  33  52  80 109 138 175 215 269 310
#
# _framework density 26.46077
#
# number of rings (size 3 to 8) (size 9 to 14) (size 15 to 20)
#    0.000    1.714    2.857    3.857    2.000    0.000 
#    0.000    0.714    0.000    0.000    0.000    0.000 
#    0.000    0.000    0.000    0.000    0.000    0.000 
#
# Total GULP energy -312289.642568 kJ/mol
# GULP energy per Si atom -5576.600760 kJ/mol
# Density = 2.640054 g / cm^3
# Si number density = 26.460770 Si / 1000 Ang^3
#
#
#
# Elastic Constant Matrix: (Units=GPa)
#
#
# Indices 1 2 3 4 5 6 
#
# 1 153.4866 58.4926 50.8159 0.0000 0.0000 0.0000
# 2 58.4926 176.3141 19.5561 0.0000 0.0000 0.0000
# 3 50.8159 19.5561 59.2649 0.0000 0.0000 0.0000
# 4 0.0000 0.0000 0.0000 18.2892 0.0000 0.0000
# 5 0.0000 0.0000 0.0000 0.0000 30.3309 0.0000
# 6 0.0000 0.0000 0.0000 0.0000 0.0000 68.2531
#
#
#
# Elastic Compliance Matrix: (Units=1/GPa)
#
#
# Indices 1 2 3 4 5 6 
#
# 1 0.010034 -0.002465 -0.007790 0.000000 0.000000 0.000000
# 2 -0.002465 0.006493 -0.000029 0.000000 0.000000 0.000000
# 3 -0.007790 -0.000029 0.023562 0.000000 0.000000 0.000000
# 4 0.000000 0.000000 0.000000 0.054677 0.000000 0.000000
# 5 0.000000 0.000000 0.000000 0.000000 0.032970 0.000000
# 6 0.000000 0.000000 0.000000 0.000000 0.000000 0.014651
#
#
# Mechanical properties :
#
#
# Convention : Reuss Voigt Hill
#
# Bulk Modulus (GPa) = 51.22636 71.86607 61.54622
# Shear Modulus (GPa) = 29.50536 40.72137 35.11337
#
# Velocity S-wave (km/s) = 3.34287 3.92718 3.64675
# Velocity P-wave (km/s) = 5.85672 6.91246 6.40637
#
# Compressibility (1/GPa) = 0.01952120
#
# Stress axis : x y z
#
# Youngs Moduli (GPa) = 99.66591 154.02212 42.44063
#
# Poissons Ratio (x) = 0.37961 0.33061
# Poissons Ratio (y) = 0.24564 0.00124
# Poissons Ratio (z) = 0.77638 0.00449
#
# Static dielectric constant tensor:
#      x y z
#    x 2.083380 0.000000 0.000000 
#    y 0.000000 2.118540 0.000000 
#    z 0.000000 0.000000 2.107550 
# 
# From -- ./inp_files/19140.got.cif
#   From: 2010.05.17/outbox.cif.g08.bks.cpg/sg62_10_cif.got.tgz:19140.got - 2010.06.03 15:25:27.
