data_PCOD9464074
_publ_section_title
;
Structure prediction by ZEFSAII (Michael W. Deem and Ramdas Pophale) SiO2 
 PCOD9464074
Probable space group: P N M A
;
_chemical_formula_sum "Si O2"
_cell_formula_units_Z 64
_cell_length_a 15.730432
_cell_length_b 8.954590
_cell_length_c 23.511033
_cell_angle_alpha 90.000000
_cell_angle_beta 90.000000
_cell_angle_gamma 90.000000
_cell_volume 3311.753977
_symmetry_space_group_name_H-M "P N M A"
_symmetry_group_IT_number 62
_symmetry_cell_setting 'orthorhombic'
loop_
_space_group_symop_operation_xyz
x,y,z
1/2-x,-y,1/2+z
1/2+x,1/2-y,1/2-z
-x,1/2+y,-z
-x,-y,-z
1/2+x,y,1/2-z
1/2-x,1/2+y,1/2+z
x,1/2-y,z
loop_
_atom_site_type_symbol
_atom_site_label
_atom_site_fract_x
_atom_site_fract_y
_atom_site_fract_z
Si Si1 0.691004 0.926524 0.801692
Si Si2 0.613282 0.927760 0.541572
Si Si3 0.133710 0.928527 0.191803
Si Si4 0.032241 0.925341 0.404108
Si Si5 0.801770 0.927522 0.545810
Si Si6 0.480598 0.574032 0.227377
Si Si7 0.070695 0.073126 0.078540
Si Si8 0.640959 0.927094 0.932885
O O1 0.698582 0.750000 0.794241
O O2 0.674609 0.956094 0.869149
O O3 0.778124 0.006160 0.785259
O O4 0.607976 0.987276 0.769852
O O5 0.611489 0.750000 0.528221
O O6 0.706070 0.961455 0.566399
O O7 0.530957 0.957510 0.580277
O O8 0.600313 0.017872 0.483263
O O9 0.137590 0.750000 0.192440
O O10 0.053013 0.977488 0.229331
O O11 0.118345 0.987940 0.128377
O O12 0.024793 0.750000 0.418692
O O13 0.016532 0.941888 0.336695
O O14 0.123640 0.987345 0.421547
O O15 0.956650 0.017604 0.433910
O O16 0.815673 0.750000 0.549166
O O17 0.808727 0.981970 0.480501
O O18 0.464531 0.750000 0.236739
O O19 0.085240 0.250000 0.084068
O O20 0.646236 0.750000 0.943864
#
# Coordination Sequence:
#
# PCOD9464074 Si02
#       8
#     8   8   8   8   8   8   8   8
#     4  10  21  37  60  88 113 143 186 237 287 332
#     4   9  20  37  55  78 113 150 182 222 278 335
#     4  11  22  38  61  86 114 150 191 232 282 341
#     4  10  20  36  55  75 104 142 183 228 275 323
#     4  11  21  33  51  78 110 146 182 218 270 333
#     4   9  21  41  60  80 111 150 190 234 281 335
#     4  10  20  36  58  83 112 143 185 234 277 327
#     4  10  20  34  53  79 110 142 181 226 272 326
#
# _framework density 19.325108
#
# number of rings (size 3 to 8) (size 9 to 14) (size 15 to 20)
#    0.000    2.000    0.000    3.375    0.000    6.500 
#    2.250    0.000    0.000    0.000    0.000    0.000 
#    0.000    0.000    0.000    0.000    0.000    0.000 
#
# Total GULP energy -357561.290067 kJ/mol
# GULP energy per Si atom -5586.895157 kJ/mol
# Density = 1.928112 g / cm^3
# Si number density = 19.325108 Si / 1000 Ang^3
#
#
#
# Elastic Constant Matrix: (Units=GPa)
#
#
# Indices 1 2 3 4 5 6 
#
# 1 148.2162 47.4856 18.2932 0.0000 0.0000 0.0000
# 2 47.4856 47.0125 14.4554 0.0000 0.0000 0.0000
# 3 18.2932 14.4554 16.6312 0.0000 0.0000 0.0000
# 4 0.0000 0.0000 0.0000 18.1650 0.0000 0.0000
# 5 0.0000 0.0000 0.0000 0.0000 20.3803 0.0000
# 6 0.0000 0.0000 0.0000 0.0000 0.0000 32.2930
#
#
#
# Elastic Compliance Matrix: (Units=1/GPa)
#
#
# Indices 1 2 3 4 5 6 
#
# 1 0.010087 -0.009249 -0.003056 0.000000 0.000000 0.000000
# 2 -0.009249 0.037510 -0.022429 0.000000 0.000000 0.000000
# 3 -0.003056 -0.022429 0.082984 0.000000 0.000000 0.000000
# 4 0.000000 0.000000 0.000000 0.055051 0.000000 0.000000
# 5 0.000000 0.000000 0.000000 0.000000 0.049067 0.000000
# 6 0.000000 0.000000 0.000000 0.000000 0.000000 0.030966
#
#
# Mechanical properties :
#
#
# Convention : Reuss Voigt Hill
#
# Bulk Modulus (GPa) = 16.36323 41.36979 28.86651
# Shear Modulus (GPa) = 14.06448 22.94269 18.50359
#
# Velocity S-wave (km/s) = 2.70067 3.44931 3.09769
# Velocity P-wave (km/s) = 4.26738 6.10880 5.26915
#
# Compressibility (1/GPa) = 0.06111264
#
# Stress axis : x y z
#
# Youngs Moduli (GPa) = 99.13402 26.65989 12.05044
#
# Poissons Ratio (x) = 0.24658 0.03683
# Poissons Ratio (y) = 0.91690 0.27028
# Poissons Ratio (z) = 0.30299 0.59795
#
# Static dielectric constant tensor:
#      x y z
#    x 1.688930 0.000000 0.000000 
#    y 0.000000 1.639030 0.000000 
#    z 0.000000 0.000000 1.660390 
# 
# From -- ./inp_files/29944.got.cif
#   From: 2010.05.17/outbox.cif.g08.bks.cpg/sg62_15_cif.got.tgz:29944.got - 2010.06.03 15:25:27.
