data_PCOD9464585
_publ_section_title
;
Structure prediction by ZEFSAII (Michael W. Deem and Ramdas Pophale) SiO2 
 PCOD9464585
Probable space group: P N M A
;
_chemical_formula_sum "Si O2"
_cell_formula_units_Z 40
_cell_length_a 7.863614
_cell_length_b 10.242569
_cell_length_c 20.747313
_cell_angle_alpha 90.000000
_cell_angle_beta 90.000000
_cell_angle_gamma 90.000000
_cell_volume 1671.063466
_symmetry_space_group_name_H-M "P N M A"
_symmetry_group_IT_number 62
_symmetry_cell_setting 'orthorhombic'
loop_
_space_group_symop_operation_xyz
x,y,z
1/2-x,-y,1/2+z
1/2+x,1/2-y,1/2-z
-x,1/2+y,-z
-x,-y,-z
1/2+x,y,1/2-z
1/2-x,1/2+y,1/2+z
x,1/2-y,z
loop_
_atom_site_type_symbol
_atom_site_label
_atom_site_fract_x
_atom_site_fract_y
_atom_site_fract_z
Si Si1 0.624919 0.989863 0.422583
Si Si2 0.369853 0.250000 0.782120
Si Si3 0.984523 0.750000 0.857563
Si Si4 0.010485 0.250000 0.851069
Si Si5 0.853750 0.591850 0.531826
Si Si6 0.843074 0.250000 0.264897
Si Si7 0.022758 0.990373 0.657927
O O1 0.509991 0.875065 0.395341
O O2 0.686103 0.959122 0.495034
O O3 0.802865 0.986022 0.381675
O O4 0.542516 0.126215 0.402854
O O5 0.368899 0.250000 0.705019
O O6 0.461767 0.379271 0.807732
O O7 0.184116 0.250000 0.812242
O O8 0.833569 0.750000 0.804022
O O9 0.149979 0.750000 0.812290
O O10 0.873095 0.750000 0.521294
O O11 0.882913 0.560633 0.606771
O O12 0.000000 0.500000 0.500000
O O13 0.936940 0.379662 0.290053
#
# Coordination Sequence:
#
# PCOD9464585 Si02
#       7
#     8   4   4   4   8   4   8
#     4  10  21  38  64  89 125 154 203 250 306 359
#     4  12  26  39  62  88 122 163 211 252 309 366
#     4  10  22  35  58  90 116 157 195 246 299 366
#     4  12  24  43  60  88 122 165 207 256 309 364
#     4  10  20  35  64  95 123 158 201 253 301 357
#     4  10  20  37  56  84 122 149 197 242 301 356
#     4  10  21  38  61  93 120 158 201 254 299 364
#
# _framework density 23.936852999999999
#
# number of rings (size 3 to 8) (size 9 to 14) (size 15 to 20)
#    0.000    1.600    2.000    3.000    8.400    4.800 
#    0.000    1.000    0.000    0.000    0.000    0.000 
#    0.000    0.000    0.000    0.000    0.000    0.000 
#
# Total GULP energy -224024.876739 kJ/mol
# GULP energy per Si atom -5600.621918 kJ/mol
# Density = 2.388237 g / cm^3
# Si number density = 23.936853 Si / 1000 Ang^3
#
#
#
# Elastic Constant Matrix: (Units=GPa)
#
#
# Indices 1 2 3 4 5 6 
#
# 1 70.4139 35.3092 36.9401 0.0000 0.0000 0.0000
# 2 35.3092 207.9484 61.0301 0.0000 0.0000 0.0000
# 3 36.9401 61.0301 108.7111 0.0000 0.0000 0.0000
# 4 0.0000 0.0000 0.0000 22.8528 0.0000 0.0000
# 5 0.0000 0.0000 0.0000 0.0000 50.1129 0.0000
# 6 0.0000 0.0000 0.0000 0.0000 0.0000 -7.9674
#
#
#
# Elastic Compliance Matrix: (Units=1/GPa)
#
#
# Indices 1 2 3 4 5 6 
#
# 1 0.017656 -0.001481 -0.005168 0.000000 0.000000 0.000000
# 2 -0.001481 0.005882 -0.002799 0.000000 0.000000 0.000000
# 3 -0.005168 -0.002799 0.012526 0.000000 0.000000 0.000000
# 4 0.000000 0.000000 0.000000 0.043758 0.000000 0.000000
# 5 0.000000 0.000000 0.000000 0.000000 0.019955 0.000000
# 6 0.000000 0.000000 0.000000 0.000000 0.000000 -0.125511
#
#
# Mechanical properties :
#
#
# Convention : Reuss Voigt Hill
#
# Bulk Modulus (GPa) = 58.24854 72.62580 65.43717
# Shear Modulus (GPa) = -4479.34780 29.91925 -2224.71427
#
# Velocity S-wave (km/s) = -43.30567 3.53926 -30.51929
# Velocity P-wave (km/s) = 49.76064 6.86355 34.84977
#
# Compressibility (1/GPa) = 0.01716781
#
# Stress axis : x y z
#
# Youngs Moduli (GPa) = 56.63927 170.01687 79.83453
#
# Poissons Ratio (x) = 0.25183 0.41257
# Poissons Ratio (y) = 0.08389 0.22343
# Poissons Ratio (z) = 0.29270 0.47583
#
# Static dielectric constant tensor:
#      x y z
#    x 1.985560 0.000000 0.000000 
#    y 0.000000 1.833180 0.000000 
#    z 0.000000 0.000000 1.873790 
# 
# From -- ./inp_files/28653.got.cif
#   From: 2010.05.17/outbox.cif.g08.bks.cpg/sg62_15_cif.got.tgz:28653.got - 2010.06.03 15:25:27.
