data_PCOD9464471
_publ_section_title
;
Structure prediction by ZEFSAII (Michael W. Deem and Ramdas Pophale) SiO2 
 PCOD9464471
Probable space group: P N M A
;
_chemical_formula_sum "Si O2"
_cell_formula_units_Z 64
_cell_length_a 12.557471
_cell_length_b 9.008066
_cell_length_c 28.829338
_cell_angle_alpha 90.000000
_cell_angle_beta 90.000000
_cell_angle_gamma 90.000000
_cell_volume 3261.132265
_symmetry_space_group_name_H-M "P N M A"
_symmetry_group_IT_number 62
_symmetry_cell_setting 'orthorhombic'
loop_
_space_group_symop_operation_xyz
x,y,z
1/2-x,-y,1/2+z
1/2+x,1/2-y,1/2-z
-x,1/2+y,-z
-x,-y,-z
1/2+x,y,1/2-z
1/2-x,1/2+y,1/2+z
x,1/2-y,z
loop_
_atom_site_type_symbol
_atom_site_label
_atom_site_fract_x
_atom_site_fract_y
_atom_site_fract_z
Si Si1 0.035448 0.079174 0.428291
Si Si2 0.366297 0.575802 0.316980
Si Si3 0.346576 0.572870 0.565863
Si Si4 0.734331 0.927013 0.031876
Si Si5 0.581171 0.573017 0.591813
Si Si6 0.448899 0.925781 0.213907
Si Si7 0.336256 0.926191 0.117319
Si Si8 0.145787 0.419103 0.327036
O O1 0.017375 0.250000 0.442168
O O2 0.097306 0.077617 0.378798
O O3 0.117341 0.997523 0.462461
O O4 0.924290 0.999913 0.416600
O O5 0.381126 0.750000 0.326703
O O6 0.428296 0.480025 0.355164
O O7 0.399515 0.547278 0.264101
O O8 0.244151 0.528785 0.322910
O O9 0.340751 0.750000 0.573325
O O10 0.288700 0.539274 0.517407
O O11 0.471025 0.532309 0.566253
O O12 0.278469 0.491029 0.604991
O O13 0.726679 0.750000 0.037761
O O14 0.816757 0.993972 0.069287
O O15 0.596889 0.750000 0.589405
O O16 0.476449 0.750000 0.210572
O O17 0.371245 0.957577 0.170359
O O18 0.552476 0.025097 0.206258
O O19 0.337953 0.750000 0.110625
O O20 0.179026 0.250000 0.317238
#
# Coordination Sequence:
#
# PCOD9464471 Si02
#       8
#     8   8   8   8   8   8   8   8
#     4  10  20  36  60  87 118 152 192 245 295 347
#     4  11  22  37  60  87 117 154 196 245 294 352
#     4  10  24  42  59  84 122 161 197 243 301 360
#     4  11  22  38  62  89 116 155 201 245 298 357
#     4  11  23  40  60  86 121 156 198 250 299 354
#     4   9  21  39  58  84 116 152 195 241 293 351
#     4  10  21  39  62  86 116 156 201 246 297 357
#     4  10  20  35  57  84 114 149 189 240 295 347
#
# _framework density 19.625087000000001
#
# number of rings (size 3 to 8) (size 9 to 14) (size 15 to 20)
#    0.000    1.750    1.250    2.625    0.000    6.000 
#    0.000    3.750    0.000    0.000    0.000    0.000 
#    0.000    0.000    0.000    0.000    0.000    0.000 
#
# Total GULP energy -357636.619970 kJ/mol
# GULP energy per Si atom -5588.072187 kJ/mol
# Density = 1.958042 g / cm^3
# Si number density = 19.625087 Si / 1000 Ang^3
#
#
#
# Elastic Constant Matrix: (Units=GPa)
#
#
# Indices 1 2 3 4 5 6 
#
# 1 42.8764 0.1532 1.4841 0.0000 0.0000 0.0000
# 2 0.1532 20.4081 20.7554 0.0000 0.0000 0.0000
# 3 1.4841 20.7554 55.4549 0.0000 0.0000 0.0000
# 4 0.0000 0.0000 0.0000 26.8102 0.0000 0.0000
# 5 0.0000 0.0000 0.0000 0.0000 25.0023 0.0000
# 6 0.0000 0.0000 0.0000 0.0000 0.0000 29.8249
#
#
#
# Elastic Compliance Matrix: (Units=1/GPa)
#
#
# Indices 1 2 3 4 5 6 
#
# 1 0.023351 0.000743 -0.000903 0.000000 0.000000 0.000000
# 2 0.000743 0.079139 -0.029639 0.000000 0.000000 0.000000
# 3 -0.000903 -0.029639 0.029150 0.000000 0.000000 0.000000
# 4 0.000000 0.000000 0.000000 0.037299 0.000000 0.000000
# 5 0.000000 0.000000 0.000000 0.000000 0.039996 0.000000
# 6 0.000000 0.000000 0.000000 0.000000 0.000000 0.033529
#
#
# Mechanical properties :
#
#
# Convention : Reuss Voigt Hill
#
# Bulk Modulus (GPa) = 13.88090 18.16941 16.02516
# Shear Modulus (GPa) = 15.33379 22.75059 19.04219
#
# Velocity S-wave (km/s) = 2.79827 3.40849 3.11834
# Velocity P-wave (km/s) = 4.18674 4.97682 4.59878
#
# Compressibility (1/GPa) = 0.07204143
#
# Stress axis : x y z
#
# Youngs Moduli (GPa) = 42.82386 12.63607 34.30514
#
# Poissons Ratio (x) = -0.00939 0.03098
# Poissons Ratio (y) = -0.03183 1.01679
# Poissons Ratio (z) = 0.03867 0.37453
#
# Static dielectric constant tensor:
#      x y z
#    x 1.668610 0.000000 0.000000 
#    y 0.000000 1.659750 0.000000 
#    z 0.000000 0.000000 1.697610 
# 
# From -- ./inp_files/32434.got.cif
#   From: 2010.05.17/outbox.cif.g08.bks.cpg/sg62_17_cif.got.tgz:32434.got - 2010.06.03 15:25:27.
