data_PCOD9464747
_publ_section_title
;
Structure prediction by ZEFSAII (Michael W. Deem and Ramdas Pophale) SiO2 
 PCOD9464747
Probable space group: P N M A
;
_chemical_formula_sum "Si O2"
_cell_formula_units_Z 48
_cell_length_a 29.724936
_cell_length_b 8.792726
_cell_length_c 10.370438
_cell_angle_alpha 90.000000
_cell_angle_beta 90.000000
_cell_angle_gamma 90.000000
_cell_volume 2710.451044
_symmetry_space_group_name_H-M "P N M A"
_symmetry_group_IT_number 62
_symmetry_cell_setting 'orthorhombic'
loop_
_space_group_symop_operation_xyz
x,y,z
1/2-x,-y,1/2+z
1/2+x,1/2-y,1/2-z
-x,1/2+y,-z
-x,-y,-z
1/2+x,y,1/2-z
1/2-x,1/2+y,1/2+z
x,1/2-y,z
loop_
_atom_site_type_symbol
_atom_site_label
_atom_site_fract_x
_atom_site_fract_y
_atom_site_fract_z
Si Si1 0.611018 0.570083 0.782190
Si Si2 0.979007 0.569278 0.371444
Si Si3 0.883957 0.430102 0.975722
Si Si4 0.714133 0.933322 0.775477
Si Si5 0.473182 0.931403 0.621299
Si Si6 0.786137 0.567528 0.994393
O O1 0.605330 0.750000 0.808892
O O2 0.573156 0.477265 0.855904
O O3 0.605146 0.548703 0.628021
O O4 0.662580 0.526174 0.810675
O O5 0.983660 0.750000 0.370298
O O6 0.000000 0.500000 0.500000
O O7 0.004869 0.497775 0.249831
O O8 0.885269 0.250000 0.949559
O O9 0.833996 0.494473 0.956839
O O10 0.921667 0.516419 0.894712
O O11 0.714771 0.750000 0.757860
O O12 0.725195 0.008403 0.637932
O O13 0.748542 0.973667 0.888791
O O14 0.476990 0.750000 0.619871
O O15 0.500000 0.000000 0.500000
O O16 0.790255 0.750000 0.997468
#
# Coordination Sequence:
#
# PCOD9464747 Si02
#       6
#     8   8   8   8   8   8
#     4   9  18  36  60  82 113 153 196 239 286 345
#     4  12  25  41  60  85 119 157 196 242 294 349
#     4  10  20  36  60  88 118 153 192 241 291 341
#     4   9  20  38  59  84 116 152 191 239 289 344
#     4  12  23  38  62  90 118 152 195 240 286 343
#     4  10  20  36  59  86 116 152 193 241 291 346
#
# _framework density 17.709230999999999
#
# number of rings (size 3 to 8) (size 9 to 14) (size 15 to 20)
#    0.000    1.667    1.667    5.000    0.000    4.000 
#    3.000    0.000    0.000    0.000    0.000    0.000 
#    0.000    0.000    0.000    0.000    0.000    0.000 
#
# Total GULP energy -268163.166384 kJ/mol
# GULP energy per Si atom -5586.732633 kJ/mol
# Density = 1.766892 g / cm^3
# Si number density = 17.709231 Si / 1000 Ang^3
#
#
#
# Elastic Constant Matrix: (Units=GPa)
#
#
# Indices 1 2 3 4 5 6 
#
# 1 139.1101 74.0642 92.4420 0.0000 0.0000 0.0000
# 2 74.0642 117.6680 70.6112 0.0000 0.0000 0.0000
# 3 92.4420 70.6112 127.8769 0.0000 0.0000 0.0000
# 4 0.0000 0.0000 0.0000 29.7151 0.0000 0.0000
# 5 0.0000 0.0000 0.0000 0.0000 34.6376 0.0000
# 6 0.0000 0.0000 0.0000 0.0000 0.0000 32.5198
#
#
#
# Elastic Compliance Matrix: (Units=1/GPa)
#
#
# Indices 1 2 3 4 5 6 
#
# 1 0.015256 -0.004464 -0.008564 0.000000 0.000000 0.000000
# 2 -0.004464 0.014016 -0.004513 0.000000 0.000000 0.000000
# 3 -0.008564 -0.004513 0.016503 0.000000 0.000000 0.000000
# 4 0.000000 0.000000 0.000000 0.033653 0.000000 0.000000
# 5 0.000000 0.000000 0.000000 0.000000 0.028870 0.000000
# 6 0.000000 0.000000 0.000000 0.000000 0.000000 0.030750
#
#
# Mechanical properties :
#
#
# Convention : Reuss Voigt Hill
#
# Bulk Modulus (GPa) = 93.50633 95.43221 94.46927
# Shear Modulus (GPa) = 28.13845 29.21034 28.67439
#
# Velocity S-wave (km/s) = 3.99044 4.06574 4.02827
# Velocity P-wave (km/s) = 8.61087 8.72042 8.66582
#
# Compressibility (1/GPa) = 0.01069446
#
# Stress axis : x y z
#
# Youngs Moduli (GPa) = 65.54886 71.34707 60.59672
#
# Poissons Ratio (x) = 0.31846 0.51893
# Poissons Ratio (y) = 0.29258 0.27345
# Poissons Ratio (z) = 0.56134 0.32197
#
# Static dielectric constant tensor:
#      x y z
#    x 1.606830 0.000000 0.000000 
#    y 0.000000 1.590940 0.000000 
#    z 0.000000 0.000000 1.569020 
# 
# From -- ./inp_files/10152.got.cif
#   From: 2010.05.17/outbox.cif.g08.bks.cpg/sg62_6_cif.got.tgz:10152.got - 2010.06.03 15:25:27.
