data_PCOD9464930
_publ_section_title
;
Structure prediction by ZEFSAII (Michael W. Deem and Ramdas Pophale) SiO2 
 PCOD9464930
Probable space group: P N M A
;
_chemical_formula_sum "Si O2"
_cell_formula_units_Z 32
_cell_length_a 10.041379
_cell_length_b 11.544723
_cell_length_c 15.017538
_cell_angle_alpha 90.000000
_cell_angle_beta 90.000000
_cell_angle_gamma 90.000000
_cell_volume 1740.907178
_symmetry_space_group_name_H-M "P N M A"
_symmetry_group_IT_number 62
_symmetry_cell_setting 'orthorhombic'
loop_
_space_group_symop_operation_xyz
x,y,z
1/2-x,-y,1/2+z
1/2+x,1/2-y,1/2-z
-x,1/2+y,-z
-x,-y,-z
1/2+x,y,1/2-z
1/2-x,1/2+y,1/2+z
x,1/2-y,z
loop_
_atom_site_type_symbol
_atom_site_label
_atom_site_fract_x
_atom_site_fract_y
_atom_site_fract_z
Si Si1 0.537710 0.380786 0.447090
Si Si2 0.822633 0.113937 0.204094
Si Si3 0.126933 0.379532 0.446123
Si Si4 0.332667 0.056435 0.098506
O O1 0.500000 0.500000 0.500000
O O2 0.505667 0.250000 0.484217
O O3 0.456752 0.389164 0.354302
O O4 0.695217 0.384265 0.429703
O O5 0.797396 0.250000 0.228022
O O6 0.706608 0.069330 0.138182
O O7 0.830810 0.044286 0.295331
O O8 0.178200 0.250000 0.452365
O O9 0.157886 0.442698 0.537773
O O10 0.970373 0.380421 0.426310
#
# Coordination Sequence:
#
# PCOD9464930 Si02
#       4
#     8   8   8   8
#     4  11  22  38  60  86 117 153 193 240 290 343
#     4  10  20  37  60  85 113 150 195 241 289 343
#     4  10  21  37  57  85 118 152 191 242 296 342
#     4  11  21  35  61  86 115 152 196 240 287 347
#
# _framework density 18.381219999999999
#
# number of rings (size 3 to 8) (size 9 to 14) (size 15 to 20)
#    0.000    1.500    2.500    3.750    0.000    4.000 
#    0.000    1.250    0.000    3.000    0.000    0.000 
#    0.000    0.000    0.000    0.000    0.000    0.000 
#
# Total GULP energy -178303.021136 kJ/mol
# GULP energy per Si atom -5571.969410 kJ/mol
# Density = 1.833938 g / cm^3
# Si number density = 18.381220 Si / 1000 Ang^3
#
#
#
# Elastic Constant Matrix: (Units=GPa)
#
#
# Indices 1 2 3 4 5 6 
#
# 1 132.0514 24.3081 34.0563 0.0000 0.0000 0.0000
# 2 24.3081 84.1249 69.2975 0.0000 0.0000 0.0000
# 3 34.0563 69.2975 147.4225 0.0000 0.0000 0.0000
# 4 0.0000 0.0000 0.0000 -22.5782 0.0000 0.0000
# 5 0.0000 0.0000 0.0000 0.0000 20.3247 0.0000
# 6 0.0000 0.0000 0.0000 0.0000 0.0000 6.4316
#
#
#
# Elastic Compliance Matrix: (Units=1/GPa)
#
#
# Indices 1 2 3 4 5 6 
#
# 1 0.008140 -0.001311 -0.001264 0.000000 0.000000 0.000000
# 2 -0.001311 0.019609 -0.008915 0.000000 0.000000 0.000000
# 3 -0.001264 -0.008915 0.011266 0.000000 0.000000 0.000000
# 4 0.000000 0.000000 0.000000 -0.044291 0.000000 0.000000
# 5 0.000000 0.000000 0.000000 0.000000 0.049201 0.000000
# 6 0.000000 0.000000 0.000000 0.000000 0.000000 0.155483
#
#
# Mechanical properties :
#
#
# Convention : Reuss Voigt Hill
#
# Bulk Modulus (GPa) = 62.36083 68.76917 65.56500
# Shear Modulus (GPa) = 21.95549 16.56473 19.26011
#
# Velocity S-wave (km/s) = 3.45983 3.00522 3.24051
# Velocity P-wave (km/s) = 7.06828 7.03816 7.05324
#
# Compressibility (1/GPa) = 0.01603571
#
# Stress axis : x y z
#
# Youngs Moduli (GPa) = 122.84776 50.99614 88.76395
#
# Poissons Ratio (x) = 0.06683 0.11224
# Poissons Ratio (y) = 0.16100 0.79132
# Poissons Ratio (z) = 0.15533 0.45462
#
# Static dielectric constant tensor:
#      x y z
#    x 1.667420 0.000000 0.000000 
#    y 0.000000 1.669270 0.000000 
#    z 0.000000 0.000000 1.612350 
# 
# From -- ./inp_files/11758.got.cif
#   From: 2010.05.17/outbox.cif.g08.bks.cpg/sg62_6_cif.got.tgz:11758.got - 2010.06.03 15:25:27.
