data_PCOD9464470
_publ_section_title
;
Structure prediction by ZEFSAII (Michael W. Deem and Ramdas Pophale) SiO2 
 PCOD9464470
Probable space group: P N M A
;
_chemical_formula_sum "Si O2"
_cell_formula_units_Z 48
_cell_length_a 31.510259
_cell_length_b 8.956103
_cell_length_c 9.401858
_cell_angle_alpha 90.000000
_cell_angle_beta 90.000000
_cell_angle_gamma 90.000000
_cell_volume 2653.290121
_symmetry_space_group_name_H-M "P N M A"
_symmetry_group_IT_number 62
_symmetry_cell_setting 'orthorhombic'
loop_
_space_group_symop_operation_xyz
x,y,z
1/2-x,-y,1/2+z
1/2+x,1/2-y,1/2-z
-x,1/2+y,-z
-x,-y,-z
1/2+x,y,1/2-z
1/2-x,1/2+y,1/2+z
x,1/2-y,z
loop_
_atom_site_type_symbol
_atom_site_label
_atom_site_fract_x
_atom_site_fract_y
_atom_site_fract_z
Si Si1 0.460760 0.071684 0.583791
Si Si2 0.711934 0.071698 0.605360
Si Si3 0.883680 0.572575 0.081184
Si Si4 0.039695 0.570639 0.417636
Si Si5 0.792579 0.072612 0.410459
Si Si6 0.381725 0.571750 0.080654
O O1 0.463666 0.250000 0.573715
O O2 0.462007 0.030978 0.750564
O O3 0.500000 0.000000 0.500000
O O4 0.417590 0.015678 0.510782
O O5 0.711699 0.250000 0.637365
O O6 0.665261 0.038344 0.542502
O O7 0.751250 0.038833 0.503969
O O8 0.715944 0.981696 0.750753
O O9 0.890745 0.750000 0.062554
O O10 0.888142 0.540346 0.250314
O O11 0.038358 0.750000 0.429567
O O12 0.082215 0.507750 0.489491
O O13 0.000000 0.500000 0.500000
O O14 0.800020 0.250000 0.414249
O O15 0.835161 0.988459 0.458965
O O16 0.383778 0.750000 0.062535
#
# Coordination Sequence:
#
# PCOD9464470 Si02
#       6
#     8   8   8   8   8   8
#     4  11  24  39  57  83 112 142 180 225 272 325
#     4   9  20  37  55  80 114 148 185 230 276 327
#     4   9  19  37  58  80 109 144 183 226 273 326
#     4  11  24  40  58  84 114 145 184 228 275 330
#     4  10  20  35  57  84 113 148 189 231 277 330
#     4  10  21  38  59  83 112 147 186 230 279 330
#
# _framework density 18.090745999999999
#
# number of rings (size 3 to 8) (size 9 to 14) (size 15 to 20)
#    0.000    2.000    0.000    4.000    0.000   12.667 
#    0.000    3.333    0.000    0.000    0.000    0.000 
#    0.000    0.000    0.000    0.000    0.000    0.000 
#
# Total GULP energy -268110.604300 kJ/mol
# GULP energy per Si atom -5585.637590 kJ/mol
# Density = 1.804957 g / cm^3
# Si number density = 18.090746 Si / 1000 Ang^3
#
#
#
# Elastic Constant Matrix: (Units=GPa)
#
#
# Indices 1 2 3 4 5 6 
#
# 1 165.9105 74.4075 101.8450 0.0000 0.0000 0.0000
# 2 74.4075 61.8058 66.4754 0.0000 0.0000 0.0000
# 3 101.8450 66.4754 105.9272 0.0000 0.0000 0.0000
# 4 0.0000 0.0000 0.0000 32.4910 0.0000 0.0000
# 5 0.0000 0.0000 0.0000 0.0000 36.2039 0.0000
# 6 0.0000 0.0000 0.0000 0.0000 0.0000 38.0675
#
#
#
# Elastic Compliance Matrix: (Units=1/GPa)
#
#
# Indices 1 2 3 4 5 6 
#
# 1 0.015998 -0.008357 -0.010137 0.000000 0.000000 0.000000
# 2 -0.008357 0.054145 -0.025944 0.000000 0.000000 0.000000
# 3 -0.010137 -0.025944 0.035468 0.000000 0.000000 0.000000
# 4 0.000000 0.000000 0.000000 0.030778 0.000000 0.000000
# 5 0.000000 0.000000 0.000000 0.000000 0.027621 0.000000
# 6 0.000000 0.000000 0.000000 0.000000 0.000000 0.026269
#
#
# Mechanical properties :
#
#
# Convention : Reuss Voigt Hill
#
# Bulk Modulus (GPa) = 59.75526 91.01103 75.38314
# Shear Modulus (GPa) = 17.56029 27.41352 22.48690
#
# Velocity S-wave (km/s) = 3.11895 3.89695 3.52945
# Velocity P-wave (km/s) = 6.78771 8.40628 7.63998
#
# Compressibility (1/GPa) = 0.01673493
#
# Stress axis : x y z
#
# Youngs Moduli (GPa) = 62.50852 18.46896 28.19429
#
# Poissons Ratio (x) = 0.15434 0.28580
# Poissons Ratio (y) = 0.52238 0.73148
# Poissons Ratio (z) = 0.63364 0.47916
#
# Static dielectric constant tensor:
#      x y z
#    x 1.608140 0.000000 0.000000 
#    y 0.000000 1.604270 0.000000 
#    z 0.000000 0.000000 1.594990 
# 
# From -- ./inp_files/10235.got.cif
#   From: 2010.05.17/outbox.cif.g08.bks.cpg/sg62_6_cif.got.tgz:10235.got - 2010.06.03 15:25:27.
