data_PCOD9464851
_publ_section_title
;
Structure prediction by ZEFSAII (Michael W. Deem and Ramdas Pophale) SiO2 
 PCOD9464851
Probable space group: P N M A
;
_chemical_formula_sum "Si O2"
_cell_formula_units_Z 40
_cell_length_a 9.471717
_cell_length_b 14.230792
_cell_length_c 13.626714
_cell_angle_alpha 90.000000
_cell_angle_beta 90.000000
_cell_angle_gamma 90.000000
_cell_volume 1836.745250
_symmetry_space_group_name_H-M "P N M A"
_symmetry_group_IT_number 62
_symmetry_cell_setting 'orthorhombic'
loop_
_space_group_symop_operation_xyz
x,y,z
1/2-x,-y,1/2+z
1/2+x,1/2-y,1/2-z
-x,1/2+y,-z
-x,-y,-z
1/2+x,y,1/2-z
1/2-x,1/2+y,1/2+z
x,1/2-y,z
loop_
_atom_site_type_symbol
_atom_site_label
_atom_site_fract_x
_atom_site_fract_y
_atom_site_fract_z
Si Si1 0.013346 0.032126 0.804023
Si Si2 0.777634 0.998322 0.943404
Si Si3 0.287952 0.410352 0.857500
Si Si4 0.606833 0.639310 0.822326
Si Si5 0.548018 0.148723 0.976614
O O1 0.074403 0.930921 0.767692
O O2 0.138532 0.109874 0.805273
O O3 0.925127 0.034745 0.904342
O O4 0.891366 0.052666 0.725267
O O5 0.645800 0.069196 0.930258
O O6 0.741274 0.905778 0.878876
O O7 0.770423 0.980362 0.058927
O O8 0.395868 0.349535 0.922746
O O9 0.622781 0.750000 0.798354
O O10 0.487005 0.631854 0.908262
O O11 0.617322 0.250000 0.966642
#
# Coordination Sequence:
#
# PCOD9464851 Si02
#       5
#     8   8   8   8   8
#     4  12  21  38  63  90 128 162 211 253 313 370
#     4  11  21  40  62  92 128 163 205 259 312 372
#     4  11  21  39  61  91 124 169 206 252 310 371
#     4  10  20  36  65  92 120 160 202 252 317 379
#     4  10  20  40  66  89 121 166 210 251 307 370
#
# _framework density 21.777652
#
# number of rings (size 3 to 8) (size 9 to 14) (size 15 to 20)
#    0.000    1.200    6.000    1.800    0.000    0.800 
#    0.000    6.000    0.000    2.400    0.000    0.000 
#    0.000    0.000    0.000    0.000    0.000    0.000 
#
# Total GULP energy -222710.466724 kJ/mol
# GULP energy per Si atom -5567.761668 kJ/mol
# Density = 2.172808 g / cm^3
# Si number density = 21.777652 Si / 1000 Ang^3
#
#
#
# Elastic Constant Matrix: (Units=GPa)
#
#
# Indices 1 2 3 4 5 6 
#
# 1 115.5811 12.4127 12.1235 0.0000 0.0000 0.0000
# 2 12.4127 54.5429 0.8471 0.0000 0.0000 0.0000
# 3 12.1235 0.8471 84.5750 0.0000 0.0000 0.0000
# 4 0.0000 0.0000 0.0000 15.4794 0.0000 0.0000
# 5 0.0000 0.0000 0.0000 0.0000 34.0206 0.0000
# 6 0.0000 0.0000 0.0000 0.0000 0.0000 2.2739
#
#
#
# Elastic Compliance Matrix: (Units=1/GPa)
#
#
# Indices 1 2 3 4 5 6 
#
# 1 0.009003 -0.002029 -0.001270 0.000000 0.000000 0.000000
# 2 -0.002029 0.018794 0.000103 0.000000 0.000000 0.000000
# 3 -0.001270 0.000103 0.012005 0.000000 0.000000 0.000000
# 4 0.000000 0.000000 0.000000 0.064602 0.000000 0.000000
# 5 0.000000 0.000000 0.000000 0.000000 0.029394 0.000000
# 6 0.000000 0.000000 0.000000 0.000000 0.000000 0.439775
#
#
# Mechanical properties :
#
#
# Convention : Reuss Voigt Hill
#
# Bulk Modulus (GPa) = 29.93223 33.94062 31.93642
# Shear Modulus (GPa) = 8.45876 25.64249 17.05062
#
# Velocity S-wave (km/s) = 1.97296 3.43515 2.80114
# Velocity P-wave (km/s) = 4.35481 5.59934 5.01582
#
# Compressibility (1/GPa) = 0.03340881
#
# Stress axis : x y z
#
# Youngs Moduli (GPa) = 111.07298 53.20740 83.29942
#
# Poissons Ratio (x) = 0.10797 0.10581
# Poissons Ratio (y) = 0.22539 -0.00855
# Poissons Ratio (z) = 0.14109 -0.00546
#
# Static dielectric constant tensor:
#      x y z
#    x 1.830930 0.000000 0.000000 
#    y 0.000000 1.839130 0.000000 
#    z 0.000000 0.000000 1.894490 
# 
# From -- ./inp_files/16671.got.cif
#   From: 2010.05.17/outbox.cif.g08.bks.cpg/sg62_9_cif.got.tgz:16671.got - 2010.06.03 15:25:27.
