data_PCOD9464741
_publ_section_title
;
Structure prediction by ZEFSAII (Michael W. Deem and Ramdas Pophale) SiO2 
 PCOD9464741
Probable space group: P N M A
;
_chemical_formula_sum "Si O2"
_cell_formula_units_Z 48
_cell_length_a 28.987066
_cell_length_b 7.512832
_cell_length_c 9.769961
_cell_angle_alpha 90.000000
_cell_angle_beta 90.000000
_cell_angle_gamma 90.000000
_cell_volume 2127.652837
_symmetry_space_group_name_H-M "P N M A"
_symmetry_group_IT_number 62
_symmetry_cell_setting 'orthorhombic'
loop_
_space_group_symop_operation_xyz
x,y,z
1/2-x,-y,1/2+z
1/2+x,1/2-y,1/2-z
-x,1/2+y,-z
-x,-y,-z
1/2+x,y,1/2-z
1/2-x,1/2+y,1/2+z
x,1/2-y,z
loop_
_atom_site_type_symbol
_atom_site_label
_atom_site_fract_x
_atom_site_fract_y
_atom_site_fract_z
Si Si1 0.016743 0.038950 0.650942
Si Si2 0.694334 0.955478 0.026701
Si Si3 0.123538 0.959114 0.679945
Si Si4 0.723602 0.534198 0.325336
Si Si5 0.138167 0.967601 0.982117
Si Si6 0.958479 0.037264 0.896731
O O1 0.019496 0.250000 0.672134
O O2 0.978001 0.966893 0.754029
O O3 0.068325 0.971302 0.677127
O O4 0.000000 0.000000 0.500000
O O5 0.683886 0.750000 0.062539
O O6 0.714822 0.029360 0.169270
O O7 0.648504 0.034611 0.955285
O O8 0.731854 0.964208 0.905447
O O9 0.135245 0.750000 0.679846
O O10 0.141520 0.031631 0.825331
O O11 0.727925 0.750000 0.324860
O O12 0.680025 0.483561 0.419553
O O13 0.137225 0.750000 0.977358
O O14 0.089806 0.030881 0.045951
O O15 0.952357 0.250000 0.884660
O O16 0.000000 0.000000 0.000000
#
# Coordination Sequence:
#
# PCOD9464741 Si02
#       6
#     8   8   8   8   8   8
#     4  11  24  38  57  85 119 156 194 238 285 338
#     4  10  22  38  60  88 116 150 191 235 288 343
#     4  10  20  37  60  83 114 153 192 235 285 345
#     4  10  21  38  61  86 115 150 189 236 285 342
#     4   9  18  34  58  84 111 148 188 230 286 341
#     4  10  20  36  59  85 114 150 192 234 279 336
#
# _framework density 22.560068999999999
#
# number of rings (size 3 to 8) (size 9 to 14) (size 15 to 20)
#    0.000    2.000    1.667    1.500    2.333    3.333 
#    0.000    1.667    0.000    0.000    0.000    0.000 
#    0.000    0.000    0.000    0.000    0.000    0.000 
#
# Total GULP energy -268114.016316 kJ/mol
# GULP energy per Si atom -5585.708673 kJ/mol
# Density = 2.250872 g / cm^3
# Si number density = 22.560069 Si / 1000 Ang^3
#
#
#
# Elastic Constant Matrix: (Units=GPa)
#
#
# Indices 1 2 3 4 5 6 
#
# 1 55.2904 -4.8559 -2.1808 0.0000 0.0000 0.0000
# 2 -4.8559 58.0958 -2.4340 0.0000 0.0000 0.0000
# 3 -2.1808 -2.4340 135.8466 0.0000 0.0000 0.0000
# 4 0.0000 0.0000 0.0000 11.1865 0.0000 0.0000
# 5 0.0000 0.0000 0.0000 0.0000 43.7053 0.0000
# 6 0.0000 0.0000 0.0000 0.0000 0.0000 22.3319
#
#
#
# Elastic Compliance Matrix: (Units=1/GPa)
#
#
# Indices 1 2 3 4 5 6 
#
# 1 0.018234 0.001537 0.000320 0.000000 0.000000 0.000000
# 2 0.001537 0.017356 0.000336 0.000000 0.000000 0.000000
# 3 0.000320 0.000336 0.007372 0.000000 0.000000 0.000000
# 4 0.000000 0.000000 0.000000 0.089394 0.000000 0.000000
# 5 0.000000 0.000000 0.000000 0.000000 0.022881 0.000000
# 6 0.000000 0.000000 0.000000 0.000000 0.000000 0.044779
#
#
# Mechanical properties :
#
#
# Convention : Reuss Voigt Hill
#
# Bulk Modulus (GPa) = 21.11990 25.58793 23.35391
# Shear Modulus (GPa) = 23.65060 32.69164 28.17112
#
# Velocity S-wave (km/s) = 3.24132 3.81083 3.53755
# Velocity P-wave (km/s) = 4.83634 5.54346 5.20193
#
# Compressibility (1/GPa) = 0.04734872
#
# Stress axis : x y z
#
# Youngs Moduli (GPa) = 54.84261 57.61858 135.64102
#
# Poissons Ratio (x) = -0.08859 -0.04344
# Poissons Ratio (y) = -0.08432 -0.04553
# Poissons Ratio (z) = -0.01756 -0.01934
#
# Static dielectric constant tensor:
#      x y z
#    x 1.810990 0.000000 0.000000 
#    y 0.000000 1.839440 0.000000 
#    z 0.000000 0.000000 1.861490 
# 
# From -- ./inp_files/10131.got.cif
#   From: 2010.05.17/outbox.cif.g08.bks.cpg/sg62_6_cif.got.tgz:10131.got - 2010.06.03 15:25:27.
