data_PCOD9464657
_publ_section_title
;
Structure prediction by ZEFSAII (Michael W. Deem and Ramdas Pophale) SiO2 
 PCOD9464657
Probable space group: P N M A
;
_chemical_formula_sum "Si O2"
_cell_formula_units_Z 64
_cell_length_a 13.481279
_cell_length_b 7.495727
_cell_length_c 28.086551
_cell_angle_alpha 90.000000
_cell_angle_beta 90.000000
_cell_angle_gamma 90.000000
_cell_volume 2838.201786
_symmetry_space_group_name_H-M "P N M A"
_symmetry_group_IT_number 62
_symmetry_cell_setting 'orthorhombic'
loop_
_space_group_symop_operation_xyz
x,y,z
1/2-x,-y,1/2+z
1/2+x,1/2-y,1/2-z
-x,1/2+y,-z
-x,-y,-z
1/2+x,y,1/2-z
1/2-x,1/2+y,1/2+z
x,1/2-y,z
loop_
_atom_site_type_symbol
_atom_site_label
_atom_site_fract_x
_atom_site_fract_y
_atom_site_fract_z
Si Si1 0.688815 0.049455 0.403594
Si Si2 0.486584 0.469156 0.354928
Si Si3 0.580427 0.043003 0.069342
Si Si4 0.227262 0.547657 0.878957
Si Si5 0.771254 0.545234 0.308522
Si Si6 0.322589 0.040074 0.783935
Si Si7 0.871244 0.031540 0.460151
Si Si8 0.470169 0.037197 0.244541
O O1 0.664912 0.250000 0.420088
O O2 0.585160 0.972911 0.383530
O O3 0.763694 0.967956 0.442178
O O4 0.759639 0.056564 0.357257
O O5 0.487319 0.250000 0.354108
O O6 0.383861 0.528163 0.379986
O O7 0.483959 0.526921 0.299285
O O8 0.574490 0.250000 0.084928
O O9 0.675201 0.962116 0.096886
O O10 0.467188 0.972374 0.071203
O O11 0.608256 0.031107 0.013665
O O12 0.219977 0.750000 0.897780
O O13 0.256135 0.551031 0.823319
O O14 0.745931 0.750000 0.319350
O O15 0.697133 0.469246 0.268958
O O16 0.874050 0.537981 0.281048
O O17 0.298702 0.250000 0.784679
O O18 0.438511 0.012291 0.789489
O O19 0.871511 0.250000 0.459873
O O20 0.460834 0.250000 0.246402
#
# Coordination Sequence:
#
# PCOD9464657 Si02
#       8
#     8   8   8   8   8   8   8   8
#     4  10  20  36  57  81 107 143 191 230 269 327
#     4   9  18  33  54  78 106 143 186 231 269 312
#     4   9  19  36  58  82 107 136 174 224 280 334
#     4  10  20  36  57  81 107 143 191 230 269 327
#     4  11  23  36  51  78 115 149 183 228 280 325
#     4  11  23  36  51  78 115 149 183 228 280 325
#     4   9  19  36  58  82 107 136 174 224 280 334
#     4  11  21  35  55  76 105 149 195 230 268 323
#
# _framework density 22.549486999999999
#
# number of rings (size 3 to 8) (size 9 to 14) (size 15 to 20)
#    0.000    2.000    2.500    1.125    1.750    2.000 
#    0.000    1.250    0.000    0.000    0.000    0.000 
#    0.000    0.000    0.000    0.000    0.000    0.000 
#
# Total GULP energy -357027.016958 kJ/mol
# GULP energy per Si atom -5578.547140 kJ/mol
# Density = 2.249816 g / cm^3
# Si number density = 22.549487 Si / 1000 Ang^3
#
#
#
# Elastic Constant Matrix: (Units=GPa)
#
#
# Indices 1 2 3 4 5 6 
#
# 1 137.3986 -0.2080 1.8479 0.0000 0.0000 0.0000
# 2 -0.2080 73.9689 -4.9269 0.0000 0.0000 0.0000
# 3 1.8479 -4.9269 14.0123 0.0000 0.0000 0.0000
# 4 0.0000 0.0000 0.0000 -5.3110 0.0000 0.0000
# 5 0.0000 0.0000 0.0000 0.0000 42.5399 0.0000
# 6 0.0000 0.0000 0.0000 0.0000 0.0000 -15.6522
#
#
#
# Elastic Compliance Matrix: (Units=1/GPa)
#
#
# Indices 1 2 3 4 5 6 
#
# 1 0.007291 -0.000045 -0.000977 0.000000 0.000000 0.000000
# 2 -0.000045 0.013844 0.004874 0.000000 0.000000 0.000000
# 3 -0.000977 0.004874 0.073208 0.000000 0.000000 0.000000
# 4 0.000000 0.000000 0.000000 -0.188289 0.000000 0.000000
# 5 0.000000 0.000000 0.000000 0.000000 0.023507 0.000000
# 6 0.000000 0.000000 0.000000 0.000000 0.000000 -0.063889
#
#
# Mechanical properties :
#
#
# Convention : Reuss Voigt Hill
#
# Bulk Modulus (GPa) = 9.79943 24.31175 17.05559
# Shear Modulus (GPa) = -46.28993 19.55978 -13.36507
#
# Velocity S-wave (km/s) = -4.53572 2.94839 -2.43718
# Velocity P-wave (km/s) = 4.80366 4.73240 0.58290
#
# Compressibility (1/GPa) = 0.10204670
#
# Stress axis : x y z
#
# Youngs Moduli (GPa) = 137.15215 72.23512 13.65963
#
# Poissons Ratio (x) = 0.00322 0.01335
# Poissons Ratio (y) = 0.00612 -0.06657
# Poissons Ratio (z) = 0.13403 -0.35204
#
# Static dielectric constant tensor:
#      x y z
#    x 1.912150 0.000000 0.000000 
#    y 0.000000 1.802910 0.000000 
#    z 0.000000 0.000000 1.801390 
# 
# From -- ./inp_files/32527.got.cif
#   From: 2010.05.17/outbox.cif.g08.bks.cpg/sg62_17_cif.got.tgz:32527.got - 2010.06.03 15:25:27.
