data_PCOD9464170
_publ_section_title
;
Structure prediction by ZEFSAII (Michael W. Deem and Ramdas Pophale) SiO2 
 PCOD9464170
Probable space group: P N M A
;
_chemical_formula_sum "Si O2"
_cell_formula_units_Z 64
_cell_length_a 15.196555
_cell_length_b 8.067846
_cell_length_c 25.394466
_cell_angle_alpha 90.000000
_cell_angle_beta 90.000000
_cell_angle_gamma 90.000000
_cell_volume 3113.449535
_symmetry_space_group_name_H-M "P N M A"
_symmetry_group_IT_number 62
_symmetry_cell_setting 'orthorhombic'
loop_
_space_group_symop_operation_xyz
x,y,z
1/2-x,-y,1/2+z
1/2+x,1/2-y,1/2-z
-x,1/2+y,-z
-x,-y,-z
1/2+x,y,1/2-z
1/2-x,1/2+y,1/2+z
x,1/2-y,z
loop_
_atom_site_type_symbol
_atom_site_label
_atom_site_fract_x
_atom_site_fract_y
_atom_site_fract_z
Si Si1 0.945129 0.550242 0.867000
Si Si2 0.137132 0.944351 0.241255
Si Si3 0.837025 0.445848 0.266248
Si Si4 0.096408 0.450342 0.019991
Si Si5 0.997845 0.448121 0.668721
Si Si6 0.052276 0.950742 0.447911
Si Si7 0.641246 0.949144 0.648529
Si Si8 0.750361 0.446774 0.555021
O O1 0.938057 0.750000 0.860649
O O2 0.915651 0.469499 0.812871
O O3 0.893132 0.498005 0.919126
O O4 0.047464 0.511154 0.877089
O O5 0.152118 0.750000 0.250854
O O6 0.076813 0.011289 0.289666
O O7 0.232653 0.023614 0.230907
O O8 0.852467 0.250000 0.267461
O O9 0.862089 0.510116 0.208215
O O10 0.904616 0.518197 0.308685
O O11 0.098564 0.250000 0.019224
O O12 0.174420 0.515898 0.983084
O O13 0.000000 0.500000 0.000000
O O14 0.986556 0.250000 0.667759
O O15 0.984817 0.509371 0.608855
O O16 0.053353 0.750000 0.445787
O O17 0.152364 0.013338 0.453232
O O18 0.000000 0.000000 0.500000
O O19 0.651679 0.750000 0.649047
O O20 0.719040 0.024156 0.614542
O O21 0.753872 0.250000 0.545755
#
# Coordination Sequence:
#
# PCOD9464170 Si02
#       8
#     8   8   8   8   8   8   8   8
#     4  10  20  36  55  82 123 159 194 242 292 351
#     4  11  23  39  61  90 122 158 198 244 298 358
#     4  11  23  38  60  88 120 158 199 246 298 357
#     4  10  20  34  55  83 118 157 193 236 289 348
#     4  10  22  41  63  87 120 158 199 249 300 356
#     4  10  23  43  63  87 118 153 199 253 300 351
#     4  10  20  35  57  86 119 154 195 242 292 347
#     4  10  21  37  60  87 117 156 201 245 297 354
#
# _framework density 20.555979000000001
#
# number of rings (size 3 to 8) (size 9 to 14) (size 15 to 20)
#    0.000    1.750    2.500    1.500    0.000    5.500 
#    0.000    1.250    0.000    0.000    0.000    0.000 
#    0.000    0.000    0.000    0.000    0.000    0.000 
#
# Total GULP energy -357295.383120 kJ/mol
# GULP energy per Si atom -5582.740361 kJ/mol
# Density = 2.050919 g / cm^3
# Si number density = 20.555979 Si / 1000 Ang^3
#
#
#
# Elastic Constant Matrix: (Units=GPa)
#
#
# Indices 1 2 3 4 5 6 
#
# 1 138.6585 6.7403 81.2033 0.0000 0.0000 0.0000
# 2 6.7403 10.0059 10.2488 0.0000 0.0000 0.0000
# 3 81.2033 10.2488 162.7549 0.0000 0.0000 0.0000
# 4 0.0000 0.0000 0.0000 25.5383 0.0000 0.0000
# 5 0.0000 0.0000 0.0000 0.0000 27.9888 0.0000
# 6 0.0000 0.0000 0.0000 0.0000 0.0000 14.0171
#
#
#
# Elastic Compliance Matrix: (Units=1/GPa)
#
#
# Indices 1 2 3 4 5 6 
#
# 1 0.010219 -0.001776 -0.004987 0.000000 0.000000 0.000000
# 2 -0.001776 0.107141 -0.005861 0.000000 0.000000 0.000000
# 3 -0.004987 -0.005861 0.009001 0.000000 0.000000 0.000000
# 4 0.000000 0.000000 0.000000 0.039157 0.000000 0.000000
# 5 0.000000 0.000000 0.000000 0.000000 0.035729 0.000000
# 6 0.000000 0.000000 0.000000 0.000000 0.000000 0.071341
#
#
# Mechanical properties :
#
#
# Convention : Reuss Voigt Hill
#
# Bulk Modulus (GPa) = 9.88983 56.42268 33.15625
# Shear Modulus (GPa) = 15.08123 27.72397 21.40260
#
# Velocity S-wave (km/s) = 2.71157 3.67646 3.23024
# Velocity P-wave (km/s) = 3.82427 6.74757 5.48428
#
# Compressibility (1/GPa) = 0.10111396
#
# Stress axis : x y z
#
# Youngs Moduli (GPa) = 97.86098 9.33354 111.09661
#
# Poissons Ratio (x) = 0.01658 0.55398
# Poissons Ratio (y) = 0.17380 0.65109
# Poissons Ratio (z) = 0.48799 0.05470
#
# Static dielectric constant tensor:
#      x y z
#    x 1.753780 0.000000 0.000000 
#    y 0.000000 1.733930 0.000000 
#    z 0.000000 0.000000 1.739280 
# 
# From -- ./inp_files/29861.got.cif
#   From: 2010.05.17/outbox.cif.g08.bks.cpg/sg62_15_cif.got.tgz:29861.got - 2010.06.03 15:25:27.
