data_PCOD9464391
_publ_section_title
;
Structure prediction by ZEFSAII (Michael W. Deem and Ramdas Pophale) SiO2 
 PCOD9464391
Probable space group: P N M A
;
_chemical_formula_sum "Si O2"
_cell_formula_units_Z 64
_cell_length_a 14.617101
_cell_length_b 8.854690
_cell_length_c 25.312563
_cell_angle_alpha 90.000000
_cell_angle_beta 90.000000
_cell_angle_gamma 90.000000
_cell_volume 3276.202449
_symmetry_space_group_name_H-M "P N M A"
_symmetry_group_IT_number 62
_symmetry_cell_setting 'orthorhombic'
loop_
_space_group_symop_operation_xyz
x,y,z
1/2-x,-y,1/2+z
1/2+x,1/2-y,1/2-z
-x,1/2+y,-z
-x,-y,-z
1/2+x,y,1/2-z
1/2-x,1/2+y,1/2+z
x,1/2-y,z
loop_
_atom_site_type_symbol
_atom_site_label
_atom_site_fract_x
_atom_site_fract_y
_atom_site_fract_z
Si Si1 0.282204 0.932880 0.695519
Si Si2 0.974743 0.423033 0.944991
Si Si3 0.765535 0.070517 0.590396
Si Si4 0.530227 0.567874 0.056274
Si Si5 0.221584 0.576788 0.012711
Si Si6 0.512562 0.068350 0.333357
Si Si7 0.652810 0.068127 0.894297
Si Si8 0.315478 0.067744 0.303213
O O1 0.282229 0.750000 0.693345
O O2 0.387237 0.984290 0.686015
O O3 0.242434 0.980536 0.752267
O O4 0.212715 0.992567 0.651037
O O5 0.006575 0.250000 0.943033
O O6 0.864560 0.423660 0.948304
O O7 0.003292 0.511193 0.892930
O O8 0.000000 0.500000 0.000000
O O9 0.764209 0.250000 0.596698
O O10 0.868989 0.021211 0.575307
O O11 0.707541 0.022367 0.539011
O O12 0.728025 0.994891 0.643117
O O13 0.530053 0.750000 0.050690
O O14 0.453862 0.528699 0.100417
O O15 0.500000 0.500000 0.000000
O O16 0.236345 0.750000 0.995398
O O17 0.304957 0.523943 0.048777
O O18 0.515192 0.250000 0.333703
O O19 0.422639 0.021324 0.300566
O O20 0.661875 0.250000 0.889812
O O21 0.313392 0.250000 0.305285
#
# Coordination Sequence:
#
# PCOD9464391 Si02
#       8
#     8   8   8   8   8   8   8   8
#     4  10  22  40  63  88 114 150 199 247 285 336
#     4  11  22  35  54  84 117 152 193 235 287 346
#     4  11  23  37  57  88 120 152 196 246 289 340
#     4  10  21  36  56  84 119 156 194 236 289 348
#     4  10  20  35  56  81 114 154 190 230 288 352
#     4  10  21  39  61  85 116 151 191 238 288 344
#     4  10  20  37  59  84 115 152 192 236 290 347
#     4  10  23  42  61  84 117 157 194 235 294 352
#
# _framework density 19.534811999999999
#
# number of rings (size 3 to 8) (size 9 to 14) (size 15 to 20)
#    0.000    1.750    2.500    1.500    0.000    7.500 
#    0.000    1.250    0.000    0.000    0.000    0.000 
#    0.000    0.000    0.000    0.000    0.000    0.000 
#
# Total GULP energy -357264.376189 kJ/mol
# GULP energy per Si atom -5582.255878 kJ/mol
# Density = 1.949035 g / cm^3
# Si number density = 19.534812 Si / 1000 Ang^3
#
#
#
# Elastic Constant Matrix: (Units=GPa)
#
#
# Indices 1 2 3 4 5 6 
#
# 1 115.2572 21.6269 52.0500 0.0000 0.0000 0.0000
# 2 21.6269 8.3369 18.4067 0.0000 0.0000 0.0000
# 3 52.0500 18.4067 110.9611 0.0000 0.0000 0.0000
# 4 0.0000 0.0000 0.0000 29.7537 0.0000 0.0000
# 5 0.0000 0.0000 0.0000 0.0000 29.8678 0.0000
# 6 0.0000 0.0000 0.0000 0.0000 0.0000 23.5173
#
#
#
# Elastic Compliance Matrix: (Units=1/GPa)
#
#
# Indices 1 2 3 4 5 6 
#
# 1 0.016980 -0.041756 -0.001039 0.000000 0.000000 0.000000
# 2 -0.041756 0.291951 -0.028843 0.000000 0.000000 0.000000
# 3 -0.001039 -0.028843 0.014284 0.000000 0.000000 0.000000
# 4 0.000000 0.000000 0.000000 0.033609 0.000000 0.000000
# 5 0.000000 0.000000 0.000000 0.000000 0.033481 0.000000
# 6 0.000000 0.000000 0.000000 0.000000 0.000000 0.042522
#
#
# Mechanical properties :
#
#
# Convention : Reuss Voigt Hill
#
# Bulk Modulus (GPa) = 5.55741 46.52471 26.04106
# Shear Modulus (GPa) = 7.86061 26.12587 16.99324
#
# Velocity S-wave (km/s) = 2.00814 3.66102 2.95260
# Velocity P-wave (km/s) = 2.86843 6.46055 4.99833
#
# Compressibility (1/GPa) = 0.17994006
#
# Stress axis : x y z
#
# Youngs Moduli (GPa) = 58.89136 3.42523 70.00898
#
# Poissons Ratio (x) = 0.14303 0.07271
# Poissons Ratio (y) = 2.45909 2.01926
# Poissons Ratio (z) = 0.06116 0.09879
#
# Static dielectric constant tensor:
#      x y z
#    x 1.761280 0.000000 0.000000 
#    y 0.000000 1.669510 0.000000 
#    z 0.000000 0.000000 1.641130 
# 
# From -- ./inp_files/29772.got.cif
#   From: 2010.05.17/outbox.cif.g08.bks.cpg/sg62_15_cif.got.tgz:29772.got - 2010.06.03 15:25:27.
