data_PCOD9464367
_publ_section_title
;
Structure prediction by ZEFSAII (Michael W. Deem and Ramdas Pophale) SiO2 
 PCOD9464367
Probable space group: P N M A
;
_chemical_formula_sum "Si O2"
_cell_formula_units_Z 64
_cell_length_a 26.389443
_cell_length_b 8.754898
_cell_length_c 15.088434
_cell_angle_alpha 90.000000
_cell_angle_beta 90.000000
_cell_angle_gamma 90.000000
_cell_volume 3485.984742
_symmetry_space_group_name_H-M "P N M A"
_symmetry_group_IT_number 62
_symmetry_cell_setting 'orthorhombic'
loop_
_space_group_symop_operation_xyz
x,y,z
1/2-x,-y,1/2+z
1/2+x,1/2-y,1/2-z
-x,1/2+y,-z
-x,-y,-z
1/2+x,y,1/2-z
1/2-x,1/2+y,1/2+z
x,1/2-y,z
loop_
_atom_site_type_symbol
_atom_site_label
_atom_site_fract_x
_atom_site_fract_y
_atom_site_fract_z
Si Si1 0.216884 0.566956 0.001838
Si Si2 0.499824 0.067455 0.099763
Si Si3 0.866288 0.066273 0.855062
Si Si4 0.105469 0.934013 0.339860
Si Si5 0.828730 0.067214 0.486804
Si Si6 0.360540 0.932764 0.366608
Si Si7 0.604421 0.433408 0.829433
Si Si8 0.555053 0.068714 0.487278
O O1 0.221933 0.750000 0.003616
O O2 0.182035 0.518034 0.086033
O O3 0.271415 0.490027 0.006307
O O4 0.186039 0.516120 0.914422
O O5 0.498086 0.250000 0.094503
O O6 0.551157 0.012239 0.147086
O O7 0.450221 0.006223 0.150223
O O8 0.500000 0.000000 0.000000
O O9 0.867667 0.250000 0.859005
O O10 0.868109 0.020997 0.752476
O O11 0.915705 0.002234 0.904017
O O12 0.097979 0.750000 0.338877
O O13 0.140719 0.971046 0.423495
O O14 0.830166 0.250000 0.475676
O O15 0.857571 0.988325 0.405646
O O16 0.351062 0.750000 0.368804
O O17 0.373247 0.977694 0.266404
O O18 0.409561 0.963909 0.427685
O O19 0.599357 0.250000 0.831246
O O20 0.551817 0.250000 0.476796
O O21 0.500000 0.000000 0.500000
#
# Coordination Sequence:
#
# PCOD9464367 Si02
#       8
#     8   8   8   8   8   8   8   8
#     4  10  21  39  63  89 119 155 197 250 299 349
#     4  12  24  39  60  87 121 158 196 244 299 355
#     4   9  20  39  60  83 114 154 196 242 296 352
#     4  10  22  40  61  85 117 157 200 242 294 356
#     4  11  23  39  61  88 119 158 199 246 298 356
#     4   9  21  40  60  83 116 157 198 242 297 355
#     4  11  23  40  62  88 119 158 201 247 297 355
#     4  10  20  35  55  83 115 152 194 240 292 350
#
# _framework density 18.359231999999999
#
# number of rings (size 3 to 8) (size 9 to 14) (size 15 to 20)
#    0.000    1.750    1.250    2.625    1.750    4.000 
#    0.000    2.500    0.000    0.000    0.000    0.000 
#    0.000    0.000    0.000    0.000    0.000    0.000 
#
# Total GULP energy -357575.984415 kJ/mol
# GULP energy per Si atom -5587.124756 kJ/mol
# Density = 1.831745 g / cm^3
# Si number density = 18.359232 Si / 1000 Ang^3
#
#
#
# Elastic Constant Matrix: (Units=GPa)
#
#
# Indices 1 2 3 4 5 6 
#
# 1 138.3547 43.8717 55.3423 0.0000 0.0000 0.0000
# 2 43.8717 45.4892 45.8757 0.0000 0.0000 0.0000
# 3 55.3423 45.8757 151.3132 0.0000 0.0000 0.0000
# 4 0.0000 0.0000 0.0000 29.4943 0.0000 0.0000
# 5 0.0000 0.0000 0.0000 0.0000 -3.4348 0.0000
# 6 0.0000 0.0000 0.0000 0.0000 0.0000 36.6731
#
#
#
# Elastic Compliance Matrix: (Units=1/GPa)
#
#
# Indices 1 2 3 4 5 6 
#
# 1 0.010541 -0.009043 -0.001114 0.000000 0.000000 0.000000
# 2 -0.009043 0.039423 -0.008645 0.000000 0.000000 0.000000
# 3 -0.001114 -0.008645 0.009637 0.000000 0.000000 0.000000
# 4 0.000000 0.000000 0.000000 0.033905 0.000000 0.000000
# 5 0.000000 0.000000 0.000000 0.000000 -0.291142 0.000000
# 6 0.000000 0.000000 0.000000 0.000000 0.000000 0.027268
#
#
# Mechanical properties :
#
#
# Convention : Reuss Voigt Hill
#
# Bulk Modulus (GPa) = 45.45883 69.48182 57.47032
# Shear Modulus (GPa) = -39.86202 25.21769 -7.32216
#
# Velocity S-wave (km/s) = -4.66470 3.71019 -1.99923
# Velocity P-wave (km/s) = 2.04890 7.50213 5.10313
#
# Compressibility (1/GPa) = 0.02199793
#
# Stress axis : x y z
#
# Youngs Moduli (GPa) = 94.87053 25.36592 103.76543
#
# Poissons Ratio (x) = 0.22938 0.11555
# Poissons Ratio (y) = 0.85790 0.89705
# Poissons Ratio (z) = 0.10565 0.21929
#
# Static dielectric constant tensor:
#      x y z
#    x 1.592970 0.000000 0.000000 
#    y 0.000000 1.614920 0.000000 
#    z 0.000000 0.000000 1.626370 
# 
# From -- ./inp_files/20937.got.cif
#   From: 2010.05.17/outbox.cif.g08.bks.cpg/sg62_11_cif.got.tgz:20937.got - 2010.06.03 15:25:27.
