data_PCOD9464618
_publ_section_title
;
Structure prediction by ZEFSAII (Michael W. Deem and Ramdas Pophale) SiO2 
 PCOD9464618
Probable space group: P N M A
;
_chemical_formula_sum "Si O2"
_cell_formula_units_Z 64
_cell_length_a 15.512379
_cell_length_b 8.879137
_cell_length_c 23.342698
_cell_angle_alpha 90.000000
_cell_angle_beta 90.000000
_cell_angle_gamma 90.000000
_cell_volume 3215.142418
_symmetry_space_group_name_H-M "P N M A"
_symmetry_group_IT_number 62
_symmetry_cell_setting 'orthorhombic'
loop_
_space_group_symop_operation_xyz
x,y,z
1/2-x,-y,1/2+z
1/2+x,1/2-y,1/2-z
-x,1/2+y,-z
-x,-y,-z
1/2+x,y,1/2-z
1/2-x,1/2+y,1/2+z
x,1/2-y,z
loop_
_atom_site_type_symbol
_atom_site_label
_atom_site_fract_x
_atom_site_fract_y
_atom_site_fract_z
Si Si1 0.932879 0.075139 0.579549
Si Si2 0.147316 0.571524 0.921448
Si Si3 0.955204 0.571486 0.889816
Si Si4 0.889457 0.073643 0.445164
Si Si5 0.123507 0.073084 0.311000
Si Si6 0.708342 0.569912 0.451684
Si Si7 0.798790 0.571574 0.197814
Si Si8 0.986962 0.569968 0.230186
O O1 0.925720 0.250000 0.596254
O O2 0.902258 0.060297 0.514031
O O3 0.878129 0.973280 0.622376
O O4 0.031642 0.019156 0.581541
O O5 0.161345 0.750000 0.909365
O O6 0.179760 0.476129 0.867561
O O7 0.043989 0.548539 0.925250
O O8 0.191825 0.532801 0.981270
O O9 0.938964 0.750000 0.886839
O O10 0.874313 0.488649 0.917375
O O11 0.975757 0.507101 0.827005
O O12 0.896674 0.250000 0.430250
O O13 0.796158 0.007667 0.431125
O O14 0.115515 0.250000 0.304093
O O15 0.212691 0.014247 0.284413
O O16 0.043013 0.989865 0.282321
O O17 0.715434 0.750000 0.446897
O O18 0.784230 0.750000 0.200818
O O19 0.885261 0.532830 0.232914
O O20 0.994135 0.750000 0.225093
#
# Coordination Sequence:
#
# PCOD9464618 Si02
#       8
#     8   8   8   8   8   8   8   8
#     4  10  21  39  62  86 115 150 190 238 290 345
#     4   9  19  34  55  83 116 152 193 240 287 342
#     4  10  20  36  56  80 114 152 192 240 293 344
#     4  10  21  37  57  84 118 153 190 236 289 345
#     4  12  24  39  63  91 119 153 195 242 291 350
#     4  11  21  33  52  82 117 156 196 233 283 347
#     4  10  21  38  62  89 116 150 193 243 294 347
#     4  10  22  42  63  85 116 152 195 246 297 348
#
# _framework density 19.905805999999998
#
# number of rings (size 3 to 8) (size 9 to 14) (size 15 to 20)
#    0.000    1.750    0.000    4.500    0.000    6.500 
#    2.250    0.000    0.000    0.000    0.000    0.000 
#    0.000    0.000    0.000    0.000    0.000    0.000 
#
# Total GULP energy -357778.055985 kJ/mol
# GULP energy per Si atom -5590.282125 kJ/mol
# Density = 1.986050 g / cm^3
# Si number density = 19.905806 Si / 1000 Ang^3
#
#
#
# Elastic Constant Matrix: (Units=GPa)
#
#
# Indices 1 2 3 4 5 6 
#
# 1 97.3182 22.1778 2.0135 0.0000 0.0000 0.0000
# 2 22.1778 37.7589 1.1344 0.0000 0.0000 0.0000
# 3 2.0135 1.1344 12.2915 0.0000 0.0000 0.0000
# 4 0.0000 0.0000 0.0000 29.3069 0.0000 0.0000
# 5 0.0000 0.0000 0.0000 0.0000 21.0788 0.0000
# 6 0.0000 0.0000 0.0000 0.0000 0.0000 33.0393
#
#
#
# Elastic Compliance Matrix: (Units=1/GPa)
#
#
# Indices 1 2 3 4 5 6 
#
# 1 0.011884 -0.006941 -0.001306 0.000000 0.000000 0.000000
# 2 -0.006941 0.030611 -0.001688 0.000000 0.000000 0.000000
# 3 -0.001306 -0.001688 0.081727 0.000000 0.000000 0.000000
# 4 0.000000 0.000000 0.000000 0.034122 0.000000 0.000000
# 5 0.000000 0.000000 0.000000 0.000000 0.047441 0.000000
# 6 0.000000 0.000000 0.000000 0.000000 0.000000 0.030267
#
#
# Mechanical properties :
#
#
# Convention : Reuss Voigt Hill
#
# Bulk Modulus (GPa) = 9.58296 22.00222 15.79259
# Shear Modulus (GPa) = 17.19946 24.82121 21.01033
#
# Velocity S-wave (km/s) = 2.94265 3.53502 3.25235
# Velocity P-wave (km/s) = 4.04601 5.26679 4.69623
#
# Compressibility (1/GPa) = 0.10435189
#
# Stress axis : x y z
#
# Youngs Moduli (GPa) = 84.14387 32.66758 12.23589
#
# Poissons Ratio (x) = 0.22675 0.01598
# Poissons Ratio (y) = 0.58405 0.02065
# Poissons Ratio (z) = 0.10991 0.05514
#
# Static dielectric constant tensor:
#      x y z
#    x 1.704570 0.000000 0.000000 
#    y 0.000000 1.657190 0.000000 
#    z 0.000000 0.000000 1.699640 
# 
# From -- ./inp_files/29833.got.cif
#   From: 2010.05.17/outbox.cif.g08.bks.cpg/sg62_15_cif.got.tgz:29833.got - 2010.06.03 15:25:27.
