data_PCOD9464405
_publ_section_title
;
Structure prediction by ZEFSAII (Michael W. Deem and Ramdas Pophale) SiO2 
 PCOD9464405
Probable space group: P N M A
;
_chemical_formula_sum "Si O2"
_cell_formula_units_Z 64
_cell_length_a 14.115436
_cell_length_b 14.328446
_cell_length_c 16.335357
_cell_angle_alpha 90.000000
_cell_angle_beta 90.000000
_cell_angle_gamma 90.000000
_cell_volume 3303.862912
_symmetry_space_group_name_H-M "P N M A"
_symmetry_group_IT_number 62
_symmetry_cell_setting 'orthorhombic'
loop_
_space_group_symop_operation_xyz
x,y,z
1/2-x,-y,1/2+z
1/2+x,1/2-y,1/2-z
-x,1/2+y,-z
-x,-y,-z
1/2+x,y,1/2-z
1/2-x,1/2+y,1/2+z
x,1/2-y,z
loop_
_atom_site_type_symbol
_atom_site_label
_atom_site_fract_x
_atom_site_fract_y
_atom_site_fract_z
Si Si1 0.071305 0.358997 0.280335
Si Si2 0.191260 0.643244 0.338870
Si Si3 0.388608 0.141931 0.335388
Si Si4 0.925236 0.360066 0.972310
Si Si5 0.137019 0.356584 0.961508
Si Si6 0.255480 0.975364 0.733998
Si Si7 0.755087 0.488436 0.941023
Si Si8 0.586964 0.010336 0.061730
O O1 0.087896 0.250000 0.297925
O O2 0.157215 0.403964 0.229464
O O3 0.066371 0.418217 0.364380
O O4 0.977899 0.366434 0.224945
O O5 0.163846 0.750000 0.322196
O O6 0.293560 0.644381 0.383827
O O7 0.204734 0.574978 0.262622
O O8 0.117990 0.588674 0.398020
O O9 0.354015 0.250000 0.329971
O O10 0.416218 0.125089 0.429572
O O11 0.311839 0.068591 0.303089
O O12 0.917255 0.250000 0.956193
O O13 0.838235 0.413277 0.931781
O O14 0.030379 0.391005 0.945249
O O15 0.128064 0.250000 0.991928
O O16 0.190553 0.420704 0.025915
O O17 0.208387 0.987727 0.645812
O O18 0.678181 0.458695 0.008302
O O19 0.500000 0.000000 0.000000
#
# Coordination Sequence:
#
# PCOD9464405 Si02
#       8
#     8   8   8   8   8   8   8   8
#     4  10  21  37  58  83 112 145 179 224 283 339
#     4   9  20  38  57  77 106 147 189 229 272 323
#     4  10  20  35  57  84 112 140 174 222 279 334
#     4  10  20  35  56  83 111 136 170 219 276 334
#     4   9  18  34  57  82 105 132 171 221 277 330
#     4  11  22  35  54  79 111 146 184 225 267 325
#     4  11  22  34  54  80 109 145 180 222 269 320
#     4  10  21  38  57  80 110 145 190 234 274 325
#
# _framework density 19.371264
#
# number of rings (size 3 to 8) (size 9 to 14) (size 15 to 20)
#    0.000    2.000    0.000    4.500    0.000    5.500 
#    0.000    2.500    0.000    7.500    0.000    0.000 
#    0.000    0.000    0.000    0.000    0.000    0.000 
#
# Total GULP energy -357277.923063 kJ/mol
# GULP energy per Si atom -5582.467548 kJ/mol
# Density = 1.932717 g / cm^3
# Si number density = 19.371264 Si / 1000 Ang^3
#
#
#
# Elastic Constant Matrix: (Units=GPa)
#
#
# Indices 1 2 3 4 5 6 
#
# 1 64.5919 26.9384 7.7070 0.0000 0.0000 0.0000
# 2 26.9384 103.8260 17.0325 0.0000 0.0000 0.0000
# 3 7.7070 17.0325 47.5659 0.0000 0.0000 0.0000
# 4 0.0000 0.0000 0.0000 4.8562 0.0000 0.0000
# 5 0.0000 0.0000 0.0000 0.0000 22.9956 0.0000
# 6 0.0000 0.0000 0.0000 0.0000 0.0000 24.4100
#
#
#
# Elastic Compliance Matrix: (Units=1/GPa)
#
#
# Indices 1 2 3 4 5 6 
#
# 1 0.017433 -0.004313 -0.001280 0.000000 0.000000 0.000000
# 2 -0.004313 0.011300 -0.003347 0.000000 0.000000 0.000000
# 3 -0.001280 -0.003347 0.022430 0.000000 0.000000 0.000000
# 4 0.000000 0.000000 0.000000 0.205924 0.000000 0.000000
# 5 0.000000 0.000000 0.000000 0.000000 0.043487 0.000000
# 6 0.000000 0.000000 0.000000 0.000000 0.000000 0.040967
#
#
# Mechanical properties :
#
#
# Convention : Reuss Voigt Hill
#
# Bulk Modulus (GPa) = 30.04709 35.48216 32.76463
# Shear Modulus (GPa) = 13.49472 21.40608 17.45040
#
# Velocity S-wave (km/s) = 2.64225 3.32783 3.00466
# Velocity P-wave (km/s) = 4.98533 5.75522 5.38405
#
# Compressibility (1/GPa) = 0.03328109
#
# Stress axis : x y z
#
# Youngs Moduli (GPa) = 57.36112 88.49774 44.58414
#
# Poissons Ratio (x) = 0.38171 0.05708
# Poissons Ratio (y) = 0.24741 0.14924
# Poissons Ratio (z) = 0.07343 0.29623
#
# Static dielectric constant tensor:
#      x y z
#    x 1.671740 0.000000 0.000000 
#    y 0.000000 1.680450 0.000000 
#    z 0.000000 0.000000 1.683420 
# 
# From -- ./inp_files/23244.got.cif
#   From: 2010.05.17/outbox.cif.g08.bks.cpg/sg62_12_cif.got.tgz:23244.got - 2010.06.03 15:25:27.
