data_PCOD9464355
_publ_section_title
;
Structure prediction by ZEFSAII (Michael W. Deem and Ramdas Pophale) SiO2 
 PCOD9464355
Probable space group: P N M A
;
_chemical_formula_sum "Si O2"
_cell_formula_units_Z 64
_cell_length_a 17.699043
_cell_length_b 7.625547
_cell_length_c 21.754570
_cell_angle_alpha 90.000000
_cell_angle_beta 90.000000
_cell_angle_gamma 90.000000
_cell_volume 2936.103022
_symmetry_space_group_name_H-M "P N M A"
_symmetry_group_IT_number 62
_symmetry_cell_setting 'orthorhombic'
loop_
_space_group_symop_operation_xyz
x,y,z
1/2-x,-y,1/2+z
1/2+x,1/2-y,1/2-z
-x,1/2+y,-z
-x,-y,-z
1/2+x,y,1/2-z
1/2-x,1/2+y,1/2+z
x,1/2-y,z
loop_
_atom_site_type_symbol
_atom_site_label
_atom_site_fract_x
_atom_site_fract_y
_atom_site_fract_z
Si Si1 0.662519 0.456387 0.734974
Si Si2 0.401902 0.035379 0.049708
Si Si3 0.882022 0.453462 0.900717
Si Si4 0.439001 0.953785 0.909863
Si Si5 0.457198 0.538019 0.361039
Si Si6 0.217134 0.463509 0.369308
Si Si7 0.773180 0.451512 0.362984
Si Si8 0.337425 0.458821 0.466188
O O1 0.652680 0.250000 0.745539
O O2 0.589685 0.526813 0.698051
O O3 0.733357 0.482681 0.689049
O O4 0.680727 0.539356 0.800069
O O5 0.402888 0.250000 0.047821
O O6 0.475860 0.974802 0.088203
O O7 0.325681 0.975417 0.082650
O O8 0.411752 0.967621 0.980795
O O9 0.900487 0.250000 0.913090
O O10 0.808172 0.460538 0.858578
O O11 0.957840 0.528265 0.870737
O O12 0.857085 0.530971 0.966655
O O13 0.446072 0.750000 0.892670
O O14 0.369126 0.028341 0.871149
O O15 0.457385 0.750000 0.355880
O O16 0.407598 0.490837 0.420680
O O17 0.215855 0.250000 0.370712
O O18 0.263824 0.526189 0.429601
O O19 0.757832 0.250000 0.377451
O O20 0.325978 0.250000 0.472430
#
# Coordination Sequence:
#
# PCOD9464355 Si02
#       8
#     8   8   8   8   8   8   8   8
#     4  10  21  38  56  73 101 140 179 219 266 314
#     4   9  19  34  52  77 109 139 172 217 264 313
#     4  10  20  35  55  81 111 139 174 219 264 317
#     4   9  17  32  55  81 109 139 173 213 261 315
#     4   9  19  35  55  79 108 141 175 217 264 314
#     4   9  17  31  52  78 107 138 176 216 255 309
#     4  11  23  38  54  75 105 142 182 223 267 313
#     4   9  17  29  51  82 113 144 172 207 260 316
#
# _framework density 21.797599999999999
#
# number of rings (size 3 to 8) (size 9 to 14) (size 15 to 20)
#    0.000    2.500    0.000    1.875    0.000    4.000 
#    2.250    2.500    0.000    0.000    0.000    0.000 
#    0.000    0.000    0.000    0.000    0.000    0.000 
#
# Total GULP energy -357187.735417 kJ/mol
# GULP energy per Si atom -5581.058366 kJ/mol
# Density = 2.174799 g / cm^3
# Si number density = 21.797600 Si / 1000 Ang^3
#
#
#
# Elastic Constant Matrix: (Units=GPa)
#
#
# Indices 1 2 3 4 5 6 
#
# 1 81.8306 -3.8817 -5.5761 0.0000 0.0000 0.0000
# 2 -3.8817 44.4695 -10.0839 0.0000 0.0000 0.0000
# 3 -5.5761 -10.0839 40.3464 0.0000 0.0000 0.0000
# 4 0.0000 0.0000 0.0000 18.9728 0.0000 0.0000
# 5 0.0000 0.0000 0.0000 0.0000 7.2253 0.0000
# 6 0.0000 0.0000 0.0000 0.0000 0.0000 8.2495
#
#
#
# Elastic Compliance Matrix: (Units=1/GPa)
#
#
# Indices 1 2 3 4 5 6 
#
# 1 0.012438 0.001564 0.002110 0.000000 0.000000 0.000000
# 2 0.001564 0.024035 0.006223 0.000000 0.000000 0.000000
# 3 0.002110 0.006223 0.026632 0.000000 0.000000 0.000000
# 4 0.000000 0.000000 0.000000 0.052707 0.000000 0.000000
# 5 0.000000 0.000000 0.000000 0.000000 0.138402 0.000000
# 6 0.000000 0.000000 0.000000 0.000000 0.000000 0.121220
#
#
# Mechanical properties :
#
#
# Convention : Reuss Voigt Hill
#
# Bulk Modulus (GPa) = 12.06263 14.17369 13.11816
# Shear Modulus (GPa) = 13.04554 19.30207 16.17380
#
# Velocity S-wave (km/s) = 2.44905 2.97899 2.72692
# Velocity P-wave (km/s) = 3.68009 4.28357 3.99325
#
# Compressibility (1/GPa) = 0.08290069
#
# Stress axis : x y z
#
# Youngs Moduli (GPa) = 80.39652 41.60587 37.54833
#
# Poissons Ratio (x) = -0.06508 -0.07923
# Poissons Ratio (y) = -0.12576 -0.23367
# Poissons Ratio (z) = -0.16963 -0.25893
#
# Static dielectric constant tensor:
#      x y z
#    x 1.821910 0.000000 0.000000 
#    y 0.000000 1.806380 0.000000 
#    z 0.000000 0.000000 1.765740 
# 
# From -- ./inp_files/29848.got.cif
#   From: 2010.05.17/outbox.cif.g08.bks.cpg/sg62_15_cif.got.tgz:29848.got - 2010.06.03 15:25:27.
