data_PCOD9464068
_publ_section_title
;
Structure prediction by ZEFSAII (Michael W. Deem and Ramdas Pophale) SiO2 
 PCOD9464068
Probable space group: P N M A
;
_chemical_formula_sum "Si O2"
_cell_formula_units_Z 40
_cell_length_a 9.832540
_cell_length_b 8.945130
_cell_length_c 26.183659
_cell_angle_alpha 90.000000
_cell_angle_beta 90.000000
_cell_angle_gamma 90.000000
_cell_volume 2302.940486
_symmetry_space_group_name_H-M "P N M A"
_symmetry_group_IT_number 62
_symmetry_cell_setting 'orthorhombic'
loop_
_space_group_symop_operation_xyz
x,y,z
1/2-x,-y,1/2+z
1/2+x,1/2-y,1/2-z
-x,1/2+y,-z
-x,-y,-z
1/2+x,y,1/2-z
1/2-x,1/2+y,1/2+z
x,1/2-y,z
loop_
_atom_site_type_symbol
_atom_site_label
_atom_site_fract_x
_atom_site_fract_y
_atom_site_fract_z
Si Si1 0.512841 0.428576 0.718636
Si Si2 0.719258 0.927407 0.362247
Si Si3 0.488462 0.929052 0.444438
Si Si4 0.708693 0.571231 0.636182
Si Si5 0.490990 0.427683 0.169861
O O1 0.533610 0.250000 0.718726
O O2 0.372963 0.459222 0.687850
O O3 0.631596 0.505343 0.685688
O O4 0.507988 0.491124 0.775413
O O5 0.747905 0.750000 0.362427
O O6 0.622587 0.961887 0.410333
O O7 0.858146 0.017362 0.359916
O O8 0.475011 0.750000 0.447212
O O9 0.500000 0.000000 0.500000
O O10 0.363251 0.997091 0.412520
O O11 0.690033 0.750000 0.634665
O O12 0.868243 0.537968 0.641097
O O13 0.485034 0.250000 0.178073
#
# Coordination Sequence:
#
# PCOD9464068 Si02
#       5
#     8   8   8   8   8
#     4  10  20  34  53  77 107 146 185 217 257 311
#     4   9  20  36  54  78 106 138 177 217 259 312
#     4  10  21  39  62  83 102 132 174 218 267 319
#     4  10  21  36  54  79 109 140 178 220 260 309
#     4  11  22  33  50  79 112 144 177 216 262 309
#
# _framework density 17.3691
#
# number of rings (size 3 to 8) (size 9 to 14) (size 15 to 20)
#    0.000    2.000    0.000    4.800    0.000   11.200 
#    0.000    1.000    0.000    0.000    0.000    0.000 
#    0.000    0.000    0.000    0.000    0.000    0.000 
#
# Total GULP energy -223425.611381 kJ/mol
# GULP energy per Si atom -5585.640285 kJ/mol
# Density = 1.732957 g / cm^3
# Si number density = 17.369100 Si / 1000 Ang^3
#
#
#
# Elastic Constant Matrix: (Units=GPa)
#
#
# Indices 1 2 3 4 5 6 
#
# 1 149.5338 84.4821 65.2989 0.0000 0.0000 0.0000
# 2 84.4821 82.3718 60.4378 0.0000 0.0000 0.0000
# 3 65.2989 60.4378 124.1861 0.0000 0.0000 0.0000
# 4 0.0000 0.0000 0.0000 32.1007 0.0000 0.0000
# 5 0.0000 0.0000 0.0000 0.0000 2.5793 0.0000
# 6 0.0000 0.0000 0.0000 0.0000 0.0000 32.3646
#
#
#
# Elastic Compliance Matrix: (Units=1/GPa)
#
#
# Indices 1 2 3 4 5 6 
#
# 1 0.015936 -0.015859 -0.000661 0.000000 0.000000 0.000000
# 2 -0.015859 0.034666 -0.008532 0.000000 0.000000 0.000000
# 3 -0.000661 -0.008532 0.012552 0.000000 0.000000 0.000000
# 4 0.000000 0.000000 0.000000 0.031152 0.000000 0.000000
# 5 0.000000 0.000000 0.000000 0.000000 0.387705 0.000000
# 6 0.000000 0.000000 0.000000 0.000000 0.000000 0.030898
#
#
# Mechanical properties :
#
#
# Convention : Reuss Voigt Hill
#
# Bulk Modulus (GPa) = 76.63081 86.28103 81.45592
# Shear Modulus (GPa) = 8.81269 23.13379 15.97324
#
# Velocity S-wave (km/s) = 2.25495 3.65347 3.03584
# Velocity P-wave (km/s) = 7.14105 8.22070 7.69982
#
# Compressibility (1/GPa) = 0.01304958
#
# Stress axis : x y z
#
# Youngs Moduli (GPa) = 62.74988 28.84699 79.66723
#
# Poissons Ratio (x) = 0.45750 0.05268
# Poissons Ratio (y) = 0.99518 0.67969
# Poissons Ratio (z) = 0.04149 0.24611
#
# Static dielectric constant tensor:
#      x y z
#    x 1.585910 0.000000 0.000000 
#    y 0.000000 1.580980 0.000000 
#    z 0.000000 0.000000 1.557500 
# 
# From -- ./inp_files/28563.got.cif
#   From: 2010.05.17/outbox.cif.g08.bks.cpg/sg62_15_cif.got.tgz:28563.got - 2010.06.03 15:25:27.
