data_PCOD9464501
_publ_section_title
;
Structure prediction by ZEFSAII (Michael W. Deem and Ramdas Pophale) SiO2 
 PCOD9464501
Probable space group: P N M A
;
_chemical_formula_sum "Si O2"
_cell_formula_units_Z 48
_cell_length_a 18.233322
_cell_length_b 8.858093
_cell_length_c 16.814480
_cell_angle_alpha 90.000000
_cell_angle_beta 90.000000
_cell_angle_gamma 90.000000
_cell_volume 2715.748062
_symmetry_space_group_name_H-M "P N M A"
_symmetry_group_IT_number 62
_symmetry_cell_setting 'orthorhombic'
loop_
_space_group_symop_operation_xyz
x,y,z
1/2-x,-y,1/2+z
1/2+x,1/2-y,1/2-z
-x,1/2+y,-z
-x,-y,-z
1/2+x,y,1/2-z
1/2-x,1/2+y,1/2+z
x,1/2-y,z
loop_
_atom_site_type_symbol
_atom_site_label
_atom_site_fract_x
_atom_site_fract_y
_atom_site_fract_z
Si Si1 0.942887 0.070227 0.260979
Si Si2 0.096735 0.071947 0.172130
Si Si3 0.165145 0.929990 0.324361
Si Si4 0.667571 0.069618 0.640629
Si Si5 0.983918 0.069340 0.585799
Si Si6 0.580958 0.570581 0.493643
O O1 0.933156 0.250000 0.268309
O O2 0.013813 0.043838 0.204046
O O3 0.873917 0.994948 0.217973
O O4 0.963723 0.999372 0.345897
O O5 0.103948 0.250000 0.156558
O O6 0.148478 0.019379 0.243697
O O7 0.110323 0.979144 0.092387
O O8 0.160838 0.750000 0.307976
O O9 0.245979 0.963672 0.355941
O O10 0.099296 0.965479 0.385466
O O11 0.657542 0.250000 0.637570
O O12 0.630320 0.995095 0.564033
O O13 0.992261 0.250000 0.583676
O O14 0.000000 0.000000 0.500000
O O15 0.500000 0.500000 0.500000
O O16 0.576102 0.750000 0.500630
#
# Coordination Sequence:
#
# PCOD9464501 Si02
#       6
#     8   8   8   8   8   8
#     4  10  20  35  58  85 113 148 189 233 284 346
#     4  10  20  36  59  85 113 149 191 233 283 342
#     4   9  21  40  60  83 115 152 191 237 292 344
#     4  11  22  38  59  85 118 153 191 240 293 346
#     4  10  20  38  62  86 113 149 195 244 286 340
#     4  12  23  36  58  87 119 154 194 240 287 345
#
# _framework density 17.674686999999999
#
# number of rings (size 3 to 8) (size 9 to 14) (size 15 to 20)
#    0.000    1.667    1.667    3.500    0.000    3.333 
#    3.000    0.000    0.000    0.000    0.000    0.000 
#    0.000    0.000    0.000    0.000    0.000    0.000 
#
# Total GULP energy -268166.109802 kJ/mol
# GULP energy per Si atom -5586.793954 kJ/mol
# Density = 1.763446 g / cm^3
# Si number density = 17.674687 Si / 1000 Ang^3
#
#
#
# Elastic Constant Matrix: (Units=GPa)
#
#
# Indices 1 2 3 4 5 6 
#
# 1 100.7542 64.0763 70.1183 0.0000 0.0000 0.0000
# 2 64.0763 96.9193 77.2966 0.0000 0.0000 0.0000
# 3 70.1183 77.2966 156.0790 0.0000 0.0000 0.0000
# 4 0.0000 0.0000 0.0000 38.7558 0.0000 0.0000
# 5 0.0000 0.0000 0.0000 0.0000 20.5291 0.0000
# 6 0.0000 0.0000 0.0000 0.0000 0.0000 24.5675
#
#
#
# Elastic Compliance Matrix: (Units=1/GPa)
#
#
# Indices 1 2 3 4 5 6 
#
# 1 0.018328 -0.009174 -0.003690 0.000000 0.000000 0.000000
# 2 -0.009174 0.021645 -0.006598 0.000000 0.000000 0.000000
# 3 -0.003690 -0.006598 0.011333 0.000000 0.000000 0.000000
# 4 0.000000 0.000000 0.000000 0.025803 0.000000 0.000000
# 5 0.000000 0.000000 0.000000 0.000000 0.048711 0.000000
# 6 0.000000 0.000000 0.000000 0.000000 0.000000 0.040704
#
#
# Mechanical properties :
#
#
# Convention : Reuss Voigt Hill
#
# Bulk Modulus (GPa) = 80.77142 86.30387 83.53765
# Shear Modulus (GPa) = 23.85773 26.25458 25.05615
#
# Velocity S-wave (km/s) = 3.67798 3.85831 3.76923
# Velocity P-wave (km/s) = 7.98967 8.29360 8.14306
#
# Compressibility (1/GPa) = 0.01238062
#
# Stress axis : x y z
#
# Youngs Moduli (GPa) = 54.56237 46.19941 88.23997
#
# Poissons Ratio (x) = 0.42382 0.32565
# Poissons Ratio (y) = 0.50054 0.58224
# Poissons Ratio (z) = 0.20136 0.30484
#
# Static dielectric constant tensor:
#      x y z
#    x 1.588510 0.000000 0.000000 
#    y 0.000000 1.588950 0.000000 
#    z 0.000000 0.000000 1.583260 
# 
# From -- ./inp_files/19637.got.cif
#   From: 2010.05.17/outbox.cif.g08.bks.cpg/sg62_10_cif.got.tgz:19637.got - 2010.06.03 15:25:27.
