data_PCOD9464478
_publ_section_title
;
Structure prediction by ZEFSAII (Michael W. Deem and Ramdas Pophale) SiO2 
 PCOD9464478
Probable space group: P N M A
;
_chemical_formula_sum "Si O2"
_cell_formula_units_Z 48
_cell_length_a 29.367589
_cell_length_b 8.948725
_cell_length_c 8.449442
_cell_angle_alpha 90.000000
_cell_angle_beta 90.000000
_cell_angle_gamma 90.000000
_cell_volume 2220.534294
_symmetry_space_group_name_H-M "P N M A"
_symmetry_group_IT_number 62
_symmetry_cell_setting 'orthorhombic'
loop_
_space_group_symop_operation_xyz
x,y,z
1/2-x,-y,1/2+z
1/2+x,1/2-y,1/2-z
-x,1/2+y,-z
-x,-y,-z
1/2+x,y,1/2-z
1/2-x,1/2+y,1/2+z
x,1/2-y,z
loop_
_atom_site_type_symbol
_atom_site_label
_atom_site_fract_x
_atom_site_fract_y
_atom_site_fract_z
Si Si1 0.974990 0.925579 0.745646
Si Si2 0.685845 0.428007 0.248195
Si Si3 0.651669 0.927118 0.736078
Si Si4 0.731847 0.072689 0.911487
Si Si5 0.063180 0.926353 0.567713
Si Si6 0.103413 0.572152 0.092274
O O1 0.969896 0.750000 0.772255
O O2 0.028020 0.957699 0.711805
O O3 0.951394 0.974195 0.579958
O O4 0.947248 0.012136 0.879258
O O5 0.680876 0.250000 0.258977
O O6 0.721099 0.488842 0.378941
O O7 0.637455 0.505083 0.276526
O O8 0.708644 0.464624 0.079307
O O9 0.663336 0.750000 0.727644
O O10 0.614121 0.948486 0.872956
O O11 0.626344 0.969418 0.574339
O O12 0.696005 0.020224 0.778781
O O13 0.739692 0.250000 0.905636
O O14 0.057139 0.750000 0.526614
O O15 0.102797 0.750000 0.103391
#
# Coordination Sequence:
#
# PCOD9464478 Si02
#       6
#     8   8   8   8   8   8
#     4  10  20  35  57  85 114 147 190 235 282 338
#     4  11  24  41  61  86 115 147 186 230 277 333
#     4  10  22  39  58  82 113 150 191 232 277 332
#     4  11  24  40  60  87 115 145 184 229 278 332
#     4   9  19  37  59  82 112 150 190 235 285 334
#     4  11  23  38  57  83 115 150 189 232 279 332
#
# _framework density 21.616419
#
# number of rings (size 3 to 8) (size 9 to 14) (size 15 to 20)
#    0.000    1.667    0.000    4.000    0.000   12.667 
#    0.000    0.000    0.000    0.000    0.000    0.000 
#    0.000    0.000    0.000    0.000    0.000    0.000 
#
# Total GULP energy -268543.555519 kJ/mol
# GULP energy per Si atom -5594.657407 kJ/mol
# Density = 2.156722 g / cm^3
# Si number density = 21.616419 Si / 1000 Ang^3
#
#
#
# Elastic Constant Matrix: (Units=GPa)
#
#
# Indices 1 2 3 4 5 6 
#
# 1 62.4960 9.4873 -14.5660 0.0000 0.0000 0.0000
# 2 9.4873 17.1087 5.3609 0.0000 0.0000 0.0000
# 3 -14.5660 5.3609 49.4421 0.0000 0.0000 0.0000
# 4 0.0000 0.0000 0.0000 21.1423 0.0000 0.0000
# 5 0.0000 0.0000 0.0000 0.0000 30.1919 0.0000
# 6 0.0000 0.0000 0.0000 0.0000 0.0000 -18.3855
#
#
#
# Elastic Compliance Matrix: (Units=1/GPa)
#
#
# Indices 1 2 3 4 5 6 
#
# 1 0.019687 -0.013182 0.007229 0.000000 0.000000 0.000000
# 2 -0.013182 0.069332 -0.011401 0.000000 0.000000 0.000000
# 3 0.007229 -0.011401 0.023592 0.000000 0.000000 0.000000
# 4 0.000000 0.000000 0.000000 0.047299 0.000000 0.000000
# 5 0.000000 0.000000 0.000000 0.000000 0.033121 0.000000
# 6 0.000000 0.000000 0.000000 0.000000 0.000000 -0.054391
#
#
# Mechanical properties :
#
#
# Convention : Reuss Voigt Hill
#
# Bulk Modulus (GPa) = 12.83653 14.40123 13.61888
# Shear Modulus (GPa) = 25.08580 15.17403 20.12991
#
# Velocity S-wave (km/s) = 3.41030 2.65234 3.05492
# Velocity P-wave (km/s) = 4.63229 4.00706 4.33097
#
# Compressibility (1/GPa) = 0.07790267
#
# Stress axis : x y z
#
# Youngs Moduli (GPa) = 50.79468 14.42336 42.38784
#
# Poissons Ratio (x) = 0.19013 -0.30643
# Poissons Ratio (y) = 0.66959 0.48327
# Poissons Ratio (z) = -0.36721 0.16444
#
# Static dielectric constant tensor:
#      x y z
#    x 1.775850 0.000000 0.000000 
#    y 0.000000 1.720610 0.000000 
#    z 0.000000 0.000000 1.821620 
# 
# From -- ./inp_files/10260.got.cif
#   From: 2010.05.17/outbox.cif.g08.bks.cpg/sg62_6_cif.got.tgz:10260.got - 2010.06.03 15:25:27.
