data_PCOD9464880
_publ_section_title
;
Structure prediction by ZEFSAII (Michael W. Deem and Ramdas Pophale) SiO2 
 PCOD9464880
Probable space group: P N M A
;
_chemical_formula_sum "Si O2"
_cell_formula_units_Z 64
_cell_length_a 24.530604
_cell_length_b 7.911801
_cell_length_c 15.376956
_cell_angle_alpha 90.000000
_cell_angle_beta 90.000000
_cell_angle_gamma 90.000000
_cell_volume 2984.378953
_symmetry_space_group_name_H-M "P N M A"
_symmetry_group_IT_number 62
_symmetry_cell_setting 'orthorhombic'
loop_
_space_group_symop_operation_xyz
x,y,z
1/2-x,-y,1/2+z
1/2+x,1/2-y,1/2-z
-x,1/2+y,-z
-x,-y,-z
1/2+x,y,1/2-z
1/2-x,1/2+y,1/2+z
x,1/2-y,z
loop_
_atom_site_type_symbol
_atom_site_label
_atom_site_fract_x
_atom_site_fract_y
_atom_site_fract_z
Si Si1 0.666917 0.454319 0.571499
Si Si2 0.028038 0.047703 0.590917
Si Si3 0.975517 0.945132 0.768367
Si Si4 0.245653 0.954481 0.770299
Si Si5 0.956109 0.555268 0.071269
Si Si6 0.631299 0.044027 0.187812
Si Si7 0.249057 0.051459 0.073946
Si Si8 0.864122 0.954145 0.494149
O O1 0.666177 0.250000 0.565813
O O2 0.700365 0.492184 0.659881
O O3 0.604839 0.521991 0.571564
O O4 0.701322 0.518970 0.487896
O O5 0.024281 0.250000 0.603182
O O6 0.091344 0.999873 0.577646
O O7 0.000000 0.000000 0.500000
O O8 0.001401 0.957497 0.672675
O O9 0.971993 0.750000 0.796238
O O10 0.914070 0.014851 0.756345
O O11 0.014598 0.034629 0.836178
O O12 0.244335 0.750000 0.770418
O O13 0.306626 0.008131 0.797826
O O14 0.240553 0.017596 0.670940
O O15 0.946699 0.750000 0.053133
O O16 0.000000 0.500000 0.000000
O O17 0.629796 0.250000 0.191634
O O18 0.615765 0.993614 0.089874
O O19 0.236760 0.250000 0.085741
O O20 0.305438 0.030024 0.023223
O O21 0.859267 0.750000 0.494811
#
# Coordination Sequence:
#
# PCOD9464880 Si02
#       8
#     8   8   8   8   8   8   8   8
#     4  10  23  43  64  89 127 162 199 255 317 366
#     4  11  22  37  57  87 127 166 205 249 304 369
#     4  11  23  41  65  91 123 166 209 256 313 371
#     4  10  21  38  63  90 119 156 202 248 300 371
#     4  11  26  47  68  92 123 166 215 266 315 370
#     4   9  18  36  61  87 117 156 201 249 308 369
#     4  10  22  38  60  90 117 153 200 248 306 368
#     4  10  20  37  58  83 119 161 199 243 301 362
#
# _framework density 21.444997000000001
#
# number of rings (size 3 to 8) (size 9 to 14) (size 15 to 20)
#    0.000    1.750    2.500    1.125    3.500    2.500 
#    0.000    1.250    0.000    0.000    0.000    0.000 
#    0.000    0.000    0.000    0.000    0.000    0.000 
#
# Total GULP energy -357313.787630 kJ/mol
# GULP energy per Si atom -5583.027932 kJ/mol
# Density = 2.139619 g / cm^3
# Si number density = 21.444997 Si / 1000 Ang^3
#
#
#
# Elastic Constant Matrix: (Units=GPa)
#
#
# Indices 1 2 3 4 5 6 
#
# 1 173.9030 8.1292 64.5074 0.0000 0.0000 0.0000
# 2 8.1292 24.9061 1.3315 0.0000 0.0000 0.0000
# 3 64.5074 1.3315 113.0183 0.0000 0.0000 0.0000
# 4 0.0000 0.0000 0.0000 27.9031 0.0000 0.0000
# 5 0.0000 0.0000 0.0000 0.0000 22.2112 0.0000
# 6 0.0000 0.0000 0.0000 0.0000 0.0000 22.8741
#
#
#
# Elastic Compliance Matrix: (Units=1/GPa)
#
#
# Indices 1 2 3 4 5 6 
#
# 1 0.007413 -0.002195 -0.004205 0.000000 0.000000 0.000000
# 2 -0.002195 0.040826 0.000772 0.000000 0.000000 0.000000
# 3 -0.004205 0.000772 0.011239 0.000000 0.000000 0.000000
# 4 0.000000 0.000000 0.000000 0.035838 0.000000 0.000000
# 5 0.000000 0.000000 0.000000 0.000000 0.045022 0.000000
# 6 0.000000 0.000000 0.000000 0.000000 0.000000 0.043718
#
#
# Mechanical properties :
#
#
# Convention : Reuss Voigt Hill
#
# Bulk Modulus (GPa) = 20.73762 51.08485 35.91123
# Shear Modulus (GPa) = 23.65339 30.45496 27.05417
#
# Velocity S-wave (km/s) = 3.32472 3.77257 3.55570
# Velocity P-wave (km/s) = 4.94262 6.54594 5.79995
#
# Compressibility (1/GPa) = 0.04822154
#
# Stress axis : x y z
#
# Youngs Moduli (GPa) = 134.90236 24.49430 88.97434
#
# Poissons Ratio (x) = 0.05376 0.37415
# Poissons Ratio (y) = 0.29607 -0.06866
# Poissons Ratio (z) = 0.56728 -0.01890
#
# Static dielectric constant tensor:
#      x y z
#    x 1.812220 0.000000 0.000000 
#    y 0.000000 1.793430 0.000000 
#    z 0.000000 0.000000 1.773320 
# 
# From -- ./inp_files/20894.got.cif
#   From: 2010.05.17/outbox.cif.g08.bks.cpg/sg62_11_cif.got.tgz:20894.got - 2010.06.03 15:25:27.
