data_PCOD9464064
_publ_section_title
;
Structure prediction by ZEFSAII (Michael W. Deem and Ramdas Pophale) SiO2 
 PCOD9464064
Probable space group: P N M A
;
_chemical_formula_sum "Si O2"
_cell_formula_units_Z 40
_cell_length_a 33.481540
_cell_length_b 8.635993
_cell_length_c 7.475924
_cell_angle_alpha 90.000000
_cell_angle_beta 90.000000
_cell_angle_gamma 90.000000
_cell_volume 2161.636101
_symmetry_space_group_name_H-M "P N M A"
_symmetry_group_IT_number 62
_symmetry_cell_setting 'orthorhombic'
loop_
_space_group_symop_operation_xyz
x,y,z
1/2-x,-y,1/2+z
1/2+x,1/2-y,1/2-z
-x,1/2+y,-z
-x,-y,-z
1/2+x,y,1/2-z
1/2-x,1/2+y,1/2+z
x,1/2-y,z
loop_
_atom_site_type_symbol
_atom_site_label
_atom_site_fract_x
_atom_site_fract_y
_atom_site_fract_z
Si Si1 0.800561 0.563475 0.098931
Si Si2 0.560592 0.935100 0.005441
Si Si3 0.853010 0.937154 0.417033
Si Si4 0.214481 0.436482 0.298058
Si Si5 0.502888 0.435555 0.298392
O O1 0.799773 0.750000 0.105288
O O2 0.837431 0.513511 0.221608
O O3 0.758258 0.505461 0.173935
O O4 0.802542 0.514324 0.893703
O O5 0.558315 0.750000 0.019598
O O6 0.541028 0.006815 0.184100
O O7 0.534134 0.982608 0.831465
O O8 0.605620 0.989085 0.975155
O O9 0.857174 0.750000 0.421731
O O10 0.816760 0.980560 0.549136
O O11 0.218139 0.250000 0.300760
O O12 0.500000 0.500000 0.500000
O O13 0.503647 0.250000 0.308640
#
# Coordination Sequence:
#
# PCOD9464064 Si02
#       5
#     8   8   8   8   8
#     4  10  20  34  53  76 104 142 187 233 281 331
#     4  10  22  39  59  88 120 151 191 237 287 342
#     4  10  21  36  53  79 115 150 189 237 286 338
#     4  10  20  34  53  77 105 141 188 234 281 333
#     4  10  21  39  64  90 119 153 189 232 285 346
#
# _framework density 18.504501000000001
#
# number of rings (size 3 to 8) (size 9 to 14) (size 15 to 20)
#    0.000    2.000    2.000    1.200    0.000    5.600 
#    0.000    2.000    0.000    0.000    0.000    0.000 
#    0.000    0.000    0.000    0.000    0.000    0.000 
#
# Total GULP energy -223253.369792 kJ/mol
# GULP energy per Si atom -5581.334245 kJ/mol
# Density = 1.846238 g / cm^3
# Si number density = 18.504501 Si / 1000 Ang^3
#
#
#
# Elastic Constant Matrix: (Units=GPa)
#
#
# Indices 1 2 3 4 5 6 
#
# 1 52.8336 5.8315 -7.3299 0.0000 0.0000 0.0000
# 2 5.8315 17.9092 19.4413 0.0000 0.0000 0.0000
# 3 -7.3299 19.4413 96.5015 0.0000 0.0000 0.0000
# 4 0.0000 0.0000 0.0000 26.2722 0.0000 0.0000
# 5 0.0000 0.0000 0.0000 0.0000 16.6124 0.0000
# 6 0.0000 0.0000 0.0000 0.0000 0.0000 32.2787
#
#
#
# Elastic Compliance Matrix: (Units=1/GPa)
#
#
# Indices 1 2 3 4 5 6 
#
# 1 0.020636 -0.010778 0.003739 0.000000 0.000000 0.000000
# 2 -0.010778 0.077096 -0.016350 0.000000 0.000000 0.000000
# 3 0.003739 -0.016350 0.013940 0.000000 0.000000 0.000000
# 4 0.000000 0.000000 0.000000 0.038063 0.000000 0.000000
# 5 0.000000 0.000000 0.000000 0.000000 0.060196 0.000000
# 6 0.000000 0.000000 0.000000 0.000000 0.000000 0.030980
#
#
# Mechanical properties :
#
#
# Convention : Reuss Voigt Hill
#
# Bulk Modulus (GPa) = 15.41003 22.56999 18.99001
# Shear Modulus (GPa) = 16.16445 24.98608 20.57527
#
# Velocity S-wave (km/s) = 2.95878 3.67859 3.33814
# Velocity P-wave (km/s) = 4.47418 5.50147 5.01420
#
# Compressibility (1/GPa) = 0.06489281
#
# Stress axis : x y z
#
# Youngs Moduli (GPa) = 48.45983 12.97092 71.73357
#
# Poissons Ratio (x) = 0.13980 -0.26819
# Poissons Ratio (y) = 0.52229 1.17287
# Poissons Ratio (z) = -0.18118 0.21208
#
# Static dielectric constant tensor:
#      x y z
#    x 1.601690 0.000000 0.000000 
#    y 0.000000 1.631710 0.000000 
#    z 0.000000 0.000000 1.651820 
# 
# From -- ./inp_files/10003.got.cif
#   From: 2010.05.17/outbox.cif.g08.bks.cpg/sg62_6_cif.got.tgz:10003.got - 2010.06.03 15:25:27.
