data_PCOD9464534
_publ_section_title
;
Structure prediction by ZEFSAII (Michael W. Deem and Ramdas Pophale) SiO2 
 PCOD9464534
Probable space group: P N M A
;
_chemical_formula_sum "Si O2"
_cell_formula_units_Z 48
_cell_length_a 10.434041
_cell_length_b 8.814430
_cell_length_c 29.586936
_cell_angle_alpha 90.000000
_cell_angle_beta 90.000000
_cell_angle_gamma 90.000000
_cell_volume 2721.114173
_symmetry_space_group_name_H-M "P N M A"
_symmetry_group_IT_number 62
_symmetry_cell_setting 'orthorhombic'
loop_
_space_group_symop_operation_xyz
x,y,z
1/2-x,-y,1/2+z
1/2+x,1/2-y,1/2-z
-x,1/2+y,-z
-x,-y,-z
1/2+x,y,1/2-z
1/2-x,1/2+y,1/2+z
x,1/2-y,z
loop_
_atom_site_type_symbol
_atom_site_label
_atom_site_fract_x
_atom_site_fract_y
_atom_site_fract_z
Si Si1 0.977666 0.570263 0.113729
Si Si2 0.728115 0.931194 0.782163
Si Si3 0.754707 0.069566 0.386344
Si Si4 0.490170 0.931586 0.281268
Si Si5 0.372196 0.068936 0.020567
Si Si6 0.622074 0.569397 0.526081
O O1 0.962094 0.750000 0.106905
O O2 0.954836 0.533789 0.166407
O O3 0.891700 0.480419 0.078196
O O4 0.124810 0.522626 0.104762
O O5 0.729304 0.750000 0.775976
O O6 0.701826 0.963324 0.835319
O O7 0.618937 0.004441 0.751375
O O8 0.869975 0.996448 0.772279
O O9 0.723718 0.250000 0.388602
O O10 0.854854 0.036595 0.425958
O O11 0.499735 0.750000 0.276985
O O12 0.371427 0.250000 0.014802
O O13 0.500000 0.000000 0.000000
O O14 0.249597 0.998468 0.995711
O O15 0.500000 0.500000 0.500000
O O16 0.619988 0.750000 0.521908
#
# Coordination Sequence:
#
# PCOD9464534 Si02
#       6
#     8   8   8   8   8   8
#     4  10  20  35  59  87 114 147 192 238 287 339
#     4  10  20  37  61  87 113 150 193 236 286 342
#     4   9  19  36  59  83 112 150 193 234 281 342
#     4  10  21  38  59  86 118 151 189 238 290 341
#     4  11  23  40  59  84 118 155 193 236 286 341
#     4  12  23  37  60  88 116 150 192 236 282 335
#
# _framework density 17.639834
#
# number of rings (size 3 to 8) (size 9 to 14) (size 15 to 20)
#    0.000    1.667    1.667    3.500    0.000    3.333 
#    3.000    0.000    0.000    0.000    0.000    0.000 
#    0.000    0.000    0.000    0.000    0.000    0.000 
#
# Total GULP energy -268102.742880 kJ/mol
# GULP energy per Si atom -5585.473810 kJ/mol
# Density = 1.759968 g / cm^3
# Si number density = 17.639834 Si / 1000 Ang^3
#
#
#
# Elastic Constant Matrix: (Units=GPa)
#
#
# Indices 1 2 3 4 5 6 
#
# 1 137.5333 64.8336 93.5826 0.0000 0.0000 0.0000
# 2 64.8336 90.4157 71.3224 0.0000 0.0000 0.0000
# 3 93.5826 71.3224 129.0026 0.0000 0.0000 0.0000
# 4 0.0000 0.0000 0.0000 29.4088 0.0000 0.0000
# 5 0.0000 0.0000 0.0000 0.0000 34.5634 0.0000
# 6 0.0000 0.0000 0.0000 0.0000 0.0000 35.7444
#
#
#
# Elastic Compliance Matrix: (Units=1/GPa)
#
#
# Indices 1 2 3 4 5 6 
#
# 1 0.015087 -0.003875 -0.008802 0.000000 0.000000 0.000000
# 2 -0.003875 0.020609 -0.008584 0.000000 0.000000 0.000000
# 3 -0.008802 -0.008584 0.018883 0.000000 0.000000 0.000000
# 4 0.000000 0.000000 0.000000 0.034003 0.000000 0.000000
# 5 0.000000 0.000000 0.000000 0.000000 0.028932 0.000000
# 6 0.000000 0.000000 0.000000 0.000000 0.000000 0.027976
#
#
# Mechanical properties :
#
#
# Convention : Reuss Voigt Hill
#
# Bulk Modulus (GPa) = 82.93242 90.71430 86.82336
# Shear Modulus (GPa) = 26.03733 28.42419 27.23076
#
# Velocity S-wave (km/s) = 3.84611 4.01853 3.93327
# Velocity P-wave (km/s) = 8.17556 8.54804 8.36387
#
# Compressibility (1/GPa) = 0.01205801
#
# Stress axis : x y z
#
# Youngs Moduli (GPa) = 66.28258 48.52144 52.95807
#
# Poissons Ratio (x) = 0.18801 0.46615
# Poissons Ratio (y) = 0.25683 0.45457
# Poissons Ratio (z) = 0.58344 0.41649
#
# Static dielectric constant tensor:
#      x y z
#    x 1.550940 0.000000 0.000000 
#    y 0.000000 1.588340 0.000000 
#    z 0.000000 0.000000 1.620860 
# 
# From -- ./inp_files/31927.got.cif
#   From: 2010.05.17/outbox.cif.g08.bks.cpg/sg62_16_cif.got.tgz:31927.got - 2010.06.03 15:25:27.
