data_PCOD9464224
_publ_section_title
;
Structure prediction by ZEFSAII (Michael W. Deem and Ramdas Pophale) SiO2 
 PCOD9464224
Probable space group: P N M A
;
_chemical_formula_sum "Si O2"
_cell_formula_units_Z 64
_cell_length_a 16.754686
_cell_length_b 7.835573
_cell_length_c 22.640912
_cell_angle_alpha 90.000000
_cell_angle_beta 90.000000
_cell_angle_gamma 90.000000
_cell_volume 2972.357007
_symmetry_space_group_name_H-M "P N M A"
_symmetry_group_IT_number 62
_symmetry_cell_setting 'orthorhombic'
loop_
_space_group_symop_operation_xyz
x,y,z
1/2-x,-y,1/2+z
1/2+x,1/2-y,1/2-z
-x,1/2+y,-z
-x,-y,-z
1/2+x,y,1/2-z
1/2-x,1/2+y,1/2+z
x,1/2-y,z
loop_
_atom_site_type_symbol
_atom_site_label
_atom_site_fract_x
_atom_site_fract_y
_atom_site_fract_z
Si Si1 0.630427 0.455166 0.237164
Si Si2 0.571360 0.956704 0.954089
Si Si3 0.763462 0.448550 0.509300
Si Si4 0.537864 0.957539 0.820420
Si Si5 0.753109 0.043975 0.137303
Si Si6 0.418299 0.441585 0.641512
Si Si7 0.410375 0.561268 0.515216
Si Si8 0.413190 0.042999 0.304301
O O1 0.625503 0.250000 0.244153
O O2 0.549596 0.508731 0.203295
O O3 0.702021 0.498456 0.194537
O O4 0.637811 0.530169 0.302296
O O5 0.574560 0.750000 0.952954
O O6 0.554847 0.017417 0.886843
O O7 0.658797 0.019710 0.975726
O O8 0.500000 0.000000 0.000000
O O9 0.756634 0.250000 0.490732
O O10 0.780873 0.461413 0.578658
O O11 0.673839 0.526641 0.502920
O O12 0.539050 0.750000 0.823213
O O13 0.594219 0.006915 0.764871
O O14 0.750558 0.250000 0.129716
O O15 0.842265 0.989498 0.153064
O O16 0.411921 0.250000 0.618719
O O17 0.405609 0.561562 0.586097
O O18 0.505155 0.474220 0.669029
O O19 0.500000 0.500000 0.500000
O O20 0.407113 0.750000 0.488769
O O21 0.416738 0.250000 0.305236
#
# Coordination Sequence:
#
# PCOD9464224 Si02
#       8
#     8   8   8   8   8   8   8   8
#     4   9  18  34  55  80 107 139 178 225 274 325
#     4  10  20  36  57  82 111 146 182 222 272 329
#     4  10  23  38  55  82 116 149 184 229 283 336
#     4   8  15  30  52  74 101 135 175 216 260 315
#     4  10  20  34  57  83 107 139 182 227 275 329
#     4  11  22  36  55  81 111 146 184 226 278 335
#     4  11  23  40  60  83 114 154 194 237 284 335
#     4   9  18  34  56  81 105 136 179 230 279 330
#
# _framework density 21.531735000000001
#
# number of rings (size 3 to 8) (size 9 to 14) (size 15 to 20)
#    0.000    2.250    0.000    3.750    0.000    6.500 
#    0.000    7.500    0.000    0.000    0.000    0.000 
#    0.000    0.000    0.000    0.000    0.000    0.000 
#
# Total GULP energy -356934.706771 kJ/mol
# GULP energy per Si atom -5577.104793 kJ/mol
# Density = 2.148273 g / cm^3
# Si number density = 21.531735 Si / 1000 Ang^3
#
#
#
# Elastic Constant Matrix: (Units=GPa)
#
#
# Indices 1 2 3 4 5 6 
#
# 1 62.8426 5.7364 -0.4181 0.0000 0.0000 0.0000
# 2 5.7364 31.3518 -0.9627 0.0000 0.0000 0.0000
# 3 -0.4181 -0.9627 84.1559 0.0000 0.0000 0.0000
# 4 0.0000 0.0000 0.0000 16.4101 0.0000 0.0000
# 5 0.0000 0.0000 0.0000 0.0000 32.7863 0.0000
# 6 0.0000 0.0000 0.0000 0.0000 0.0000 14.5615
#
#
#
# Elastic Compliance Matrix: (Units=1/GPa)
#
#
# Indices 1 2 3 4 5 6 
#
# 1 0.016183 -0.002960 0.000047 0.000000 0.000000 0.000000
# 2 -0.002960 0.032449 0.000356 0.000000 0.000000 0.000000
# 3 0.000047 0.000356 0.011887 0.000000 0.000000 0.000000
# 4 0.000000 0.000000 0.000000 0.060938 0.000000 0.000000
# 5 0.000000 0.000000 0.000000 0.000000 0.030501 0.000000
# 6 0.000000 0.000000 0.000000 0.000000 0.000000 0.068674
#
#
# Mechanical properties :
#
#
# Convention : Reuss Voigt Hill
#
# Bulk Modulus (GPa) = 18.04869 20.78461 19.41665
# Shear Modulus (GPa) = 20.47387 24.35121 22.41254
#
# Velocity S-wave (km/s) = 3.08696 3.36660 3.22981
# Velocity P-wave (km/s) = 4.59416 4.97855 4.79022
#
# Compressibility (1/GPa) = 0.05540569
#
# Stress axis : x y z
#
# Youngs Moduli (GPa) = 61.79232 30.81802 84.12542
#
# Poissons Ratio (x) = 0.09121 -0.00392
# Poissons Ratio (y) = 0.18288 -0.02999
# Poissons Ratio (z) = -0.00288 -0.01099
#
# Static dielectric constant tensor:
#      x y z
#    x 1.804220 0.000000 0.000000 
#    y 0.000000 1.839140 0.000000 
#    z 0.000000 0.000000 1.769530 
# 
# From -- ./inp_files/27669.got.cif
#   From: 2010.05.17/outbox.cif.g08.bks.cpg/sg62_14_cif.got.tgz:27669.got - 2010.06.03 15:25:27.
