data_PCOD9464971
_publ_section_title
;
Structure prediction by ZEFSAII (Michael W. Deem and Ramdas Pophale) SiO2 
 PCOD9464971
Probable space group: P N M A
;
_chemical_formula_sum "Si O2"
_cell_formula_units_Z 56
_cell_length_a 17.772198
_cell_length_b 9.418293
_cell_length_c 15.015731
_cell_angle_alpha 90.000000
_cell_angle_beta 90.000000
_cell_angle_gamma 90.000000
_cell_volume 2513.389634
_symmetry_space_group_name_H-M "P N M A"
_symmetry_group_IT_number 62
_symmetry_cell_setting 'orthorhombic'
loop_
_space_group_symop_operation_xyz
x,y,z
1/2-x,-y,1/2+z
1/2+x,1/2-y,1/2-z
-x,1/2+y,-z
-x,-y,-z
1/2+x,y,1/2-z
1/2-x,1/2+y,1/2+z
x,1/2-y,z
loop_
_atom_site_type_symbol
_atom_site_label
_atom_site_fract_x
_atom_site_fract_y
_atom_site_fract_z
Si Si1 0.646510 0.589076 0.150236
Si Si2 0.333346 0.411920 0.165443
Si Si3 0.711326 0.913610 0.624502
Si Si4 0.195150 0.908604 0.144220
Si Si5 0.553659 0.095537 0.384348
Si Si6 0.071322 0.094493 0.911694
Si Si7 0.998182 0.920492 0.595523
O O1 0.635410 0.750000 0.115075
O O2 0.713129 0.500470 0.104223
O O3 0.678194 0.602435 0.250282
O O4 0.570435 0.497576 0.146650
O O5 0.315801 0.250000 0.135020
O O6 0.313020 0.415907 0.270729
O O7 0.277622 0.529810 0.125400
O O8 0.420440 0.438664 0.142703
O O9 0.719798 0.750000 0.599873
O O10 0.642005 0.992417 0.579609
O O11 0.182919 0.750000 0.107115
O O12 0.135177 0.027873 0.119098
O O13 0.548369 0.250000 0.340143
O O14 0.538981 0.115133 0.489418
O O15 0.491743 0.983246 0.353101
O O16 0.092374 0.250000 0.876095
O O17 0.985333 0.750000 0.586990
O O18 0.000000 0.000000 0.500000
#
# Coordination Sequence:
#
# PCOD9464971 Si02
#       7
#     8   8   8   8   8   8   8
#     4  10  22  40  60  87 118 152 194 244 295 349
#     4   9  21  40  60  85 115 150 195 241 290 350
#     4  10  20  37  61  88 115 152 196 241 294 352
#     4  10  21  37  60  89 117 150 194 243 294 346
#     4  10  21  36  55  80 115 155 192 232 283 343
#     4  10  21  36  54  82 117 152 191 237 285 339
#     4  11  24  42  63  89 121 159 202 250 302 362
#
# _framework density 22.280669
#
# number of rings (size 3 to 8) (size 9 to 14) (size 15 to 20)
#    0.000    2.000    0.000    2.571    2.000    6.286 
#    0.000    1.429    0.000    0.000    0.000    0.000 
#    0.000    0.000    0.000    0.000    0.000    0.000 
#
# Total GULP energy -312549.508938 kJ/mol
# GULP energy per Si atom -5581.241231 kJ/mol
# Density = 2.222996 g / cm^3
# Si number density = 22.280669 Si / 1000 Ang^3
#
#
#
# Elastic Constant Matrix: (Units=GPa)
#
#
# Indices 1 2 3 4 5 6 
#
# 1 118.4345 56.0603 -10.1318 0.0000 0.0000 0.0000
# 2 56.0603 168.2930 7.3811 0.0000 0.0000 0.0000
# 3 -10.1318 7.3811 26.0070 0.0000 0.0000 0.0000
# 4 0.0000 0.0000 0.0000 82.3085 0.0000 0.0000
# 5 0.0000 0.0000 0.0000 0.0000 28.4074 0.0000
# 6 0.0000 0.0000 0.0000 0.0000 0.0000 34.7511
#
#
#
# Elastic Compliance Matrix: (Units=1/GPa)
#
#
# Indices 1 2 3 4 5 6 
#
# 1 0.010685 -0.003789 0.005238 0.000000 0.000000 0.000000
# 2 -0.003789 0.007361 -0.003565 0.000000 0.000000 0.000000
# 3 0.005238 -0.003565 0.041504 0.000000 0.000000 0.000000
# 4 0.000000 0.000000 0.000000 0.012149 0.000000 0.000000
# 5 0.000000 0.000000 0.000000 0.000000 0.035202 0.000000
# 6 0.000000 0.000000 0.000000 0.000000 0.000000 0.028776
#
#
# Mechanical properties :
#
#
# Convention : Reuss Voigt Hill
#
# Bulk Modulus (GPa) = 18.07757 46.59485 32.33621
# Shear Modulus (GPa) = 31.57596 46.38840 38.98218
#
# Velocity S-wave (km/s) = 3.76864 4.56785 4.18736
# Velocity P-wave (km/s) = 5.20270 6.98415 6.15818
#
# Compressibility (1/GPa) = 0.05531717
#
# Stress axis : x y z
#
# Youngs Moduli (GPa) = 93.58799 135.85910 24.09421
#
# Poissons Ratio (x) = 0.51478 -0.12621
# Poissons Ratio (y) = 0.35461 0.08590
# Poissons Ratio (z) = -0.49022 0.48436
#
# Static dielectric constant tensor:
#      x y z
#    x 1.776790 0.000000 0.000000 
#    y 0.000000 1.867800 0.000000 
#    z 0.000000 0.000000 1.913240 
# 
# From -- ./inp_files/27094.got.cif
#   From: 2010.05.17/outbox.cif.g08.bks.cpg/sg62_14_cif.got.tgz:27094.got - 2010.06.03 15:25:27.
