data_PCOD9464291
_publ_section_title
;
Structure prediction by ZEFSAII (Michael W. Deem and Ramdas Pophale) SiO2 
 PCOD9464291
Probable space group: P N M A
;
_chemical_formula_sum "Si O2"
_cell_formula_units_Z 56
_cell_length_a 19.385248
_cell_length_b 8.993164
_cell_length_c 19.728286
_cell_angle_alpha 90.000000
_cell_angle_beta 90.000000
_cell_angle_gamma 90.000000
_cell_volume 3439.325106
_symmetry_space_group_name_H-M "P N M A"
_symmetry_group_IT_number 62
_symmetry_cell_setting 'orthorhombic'
loop_
_space_group_symop_operation_xyz
x,y,z
1/2-x,-y,1/2+z
1/2+x,1/2-y,1/2-z
-x,1/2+y,-z
-x,-y,-z
1/2+x,y,1/2-z
1/2-x,1/2+y,1/2+z
x,1/2-y,z
loop_
_atom_site_type_symbol
_atom_site_label
_atom_site_fract_x
_atom_site_fract_y
_atom_site_fract_z
Si Si1 0.855306 0.426373 0.768330
Si Si2 0.769303 0.572656 0.163990
Si Si3 0.137381 0.572615 0.727879
Si Si4 0.242998 0.072004 0.623199
Si Si5 0.478856 0.572821 0.802251
Si Si6 0.553315 0.928452 0.052684
Si Si7 0.287398 0.428657 0.981118
O O1 0.870628 0.250000 0.768321
O O2 0.800355 0.453556 0.707653
O O3 0.813642 0.464325 0.836615
O O4 0.923504 0.517726 0.752619
O O5 0.782252 0.750000 0.167187
O O6 0.829932 0.487623 0.202502
O O7 0.754305 0.530001 0.086763
O O8 0.145946 0.750000 0.723839
O O9 0.181233 0.497639 0.667626
O O10 0.056932 0.537248 0.719486
O O11 0.235887 0.250000 0.623631
O O12 0.239418 0.008514 0.548027
O O13 0.473623 0.750000 0.811812
O O14 0.461493 0.491888 0.872811
O O15 0.546162 0.750000 0.053052
O O16 0.631881 0.963826 0.031192
O O17 0.500000 0.000000 0.000000
O O18 0.282596 0.250000 0.989316
#
# Coordination Sequence:
#
# PCOD9464291 Si02
#       7
#     8   8   8   8   8   8   8
#     4   9  18  35  54  74 102 135 174 218 260 307
#     4   9  18  35  55  76 101 135 176 216 262 314
#     4  10  21  35  51  76 107 137 172 218 261 305
#     4  10  21  35  53  78 105 136 176 216 258 313
#     4  11  22  34  51  77 106 138 176 214 260 312
#     4  11  22  35  50  74 110 144 174 211 256 312
#     4  10  20  35  53  75 106 138 170 215 263 307
#
# _framework density 16.282263
#
# number of rings (size 3 to 8) (size 9 to 14) (size 15 to 20)
#    0.000    2.000    1.429    3.429    0.000   10.286 
#    0.000    0.000    0.000    0.857    0.000    0.000 
#    0.000    0.000    0.000    0.000    0.000    0.000 
#
# Total GULP energy -312625.778729 kJ/mol
# GULP energy per Si atom -5582.603192 kJ/mol
# Density = 1.624520 g / cm^3
# Si number density = 16.282263 Si / 1000 Ang^3
#
#
#
# Elastic Constant Matrix: (Units=GPa)
#
#
# Indices 1 2 3 4 5 6 
#
# 1 51.8973 30.3582 60.0154 0.0000 0.0000 0.0000
# 2 30.3582 37.3471 49.6680 0.0000 0.0000 0.0000
# 3 60.0154 49.6680 146.4112 0.0000 0.0000 0.0000
# 4 0.0000 0.0000 0.0000 33.3970 0.0000 0.0000
# 5 0.0000 0.0000 0.0000 0.0000 21.7816 0.0000
# 6 0.0000 0.0000 0.0000 0.0000 0.0000 29.2310
#
#
#
# Elastic Compliance Matrix: (Units=1/GPa)
#
#
# Indices 1 2 3 4 5 6 
#
# 1 0.044605 -0.021758 -0.010903 0.000000 0.000000 0.000000
# 2 -0.021758 0.059399 -0.011231 0.000000 0.000000 0.000000
# 3 -0.010903 -0.011231 0.015109 0.000000 0.000000 0.000000
# 4 0.000000 0.000000 0.000000 0.029943 0.000000 0.000000
# 5 0.000000 0.000000 0.000000 0.000000 0.045910 0.000000
# 6 0.000000 0.000000 0.000000 0.000000 0.000000 0.034210
#
#
# Mechanical properties :
#
#
# Convention : Reuss Voigt Hill
#
# Bulk Modulus (GPa) = 31.91988 57.30432 44.61210
# Shear Modulus (GPa) = 15.27164 23.25620 19.26392
#
# Velocity S-wave (km/s) = 3.06589 3.78341 3.44339
# Velocity P-wave (km/s) = 5.67270 7.37267 6.57783
#
# Compressibility (1/GPa) = 0.03132844
#
# Stress axis : x y z
#
# Youngs Moduli (GPa) = 22.41895 16.83534 66.18415
#
# Poissons Ratio (x) = 0.36631 0.72160
# Poissons Ratio (y) = 0.48780 0.74334
# Poissons Ratio (z) = 0.24443 0.18908
#
# Static dielectric constant tensor:
#      x y z
#    x 1.528960 0.000000 0.000000 
#    y 0.000000 1.542100 0.000000 
#    z 0.000000 0.000000 1.535260 
# 
# From -- ./inp_files/27556.got.cif
#   From: 2010.05.17/outbox.cif.g08.bks.cpg/sg62_14_cif.got.tgz:27556.got - 2010.06.03 15:25:27.
