data_PCOD9464881
_publ_section_title
;
Structure prediction by ZEFSAII (Michael W. Deem and Ramdas Pophale) SiO2 
 PCOD9464881
Probable space group: P N M A
;
_chemical_formula_sum "Si O2"
_cell_formula_units_Z 48
_cell_length_a 10.285424
_cell_length_b 13.220584
_cell_length_c 19.443721
_cell_angle_alpha 90.000000
_cell_angle_beta 90.000000
_cell_angle_gamma 90.000000
_cell_volume 2643.943804
_symmetry_space_group_name_H-M "P N M A"
_symmetry_group_IT_number 62
_symmetry_cell_setting 'orthorhombic'
loop_
_space_group_symop_operation_xyz
x,y,z
1/2-x,-y,1/2+z
1/2+x,1/2-y,1/2-z
-x,1/2+y,-z
-x,-y,-z
1/2+x,y,1/2-z
1/2-x,1/2+y,1/2+z
x,1/2-y,z
loop_
_atom_site_type_symbol
_atom_site_label
_atom_site_fract_x
_atom_site_fract_y
_atom_site_fract_z
Si Si1 0.184662 0.132306 0.147234
Si Si2 0.077346 0.368902 0.809490
Si Si3 0.160818 0.970603 0.267110
Si Si4 0.346923 0.545240 0.921182
Si Si5 0.608029 0.634292 0.972935
Si Si6 0.054687 0.965350 0.926940
O O1 0.192161 0.250000 0.166961
O O2 0.297647 0.111248 0.091518
O O3 0.048298 0.107858 0.109767
O O4 0.193826 0.058186 0.212140
O O5 0.067400 0.250000 0.822054
O O6 0.215088 0.398361 0.776168
O O7 0.067441 0.435364 0.878805
O O8 0.961828 0.408512 0.760789
O O9 0.132989 0.020358 0.341091
O O10 0.459914 0.617608 0.948789
O O11 0.198886 0.580994 0.931772
O O12 0.361494 0.442439 0.965625
O O13 0.630621 0.750000 0.993607
O O14 0.000000 0.000000 0.000000
#
# Coordination Sequence:
#
# PCOD9464881 Si02
#       6
#     8   8   8   8   8   8
#     4  10  21  38  61  86 116 155 191 235 294 352
#     4  10  21  36  58  83 113 151 191 234 289 346
#     4  10  21  38  58  85 118 150 190 239 289 345
#     4  10  21  37  58  81 116 149 188 238 286 339
#     4  10  21  37  58  83 112 150 191 233 286 344
#     4  10  20  37  58  84 115 147 191 241 293 342
#
# _framework density 18.154696999999999
#
# number of rings (size 3 to 8) (size 9 to 14) (size 15 to 20)
#    0.000    2.000    1.667    1.500    0.000    5.333 
#    0.000   10.000    0.000    0.000    0.000    0.000 
#    0.000    0.000    0.000    0.000    0.000    0.000 
#
# Total GULP energy -268011.010023 kJ/mol
# GULP energy per Si atom -5583.562709 kJ/mol
# Density = 1.811338 g / cm^3
# Si number density = 18.154697 Si / 1000 Ang^3
#
#
#
# Elastic Constant Matrix: (Units=GPa)
#
#
# Indices 1 2 3 4 5 6 
#
# 1 100.5142 -10.6878 18.4482 0.0000 0.0000 0.0000
# 2 -10.6878 38.6337 6.9464 0.0000 0.0000 0.0000
# 3 18.4482 6.9464 71.8941 0.0000 0.0000 0.0000
# 4 0.0000 0.0000 0.0000 10.6791 0.0000 0.0000
# 5 0.0000 0.0000 0.0000 0.0000 26.0873 0.0000
# 6 0.0000 0.0000 0.0000 0.0000 0.0000 11.8340
#
#
#
# Elastic Compliance Matrix: (Units=1/GPa)
#
#
# Indices 1 2 3 4 5 6 
#
# 1 0.010907 0.003583 -0.003145 0.000000 0.000000 0.000000
# 2 0.003583 0.027519 -0.003578 0.000000 0.000000 0.000000
# 3 -0.003145 -0.003578 0.015062 0.000000 0.000000 0.000000
# 4 0.000000 0.000000 0.000000 0.093641 0.000000 0.000000
# 5 0.000000 0.000000 0.000000 0.000000 0.038333 0.000000
# 6 0.000000 0.000000 0.000000 0.000000 0.000000 0.084502
#
#
# Mechanical properties :
#
#
# Convention : Reuss Voigt Hill
#
# Bulk Modulus (GPa) = 21.18324 26.71727 23.95025
# Shear Modulus (GPa) = 17.12446 22.80910 19.96678
#
# Velocity S-wave (km/s) = 3.07457 3.54838 3.31994
# Velocity P-wave (km/s) = 4.92925 5.61573 5.28365
#
# Compressibility (1/GPa) = 0.04720714
#
# Stress axis : x y z
#
# Youngs Moduli (GPa) = 91.68402 36.33899 66.39192
#
# Poissons Ratio (x) = -0.13020 0.20880
# Poissons Ratio (y) = -0.32849 0.23756
# Poissons Ratio (z) = 0.28834 0.13003
#
# Static dielectric constant tensor:
#      x y z
#    x 1.630790 0.000000 0.000000 
#    y 0.000000 1.582850 0.000000 
#    z 0.000000 0.000000 1.595610 
# 
# From -- ./inp_files/23040.got.cif
#   From: 2010.05.17/outbox.cif.g08.bks.cpg/sg62_12_cif.got.tgz:23040.got - 2010.06.03 15:25:27.
