data_PCOD9464625
_publ_section_title
;
Structure prediction by ZEFSAII (Michael W. Deem and Ramdas Pophale) SiO2 
 PCOD9464625
Probable space group: P N M A
;
_chemical_formula_sum "Si O2"
_cell_formula_units_Z 64
_cell_length_a 15.813168
_cell_length_b 7.820206
_cell_length_c 24.467994
_cell_angle_alpha 90.000000
_cell_angle_beta 90.000000
_cell_angle_gamma 90.000000
_cell_volume 3025.766733
_symmetry_space_group_name_H-M "P N M A"
_symmetry_group_IT_number 62
_symmetry_cell_setting 'orthorhombic'
loop_
_space_group_symop_operation_xyz
x,y,z
1/2-x,-y,1/2+z
1/2+x,1/2-y,1/2-z
-x,1/2+y,-z
-x,-y,-z
1/2+x,y,1/2-z
1/2-x,1/2+y,1/2+z
x,1/2-y,z
loop_
_atom_site_type_symbol
_atom_site_label
_atom_site_fract_x
_atom_site_fract_y
_atom_site_fract_z
Si Si1 0.401627 0.542871 0.118167
Si Si2 0.860485 0.948038 0.504100
Si Si3 0.088630 0.542584 0.895735
Si Si4 0.400743 0.958972 0.622512
Si Si5 0.751654 0.955582 0.801486
Si Si6 0.412252 0.052317 0.878544
Si Si7 0.741113 0.951394 0.678905
Si Si8 0.329216 0.952152 0.505378
O O1 0.403404 0.750000 0.116079
O O2 0.382756 0.483389 0.056129
O O3 0.327859 0.492131 0.159499
O O4 0.494919 0.482046 0.135447
O O5 0.886580 0.750000 0.507086
O O6 0.901361 0.039719 0.555904
O O7 0.759104 0.959596 0.509486
O O8 0.089671 0.750000 0.896340
O O9 0.166961 0.477364 0.859507
O O10 0.103972 0.484396 0.957619
O O11 0.997785 0.486394 0.873357
O O12 0.400597 0.750000 0.622950
O O13 0.336827 0.019347 0.669122
O O14 0.363334 0.011814 0.563811
O O15 0.759564 0.750000 0.797948
O O16 0.741484 0.023803 0.740157
O O17 0.409514 0.250000 0.862411
O O18 0.331925 0.967958 0.849875
O O19 0.722621 0.750000 0.683917
O O20 0.311927 0.750000 0.509072
#
# Coordination Sequence:
#
# PCOD9464625 Si02
#       8
#     8   8   8   8   8   8   8   8
#     4  10  23  40  59  87 119 153 191 237 294 347
#     4  11  21  36  59  86 117 151 189 236 291 351
#     4  10  20  36  56  81 115 151 186 233 287 339
#     4   9  19  35  56  82 114 148 188 235 283 336
#     4  10  21  39  61  85 114 153 198 241 283 337
#     4  11  23  39  60  86 119 154 191 238 291 348
#     4  10  22  38  59  86 115 151 197 240 287 337
#     4  11  20  33  56  85 113 147 188 230 286 349
#
# _framework density 21.151664
#
# number of rings (size 3 to 8) (size 9 to 14) (size 15 to 20)
#    0.000    1.750    2.500    1.875    0.000    3.000 
#    0.000    3.750    0.000    0.000    0.000    0.000 
#    0.000    0.000    0.000    0.000    0.000    0.000 
#
# Total GULP energy -357656.039316 kJ/mol
# GULP energy per Si atom -5588.375614 kJ/mol
# Density = 2.110352 g / cm^3
# Si number density = 21.151664 Si / 1000 Ang^3
#
#
#
# Elastic Constant Matrix: (Units=GPa)
#
#
# Indices 1 2 3 4 5 6 
#
# 1 80.8055 -5.1226 8.4348 0.0000 0.0000 0.0000
# 2 -5.1226 25.2116 -1.8376 0.0000 0.0000 0.0000
# 3 8.4348 -1.8376 97.3746 0.0000 0.0000 0.0000
# 4 0.0000 0.0000 0.0000 17.6141 0.0000 0.0000
# 5 0.0000 0.0000 0.0000 0.0000 5.2930 0.0000
# 6 0.0000 0.0000 0.0000 0.0000 0.0000 16.8977
#
#
#
# Elastic Compliance Matrix: (Units=1/GPa)
#
#
# Indices 1 2 3 4 5 6 
#
# 1 0.012643 0.002492 -0.001048 0.000000 0.000000 0.000000
# 2 0.002492 0.040210 0.000543 0.000000 0.000000 0.000000
# 3 -0.001048 0.000543 0.010371 0.000000 0.000000 0.000000
# 4 0.000000 0.000000 0.000000 0.056773 0.000000 0.000000
# 5 0.000000 0.000000 0.000000 0.000000 0.188928 0.000000
# 6 0.000000 0.000000 0.000000 0.000000 0.000000 0.059180
#
#
# Mechanical properties :
#
#
# Convention : Reuss Voigt Hill
#
# Bulk Modulus (GPa) = 14.88134 22.92677 18.90406
# Shear Modulus (GPa) = 12.93565 21.42212 17.17888
#
# Velocity S-wave (km/s) = 2.47567 3.18588 2.85296
# Velocity P-wave (km/s) = 3.90163 4.93922 4.45077
#
# Compressibility (1/GPa) = 0.06719823
#
# Stress axis : x y z
#
# Youngs Moduli (GPa) = 79.09641 24.86925 96.42592
#
# Poissons Ratio (x) = -0.06198 0.10107
# Poissons Ratio (y) = -0.19714 -0.05235
# Poissons Ratio (z) = 0.08290 -0.01350
#
# Static dielectric constant tensor:
#      x y z
#    x 1.750910 0.000000 0.000000 
#    y 0.000000 1.822300 0.000000 
#    z 0.000000 0.000000 1.735560 
# 
# From -- ./inp_files/29723.got.cif
#   From: 2010.05.17/outbox.cif.g08.bks.cpg/sg62_15_cif.got.tgz:29723.got - 2010.06.03 15:25:27.
