data_PCOD9464538
_publ_section_title
;
Structure prediction by ZEFSAII (Michael W. Deem and Ramdas Pophale) SiO2 
 PCOD9464538
Probable space group: P N M A
;
_chemical_formula_sum "Si O2"
_cell_formula_units_Z 48
_cell_length_a 12.266586
_cell_length_b 8.527629
_cell_length_c 23.288743
_cell_angle_alpha 90.000000
_cell_angle_beta 90.000000
_cell_angle_gamma 90.000000
_cell_volume 2436.116505
_symmetry_space_group_name_H-M "P N M A"
_symmetry_group_IT_number 62
_symmetry_cell_setting 'orthorhombic'
loop_
_space_group_symop_operation_xyz
x,y,z
1/2-x,-y,1/2+z
1/2+x,1/2-y,1/2-z
-x,1/2+y,-z
-x,-y,-z
1/2+x,y,1/2-z
1/2-x,1/2+y,1/2+z
x,1/2-y,z
loop_
_atom_site_type_symbol
_atom_site_label
_atom_site_fract_x
_atom_site_fract_y
_atom_site_fract_z
Si Si1 0.809883 0.559104 0.147966
Si Si2 0.997769 0.438305 0.934928
Si Si3 0.632913 0.440356 0.778528
Si Si4 0.726930 0.435463 0.384781
Si Si5 0.570029 0.928634 0.159210
Si Si6 0.420410 0.572932 0.046692
O O1 0.810162 0.750000 0.142696
O O2 0.841783 0.519891 0.213181
O O3 0.685701 0.500857 0.142154
O O4 0.897064 0.503683 0.101236
O O5 0.000143 0.250000 0.936769
O O6 0.888288 0.489963 0.901796
O O7 0.000000 0.500000 0.000000
O O8 0.631976 0.250000 0.783765
O O9 0.719837 0.500727 0.825463
O O10 0.511605 0.501567 0.794384
O O11 0.715583 0.250000 0.380481
O O12 0.813514 0.477366 0.435262
O O13 0.593996 0.750000 0.179358
O O14 0.494129 0.920112 0.103668
O O15 0.388655 0.750000 0.030707
O O16 0.500000 0.500000 0.000000
#
# Coordination Sequence:
#
# PCOD9464538 Si02
#       6
#     8   8   8   8   8   8
#     4   9  19  34  60  90 117 153 194 245 305 372
#     4  11  24  41  62  90 123 164 210 255 309 374
#     4   9  18  35  62  91 116 147 195 249 303 366
#     4  11  23  40  60  84 121 163 201 249 303 360
#     4   8  16  31  52  84 117 144 184 236 291 356
#     4  10  20  35  59  87 117 153 195 244 297 356
#
# _framework density 19.703492000000001
#
# number of rings (size 3 to 8) (size 9 to 14) (size 15 to 20)
#    0.000    2.333    0.000    3.500    4.667    0.000 
#    0.000    1.667    0.000    2.000    0.000    0.000 
#    0.000    0.000    0.000    0.000    0.000    0.000 
#
# Total GULP energy -267657.913442 kJ/mol
# GULP energy per Si atom -5576.206530 kJ/mol
# Density = 1.965865 g / cm^3
# Si number density = 19.703492 Si / 1000 Ang^3
#
#
#
# Elastic Constant Matrix: (Units=GPa)
#
#
# Indices 1 2 3 4 5 6 
#
# 1 161.0394 17.9455 43.0268 0.0000 0.0000 0.0000
# 2 17.9455 53.5702 18.3605 0.0000 0.0000 0.0000
# 3 43.0268 18.3605 66.7847 0.0000 0.0000 0.0000
# 4 0.0000 0.0000 0.0000 22.4021 0.0000 0.0000
# 5 0.0000 0.0000 0.0000 0.0000 12.4823 0.0000
# 6 0.0000 0.0000 0.0000 0.0000 0.0000 18.8484
#
#
#
# Elastic Compliance Matrix: (Units=1/GPa)
#
#
# Indices 1 2 3 4 5 6 
#
# 1 0.007544 -0.000951 -0.004599 0.000000 0.000000 0.000000
# 2 -0.000951 0.020729 -0.005086 0.000000 0.000000 0.000000
# 3 -0.004599 -0.005086 0.019335 0.000000 0.000000 0.000000
# 4 0.000000 0.000000 0.000000 0.044639 0.000000 0.000000
# 5 0.000000 0.000000 0.000000 0.000000 0.080114 0.000000
# 6 0.000000 0.000000 0.000000 0.000000 0.000000 0.053055
#
#
# Mechanical properties :
#
#
# Convention : Reuss Voigt Hill
#
# Bulk Modulus (GPa) = 37.97137 48.89552 43.43345
# Shear Modulus (GPa) = 19.57206 24.21734 21.89470
#
# Velocity S-wave (km/s) = 3.15513 3.50964 3.33710
# Velocity P-wave (km/s) = 5.70845 6.42596 6.07780
#
# Compressibility (1/GPa) = 0.02633563
#
# Stress axis : x y z
#
# Youngs Moduli (GPa) = 132.54791 48.24196 51.72017
#
# Poissons Ratio (x) = 0.04588 0.23787
# Poissons Ratio (y) = 0.12605 0.26305
# Poissons Ratio (z) = 0.60961 0.24536
#
# Static dielectric constant tensor:
#      x y z
#    x 1.722270 0.000000 0.000000 
#    y 0.000000 1.696390 0.000000 
#    z 0.000000 0.000000 1.705150 
# 
# From -- ./inp_files/29271.got.cif
#   From: 2010.05.17/outbox.cif.g08.bks.cpg/sg62_15_cif.got.tgz:29271.got - 2010.06.03 15:25:27.
