data_PCOD9464567
_publ_section_title
;
Structure prediction by ZEFSAII (Michael W. Deem and Ramdas Pophale) SiO2 
 PCOD9464567
Probable space group: P N M A
;
_chemical_formula_sum "Si O2"
_cell_formula_units_Z 40
_cell_length_a 19.116468
_cell_length_b 8.044489
_cell_length_c 11.222205
_cell_angle_alpha 90.000000
_cell_angle_beta 90.000000
_cell_angle_gamma 90.000000
_cell_volume 1725.775559
_symmetry_space_group_name_H-M "P N M A"
_symmetry_group_IT_number 62
_symmetry_cell_setting 'orthorhombic'
loop_
_space_group_symop_operation_xyz
x,y,z
1/2-x,-y,1/2+z
1/2+x,1/2-y,1/2-z
-x,1/2+y,-z
-x,-y,-z
1/2+x,y,1/2-z
1/2-x,1/2+y,1/2+z
x,1/2-y,z
loop_
_atom_site_type_symbol
_atom_site_label
_atom_site_fract_x
_atom_site_fract_y
_atom_site_fract_z
Si Si1 0.413963 0.052208 0.762105
Si Si2 0.720316 0.442257 0.130558
Si Si3 0.786503 0.050476 0.372978
Si Si4 0.574321 0.951078 0.762747
Si Si5 0.581495 0.550360 0.499971
O O1 0.402984 0.250000 0.768109
O O2 0.393351 0.987743 0.628708
O O3 0.362865 0.967319 0.855558
O O4 0.496293 0.018541 0.779631
O O5 0.739317 0.250000 0.132377
O O6 0.749995 0.518408 0.253436
O O7 0.743341 0.503530 0.001215
O O8 0.783934 0.250000 0.368077
O O9 0.867938 0.999966 0.359035
O O10 0.568934 0.750000 0.761065
O O11 0.604279 0.003326 0.631893
O O12 0.500000 0.500000 0.500000
O O13 0.588152 0.750000 0.495739
#
# Coordination Sequence:
#
# PCOD9464567 Si02
#       5
#     8   8   8   8   8
#     4  10  20  35  60  92 126 162 205 254 308 368
#     4  11  25  43  65  92 125 166 208 254 312 372
#     4  10  24  44  65  91 123 164 209 256 312 371
#     4   9  18  36  61  88 122 159 203 257 311 365
#     4   8  15  28  51  83 117 154 191 238 296 352
#
# _framework density 23.177983000000001
#
# number of rings (size 3 to 8) (size 9 to 14) (size 15 to 20)
#    0.000    2.400    0.000    1.200    2.800    4.000 
#    0.000    0.000    0.000    0.000    0.000    0.000 
#    0.000    0.000    0.000    0.000    0.000    0.000 
#
# Total GULP energy -223247.057074 kJ/mol
# GULP energy per Si atom -5581.176427 kJ/mol
# Density = 2.312523 g / cm^3
# Si number density = 23.177983 Si / 1000 Ang^3
#
#
#
# Elastic Constant Matrix: (Units=GPa)
#
#
# Indices 1 2 3 4 5 6 
#
# 1 78.1985 2.0117 55.3021 0.0000 0.0000 0.0000
# 2 2.0117 28.4300 21.6200 0.0000 0.0000 0.0000
# 3 55.3021 21.6200 171.1408 0.0000 0.0000 0.0000
# 4 0.0000 0.0000 0.0000 28.2945 0.0000 0.0000
# 5 0.0000 0.0000 0.0000 0.0000 42.4682 0.0000
# 6 0.0000 0.0000 0.0000 0.0000 0.0000 5.0974
#
#
#
# Elastic Compliance Matrix: (Units=1/GPa)
#
#
# Indices 1 2 3 4 5 6 
#
# 1 0.016845 0.003261 -0.005855 0.000000 0.000000 0.000000
# 2 0.003261 0.039544 -0.006049 0.000000 0.000000 0.000000
# 3 -0.005855 -0.006049 0.008499 0.000000 0.000000 0.000000
# 4 0.000000 0.000000 0.000000 0.035343 0.000000 0.000000
# 5 0.000000 0.000000 0.000000 0.000000 0.023547 0.000000
# 6 0.000000 0.000000 0.000000 0.000000 0.000000 0.196177
#
#
# Mechanical properties :
#
#
# Convention : Reuss Voigt Hill
#
# Bulk Modulus (GPa) = 21.00814 48.40408 34.70611
# Shear Modulus (GPa) = 14.15996 28.42774 21.29385
#
# Velocity S-wave (km/s) = 2.47437 3.50594 3.03431
# Velocity P-wave (km/s) = 4.15293 6.10883 5.22325
#
# Compressibility (1/GPa) = 0.04760059
#
# Stress axis : x y z
#
# Youngs Moduli (GPa) = 59.36536 25.28857 117.65634
#
# Poissons Ratio (x) = -0.08246 0.68889
# Poissons Ratio (y) = -0.19357 0.71172
# Poissons Ratio (z) = 0.34759 0.15297
#
# Static dielectric constant tensor:
#      x y z
#    x 1.879360 0.000000 0.000000 
#    y 0.000000 1.792660 0.000000 
#    z 0.000000 0.000000 1.919900 
# 
# From -- ./inp_files/14619.got.cif
#   From: 2010.05.17/outbox.cif.g08.bks.cpg/sg62_8_cif.got.tgz:14619.got - 2010.06.03 15:25:27.
