data_PCOD9464464
_publ_section_title
;
Structure prediction by ZEFSAII (Michael W. Deem and Ramdas Pophale) SiO2 
 PCOD9464464
Probable space group: P N M A
;
_chemical_formula_sum "Si O2"
_cell_formula_units_Z 48
_cell_length_a 19.159207
_cell_length_b 8.391181
_cell_length_c 15.695117
_cell_angle_alpha 90.000000
_cell_angle_beta 90.000000
_cell_angle_gamma 90.000000
_cell_volume 2523.278436
_symmetry_space_group_name_H-M "P N M A"
_symmetry_group_IT_number 62
_symmetry_cell_setting 'orthorhombic'
loop_
_space_group_symop_operation_xyz
x,y,z
1/2-x,-y,1/2+z
1/2+x,1/2-y,1/2-z
-x,1/2+y,-z
-x,-y,-z
1/2+x,y,1/2-z
1/2-x,1/2+y,1/2+z
x,1/2-y,z
loop_
_atom_site_type_symbol
_atom_site_label
_atom_site_fract_x
_atom_site_fract_y
_atom_site_fract_z
Si Si1 0.922892 0.557326 0.264134
Si Si2 0.186013 0.558910 0.406029
Si Si3 0.578218 0.059237 0.235176
Si Si4 0.810818 0.941046 0.404865
Si Si5 0.846859 0.555965 0.095379
Si Si6 0.153806 0.057772 0.095980
O O1 0.922649 0.750000 0.263848
O O2 0.867136 0.504999 0.335259
O O3 0.896529 0.501069 0.171272
O O4 0.000546 0.500230 0.282534
O O5 0.184350 0.750000 0.407871
O O6 0.132773 0.497695 0.335710
O O7 0.168933 0.495353 0.500209
O O8 0.266281 0.510059 0.387214
O O9 0.578224 0.250000 0.236253
O O10 0.604664 0.000416 0.327868
O O11 0.807036 0.750000 0.402293
O O12 0.733635 0.007939 0.386946
O O13 0.848587 0.750000 0.095097
O O14 0.865030 0.501666 0.999599
O O15 0.151509 0.250000 0.094743
#
# Coordination Sequence:
#
# PCOD9464464 Si02
#       6
#     8   8   8   8   8   8
#     4  10  21  36  54  77 108 145 180 216 265 324
#     4  10  20  37  60  81 105 141 181 224 276 325
#     4  11  23  36  52  79 113 145 181 224 267 316
#     4  10  20  35  57  84 109 137 180 228 270 320
#     4   8  16  34  58  80 103 136 178 218 260 317
#     4   9  19  36  57  81 110 143 178 221 270 317
#
# _framework density 19.022870999999999
#
# number of rings (size 3 to 8) (size 9 to 14) (size 15 to 20)
#    0.000    2.333    0.000    3.500    0.000    5.333 
#    0.000    4.167    0.000    0.000    0.000    0.000 
#    0.000    0.000    0.000    0.000    0.000    0.000 
#
# Total GULP energy -267961.920115 kJ/mol
# GULP energy per Si atom -5582.540002 kJ/mol
# Density = 1.897957 g / cm^3
# Si number density = 19.022871 Si / 1000 Ang^3
#
#
#
# Elastic Constant Matrix: (Units=GPa)
#
#
# Indices 1 2 3 4 5 6 
#
# 1 -25.9702 -23.0939 -20.1433 0.0000 0.0000 0.0000
# 2 -23.0939 2.3470 -7.3220 0.0000 0.0000 0.0000
# 3 -20.1433 -7.3220 25.9955 0.0000 0.0000 0.0000
# 4 0.0000 0.0000 0.0000 16.5986 0.0000 0.0000
# 5 0.0000 0.0000 0.0000 0.0000 -38.2621 0.0000
# 6 0.0000 0.0000 0.0000 0.0000 0.0000 16.1395
#
#
#
# Elastic Compliance Matrix: (Units=1/GPa)
#
#
# Indices 1 2 3 4 5 6 
#
# 1 -0.000339 -0.034271 -0.009916 0.000000 0.000000 0.000000
# 2 -0.034271 0.049534 -0.012604 0.000000 0.000000 0.000000
# 3 -0.009916 -0.012604 0.027235 0.000000 0.000000 0.000000
# 4 0.000000 0.000000 0.000000 0.060246 0.000000 0.000000
# 5 0.000000 0.000000 0.000000 0.000000 -0.026136 0.000000
# 6 0.000000 0.000000 0.000000 0.000000 0.000000 0.061960
#
#
# Mechanical properties :
#
#
# Convention : Reuss Voigt Hill
#
# Bulk Modulus (GPa) = -26.91540 -10.97179 -18.94359
# Shear Modulus (GPa) = 18.26837 2.42399 10.34618
#
# Velocity S-wave (km/s) = 3.10229 1.13005 2.33466
# Velocity P-wave (km/s) = 1.16077 2.01929 1.64695
#
# Compressibility (1/GPa) = -0.03715346
#
# Stress axis : x y z
#
# Youngs Moduli (GPa) = -2949.42897 20.18831 36.71810
#
# Poissons Ratio (x) = 0.69188 0.36409
# Poissons Ratio (y) = -101.08092 0.46280
# Poissons Ratio (z) = -29.24589 0.25446
#
# Static dielectric constant tensor:
#      x y z
#    x 1.622850 0.000000 0.000000 
#    y 0.000000 1.638830 0.000000 
#    z 0.000000 0.000000 1.669740 
# 
# From -- ./inp_files/19548.got.cif
#   From: 2010.05.17/outbox.cif.g08.bks.cpg/sg62_10_cif.got.tgz:19548.got - 2010.06.03 15:25:27.
