data_PCOD9464714
_publ_section_title
;
Structure prediction by ZEFSAII (Michael W. Deem and Ramdas Pophale) SiO2 
 PCOD9464714
Probable space group: P N M A
;
_chemical_formula_sum "Si O2"
_cell_formula_units_Z 64
_cell_length_a 33.637919
_cell_length_b 7.627888
_cell_length_c 11.284271
_cell_angle_alpha 90.000000
_cell_angle_beta 90.000000
_cell_angle_gamma 90.000000
_cell_volume 2895.389104
_symmetry_space_group_name_H-M "P N M A"
_symmetry_group_IT_number 62
_symmetry_cell_setting 'orthorhombic'
loop_
_space_group_symop_operation_xyz
x,y,z
1/2-x,-y,1/2+z
1/2+x,1/2-y,1/2-z
-x,1/2+y,-z
-x,-y,-z
1/2+x,y,1/2-z
1/2-x,1/2+y,1/2+z
x,1/2-y,z
loop_
_atom_site_type_symbol
_atom_site_label
_atom_site_fract_x
_atom_site_fract_y
_atom_site_fract_z
Si Si1 0.887443 0.048839 0.062781
Si Si2 0.827578 0.040542 0.475948
Si Si3 0.393699 0.542128 0.855780
Si Si4 0.230505 0.964850 0.312054
Si Si5 0.984471 0.960920 0.633564
Si Si6 0.317858 0.949656 0.286573
Si Si7 0.474826 0.461362 0.380337
Si Si8 0.664271 0.950907 0.352819
O O1 0.895749 0.250000 0.025413
O O2 0.930028 0.971417 0.095819
O O3 0.857119 0.047388 0.171539
O O4 0.861108 0.965317 0.957976
O O5 0.825350 0.250000 0.463272
O O6 0.796409 0.985570 0.576672
O O7 0.871419 0.990663 0.520725
O O8 0.816896 0.952596 0.354076
O O9 0.393448 0.750000 0.830759
O O10 0.438763 0.478114 0.855996
O O11 0.365805 0.452041 0.758303
O O12 0.231410 0.750000 0.306253
O O13 0.275496 0.025958 0.326008
O O14 0.205810 0.026221 0.196061
O O15 0.984184 0.750000 0.641026
O O16 0.007756 0.024264 0.752661
O O17 0.000000 0.000000 0.500000
O O18 0.320810 0.750000 0.329446
O O19 0.500000 0.500000 0.500000
O O20 0.473380 0.250000 0.369725
O O21 0.672996 0.750000 0.388337
#
# Coordination Sequence:
#
# PCOD9464714 Si02
#       8
#     8   8   8   8   8   8   8   8
#     4  10  22  38  59  87 119 155 196 237 291 358
#     4  10  21  39  60  81 112 152 192 234 289 350
#     4  10  20  36  58  86 115 146 193 242 290 343
#     4   8  18  36  56  80 111 148 189 234 283 339
#     4  10  23  39  58  86 121 158 198 246 298 356
#     4  11  23  37  56  84 118 152 192 243 292 337
#     4  10  22  41  63  91 122 155 199 248 302 366
#     4   9  18  36  60  84 113 152 193 233 283 346
#
# _framework density 22.104109000000001
#
# number of rings (size 3 to 8) (size 9 to 14) (size 15 to 20)
#    0.000    2.250    0.000    2.625    3.500    2.500 
#    0.000    5.625    0.000    0.000    0.000    0.000 
#    0.000    0.000    0.000    0.000    0.000    0.000 
#
# Total GULP energy -357108.636037 kJ/mol
# GULP energy per Si atom -5579.822438 kJ/mol
# Density = 2.205380 g / cm^3
# Si number density = 22.104109 Si / 1000 Ang^3
#
#
#
# Elastic Constant Matrix: (Units=GPa)
#
#
# Indices 1 2 3 4 5 6 
#
# 1 158.3001 3.8858 47.8789 0.0000 0.0000 0.0000
# 2 3.8858 51.9138 -3.7315 0.0000 0.0000 0.0000
# 3 47.8789 -3.7315 101.5665 0.0000 0.0000 0.0000
# 4 0.0000 0.0000 0.0000 1.9600 0.0000 0.0000
# 5 0.0000 0.0000 0.0000 0.0000 25.5044 0.0000
# 6 0.0000 0.0000 0.0000 0.0000 0.0000 -34.6889
#
#
#
# Elastic Compliance Matrix: (Units=1/GPa)
#
#
# Indices 1 2 3 4 5 6 
#
# 1 0.007401 -0.000807 -0.003519 0.000000 0.000000 0.000000
# 2 -0.000807 0.019402 0.001093 0.000000 0.000000 0.000000
# 3 -0.003519 0.001093 0.011545 0.000000 0.000000 0.000000
# 4 0.000000 0.000000 0.000000 0.510214 0.000000 0.000000
# 5 0.000000 0.000000 0.000000 0.000000 0.039209 0.000000
# 6 0.000000 0.000000 0.000000 0.000000 0.000000 -0.028828
#
#
# Mechanical properties :
#
#
# Convention : Reuss Voigt Hill
#
# Bulk Modulus (GPa) = 31.36485 45.31632 38.34058
# Shear Modulus (GPa) = 8.68003 16.13824 12.40913
#
# Velocity S-wave (km/s) = 1.98379 2.70497 2.37195
# Velocity P-wave (km/s) = 4.41221 5.50469 4.98845
#
# Compressibility (1/GPa) = 0.03188283
#
# Stress axis : x y z
#
# Youngs Moduli (GPa) = 135.11436 51.54196 86.62056
#
# Poissons Ratio (x) = 0.04159 0.30478
# Poissons Ratio (y) = 0.10902 -0.09469
# Poissons Ratio (z) = 0.47541 -0.05634
#
# Static dielectric constant tensor:
#      x y z
#    x 1.806800 0.000000 0.000000 
#    y 0.000000 1.861960 0.000000 
#    z 0.000000 0.000000 1.826740 
# 
# From -- ./inp_files/15767.got.cif
#   From: 2010.05.17/outbox.cif.g08.bks.cpg/sg62_8_cif.got.tgz:15767.got - 2010.06.03 15:25:27.
