data_PCOD9464562
_publ_section_title
;
Structure prediction by ZEFSAII (Michael W. Deem and Ramdas Pophale) SiO2 
 PCOD9464562
Probable space group: P N M A
;
_chemical_formula_sum "Si O2"
_cell_formula_units_Z 64
_cell_length_a 11.280835
_cell_length_b 8.932697
_cell_length_c 32.419158
_cell_angle_alpha 90.000000
_cell_angle_beta 90.000000
_cell_angle_gamma 90.000000
_cell_volume 3266.822822
_symmetry_space_group_name_H-M "P N M A"
_symmetry_group_IT_number 62
_symmetry_cell_setting 'orthorhombic'
loop_
_space_group_symop_operation_xyz
x,y,z
1/2-x,-y,1/2+z
1/2+x,1/2-y,1/2-z
-x,1/2+y,-z
-x,-y,-z
1/2+x,y,1/2-z
1/2-x,1/2+y,1/2+z
x,1/2-y,z
loop_
_atom_site_type_symbol
_atom_site_label
_atom_site_fract_x
_atom_site_fract_y
_atom_site_fract_z
Si Si1 0.062092 0.924165 0.561692
Si Si2 0.813338 0.925661 0.513762
Si Si3 0.430644 0.073514 0.293942
Si Si4 0.977228 0.427889 0.299803
Si Si5 0.788580 0.427241 0.664080
Si Si6 0.677123 0.073061 0.864633
Si Si7 0.072360 0.072891 0.122301
Si Si8 0.651086 0.070587 0.579830
O O1 0.083563 0.750000 0.571442
O O2 0.931434 0.937497 0.542202
O O3 0.153750 0.983555 0.527282
O O4 0.079112 0.024087 0.601888
O O5 0.794685 0.750000 0.504650
O O6 0.705765 0.995606 0.539316
O O7 0.396651 0.250000 0.294362
O O8 0.480443 0.038214 0.248872
O O9 0.523750 0.051984 0.330946
O O10 0.316759 0.975486 0.305207
O O11 0.968261 0.250000 0.304982
O O12 0.864822 0.504585 0.321376
O O13 0.094271 0.486913 0.322382
O O14 0.809758 0.250000 0.665690
O O15 0.738992 0.464773 0.618437
O O16 0.686799 0.250000 0.862165
O O17 0.799630 0.001309 0.879707
O O18 0.078269 0.250000 0.114003
O O19 0.975925 0.995869 0.092670
O O20 0.645094 0.250000 0.575828
#
# Coordination Sequence:
#
# PCOD9464562 Si02
#       8
#     8   8   8   8   8   8   8   8
#     4  10  21  38  60  88 121 158 195 238 290 347
#     4  10  20  35  60  91 121 153 193 241 291 343
#     4   9  21  39  59  81 109 148 193 238 285 343
#     4  11  23  38  58  83 112 151 195 238 287 346
#     4  10  21  36  56  84 115 145 185 239 289 337
#     4  12  25  40  58  85 119 155 193 240 294 349
#     4  10  21  40  62  83 112 153 197 242 292 349
#     4  10  20  36  58  85 116 152 193 237 288 346
#
# _framework density 19.590900999999999
#
# number of rings (size 3 to 8) (size 9 to 14) (size 15 to 20)
#    0.000    1.750    0.000    4.125    1.750    6.500 
#    0.000    0.625    0.000    0.000    0.000    0.000 
#    0.000    0.000    0.000    0.000    0.000    0.000 
#
# Total GULP energy -357767.920540 kJ/mol
# GULP energy per Si atom -5590.123758 kJ/mol
# Density = 1.954631 g / cm^3
# Si number density = 19.590901 Si / 1000 Ang^3
#
#
#
# Elastic Constant Matrix: (Units=GPa)
#
#
# Indices 1 2 3 4 5 6 
#
# 1 37.6442 18.8545 -11.7650 0.0000 0.0000 0.0000
# 2 18.8545 63.2596 4.3562 0.0000 0.0000 0.0000
# 3 -11.7650 4.3562 23.9682 0.0000 0.0000 0.0000
# 4 0.0000 0.0000 0.0000 27.1122 0.0000 0.0000
# 5 0.0000 0.0000 0.0000 0.0000 12.1675 0.0000
# 6 0.0000 0.0000 0.0000 0.0000 0.0000 33.5867
#
#
#
# Elastic Compliance Matrix: (Units=1/GPa)
#
#
# Indices 1 2 3 4 5 6 
#
# 1 0.040299 -0.013543 0.022242 0.000000 0.000000 0.000000
# 2 -0.013543 0.020559 -0.010384 0.000000 0.000000 0.000000
# 3 0.022242 -0.010384 0.054527 0.000000 0.000000 0.000000
# 4 0.000000 0.000000 0.000000 0.036884 0.000000 0.000000
# 5 0.000000 0.000000 0.000000 0.000000 0.082186 0.000000
# 6 0.000000 0.000000 0.000000 0.000000 0.000000 0.029774
#
#
# Mechanical properties :
#
#
# Convention : Reuss Voigt Hill
#
# Bulk Modulus (GPa) = 8.92725 16.41816 12.67271
# Shear Modulus (GPa) = 16.39680 22.13502 19.26591
#
# Velocity S-wave (km/s) = 2.89616 3.36499 3.13934
# Velocity P-wave (km/s) = 3.96868 4.84729 4.42982
#
# Compressibility (1/GPa) = 0.11201652
#
# Stress axis : x y z
#
# Youngs Moduli (GPa) = 24.81446 48.63952 18.33948
#
# Poissons Ratio (x) = 0.65872 -0.40792
# Poissons Ratio (y) = 0.33606 0.19044
# Poissons Ratio (z) = -0.55194 0.50508
#
# Static dielectric constant tensor:
#      x y z
#    x 1.675570 0.000000 0.000000 
#    y 0.000000 1.646420 0.000000 
#    z 0.000000 0.000000 1.687980 
# 
# From -- ./inp_files/32579.got.cif
#   From: 2010.05.17/outbox.cif.g08.bks.cpg/sg62_17_cif.got.tgz:32579.got - 2010.06.03 15:25:27.
