data_PCOD9464922
_publ_section_title
;
Structure prediction by ZEFSAII (Michael W. Deem and Ramdas Pophale) SiO2 
 PCOD9464922
Probable space group: P N M A
;
_chemical_formula_sum "Si O2"
_cell_formula_units_Z 52
_cell_length_a 14.412022
_cell_length_b 20.482479
_cell_length_c 8.725823
_cell_angle_alpha 90.000000
_cell_angle_beta 90.000000
_cell_angle_gamma 90.000000
_cell_volume 2575.810053
_symmetry_space_group_name_H-M "P N M A"
_symmetry_group_IT_number 62
_symmetry_cell_setting 'orthorhombic'
loop_
_space_group_symop_operation_xyz
x,y,z
1/2-x,-y,1/2+z
1/2+x,1/2-y,1/2-z
-x,1/2+y,-z
-x,-y,-z
1/2+x,y,1/2-z
1/2-x,1/2+y,1/2+z
x,1/2-y,z
loop_
_atom_site_type_symbol
_atom_site_label
_atom_site_fract_x
_atom_site_fract_y
_atom_site_fract_z
Si Si1 0.848469 0.250000 0.406993
Si Si2 0.473286 0.396852 0.583804
Si Si3 0.345002 0.469196 0.095806
Si Si4 0.627854 0.036483 0.394166
Si Si5 0.367472 0.599799 0.942912
Si Si6 0.046103 0.860705 0.424306
Si Si7 0.832560 0.363640 0.152993
O O1 0.880724 0.306499 0.529764
O O2 0.826411 0.307827 0.279777
O O3 0.414660 0.464102 0.602855
O O4 0.569885 0.418250 0.508914
O O5 0.479075 0.363237 0.747254
O O6 0.415961 0.353320 0.464099
O O7 0.235646 0.464700 0.060134
O O8 0.354793 0.432441 0.258476
O O9 0.371266 0.544539 0.075509
O O10 0.408278 0.428882 0.978606
O O11 0.619283 0.065200 0.222255
O O12 0.265273 0.629902 0.933508
O O13 0.452348 0.647936 0.975887
#
# Coordination Sequence:
#
# PCOD9464922 Si02
#       7
#     4   8   8   8   8   8   8
#     4  10  24  48  62  82 116 174 222 260 306 384
#     4  11  22  35  58  97 125 166 205 265 321 381
#     4  10  20  37  59  93 130 165 201 258 327 395
#     4  10  21  33  57  93 135 159 200 253 328 396
#     4  11  21  38  61  95 125 170 203 264 329 395
#     4  11  24  38  64  88 127 166 218 266 320 386
#     4  10  23  40  65  88 126 173 216 266 323 383
#
# _framework density 20.187823999999999
#
# number of rings (size 3 to 8) (size 9 to 14) (size 15 to 20)
#    0.000    1.538    3.077    2.308    4.308    2.462 
#    0.000    1.538    0.000    9.231    0.000    0.000 
#    0.000    0.000    0.000    0.000    0.000    0.000 
#
# Total GULP energy -289510.669736 kJ/mol
# GULP energy per Si atom -5567.512880 kJ/mol
# Density = 2.014188 g / cm^3
# Si number density = 20.187824 Si / 1000 Ang^3
#
#
#
# Elastic Constant Matrix: (Units=GPa)
#
#
# Indices 1 2 3 4 5 6 
#
# 1 60.3175 -12.0309 22.9928 0.0000 0.0000 0.0000
# 2 -12.0309 39.1265 8.8759 0.0000 0.0000 0.0000
# 3 22.9928 8.8759 62.7486 0.0000 0.0000 0.0000
# 4 0.0000 0.0000 0.0000 16.4439 0.0000 0.0000
# 5 0.0000 0.0000 0.0000 0.0000 21.1729 0.0000
# 6 0.0000 0.0000 0.0000 0.0000 0.0000 2.8555
#
#
#
# Elastic Compliance Matrix: (Units=1/GPa)
#
#
# Indices 1 2 3 4 5 6 
#
# 1 0.021870 0.008826 -0.009262 0.000000 0.000000 0.000000
# 2 0.008826 0.029967 -0.007473 0.000000 0.000000 0.000000
# 3 -0.009262 -0.007473 0.020388 0.000000 0.000000 0.000000
# 4 0.000000 0.000000 0.000000 0.060813 0.000000 0.000000
# 5 0.000000 0.000000 0.000000 0.000000 0.047230 0.000000
# 6 0.000000 0.000000 0.000000 0.000000 0.000000 0.350196
#
#
# Mechanical properties :
#
#
# Convention : Reuss Voigt Hill
#
# Bulk Modulus (GPa) = 17.72852 22.42981 20.07916
# Shear Modulus (GPa) = 8.84823 17.58479 13.21651
#
# Velocity S-wave (km/s) = 2.09582 2.95457 2.56144
# Velocity P-wave (km/s) = 3.82851 4.77221 4.32617
#
# Compressibility (1/GPa) = 0.05640630
#
# Stress axis : x y z
#
# Youngs Moduli (GPa) = 45.72454 33.36979 49.04933
#
# Poissons Ratio (x) = -0.29452 0.45431
# Poissons Ratio (y) = -0.40356 0.36654
# Poissons Ratio (z) = 0.42351 0.24937
#
# Static dielectric constant tensor:
#      x y z
#    x 1.713520 0.000000 0.000000 
#    y 0.000000 1.695350 0.000000 
#    z 0.000000 0.000000 1.720760 
# 
# From -- ./inp_files/6675.got.cif
#   From: 2010.05.17/outbox.cif.g08.bks.cpg/sg62_4_cif.got.tgz:6675.got - 2010.06.03 15:25:27.
