data_PCOD9464523
_publ_section_title
;
Structure prediction by ZEFSAII (Michael W. Deem and Ramdas Pophale) SiO2 
 PCOD9464523
Probable space group: P N M A
;
_chemical_formula_sum "Si O2"
_cell_formula_units_Z 52
_cell_length_a 18.719155
_cell_length_b 7.735564
_cell_length_c 13.644983
_cell_angle_alpha 90.000000
_cell_angle_beta 90.000000
_cell_angle_gamma 90.000000
_cell_volume 1975.837496
_symmetry_space_group_name_H-M "P N M A"
_symmetry_group_IT_number 62
_symmetry_cell_setting 'orthorhombic'
loop_
_space_group_symop_operation_xyz
x,y,z
1/2-x,-y,1/2+z
1/2+x,1/2-y,1/2-z
-x,1/2+y,-z
-x,-y,-z
1/2+x,y,1/2-z
1/2-x,1/2+y,1/2+z
x,1/2-y,z
loop_
_atom_site_type_symbol
_atom_site_label
_atom_site_fract_x
_atom_site_fract_y
_atom_site_fract_z
Si Si1 0.396913 0.940857 0.953765
Si Si2 0.438818 0.750000 0.760746
Si Si3 0.359558 0.539288 0.461881
Si Si4 0.236821 0.053171 0.133822
Si Si5 0.400475 0.045760 0.160556
Si Si6 0.769626 0.446960 0.665098
Si Si7 0.507763 0.447825 0.655581
O O1 0.374337 0.750000 0.987900
O O2 0.435047 0.898865 0.850779
O O3 0.326310 0.043194 0.921942
O O4 0.430207 0.026070 0.049697
O O5 0.451100 0.596299 0.678626
O O6 0.360138 0.750000 0.462877
O O7 0.318557 0.472509 0.558039
O O8 0.305293 0.486852 0.375041
O O9 0.438738 0.490780 0.431058
O O10 0.247211 0.250000 0.100828
O O11 0.317558 0.988071 0.149865
O O12 0.204338 0.056138 0.242868
O O13 0.405600 0.250000 0.187252
O O14 0.441073 0.948327 0.246813
O O15 0.763502 0.250000 0.698030
O O16 0.482736 0.250000 0.640994
#
# Coordination Sequence:
#
# PCOD9464523 Si02
#       7
#     8   4   8   8   8   8   8
#     4  10  23  40  57  82 121 165 205 257 305 357
#     4  10  26  46  58  92 116 168 234 258 296 362
#     4   9  19  36  60  89 124 161 198 253 316 380
#     4  10  20  35  58  93 129 158 197 243 310 388
#     4  11  20  35  59  91 130 164 196 247 312 381
#     4  11  20  36  60  92 126 157 197 251 320 382
#     4  11  22  41  64  87 125 169 209 261 314 362
#
# _framework density 26.317952999999999
#
# number of rings (size 3 to 8) (size 9 to 14) (size 15 to 20)
#    0.462    1.231    3.846    1.385    0.000    2.462 
#    2.769    0.000    0.000    0.923    0.000    0.000 
#    0.000    0.000    0.000    0.000    0.000    0.000 
#
# Total GULP energy -289736.745981 kJ/mol
# GULP energy per Si atom -5571.860500 kJ/mol
# Density = 2.625805 g / cm^3
# Si number density = 26.317953 Si / 1000 Ang^3
#
#
#
# Elastic Constant Matrix: (Units=GPa)
#
#
# Indices 1 2 3 4 5 6 
#
# 1 91.7158 13.4966 31.5193 0.0000 0.0000 0.0000
# 2 13.4966 115.0522 0.6585 0.0000 0.0000 0.0000
# 3 31.5193 0.6585 82.8516 0.0000 0.0000 0.0000
# 4 0.0000 0.0000 0.0000 29.6062 0.0000 0.0000
# 5 0.0000 0.0000 0.0000 0.0000 58.4944 0.0000
# 6 0.0000 0.0000 0.0000 0.0000 0.0000 8.2138
#
#
#
# Elastic Compliance Matrix: (Units=1/GPa)
#
#
# Indices 1 2 3 4 5 6 
#
# 1 0.012788 -0.001472 -0.004853 0.000000 0.000000 0.000000
# 2 -0.001472 0.008862 0.000490 0.000000 0.000000 0.000000
# 3 -0.004853 0.000490 0.013912 0.000000 0.000000 0.000000
# 4 0.000000 0.000000 0.000000 0.033777 0.000000 0.000000
# 5 0.000000 0.000000 0.000000 0.000000 0.017096 0.000000
# 6 0.000000 0.000000 0.000000 0.000000 0.000000 0.121746
#
#
# Mechanical properties :
#
#
# Convention : Reuss Voigt Hill
#
# Bulk Modulus (GPa) = 41.85860 42.32982 42.09421
# Shear Modulus (GPa) = 21.94769 35.52591 28.73680
#
# Velocity S-wave (km/s) = 2.89094 3.67805 3.30799
# Velocity P-wave (km/s) = 5.20412 5.84434 5.53350
#
# Compressibility (1/GPa) = 0.02388995
#
# Stress axis : x y z
#
# Youngs Moduli (GPa) = 78.19976 112.84620 71.87954
#
# Poissons Ratio (x) = 0.16615 0.34884
# Poissons Ratio (y) = 0.11514 -0.03520
# Poissons Ratio (z) = 0.37952 -0.05526
#
# Static dielectric constant tensor:
#      x y z
#    x 2.241260 0.000000 0.000000 
#    y 0.000000 1.993220 0.000000 
#    z 0.000000 0.000000 2.142450 
# 
# From -- ./inp_files/20640.got.cif
#   From: 2010.05.17/outbox.cif.g08.bks.cpg/sg62_11_cif.got.tgz:20640.got - 2010.06.03 15:25:27.
