data_PCOD9464336
_publ_section_title
;
Structure prediction by ZEFSAII (Michael W. Deem and Ramdas Pophale) SiO2 
 PCOD9464336
Probable space group: P N M A
;
_chemical_formula_sum "Si O2"
_cell_formula_units_Z 64
_cell_length_a 20.199044
_cell_length_b 8.345829
_cell_length_c 17.726710
_cell_angle_alpha 90.000000
_cell_angle_beta 90.000000
_cell_angle_gamma 90.000000
_cell_volume 2988.329191
_symmetry_space_group_name_H-M "P N M A"
_symmetry_group_IT_number 62
_symmetry_cell_setting 'orthorhombic'
loop_
_space_group_symop_operation_xyz
x,y,z
1/2-x,-y,1/2+z
1/2+x,1/2-y,1/2-z
-x,1/2+y,-z
-x,-y,-z
1/2+x,y,1/2-z
1/2-x,1/2+y,1/2+z
x,1/2-y,z
loop_
_atom_site_type_symbol
_atom_site_label
_atom_site_fract_x
_atom_site_fract_y
_atom_site_fract_z
Si Si1 0.454034 0.063796 0.771821
Si Si2 0.821700 0.561060 0.677631
Si Si3 0.515085 0.933710 0.625849
Si Si4 0.651573 0.444239 0.008140
Si Si5 0.780660 0.934804 0.926881
Si Si6 0.287115 0.558865 0.220721
Si Si7 0.911616 0.064421 0.988388
Si Si8 0.077512 0.444684 0.640011
O O1 0.440411 0.250000 0.786385
O O2 0.505804 0.996562 0.833488
O O3 0.383418 0.978035 0.767689
O O4 0.494549 0.044329 0.694414
O O5 0.810205 0.750000 0.676193
O O6 0.850817 0.510967 0.595825
O O7 0.752014 0.482978 0.702530
O O8 0.519201 0.750000 0.651906
O O9 0.579652 0.976881 0.576729
O O10 0.457791 0.954242 0.563231
O O11 0.657895 0.250000 0.003719
O O12 0.716853 0.527530 0.976579
O O13 0.596161 0.489007 0.945918
O O14 0.800240 0.750000 0.931561
O O15 0.759152 0.979144 0.842676
O O16 0.838800 0.043983 0.957746
O O17 0.286302 0.750000 0.211544
O O18 0.362203 0.506674 0.197309
O O19 0.932731 0.250000 0.980580
O O20 0.075073 0.250000 0.643859
#
# Coordination Sequence:
#
# PCOD9464336 Si02
#       8
#     8   8   8   8   8   8   8   8
#     4  11  22  37  58  83 113 149 189 233 284 341
#     4  11  23  38  58  86 117 148 188 236 282 332
#     4  10  21  36  53  77 109 143 184 229 274 330
#     4   9  20  40  60  79 109 147 187 233 283 332
#     4  11  21  34  56  84 112 142 182 229 276 334
#     4  10  20  38  61  83 113 151 189 231 283 339
#     4  10  20  35  55  78 108 147 184 223 277 336
#     4   8  18  38  61  82 107 146 191 231 277 334
#
# _framework density 21.416651000000002
#
# number of rings (size 3 to 8) (size 9 to 14) (size 15 to 20)
#    0.000    2.000    0.000    4.500    0.000    4.000 
#    0.000    8.750    0.000    0.000    0.000    0.000 
#    0.000    0.000    0.000    0.000    0.000    0.000 
#
# Total GULP energy -357056.732706 kJ/mol
# GULP energy per Si atom -5579.011449 kJ/mol
# Density = 2.136791 g / cm^3
# Si number density = 21.416651 Si / 1000 Ang^3
#
#
#
# Elastic Constant Matrix: (Units=GPa)
#
#
# Indices 1 2 3 4 5 6 
#
# 1 38.9059 -7.1634 -5.1364 0.0000 0.0000 0.0000
# 2 -7.1634 25.2729 -0.2948 0.0000 0.0000 0.0000
# 3 -5.1364 -0.2948 42.7805 0.0000 0.0000 0.0000
# 4 0.0000 0.0000 0.0000 23.5382 0.0000 0.0000
# 5 0.0000 0.0000 0.0000 0.0000 9.1152 0.0000
# 6 0.0000 0.0000 0.0000 0.0000 0.0000 15.1054
#
#
#
# Elastic Compliance Matrix: (Units=1/GPa)
#
#
# Indices 1 2 3 4 5 6 
#
# 1 0.027595 0.007861 0.003367 0.000000 0.000000 0.000000
# 2 0.007861 0.041811 0.001232 0.000000 0.000000 0.000000
# 3 0.003367 0.001232 0.023788 0.000000 0.000000 0.000000
# 4 0.000000 0.000000 0.000000 0.042484 0.000000 0.000000
# 5 0.000000 0.000000 0.000000 0.000000 0.109706 0.000000
# 6 0.000000 0.000000 0.000000 0.000000 0.000000 0.066202
#
#
# Mechanical properties :
#
#
# Convention : Reuss Voigt Hill
#
# Bulk Modulus (GPa) = 8.46639 9.08554 8.77596
# Shear Modulus (GPa) = 15.33571 17.52202 16.42886
#
# Velocity S-wave (km/s) = 2.67884 2.86343 2.77267
# Velocity P-wave (km/s) = 3.67832 3.89664 3.78905
#
# Compressibility (1/GPa) = 0.11811407
#
# Stress axis : x y z
#
# Youngs Moduli (GPa) = 36.23849 23.91735 42.03811
#
# Poissons Ratio (x) = -0.18801 -0.14156
# Poissons Ratio (y) = -0.28487 -0.05179
# Poissons Ratio (z) = -0.12203 -0.02947
#
# Static dielectric constant tensor:
#      x y z
#    x 1.815260 0.000000 0.000000 
#    y 0.000000 1.713820 0.000000 
#    z 0.000000 0.000000 1.860030 
# 
# From -- ./inp_files/24727.got.cif
#   From: 2010.05.17/outbox.cif.g08.bks.cpg/sg62_13_cif.got.tgz:24727.got - 2010.06.03 15:25:27.
