data_PCOD9464636
_publ_section_title
;
Structure prediction by ZEFSAII (Michael W. Deem and Ramdas Pophale) SiO2 
 PCOD9464636
Probable space group: P N M A
;
_chemical_formula_sum "Si O2"
_cell_formula_units_Z 24
_cell_length_a 4.907736
_cell_length_b 10.940300
_cell_length_c 18.538716
_cell_angle_alpha 90.000000
_cell_angle_beta 90.000000
_cell_angle_gamma 90.000000
_cell_volume 995.382670
_symmetry_space_group_name_H-M "P N M A"
_symmetry_group_IT_number 62
_symmetry_cell_setting 'orthorhombic'
loop_
_space_group_symop_operation_xyz
x,y,z
1/2-x,-y,1/2+z
1/2+x,1/2-y,1/2-z
-x,1/2+y,-z
-x,-y,-z
1/2+x,y,1/2-z
1/2-x,1/2+y,1/2+z
x,1/2-y,z
loop_
_atom_site_type_symbol
_atom_site_label
_atom_site_fract_x
_atom_site_fract_y
_atom_site_fract_z
Si Si1 0.653953 0.250000 0.561123
Si Si2 0.147966 0.250000 0.460373
Si Si3 0.581817 0.989595 0.584367
Si Si4 0.687773 0.896370 0.798487
O O1 0.344137 0.250000 0.531097
O O2 0.704029 0.377267 0.601567
O O3 0.844587 0.250000 0.490226
O O4 0.223792 0.371049 0.416077
O O5 0.322002 0.963498 0.633881
O O6 0.500000 0.000000 0.500000
O O7 0.890775 0.925455 0.731532
O O8 0.707378 0.750000 0.811186
#
# Coordination Sequence:
#
# PCOD9464636 Si02
#       4
#     4   4   8   8
#     4  10  22  34  56  88 120 152 195 248 309 350
#     4  10  20  36  56  86 120 154 197 250 295 352
#     4  10  21  40  62  92 124 163 207 257 306 368
#     4  10  22  40  62  89 121 163 208 255 306 366
#
# _framework density 24.111332000000001
#
# number of rings (size 3 to 8) (size 9 to 14) (size 15 to 20)
#    0.000    2.000    1.667    1.000    0.000   10.667 
#    0.000    1.667    0.000    0.000    0.000    0.000 
#    0.000    0.000    0.000    0.000    0.000    0.000 
#
# Total GULP energy -134376.456731 kJ/mol
# GULP energy per Si atom -5599.019030 kJ/mol
# Density = 2.405645 g / cm^3
# Si number density = 24.111332 Si / 1000 Ang^3
#
#
#
# Elastic Constant Matrix: (Units=GPa)
#
#
# Indices 1 2 3 4 5 6 
#
# 1 63.2680 10.0854 -1.5009 0.0000 0.0000 0.0000
# 2 10.0854 196.1123 5.6208 0.0000 0.0000 0.0000
# 3 -1.5009 5.6208 96.9649 0.0000 0.0000 0.0000
# 4 0.0000 0.0000 0.0000 37.7544 0.0000 0.0000
# 5 0.0000 0.0000 0.0000 0.0000 38.1278 0.0000
# 6 0.0000 0.0000 0.0000 0.0000 0.0000 16.9991
#
#
#
# Elastic Compliance Matrix: (Units=1/GPa)
#
#
# Indices 1 2 3 4 5 6 
#
# 1 0.015945 -0.000828 0.000295 0.000000 0.000000 0.000000
# 2 -0.000828 0.005151 -0.000311 0.000000 0.000000 0.000000
# 3 0.000295 -0.000311 0.010336 0.000000 0.000000 0.000000
# 4 0.000000 0.000000 0.000000 0.026487 0.000000 0.000000
# 5 0.000000 0.000000 0.000000 0.000000 0.026228 0.000000
# 6 0.000000 0.000000 0.000000 0.000000 0.000000 0.058827
#
#
# Mechanical properties :
#
#
# Convention : Reuss Voigt Hill
#
# Bulk Modulus (GPa) = 33.62350 42.75064 38.18707
# Shear Modulus (GPa) = 32.34655 41.38560 36.86608
#
# Velocity S-wave (km/s) = 3.66669 4.14749 3.91448
# Velocity P-wave (km/s) = 5.64814 6.38001 6.02520
#
# Compressibility (1/GPa) = 0.02974111
#
# Stress axis : x y z
#
# Youngs Moduli (GPa) = 62.71625 194.15028 96.75271
#
# Poissons Ratio (x) = 0.16084 -0.02853
# Poissons Ratio (y) = 0.05196 0.03013
# Poissons Ratio (z) = -0.01849 0.06046
#
# Static dielectric constant tensor:
#      x y z
#    x 1.926390 0.000000 0.000000 
#    y 0.000000 1.970180 0.000000 
#    z 0.000000 0.000000 1.948350 
# 
# From -- ./inp_files/21348.got.cif
#   From: 2010.05.17/outbox.cif.g08.bks.cpg/sg62_11_cif.got.tgz:21348.got - 2010.06.03 15:25:27.
