data_PCOD9464338
_publ_section_title
;
Structure prediction by ZEFSAII (Michael W. Deem and Ramdas Pophale) SiO2 
 PCOD9464338
Probable space group: P N M A
;
_chemical_formula_sum "Si O2"
_cell_formula_units_Z 48
_cell_length_a 9.573842
_cell_length_b 8.832031
_cell_length_c 32.076348
_cell_angle_alpha 90.000000
_cell_angle_beta 90.000000
_cell_angle_gamma 90.000000
_cell_volume 2712.262736
_symmetry_space_group_name_H-M "P N M A"
_symmetry_group_IT_number 62
_symmetry_cell_setting 'orthorhombic'
loop_
_space_group_symop_operation_xyz
x,y,z
1/2-x,-y,1/2+z
1/2+x,1/2-y,1/2-z
-x,1/2+y,-z
-x,-y,-z
1/2+x,y,1/2-z
1/2-x,1/2+y,1/2+z
x,1/2-y,z
loop_
_atom_site_type_symbol
_atom_site_label
_atom_site_fract_x
_atom_site_fract_y
_atom_site_fract_z
Si Si1 0.425137 0.924049 0.378650
Si Si2 0.913702 0.075748 0.628731
Si Si3 0.085669 0.432386 0.786490
Si Si4 0.094447 0.932659 0.463678
Si Si5 0.595238 0.929797 0.535885
Si Si6 0.604198 0.429822 0.214523
O O1 0.467098 0.750000 0.386635
O O2 0.255724 0.925342 0.374881
O O3 0.473820 0.971685 0.332619
O O4 0.461734 0.024800 0.418281
O O5 0.955673 0.250000 0.636502
O O6 0.962384 0.027517 0.582731
O O7 0.950476 0.975389 0.668437
O O8 0.099606 0.250000 0.785366
O O9 0.238300 0.506416 0.782429
O O10 0.988091 0.491664 0.749903
O O11 0.100605 0.750000 0.465633
O O12 0.250127 0.999068 0.467427
O O13 0.000000 0.000000 0.500000
O O14 0.602839 0.750000 0.531903
O O15 0.500000 0.000000 0.500000
O O16 0.603639 0.250000 0.219430
#
# Coordination Sequence:
#
# PCOD9464338 Si02
#       6
#     8   8   8   8   8   8
#     4   8  16  32  53  75  99 132 174 212 250 305
#     4   8  16  32  52  73 101 138 173 204 250 313
#     4  10  20  36  56  76 104 141 174 207 256 315
#     4  10  20  35  55  79 106 136 173 214 256 306
#     4  11  21  34  54  78 106 138 172 213 258 305
#     4  11  21  33  53  81 108 133 171 220 258 296
#
# _framework density 17.697400999999999
#
# number of rings (size 3 to 8) (size 9 to 14) (size 15 to 20)
#    0.000    2.333    0.000    6.000    0.000    7.333 
#    0.000    1.667    0.000   10.000    0.000    0.000 
#    0.000    0.000    0.000    0.000    0.000    0.000 
#
# Total GULP energy -267696.972864 kJ/mol
# GULP energy per Si atom -5577.020268 kJ/mol
# Density = 1.765712 g / cm^3
# Si number density = 17.697401 Si / 1000 Ang^3
#
#
#
# Elastic Constant Matrix: (Units=GPa)
#
#
# Indices 1 2 3 4 5 6 
#
# 1 36.3448 28.3777 50.8890 0.0000 0.0000 0.0000
# 2 28.3777 99.4557 73.8911 0.0000 0.0000 0.0000
# 3 50.8890 73.8911 171.7398 0.0000 0.0000 0.0000
# 4 0.0000 0.0000 0.0000 33.0772 0.0000 0.0000
# 5 0.0000 0.0000 0.0000 0.0000 32.0377 0.0000
# 6 0.0000 0.0000 0.0000 0.0000 0.0000 24.4561
#
#
#
# Elastic Compliance Matrix: (Units=1/GPa)
#
#
# Indices 1 2 3 4 5 6 
#
# 1 0.048439 -0.004641 -0.012356 0.000000 0.000000 0.000000
# 2 -0.004641 0.015224 -0.005175 0.000000 0.000000 0.000000
# 3 -0.012356 -0.005175 0.011711 0.000000 0.000000 0.000000
# 4 0.000000 0.000000 0.000000 0.030232 0.000000 0.000000
# 5 0.000000 0.000000 0.000000 0.000000 0.031213 0.000000
# 6 0.000000 0.000000 0.000000 0.000000 0.000000 0.040890
#
#
# Mechanical properties :
#
#
# Convention : Reuss Voigt Hill
#
# Bulk Modulus (GPa) = 32.22792 68.20622 50.21707
# Shear Modulus (GPa) = 21.51506 28.20636 24.86071
#
# Velocity S-wave (km/s) = 3.49050 3.99659 3.75209
# Velocity P-wave (km/s) = 5.87323 7.74086 6.87080
#
# Compressibility (1/GPa) = 0.03102900
#
# Stress axis : x y z
#
# Youngs Moduli (GPa) = 20.64454 65.68782 85.39259
#
# Poissons Ratio (x) = 0.30484 1.05515
# Poissons Ratio (y) = 0.09581 0.44189
# Poissons Ratio (z) = 0.25509 0.33992
#
# Static dielectric constant tensor:
#      x y z
#    x 1.584950 0.000000 0.000000 
#    y 0.000000 1.600410 0.000000 
#    z 0.000000 0.000000 1.636650 
# 
# From -- ./inp_files/31003.got.cif
#   From: 2010.05.17/outbox.cif.g08.bks.cpg/sg62_16_cif.got.tgz:31003.got - 2010.06.03 15:25:27.
