data_PCOD9464593
_publ_section_title
;
Structure prediction by ZEFSAII (Michael W. Deem and Ramdas Pophale) SiO2 
 PCOD9464593
Probable space group: P N M A
;
_chemical_formula_sum "Si O2"
_cell_formula_units_Z 36
_cell_length_a 4.802497
_cell_length_b 27.837978
_cell_length_c 10.174346
_cell_angle_alpha 90.000000
_cell_angle_beta 90.000000
_cell_angle_gamma 90.000000
_cell_volume 1360.226690
_symmetry_space_group_name_H-M "P N M A"
_symmetry_group_IT_number 62
_symmetry_cell_setting 'orthorhombic'
loop_
_space_group_symop_operation_xyz
x,y,z
1/2-x,-y,1/2+z
1/2+x,1/2-y,1/2-z
-x,1/2+y,-z
-x,-y,-z
1/2+x,y,1/2-z
1/2-x,1/2+y,1/2+z
x,1/2-y,z
loop_
_atom_site_type_symbol
_atom_site_label
_atom_site_fract_x
_atom_site_fract_y
_atom_site_fract_z
Si Si1 0.808248 0.750000 0.661108
Si Si2 0.254535 0.073017 0.340066
Si Si3 0.027020 0.867134 0.437136
Si Si4 0.902278 0.469794 0.664483
Si Si5 0.566313 0.695961 0.426006
O O1 0.624516 0.750000 0.792997
O O2 0.718514 0.706904 0.566077
O O3 0.069868 0.077050 0.207054
O O4 0.146055 0.112333 0.439222
O O5 0.190069 0.020128 0.399443
O O6 0.276752 0.829809 0.453780
O O7 0.159687 0.917146 0.388092
O O8 0.787016 0.839042 0.353868
O O9 0.226124 0.471935 0.699902
O O10 0.531505 0.750000 0.368615
#
# Coordination Sequence:
#
# PCOD9464593 Si02
#       5
#     4   8   8   8   8
#     4  10  20  36  54  78 114 152 188 230 284 338
#     4  10  22  37  57  91 125 150 190 240 289 360
#     4  12  21  39  64  84 117 162 196 239 293 352
#     4  10  22  40  61  88 118 151 197 247 297 348
#     4  10  24  37  55  85 114 157 193 241 287 337
#
# _framework density 26.466179
#
# number of rings (size 3 to 8) (size 9 to 14) (size 15 to 20)
#    0.667    0.889    0.000    5.333    0.000    5.333 
#    0.000    8.889    0.000   13.333    0.000    0.000 
#    0.000    0.000    0.000    0.000    0.000    0.000 
#
# Total GULP energy -201379.946498 kJ/mol
# GULP energy per Si atom -5593.887403 kJ/mol
# Density = 2.640594 g / cm^3
# Si number density = 26.466179 Si / 1000 Ang^3
#
#
#
# Elastic Constant Matrix: (Units=GPa)
#
#
# Indices 1 2 3 4 5 6 
#
# 1 103.3708 42.4929 -9.6135 0.0000 0.0000 0.0000
# 2 42.4929 236.5138 22.6769 0.0000 0.0000 0.0000
# 3 -9.6135 22.6769 51.1920 0.0000 0.0000 0.0000
# 4 0.0000 0.0000 0.0000 14.8197 0.0000 0.0000
# 5 0.0000 0.0000 0.0000 0.0000 29.1948 0.0000
# 6 0.0000 0.0000 0.0000 0.0000 0.0000 54.2328
#
#
#
# Elastic Compliance Matrix: (Units=1/GPa)
#
#
# Indices 1 2 3 4 5 6 
#
# 1 0.010880 -0.002246 0.003038 0.000000 0.000000 0.000000
# 2 -0.002246 0.004879 -0.002583 0.000000 0.000000 0.000000
# 3 0.003038 -0.002583 0.021249 0.000000 0.000000 0.000000
# 4 0.000000 0.000000 0.000000 0.067478 0.000000 0.000000
# 5 0.000000 0.000000 0.000000 0.000000 0.034253 0.000000
# 6 0.000000 0.000000 0.000000 0.000000 0.000000 0.018439
#
#
# Mechanical properties :
#
#
# Convention : Reuss Voigt Hill
#
# Bulk Modulus (GPa) = 29.91696 55.79881 42.85789
# Shear Modulus (GPa) = 29.08642 42.01749 35.55195
#
# Velocity S-wave (km/s) = 3.31872 3.98878 3.66908
# Velocity P-wave (km/s) = 5.10035 6.50713 5.84621
#
# Compressibility (1/GPa) = 0.03342585
#
# Stress axis : x y z
#
# Youngs Moduli (GPa) = 91.91422 204.94832 47.06079
#
# Poissons Ratio (x) = 0.46031 -0.14297
# Poissons Ratio (y) = 0.20644 0.12157
# Poissons Ratio (z) = -0.27924 0.52942
#
# Static dielectric constant tensor:
#      x y z
#    x 1.973470 0.000000 0.000000 
#    y 0.000000 2.109750 0.000000 
#    z 0.000000 0.000000 2.183460 
# 
# From -- ./inp_files/10682.got.cif
#   From: 2010.05.17/outbox.cif.g08.bks.cpg/sg62_6_cif.got.tgz:10682.got - 2010.06.03 15:25:27.
