data_PCOD9464051
_publ_section_title
;
Structure prediction by ZEFSAII (Michael W. Deem and Ramdas Pophale) SiO2 
 PCOD9464051
Probable space group: P N M A
;
_chemical_formula_sum "Si O2"
_cell_formula_units_Z 48
_cell_length_a 17.250800
_cell_length_b 14.518164
_cell_length_c 9.532839
_cell_angle_alpha 90.000000
_cell_angle_beta 90.000000
_cell_angle_gamma 90.000000
_cell_volume 2387.498989
_symmetry_space_group_name_H-M "P N M A"
_symmetry_group_IT_number 62
_symmetry_cell_setting 'orthorhombic'
loop_
_space_group_symop_operation_xyz
x,y,z
1/2-x,-y,1/2+z
1/2+x,1/2-y,1/2-z
-x,1/2+y,-z
-x,-y,-z
1/2+x,y,1/2-z
1/2-x,1/2+y,1/2+z
x,1/2-y,z
loop_
_atom_site_type_symbol
_atom_site_label
_atom_site_fract_x
_atom_site_fract_y
_atom_site_fract_z
Si Si1 0.840218 0.612837 0.888138
Si Si2 0.162423 0.613305 0.095178
Si Si3 0.764349 0.099504 0.629329
Si Si4 0.185206 0.394741 0.428650
Si Si5 0.885691 0.641745 0.290479
Si Si6 0.007340 0.394679 0.952038
O O1 0.838370 0.499768 0.897085
O O2 0.830862 0.639703 0.727282
O O3 0.769725 0.644052 0.988502
O O4 0.921973 0.643585 0.954654
O O5 0.181075 0.645000 0.253895
O O6 0.079032 0.644031 0.040810
O O7 0.233764 0.639769 0.995312
O O8 0.684796 0.084366 0.719647
O O9 0.804146 0.004553 0.585347
O O10 0.119941 0.373106 0.543782
O O11 0.871149 0.750000 0.262760
O O12 0.962473 0.613216 0.207886
O O13 0.000000 0.500000 0.000000
#
# Coordination Sequence:
#
# PCOD9464051 Si02
#       6
#     8   8   8   8   8   8
#     4   8  14  26  46  72  99 130 173 223 266 317
#     4   8  14  26  46  71  97 131 178 225 259 306
#     4   8  15  29  50  73  98 135 182 221 262 330
#     4   9  16  30  51  76 104 138 180 224 275 340
#     4  10  20  34  52  78 111 144 177 227 288 337
#     4   9  17  31  49  74 106 144 186 224 269 332
#
# _framework density 20.104721000000001
#
# number of rings (size 3 to 8) (size 9 to 14) (size 15 to 20)
#    0.000    3.333    0.000    2.000    0.000    0.000 
#    0.000   15.833    0.000    0.000    0.000    5.833 
#    0.000    0.000    0.000    0.000    0.000    0.000 
#
# Total GULP energy -267319.660428 kJ/mol
# GULP energy per Si atom -5569.159592 kJ/mol
# Density = 2.005896 g / cm^3
# Si number density = 20.104721 Si / 1000 Ang^3
#
#
#
# Elastic Constant Matrix: (Units=GPa)
#
#
# Indices 1 2 3 4 5 6 
#
# 1 102.9368 9.7816 65.2248 0.0000 0.0000 0.0000
# 2 9.7816 91.0914 15.2167 0.0000 0.0000 0.0000
# 3 65.2248 15.2167 195.4094 0.0000 0.0000 0.0000
# 4 0.0000 0.0000 0.0000 -15.4313 0.0000 0.0000
# 5 0.0000 0.0000 0.0000 0.0000 26.2291 0.0000
# 6 0.0000 0.0000 0.0000 0.0000 0.0000 -17.1995
#
#
#
# Elastic Compliance Matrix: (Units=1/GPa)
#
#
# Indices 1 2 3 4 5 6 
#
# 1 0.012358 -0.000646 -0.004075 0.000000 0.000000 0.000000
# 2 -0.000646 0.011156 -0.000653 0.000000 0.000000 0.000000
# 3 -0.004075 -0.000653 0.006528 0.000000 0.000000 0.000000
# 4 0.000000 0.000000 0.000000 -0.064803 0.000000 0.000000
# 5 0.000000 0.000000 0.000000 0.000000 0.038126 0.000000
# 6 0.000000 0.000000 0.000000 0.000000 0.000000 -0.058141
#
#
# Mechanical properties :
#
#
# Convention : Reuss Voigt Hill
#
# Bulk Modulus (GPa) = 51.82728 63.32040 57.57384
# Shear Modulus (GPa) = -132.99065 18.66728 -57.16169
#
# Velocity S-wave (km/s) = -8.14203 3.05044 -5.33795
# Velocity P-wave (km/s) = 7.90920 6.63103 3.04835
#
# Compressibility (1/GPa) = 0.01929486
#
# Stress axis : x y z
#
# Youngs Moduli (GPa) = 80.91974 89.63399 153.17827
#
# Poissons Ratio (x) = 0.05794 0.62413
# Poissons Ratio (y) = 0.05230 0.10003
# Poissons Ratio (z) = 0.32971 0.05853
#
# Static dielectric constant tensor:
#      x y z
#    x 1.706300 0.000000 0.000000 
#    y 0.000000 1.756380 0.000000 
#    z 0.000000 0.000000 1.735380 
# 
# From -- ./inp_files/7826.got.cif
#   From: 2010.05.17/outbox.cif.g08.bks.cpg/sg62_4_cif.got.tgz:7826.got - 2010.06.03 15:25:27.
