data_PCOD9464601
_publ_section_title
;
Structure prediction by ZEFSAII (Michael W. Deem and Ramdas Pophale) SiO2 
 PCOD9464601
Probable space group: P N M A
;
_chemical_formula_sum "Si O2"
_cell_formula_units_Z 64
_cell_length_a 9.014356
_cell_length_b 21.010870
_cell_length_c 19.281768
_cell_angle_alpha 90.000000
_cell_angle_beta 90.000000
_cell_angle_gamma 90.000000
_cell_volume 3651.956487
_symmetry_space_group_name_H-M "P N M A"
_symmetry_group_IT_number 62
_symmetry_cell_setting 'orthorhombic'
loop_
_space_group_symop_operation_xyz
x,y,z
1/2-x,-y,1/2+z
1/2+x,1/2-y,1/2-z
-x,1/2+y,-z
-x,-y,-z
1/2+x,y,1/2-z
1/2-x,1/2+y,1/2+z
x,1/2-y,z
loop_
_atom_site_type_symbol
_atom_site_label
_atom_site_fract_x
_atom_site_fract_y
_atom_site_fract_z
Si Si1 0.568295 0.057811 0.957168
Si Si2 0.058631 0.367832 0.173233
Si Si3 0.092928 0.821665 0.952751
Si Si4 0.055991 0.492221 0.818283
Si Si5 0.905383 0.006701 0.668449
Si Si6 0.589118 0.369133 0.090160
Si Si7 0.919930 0.444894 0.953766
Si Si8 0.867975 0.178669 0.302478
O O1 0.481006 0.055858 0.885133
O O2 0.743059 0.044118 0.948887
O O3 0.551380 0.116806 0.009722
O O4 0.500000 0.000000 0.000000
O O5 0.989972 0.436668 0.157971
O O6 0.231231 0.369847 0.192460
O O7 0.034675 0.326418 0.104894
O O8 0.969561 0.338314 0.237202
O O9 0.104686 0.750000 0.980226
O O10 0.246201 0.839841 0.912556
O O11 0.064247 0.876770 0.008738
O O12 0.990317 0.488592 0.741155
O O13 0.985824 0.447127 0.876706
O O14 0.231701 0.482810 0.819371
O O15 0.914237 0.936149 0.633018
O O16 0.470704 0.326685 0.129965
O O17 0.000000 0.500000 0.000000
O O18 0.807576 0.250000 0.294388
#
# Coordination Sequence:
#
# PCOD9464601 Si02
#       8
#     8   8   8   8   8   8   8   8
#     4   9  20  33  54  80 108 142 184 232 283 335
#     4  12  23  37  51  74 112 153 195 234 277 328
#     4  11  22  39  58  82 114 151 195 236 284 343
#     4  12  22  36  57  80 115 147 188 239 284 344
#     4  11  21  36  54  85 110 148 188 236 295 335
#     4  10  20  36  55  77 110 149 186 230 279 337
#     4  11  21  37  58  84 112 153 190 239 293 337
#     4  12  24  35  50  74 107 153 194 230 273 332
#
# _framework density 17.524853
#
# number of rings (size 3 to 8) (size 9 to 14) (size 15 to 20)
#    0.000    1.000    3.750    5.250    3.500    1.000 
#    0.000    0.000    0.000    0.000    0.000    8.750 
#    0.000    0.000    0.000    0.000    0.000    0.000 
#
# Total GULP energy -357343.372902 kJ/mol
# GULP energy per Si atom -5583.490202 kJ/mol
# Density = 1.748497 g / cm^3
# Si number density = 17.524853 Si / 1000 Ang^3
#
#
#
# Elastic Constant Matrix: (Units=GPa)
#
#
# Indices 1 2 3 4 5 6 
#
# 1 102.7736 33.7422 55.7234 0.0000 0.0000 0.0000
# 2 33.7422 63.7284 41.4247 0.0000 0.0000 0.0000
# 3 55.7234 41.4247 112.9917 0.0000 0.0000 0.0000
# 4 0.0000 0.0000 0.0000 20.8133 0.0000 0.0000
# 5 0.0000 0.0000 0.0000 0.0000 34.6899 0.0000
# 6 0.0000 0.0000 0.0000 0.0000 0.0000 14.4189
#
#
#
# Elastic Compliance Matrix: (Units=1/GPa)
#
#
# Indices 1 2 3 4 5 6 
#
# 1 0.013958 -0.003828 -0.005480 0.000000 0.000000 0.000000
# 2 -0.003828 0.021651 -0.006050 0.000000 0.000000 0.000000
# 3 -0.005480 -0.006050 0.013771 0.000000 0.000000 0.000000
# 4 0.000000 0.000000 0.000000 0.048046 0.000000 0.000000
# 5 0.000000 0.000000 0.000000 0.000000 0.028827 0.000000
# 6 0.000000 0.000000 0.000000 0.000000 0.000000 0.069353
#
#
# Mechanical properties :
#
#
# Convention : Reuss Voigt Hill
#
# Bulk Modulus (GPa) = 53.57978 60.14160 56.86069
# Shear Modulus (GPa) = 21.50131 23.89132 22.69632
#
# Velocity S-wave (km/s) = 3.50652 3.69627 3.60264
# Velocity P-wave (km/s) = 6.85815 7.25320 7.05844
#
# Compressibility (1/GPa) = 0.01866376
#
# Stress axis : x y z
#
# Youngs Moduli (GPa) = 71.64152 46.18741 72.61749
#
# Poissons Ratio (x) = 0.17682 0.39796
# Poissons Ratio (y) = 0.27426 0.43931
# Poissons Ratio (z) = 0.39262 0.27942
#
# Static dielectric constant tensor:
#      x y z
#    x 1.595120 0.000000 0.000000 
#    y 0.000000 1.617930 0.000000 
#    z 0.000000 0.000000 1.625110 
# 
# From -- ./inp_files/22575.got.cif
#   From: 2010.05.17/outbox.cif.g08.bks.cpg/sg62_12_cif.got.tgz:22575.got - 2010.06.03 15:25:27.
