data_PCOD9464773
_publ_section_title
;
Structure prediction by ZEFSAII (Michael W. Deem and Ramdas Pophale) SiO2 
 PCOD9464773
Probable space group: P N M A
;
_chemical_formula_sum "Si O2"
_cell_formula_units_Z 64
_cell_length_a 18.745734
_cell_length_b 17.647354
_cell_length_c 9.584449
_cell_angle_alpha 90.000000
_cell_angle_beta 90.000000
_cell_angle_gamma 90.000000
_cell_volume 3170.656531
_symmetry_space_group_name_H-M "P N M A"
_symmetry_group_IT_number 62
_symmetry_cell_setting 'orthorhombic'
loop_
_space_group_symop_operation_xyz
x,y,z
1/2-x,-y,1/2+z
1/2+x,1/2-y,1/2-z
-x,1/2+y,-z
-x,-y,-z
1/2+x,y,1/2-z
1/2-x,1/2+y,1/2+z
x,1/2-y,z
loop_
_atom_site_type_symbol
_atom_site_label
_atom_site_fract_x
_atom_site_fract_y
_atom_site_fract_z
Si Si1 0.098342 0.930231 0.457829
Si Si2 0.956758 0.834952 0.783810
Si Si3 0.434763 0.605532 0.017054
Si Si4 0.875547 0.337787 0.263253
Si Si5 0.727715 0.570663 0.234455
Si Si6 0.204356 0.940031 0.939705
Si Si7 0.867322 0.837704 0.210361
Si Si8 0.928825 0.951557 0.007508
O O1 0.127599 0.889887 0.598436
O O2 0.149960 0.911707 0.328680
O O3 0.017263 0.902696 0.434730
O O4 0.092659 0.020218 0.487628
O O5 0.938594 0.750000 0.831266
O O6 0.936677 0.846854 0.623981
O O7 0.042782 0.844621 0.792383
O O8 0.920512 0.902360 0.868449
O O9 0.386920 0.646894 0.129879
O O10 0.863895 0.250000 0.299082
O O11 0.821305 0.366612 0.145258
O O12 0.731659 0.570936 0.402542
O O13 0.746714 0.489870 0.163460
O O14 0.788668 0.628607 0.182191
O O15 0.134171 0.990864 0.962430
O O16 0.871438 0.750000 0.175257
O O17 0.924488 0.888379 0.127148
O O18 0.000000 0.000000 0.000000
#
# Coordination Sequence:
#
# PCOD9464773 Si02
#       8
#     8   8   8   8   8   8   8   8
#     4  10  21  39  65  97 119 164 216 265 323 391
#     4  10  20  36  59  93 129 159 199 261 327 381
#     4  10  21  37  69  94 126 158 215 268 320 385
#     4  10  21  37  58  87 125 160 202 264 322 374
#     4  11  24  40  63  89 127 168 213 263 318 394
#     4  11  22  39  62  88 124 163 216 259 314 381
#     4  11  25  42  59  89 131 169 205 264 328 382
#     4  11  22  37  64  90 121 161 210 266 318 377
#
# _framework density 20.185092999999998
#
# number of rings (size 3 to 8) (size 9 to 14) (size 15 to 20)
#    0.000    1.500    1.250    4.500    5.250    1.500 
#    0.000    0.000    0.000    5.250    0.000    0.000 
#    0.000    0.000    0.000    0.000    0.000    0.000 
#
# Total GULP energy -357510.336252 kJ/mol
# GULP energy per Si atom -5586.099004 kJ/mol
# Density = 2.013915 g / cm^3
# Si number density = 20.185093 Si / 1000 Ang^3
#
#
#
# Elastic Constant Matrix: (Units=GPa)
#
#
# Indices 1 2 3 4 5 6 
#
# 1 59.5364 20.5138 33.5481 0.0000 0.0000 0.0000
# 2 20.5138 97.4486 21.2319 0.0000 0.0000 0.0000
# 3 33.5481 21.2319 79.7274 0.0000 0.0000 0.0000
# 4 0.0000 0.0000 0.0000 45.5006 0.0000 0.0000
# 5 0.0000 0.0000 0.0000 0.0000 34.1873 0.0000
# 6 0.0000 0.0000 0.0000 0.0000 0.0000 -19.5752
#
#
#
# Elastic Compliance Matrix: (Units=1/GPa)
#
#
# Indices 1 2 3 4 5 6 
#
# 1 0.022748 -0.002870 -0.008808 0.000000 0.000000 0.000000
# 2 -0.002870 0.011256 -0.001790 0.000000 0.000000 0.000000
# 3 -0.008808 -0.001790 0.016726 0.000000 0.000000 0.000000
# 4 0.000000 0.000000 0.000000 0.021978 0.000000 0.000000
# 5 0.000000 0.000000 0.000000 0.000000 0.029251 0.000000
# 6 0.000000 0.000000 0.000000 0.000000 0.000000 -0.051085
#
#
# Mechanical properties :
#
#
# Convention : Reuss Voigt Hill
#
# Bulk Modulus (GPa) = 42.02615 43.03333 42.52974
# Shear Modulus (GPa) = 58.31562 22.78378 40.54970
#
# Velocity S-wave (km/s) = 5.38081 3.36332 4.48693
# Velocity P-wave (km/s) = 7.71167 6.03724 6.92524
#
# Compressibility (1/GPa) = 0.02379471
#
# Stress axis : x y z
#
# Youngs Moduli (GPa) = 43.95910 88.84221 59.78833
#
# Poissons Ratio (x) = 0.25495 0.52661
# Poissons Ratio (y) = 0.12615 0.10702
# Poissons Ratio (z) = 0.38719 0.15903
#
# Static dielectric constant tensor:
#      x y z
#    x 1.729040 0.000000 0.000000 
#    y 0.000000 1.683350 0.000000 
#    z 0.000000 0.000000 1.965250 
# 
# From -- ./inp_files/8853.got.cif
#   From: 2010.05.17/outbox.cif.g08.bks.cpg/sg62_5_cif.got.tgz:8853.got - 2010.06.03 15:25:27.
