data_PCOD9464725
_publ_section_title
;
Structure prediction by ZEFSAII (Michael W. Deem and Ramdas Pophale) SiO2 
 PCOD9464725
Probable space group: P N M A
;
_chemical_formula_sum "Si O2"
_cell_formula_units_Z 56
_cell_length_a 7.966797
_cell_length_b 13.622916
_cell_length_c 22.856520
_cell_angle_alpha 90.000000
_cell_angle_beta 90.000000
_cell_angle_gamma 90.000000
_cell_volume 2480.641117
_symmetry_space_group_name_H-M "P N M A"
_symmetry_group_IT_number 62
_symmetry_cell_setting 'orthorhombic'
loop_
_space_group_symop_operation_xyz
x,y,z
1/2-x,-y,1/2+z
1/2+x,1/2-y,1/2-z
-x,1/2+y,-z
-x,-y,-z
1/2+x,y,1/2-z
1/2-x,1/2+y,1/2+z
x,1/2-y,z
loop_
_atom_site_type_symbol
_atom_site_label
_atom_site_fract_x
_atom_site_fract_y
_atom_site_fract_z
Si Si1 0.426183 0.558199 0.723428
Si Si2 0.857747 0.140713 0.049627
Si Si3 0.707303 0.059006 0.938847
Si Si4 0.069565 0.858614 0.372306
Si Si5 0.288652 0.138963 0.678742
Si Si6 0.217758 0.440115 0.338176
Si Si7 0.725432 0.360136 0.391689
O O1 0.358566 0.446076 0.719385
O O2 0.418840 0.590519 0.790446
O O3 0.612029 0.562333 0.698865
O O4 0.317555 0.619152 0.676265
O O5 0.842277 0.250000 0.024481
O O6 0.741295 0.127774 0.106159
O O7 0.047172 0.128766 0.073516
O O8 0.796858 0.066257 0.000295
O O9 0.666346 0.949482 0.916900
O O10 0.828306 0.105044 0.888187
O O11 0.464152 0.879081 0.068000
O O12 0.144144 0.750000 0.371639
O O13 0.914985 0.862174 0.325333
O O14 0.188713 0.949027 0.360082
O O15 0.343169 0.250000 0.691270
O O16 0.787525 0.250000 0.400135
#
# Coordination Sequence:
#
# PCOD9464725 Si02
#       7
#     8   8   8   8   8   8   8
#     4  10  21  36  56  80 117 153 198 249 295 343
#     4  10  20  36  58  89 120 155 200 245 299 359
#     4   9  17  35  61  86 120 157 189 238 297 357
#     4   9  19  36  58  84 116 152 190 235 293 353
#     4   8  16  33  58  83 109 150 188 229 291 353
#     4  11  23  37  57  82 115 158 197 250 295 347
#     4   9  19  35  59  89 120 156 201 245 293 354
#
# _framework density 22.574809999999999
#
# number of rings (size 3 to 8) (size 9 to 14) (size 15 to 20)
#    0.857    1.714    0.000    2.143    0.000    2.286 
#    0.000    1.429    0.000    0.000    0.000    0.000 
#    0.000    0.000    0.000    0.000    0.000    0.000 
#
# Total GULP energy -312515.058360 kJ/mol
# GULP energy per Si atom -5580.626042 kJ/mol
# Density = 2.252343 g / cm^3
# Si number density = 22.574810 Si / 1000 Ang^3
#
#
#
# Elastic Constant Matrix: (Units=GPa)
#
#
# Indices 1 2 3 4 5 6 
#
# 1 27.8732 0.6507 -5.0562 0.0000 0.0000 0.0000
# 2 0.6507 83.5759 6.0003 0.0000 0.0000 0.0000
# 3 -5.0562 6.0003 67.0235 0.0000 0.0000 0.0000
# 4 0.0000 0.0000 0.0000 11.2030 0.0000 0.0000
# 5 0.0000 0.0000 0.0000 0.0000 10.1637 0.0000
# 6 0.0000 0.0000 0.0000 0.0000 0.0000 19.6523
#
#
#
# Elastic Compliance Matrix: (Units=1/GPa)
#
#
# Indices 1 2 3 4 5 6 
#
# 1 0.036394 -0.000484 0.002789 0.000000 0.000000 0.000000
# 2 -0.000484 0.012049 -0.001115 0.000000 0.000000 0.000000
# 3 0.002789 -0.001115 0.015230 0.000000 0.000000 0.000000
# 4 0.000000 0.000000 0.000000 0.089262 0.000000 0.000000
# 5 0.000000 0.000000 0.000000 0.000000 0.098389 0.000000
# 6 0.000000 0.000000 0.000000 0.000000 0.000000 0.050885
#
#
# Mechanical properties :
#
#
# Convention : Reuss Voigt Hill
#
# Bulk Modulus (GPa) = 15.13924 20.18469 17.66197
# Shear Modulus (GPa) = 15.53535 19.99566 17.76550
#
# Velocity S-wave (km/s) = 2.62615 2.97939 2.80833
# Velocity P-wave (km/s) = 3.98953 4.56030 4.28443
#
# Compressibility (1/GPa) = 0.06605350
#
# Stress axis : x y z
#
# Youngs Moduli (GPa) = 27.47707 82.99445 65.65830
#
# Poissons Ratio (x) = 0.04014 -0.18311
# Poissons Ratio (y) = 0.01329 0.07322
# Poissons Ratio (z) = -0.07663 0.09255
#
# Static dielectric constant tensor:
#      x y z
#    x 1.864370 0.000000 0.000000 
#    y 0.000000 1.812780 0.000000 
#    z 0.000000 0.000000 1.854940 
# 
# From -- ./inp_files/25969.got.cif
#   From: 2010.05.17/outbox.cif.g08.bks.cpg/sg62_13_cif.got.tgz:25969.got - 2010.06.03 15:25:27.
