data_PCOD9464843
_publ_section_title
;
Structure prediction by ZEFSAII (Michael W. Deem and Ramdas Pophale) SiO2 
 PCOD9464843
Probable space group: P N M A
;
_chemical_formula_sum "Si O2"
_cell_formula_units_Z 64
_cell_length_a 25.676965
_cell_length_b 13.272087
_cell_length_c 8.223889
_cell_angle_alpha 90.000000
_cell_angle_beta 90.000000
_cell_angle_gamma 90.000000
_cell_volume 2802.593748
_symmetry_space_group_name_H-M "P N M A"
_symmetry_group_IT_number 62
_symmetry_cell_setting 'orthorhombic'
loop_
_space_group_symop_operation_xyz
x,y,z
1/2-x,-y,1/2+z
1/2+x,1/2-y,1/2-z
-x,1/2+y,-z
-x,-y,-z
1/2+x,y,1/2-z
1/2-x,1/2+y,1/2+z
x,1/2-y,z
loop_
_atom_site_type_symbol
_atom_site_label
_atom_site_fract_x
_atom_site_fract_y
_atom_site_fract_z
Si Si1 0.868009 0.636701 0.234787
Si Si2 0.248185 0.929619 0.574160
Si Si3 0.497097 0.053896 0.728185
Si Si4 0.863454 0.025869 0.455835
Si Si5 0.466662 0.137000 0.065506
Si Si6 0.080575 0.065184 0.048855
Si Si7 0.157918 0.140591 0.287506
Si Si8 0.747577 0.639554 0.296855
O O1 0.887122 0.750000 0.205738
O O2 0.894601 0.564920 0.365346
O O3 0.870134 0.569217 0.072759
O O4 0.810103 0.645822 0.302937
O O5 0.290057 0.866914 0.676994
O O6 0.240744 0.887243 0.393103
O O7 0.188102 0.934328 0.635841
O O8 0.267172 0.046095 0.589259
O O9 0.441689 0.032732 0.638857
O O10 0.492391 0.121318 0.888083
O O11 0.535545 0.090546 0.584095
O O12 0.512349 0.943333 0.801877
O O13 0.843785 0.963186 0.611506
O O14 0.905984 0.111780 0.469824
O O15 0.474131 0.250000 0.123657
O O16 0.103771 0.136821 0.187094
O O17 0.159420 0.250000 0.372579
O O18 0.725479 0.750000 0.335144
#
# Coordination Sequence:
#
# PCOD9464843 Si02
#       8
#     8   8   8   8   8   8   8   8
#     4  10  20  36  64  93 123 162 205 260 323 374
#     4  11  22  40  63  92 131 171 212 270 313 392
#     4  10  24  45  65  97 131 165 216 271 320 392
#     4  11  23  44  63  91 136 173 215 263 320 385
#     4  11  24  45  68  92 130 176 218 260 323 399
#     4  11  21  40  68  93 134 162 202 276 329 377
#     4  12  24  40  67 101 130 166 221 275 325 383
#     4  10  21  38  59  89 128 169 209 260 321 377
#
# _framework density 22.835989000000001
#
# number of rings (size 3 to 8) (size 9 to 14) (size 15 to 20)
#    0.000    1.250    5.000    1.125    0.000    3.500 
#    0.000    1.875    0.000    0.000    0.000    0.000 
#    0.000    0.000    0.000    0.000    0.000    0.000 
#
# Total GULP energy -356331.426811 kJ/mol
# GULP energy per Si atom -5567.678544 kJ/mol
# Density = 2.278401 g / cm^3
# Si number density = 22.835989 Si / 1000 Ang^3
#
#
#
# Elastic Constant Matrix: (Units=GPa)
#
#
# Indices 1 2 3 4 5 6 
#
# 1 63.7155 24.3967 13.5344 0.0000 0.0000 0.0000
# 2 24.3967 110.0650 8.0692 0.0000 0.0000 0.0000
# 3 13.5344 8.0692 54.4652 0.0000 0.0000 0.0000
# 4 0.0000 0.0000 0.0000 21.6384 0.0000 0.0000
# 5 0.0000 0.0000 0.0000 0.0000 32.3721 0.0000
# 6 0.0000 0.0000 0.0000 0.0000 0.0000 21.6442
#
#
#
# Elastic Compliance Matrix: (Units=1/GPa)
#
#
# Indices 1 2 3 4 5 6 
#
# 1 0.017938 -0.003689 -0.003911 0.000000 0.000000 0.000000
# 2 -0.003689 0.009944 -0.000556 0.000000 0.000000 0.000000
# 3 -0.003911 -0.000556 0.019415 0.000000 0.000000 0.000000
# 4 0.000000 0.000000 0.000000 0.046214 0.000000 0.000000
# 5 0.000000 0.000000 0.000000 0.000000 0.030891 0.000000
# 6 0.000000 0.000000 0.000000 0.000000 0.000000 0.046202
#
#
# Mechanical properties :
#
#
# Convention : Reuss Voigt Hill
#
# Bulk Modulus (GPa) = 32.27546 35.58293 33.92919
# Shear Modulus (GPa) = 25.34915 27.28062 26.31489
#
# Velocity S-wave (km/s) = 3.33536 3.46010 3.39830
# Velocity P-wave (km/s) = 5.38490 5.61950 5.50345
#
# Compressibility (1/GPa) = 0.03098330
#
# Stress axis : x y z
#
# Youngs Moduli (GPa) = 55.74692 100.56197 51.50747
#
# Poissons Ratio (x) = 0.37101 0.20145
# Poissons Ratio (y) = 0.20567 0.02866
# Poissons Ratio (z) = 0.21803 0.05596
#
# Static dielectric constant tensor:
#      x y z
#    x 1.957280 0.000000 0.000000 
#    y 0.000000 1.876280 0.000000 
#    z 0.000000 0.000000 1.979150 
# 
# From -- ./inp_files/10466.got.cif
#   From: 2010.05.17/outbox.cif.g08.bks.cpg/sg62_6_cif.got.tgz:10466.got - 2010.06.03 15:25:27.
