data_PCOD9464889
_publ_section_title
;
Structure prediction by ZEFSAII (Michael W. Deem and Ramdas Pophale) SiO2 
 PCOD9464889
Probable space group: P N M A
;
_chemical_formula_sum "Si O2"
_cell_formula_units_Z 48
_cell_length_a 11.155678
_cell_length_b 7.880234
_cell_length_c 23.805974
_cell_angle_alpha 90.000000
_cell_angle_beta 90.000000
_cell_angle_gamma 90.000000
_cell_volume 2092.767774
_symmetry_space_group_name_H-M "P N M A"
_symmetry_group_IT_number 62
_symmetry_cell_setting 'orthorhombic'
loop_
_space_group_symop_operation_xyz
x,y,z
1/2-x,-y,1/2+z
1/2+x,1/2-y,1/2-z
-x,1/2+y,-z
-x,-y,-z
1/2+x,y,1/2-z
1/2-x,1/2+y,1/2+z
x,1/2-y,z
loop_
_atom_site_type_symbol
_atom_site_label
_atom_site_fract_x
_atom_site_fract_y
_atom_site_fract_z
Si Si1 0.332799 0.945612 0.085682
Si Si2 0.411171 0.940424 0.922780
Si Si3 0.185308 0.056844 0.986670
Si Si4 0.804012 0.455308 0.687349
Si Si5 0.177721 0.958280 0.184119
Si Si6 0.937554 0.543208 0.121821
O O1 0.366512 0.750000 0.092009
O O2 0.288810 0.013279 0.145581
O O3 0.450910 0.033597 0.061946
O O4 0.221192 0.960035 0.042983
O O5 0.374773 0.750000 0.937751
O O6 0.310464 0.056320 0.951160
O O7 0.400074 0.971243 0.856101
O O8 0.154835 0.250000 0.001132
O O9 0.089597 0.985139 0.941957
O O10 0.813349 0.250000 0.686387
O O11 0.817266 0.511864 0.751410
O O12 0.675403 0.502877 0.660943
O O13 0.178307 0.750000 0.183750
O O14 0.057785 0.013871 0.152055
O O15 0.939551 0.750000 0.118831
#
# Coordination Sequence:
#
# PCOD9464889 Si02
#       6
#     8   8   8   8   8   8
#     4  11  22  35  55  85 115 146 187 232 275 330
#     4  11  22  37  57  82 113 148 185 232 283 333
#     4  10  20  37  59  81 111 149 186 232 280 331
#     4   9  18  34  59  84 109 143 185 232 276 326
#     4   9  19  33  55  85 113 146 187 229 272 329
#     4   8  16  32  54  81 110 142 183 226 273 326
#
# _framework density 22.936133999999999
#
# number of rings (size 3 to 8) (size 9 to 14) (size 15 to 20)
#    0.000    2.333    0.000    4.000    2.333    0.667 
#    0.000    1.667    0.000   10.000    0.000    0.000 
#    0.000    0.000    0.000    0.000    0.000    0.000 
#
# Total GULP energy -268210.159607 kJ/mol
# GULP energy per Si atom -5587.711658 kJ/mol
# Density = 2.288393 g / cm^3
# Si number density = 22.936134 Si / 1000 Ang^3
#
#
#
# Elastic Constant Matrix: (Units=GPa)
#
#
# Indices 1 2 3 4 5 6 
#
# 1 58.0637 1.4453 5.6604 0.0000 0.0000 0.0000
# 2 1.4453 43.7089 -8.0915 0.0000 0.0000 0.0000
# 3 5.6604 -8.0915 107.3849 0.0000 0.0000 0.0000
# 4 0.0000 0.0000 0.0000 19.0681 0.0000 0.0000
# 5 0.0000 0.0000 0.0000 0.0000 31.4983 0.0000
# 6 0.0000 0.0000 0.0000 0.0000 0.0000 10.9909
#
#
#
# Elastic Compliance Matrix: (Units=1/GPa)
#
#
# Indices 1 2 3 4 5 6 
#
# 1 0.017336 -0.000753 -0.000971 0.000000 0.000000 0.000000
# 2 -0.000753 0.023235 0.001790 0.000000 0.000000 0.000000
# 3 -0.000971 0.001790 0.009498 0.000000 0.000000 0.000000
# 4 0.000000 0.000000 0.000000 0.052444 0.000000 0.000000
# 5 0.000000 0.000000 0.000000 0.000000 0.031748 0.000000
# 6 0.000000 0.000000 0.000000 0.000000 0.000000 0.090984
#
#
# Mechanical properties :
#
#
# Convention : Reuss Voigt Hill
#
# Bulk Modulus (GPa) = 19.91904 23.02066 21.46985
# Shear Modulus (GPa) = 20.67441 26.32103 23.49772
#
# Velocity S-wave (km/s) = 3.00557 3.39127 3.20423
# Velocity P-wave (km/s) = 4.55500 5.03914 4.80317
#
# Compressibility (1/GPa) = 0.05020322
#
# Stress axis : x y z
#
# Youngs Moduli (GPa) = 57.68409 43.03855 105.28132
#
# Poissons Ratio (x) = 0.03240 0.10218
# Poissons Ratio (y) = 0.04343 -0.18850
# Poissons Ratio (z) = 0.05598 -0.07706
#
# Static dielectric constant tensor:
#      x y z
#    x 1.847480 0.000000 0.000000 
#    y 0.000000 1.829190 0.000000 
#    z 0.000000 0.000000 1.867210 
# 
# From -- ./inp_files/29267.got.cif
#   From: 2010.05.17/outbox.cif.g08.bks.cpg/sg62_15_cif.got.tgz:29267.got - 2010.06.03 15:25:27.
