data_PCOD9464185
_publ_section_title
;
Structure prediction by ZEFSAII (Michael W. Deem and Ramdas Pophale) SiO2 
 PCOD9464185
Probable space group: P N M A
;
_chemical_formula_sum "Si O2"
_cell_formula_units_Z 40
_cell_length_a 18.598855
_cell_length_b 8.702818
_cell_length_c 13.856867
_cell_angle_alpha 90.000000
_cell_angle_beta 90.000000
_cell_angle_gamma 90.000000
_cell_volume 2242.906443
_symmetry_space_group_name_H-M "P N M A"
_symmetry_group_IT_number 62
_symmetry_cell_setting 'orthorhombic'
loop_
_space_group_symop_operation_xyz
x,y,z
1/2-x,-y,1/2+z
1/2+x,1/2-y,1/2-z
-x,1/2+y,-z
-x,-y,-z
1/2+x,y,1/2-z
1/2-x,1/2+y,1/2+z
x,1/2-y,z
loop_
_atom_site_type_symbol
_atom_site_label
_atom_site_fract_x
_atom_site_fract_y
_atom_site_fract_z
Si Si1 0.320337 0.935924 0.326734
Si Si2 0.125570 0.065749 0.617067
Si Si3 0.167424 0.935188 0.411999
Si Si4 0.968405 0.066848 0.098478
Si Si5 0.973242 0.435850 0.704678
O O1 0.325864 0.750000 0.333148
O O2 0.330669 0.976381 0.213915
O O3 0.243835 0.985497 0.368834
O O4 0.387372 0.007350 0.383471
O O5 0.128497 0.250000 0.606812
O O6 0.042628 0.022833 0.639424
O O7 0.154912 0.991007 0.520476
O O8 0.167072 0.750000 0.411350
O O9 0.100230 0.985725 0.346090
O O10 0.969337 0.250000 0.095858
O O11 0.013661 0.007075 0.190460
O O12 0.000000 0.000000 0.000000
O O13 0.973404 0.250000 0.714311
#
# Coordination Sequence:
#
# PCOD9464185 Si02
#       5
#     8   8   8   8   8
#     4   9  20  38  54  76 110 143 176 220 268 315
#     4   9  18  33  52  74 108 145 177 218 268 317
#     4  10  20  34  56  82 109 140 177 221 269 317
#     4  11  22  37  58  81 106 141 181 222 265 316
#     4   9  19  36  55  79 110 143 177 217 265 319
#
# _framework density 17.834004
#
# number of rings (size 3 to 8) (size 9 to 14) (size 15 to 20)
#    0.000    2.400    0.000    3.600    0.000    6.400 
#    0.000    2.000    0.000    0.000    0.000    0.000 
#    0.000    0.000    0.000    0.000    0.000    0.000 
#
# Total GULP energy -223264.414104 kJ/mol
# GULP energy per Si atom -5581.610353 kJ/mol
# Density = 1.779341 g / cm^3
# Si number density = 17.834004 Si / 1000 Ang^3
#
#
#
# Elastic Constant Matrix: (Units=GPa)
#
#
# Indices 1 2 3 4 5 6 
#
# 1 169.2808 46.3998 136.9428 0.0000 0.0000 0.0000
# 2 46.3998 31.9332 43.2262 0.0000 0.0000 0.0000
# 3 136.9428 43.2262 163.3296 0.0000 0.0000 0.0000
# 4 0.0000 0.0000 0.0000 37.4340 0.0000 0.0000
# 5 0.0000 0.0000 0.0000 0.0000 23.3546 0.0000
# 6 0.0000 0.0000 0.0000 0.0000 0.0000 22.3879
#
#
#
# Elastic Compliance Matrix: (Units=1/GPa)
#
#
# Indices 1 2 3 4 5 6 
#
# 1 0.020232 -0.010027 -0.014309 0.000000 0.000000 0.000000
# 2 -0.010027 0.053767 -0.005822 0.000000 0.000000 0.000000
# 3 -0.014309 -0.005822 0.019661 0.000000 0.000000 0.000000
# 4 0.000000 0.000000 0.000000 0.026714 0.000000 0.000000
# 5 0.000000 0.000000 0.000000 0.000000 0.042818 0.000000
# 6 0.000000 0.000000 0.000000 0.000000 0.000000 0.044667
#
#
# Mechanical properties :
#
#
# Convention : Reuss Voigt Hill
#
# Bulk Modulus (GPa) = 29.99261 90.85346 60.42304
# Shear Modulus (GPa) = 17.90254 25.83361 21.86808
#
# Velocity S-wave (km/s) = 3.17179 3.81012 3.50551
# Velocity P-wave (km/s) = 5.50162 8.39110 7.09501
#
# Compressibility (1/GPa) = 0.03334154
#
# Stress axis : x y z
#
# Youngs Moduli (GPa) = 49.42772 18.59881 50.86220
#
# Poissons Ratio (x) = 0.18650 0.72780
# Poissons Ratio (y) = 0.49563 0.29613
# Poissons Ratio (z) = 0.70727 0.10829
#
# Static dielectric constant tensor:
#      x y z
#    x 1.603740 0.000000 0.000000 
#    y 0.000000 1.604790 0.000000 
#    z 0.000000 0.000000 1.574920 
# 
# From -- ./inp_files/13834.got.cif
#   From: 2010.05.17/outbox.cif.g08.bks.cpg/sg62_7_cif.got.tgz:13834.got - 2010.06.03 15:25:27.
