data_PCOD9464696
_publ_section_title
;
Structure prediction by ZEFSAII (Michael W. Deem and Ramdas Pophale) SiO2 
 PCOD9464696
Probable space group: P N M A
;
_chemical_formula_sum "Si O2"
_cell_formula_units_Z 40
_cell_length_a 14.331872
_cell_length_b 9.589743
_cell_length_c 14.687517
_cell_angle_alpha 90.000000
_cell_angle_beta 90.000000
_cell_angle_gamma 90.000000
_cell_volume 2018.637196
_symmetry_space_group_name_H-M "P N M A"
_symmetry_group_IT_number 62
_symmetry_cell_setting 'orthorhombic'
loop_
_space_group_symop_operation_xyz
x,y,z
1/2-x,-y,1/2+z
1/2+x,1/2-y,1/2-z
-x,1/2+y,-z
-x,-y,-z
1/2+x,y,1/2-z
1/2-x,1/2+y,1/2+z
x,1/2-y,z
loop_
_atom_site_type_symbol
_atom_site_label
_atom_site_fract_x
_atom_site_fract_y
_atom_site_fract_z
Si Si1 0.697384 0.493437 0.471886
Si Si2 0.652880 0.750000 0.973377
Si Si3 0.772699 0.452629 0.768527
Si Si4 0.440769 0.750000 0.486535
Si Si5 0.313908 0.250000 0.229859
Si Si6 0.394227 0.750000 0.273944
Si Si7 0.412449 0.250000 0.831441
Si Si8 0.360533 0.250000 0.423664
O O1 0.783268 0.387717 0.484532
O O2 0.702473 0.569670 0.374689
O O3 0.609267 0.389260 0.476101
O O4 0.693560 0.609990 0.549058
O O5 0.630314 0.750000 0.865738
O O6 0.583856 0.750000 0.058772
O O7 0.753327 0.616456 0.763561
O O8 0.674484 0.379551 0.744783
O O9 0.851709 0.381629 0.706207
O O10 0.426098 0.750000 0.378394
O O11 0.546611 0.750000 0.516712
O O12 0.380312 0.250000 0.316898
O O13 0.485273 0.750000 0.211467
#
# Coordination Sequence:
#
# PCOD9464696 Si02
#       8
#     8   4   8   4   4   4   4   4
#     4  10  20  36  58  82 114 153 188 234 296 349
#     4   9  20  39  57  74 111 162 194 228 293 352
#     4  10  21  39  60  87 119 154 195 241 292 351
#     4  11  22  36  56  86 122 152 181 236 306 349
#     4  10  21  36  57  83 119 157 194 246 299 342
#     4  11  22  39  63  91 117 154 202 243 283 348
#     4  11  21  39  64  86 114 160 202 239 289 353
#     4  12  20  31  57  92 115 143 195 248 284 344
#
# _framework density 19.815349000000001
#
# number of rings (size 3 to 8) (size 9 to 14) (size 15 to 20)
#    0.000    1.600    0.000    8.400    0.000    1.600 
#    0.000    5.000    0.000   12.000    0.000    0.000 
#    0.000    0.000    0.000    0.000    0.000    0.000 
#
# Total GULP energy -223374.948907 kJ/mol
# GULP energy per Si atom -5584.373723 kJ/mol
# Density = 1.977025 g / cm^3
# Si number density = 19.815349 Si / 1000 Ang^3
#
#
#
# Elastic Constant Matrix: (Units=GPa)
#
#
# Indices 1 2 3 4 5 6 
#
# 1 53.8879 35.4409 52.3450 0.0000 0.0000 0.0000
# 2 35.4409 113.5535 27.2729 0.0000 0.0000 0.0000
# 3 52.3450 27.2729 166.9206 0.0000 0.0000 0.0000
# 4 0.0000 0.0000 0.0000 24.9386 0.0000 0.0000
# 5 0.0000 0.0000 0.0000 0.0000 30.9180 0.0000
# 6 0.0000 0.0000 0.0000 0.0000 0.0000 8.8436
#
#
#
# Elastic Compliance Matrix: (Units=1/GPa)
#
#
# Indices 1 2 3 4 5 6 
#
# 1 0.032419 -0.007990 -0.008861 0.000000 0.000000 0.000000
# 2 -0.007990 0.011135 0.000686 0.000000 0.000000 0.000000
# 3 -0.008861 0.000686 0.008657 0.000000 0.000000 0.000000
# 4 0.000000 0.000000 0.000000 0.040098 0.000000 0.000000
# 5 0.000000 0.000000 0.000000 0.000000 0.032344 0.000000
# 6 0.000000 0.000000 0.000000 0.000000 0.000000 0.113076
#
#
# Mechanical properties :
#
#
# Convention : Reuss Voigt Hill
#
# Bulk Modulus (GPa) = 50.29551 62.71994 56.50773
# Shear Modulus (GPa) = 18.07099 27.56027 22.81563
#
# Velocity S-wave (km/s) = 3.02316 3.73346 3.39693
# Velocity P-wave (km/s) = 6.13377 7.09267 6.63058
#
# Compressibility (1/GPa) = 0.01988249
#
# Stress axis : x y z
#
# Youngs Moduli (GPa) = 30.84598 89.80399 115.50737
#
# Poissons Ratio (x) = 0.71754 1.02350
# Poissons Ratio (y) = 0.24646 -0.07926
# Poissons Ratio (z) = 0.27332 -0.06163
#
# Static dielectric constant tensor:
#      x y z
#    x 1.647780 0.000000 0.000000 
#    y 0.000000 1.710410 0.000000 
#    z 0.000000 0.000000 1.735940 
# 
# From -- ./inp_files/18699.got.cif
#   From: 2010.05.17/outbox.cif.g08.bks.cpg/sg62_10_cif.got.tgz:18699.got - 2010.06.03 15:25:27.
