data_PCOD9464376
_publ_section_title
;
Structure prediction by ZEFSAII (Michael W. Deem and Ramdas Pophale) SiO2 
 PCOD9464376
Probable space group: P N M A
;
_chemical_formula_sum "Si O2"
_cell_formula_units_Z 48
_cell_length_a 16.154114
_cell_length_b 16.373932
_cell_length_c 9.060209
_cell_angle_alpha 90.000000
_cell_angle_beta 90.000000
_cell_angle_gamma 90.000000
_cell_volume 2396.482941
_symmetry_space_group_name_H-M "P N M A"
_symmetry_group_IT_number 62
_symmetry_cell_setting 'orthorhombic'
loop_
_space_group_symop_operation_xyz
x,y,z
1/2-x,-y,1/2+z
1/2+x,1/2-y,1/2-z
-x,1/2+y,-z
-x,-y,-z
1/2+x,y,1/2-z
1/2-x,1/2+y,1/2+z
x,1/2-y,z
loop_
_atom_site_type_symbol
_atom_site_label
_atom_site_fract_x
_atom_site_fract_y
_atom_site_fract_z
Si Si1 0.468685 0.414500 0.328994
Si Si2 0.457084 0.250000 0.171361
Si Si3 0.521662 0.905788 0.327411
Si Si4 0.779492 0.750000 0.357580
Si Si5 0.782431 0.413726 0.813057
Si Si6 0.273960 0.250000 0.313042
Si Si7 0.231307 0.576229 0.847291
Si Si8 0.967835 0.750000 0.357710
O O1 0.493263 0.334732 0.236100
O O2 0.499021 0.403254 0.497873
O O3 0.498677 0.502960 0.273706
O O4 0.368466 0.419539 0.332104
O O5 0.362228 0.250000 0.230449
O O6 0.470328 0.250000 0.996553
O O7 0.620205 0.897193 0.314858
O O8 0.481527 0.831369 0.239178
O O9 0.761778 0.669264 0.263870
O O10 0.720321 0.750000 0.505048
O O11 0.873297 0.750000 0.413137
O O12 0.763869 0.494882 0.725157
O O13 0.750711 0.426925 0.979465
O O14 0.234432 0.338246 0.282018
#
# Coordination Sequence:
#
# PCOD9464376 Si02
#       8
#     8   4   8   4   8   4   8   4
#     4   9  19  38  59  79 113 159 194 227 288 358
#     4  10  21  36  58  86 114 150 191 240 300 348
#     4  10  21  37  58  84 116 154 195 239 286 346
#     4  10  21  38  58  80 113 154 187 228 286 346
#     4  10  20  35  56  79 110 150 189 230 282 339
#     4   8  18  37  56  73 107 154 188 214 276 359
#     4   9  18  34  56  80 106 145 190 231 278 335
#     4  12  24  35  58  93 118 142 194 260 298 325
#
# _framework density 20.029350999999998
#
# number of rings (size 3 to 8) (size 9 to 14) (size 15 to 20)
#    0.000    2.333    0.000    3.000    0.000    7.333 
#    0.000    0.833    0.000    6.000    0.000    0.000 
#    0.000    0.000    0.000    0.000    0.000    0.000 
#
# Total GULP energy -267664.591995 kJ/mol
# GULP energy per Si atom -5576.345667 kJ/mol
# Density = 1.998376 g / cm^3
# Si number density = 20.029351 Si / 1000 Ang^3
#
#
#
# Elastic Constant Matrix: (Units=GPa)
#
#
# Indices 1 2 3 4 5 6 
#
# 1 28.2613 23.5868 12.2991 0.0000 0.0000 0.0000
# 2 23.5868 198.8639 54.9980 0.0000 0.0000 0.0000
# 3 12.2991 54.9980 47.7205 0.0000 0.0000 0.0000
# 4 0.0000 0.0000 0.0000 -1.8993 0.0000 0.0000
# 5 0.0000 0.0000 0.0000 0.0000 -4.3726 0.0000
# 6 0.0000 0.0000 0.0000 0.0000 0.0000 27.0591
#
#
#
# Elastic Compliance Matrix: (Units=1/GPa)
#
#
# Indices 1 2 3 4 5 6 
#
# 1 0.040921 -0.002843 -0.007270 0.000000 0.000000 0.000000
# 2 -0.002843 0.007579 -0.008002 0.000000 0.000000 0.000000
# 3 -0.007270 -0.008002 0.032051 0.000000 0.000000 0.000000
# 4 0.000000 0.000000 0.000000 -0.526499 0.000000 0.000000
# 5 0.000000 0.000000 0.000000 0.000000 -0.228699 0.000000
# 6 0.000000 0.000000 0.000000 0.000000 0.000000 0.036956
#
#
# Mechanical properties :
#
#
# Convention : Reuss Voigt Hill
#
# Bulk Modulus (GPa) = 22.56268 50.73483 36.64876
# Shear Modulus (GPa) = -8.52241 16.42155 3.94957
#
# Velocity S-wave (km/s) = -2.06499 2.86645 1.40576
# Velocity P-wave (km/s) = 2.36721 6.02832 4.57954
#
# Compressibility (1/GPa) = 0.04432097
#
# Stress axis : x y z
#
# Youngs Moduli (GPa) = 24.43749 131.94802 31.20002
#
# Poissons Ratio (x) = 0.37511 0.22683
# Poissons Ratio (y) = 0.06947 0.24966
# Poissons Ratio (z) = 0.17767 1.05582
#
# Static dielectric constant tensor:
#      x y z
#    x 1.714890 0.000000 0.000000 
#    y 0.000000 1.757580 0.000000 
#    z 0.000000 0.000000 1.694830 
# 
# From -- ./inp_files/7748.got.cif
#   From: 2010.05.17/outbox.cif.g08.bks.cpg/sg62_4_cif.got.tgz:7748.got - 2010.06.03 15:25:27.
