data_PCOD9464658
_publ_section_title
;
Structure prediction by ZEFSAII (Michael W. Deem and Ramdas Pophale) SiO2 
 PCOD9464658
Probable space group: P N M A
;
_chemical_formula_sum "Si O2"
_cell_formula_units_Z 48
_cell_length_a 9.193830
_cell_length_b 8.194140
_cell_length_c 27.072257
_cell_angle_alpha 90.000000
_cell_angle_beta 90.000000
_cell_angle_gamma 90.000000
_cell_volume 2039.502834
_symmetry_space_group_name_H-M "P N M A"
_symmetry_group_IT_number 62
_symmetry_cell_setting 'orthorhombic'
loop_
_space_group_symop_operation_xyz
x,y,z
1/2-x,-y,1/2+z
1/2+x,1/2-y,1/2-z
-x,1/2+y,-z
-x,-y,-z
1/2+x,y,1/2-z
1/2-x,1/2+y,1/2+z
x,1/2-y,z
loop_
_atom_site_type_symbol
_atom_site_label
_atom_site_fract_x
_atom_site_fract_y
_atom_site_fract_z
Si Si1 0.063226 0.552705 0.241506
Si Si2 0.047398 0.558299 0.571673
Si Si3 0.731709 0.939876 0.023011
Si Si4 0.460669 0.065735 0.408105
Si Si5 0.230463 0.939025 0.145078
Si Si6 0.720591 0.053575 0.682422
O O1 0.077624 0.750000 0.241840
O O2 0.162731 0.493458 0.195801
O O3 0.127440 0.499182 0.293825
O O4 0.898911 0.521495 0.225524
O O5 0.017285 0.750000 0.564552
O O6 0.158126 0.503866 0.527958
O O7 0.131800 0.527619 0.622076
O O8 0.898234 0.463180 0.562834
O O9 0.767234 0.750000 0.018393
O O10 0.874117 0.030428 0.041941
O O11 0.515937 0.250000 0.407340
O O12 0.595744 0.952964 0.393410
O O13 0.341348 0.037152 0.365008
O O14 0.269064 0.750000 0.152449
O O15 0.720305 0.250000 0.672301
#
# Coordination Sequence:
#
# PCOD9464658 Si02
#       6
#     8   8   8   8   8   8
#     4   8  16  30  51  76 101 134 176 217 255 311
#     4  10  21  37  57  83 111 138 174 222 271 316
#     4  10  21  38  58  79 107 144 181 217 263 322
#     4  11  22  36  54  79 110 142 180 227 273 313
#     4  10  20  36  57  81 109 144 183 219 264 321
#     4   9  17  33  53  74 102 136 176 218 262 315
#
# _framework density 23.535148
#
# number of rings (size 3 to 8) (size 9 to 14) (size 15 to 20)
#    0.000    2.333    0.000    4.000    0.000    4.000 
#    0.000    7.500    0.000    0.000    0.000    0.000 
#    0.000    0.000    0.000    0.000    0.000    0.000 
#
# Total GULP energy -268313.226207 kJ/mol
# GULP energy per Si atom -5589.858879 kJ/mol
# Density = 2.348158 g / cm^3
# Si number density = 23.535148 Si / 1000 Ang^3
#
#
#
# Elastic Constant Matrix: (Units=GPa)
#
#
# Indices 1 2 3 4 5 6 
#
# 1 37.8877 -4.7030 53.9372 0.0000 0.0000 0.0000
# 2 -4.7030 30.2137 1.6361 0.0000 0.0000 0.0000
# 3 53.9372 1.6361 22.6782 0.0000 0.0000 0.0000
# 4 0.0000 0.0000 0.0000 14.6345 0.0000 0.0000
# 5 0.0000 0.0000 0.0000 0.0000 57.5671 0.0000
# 6 0.0000 0.0000 0.0000 0.0000 0.0000 16.5425
#
#
#
# Elastic Compliance Matrix: (Units=1/GPa)
#
#
# Indices 1 2 3 4 5 6 
#
# 1 -0.010770 -0.003076 0.025837 0.000000 0.000000 0.000000
# 2 -0.003076 0.032349 0.004981 0.000000 0.000000 0.000000
# 3 0.025837 0.004981 -0.017715 0.000000 0.000000 0.000000
# 4 0.000000 0.000000 0.000000 0.068332 0.000000 0.000000
# 5 0.000000 0.000000 0.000000 0.000000 0.017371 0.000000
# 6 0.000000 0.000000 0.000000 0.000000 0.000000 0.060450
#
#
# Mechanical properties :
#
#
# Convention : Reuss Voigt Hill
#
# Bulk Modulus (GPa) = 16.84931 21.39114 19.12022
# Shear Modulus (GPa) = 43.73892 20.40945 32.07419
#
# Velocity S-wave (km/s) = 4.31565 2.94800 3.69565
# Velocity P-wave (km/s) = 5.65755 4.54933 5.13343
#
# Compressibility (1/GPa) = 0.05934963
#
# Stress axis : x y z
#
# Youngs Moduli (GPa) = -92.84958 30.91280 -56.44985
#
# Poissons Ratio (x) = 0.09507 1.45851
# Poissons Ratio (y) = -0.28556 0.28118
# Poissons Ratio (z) = 2.39898 -0.15398
#
# Static dielectric constant tensor:
#      x y z
#    x 1.887560 0.000000 0.000000 
#    y 0.000000 1.822540 0.000000 
#    z 0.000000 0.000000 1.928800 
# 
# From -- ./inp_files/32050.got.cif
#   From: 2010.05.17/outbox.cif.g08.bks.cpg/sg62_17_cif.got.tgz:32050.got - 2010.06.03 15:25:27.
