data_PCOD9464085
_publ_section_title
;
Structure prediction by ZEFSAII (Michael W. Deem and Ramdas Pophale) SiO2 
 PCOD9464085
Probable space group: P N M A
;
_chemical_formula_sum "Si O2"
_cell_formula_units_Z 56
_cell_length_a 22.257161
_cell_length_b 8.867306
_cell_length_c 14.955372
_cell_angle_alpha 90.000000
_cell_angle_beta 90.000000
_cell_angle_gamma 90.000000
_cell_volume 2951.608030
_symmetry_space_group_name_H-M "P N M A"
_symmetry_group_IT_number 62
_symmetry_cell_setting 'orthorhombic'
loop_
_space_group_symop_operation_xyz
x,y,z
1/2-x,-y,1/2+z
1/2+x,1/2-y,1/2-z
-x,1/2+y,-z
-x,-y,-z
1/2+x,y,1/2-z
1/2-x,1/2+y,1/2+z
x,1/2-y,z
loop_
_atom_site_type_symbol
_atom_site_label
_atom_site_fract_x
_atom_site_fract_y
_atom_site_fract_z
Si Si1 0.641276 0.070714 0.895265
Si Si2 0.719723 0.429705 0.595128
Si Si3 0.499598 0.431785 0.401480
Si Si4 0.284273 0.429114 0.594368
Si Si5 0.382755 0.429934 0.286998
Si Si6 0.648134 0.068624 0.093872
Si Si7 0.615246 0.431369 0.286654
O O1 0.631644 0.250000 0.884260
O O2 0.713425 0.043478 0.890010
O O3 0.610589 0.982520 0.814998
O O4 0.623386 0.025372 0.996260
O O5 0.720060 0.250000 0.596659
O O6 0.698257 0.489833 0.498294
O O7 0.675804 0.492991 0.670588
O O8 0.786888 0.493078 0.606106
O O9 0.500000 0.500000 0.500000
O O10 0.500501 0.250000 0.408256
O O11 0.439942 0.474352 0.346838
O O12 0.558128 0.478782 0.345070
O O13 0.292541 0.250000 0.584595
O O14 0.325520 0.492444 0.672845
O O15 0.376042 0.250000 0.290877
O O16 0.657440 0.250000 0.090362
O O17 0.609587 0.032991 0.181507
O O18 0.621451 0.250000 0.294200
#
# Coordination Sequence:
#
# PCOD9464085 Si02
#       7
#     8   8   8   8   8   8   8
#     4   9  19  35  54  79 109 140 175 216 263 317
#     4  11  21  33  53  81 111 142 178 219 265 320
#     4  10  23  40  57  79 106 138 177 220 264 313
#     4  10  20  34  53  81 114 143 175 218 268 320
#     4  11  22  36  54  77 108 144 180 220 266 314
#     4   9  19  36  57  80 108 140 175 219 268 317
#     4  10  20  36  57  79 105 141 182 222 268 317
#
# _framework density 18.972709999999999
#
# number of rings (size 3 to 8) (size 9 to 14) (size 15 to 20)
#    0.000    2.000    0.000    4.714    0.000    9.714 
#    0.000    0.714    0.000    0.000    0.000    0.000 
#    0.000    0.000    0.000    0.000    0.000    0.000 
#
# Total GULP energy -312796.479494 kJ/mol
# GULP energy per Si atom -5585.651420 kJ/mol
# Density = 1.892953 g / cm^3
# Si number density = 18.972710 Si / 1000 Ang^3
#
#
#
# Elastic Constant Matrix: (Units=GPa)
#
#
# Indices 1 2 3 4 5 6 
#
# 1 36.6808 22.6503 51.6652 0.0000 0.0000 0.0000
# 2 22.6503 34.9163 48.8227 0.0000 0.0000 0.0000
# 3 51.6652 48.8227 183.0664 0.0000 0.0000 0.0000
# 4 0.0000 0.0000 0.0000 31.8710 0.0000 0.0000
# 5 0.0000 0.0000 0.0000 0.0000 29.6969 0.0000
# 6 0.0000 0.0000 0.0000 0.0000 0.0000 13.4469
#
#
#
# Elastic Compliance Matrix: (Units=1/GPa)
#
#
# Indices 1 2 3 4 5 6 
#
# 1 0.054039 -0.021895 -0.009412 0.000000 0.000000 0.000000
# 2 -0.021895 0.054543 -0.008367 0.000000 0.000000 0.000000
# 3 -0.009412 -0.008367 0.010350 0.000000 0.000000 0.000000
# 4 0.000000 0.000000 0.000000 0.031376 0.000000 0.000000
# 5 0.000000 0.000000 0.000000 0.000000 0.033674 0.000000
# 6 0.000000 0.000000 0.000000 0.000000 0.000000 0.074366
#
#
# Mechanical properties :
#
#
# Convention : Reuss Voigt Hill
#
# Bulk Modulus (GPa) = 25.26260 55.65997 40.46129
# Shear Modulus (GPa) = 14.24951 23.77133 19.01042
#
# Velocity S-wave (km/s) = 2.74351 3.54350 3.16885
# Velocity P-wave (km/s) = 4.83528 6.79282 5.89586
#
# Compressibility (1/GPa) = 0.03958420
#
# Stress axis : x y z
#
# Youngs Moduli (GPa) = 18.50530 18.33432 96.61793
#
# Poissons Ratio (x) = 0.40143 0.90933
# Poissons Ratio (y) = 0.40517 0.80840
# Poissons Ratio (z) = 0.17416 0.15340
#
# Static dielectric constant tensor:
#      x y z
#    x 1.633710 0.000000 0.000000 
#    y 0.000000 1.632750 0.000000 
#    z 0.000000 0.000000 1.680810 
# 
# From -- ./inp_files/20187.got.cif
#   From: 2010.05.17/outbox.cif.g08.bks.cpg/sg62_11_cif.got.tgz:20187.got - 2010.06.03 15:25:27.
