data_PCOD9464911
_publ_section_title
;
Structure prediction by ZEFSAII (Michael W. Deem and Ramdas Pophale) SiO2 
 PCOD9464911
Probable space group: P N M A
;
_chemical_formula_sum "Si O2"
_cell_formula_units_Z 56
_cell_length_a 14.996119
_cell_length_b 27.926383
_cell_length_c 6.652038
_cell_angle_alpha 90.000000
_cell_angle_beta 90.000000
_cell_angle_gamma 90.000000
_cell_volume 2785.789451
_symmetry_space_group_name_H-M "P N M A"
_symmetry_group_IT_number 62
_symmetry_cell_setting 'orthorhombic'
loop_
_space_group_symop_operation_xyz
x,y,z
1/2-x,-y,1/2+z
1/2+x,1/2-y,1/2-z
-x,1/2+y,-z
-x,-y,-z
1/2+x,y,1/2-z
1/2-x,1/2+y,1/2+z
x,1/2-y,z
loop_
_atom_site_type_symbol
_atom_site_label
_atom_site_fract_x
_atom_site_fract_y
_atom_site_fract_z
Si Si1 0.999326 0.696281 0.505876
Si Si2 0.907423 0.953858 0.064855
Si Si3 0.054747 0.601596 0.331550
Si Si4 0.196223 0.304369 0.558524
Si Si5 0.750375 0.618928 0.126566
Si Si6 0.679098 0.695264 0.805736
Si Si7 0.025087 0.534034 0.685265
O O1 0.008843 0.750000 0.423179
O O2 0.025602 0.656696 0.343502
O O3 0.072295 0.691792 0.680752
O O4 0.896393 0.690192 0.563514
O O5 0.817425 0.923541 0.071446
O O6 0.986555 0.926134 0.186920
O O7 0.902850 0.005267 0.179070
O O8 0.943369 0.959355 0.838662
O O9 0.158772 0.598662 0.277284
O O10 0.049326 0.581619 0.562280
O O11 0.197196 0.250000 0.641126
O O12 0.200169 0.345494 0.721602
O O13 0.279894 0.309678 0.412972
O O14 0.719727 0.653844 0.945511
O O15 0.701999 0.750000 0.874502
O O16 0.000000 0.500000 0.500000
#
# Coordination Sequence:
#
# PCOD9464911 Si02
#       7
#     8   8   8   8   8   8   8
#     4   9  18  35  58  83 121 163 201 249 302 360
#     4  10  21  41  63  87 117 159 202 242 308 371
#     4  10  21  39  60  88 123 156 199 253 306 356
#     4  10  20  37  59  86 125 164 202 252 305 360
#     4  11  22  36  62  94 115 157 203 253 303 365
#     4   9  20  36  54  85 123 159 203 252 302 359
#     4   9  21  42  62  83 120 157 193 251 299 354
#
# _framework density 20.102021000000001
#
# number of rings (size 3 to 8) (size 9 to 14) (size 15 to 20)
#    0.000    2.286    1.429    0.429    2.000    2.857 
#    7.714    0.000    0.000    0.857    0.000    0.000 
#    0.000    0.000    0.000    0.000    0.000    0.000 
#
# Total GULP energy -312044.403167 kJ/mol
# GULP energy per Si atom -5572.221485 kJ/mol
# Density = 2.005627 g / cm^3
# Si number density = 20.102021 Si / 1000 Ang^3
#
#
#
# Elastic Constant Matrix: (Units=GPa)
#
#
# Indices 1 2 3 4 5 6 
#
# 1 65.6669 13.6661 17.3359 0.0000 0.0000 0.0000
# 2 13.6661 60.5950 15.3999 0.0000 0.0000 0.0000
# 3 17.3359 15.3999 55.1751 0.0000 0.0000 0.0000
# 4 0.0000 0.0000 0.0000 17.8709 0.0000 0.0000
# 5 0.0000 0.0000 0.0000 0.0000 17.5353 0.0000
# 6 0.0000 0.0000 0.0000 0.0000 0.0000 9.4685
#
#
#
# Elastic Compliance Matrix: (Units=1/GPa)
#
#
# Indices 1 2 3 4 5 6 
#
# 1 0.016996 -0.002665 -0.004596 0.000000 0.000000 0.000000
# 2 -0.002665 0.018181 -0.004237 0.000000 0.000000 0.000000
# 3 -0.004596 -0.004237 0.020751 0.000000 0.000000 0.000000
# 4 0.000000 0.000000 0.000000 0.055957 0.000000 0.000000
# 5 0.000000 0.000000 0.000000 0.000000 0.057028 0.000000
# 6 0.000000 0.000000 0.000000 0.000000 0.000000 0.105613
#
#
# Mechanical properties :
#
#
# Convention : Reuss Voigt Hill
#
# Bulk Modulus (GPa) = 30.36646 30.47123 30.41884
# Shear Modulus (GPa) = 16.20742 17.97727 17.09235
#
# Velocity S-wave (km/s) = 2.84255 2.99373 2.91912
# Velocity P-wave (km/s) = 5.09042 5.20971 5.15041
#
# Compressibility (1/GPa) = 0.03293107
#
# Stress axis : x y z
#
# Youngs Moduli (GPa) = 58.83583 55.00277 48.19065
#
# Poissons Ratio (x) = 0.14659 0.22150
# Poissons Ratio (y) = 0.15680 0.20419
# Poissons Ratio (z) = 0.27043 0.23305
#
# Static dielectric constant tensor:
#      x y z
#    x 1.723380 0.000000 0.000000 
#    y 0.000000 1.773890 0.000000 
#    z 0.000000 0.000000 1.696360 
# 
# From -- ./inp_files/1285.got.cif
#   From: 2010.05.17/outbox.cif.g08.bks.cpg/sg62_1_cif.got.tgz:1285.got - 2010.06.03 15:25:27.
