data_PCOD9464556
_publ_section_title
;
Structure prediction by ZEFSAII (Michael W. Deem and Ramdas Pophale) SiO2 
 PCOD9464556
Probable space group: P N M A
;
_chemical_formula_sum "Si O2"
_cell_formula_units_Z 48
_cell_length_a 14.517377
_cell_length_b 13.414368
_cell_length_c 10.157133
_cell_angle_alpha 90.000000
_cell_angle_beta 90.000000
_cell_angle_gamma 90.000000
_cell_volume 1978.014681
_symmetry_space_group_name_H-M "P N M A"
_symmetry_group_IT_number 62
_symmetry_cell_setting 'orthorhombic'
loop_
_space_group_symop_operation_xyz
x,y,z
1/2-x,-y,1/2+z
1/2+x,1/2-y,1/2-z
-x,1/2+y,-z
-x,-y,-z
1/2+x,y,1/2-z
1/2-x,1/2+y,1/2+z
x,1/2-y,z
loop_
_atom_site_type_symbol
_atom_site_label
_atom_site_fract_x
_atom_site_fract_y
_atom_site_fract_z
Si Si1 0.335775 0.574319 0.622395
Si Si2 0.894678 0.860750 0.364604
Si Si3 0.982846 0.358905 0.259912
Si Si4 0.814546 0.138394 0.766095
Si Si5 0.137432 0.575193 0.529928
Si Si6 0.060603 0.453627 0.882658
O O1 0.410145 0.619738 0.723986
O O2 0.344397 0.454918 0.644090
O O3 0.227767 0.598726 0.619902
O O4 0.366800 0.601550 0.474677
O O5 0.908547 0.750000 0.419302
O O6 0.795389 0.859686 0.291129
O O7 0.884744 0.956848 0.459095
O O8 0.964598 0.885783 0.243278
O O9 0.961432 0.250000 0.208445
O O10 0.950681 0.368900 0.410108
O O11 0.919614 0.443048 0.192068
O O12 0.848125 0.250000 0.798570
O O13 0.840307 0.108814 0.617265
O O14 0.000000 0.500000 0.000000
#
# Coordination Sequence:
#
# PCOD9464556 Si02
#       6
#     8   8   8   8   8   8
#     4  10  21  38  60  84 121 156 197 250 299 346
#     4   9  18  34  57  82 110 152 197 236 292 355
#     4  10  22  37  57  88 119 154 197 241 298 358
#     4  10  20  35  60  85 112 159 202 238 296 358
#     4  10  20  38  60  83 120 152 200 252 290 348
#     4   9  18  34  55  84 113 144 187 246 292 338
#
# _framework density 24.266756000000001
#
# number of rings (size 3 to 8) (size 9 to 14) (size 15 to 20)
#    0.000    2.333    1.667    0.500    0.000    5.333 
#    0.000    7.500    0.000    0.000    0.000    0.000 
#    0.000    0.000    0.000    0.000    0.000    0.000 
#
# Total GULP energy -267422.046765 kJ/mol
# GULP energy per Si atom -5571.292641 kJ/mol
# Density = 2.421152 g / cm^3
# Si number density = 24.266756 Si / 1000 Ang^3
#
#
#
# Elastic Constant Matrix: (Units=GPa)
#
#
# Indices 1 2 3 4 5 6 
#
# 1 110.5048 -1.5868 27.3288 0.0000 0.0000 0.0000
# 2 -1.5868 106.2396 -0.6924 0.0000 0.0000 0.0000
# 3 27.3288 -0.6924 44.9250 0.0000 0.0000 0.0000
# 4 0.0000 0.0000 0.0000 13.0852 0.0000 0.0000
# 5 0.0000 0.0000 0.0000 0.0000 45.4789 0.0000
# 6 0.0000 0.0000 0.0000 0.0000 0.0000 29.3141
#
#
#
# Elastic Compliance Matrix: (Units=1/GPa)
#
#
# Indices 1 2 3 4 5 6 
#
# 1 0.010653 0.000117 -0.006479 0.000000 0.000000 0.000000
# 2 0.000117 0.009415 0.000074 0.000000 0.000000 0.000000
# 3 -0.006479 0.000074 0.026202 0.000000 0.000000 0.000000
# 4 0.000000 0.000000 0.000000 0.076422 0.000000 0.000000
# 5 0.000000 0.000000 0.000000 0.000000 0.021988 0.000000
# 6 0.000000 0.000000 0.000000 0.000000 0.000000 0.034113
#
#
# Mechanical properties :
#
#
# Convention : Reuss Voigt Hill
#
# Bulk Modulus (GPa) = 29.67886 34.64097 32.15992
# Shear Modulus (GPa) = 24.67909 33.35031 29.01470
#
# Velocity S-wave (km/s) = 3.19249 3.71121 3.46158
# Velocity P-wave (km/s) = 5.08391 5.71578 5.40908
#
# Compressibility (1/GPa) = 0.03369401
#
# Stress axis : x y z
#
# Youngs Moduli (GPa) = 93.86738 106.21450 38.16552
#
# Poissons Ratio (x) = -0.01242 0.24727
# Poissons Ratio (y) = -0.01097 -0.00282
# Poissons Ratio (z) = 0.60815 -0.00786
#
# Static dielectric constant tensor:
#      x y z
#    x 2.216980 0.000000 0.000000 
#    y 0.000000 1.953950 0.000000 
#    z 0.000000 0.000000 2.084980 
# 
# From -- ./inp_files/14095.got.cif
#   From: 2010.05.17/outbox.cif.g08.bks.cpg/sg62_8_cif.got.tgz:14095.got - 2010.06.03 15:25:27.
