data_PCOD9464213
_publ_section_title
;
Structure prediction by ZEFSAII (Michael W. Deem and Ramdas Pophale) SiO2 
 PCOD9464213
Probable space group: P N M A
;
_chemical_formula_sum "Si O2"
_cell_formula_units_Z 56
_cell_length_a 14.130267
_cell_length_b 9.078580
_cell_length_c 21.464622
_cell_angle_alpha 90.000000
_cell_angle_beta 90.000000
_cell_angle_gamma 90.000000
_cell_volume 2753.540939
_symmetry_space_group_name_H-M "P N M A"
_symmetry_group_IT_number 62
_symmetry_cell_setting 'orthorhombic'
loop_
_space_group_symop_operation_xyz
x,y,z
1/2-x,-y,1/2+z
1/2+x,1/2-y,1/2-z
-x,1/2+y,-z
-x,-y,-z
1/2+x,y,1/2-z
1/2-x,1/2+y,1/2+z
x,1/2-y,z
loop_
_atom_site_type_symbol
_atom_site_label
_atom_site_fract_x
_atom_site_fract_y
_atom_site_fract_z
Si Si1 0.152341 0.080394 0.988675
Si Si2 0.729274 0.920103 0.236135
Si Si3 0.786225 0.574229 0.608368
Si Si4 0.988680 0.422140 0.768873
Si Si5 0.632552 0.925531 0.822630
Si Si6 0.501464 0.426781 0.067357
Si Si7 0.957810 0.079333 0.909404
O O1 0.182070 0.250000 0.994831
O O2 0.055313 0.074985 0.948373
O O3 0.230048 0.989667 0.950714
O O4 0.121769 0.012159 0.054563
O O5 0.758456 0.750000 0.232051
O O6 0.616763 0.926222 0.242400
O O7 0.753546 0.002720 0.171854
O O8 0.774543 0.994199 0.297121
O O9 0.776071 0.750000 0.611384
O O10 0.897717 0.538673 0.599900
O O11 0.020198 0.250000 0.767161
O O12 0.981750 0.471882 0.840250
O O13 0.055593 0.525152 0.728730
O O14 0.645388 0.750000 0.823241
O O15 0.586248 0.971959 0.888451
O O16 0.497205 0.250000 0.060826
O O17 0.500000 0.500000 0.000000
O O18 0.927192 0.250000 0.905355
#
# Coordination Sequence:
#
# PCOD9464213 Si02
#       7
#     8   8   8   8   8   8   8
#     4  10  20  34  56  86 118 155 200 246 296 361
#     4  11  23  38  61  92 121 157 205 254 312 372
#     4  11  22  40  62  87 121 161 205 253 309 371
#     4  10  21  38  61  87 118 156 199 251 303 363
#     4  11  23  41  63  90 125 162 207 260 314 372
#     4  10  24  43  64  90 122 163 209 256 310 370
#     4   9  19  36  55  81 119 155 194 245 301 359
#
# _framework density 20.337448999999999
#
# number of rings (size 3 to 8) (size 9 to 14) (size 15 to 20)
#    0.000    1.714    1.429    2.571    0.000    6.286 
#    0.000    4.286    0.000    0.000    0.000    0.000 
#    0.000    0.000    0.000    0.000    0.000    0.000 
#
# Total GULP energy -312949.079734 kJ/mol
# GULP energy per Si atom -5588.376424 kJ/mol
# Density = 2.029116 g / cm^3
# Si number density = 20.337449 Si / 1000 Ang^3
#
#
#
# Elastic Constant Matrix: (Units=GPa)
#
#
# Indices 1 2 3 4 5 6 
#
# 1 24.0236 6.2908 -18.5985 0.0000 0.0000 0.0000
# 2 6.2908 62.8580 22.0422 0.0000 0.0000 0.0000
# 3 -18.5985 22.0422 98.9951 0.0000 0.0000 0.0000
# 4 0.0000 0.0000 0.0000 33.7397 0.0000 0.0000
# 5 0.0000 0.0000 0.0000 0.0000 28.5036 0.0000
# 6 0.0000 0.0000 0.0000 0.0000 0.0000 26.7525
#
#
#
# Elastic Compliance Matrix: (Units=1/GPa)
#
#
# Indices 1 2 3 4 5 6 
#
# 1 0.053615 -0.009651 0.012222 0.000000 0.000000 0.000000
# 2 -0.009651 0.018994 -0.006042 0.000000 0.000000 0.000000
# 3 0.012222 -0.006042 0.013743 0.000000 0.000000 0.000000
# 4 0.000000 0.000000 0.000000 0.029639 0.000000 0.000000
# 5 0.000000 0.000000 0.000000 0.000000 0.035083 0.000000
# 6 0.000000 0.000000 0.000000 0.000000 0.000000 0.037380
#
#
# Mechanical properties :
#
#
# Convention : Reuss Voigt Hill
#
# Bulk Modulus (GPa) = 12.59331 22.81620 17.70476
# Shear Modulus (GPa) = 22.53609 29.54197 26.03903
#
# Velocity S-wave (km/s) = 3.33244 3.81542 3.58208
# Velocity P-wave (km/s) = 4.58394 5.53652 5.08260
#
# Compressibility (1/GPa) = 0.07940722
#
# Stress axis : x y z
#
# Youngs Moduli (GPa) = 18.65158 52.64924 72.76418
#
# Poissons Ratio (x) = 0.50814 -0.88930
# Poissons Ratio (y) = 0.18002 0.43967
# Poissons Ratio (z) = -0.22795 0.31813
#
# Static dielectric constant tensor:
#      x y z
#    x 1.737220 0.000000 0.000000 
#    y 0.000000 1.682090 0.000000 
#    z 0.000000 0.000000 1.713210 
# 
# From -- ./inp_files/27091.got.cif
#   From: 2010.05.17/outbox.cif.g08.bks.cpg/sg62_14_cif.got.tgz:27091.got - 2010.06.03 15:25:27.
