data_PCOD9464390
_publ_section_title
;
Structure prediction by ZEFSAII (Michael W. Deem and Ramdas Pophale) SiO2 
 PCOD9464390
Probable space group: P N M A
;
_chemical_formula_sum "Si O2"
_cell_formula_units_Z 56
_cell_length_a 21.074703
_cell_length_b 14.402882
_cell_length_c 10.121332
_cell_angle_alpha 90.000000
_cell_angle_beta 90.000000
_cell_angle_gamma 90.000000
_cell_volume 3072.193291
_symmetry_space_group_name_H-M "P N M A"
_symmetry_group_IT_number 62
_symmetry_cell_setting 'orthorhombic'
loop_
_space_group_symop_operation_xyz
x,y,z
1/2-x,-y,1/2+z
1/2+x,1/2-y,1/2-z
-x,1/2+y,-z
-x,-y,-z
1/2+x,y,1/2-z
1/2-x,1/2+y,1/2+z
x,1/2-y,z
loop_
_atom_site_type_symbol
_atom_site_label
_atom_site_fract_x
_atom_site_fract_y
_atom_site_fract_z
Si Si1 0.003918 0.504131 0.841847
Si Si2 0.199562 0.641819 0.028073
Si Si3 0.114990 0.859939 0.774553
Si Si4 0.639480 0.511522 0.253265
Si Si5 0.102777 0.639800 0.481622
Si Si6 0.659204 0.142253 0.059062
Si Si7 0.537626 0.361184 0.882686
O O1 0.050526 0.588471 0.811260
O O2 0.031213 0.417321 0.755095
O O3 0.932196 0.514001 0.792824
O O4 0.000000 0.500000 0.000000
O O5 0.182348 0.750000 0.062525
O O6 0.172681 0.565385 0.127666
O O7 0.168357 0.622650 0.884479
O O8 0.275319 0.636414 0.020844
O O9 0.103715 0.750000 0.772319
O O10 0.129424 0.887831 0.624264
O O11 0.667931 0.419127 0.189668
O O12 0.636421 0.584706 0.133845
O O13 0.110866 0.750000 0.464056
O O14 0.027044 0.620939 0.465996
O O15 0.648298 0.250000 0.093397
O O16 0.598730 0.111589 0.970546
O O17 0.541137 0.250000 0.857957
#
# Coordination Sequence:
#
# PCOD9464390 Si02
#       7
#     8   8   8   8   8   8   8
#     4  11  21  34  54  85 117 141 186 235 288 341
#     4  10  22  40  59  80 112 152 190 228 281 337
#     4  10  20  35  56  81 113 148 181 230 288 338
#     4  11  21  36  59  86 111 150 184 239 283 337
#     4   9  18  33  58  88 110 138 187 236 279 331
#     4  10  22  39  58  81 113 154 194 231 275 337
#     4   9  19  36  57  80 111 150 189 231 282 336
#
# _framework density 18.228019
#
# number of rings (size 3 to 8) (size 9 to 14) (size 15 to 20)
#    0.000    2.000    1.429    2.143    0.000    7.429 
#    0.000    0.000    0.000    0.857    0.000    0.000 
#    0.000    0.000    0.000    0.000    0.000    0.000 
#
# Total GULP energy -312361.784470 kJ/mol
# GULP energy per Si atom -5577.889008 kJ/mol
# Density = 1.818653 g / cm^3
# Si number density = 18.228019 Si / 1000 Ang^3
#
#
#
# Elastic Constant Matrix: (Units=GPa)
#
#
# Indices 1 2 3 4 5 6 
#
# 1 44.2809 32.8802 20.1851 0.0000 0.0000 0.0000
# 2 32.8802 49.5100 37.2176 0.0000 0.0000 0.0000
# 3 20.1851 37.2176 109.5245 0.0000 0.0000 0.0000
# 4 0.0000 0.0000 0.0000 34.9677 0.0000 0.0000
# 5 0.0000 0.0000 0.0000 0.0000 7.4069 0.0000
# 6 0.0000 0.0000 0.0000 0.0000 0.0000 8.9514
#
#
#
# Elastic Compliance Matrix: (Units=1/GPa)
#
#
# Indices 1 2 3 4 5 6 
#
# 1 0.045059 -0.031807 0.002504 0.000000 0.000000 0.000000
# 2 -0.031807 0.049579 -0.010986 0.000000 0.000000 0.000000
# 3 0.002504 -0.010986 0.012402 0.000000 0.000000 0.000000
# 4 0.000000 0.000000 0.000000 0.028598 0.000000 0.000000
# 5 0.000000 0.000000 0.000000 0.000000 0.135009 0.000000
# 6 0.000000 0.000000 0.000000 0.000000 0.000000 0.111714
#
#
# Mechanical properties :
#
#
# Convention : Reuss Voigt Hill
#
# Bulk Modulus (GPa) = 37.78761 42.65346 40.22053
# Shear Modulus (GPa) = 10.59862 17.80070 14.19966
#
# Velocity S-wave (km/s) = 2.41394 3.12838 2.79409
# Velocity P-wave (km/s) = 5.34275 6.04150 5.70284
#
# Compressibility (1/GPa) = 0.02646370
#
# Stress axis : x y z
#
# Youngs Moduli (GPa) = 22.19300 20.16976 80.63243
#
# Poissons Ratio (x) = 0.64153 -0.20189
# Poissons Ratio (y) = 0.70588 0.88580
# Poissons Ratio (z) = -0.05557 0.22158
#
# Static dielectric constant tensor:
#      x y z
#    x 1.613460 0.000000 0.000000 
#    y 0.000000 1.651210 0.000000 
#    z 0.000000 0.000000 1.633130 
# 
# From -- ./inp_files/8722.got.cif
#   From: 2010.05.17/outbox.cif.g08.bks.cpg/sg62_5_cif.got.tgz:8722.got - 2010.06.03 15:25:27.
