data_PCOD9464617
_publ_section_title
;
Structure prediction by ZEFSAII (Michael W. Deem and Ramdas Pophale) SiO2 
 PCOD9464617
Probable space group: P N M A
;
_chemical_formula_sum "Si O2"
_cell_formula_units_Z 48
_cell_length_a 29.178706
_cell_length_b 9.775362
_cell_length_c 9.363673
_cell_angle_alpha 90.000000
_cell_angle_beta 90.000000
_cell_angle_gamma 90.000000
_cell_volume 2670.823052
_symmetry_space_group_name_H-M "P N M A"
_symmetry_group_IT_number 62
_symmetry_cell_setting 'orthorhombic'
loop_
_space_group_symop_operation_xyz
x,y,z
1/2-x,-y,1/2+z
1/2+x,1/2-y,1/2-z
-x,1/2+y,-z
-x,-y,-z
1/2+x,y,1/2-z
1/2-x,1/2+y,1/2+z
x,1/2-y,z
loop_
_atom_site_type_symbol
_atom_site_label
_atom_site_fract_x
_atom_site_fract_y
_atom_site_fract_z
Si Si1 0.799421 0.412293 0.499078
Si Si2 0.637218 0.087008 0.486647
Si Si3 0.964895 0.593118 0.084275
Si Si4 0.379110 0.086754 0.789775
Si Si5 0.517338 0.592169 0.126916
Si Si6 0.283158 0.587204 0.285102
O O1 0.795889 0.250000 0.465598
O O2 0.849198 0.439403 0.568332
O O3 0.763173 0.440752 0.626145
O O4 0.788596 0.500425 0.359022
O O5 0.639819 0.250000 0.454826
O O6 0.587492 0.056608 0.554396
O O7 0.675931 0.056556 0.603463
O O8 0.640490 0.999040 0.342737
O O9 0.971179 0.750000 0.037438
O O10 0.980013 0.584850 0.247879
O O11 0.000000 0.500000 0.000000
O O12 0.376141 0.250000 0.759457
O O13 0.432481 0.051060 0.814253
O O14 0.521820 0.750000 0.081002
O O15 0.500000 0.500000 0.000000
O O16 0.284429 0.750000 0.252194
#
# Coordination Sequence:
#
# PCOD9464617 Si02
#       6
#     8   8   8   8   8   8
#     4  10  22  39  59  84 113 144 183 226 274 331
#     4  10  21  36  57  84 111 143 186 228 273 329
#     4  10  20  36  56  80 110 146 186 228 271 322
#     4  10  21  38  57  81 112 146 185 229 275 326
#     4  10  22  37  54  79 112 148 186 229 274 324
#     4  10  22  39  59  85 114 144 181 228 276 328
#
# _framework density 17.971988
#
# number of rings (size 3 to 8) (size 9 to 14) (size 15 to 20)
#    0.000    2.000    1.667    1.000    2.333    3.333 
#    0.000    0.000    0.000    0.000    0.000    0.000 
#    0.000    0.000    0.000    0.000    0.000    0.000 
#
# Total GULP energy -267904.718419 kJ/mol
# GULP energy per Si atom -5581.348300 kJ/mol
# Density = 1.793108 g / cm^3
# Si number density = 17.971988 Si / 1000 Ang^3
#
#
#
# Elastic Constant Matrix: (Units=GPa)
#
#
# Indices 1 2 3 4 5 6 
#
# 1 55.0230 20.6354 27.8480 0.0000 0.0000 0.0000
# 2 20.6354 45.7167 62.0389 0.0000 0.0000 0.0000
# 3 27.8480 62.0389 108.9512 0.0000 0.0000 0.0000
# 4 0.0000 0.0000 0.0000 45.5793 0.0000 0.0000
# 5 0.0000 0.0000 0.0000 0.0000 28.1290 0.0000
# 6 0.0000 0.0000 0.0000 0.0000 0.0000 23.0722
#
#
#
# Elastic Compliance Matrix: (Units=1/GPa)
#
#
# Indices 1 2 3 4 5 6 
#
# 1 0.021878 -0.010061 0.000137 0.000000 0.000000 0.000000
# 2 -0.010061 0.100868 -0.054864 0.000000 0.000000 0.000000
# 3 0.000137 -0.054864 0.040384 0.000000 0.000000 0.000000
# 4 0.000000 0.000000 0.000000 0.021940 0.000000 0.000000
# 5 0.000000 0.000000 0.000000 0.000000 0.035551 0.000000
# 6 0.000000 0.000000 0.000000 0.000000 0.000000 0.043342
#
#
# Mechanical properties :
#
#
# Convention : Reuss Voigt Hill
#
# Bulk Modulus (GPa) = 29.80356 47.85953 38.83154
# Shear Modulus (GPa) = 12.35410 25.96735 19.16073
#
# Velocity S-wave (km/s) = 2.62469 3.80528 3.26873
# Velocity P-wave (km/s) = 5.07983 6.78194 5.99164
#
# Compressibility (1/GPa) = 0.03355304
#
# Stress axis : x y z
#
# Youngs Moduli (GPa) = 45.70772 9.91398 24.76211
#
# Poissons Ratio (x) = 0.09974 -0.00339
# Poissons Ratio (y) = 0.45986 1.35856
# Poissons Ratio (z) = -0.00626 0.54392
#
# Static dielectric constant tensor:
#      x y z
#    x 1.631360 0.000000 0.000000 
#    y 0.000000 1.608880 0.000000 
#    z 0.000000 0.000000 1.630560 
# 
# From -- ./inp_files/10141.got.cif
#   From: 2010.05.17/outbox.cif.g08.bks.cpg/sg62_6_cif.got.tgz:10141.got - 2010.06.03 15:25:27.
