data_PCOD9464407
_publ_section_title
;
Structure prediction by ZEFSAII (Michael W. Deem and Ramdas Pophale) SiO2 
 PCOD9464407
Probable space group: P N M A
;
_chemical_formula_sum "Si O2"
_cell_formula_units_Z 48
_cell_length_a 19.533410
_cell_length_b 8.487716
_cell_length_c 15.632774
_cell_angle_alpha 90.000000
_cell_angle_beta 90.000000
_cell_angle_gamma 90.000000
_cell_volume 2591.820705
_symmetry_space_group_name_H-M "P N M A"
_symmetry_group_IT_number 62
_symmetry_cell_setting 'orthorhombic'
loop_
_space_group_symop_operation_xyz
x,y,z
1/2-x,-y,1/2+z
1/2+x,1/2-y,1/2-z
-x,1/2+y,-z
-x,-y,-z
1/2+x,y,1/2-z
1/2-x,1/2+y,1/2+z
x,1/2-y,z
loop_
_atom_site_type_symbol
_atom_site_label
_atom_site_fract_x
_atom_site_fract_y
_atom_site_fract_z
Si Si1 0.175676 0.440829 0.151028
Si Si2 0.077124 0.059446 0.499606
Si Si3 0.673388 0.441595 0.153966
Si Si4 0.329830 0.061272 0.346661
Si Si5 0.577052 0.438314 0.501454
Si Si6 0.827679 0.561021 0.343534
O O1 0.179211 0.250000 0.149793
O O2 0.157927 0.489391 0.248379
O O3 0.120735 0.493459 0.081065
O O4 0.251293 0.505615 0.131974
O O5 0.076593 0.250000 0.498075
O O6 0.119459 0.003770 0.416391
O O7 0.118606 0.010287 0.584286
O O8 0.000000 0.000000 0.500000
O O9 0.673011 0.250000 0.152541
O O10 0.751477 0.490253 0.133507
O O11 0.332035 0.250000 0.350919
O O12 0.382599 0.992232 0.414244
O O13 0.344010 0.008585 0.249618
O O14 0.500000 0.500000 0.500000
O O15 0.575355 0.250000 0.499029
O O16 0.828106 0.750000 0.338349
#
# Coordination Sequence:
#
# PCOD9464407 Si02
#       6
#     8   8   8   8   8   8
#     4   9  19  36  58  82 107 141 184 225 269 326
#     4  10  21  35  52  77 110 145 179 217 264 320
#     4   8  16  34  57  78 102 136 179 222 266 318
#     4  10  20  37  60  81 104 142 188 232 279 327
#     4  11  23  37  54  81 116 150 185 226 275 333
#     4  10  20  35  56  83 112 142 180 228 277 324
#
# _framework density 18.519798999999999
#
# number of rings (size 3 to 8) (size 9 to 14) (size 15 to 20)
#    0.000    2.333    0.000    3.500    0.000    5.333 
#    0.000    5.833    0.000    0.000    0.000    0.000 
#    0.000    0.000    0.000    0.000    0.000    0.000 
#
# Total GULP energy -267971.352718 kJ/mol
# GULP energy per Si atom -5582.736515 kJ/mol
# Density = 1.847765 g / cm^3
# Si number density = 18.519799 Si / 1000 Ang^3
#
#
#
# Elastic Constant Matrix: (Units=GPa)
#
#
# Indices 1 2 3 4 5 6 
#
# 1 183.9906 31.3448 143.7832 0.0000 0.0000 0.0000
# 2 31.3448 25.4079 29.7874 0.0000 0.0000 0.0000
# 3 143.7832 29.7874 150.5102 0.0000 0.0000 0.0000
# 4 0.0000 0.0000 0.0000 19.0822 0.0000 0.0000
# 5 0.0000 0.0000 0.0000 0.0000 -4.2504 0.0000
# 6 0.0000 0.0000 0.0000 0.0000 0.0000 32.6534
#
#
#
# Elastic Compliance Matrix: (Units=1/GPa)
#
#
# Indices 1 2 3 4 5 6 
#
# 1 0.021642 -0.003204 -0.020041 0.000000 0.000000 0.000000
# 2 -0.003204 0.051723 -0.007176 0.000000 0.000000 0.000000
# 3 -0.020041 -0.007176 0.027209 0.000000 0.000000 0.000000
# 4 0.000000 0.000000 0.000000 0.052405 0.000000 0.000000
# 5 0.000000 0.000000 0.000000 0.000000 -0.235273 0.000000
# 6 0.000000 0.000000 0.000000 0.000000 0.000000 0.030625
#
#
# Mechanical properties :
#
#
# Convention : Reuss Voigt Hill
#
# Bulk Modulus (GPa) = 25.16764 85.52662 55.34713
# Shear Modulus (GPa) = 223.05062 19.82994 121.44028
#
# Velocity S-wave (km/s) = 10.98638 3.27577 8.10651
# Velocity P-wave (km/s) = 13.21185 7.78389 10.84302
#
# Compressibility (1/GPa) = 0.03973356
#
# Stress axis : x y z
#
# Youngs Moduli (GPa) = 46.20604 19.33374 36.75219
#
# Poissons Ratio (x) = 0.06195 0.73654
# Poissons Ratio (y) = 0.14805 0.26372
# Poissons Ratio (z) = 0.92601 0.13873
#
# Static dielectric constant tensor:
#      x y z
#    x 1.604530 0.000000 0.000000 
#    y 0.000000 1.631550 0.000000 
#    z 0.000000 0.000000 1.636150 
# 
# From -- ./inp_files/19641.got.cif
#   From: 2010.05.17/outbox.cif.g08.bks.cpg/sg62_10_cif.got.tgz:19641.got - 2010.06.03 15:25:27.
