data_PCOD9464134
_publ_section_title
;
Structure prediction by ZEFSAII (Michael W. Deem and Ramdas Pophale) SiO2 
 PCOD9464134
Probable space group: P N M A
;
_chemical_formula_sum "Si O2"
_cell_formula_units_Z 48
_cell_length_a 14.532425
_cell_length_b 7.645806
_cell_length_c 18.382190
_cell_angle_alpha 90.000000
_cell_angle_beta 90.000000
_cell_angle_gamma 90.000000
_cell_volume 2042.483775
_symmetry_space_group_name_H-M "P N M A"
_symmetry_group_IT_number 62
_symmetry_cell_setting 'orthorhombic'
loop_
_space_group_symop_operation_xyz
x,y,z
1/2-x,-y,1/2+z
1/2+x,1/2-y,1/2-z
-x,1/2+y,-z
-x,-y,-z
1/2+x,y,1/2-z
1/2-x,1/2+y,1/2+z
x,1/2-y,z
loop_
_atom_site_type_symbol
_atom_site_label
_atom_site_fract_x
_atom_site_fract_y
_atom_site_fract_z
Si Si1 0.164732 0.950219 0.503097
Si Si2 0.678978 0.960631 0.265642
Si Si3 0.545212 0.040674 0.398547
Si Si4 0.142630 0.950582 0.951541
Si Si5 0.860134 0.549383 0.336757
Si Si6 0.938605 0.034786 0.632488
O O1 0.143352 0.750000 0.521784
O O2 0.088359 0.022952 0.448280
O O3 0.260994 0.953462 0.459650
O O4 0.173254 0.048031 0.579248
O O5 0.686237 0.750000 0.263046
O O6 0.778473 0.031578 0.289396
O O7 0.639227 0.020975 0.189115
O O8 0.603615 0.001663 0.327326
O O9 0.543874 0.250000 0.410079
O O10 0.438497 0.981293 0.398913
O O11 0.595799 0.959440 0.468397
O O12 0.162849 0.750000 0.933013
O O13 0.871311 0.750000 0.312618
O O14 0.962291 0.472622 0.339818
O O15 0.940038 0.250000 0.630220
#
# Coordination Sequence:
#
# PCOD9464134 Si02
#       6
#     8   8   8   8   8   8
#     4  11  21  35  58  86 116 150 195 244 285 336
#     4  10  20  36  59  83 112 152 194 234 286 346
#     4  10  20  34  54  82 115 147 186 233 282 337
#     4  10  20  34  54  82 114 149 187 230 284 340
#     4  10  20  37  60  82 111 151 193 237 288 343
#     4   9  21  38  56  84 116 151 196 239 282 343
#
# _framework density 23.500798
#
# number of rings (size 3 to 8) (size 9 to 14) (size 15 to 20)
#    0.000    2.000    1.667    2.000    0.000    3.333 
#    0.000    6.667    0.000    0.000    0.000    0.000 
#    0.000    0.000    0.000    0.000    0.000    0.000 
#
# Total GULP energy -268278.222814 kJ/mol
# GULP energy per Si atom -5589.129642 kJ/mol
# Density = 2.344731 g / cm^3
# Si number density = 23.500798 Si / 1000 Ang^3
#
#
#
# Elastic Constant Matrix: (Units=GPa)
#
#
# Indices 1 2 3 4 5 6 
#
# 1 141.4639 2.8288 42.5844 0.0000 0.0000 0.0000
# 2 2.8288 59.1347 -5.2823 0.0000 0.0000 0.0000
# 3 42.5844 -5.2823 34.7820 0.0000 0.0000 0.0000
# 4 0.0000 0.0000 0.0000 6.8706 0.0000 0.0000
# 5 0.0000 0.0000 0.0000 0.0000 13.2545 0.0000
# 6 0.0000 0.0000 0.0000 0.0000 0.0000 -2.1803
#
#
#
# Elastic Compliance Matrix: (Units=1/GPa)
#
#
# Indices 1 2 3 4 5 6 
#
# 1 0.011384 -0.001814 -0.014213 0.000000 0.000000 0.000000
# 2 -0.001814 0.017432 0.004868 0.000000 0.000000 0.000000
# 3 -0.014213 0.004868 0.046891 0.000000 0.000000 0.000000
# 4 0.000000 0.000000 0.000000 0.145548 0.000000 0.000000
# 5 0.000000 0.000000 0.000000 0.000000 0.075446 0.000000
# 6 0.000000 0.000000 0.000000 0.000000 0.000000 -0.458652
#
#
# Mechanical properties :
#
#
# Convention : Reuss Voigt Hill
#
# Bulk Modulus (GPa) = 18.73014 35.07138 26.90076
# Shear Modulus (GPa) = -41.03810 16.60561 -12.21625
#
# Velocity S-wave (km/s) = -4.18334 2.66107 -2.28244
# Velocity P-wave (km/s) = 3.91746 4.93940 2.12734
#
# Compressibility (1/GPa) = 0.05338989
#
# Stress axis : x y z
#
# Youngs Moduli (GPa) = 87.84548 57.36510 21.32614
#
# Poissons Ratio (x) = 0.10407 0.30310
# Poissons Ratio (y) = 0.15936 -0.10383
# Poissons Ratio (z) = 1.24852 -0.27928
#
# Static dielectric constant tensor:
#      x y z
#    x 1.920410 0.000000 0.000000 
#    y 0.000000 1.908440 0.000000 
#    z 0.000000 0.000000 1.846830 
# 
# From -- ./inp_files/23716.got.cif
#   From: 2010.05.17/outbox.cif.g08.bks.cpg/sg62_12_cif.got.tgz:23716.got - 2010.06.03 15:25:27.
