data_PCOD9464814
_publ_section_title
;
Structure prediction by ZEFSAII (Michael W. Deem and Ramdas Pophale) SiO2 
 PCOD9464814
Probable space group: P N M A
;
_chemical_formula_sum "Si O2"
_cell_formula_units_Z 48
_cell_length_a 29.765266
_cell_length_b 8.750807
_cell_length_c 10.309818
_cell_angle_alpha 90.000000
_cell_angle_beta 90.000000
_cell_angle_gamma 90.000000
_cell_volume 2685.399306
_symmetry_space_group_name_H-M "P N M A"
_symmetry_group_IT_number 62
_symmetry_cell_setting 'orthorhombic'
loop_
_space_group_symop_operation_xyz
x,y,z
1/2-x,-y,1/2+z
1/2+x,1/2-y,1/2-z
-x,1/2+y,-z
-x,-y,-z
1/2+x,y,1/2-z
1/2-x,1/2+y,1/2+z
x,1/2-y,z
loop_
_atom_site_type_symbol
_atom_site_label
_atom_site_fract_x
_atom_site_fract_y
_atom_site_fract_z
Si Si1 0.287368 0.433264 0.712736
Si Si2 0.973220 0.432375 0.377613
Si Si3 0.385574 0.568693 0.717767
Si Si4 0.616682 0.431097 0.973871
Si Si5 0.785231 0.433323 0.484971
Si Si6 0.977404 0.067505 0.872239
O O1 0.287630 0.250000 0.702239
O O2 0.337133 0.498055 0.686437
O O3 0.252177 0.502940 0.611925
O O4 0.276165 0.472834 0.863334
O O5 0.977529 0.250000 0.376129
O O6 0.921630 0.482530 0.394477
O O7 0.000000 0.500000 0.500000
O O8 0.995192 0.502996 0.250070
O O9 0.385444 0.750000 0.693333
O O10 0.426282 0.489582 0.643351
O O11 0.392868 0.545794 0.872489
O O12 0.614991 0.250000 0.948056
O O13 0.666373 0.495543 0.950295
O O14 0.787478 0.250000 0.475992
O O15 0.978703 0.250000 0.873110
O O16 0.000000 0.000000 0.000000
#
# Coordination Sequence:
#
# PCOD9464814 Si02
#       6
#     8   8   8   8   8   8
#     4  10  21  38  61  88 118 153 196 243 297 354
#     4  12  23  38  62  91 121 156 200 245 294 349
#     4  10  20  37  62  88 118 156 199 241 295 358
#     4  10  20  36  61  90 119 153 197 246 297 350
#     4  10  21  38  60  87 119 153 195 244 297 354
#     4  12  25  42  62  87 123 160 199 247 300 358
#
# _framework density 17.874438000000001
#
# number of rings (size 3 to 8) (size 9 to 14) (size 15 to 20)
#    0.000    1.333    1.667    5.000    0.000    3.333 
#    3.000    0.000    0.000    0.000    0.000    0.000 
#    0.000    0.000    0.000    0.000    0.000    0.000 
#
# Total GULP energy -268337.794372 kJ/mol
# GULP energy per Si atom -5590.370716 kJ/mol
# Density = 1.783375 g / cm^3
# Si number density = 17.874438 Si / 1000 Ang^3
#
#
#
# Elastic Constant Matrix: (Units=GPa)
#
#
# Indices 1 2 3 4 5 6 
#
# 1 152.0348 66.9346 87.9612 0.0000 0.0000 0.0000
# 2 66.9346 116.0379 58.1912 0.0000 0.0000 0.0000
# 3 87.9612 58.1912 116.0663 0.0000 0.0000 0.0000
# 4 0.0000 0.0000 0.0000 29.8758 0.0000 0.0000
# 5 0.0000 0.0000 0.0000 0.0000 37.8252 0.0000
# 6 0.0000 0.0000 0.0000 0.0000 0.0000 40.9222
#
#
#
# Elastic Compliance Matrix: (Units=1/GPa)
#
#
# Indices 1 2 3 4 5 6 
#
# 1 0.012599 -0.003312 -0.007888 0.000000 0.000000 0.000000
# 2 -0.003312 0.012383 -0.003698 0.000000 0.000000 0.000000
# 3 -0.007888 -0.003698 0.016448 0.000000 0.000000 0.000000
# 4 0.000000 0.000000 0.000000 0.033472 0.000000 0.000000
# 5 0.000000 0.000000 0.000000 0.000000 0.026437 0.000000
# 6 0.000000 0.000000 0.000000 0.000000 0.000000 0.024437
#
#
# Mechanical properties :
#
#
# Convention : Reuss Voigt Hill
#
# Bulk Modulus (GPa) = 85.95773 90.03478 87.99626
# Shear Modulus (GPa) = 31.35781 33.12812 32.24297
#
# Velocity S-wave (km/s) = 4.19303 4.30976 4.25179
# Velocity P-wave (km/s) = 8.46381 8.67441 8.56976
#
# Compressibility (1/GPa) = 0.01163362
#
# Stress axis : x y z
#
# Youngs Moduli (GPa) = 79.37062 80.75573 60.79862
#
# Poissons Ratio (x) = 0.26746 0.47957
# Poissons Ratio (y) = 0.26288 0.22485
# Poissons Ratio (z) = 0.62606 0.29866
#
# Static dielectric constant tensor:
#      x y z
#    x 1.590470 0.000000 0.000000 
#    y 0.000000 1.590170 0.000000 
#    z 0.000000 0.000000 1.584800 
# 
# From -- ./inp_files/10233.got.cif
#   From: 2010.05.17/outbox.cif.g08.bks.cpg/sg62_6_cif.got.tgz:10233.got - 2010.06.03 15:25:27.
