data_PCOD9464892
_publ_section_title
;
Structure prediction by ZEFSAII (Michael W. Deem and Ramdas Pophale) SiO2 
 PCOD9464892
Probable space group: P N M A
;
_chemical_formula_sum "Si O2"
_cell_formula_units_Z 48
_cell_length_a 31.510105
_cell_length_b 8.866199
_cell_length_c 9.436851
_cell_angle_alpha 90.000000
_cell_angle_beta 90.000000
_cell_angle_gamma 90.000000
_cell_volume 2636.418941
_symmetry_space_group_name_H-M "P N M A"
_symmetry_group_IT_number 62
_symmetry_cell_setting 'orthorhombic'
loop_
_space_group_symop_operation_xyz
x,y,z
1/2-x,-y,1/2+z
1/2+x,1/2-y,1/2-z
-x,1/2+y,-z
-x,-y,-z
1/2+x,y,1/2-z
1/2-x,1/2+y,1/2+z
x,1/2-y,z
loop_
_atom_site_type_symbol
_atom_site_label
_atom_site_fract_x
_atom_site_fract_y
_atom_site_fract_z
Si Si1 0.382533 0.068629 0.411229
Si Si2 0.539953 0.431700 0.416867
Si Si3 0.285982 0.427997 0.418516
Si Si4 0.961107 0.931406 0.586900
Si Si5 0.208869 0.572979 0.582194
Si Si6 0.620065 0.430366 0.901450
O O1 0.386639 0.250000 0.410643
O O2 0.334369 0.030775 0.458221
O O3 0.417576 0.994199 0.510337
O O4 0.387549 0.008817 0.250540
O O5 0.500000 0.500000 0.500000
O O6 0.539072 0.250000 0.425852
O O7 0.538071 0.476397 0.251547
O O8 0.280228 0.250000 0.447545
O O9 0.249748 0.519507 0.496954
O O10 0.283116 0.450605 0.249535
O O11 0.964459 0.750000 0.582219
O O12 0.917114 0.973233 0.510048
O O13 0.000000 0.000000 0.500000
O O14 0.200936 0.750000 0.560313
O O15 0.166216 0.482402 0.545199
O O16 0.619586 0.250000 0.882357
#
# Coordination Sequence:
#
# PCOD9464892 Si02
#       6
#     8   8   8   8   8   8
#     4  10  21  38  58  83 113 146 186 230 275 328
#     4  11  23  39  58  83 113 146 184 228 278 331
#     4   9  20  37  55  79 112 146 182 226 274 325
#     4  10  23  39  57  82 111 143 181 225 273 327
#     4  10  21  36  56  83 112 145 186 230 275 325
#     4  10  20  37  59  82 110 146 184 225 277 330
#
# _framework density 18.206516000000001
#
# number of rings (size 3 to 8) (size 9 to 14) (size 15 to 20)
#    0.000    2.000    0.000    4.000    0.000   10.667 
#    0.000    5.000    0.000    0.000    0.000    0.000 
#    0.000    0.000    0.000    0.000    0.000    0.000 
#
# Total GULP energy -268116.239270 kJ/mol
# GULP energy per Si atom -5585.754985 kJ/mol
# Density = 1.816508 g / cm^3
# Si number density = 18.206516 Si / 1000 Ang^3
#
#
#
# Elastic Constant Matrix: (Units=GPa)
#
#
# Indices 1 2 3 4 5 6 
#
# 1 160.3926 64.1559 94.1344 0.0000 0.0000 0.0000
# 2 64.1559 58.4035 49.2744 0.0000 0.0000 0.0000
# 3 94.1344 49.2744 105.3618 0.0000 0.0000 0.0000
# 4 0.0000 0.0000 0.0000 31.0921 0.0000 0.0000
# 5 0.0000 0.0000 0.0000 0.0000 34.7276 0.0000
# 6 0.0000 0.0000 0.0000 0.0000 0.0000 38.4953
#
#
#
# Elastic Compliance Matrix: (Units=1/GPa)
#
#
# Indices 1 2 3 4 5 6 
#
# 1 0.015426 -0.008783 -0.009675 0.000000 0.000000 0.000000
# 2 -0.008783 0.033282 -0.007718 0.000000 0.000000 0.000000
# 3 -0.009675 -0.007718 0.021744 0.000000 0.000000 0.000000
# 4 0.000000 0.000000 0.000000 0.032163 0.000000 0.000000
# 5 0.000000 0.000000 0.000000 0.000000 0.028796 0.000000
# 6 0.000000 0.000000 0.000000 0.000000 0.000000 0.025977
#
#
# Mechanical properties :
#
#
# Convention : Reuss Voigt Hill
#
# Bulk Modulus (GPa) = 55.24534 82.14302 68.69418
# Shear Modulus (GPa) = 23.17274 28.63586 25.90430
#
# Velocity S-wave (km/s) = 3.57146 3.97020 3.77610
# Velocity P-wave (km/s) = 6.88598 8.13830 7.53819
#
# Compressibility (1/GPa) = 0.01810108
#
# Stress axis : x y z
#
# Youngs Moduli (GPa) = 64.82686 30.04666 45.98944
#
# Poissons Ratio (x) = 0.26389 0.44493
# Poissons Ratio (y) = 0.56936 0.35494
# Poissons Ratio (z) = 0.62717 0.23190
#
# Static dielectric constant tensor:
#      x y z
#    x 1.606910 0.000000 0.000000 
#    y 0.000000 1.658850 0.000000 
#    z 0.000000 0.000000 1.599740 
# 
# From -- ./inp_files/10193.got.cif
#   From: 2010.05.17/outbox.cif.g08.bks.cpg/sg62_6_cif.got.tgz:10193.got - 2010.06.03 15:25:27.
