data_PCOD9464536
_publ_section_title
;
Structure prediction by ZEFSAII (Michael W. Deem and Ramdas Pophale) SiO2 
 PCOD9464536
Probable space group: P N M A
;
_chemical_formula_sum "Si O2"
_cell_formula_units_Z 32
_cell_length_a 5.216835
_cell_length_b 15.866488
_cell_length_c 16.786876
_cell_angle_alpha 90.000000
_cell_angle_beta 90.000000
_cell_angle_gamma 90.000000
_cell_volume 1389.497568
_symmetry_space_group_name_H-M "P N M A"
_symmetry_group_IT_number 62
_symmetry_cell_setting 'orthorhombic'
loop_
_space_group_symop_operation_xyz
x,y,z
1/2-x,-y,1/2+z
1/2+x,1/2-y,1/2-z
-x,1/2+y,-z
-x,-y,-z
1/2+x,y,1/2-z
1/2-x,1/2+y,1/2+z
x,1/2-y,z
loop_
_atom_site_type_symbol
_atom_site_label
_atom_site_fract_x
_atom_site_fract_y
_atom_site_fract_z
Si Si1 0.094836 0.477914 0.410980
Si Si2 0.094152 0.841635 0.409143
Si Si3 0.908204 0.341358 0.019559
Si Si4 0.841489 0.155387 0.303485
O O1 0.121629 0.567669 0.366890
O O2 0.346632 0.420938 0.425177
O O3 0.900501 0.416249 0.366986
O O4 0.000000 0.500000 0.500000
O O5 0.118048 0.750000 0.367421
O O6 0.323959 0.844465 0.473811
O O7 0.819750 0.841353 0.453715
O O8 0.888755 0.250000 0.061317
O O9 0.070027 0.147656 0.239335
O O10 0.862780 0.250000 0.338046
#
# Coordination Sequence:
#
# PCOD9464536 Si02
#       4
#     8   8   8   8
#     4  10  20  35  59  87 114 151 202 252 294 345
#     4   9  18  30  46  74 109 139 174 228 288 335
#     4   9  17  29  46  74 109 139 174 229 289 336
#     4  10  23  42  62  87 123 163 198 241 304 370
#
# _framework density 23.029907000000001
#
# number of rings (size 3 to 8) (size 9 to 14) (size 15 to 20)
#    0.000    2.500    0.000    1.500    0.000    9.000 
#    0.000   12.500    0.000    1.500    0.000    0.000 
#    0.000    0.000    0.000    0.000    0.000    0.000 
#
# Total GULP energy -178688.715631 kJ/mol
# GULP energy per Si atom -5584.022363 kJ/mol
# Density = 2.297749 g / cm^3
# Si number density = 23.029907 Si / 1000 Ang^3
#
#
#
# Elastic Constant Matrix: (Units=GPa)
#
#
# Indices 1 2 3 4 5 6 
#
# 1 103.6074 -5.9498 20.9291 0.0000 0.0000 0.0000
# 2 -5.9498 224.8744 35.7240 0.0000 0.0000 0.0000
# 3 20.9291 35.7240 36.0782 0.0000 0.0000 0.0000
# 4 0.0000 0.0000 0.0000 26.9209 0.0000 0.0000
# 5 0.0000 0.0000 0.0000 0.0000 27.3072 0.0000
# 6 0.0000 0.0000 0.0000 0.0000 0.0000 -6.4888
#
#
#
# Elastic Compliance Matrix: (Units=1/GPa)
#
#
# Indices 1 2 3 4 5 6 
#
# 1 0.011401 0.001605 -0.008203 0.000000 0.000000 0.000000
# 2 0.001605 0.005503 -0.006380 0.000000 0.000000 0.000000
# 3 -0.008203 -0.006380 0.038793 0.000000 0.000000 0.000000
# 4 0.000000 0.000000 0.000000 0.037146 0.000000 0.000000
# 5 0.000000 0.000000 0.000000 0.000000 0.036620 0.000000
# 6 0.000000 0.000000 0.000000 0.000000 0.000000 -0.154112
#
#
# Mechanical properties :
#
#
# Convention : Reuss Voigt Hill
#
# Bulk Modulus (GPa) = 33.62309 51.77407 42.69858
# Shear Modulus (GPa) = 445.61627 30.47166 238.04396
#
# Velocity S-wave (km/s) = 13.92532 3.64144 10.17779
# Velocity P-wave (km/s) = 16.52829 6.34115 12.51788
#
# Compressibility (1/GPa) = 0.02974146
#
# Stress axis : x y z
#
# Youngs Moduli (GPa) = 87.71191 181.72255 25.77772
#
# Poissons Ratio (x) = -0.29162 0.21145
# Poissons Ratio (y) = -0.14076 0.16446
# Poissons Ratio (z) = 0.71948 1.15935
#
# Static dielectric constant tensor:
#      x y z
#    x 1.868120 0.000000 0.000000 
#    y 0.000000 1.995750 0.000000 
#    z 0.000000 0.000000 1.844460 
# 
# From -- ./inp_files/21408.got.cif
#   From: 2010.05.17/outbox.cif.g08.bks.cpg/sg62_11_cif.got.tgz:21408.got - 2010.06.03 15:25:27.
