data_PCOD9464325
_publ_section_title
;
Structure prediction by ZEFSAII (Michael W. Deem and Ramdas Pophale) SiO2 
 PCOD9464325
Probable space group: P N M A
;
_chemical_formula_sum "Si O2"
_cell_formula_units_Z 64
_cell_length_a 7.682191
_cell_length_b 18.643269
_cell_length_c 21.225244
_cell_angle_alpha 90.000000
_cell_angle_beta 90.000000
_cell_angle_gamma 90.000000
_cell_volume 3039.903925
_symmetry_space_group_name_H-M "P N M A"
_symmetry_group_IT_number 62
_symmetry_cell_setting 'orthorhombic'
loop_
_space_group_symop_operation_xyz
x,y,z
1/2-x,-y,1/2+z
1/2+x,1/2-y,1/2-z
-x,1/2+y,-z
-x,-y,-z
1/2+x,y,1/2-z
1/2-x,1/2+y,1/2+z
x,1/2-y,z
loop_
_atom_site_type_symbol
_atom_site_label
_atom_site_fract_x
_atom_site_fract_y
_atom_site_fract_z
Si Si1 0.175205 0.171963 0.852167
Si Si2 0.688850 0.671152 0.279046
Si Si3 0.777744 0.474681 0.603674
Si Si4 0.338877 0.966835 0.155257
Si Si5 0.185372 0.020198 0.028501
Si Si6 0.373212 0.671512 0.590503
Si Si7 0.300761 0.378249 0.336609
Si Si8 0.392912 0.374386 0.194862
O O1 0.189779 0.250000 0.883752
O O2 0.317879 0.167301 0.796452
O O3 0.181839 0.101552 0.894134
O O4 0.997504 0.170399 0.812281
O O5 0.768168 0.750000 0.293915
O O6 0.783701 0.600984 0.304523
O O7 0.806577 0.496228 0.531241
O O8 0.683953 0.537709 0.643028
O O9 0.962558 0.462268 0.634815
O O10 0.329925 0.042485 0.191440
O O11 0.229278 0.976075 0.091088
O O12 0.182720 0.103609 0.048494
O O13 0.000000 0.000000 0.000000
O O14 0.354575 0.750000 0.561110
O O15 0.573226 0.660656 0.613395
O O16 0.244138 0.666696 0.650941
O O17 0.378261 0.357539 0.268534
O O18 0.091020 0.365638 0.331420
#
# Coordination Sequence:
#
# PCOD9464325 Si02
#       8
#     8   8   8   8   8   8   8   8
#     4  10  21  34  55  87 122 158 196 242 300 359
#     4  10  20  35  54  85 124 157 193 244 303 357
#     4  11  22  37  64  87 116 159 204 248 301 355
#     4  10  22  37  60  89 118 156 202 249 297 361
#     4  11  22  42  64  84 118 156 201 254 293 353
#     4  11  25  43  64  91 124 164 202 254 316 368
#     4  11  21  39  63  95 124 159 204 250 305 372
#     4  10  22  38  63  95 127 158 202 249 308 373
#
# _framework density 21.053296
#
# number of rings (size 3 to 8) (size 9 to 14) (size 15 to 20)
#    0.000    1.500    2.500    2.625    1.750    5.000 
#    0.000    0.625    0.000    0.000    0.000    0.000 
#    0.000    0.000    0.000    0.000    0.000    0.000 
#
# Total GULP energy -357242.977093 kJ/mol
# GULP energy per Si atom -5581.921517 kJ/mol
# Density = 2.100538 g / cm^3
# Si number density = 21.053296 Si / 1000 Ang^3
#
#
#
# Elastic Constant Matrix: (Units=GPa)
#
#
# Indices 1 2 3 4 5 6 
#
# 1 39.8801 12.7586 -20.2047 0.0000 0.0000 0.0000
# 2 12.7586 92.1357 -0.5593 0.0000 0.0000 0.0000
# 3 -20.2047 -0.5593 39.7900 0.0000 0.0000 0.0000
# 4 0.0000 0.0000 0.0000 15.0556 0.0000 0.0000
# 5 0.0000 0.0000 0.0000 0.0000 33.3567 0.0000
# 6 0.0000 0.0000 0.0000 0.0000 0.0000 17.9403
#
#
#
# Elastic Compliance Matrix: (Units=1/GPa)
#
#
# Indices 1 2 3 4 5 6 
#
# 1 0.035802 -0.004848 0.018112 0.000000 0.000000 0.000000
# 2 -0.004848 0.011511 -0.002300 0.000000 0.000000 0.000000
# 3 0.018112 -0.002300 0.034296 0.000000 0.000000 0.000000
# 4 0.000000 0.000000 0.000000 0.066421 0.000000 0.000000
# 5 0.000000 0.000000 0.000000 0.000000 0.029979 0.000000
# 6 0.000000 0.000000 0.000000 0.000000 0.000000 0.055740
#
#
# Mechanical properties :
#
#
# Convention : Reuss Voigt Hill
#
# Bulk Modulus (GPa) = 9.65833 17.31054 13.48443
# Shear Modulus (GPa) = 20.29764 25.25792 22.77778
#
# Velocity S-wave (km/s) = 3.10838 3.46745 3.29281
# Velocity P-wave (km/s) = 4.18093 4.92656 4.56898
#
# Compressibility (1/GPa) = 0.10353757
#
# Stress axis : x y z
#
# Youngs Moduli (GPa) = 27.93126 86.87414 29.15753
#
# Poissons Ratio (x) = 0.42115 -0.52809
# Poissons Ratio (y) = 0.13541 0.06706
# Poissons Ratio (z) = -0.50588 0.19980
#
# Static dielectric constant tensor:
#      x y z
#    x 1.818890 0.000000 0.000000 
#    y 0.000000 1.781790 0.000000 
#    z 0.000000 0.000000 1.780370 
# 
# From -- ./inp_files/26166.got.cif
#   From: 2010.05.17/outbox.cif.g08.bks.cpg/sg62_14_cif.got.tgz:26166.got - 2010.06.03 15:25:27.
