data_PCOD9464019
_publ_section_title
;
Structure prediction by ZEFSAII (Michael W. Deem and Ramdas Pophale) SiO2 
 PCOD9464019
Probable space group: P N M A
;
_chemical_formula_sum "Si O2"
_cell_formula_units_Z 48
_cell_length_a 6.872986
_cell_length_b 8.129601
_cell_length_c 34.766669
_cell_angle_alpha 90.000000
_cell_angle_beta 90.000000
_cell_angle_gamma 90.000000
_cell_volume 1942.574901
_symmetry_space_group_name_H-M "P N M A"
_symmetry_group_IT_number 62
_symmetry_cell_setting 'orthorhombic'
loop_
_space_group_symop_operation_xyz
x,y,z
1/2-x,-y,1/2+z
1/2+x,1/2-y,1/2-z
-x,1/2+y,-z
-x,-y,-z
1/2+x,y,1/2-z
1/2-x,1/2+y,1/2+z
x,1/2-y,z
loop_
_atom_site_type_symbol
_atom_site_label
_atom_site_fract_x
_atom_site_fract_y
_atom_site_fract_z
Si Si1 0.670388 0.443016 0.929902
Si Si2 0.869497 0.561698 0.092188
Si Si3 0.220715 0.947916 0.989252
Si Si4 0.459804 0.070391 0.328155
Si Si5 0.976840 0.250000 0.784170
Si Si6 0.421308 0.430373 0.150573
Si Si7 0.472841 0.750000 0.194961
O O1 0.615754 0.250000 0.928381
O O2 0.573005 0.539733 0.895134
O O3 0.902341 0.447231 0.920033
O O4 0.657237 0.507960 0.973571
O O5 0.829573 0.750000 0.102905
O O6 0.751608 0.515907 0.053688
O O7 0.856494 0.453344 0.130446
O O8 0.231652 0.750000 0.988505
O O9 0.000000 0.000000 0.000000
O O10 0.417324 0.250000 0.311340
O O11 0.691366 0.067793 0.338154
O O12 0.425945 0.916196 0.300184
O O13 0.761326 0.250000 0.801491
O O14 0.955955 0.250000 0.738520
O O15 0.494294 0.250000 0.161166
O O16 0.516813 0.583724 0.172071
#
# Coordination Sequence:
#
# PCOD9464019 Si02
#       7
#     8   8   8   8   4   8   4
#     4   8  13  21  31  46  74 108 144 182 213 253
#     4   9  14  21  32  48  74 107 145 182 215 255
#     4   9  15  19  26  43  70 105 144 183 215 248
#     4   9  16  27  43  61  83 113 150 183 220 270
#     4  10  20  34  50  70  90 120 148 192 230 274
#     4   9  16  26  43  61  81 114 149 182 221 269
#     4  10  20  34  50  68  94 114 152 190 230 272
#
# _framework density 24.709468999999999
#
# number of rings (size 3 to 8) (size 9 to 14) (size 15 to 20)
#    0.000    3.000    1.667    2.000    0.000    5.333 
#    0.000    0.000    0.000    0.000    0.000    0.000 
#    0.000    0.000    0.000    1.500    1.333    1.667 
#
# Total GULP energy -268596.033672 kJ/mol
# GULP energy per Si atom -5595.750701 kJ/mol
# Density = 2.465323 g / cm^3
# Si number density = 24.709469 Si / 1000 Ang^3
#
#
#
# Elastic Constant Matrix: (Units=GPa)
#
#
# Indices 1 2 3 4 5 6 
#
# 1 95.0631 7.3084 23.6994 0.0000 0.0000 0.0000
# 2 7.3084 192.6036 97.2460 0.0000 0.0000 0.0000
# 3 23.6994 97.2460 148.3447 0.0000 0.0000 0.0000
# 4 0.0000 0.0000 0.0000 26.6056 0.0000 0.0000
# 5 0.0000 0.0000 0.0000 0.0000 35.6794 0.0000
# 6 0.0000 0.0000 0.0000 0.0000 0.0000 -1.6874
#
#
#
# Elastic Compliance Matrix: (Units=1/GPa)
#
#
# Indices 1 2 3 4 5 6 
#
# 1 0.011019 0.000704 -0.002222 0.000000 0.000000 0.000000
# 2 0.000704 0.007806 -0.005229 0.000000 0.000000 0.000000
# 3 -0.002222 -0.005229 0.010524 0.000000 0.000000 0.000000
# 4 0.000000 0.000000 0.000000 0.037586 0.000000 0.000000
# 5 0.000000 0.000000 0.000000 0.000000 0.028027 0.000000
# 6 0.000000 0.000000 0.000000 0.000000 0.000000 -0.592616
#
#
# Mechanical properties :
#
#
# Convention : Reuss Voigt Hill
#
# Bulk Modulus (GPa) = 63.07553 76.94657 70.01105
# Shear Modulus (GPa) = -10.44115 32.63670 11.09777
#
# Velocity S-wave (km/s) = -2.05785 3.63825 2.12157
# Velocity P-wave (km/s) = 4.46497 6.98980 5.86486
#
# Compressibility (1/GPa) = 0.01585401
#
# Stress axis : x y z
#
# Youngs Moduli (GPa) = 90.75164 128.11325 95.02101
#
# Poissons Ratio (x) = -0.09014 0.21110
# Poissons Ratio (y) = -0.06385 0.49689
# Poissons Ratio (z) = 0.20162 0.66994
#
# Static dielectric constant tensor:
#      x y z
#    x 3.676970 0.000000 0.000000 
#    y 0.000000 1.876310 0.000000 
#    z 0.000000 0.000000 1.853050 
# 
# From -- ./inp_files/31019.got.cif
#   From: 2010.05.17/outbox.cif.g08.bks.cpg/sg62_16_cif.got.tgz:31019.got - 2010.06.03 15:25:27.
