data_PCOD9464254
_publ_section_title
;
Structure prediction by ZEFSAII (Michael W. Deem and Ramdas Pophale) SiO2 
 PCOD9464254
Probable space group: P N M A
;
_chemical_formula_sum "Si O2"
_cell_formula_units_Z 64
_cell_length_a 27.185739
_cell_length_b 12.327493
_cell_length_c 8.686414
_cell_angle_alpha 90.000000
_cell_angle_beta 90.000000
_cell_angle_gamma 90.000000
_cell_volume 2911.095359
_symmetry_space_group_name_H-M "P N M A"
_symmetry_group_IT_number 62
_symmetry_cell_setting 'orthorhombic'
loop_
_space_group_symop_operation_xyz
x,y,z
1/2-x,-y,1/2+z
1/2+x,1/2-y,1/2-z
-x,1/2+y,-z
-x,-y,-z
1/2+x,y,1/2-z
1/2-x,1/2+y,1/2+z
x,1/2-y,z
loop_
_atom_site_type_symbol
_atom_site_label
_atom_site_fract_x
_atom_site_fract_y
_atom_site_fract_z
Si Si1 0.904798 0.029523 0.789371
Si Si2 0.522651 0.873361 0.499027
Si Si3 0.688645 0.492106 0.094879
Si Si4 0.379642 0.912358 0.134722
Si Si5 0.571122 0.630204 0.836270
Si Si6 0.359140 0.865958 0.480573
Si Si7 0.966100 0.627429 0.568208
Si Si8 0.746091 0.125330 0.360652
O O1 0.939182 0.122493 0.856697
O O2 0.854355 0.050754 0.695321
O O3 0.938047 0.951143 0.684540
O O4 0.888292 0.961442 0.938718
O O5 0.497977 0.750000 0.488629
O O6 0.550072 0.870969 0.663397
O O7 0.500000 0.000000 0.500000
O O8 0.729331 0.441335 0.209182
O O9 0.659118 0.397130 0.002768
O O10 0.714185 0.565694 0.966427
O O11 0.387643 0.041170 0.147704
O O12 0.362888 0.870917 0.297936
O O13 0.433648 0.872099 0.086037
O O14 0.588524 0.750000 0.875736
O O15 0.523813 0.601945 0.942238
O O16 0.378768 0.750000 0.536333
O O17 0.303366 0.872512 0.536624
O O18 0.965015 0.750000 0.631088
O O19 0.759498 0.250000 0.323620
#
# Coordination Sequence:
#
# PCOD9464254 Si02
#       8
#     8   8   8   8   8   8   8   8
#     4  10  20  37  59  90 124 165 213 261 316 381
#     4  11  22  39  63  92 129 173 224 272 326 387
#     4  10  23  40  66  91 125 162 207 264 321 394
#     4  11  21  36  58  87 123 156 214 257 315 375
#     4  10  21  37  57  81 122 171 213 260 319 373
#     4  10  20  34  58  89 122 156 202 262 318 383
#     4  10  20  35  56  83 121 167 212 262 314 369
#     4  10  22  43  66  91 124 161 201 255 328 394
#
# _framework density 21.984853000000001
#
# number of rings (size 3 to 8) (size 9 to 14) (size 15 to 20)
#    0.000    1.750    2.500    1.875    0.000    5.000 
#    0.000    2.500    0.000    0.000    0.000    0.000 
#    0.000    0.000    0.000    0.000    0.000    0.000 
#
# Total GULP energy -357060.862188 kJ/mol
# GULP energy per Si atom -5579.075972 kJ/mol
# Density = 2.193481 g / cm^3
# Si number density = 21.984853 Si / 1000 Ang^3
#
#
#
# Elastic Constant Matrix: (Units=GPa)
#
#
# Indices 1 2 3 4 5 6 
#
# 1 71.1580 46.6273 20.7122 0.0000 0.0000 0.0000
# 2 46.6273 125.5100 18.5954 0.0000 0.0000 0.0000
# 3 20.7122 18.5954 87.8257 0.0000 0.0000 0.0000
# 4 0.0000 0.0000 0.0000 13.1396 0.0000 0.0000
# 5 0.0000 0.0000 0.0000 0.0000 39.0944 0.0000
# 6 0.0000 0.0000 0.0000 0.0000 0.0000 13.9291
#
#
#
# Elastic Compliance Matrix: (Units=1/GPa)
#
#
# Indices 1 2 3 4 5 6 
#
# 1 0.019381 -0.006734 -0.003145 0.000000 0.000000 0.000000
# 2 -0.006734 0.010565 -0.000649 0.000000 0.000000 0.000000
# 3 -0.003145 -0.000649 0.012265 0.000000 0.000000 0.000000
# 4 0.000000 0.000000 0.000000 0.076106 0.000000 0.000000
# 5 0.000000 0.000000 0.000000 0.000000 0.025579 0.000000
# 6 0.000000 0.000000 0.000000 0.000000 0.000000 0.071792
#
#
# Mechanical properties :
#
#
# Convention : Reuss Voigt Hill
#
# Bulk Modulus (GPa) = 47.26808 50.70706 48.98757
# Shear Modulus (GPa) = 20.50883 26.46987 23.48935
#
# Velocity S-wave (km/s) = 3.05759 3.47364 3.27224
# Velocity P-wave (km/s) = 5.83199 6.26122 6.05041
#
# Compressibility (1/GPa) = 0.02115593
#
# Stress axis : x y z
#
# Youngs Moduli (GPa) = 51.59599 94.64834 81.53116
#
# Poissons Ratio (x) = 0.63739 0.25641
# Poissons Ratio (y) = 0.34746 0.05290
# Poissons Ratio (z) = 0.16227 0.06141
#
# Static dielectric constant tensor:
#      x y z
#    x 1.833500 0.000000 0.000000 
#    y 0.000000 1.895410 0.000000 
#    z 0.000000 0.000000 1.817490 
# 
# From -- ./inp_files/10504.got.cif
#   From: 2010.05.17/outbox.cif.g08.bks.cpg/sg62_6_cif.got.tgz:10504.got - 2010.06.03 15:25:27.
