data_PCOD9464275
_publ_section_title
;
Structure prediction by ZEFSAII (Michael W. Deem and Ramdas Pophale) SiO2 
 PCOD9464275
Probable space group: P N M A
;
_chemical_formula_sum "Si O2"
_cell_formula_units_Z 64
_cell_length_a 9.174196
_cell_length_b 27.856698
_cell_length_c 11.584939
_cell_angle_alpha 90.000000
_cell_angle_beta 90.000000
_cell_angle_gamma 90.000000
_cell_volume 2960.679534
_symmetry_space_group_name_H-M "P N M A"
_symmetry_group_IT_number 62
_symmetry_cell_setting 'orthorhombic'
loop_
_space_group_symop_operation_xyz
x,y,z
1/2-x,-y,1/2+z
1/2+x,1/2-y,1/2-z
-x,1/2+y,-z
-x,-y,-z
1/2+x,y,1/2-z
1/2-x,1/2+y,1/2+z
x,1/2-y,z
loop_
_atom_site_type_symbol
_atom_site_label
_atom_site_fract_x
_atom_site_fract_y
_atom_site_fract_z
Si Si1 0.017264 0.873284 0.403999
Si Si2 0.507026 0.679303 0.407603
Si Si3 0.500091 0.063994 0.588010
Si Si4 0.872933 0.305544 0.154809
Si Si5 0.457548 0.808777 0.882142
Si Si6 0.250430 0.999972 0.499681
Si Si7 0.499935 0.521678 0.153647
Si Si8 0.739095 0.330874 0.748928
O O1 0.001379 0.929474 0.423605
O O2 0.160068 0.866133 0.325671
O O3 0.025128 0.837435 0.511025
O O4 0.875564 0.857269 0.331385
O O5 0.502996 0.621094 0.402527
O O6 0.529965 0.692104 0.539877
O O7 0.646699 0.695358 0.332308
O O8 0.361649 0.696309 0.343179
O O9 0.642406 0.044800 0.521844
O O10 0.501188 0.038773 0.714399
O O11 0.357735 0.044585 0.522120
O O12 0.846011 0.250000 0.182487
O O13 0.711681 0.324714 0.128337
O O14 0.958222 0.323880 0.266080
O O15 0.463917 0.750000 0.897960
O O16 0.145602 0.004776 0.388412
O O17 0.145164 0.995277 0.610654
#
# Coordination Sequence:
#
# PCOD9464275 Si02
#       8
#     8   8   8   8   8   8   8   8
#     4  11  21  39  67  97 120 167 207 255 312 380
#     4  11  21  39  67  97 120 167 207 255 312 380
#     4  11  21  39  64  84 123 159 203 252 314 368
#     4  10  23  44  66  92 129 170 209 251 301 363
#     4  10  23  44  66  92 129 170 209 251 301 363
#     4  10  24  36  56  94 112 164 200 250 302 370
#     4  11  21  39  64  84 123 159 203 252 314 368
#     4  10  20  34  61 102 120 152 210 248 318 372
#
# _framework density 21.616658999999999
#
# number of rings (size 3 to 8) (size 9 to 14) (size 15 to 20)
#    0.000    1.500    3.750    2.250    1.750    0.000 
#    0.000   11.250    0.000    0.000    0.000    0.000 
#    0.000    0.000    0.000    0.000    0.000    0.000 
#
# Total GULP energy -357403.006253 kJ/mol
# GULP energy per Si atom -5584.421973 kJ/mol
# Density = 2.156746 g / cm^3
# Si number density = 21.616659 Si / 1000 Ang^3
#
#
#
# Elastic Constant Matrix: (Units=GPa)
#
#
# Indices 1 2 3 4 5 6 
#
# 1 89.1462 20.6958 16.1573 0.0000 0.0000 0.0000
# 2 20.6958 72.4037 30.2506 0.0000 0.0000 0.0000
# 3 16.1573 30.2506 103.0517 0.0000 0.0000 0.0000
# 4 0.0000 0.0000 0.0000 20.7817 0.0000 0.0000
# 5 0.0000 0.0000 0.0000 0.0000 40.8762 0.0000
# 6 0.0000 0.0000 0.0000 0.0000 0.0000 -16.2232
#
#
#
# Elastic Compliance Matrix: (Units=1/GPa)
#
#
# Indices 1 2 3 4 5 6 
#
# 1 0.012106 -0.003040 -0.001006 0.000000 0.000000 0.000000
# 2 -0.003040 0.016506 -0.004369 0.000000 0.000000 0.000000
# 3 -0.001006 -0.004369 0.011144 0.000000 0.000000 0.000000
# 4 0.000000 0.000000 0.000000 0.048119 0.000000 0.000000
# 5 0.000000 0.000000 0.000000 0.000000 0.024464 0.000000
# 6 0.000000 0.000000 0.000000 0.000000 0.000000 -0.061640
#
#
# Mechanical properties :
#
#
# Convention : Reuss Voigt Hill
#
# Bulk Modulus (GPa) = 43.61740 44.31211 43.96476
# Shear Modulus (GPa) = 66.51663 22.25346 44.38505
#
# Velocity S-wave (km/s) = 5.55318 3.21200 4.53623
# Velocity P-wave (km/s) = 7.83189 5.85658 6.91513
#
# Compressibility (1/GPa) = 0.02292663
#
# Stress axis : x y z
#
# Youngs Moduli (GPa) = 82.60666 60.58539 89.73512
#
# Poissons Ratio (x) = 0.18419 0.09024
# Poissons Ratio (y) = 0.25113 0.39201
# Poissons Ratio (z) = 0.08307 0.26467
#
# Static dielectric constant tensor:
#      x y z
#    x 1.818140 0.000000 0.000000 
#    y 0.000000 1.785020 0.000000 
#    z 0.000000 0.000000 1.783300 
# 
# From -- ./inp_files/11572.got.cif
#   From: 2010.05.17/outbox.cif.g08.bks.cpg/sg62_6_cif.got.tgz:11572.got - 2010.06.03 15:25:27.
