data_PCOD9464855
_publ_section_title
;
Structure prediction by ZEFSAII (Michael W. Deem and Ramdas Pophale) SiO2 
 PCOD9464855
Probable space group: P N M A
;
_chemical_formula_sum "Si O2"
_cell_formula_units_Z 48
_cell_length_a 12.915586
_cell_length_b 24.281359
_cell_length_c 5.622559
_cell_angle_alpha 90.000000
_cell_angle_beta 90.000000
_cell_angle_gamma 90.000000
_cell_volume 1763.279372
_symmetry_space_group_name_H-M "P N M A"
_symmetry_group_IT_number 62
_symmetry_cell_setting 'orthorhombic'
loop_
_space_group_symop_operation_xyz
x,y,z
1/2-x,-y,1/2+z
1/2+x,1/2-y,1/2-z
-x,1/2+y,-z
-x,-y,-z
1/2+x,y,1/2-z
1/2-x,1/2+y,1/2+z
x,1/2-y,z
loop_
_atom_site_type_symbol
_atom_site_label
_atom_site_fract_x
_atom_site_fract_y
_atom_site_fract_z
Si Si1 0.699004 0.368979 0.585664
Si Si2 0.323308 0.313436 0.285500
Si Si3 0.897635 0.690877 0.455852
Si Si4 0.788130 0.526174 0.376641
Si Si5 0.470269 0.401360 0.469464
Si Si6 0.493499 0.428257 0.976445
O O1 0.799242 0.352064 0.440722
O O2 0.648292 0.314056 0.691299
O O3 0.730396 0.410133 0.797856
O O4 0.596857 0.396409 0.465741
O O5 0.349902 0.250000 0.240268
O O6 0.206707 0.312497 0.390754
O O7 0.409481 0.343402 0.447052
O O8 0.947881 0.750000 0.495232
O O9 0.967191 0.636692 0.483788
O O10 0.734785 0.503901 0.620676
O O11 0.906870 0.532619 0.463109
O O12 0.444653 0.431595 0.715056
O O13 0.441267 0.433440 0.231344
#
# Coordination Sequence:
#
# PCOD9464855 Si02
#       6
#     8   8   8   8   8   8
#     4  10  22  40  63  87 131 165 207 265 323 368
#     4  11  23  37  61  93 126 170 219 255 307 382
#     4   9  19  35  57  84 118 161 209 251 304 372
#     4  10  20  36  69  99 117 161 221 261 320 388
#     4  10  22  38  60  87 126 167 203 251 310 367
#     4  10  21  40  61  88 126 164 203 260 319 363
#
# _framework density 27.222003999999998
#
# number of rings (size 3 to 8) (size 9 to 14) (size 15 to 20)
#    0.000    2.333    1.667    2.500    4.667    4.000 
#    0.000    0.000    0.000   14.000    0.000    0.000 
#    0.000    0.000    0.000    0.000    0.000    0.000 
#
# Total GULP energy -268130.268108 kJ/mol
# GULP energy per Si atom -5586.047252 kJ/mol
# Density = 2.716005 g / cm^3
# Si number density = 27.222004 Si / 1000 Ang^3
#
#
#
# Elastic Constant Matrix: (Units=GPa)
#
#
# Indices 1 2 3 4 5 6 
#
# 1 121.6610 39.2299 35.3729 0.0000 0.0000 0.0000
# 2 39.2299 145.4916 51.6570 0.0000 0.0000 0.0000
# 3 35.3729 51.6570 201.8441 0.0000 0.0000 0.0000
# 4 0.0000 0.0000 0.0000 16.1716 0.0000 0.0000
# 5 0.0000 0.0000 0.0000 0.0000 23.3091 0.0000
# 6 0.0000 0.0000 0.0000 0.0000 0.0000 36.4031
#
#
#
# Elastic Compliance Matrix: (Units=1/GPa)
#
#
# Indices 1 2 3 4 5 6 
#
# 1 0.009210 -0.002101 -0.001076 0.000000 0.000000 0.000000
# 2 -0.002101 0.008040 -0.001689 0.000000 0.000000 0.000000
# 3 -0.001076 -0.001689 0.005575 0.000000 0.000000 0.000000
# 4 0.000000 0.000000 0.000000 0.061837 0.000000 0.000000
# 5 0.000000 0.000000 0.000000 0.000000 0.042902 0.000000
# 6 0.000000 0.000000 0.000000 0.000000 0.000000 0.027470
#
#
# Mechanical properties :
#
#
# Convention : Reuss Voigt Hill
#
# Bulk Modulus (GPa) = 76.38673 80.16848 78.27760
# Shear Modulus (GPa) = 29.56287 38.02589 33.79438
#
# Velocity S-wave (km/s) = 3.29901 3.74154 3.52722
# Velocity P-wave (km/s) = 6.52939 6.94113 6.73841
#
# Compressibility (1/GPa) = 0.01309128
#
# Stress axis : x y z
#
# Youngs Moduli (GPa) = 108.57719 124.38415 179.36345
#
# Poissons Ratio (x) = 0.26136 0.19305
# Poissons Ratio (y) = 0.22815 0.30300
# Poissons Ratio (z) = 0.11686 0.21012
#
# Static dielectric constant tensor:
#      x y z
#    x 2.130600 0.000000 0.000000 
#    y 0.000000 2.142920 0.000000 
#    z 0.000000 0.000000 2.290200 
# 
# From -- ./inp_files/1164.got.cif
#   From: 2010.05.17/outbox.cif.g08.bks.cpg/sg62_1_cif.got.tgz:1164.got - 2010.06.03 15:25:27.
