data_PCOD9464354
_publ_section_title
;
Structure prediction by ZEFSAII (Michael W. Deem and Ramdas Pophale) SiO2 
 PCOD9464354
Probable space group: P N M A
;
_chemical_formula_sum "Si O2"
_cell_formula_units_Z 48
_cell_length_a 5.000990
_cell_length_b 16.456645
_cell_length_c 24.959419
_cell_angle_alpha 90.000000
_cell_angle_beta 90.000000
_cell_angle_gamma 90.000000
_cell_volume 2054.148130
_symmetry_space_group_name_H-M "P N M A"
_symmetry_group_IT_number 62
_symmetry_cell_setting 'orthorhombic'
loop_
_space_group_symop_operation_xyz
x,y,z
1/2-x,-y,1/2+z
1/2+x,1/2-y,1/2-z
-x,1/2+y,-z
-x,-y,-z
1/2+x,y,1/2-z
1/2-x,1/2+y,1/2+z
x,1/2-y,z
loop_
_atom_site_type_symbol
_atom_site_label
_atom_site_fract_x
_atom_site_fract_y
_atom_site_fract_z
Si Si1 0.252155 0.660867 0.351754
Si Si2 0.421845 0.154903 0.465964
Si Si3 0.270014 0.883976 0.086231
Si Si4 0.939525 0.448003 0.445903
Si Si5 0.817919 0.837339 0.712209
Si Si6 0.549562 0.508710 0.214697
O O1 0.233630 0.750000 0.326747
O O2 0.551844 0.644191 0.370881
O O3 0.138978 0.589080 0.315576
O O4 0.055086 0.657113 0.403038
O O5 0.406059 0.250000 0.453549
O O6 0.342410 0.140303 0.528209
O O7 0.713609 0.118486 0.456434
O O8 0.211231 0.099406 0.433632
O O9 0.320683 0.980740 0.090955
O O10 0.000000 0.500000 0.500000
O O11 0.521564 0.837763 0.736911
O O12 0.860024 0.750000 0.684126
O O13 0.882318 0.923415 0.685543
O O14 0.243239 0.508248 0.232978
#
# Coordination Sequence:
#
# PCOD9464354 Si02
#       6
#     8   8   8   8   8   8
#     4  12  24  37  56  81 111 151 192 237 292 340
#     4  11  20  34  58  86 113 145 190 238 283 337
#     4  11  22  38  56  80 112 147 192 238 279 331
#     4  10  20  35  55  81 110 146 183 227 284 337
#     4   8  14  27  50  76  97 120 158 211 264 317
#     4  10  21  37  56  80 109 143 185 233 286 342
#
# _framework density 23.367349000000001
#
# number of rings (size 3 to 8) (size 9 to 14) (size 15 to 20)
#    0.000    1.667    0.000    8.000    0.000    0.667 
#    0.000    0.000    0.000    6.000    0.000    0.000 
#    0.000    0.000    0.000    0.000    0.000    0.000 
#
# Total GULP energy -268318.665583 kJ/mol
# GULP energy per Si atom -5589.972200 kJ/mol
# Density = 2.331416 g / cm^3
# Si number density = 23.367349 Si / 1000 Ang^3
#
#
#
# Elastic Constant Matrix: (Units=GPa)
#
#
# Indices 1 2 3 4 5 6 
#
# 1 94.1662 -12.3200 -13.2432 0.0000 0.0000 0.0000
# 2 -12.3200 161.3920 2.9125 0.0000 0.0000 0.0000
# 3 -13.2432 2.9125 26.0493 0.0000 0.0000 0.0000
# 4 0.0000 0.0000 0.0000 22.9841 0.0000 0.0000
# 5 0.0000 0.0000 0.0000 0.0000 7.9959 0.0000
# 6 0.0000 0.0000 0.0000 0.0000 0.0000 88.8009
#
#
#
# Elastic Compliance Matrix: (Units=1/GPa)
#
#
# Indices 1 2 3 4 5 6 
#
# 1 0.011533 0.000776 0.005777 0.000000 0.000000 0.000000
# 2 0.000776 0.006261 -0.000305 0.000000 0.000000 0.000000
# 3 0.005777 -0.000305 0.041360 0.000000 0.000000 0.000000
# 4 0.000000 0.000000 0.000000 0.043508 0.000000 0.000000
# 5 0.000000 0.000000 0.000000 0.000000 0.125065 0.000000
# 6 0.000000 0.000000 0.000000 0.000000 0.000000 0.011261
#
#
# Mechanical properties :
#
#
# Convention : Reuss Voigt Hill
#
# Bulk Modulus (GPa) = 13.95694 26.25625 20.10659
# Shear Modulus (GPa) = 19.96995 44.24005 32.10500
#
# Velocity S-wave (km/s) = 2.92654 4.35586 3.71067
# Velocity P-wave (km/s) = 4.17197 6.04638 5.19442
#
# Compressibility (1/GPa) = 0.07164895
#
# Stress axis : x y z
#
# Youngs Moduli (GPa) = 86.70402 159.72261 24.17815
#
# Poissons Ratio (x) = -0.12397 -0.13967
# Poissons Ratio (y) = -0.06730 0.00738
# Poissons Ratio (z) = -0.50087 0.04878
#
# Static dielectric constant tensor:
#      x y z
#    x 1.848180 0.000000 0.000000 
#    y 0.000000 1.890980 0.000000 
#    z 0.000000 0.000000 1.947130 
# 
# From -- ./inp_files/30419.got.cif
#   From: 2010.05.17/outbox.cif.g08.bks.cpg/sg62_16_cif.got.tgz:30419.got - 2010.06.03 15:25:27.
