data_PCOD9464147
_publ_section_title
;
Structure prediction by ZEFSAII (Michael W. Deem and Ramdas Pophale) SiO2 
 PCOD9464147
Probable space group: P N M A
;
_chemical_formula_sum "Si O2"
_cell_formula_units_Z 64
_cell_length_a 23.918307
_cell_length_b 7.989691
_cell_length_c 14.607263
_cell_angle_alpha 90.000000
_cell_angle_beta 90.000000
_cell_angle_gamma 90.000000
_cell_volume 2791.446238
_symmetry_space_group_name_H-M "P N M A"
_symmetry_group_IT_number 62
_symmetry_cell_setting 'orthorhombic'
loop_
_space_group_symop_operation_xyz
x,y,z
1/2-x,-y,1/2+z
1/2+x,1/2-y,1/2-z
-x,1/2+y,-z
-x,-y,-z
1/2+x,y,1/2-z
1/2-x,1/2+y,1/2+z
x,1/2-y,z
loop_
_atom_site_type_symbol
_atom_site_label
_atom_site_fract_x
_atom_site_fract_y
_atom_site_fract_z
Si Si1 0.047450 0.051719 0.845133
Si Si2 0.287079 0.943698 0.171356
Si Si3 0.671693 0.455829 0.630972
Si Si4 0.632303 0.553393 0.987702
Si Si5 0.924016 0.444766 0.869902
Si Si6 0.591674 0.053929 0.166716
Si Si7 0.309713 0.943278 0.564115
Si Si8 0.032742 0.547672 0.636641
O O1 0.046774 0.250000 0.863335
O O2 0.107315 0.984627 0.876334
O O3 0.987392 0.986175 0.880099
O O4 0.047343 0.023218 0.736097
O O5 0.303707 0.750000 0.171174
O O6 0.302712 0.010660 0.271893
O O7 0.319512 0.027356 0.086879
O O8 0.222501 0.961110 0.144034
O O9 0.671640 0.250000 0.630283
O O10 0.703088 0.507245 0.538300
O O11 0.625327 0.750000 0.003111
O O12 0.577112 0.483676 0.936422
O O13 0.637399 0.476274 0.088537
O O14 0.923133 0.250000 0.896756
O O15 0.907497 0.458120 0.762457
O O16 0.876052 0.542247 0.922516
O O17 0.590183 0.250000 0.190093
O O18 0.531918 0.005365 0.121529
O O19 0.293248 0.750000 0.571187
O O20 0.037474 0.750000 0.640284
#
# Coordination Sequence:
#
# PCOD9464147 Si02
#       8
#     8   8   8   8   8   8   8   8
#     4   9  17  34  61  89 118 157 201 244 301 364
#     4  11  23  42  65  88 117 157 209 259 303 360
#     4   9  20  40  66  91 117 155 198 247 303 360
#     4  11  21  34  54  85 121 158 200 251 309 360
#     4  10  21  38  60  89 124 158 199 252 306 365
#     4  10  20  34  54  83 120 164 205 242 293 358
#     4  11  24  43  64  88 121 159 202 250 307 367
#     4   9  18  31  50  82 122 158 197 245 298 355
#
# _framework density 22.927181999999998
#
# number of rings (size 3 to 8) (size 9 to 14) (size 15 to 20)
#    0.000    2.000    1.250    2.250    0.000    3.000 
#    0.000    7.500    0.000    0.000    0.000    0.000 
#    0.000    0.000    0.000    0.000    0.000    0.000 
#
# Total GULP energy -357424.212539 kJ/mol
# GULP energy per Si atom -5584.753321 kJ/mol
# Density = 2.287500 g / cm^3
# Si number density = 22.927182 Si / 1000 Ang^3
#
#
#
# Elastic Constant Matrix: (Units=GPa)
#
#
# Indices 1 2 3 4 5 6 
#
# 1 65.9664 0.1821 52.8599 0.0000 0.0000 0.0000
# 2 0.1821 29.6876 2.8022 0.0000 0.0000 0.0000
# 3 52.8599 2.8022 82.6441 0.0000 0.0000 0.0000
# 4 0.0000 0.0000 0.0000 15.1209 0.0000 0.0000
# 5 0.0000 0.0000 0.0000 0.0000 25.7920 0.0000
# 6 0.0000 0.0000 0.0000 0.0000 0.0000 22.2651
#
#
#
# Elastic Compliance Matrix: (Units=1/GPa)
#
#
# Indices 1 2 3 4 5 6 
#
# 1 0.031183 0.001697 -0.020002 0.000000 0.000000 0.000000
# 2 0.001697 0.033885 -0.002234 0.000000 0.000000 0.000000
# 3 -0.020002 -0.002234 0.024969 0.000000 0.000000 0.000000
# 4 0.000000 0.000000 0.000000 0.066134 0.000000 0.000000
# 5 0.000000 0.000000 0.000000 0.000000 0.038772 0.000000
# 6 0.000000 0.000000 0.000000 0.000000 0.000000 0.044913
#
#
# Mechanical properties :
#
#
# Convention : Reuss Voigt Hill
#
# Bulk Modulus (GPa) = 20.42593 32.22072 26.32333
# Shear Modulus (GPa) = 16.82065 20.79918 18.80991
#
# Velocity S-wave (km/s) = 2.71155 3.01522 2.86740
# Velocity P-wave (km/s) = 4.32801 5.11919 4.74013
#
# Compressibility (1/GPa) = 0.04895737
#
# Stress axis : x y z
#
# Youngs Moduli (GPa) = 32.06917 29.51192 40.04899
#
# Poissons Ratio (x) = -0.05007 0.80107
# Poissons Ratio (y) = -0.05441 0.08948
# Poissons Ratio (z) = 0.64145 0.06593
#
# Static dielectric constant tensor:
#      x y z
#    x 1.899370 0.000000 0.000000 
#    y 0.000000 1.803600 0.000000 
#    z 0.000000 0.000000 1.847480 
# 
# From -- ./inp_files/20949.got.cif
#   From: 2010.05.17/outbox.cif.g08.bks.cpg/sg62_11_cif.got.tgz:20949.got - 2010.06.03 15:25:27.
