data_PCOD9464745
_publ_section_title
;
Structure prediction by ZEFSAII (Michael W. Deem and Ramdas Pophale) SiO2 
 PCOD9464745
Probable space group: P N M A
;
_chemical_formula_sum "Si O2"
_cell_formula_units_Z 48
_cell_length_a 19.599646
_cell_length_b 8.352386
_cell_length_c 15.570692
_cell_angle_alpha 90.000000
_cell_angle_beta 90.000000
_cell_angle_gamma 90.000000
_cell_volume 2548.981587
_symmetry_space_group_name_H-M "P N M A"
_symmetry_group_IT_number 62
_symmetry_cell_setting 'orthorhombic'
loop_
_space_group_symop_operation_xyz
x,y,z
1/2-x,-y,1/2+z
1/2+x,1/2-y,1/2-z
-x,1/2+y,-z
-x,-y,-z
1/2+x,y,1/2-z
1/2-x,1/2+y,1/2+z
x,1/2-y,z
loop_
_atom_site_type_symbol
_atom_site_label
_atom_site_fract_x
_atom_site_fract_y
_atom_site_fract_z
Si Si1 0.076488 0.058199 0.775657
Si Si2 0.172904 0.943151 0.624851
Si Si3 0.573307 0.442024 0.219852
Si Si4 0.074521 0.056466 0.970818
Si Si5 0.425081 0.057860 0.971644
Si Si6 0.328931 0.945645 0.625463
O O1 0.079176 0.250000 0.774205
O O2 0.088034 0.002260 0.873499
O O3 0.131822 0.992727 0.709400
O O4 0.001282 0.005195 0.745869
O O5 0.174330 0.750000 0.621483
O O6 0.130052 0.998748 0.541800
O O7 0.250847 0.000655 0.625758
O O8 0.570603 0.250000 0.221139
O O9 0.589993 0.498124 0.123993
O O10 0.628386 0.495960 0.290658
O O11 0.074526 0.250000 0.970885
O O12 0.130114 0.002668 0.040517
O O13 0.000000 0.000000 0.000000
O O14 0.425494 0.250000 0.971520
O O15 0.500000 0.000000 0.000000
O O16 0.328402 0.750000 0.625487
#
# Coordination Sequence:
#
# PCOD9464745 Si02
#       6
#     8   8   8   8   8   8
#     4  11  22  35  58  89 118 148 191 242 288 341
#     4  10  22  40  60  82 114 157 194 234 291 346
#     4  11  21  36  61  86 114 154 195 238 287 342
#     4  10  20  36  59  86 115 149 189 235 284 341
#     4  11  22  36  59  87 117 152 197 241 285 343
#     4   9  20  39  60  84 116 153 193 235 288 348
#
# _framework density 18.831050000000001
#
# number of rings (size 3 to 8) (size 9 to 14) (size 15 to 20)
#    0.000    1.667    3.333    1.500    0.000    2.667 
#    0.000    4.167    0.000    0.000    0.000    0.000 
#    0.000    0.000    0.000    0.000    0.000    0.000 
#
# Total GULP energy -268153.541075 kJ/mol
# GULP energy per Si atom -5586.532106 kJ/mol
# Density = 1.878819 g / cm^3
# Si number density = 18.831050 Si / 1000 Ang^3
#
#
#
# Elastic Constant Matrix: (Units=GPa)
#
#
# Indices 1 2 3 4 5 6 
#
# 1 197.2851 12.7865 118.6312 0.0000 0.0000 0.0000
# 2 12.7865 8.2118 12.7276 0.0000 0.0000 0.0000
# 3 118.6312 12.7276 219.0676 0.0000 0.0000 0.0000
# 4 0.0000 0.0000 0.0000 26.2268 0.0000 0.0000
# 5 0.0000 0.0000 0.0000 0.0000 33.5394 0.0000
# 6 0.0000 0.0000 0.0000 0.0000 0.0000 16.3440
#
#
#
# Elastic Compliance Matrix: (Units=1/GPa)
#
#
# Indices 1 2 3 4 5 6 
#
# 1 0.007789 -0.006144 -0.003861 0.000000 0.000000 0.000000
# 2 -0.006144 0.138672 -0.004730 0.000000 0.000000 0.000000
# 3 -0.003861 -0.004730 0.006930 0.000000 0.000000 0.000000
# 4 0.000000 0.000000 0.000000 0.038129 0.000000 0.000000
# 5 0.000000 0.000000 0.000000 0.000000 0.029816 0.000000
# 6 0.000000 0.000000 0.000000 0.000000 0.000000 0.061185
#
#
# Mechanical properties :
#
#
# Convention : Reuss Voigt Hill
#
# Bulk Modulus (GPa) = 8.06954 79.20612 43.63783
# Shear Modulus (GPa) = 14.15244 33.91666 24.03455
#
# Velocity S-wave (km/s) = 2.74441 4.24854 3.57645
# Velocity P-wave (km/s) = 3.78641 8.13754 6.34652
#
# Compressibility (1/GPa) = 0.12392278
#
# Stress axis : x y z
#
# Youngs Moduli (GPa) = 128.39385 7.21125 144.29360
#
# Poissons Ratio (x) = 0.04430 0.55709
# Poissons Ratio (y) = 0.78879 0.68248
# Poissons Ratio (z) = 0.49570 0.03411
#
# Static dielectric constant tensor:
#      x y z
#    x 1.617140 0.000000 0.000000 
#    y 0.000000 1.657520 0.000000 
#    z 0.000000 0.000000 1.645910 
# 
# From -- ./inp_files/19593.got.cif
#   From: 2010.05.17/outbox.cif.g08.bks.cpg/sg62_10_cif.got.tgz:19593.got - 2010.06.03 15:25:27.
