data_PCOD9464382
_publ_section_title
;
Structure prediction by ZEFSAII (Michael W. Deem and Ramdas Pophale) SiO2 
 PCOD9464382
Probable space group: P N M A
;
_chemical_formula_sum "Si O2"
_cell_formula_units_Z 40
_cell_length_a 18.850659
_cell_length_b 8.903308
_cell_length_c 13.781429
_cell_angle_alpha 90.000000
_cell_angle_beta 90.000000
_cell_angle_gamma 90.000000
_cell_volume 2312.981648
_symmetry_space_group_name_H-M "P N M A"
_symmetry_group_IT_number 62
_symmetry_cell_setting 'orthorhombic'
loop_
_space_group_symop_operation_xyz
x,y,z
1/2-x,-y,1/2+z
1/2+x,1/2-y,1/2-z
-x,1/2+y,-z
-x,-y,-z
1/2+x,y,1/2-z
1/2-x,1/2+y,1/2+z
x,1/2-y,z
loop_
_atom_site_type_symbol
_atom_site_label
_atom_site_fract_x
_atom_site_fract_y
_atom_site_fract_z
Si Si1 0.791236 0.929926 0.396005
Si Si2 0.353015 0.069510 0.294887
Si Si3 0.502060 0.070906 0.393449
Si Si4 0.639912 0.571384 0.300603
Si Si5 0.217448 0.930099 0.397395
O O1 0.799670 0.750000 0.396834
O O2 0.709480 0.962492 0.365501
O O3 0.838730 0.001536 0.311317
O O4 0.805133 0.000259 0.500662
O O5 0.345715 0.250000 0.292492
O O6 0.430281 0.030502 0.335911
O O7 0.292269 0.000954 0.364137
O O8 0.503925 0.250000 0.402664
O O9 0.500000 0.000000 0.500000
O O10 0.571493 0.014660 0.337488
O O11 0.627104 0.750000 0.307865
O O12 0.662916 0.536733 0.190245
O O13 0.224608 0.750000 0.404044
#
# Coordination Sequence:
#
# PCOD9464382 Si02
#       5
#     8   8   8   8   8
#     4  10  20  35  56  81 106 138 178 219 263 312
#     4  10  21  36  53  78 109 139 176 220 260 310
#     4  11  23  36  54  79 107 139 174 213 262 313
#     4   9  20  36  53  77 108 137 173 217 259 308
#     4  10  20  35  56  81 107 139 176 217 264 313
#
# _framework density 17.293696000000001
#
# number of rings (size 3 to 8) (size 9 to 14) (size 15 to 20)
#    0.000    2.000    0.000    4.800    0.000   12.800 
#    0.000    1.000    0.000    0.000    0.000    0.000 
#    0.000    0.000    0.000    0.000    0.000    0.000 
#
# Total GULP energy -223406.238993 kJ/mol
# GULP energy per Si atom -5585.155975 kJ/mol
# Density = 1.725433 g / cm^3
# Si number density = 17.293696 Si / 1000 Ang^3
#
#
#
# Elastic Constant Matrix: (Units=GPa)
#
#
# Indices 1 2 3 4 5 6 
#
# 1 134.5084 70.4530 78.6209 0.0000 0.0000 0.0000
# 2 70.4530 71.1469 65.8680 0.0000 0.0000 0.0000
# 3 78.6209 65.8680 148.4977 0.0000 0.0000 0.0000
# 4 0.0000 0.0000 0.0000 36.1822 0.0000 0.0000
# 5 0.0000 0.0000 0.0000 0.0000 10.6130 0.0000
# 6 0.0000 0.0000 0.0000 0.0000 0.0000 32.5259
#
#
#
# Elastic Compliance Matrix: (Units=1/GPa)
#
#
# Indices 1 2 3 4 5 6 
#
# 1 0.015951 -0.013535 -0.002441 0.000000 0.000000 0.000000
# 2 -0.013535 0.035334 -0.008507 0.000000 0.000000 0.000000
# 3 -0.002441 -0.008507 0.011800 0.000000 0.000000 0.000000
# 4 0.000000 0.000000 0.000000 0.027638 0.000000 0.000000
# 5 0.000000 0.000000 0.000000 0.000000 0.094224 0.000000
# 6 0.000000 0.000000 0.000000 0.000000 0.000000 0.030745
#
#
# Mechanical properties :
#
#
# Convention : Reuss Voigt Hill
#
# Bulk Modulus (GPa) = 70.82968 87.11519 78.97243
# Shear Modulus (GPa) = 18.56216 25.14493 21.85355
#
# Velocity S-wave (km/s) = 3.27975 3.81726 3.55867
# Velocity P-wave (km/s) = 7.44233 8.36134 7.91518
#
# Compressibility (1/GPa) = 0.01411838
#
# Stress axis : x y z
#
# Youngs Moduli (GPa) = 62.69224 28.30117 84.74531
#
# Poissons Ratio (x) = 0.38306 0.20690
# Poissons Ratio (y) = 0.84854 0.72092
# Poissons Ratio (z) = 0.15306 0.24076
#
# Static dielectric constant tensor:
#      x y z
#    x 1.561080 0.000000 0.000000 
#    y 0.000000 1.574460 0.000000 
#    z 0.000000 0.000000 1.573280 
# 
# From -- ./inp_files/13822.got.cif
#   From: 2010.05.17/outbox.cif.g08.bks.cpg/sg62_7_cif.got.tgz:13822.got - 2010.06.03 15:25:27.
