data_PCOD9464012
_publ_section_title
;
Structure prediction by ZEFSAII (Michael W. Deem and Ramdas Pophale) SiO2 
 PCOD9464012
Probable space group: P N M A
;
_chemical_formula_sum "Si O2"
_cell_formula_units_Z 48
_cell_length_a 30.148463
_cell_length_b 14.071389
_cell_length_c 5.474185
_cell_angle_alpha 90.000000
_cell_angle_beta 90.000000
_cell_angle_gamma 90.000000
_cell_volume 2322.317612
_symmetry_space_group_name_H-M "P N M A"
_symmetry_group_IT_number 62
_symmetry_cell_setting 'orthorhombic'
loop_
_space_group_symop_operation_xyz
x,y,z
1/2-x,-y,1/2+z
1/2+x,1/2-y,1/2-z
-x,1/2+y,-z
-x,-y,-z
1/2+x,y,1/2-z
1/2-x,1/2+y,1/2+z
x,1/2-y,z
loop_
_atom_site_type_symbol
_atom_site_label
_atom_site_fract_x
_atom_site_fract_y
_atom_site_fract_z
Si Si1 0.449387 0.497560 0.741276
Si Si2 0.997078 0.146296 0.458819
Si Si3 0.174024 0.750000 0.266112
Si Si4 0.269671 0.957294 0.844180
Si Si5 0.139933 0.557231 0.461552
Si Si6 0.409624 0.142200 0.355239
Si Si7 0.731785 0.750000 0.728245
O O1 0.470609 0.601162 0.756747
O O2 0.406193 0.496478 0.915121
O O3 0.429321 0.442783 0.513591
O O4 0.490020 0.429263 0.826300
O O5 0.011565 0.250000 0.540338
O O6 0.947613 0.153769 0.351483
O O7 0.146655 0.651654 0.295984
O O8 0.200268 0.750000 0.011843
O O9 0.206555 0.750000 0.507828
O O10 0.256938 0.010518 0.589717
O O11 0.319527 0.988084 0.912272
O O12 0.260296 0.846627 0.793574
O O13 0.135040 0.603921 0.729276
O O14 0.405709 0.250000 0.455318
#
# Coordination Sequence:
#
# PCOD9464012 Si02
#       7
#     8   8   4   8   8   8   4
#     4  10  21  35  59  86 118 156 197 256 314 368
#     4   9  19  38  56  83 118 157 202 242 308 381
#     4  12  24  40  70  98 125 164 218 269 330 374
#     4  12  25  44  68  96 130 172 216 262 325 390
#     4  11  24  37  59  95 121 155 207 267 316 376
#     4  10  20  33  59  89 116 150 201 257 310 367
#     4  12  24  46  68  94 127 174 216 265 324 390
#
# _framework density 20.66901
#
# number of rings (size 3 to 8) (size 9 to 14) (size 15 to 20)
#    0.000    1.333    4.167    1.000    7.000    0.000 
#    1.500    0.000    1.833    0.000    0.000    0.000 
#    0.000    0.000    0.000    0.000    0.000    0.000 
#
# Total GULP energy -267556.672081 kJ/mol
# GULP energy per Si atom -5574.097335 kJ/mol
# Density = 2.062197 g / cm^3
# Si number density = 20.669010 Si / 1000 Ang^3
#
#
#
# Elastic Constant Matrix: (Units=GPa)
#
#
# Indices 1 2 3 4 5 6 
#
# 1 76.8985 42.3348 12.4635 0.0000 0.0000 0.0000
# 2 42.3348 104.5461 1.3026 0.0000 0.0000 0.0000
# 3 12.4635 1.3026 65.1564 0.0000 0.0000 0.0000
# 4 0.0000 0.0000 0.0000 22.5309 0.0000 0.0000
# 5 0.0000 0.0000 0.0000 0.0000 32.7133 0.0000
# 6 0.0000 0.0000 0.0000 0.0000 0.0000 16.9957
#
#
#
# Elastic Compliance Matrix: (Units=1/GPa)
#
#
# Indices 1 2 3 4 5 6 
#
# 1 0.017371 -0.006994 -0.003183 0.000000 0.000000 0.000000
# 2 -0.006994 0.012384 0.001090 0.000000 0.000000 0.000000
# 3 -0.003183 0.001090 0.015935 0.000000 0.000000 0.000000
# 4 0.000000 0.000000 0.000000 0.044383 0.000000 0.000000
# 5 0.000000 0.000000 0.000000 0.000000 0.030569 0.000000
# 6 0.000000 0.000000 0.000000 0.000000 0.000000 0.058838
#
#
# Mechanical properties :
#
#
# Convention : Reuss Voigt Hill
#
# Bulk Modulus (GPa) = 36.34339 39.86699 38.10519
# Shear Modulus (GPa) = 24.17497 27.14798 25.66147
#
# Velocity S-wave (km/s) = 3.42369 3.62810 3.52738
# Velocity P-wave (km/s) = 5.76633 6.07297 5.92164
#
# Compressibility (1/GPa) = 0.02751532
#
# Stress axis : x y z
#
# Youngs Moduli (GPa) = 57.56836 80.75013 62.75595
#
# Poissons Ratio (x) = 0.56480 0.19975
# Poissons Ratio (y) = 0.40266 -0.06843
# Poissons Ratio (z) = 0.18324 -0.08805
#
# Static dielectric constant tensor:
#      x y z
#    x 1.748150 0.000000 0.000000 
#    y 0.000000 1.795420 0.000000 
#    z 0.000000 0.000000 1.872520 
# 
# From -- ./inp_files/3216.got.cif
#   From: 2010.05.17/outbox.cif.g08.bks.cpg/sg62_2_cif.got.tgz:3216.got - 2010.06.03 15:25:27.
