data_PCOD9464287
_publ_section_title
;
Structure prediction by ZEFSAII (Michael W. Deem and Ramdas Pophale) SiO2 
 PCOD9464287
Probable space group: P N M A
;
_chemical_formula_sum "Si O2"
_cell_formula_units_Z 64
_cell_length_a 29.574365
_cell_length_b 8.372502
_cell_length_c 13.346302
_cell_angle_alpha 90.000000
_cell_angle_beta 90.000000
_cell_angle_gamma 90.000000
_cell_volume 3304.696925
_symmetry_space_group_name_H-M "P N M A"
_symmetry_group_IT_number 62
_symmetry_cell_setting 'orthorhombic'
loop_
_space_group_symop_operation_xyz
x,y,z
1/2-x,-y,1/2+z
1/2+x,1/2-y,1/2-z
-x,1/2+y,-z
-x,-y,-z
1/2+x,y,1/2-z
1/2-x,1/2+y,1/2+z
x,1/2-y,z
loop_
_atom_site_type_symbol
_atom_site_label
_atom_site_fract_x
_atom_site_fract_y
_atom_site_fract_z
Si Si1 0.243814 0.060512 0.013786
Si Si2 0.454513 0.442972 0.878858
Si Si3 0.123458 0.941310 0.778034
Si Si4 0.779756 0.930568 0.288780
Si Si5 0.304609 0.068901 0.854334
Si Si6 0.858971 0.558693 0.007416
Si Si7 0.116033 0.556232 0.211141
Si Si8 0.556982 0.942292 0.898547
O O1 0.242933 0.250000 0.992741
O O2 0.255338 0.035170 0.128469
O O3 0.287701 0.989323 0.956298
O O4 0.193428 0.996861 0.991505
O O5 0.455909 0.250000 0.879620
O O6 0.426494 0.490618 0.780380
O O7 0.505407 0.507343 0.878166
O O8 0.432621 0.493835 0.986231
O O9 0.122068 0.750000 0.778624
O O10 0.089057 0.000302 0.691508
O O11 0.173133 0.999562 0.746857
O O12 0.116233 0.999848 0.892025
O O13 0.786273 0.750000 0.326122
O O14 0.743661 0.921784 0.200080
O O15 0.321766 0.250000 0.876428
O O16 0.340801 0.000375 0.777373
O O17 0.857195 0.750000 0.010771
O O18 0.880810 0.507780 0.901684
O O19 0.117640 0.750000 0.203850
O O20 0.559767 0.750000 0.898399
#
# Coordination Sequence:
#
# PCOD9464287 Si02
#       8
#     8   8   8   8   8   8   8   8
#     4  10  20  35  52  74 109 153 191 230 280 329
#     4   9  19  37  63  89 113 143 181 229 286 344
#     4  11  23  38  59  84 113 152 193 232 282 345
#     4  11  21  35  53  80 113 149 191 234 277 324
#     4   9  18  33  53  75 108 150 189 228 272 326
#     4  11  22  37  56  81 116 153 194 240 281 326
#     4  10  20  36  59  84 112 151 193 230 282 346
#     4   9  20  39  62  87 114 144 181 229 288 345
#
# _framework density 19.366375999999999
#
# number of rings (size 3 to 8) (size 9 to 14) (size 15 to 20)
#    0.000    2.000    2.500    1.125    1.750    2.000 
#    0.000    1.250    0.000    0.000    0.000    0.000 
#    0.000    0.000    0.000    0.000    0.000    0.000 
#
# Total GULP energy -356648.818933 kJ/mol
# GULP energy per Si atom -5572.637796 kJ/mol
# Density = 1.932230 g / cm^3
# Si number density = 19.366376 Si / 1000 Ang^3
#
#
#
# Elastic Constant Matrix: (Units=GPa)
#
#
# Indices 1 2 3 4 5 6 
#
# 1 41.4785 5.8110 15.2123 0.0000 0.0000 0.0000
# 2 5.8110 10.1952 2.4132 0.0000 0.0000 0.0000
# 3 15.2123 2.4132 49.3808 0.0000 0.0000 0.0000
# 4 0.0000 0.0000 0.0000 21.7698 0.0000 0.0000
# 5 0.0000 0.0000 0.0000 0.0000 31.7905 0.0000
# 6 0.0000 0.0000 0.0000 0.0000 0.0000 19.4299
#
#
#
# Elastic Compliance Matrix: (Units=1/GPa)
#
#
# Indices 1 2 3 4 5 6 
#
# 1 0.029202 -0.014685 -0.008278 0.000000 0.000000 0.000000
# 2 -0.014685 0.106618 -0.000687 0.000000 0.000000 0.000000
# 3 -0.008278 -0.000687 0.022835 0.000000 0.000000 0.000000
# 4 0.000000 0.000000 0.000000 0.045935 0.000000 0.000000
# 5 0.000000 0.000000 0.000000 0.000000 0.031456 0.000000
# 6 0.000000 0.000000 0.000000 0.000000 0.000000 0.051467
#
#
# Mechanical properties :
#
#
# Convention : Reuss Voigt Hill
#
# Bulk Modulus (GPa) = 8.98028 16.43640 12.70834
# Shear Modulus (GPa) = 13.44333 19.77257 16.60795
#
# Velocity S-wave (km/s) = 2.63755 3.19874 2.93160
# Velocity P-wave (km/s) = 3.73131 4.70617 4.24680
#
# Compressibility (1/GPa) = 0.11135515
#
# Stress axis : x y z
#
# Youngs Moduli (GPa) = 34.24388 9.37926 43.79324
#
# Poissons Ratio (x) = 0.13773 0.36254
# Poissons Ratio (y) = 0.50287 0.03006
# Poissons Ratio (z) = 0.28349 0.00644
#
# Static dielectric constant tensor:
#      x y z
#    x 1.673620 0.000000 0.000000 
#    y 0.000000 1.682030 0.000000 
#    z 0.000000 0.000000 1.745470 
# 
# From -- ./inp_files/15804.got.cif
#   From: 2010.05.17/outbox.cif.g08.bks.cpg/sg62_8_cif.got.tgz:15804.got - 2010.06.03 15:25:27.
