data_PCOD9464645
_publ_section_title
;
Structure prediction by ZEFSAII (Michael W. Deem and Ramdas Pophale) SiO2 
 PCOD9464645
Probable space group: P N M A
;
_chemical_formula_sum "Si O2"
_cell_formula_units_Z 40
_cell_length_a 7.769939
_cell_length_b 26.665298
_cell_length_c 8.681597
_cell_angle_alpha 90.000000
_cell_angle_beta 90.000000
_cell_angle_gamma 90.000000
_cell_volume 1798.720452
_symmetry_space_group_name_H-M "P N M A"
_symmetry_group_IT_number 62
_symmetry_cell_setting 'orthorhombic'
loop_
_space_group_symop_operation_xyz
x,y,z
1/2-x,-y,1/2+z
1/2+x,1/2-y,1/2-z
-x,1/2+y,-z
-x,-y,-z
1/2+x,y,1/2-z
1/2-x,1/2+y,1/2+z
x,1/2-y,z
loop_
_atom_site_type_symbol
_atom_site_label
_atom_site_fract_x
_atom_site_fract_y
_atom_site_fract_z
Si Si1 0.757833 0.453184 0.994505
Si Si2 0.077493 0.250000 0.323195
Si Si3 0.313516 0.345992 0.829221
Si Si4 0.791013 0.750000 0.994508
Si Si5 0.816155 0.845017 0.496649
Si Si6 0.628080 0.048027 0.671831
O O1 0.721261 0.399269 0.070738
O O2 0.622300 0.458716 0.855810
O O3 0.942099 0.450518 0.907135
O O4 0.770478 0.500395 0.104775
O O5 0.069384 0.250000 0.139585
O O6 0.172964 0.299789 0.384620
O O7 0.890385 0.250000 0.401425
O O8 0.316457 0.338182 0.644788
O O9 0.500378 0.346679 0.907434
O O10 0.222320 0.399237 0.858082
O O11 0.211597 0.299456 0.902088
#
# Coordination Sequence:
#
# PCOD9464645 Si02
#       6
#     8   4   8   4   8   8
#     4  10  21  36  55  80 108 140 178 218 263 313
#     4  10  23  38  54  80 110 140 175 218 266 314
#     4  10  20  36  57  80 106 139 179 218 261 314
#     4  10  23  38  54  80 110 140 175 218 266 314
#     4  10  20  36  57  80 106 139 179 218 261 314
#     4  10  21  36  55  80 108 140 178 218 263 313
#
# _framework density 22.238029000000001
#
# number of rings (size 3 to 8) (size 9 to 14) (size 15 to 20)
#    0.000    2.000    0.000    5.400    0.000    8.000 
#    0.000    8.000    0.000    0.000    0.000    0.000 
#    0.000    0.000    0.000    0.000    0.000    0.000 
#
# Total GULP energy -223737.842526 kJ/mol
# GULP energy per Si atom -5593.446063 kJ/mol
# Density = 2.218741 g / cm^3
# Si number density = 22.238029 Si / 1000 Ang^3
#
#
#
# Elastic Constant Matrix: (Units=GPa)
#
#
# Indices 1 2 3 4 5 6 
#
# 1 64.4825 14.5413 -11.0753 0.0000 0.0000 0.0000
# 2 14.5413 125.6433 43.6688 0.0000 0.0000 0.0000
# 3 -11.0753 43.6688 34.7815 0.0000 0.0000 0.0000
# 4 0.0000 0.0000 0.0000 38.9847 0.0000 0.0000
# 5 0.0000 0.0000 0.0000 0.0000 27.1230 0.0000
# 6 0.0000 0.0000 0.0000 0.0000 0.0000 20.4505
#
#
#
# Elastic Compliance Matrix: (Units=1/GPa)
#
#
# Indices 1 2 3 4 5 6 
#
# 1 0.020190 -0.008110 0.016612 0.000000 0.000000 0.000000
# 2 -0.008110 0.017379 -0.024402 0.000000 0.000000 0.000000
# 3 0.016612 -0.024402 0.064677 0.000000 0.000000 0.000000
# 4 0.000000 0.000000 0.000000 0.025651 0.000000 0.000000
# 5 0.000000 0.000000 0.000000 0.000000 0.036869 0.000000
# 6 0.000000 0.000000 0.000000 0.000000 0.000000 0.048899
#
#
# Mechanical properties :
#
#
# Convention : Reuss Voigt Hill
#
# Bulk Modulus (GPa) = 14.19540 35.46409 24.82975
# Shear Modulus (GPa) = 18.59093 29.16313 23.87703
#
# Velocity S-wave (km/s) = 2.89450 3.62527 3.28029
# Velocity P-wave (km/s) = 4.19143 5.78840 5.05339
#
# Compressibility (1/GPa) = 0.07044537
#
# Stress axis : x y z
#
# Youngs Moduli (GPa) = 49.52900 57.54115 15.46133
#
# Poissons Ratio (x) = 0.46667 -0.25684
# Poissons Ratio (y) = 0.40169 0.37729
# Poissons Ratio (z) = -0.82276 1.40412
#
# Static dielectric constant tensor:
#      x y z
#    x 1.882890 0.000000 0.000000 
#    y 0.000000 1.798070 0.000000 
#    z 0.000000 0.000000 1.776840 
# 
# From -- ./inp_files/4414.got.cif
#   From: 2010.05.17/outbox.cif.g08.bks.cpg/sg62_3_cif.got.tgz:4414.got - 2010.06.03 15:25:27.
