data_PCOD9464979
_publ_section_title
;
Structure prediction by ZEFSAII (Michael W. Deem and Ramdas Pophale) SiO2 
 PCOD9464979
Probable space group: P N M A
;
_chemical_formula_sum "Si O2"
_cell_formula_units_Z 28
_cell_length_a 5.037634
_cell_length_b 20.727767
_cell_length_c 11.771855
_cell_angle_alpha 90.000000
_cell_angle_beta 90.000000
_cell_angle_gamma 90.000000
_cell_volume 1229.204195
_symmetry_space_group_name_H-M "P N M A"
_symmetry_group_IT_number 62
_symmetry_cell_setting 'orthorhombic'
loop_
_space_group_symop_operation_xyz
x,y,z
1/2-x,-y,1/2+z
1/2+x,1/2-y,1/2-z
-x,1/2+y,-z
-x,-y,-z
1/2+x,y,1/2-z
1/2-x,1/2+y,1/2+z
x,1/2-y,z
loop_
_atom_site_type_symbol
_atom_site_label
_atom_site_fract_x
_atom_site_fract_y
_atom_site_fract_z
Si Si1 0.645887 0.616866 0.428887
Si Si2 0.879005 0.034609 0.611790
Si Si3 0.828175 0.604659 0.686296
Si Si4 0.529945 0.250000 0.679833
O O1 0.396407 0.568730 0.418822
O O2 0.739020 0.621856 0.559641
O O3 0.552737 0.685673 0.385424
O O4 0.895135 0.587185 0.358095
O O5 0.832266 0.973646 0.692035
O O6 0.000000 0.000000 0.500000
O O7 0.617559 0.628029 0.779019
O O8 0.840941 0.250000 0.708786
#
# Coordination Sequence:
#
# PCOD9464979 Si02
#       4
#     8   8   8   4
#     4  11  23  42  61  89 128 163 207 260 303 361
#     4  10  20  37  61  89 125 162 197 248 309 361
#     4  11  21  35  60  94 124 155 193 243 311 378
#     4  12  28  46  66  88 118 168 222 262 304 362
#
# _framework density 22.778966
#
# number of rings (size 3 to 8) (size 9 to 14) (size 15 to 20)
#    0.000    1.143    0.000   10.286    0.000    6.857 
#    0.000    1.429    0.000    0.000    0.000    0.000 
#    0.000    0.000    0.000    0.000    0.000    0.000 
#
# Total GULP energy -156774.018055 kJ/mol
# GULP energy per Si atom -5599.072073 kJ/mol
# Density = 2.272712 g / cm^3
# Si number density = 22.778966 Si / 1000 Ang^3
#
#
#
# Elastic Constant Matrix: (Units=GPa)
#
#
# Indices 1 2 3 4 5 6 
#
# 1 118.6486 -3.4669 14.8695 0.0000 0.0000 0.0000
# 2 -3.4669 59.1058 4.8260 0.0000 0.0000 0.0000
# 3 14.8695 4.8260 57.9099 0.0000 0.0000 0.0000
# 4 0.0000 0.0000 0.0000 32.8605 0.0000 0.0000
# 5 0.0000 0.0000 0.0000 0.0000 34.5408 0.0000
# 6 0.0000 0.0000 0.0000 0.0000 0.0000 21.5308
#
#
#
# Elastic Compliance Matrix: (Units=1/GPa)
#
#
# Indices 1 2 3 4 5 6 
#
# 1 0.008737 0.000700 -0.002302 0.000000 0.000000 0.000000
# 2 0.000700 0.017091 -0.001604 0.000000 0.000000 0.000000
# 3 -0.002302 -0.001604 0.017993 0.000000 0.000000 0.000000
# 4 0.000000 0.000000 0.000000 0.030432 0.000000 0.000000
# 5 0.000000 0.000000 0.000000 0.000000 0.028951 0.000000
# 6 0.000000 0.000000 0.000000 0.000000 0.000000 0.046445
#
#
# Mechanical properties :
#
#
# Convention : Reuss Voigt Hill
#
# Bulk Modulus (GPa) = 26.73087 29.79128 28.26108
# Shear Modulus (GPa) = 29.66832 32.41548 31.04190
#
# Velocity S-wave (km/s) = 3.61285 3.77642 3.69554
# Velocity P-wave (km/s) = 5.40037 5.66762 5.53561
#
# Compressibility (1/GPa) = 0.03740994
#
# Stress axis : x y z
#
# Youngs Moduli (GPa) = 114.45328 58.51071 55.57740
#
# Poissons Ratio (x) = -0.04098 0.12793
# Poissons Ratio (y) = -0.08017 0.08915
# Poissons Ratio (z) = 0.26345 0.09386
#
# Static dielectric constant tensor:
#      x y z
#    x 1.859040 0.000000 0.000000 
#    y 0.000000 1.829460 0.000000 
#    z 0.000000 0.000000 1.885360 
# 
# From -- ./inp_files/10628.got.cif
#   From: 2010.05.17/outbox.cif.g08.bks.cpg/sg62_6_cif.got.tgz:10628.got - 2010.06.03 15:25:27.
