data_PCOD9464263
_publ_section_title
;
Structure prediction by ZEFSAII (Michael W. Deem and Ramdas Pophale) SiO2 
 PCOD9464263
Probable space group: P N M A
;
_chemical_formula_sum "Si O2"
_cell_formula_units_Z 56
_cell_length_a 21.442559
_cell_length_b 8.677568
_cell_length_c 14.911745
_cell_angle_alpha 90.000000
_cell_angle_beta 90.000000
_cell_angle_gamma 90.000000
_cell_volume 2774.617414
_symmetry_space_group_name_H-M "P N M A"
_symmetry_group_IT_number 62
_symmetry_cell_setting 'orthorhombic'
loop_
_space_group_symop_operation_xyz
x,y,z
1/2-x,-y,1/2+z
1/2+x,1/2-y,1/2-z
-x,1/2+y,-z
-x,-y,-z
1/2+x,y,1/2-z
1/2-x,1/2+y,1/2+z
x,1/2-y,z
loop_
_atom_site_type_symbol
_atom_site_label
_atom_site_fract_x
_atom_site_fract_y
_atom_site_fract_z
Si Si1 0.830574 0.565913 0.396954
Si Si2 0.429971 0.566050 0.600075
Si Si3 0.812354 0.066233 0.209317
Si Si4 0.024877 0.436089 0.594100
Si Si5 0.911111 0.065440 0.712930
Si Si6 0.074335 0.935474 0.910156
Si Si7 0.294404 0.433677 0.914137
O O1 0.827769 0.750000 0.406122
O O2 0.800258 0.513749 0.304061
O O3 0.903576 0.517535 0.392431
O O4 0.800961 0.488683 0.484095
O O5 0.428083 0.750000 0.595330
O O6 0.398330 0.509188 0.691009
O O7 0.502897 0.514462 0.605103
O O8 0.404747 0.497868 0.507132
O O9 0.813492 0.250000 0.221316
O O10 0.878769 0.014574 0.167682
O O11 0.760662 0.018953 0.137505
O O12 0.022404 0.250000 0.591088
O O13 0.000000 0.500000 0.500000
O O14 0.977451 0.487542 0.672066
O O15 0.913065 0.250000 0.724401
O O16 0.858338 0.030335 0.639490
O O17 0.075037 0.750000 0.913375
O O18 0.284839 0.250000 0.910692
#
# Coordination Sequence:
#
# PCOD9464263 Si02
#       7
#     8   8   8   8   8   8   8
#     4  11  23  40  64  93 123 157 201 250 304 366
#     4  10  20  34  59  90 117 149 191 240 292 350
#     4  11  24  42  64  87 118 160 205 250 301 360
#     4  10  20  35  59  90 122 157 195 243 302 363
#     4  10  21  37  57  85 121 158 192 237 300 356
#     4   9  20  39  59  84 117 153 191 239 296 350
#     4  11  24  42  62  85 119 159 202 248 296 353
#
# _framework density 20.182963999999998
#
# number of rings (size 3 to 8) (size 9 to 14) (size 15 to 20)
#    0.000    1.714    1.429    2.571    0.000    5.143 
#    0.000    1.429    0.000    0.000    0.000    0.000 
#    0.000    0.000    0.000    0.000    0.000    0.000 
#
# Total GULP energy -313049.652749 kJ/mol
# GULP energy per Si atom -5590.172371 kJ/mol
# Density = 2.013703 g / cm^3
# Si number density = 20.182964 Si / 1000 Ang^3
#
#
#
# Elastic Constant Matrix: (Units=GPa)
#
#
# Indices 1 2 3 4 5 6 
#
# 1 18.6589 -1.2328 -5.7102 0.0000 0.0000 0.0000
# 2 -1.2328 8.0689 6.5401 0.0000 0.0000 0.0000
# 3 -5.7102 6.5401 123.0722 0.0000 0.0000 0.0000
# 4 0.0000 0.0000 0.0000 37.2466 0.0000 0.0000
# 5 0.0000 0.0000 0.0000 0.0000 23.7733 0.0000
# 6 0.0000 0.0000 0.0000 0.0000 0.0000 22.7742
#
#
#
# Elastic Compliance Matrix: (Units=1/GPa)
#
#
# Indices 1 2 3 4 5 6 
#
# 1 0.054698 0.006584 0.002188 0.000000 0.000000 0.000000
# 2 0.006584 0.130304 -0.006619 0.000000 0.000000 0.000000
# 3 0.002188 -0.006619 0.008579 0.000000 0.000000 0.000000
# 4 0.000000 0.000000 0.000000 0.026848 0.000000 0.000000
# 5 0.000000 0.000000 0.000000 0.000000 0.042064 0.000000
# 6 0.000000 0.000000 0.000000 0.000000 0.000000 0.043909
#
#
# Mechanical properties :
#
#
# Convention : Reuss Voigt Hill
#
# Bulk Modulus (GPa) = 5.05340 16.55491 10.80415
# Shear Modulus (GPa) = 13.58479 26.77234 20.17856
#
# Velocity S-wave (km/s) = 2.59720 3.64604 3.16536
# Velocity P-wave (km/s) = 3.39163 5.09363 4.32713
#
# Compressibility (1/GPa) = 0.19788662
#
# Stress axis : x y z
#
# Youngs Moduli (GPa) = 18.28206 7.67437 116.56971
#
# Poissons Ratio (x) = -0.05053 -0.25505
# Poissons Ratio (y) = -0.12037 0.77157
# Poissons Ratio (z) = -0.04000 0.05080
#
# Static dielectric constant tensor:
#      x y z
#    x 1.734200 0.000000 0.000000 
#    y 0.000000 1.674090 0.000000 
#    z 0.000000 0.000000 1.681450 
# 
# From -- ./inp_files/20354.got.cif
#   From: 2010.05.17/outbox.cif.g08.bks.cpg/sg62_11_cif.got.tgz:20354.got - 2010.06.03 15:25:27.
