data_PCOD9464253
_publ_section_title
;
Structure prediction by ZEFSAII (Michael W. Deem and Ramdas Pophale) SiO2 
 PCOD9464253
Probable space group: P N M A
;
_chemical_formula_sum "Si O2"
_cell_formula_units_Z 64
_cell_length_a 25.335439
_cell_length_b 22.790895
_cell_length_c 5.315384
_cell_angle_alpha 90.000000
_cell_angle_beta 90.000000
_cell_angle_gamma 90.000000
_cell_volume 3069.194837
_symmetry_space_group_name_H-M "P N M A"
_symmetry_group_IT_number 62
_symmetry_cell_setting 'orthorhombic'
loop_
_space_group_symop_operation_xyz
x,y,z
1/2-x,-y,1/2+z
1/2+x,1/2-y,1/2-z
-x,1/2+y,-z
-x,-y,-z
1/2+x,y,1/2-z
1/2-x,1/2+y,1/2+z
x,1/2-y,z
loop_
_atom_site_type_symbol
_atom_site_label
_atom_site_fract_x
_atom_site_fract_y
_atom_site_fract_z
Si Si1 0.097108 0.610782 0.651797
Si Si2 0.781484 0.597370 0.331645
Si Si3 0.014565 0.123328 0.453118
Si Si4 0.458181 0.987194 0.272918
Si Si5 0.379139 0.682122 0.179534
Si Si6 0.684004 0.036570 0.306123
Si Si7 0.907326 0.894764 0.925417
Si Si8 0.163462 0.601367 0.148795
O O1 0.072403 0.545701 0.694481
O O2 0.135136 0.612867 0.413328
O O3 0.044528 0.646939 0.568228
O O4 0.128602 0.622788 0.910949
O O5 0.826520 0.645799 0.386774
O O6 0.782803 0.548192 0.553258
O O7 0.723206 0.624755 0.343964
O O8 0.792746 0.568708 0.055796
O O9 0.014890 0.058094 0.577068
O O10 0.063750 0.159939 0.570210
O O11 0.034314 0.115407 0.169346
O O12 0.411386 0.943928 0.362587
O O13 0.500000 0.000000 0.500000
O O14 0.373360 0.750000 0.128130
O O15 0.384695 0.665673 0.475411
O O16 0.629637 0.070760 0.236611
O O17 0.670956 0.969433 0.360609
#
# Coordination Sequence:
#
# PCOD9464253 Si02
#       8
#     8   8   8   8   8   8   8   8
#     4  12  24  35  58  90 133 173 202 240 301 387
#     4  11  23  41  62  86 124 161 214 266 307 366
#     4  11  22  37  60  89 128 160 210 260 314 377
#     4  11  20  33  53  88 131 178 206 240 294 375
#     4  10  24  43  66  90 115 155 212 280 334 363
#     4  11  20  37  58  89 124 167 205 254 304 363
#     4  10  20  34  58  88 125 158 205 258 307 371
#     4  12  24  37  58  90 130 175 210 237 302 386
#
# _framework density 20.852376
#
# number of rings (size 3 to 8) (size 9 to 14) (size 15 to 20)
#    0.000    1.000    3.750    4.125    3.500    0.500 
#    0.000    0.000    0.000    1.500    0.000    0.000 
#    0.000    0.000    0.000    0.000    0.000    0.000 
#
# Total GULP energy -356433.601237 kJ/mol
# GULP energy per Si atom -5569.275019 kJ/mol
# Density = 2.080491 g / cm^3
# Si number density = 20.852376 Si / 1000 Ang^3
#
#
#
# Elastic Constant Matrix: (Units=GPa)
#
#
# Indices 1 2 3 4 5 6 
#
# 1 141.8957 23.3474 34.5169 0.0000 0.0000 0.0000
# 2 23.3474 63.7692 8.3128 0.0000 0.0000 0.0000
# 3 34.5169 8.3128 88.0984 0.0000 0.0000 0.0000
# 4 0.0000 0.0000 0.0000 9.1018 0.0000 0.0000
# 5 0.0000 0.0000 0.0000 0.0000 36.3671 0.0000
# 6 0.0000 0.0000 0.0000 0.0000 0.0000 17.4385
#
#
#
# Elastic Compliance Matrix: (Units=1/GPa)
#
#
# Indices 1 2 3 4 5 6 
#
# 1 0.008199 -0.002615 -0.002966 0.000000 0.000000 0.000000
# 2 -0.002615 0.016711 -0.000552 0.000000 0.000000 0.000000
# 3 -0.002966 -0.000552 0.012565 0.000000 0.000000 0.000000
# 4 0.000000 0.000000 0.000000 0.109868 0.000000 0.000000
# 5 0.000000 0.000000 0.000000 0.000000 0.027497 0.000000
# 6 0.000000 0.000000 0.000000 0.000000 0.000000 0.057344
#
#
# Mechanical properties :
#
#
# Convention : Reuss Voigt Hill
#
# Bulk Modulus (GPa) = 39.66839 47.34639 43.50739
# Shear Modulus (GPa) = 19.77423 27.75390 23.76407
#
# Velocity S-wave (km/s) = 3.08278 3.65221 3.37951
# Velocity P-wave (km/s) = 5.63348 6.36707 6.01148
#
# Compressibility (1/GPa) = 0.02520899
#
# Stress axis : x y z
#
# Youngs Moduli (GPa) = 121.96369 59.84063 79.58620
#
# Poissons Ratio (x) = 0.15650 0.23603
# Poissons Ratio (y) = 0.31897 0.04394
# Poissons Ratio (z) = 0.36170 0.03304
#
# Static dielectric constant tensor:
#      x y z
#    x 1.854730 0.000000 0.000000 
#    y 0.000000 1.714830 0.000000 
#    z 0.000000 0.000000 1.919290 
# 
# From -- ./inp_files/2900.got.cif
#   From: 2010.05.17/outbox.cif.g08.bks.cpg/sg62_2_cif.got.tgz:2900.got - 2010.06.03 15:25:27.
