data_PCOD9464288
_publ_section_title
;
Structure prediction by ZEFSAII (Michael W. Deem and Ramdas Pophale) SiO2 
 PCOD9464288
Probable space group: P N M A
;
_chemical_formula_sum "Si O2"
_cell_formula_units_Z 64
_cell_length_a 23.962881
_cell_length_b 11.189838
_cell_length_c 12.921919
_cell_angle_alpha 90.000000
_cell_angle_beta 90.000000
_cell_angle_gamma 90.000000
_cell_volume 3464.893135
_symmetry_space_group_name_H-M "P N M A"
_symmetry_group_IT_number 62
_symmetry_cell_setting 'orthorhombic'
loop_
_space_group_symop_operation_xyz
x,y,z
1/2-x,-y,1/2+z
1/2+x,1/2-y,1/2-z
-x,1/2+y,-z
-x,-y,-z
1/2+x,y,1/2-z
1/2-x,1/2+y,1/2+z
x,1/2-y,z
loop_
_atom_site_type_symbol
_atom_site_label
_atom_site_fract_x
_atom_site_fract_y
_atom_site_fract_z
Si Si1 0.644652 0.619046 0.793391
Si Si2 0.660781 0.112565 0.134659
Si Si3 0.282099 0.112730 0.413713
Si Si4 0.966916 0.387444 0.159991
Si Si5 0.498954 0.117716 0.926911
Si Si6 0.427398 0.465884 0.740860
Si Si7 0.389316 0.389878 0.520611
Si Si8 0.625132 0.380372 0.902361
O O1 0.650857 0.750000 0.845031
O O2 0.685977 0.616085 0.695632
O O3 0.582435 0.613521 0.745127
O O4 0.653078 0.499710 0.859274
O O5 0.668748 0.250000 0.169534
O O6 0.721359 0.058570 0.106333
O O7 0.624034 0.043035 0.216732
O O8 0.627677 0.115182 0.026448
O O9 0.270366 0.250000 0.448380
O O10 0.327954 0.059159 0.492423
O O11 0.983256 0.250000 0.139765
O O12 0.020440 0.455766 0.201120
O O13 0.937021 0.439421 0.056638
O O14 0.493049 0.250000 0.978907
O O15 0.559873 0.118235 0.873958
O O16 0.451940 0.105358 0.839103
O O17 0.500000 0.000000 0.000000
O O18 0.406159 0.398328 0.639166
O O19 0.385371 0.250000 0.490399
O O20 0.648751 0.250000 0.870343
#
# Coordination Sequence:
#
# PCOD9464288 Si02
#       8
#     8   8   8   8   8   8   8   8
#     4   9  17  33  58  81 102 141 187 226 267 323
#     4  10  21  35  52  76 106 145 188 231 277 331
#     4   8  17  36  57  76 103 139 188 234 271 326
#     4   9  18  32  52  79 108 139 175 218 273 335
#     4  11  23  37  53  80 117 151 182 223 278 339
#     4  12  20  32  54  83 110 140 180 234 276 329
#     4   9  19  35  53  76 106 142 183 226 276 329
#     4  10  20  35  52  78 111 146 179 220 281 338
#
# _framework density 18.470987999999998
#
# number of rings (size 3 to 8) (size 9 to 14) (size 15 to 20)
#    0.000    2.250    2.500    2.625    0.000    2.000 
#    0.000    0.000    0.000    4.500    0.000    0.000 
#    0.000    0.000    0.000    0.000    0.000    0.000 
#
# Total GULP energy -356281.192640 kJ/mol
# GULP energy per Si atom -5566.893635 kJ/mol
# Density = 1.842895 g / cm^3
# Si number density = 18.470988 Si / 1000 Ang^3
#
#
#
# Elastic Constant Matrix: (Units=GPa)
#
#
# Indices 1 2 3 4 5 6 
#
# 1 100.9391 13.4380 12.5299 0.0000 0.0000 0.0000
# 2 13.4380 94.2564 35.4106 0.0000 0.0000 0.0000
# 3 12.5299 35.4106 56.6376 0.0000 0.0000 0.0000
# 4 0.0000 0.0000 0.0000 21.7636 0.0000 0.0000
# 5 0.0000 0.0000 0.0000 0.0000 12.8287 0.0000
# 6 0.0000 0.0000 0.0000 0.0000 0.0000 3.8918
#
#
#
# Elastic Compliance Matrix: (Units=1/GPa)
#
#
# Indices 1 2 3 4 5 6 
#
# 1 0.010232 -0.000795 -0.001767 0.000000 0.000000 0.000000
# 2 -0.000795 0.013928 -0.008532 0.000000 0.000000 0.000000
# 3 -0.001767 -0.008532 0.023381 0.000000 0.000000 0.000000
# 4 0.000000 0.000000 0.000000 0.045948 0.000000 0.000000
# 5 0.000000 0.000000 0.000000 0.000000 0.077950 0.000000
# 6 0.000000 0.000000 0.000000 0.000000 0.000000 0.256948
#
#
# Mechanical properties :
#
#
# Convention : Reuss Voigt Hill
#
# Bulk Modulus (GPa) = 39.44154 41.62112 40.53133
# Shear Modulus (GPa) = 10.89261 20.39379 15.64320
#
# Velocity S-wave (km/s) = 2.43104 3.32640 2.91332
# Velocity P-wave (km/s) = 5.41106 6.11027 5.77126
#
# Compressibility (1/GPa) = 0.02535398
#
# Stress axis : x y z
#
# Youngs Moduli (GPa) = 97.73167 71.79728 42.76919
#
# Poissons Ratio (x) = 0.05709 0.07555
# Poissons Ratio (y) = 0.07771 0.36491
# Poissons Ratio (z) = 0.17264 0.61258
#
# Static dielectric constant tensor:
#      x y z
#    x 1.666070 0.000000 0.000000 
#    y 0.000000 1.672760 0.000000 
#    z 0.000000 0.000000 1.635840 
# 
# From -- ./inp_files/15329.got.cif
#   From: 2010.05.17/outbox.cif.g08.bks.cpg/sg62_8_cif.got.tgz:15329.got - 2010.06.03 15:25:27.
