data_PCOD9464548
_publ_section_title
;
Structure prediction by ZEFSAII (Michael W. Deem and Ramdas Pophale) SiO2 
 PCOD9464548
Probable space group: P N M A
;
_chemical_formula_sum "Si O2"
_cell_formula_units_Z 32
_cell_length_a 5.033020
_cell_length_b 14.768079
_cell_length_c 16.920640
_cell_angle_alpha 90.000000
_cell_angle_beta 90.000000
_cell_angle_gamma 90.000000
_cell_volume 1257.677955
_symmetry_space_group_name_H-M "P N M A"
_symmetry_group_IT_number 62
_symmetry_cell_setting 'orthorhombic'
loop_
_space_group_symop_operation_xyz
x,y,z
1/2-x,-y,1/2+z
1/2+x,1/2-y,1/2-z
-x,1/2+y,-z
-x,-y,-z
1/2+x,y,1/2-z
1/2-x,1/2+y,1/2+z
x,1/2-y,z
loop_
_atom_site_type_symbol
_atom_site_label
_atom_site_fract_x
_atom_site_fract_y
_atom_site_fract_z
Si Si1 0.528427 0.926174 0.194779
Si Si2 0.082950 0.648181 0.806930
Si Si3 0.278069 0.538525 0.572437
Si Si4 0.614075 0.351798 0.962473
O O1 0.816358 0.923412 0.233837
O O2 0.483754 0.849575 0.128750
O O3 0.440217 0.010232 0.139800
O O4 0.848590 0.639426 0.742939
O O5 0.073227 0.750000 0.839318
O O6 0.013888 0.581392 0.877657
O O7 0.324085 0.436797 0.536895
O O8 0.124702 0.608608 0.516113
O O9 0.695721 0.250000 0.985047
#
# Coordination Sequence:
#
# PCOD9464548 Si02
#       4
#     8   8   8   8
#     4  10  21  39  63  90 121 158 204 251 304 362
#     4  10  20  35  59  90 122 159 203 253 307 364
#     4   9  19  37  60  92 119 168 200 263 304 374
#     4   9  20  39  62  91 126 168 209 255 313 372
#
# _framework density 25.443718000000001
#
# number of rings (size 3 to 8) (size 9 to 14) (size 15 to 20)
#    1.500    1.000    0.000    2.250    0.000    1.000 
#    0.000    7.500    0.000    0.000    0.000    0.000 
#    0.000    0.000    0.000    0.000    0.000    0.000 
#
# Total GULP energy -178786.198435 kJ/mol
# GULP energy per Si atom -5587.068701 kJ/mol
# Density = 2.538581 g / cm^3
# Si number density = 25.443718 Si / 1000 Ang^3
#
#
#
# Elastic Constant Matrix: (Units=GPa)
#
#
# Indices 1 2 3 4 5 6 
#
# 1 93.0198 20.3054 20.6893 0.0000 0.0000 0.0000
# 2 20.3054 178.1538 62.8414 0.0000 0.0000 0.0000
# 3 20.6893 62.8414 139.4923 0.0000 0.0000 0.0000
# 4 0.0000 0.0000 0.0000 30.3237 0.0000 0.0000
# 5 0.0000 0.0000 0.0000 0.0000 44.9189 0.0000
# 6 0.0000 0.0000 0.0000 0.0000 0.0000 12.9166
#
#
#
# Elastic Compliance Matrix: (Units=1/GPa)
#
#
# Indices 1 2 3 4 5 6 
#
# 1 0.011218 -0.000822 -0.001293 0.000000 0.000000 0.000000
# 2 -0.000822 0.006734 -0.002912 0.000000 0.000000 0.000000
# 3 -0.001293 -0.002912 0.008672 0.000000 0.000000 0.000000
# 4 0.000000 0.000000 0.000000 0.032978 0.000000 0.000000
# 5 0.000000 0.000000 0.000000 0.000000 0.022262 0.000000
# 6 0.000000 0.000000 0.000000 0.000000 0.000000 0.077420
#
#
# Mechanical properties :
#
#
# Convention : Reuss Voigt Hill
#
# Bulk Modulus (GPa) = 60.35283 68.70421 64.52852
# Shear Modulus (GPa) = 28.59406 38.08714 33.34060
#
# Velocity S-wave (km/s) = 3.35597 3.87320 3.62383
# Velocity P-wave (km/s) = 6.22803 6.86027 6.55178
#
# Compressibility (1/GPa) = 0.01656923
#
# Stress axis : x y z
#
# Youngs Moduli (GPa) = 89.14589 148.50224 115.30855
#
# Poissons Ratio (x) = 0.12212 0.14913
# Poissons Ratio (y) = 0.07331 0.33574
# Poissons Ratio (z) = 0.11529 0.43239
#
# Static dielectric constant tensor:
#      x y z
#    x 2.024260 0.000000 0.000000 
#    y 0.000000 2.082040 0.000000 
#    z 0.000000 0.000000 2.026910 
# 
# From -- ./inp_files/21456.got.cif
#   From: 2010.05.17/outbox.cif.g08.bks.cpg/sg62_11_cif.got.tgz:21456.got - 2010.06.03 15:25:27.
