data_PCOD9464439
_publ_section_title
;
Structure prediction by ZEFSAII (Michael W. Deem and Ramdas Pophale) SiO2 
 PCOD9464439
Probable space group: P N M A
;
_chemical_formula_sum "Si O2"
_cell_formula_units_Z 64
_cell_length_a 24.491656
_cell_length_b 14.144921
_cell_length_c 9.634562
_cell_angle_alpha 90.000000
_cell_angle_beta 90.000000
_cell_angle_gamma 90.000000
_cell_volume 3337.725779
_symmetry_space_group_name_H-M "P N M A"
_symmetry_group_IT_number 62
_symmetry_cell_setting 'orthorhombic'
loop_
_space_group_symop_operation_xyz
x,y,z
1/2-x,-y,1/2+z
1/2+x,1/2-y,1/2-z
-x,1/2+y,-z
-x,-y,-z
1/2+x,y,1/2-z
1/2-x,1/2+y,1/2+z
x,1/2-y,z
loop_
_atom_site_type_symbol
_atom_site_label
_atom_site_fract_x
_atom_site_fract_y
_atom_site_fract_z
Si Si1 0.407426 0.030339 0.961326
Si Si2 0.790027 0.863411 0.182365
Si Si3 0.607489 0.862171 0.473785
Si Si4 0.600299 0.361254 0.843061
Si Si5 0.260867 0.637628 0.637039
Si Si6 0.519154 0.860362 0.252707
Si Si7 0.183616 0.966328 0.240638
Si Si8 0.864902 0.362589 0.288501
O O1 0.404718 0.091068 0.100572
O O2 0.407777 0.923621 0.018581
O O3 0.454223 0.067719 0.858396
O O4 0.351574 0.050500 0.878023
O O5 0.787289 0.750000 0.191186
O O6 0.847082 0.892420 0.253009
O O7 0.739798 0.909487 0.262033
O O8 0.778477 0.887053 0.020886
O O9 0.621482 0.750000 0.457968
O O10 0.548341 0.874393 0.401355
O O11 0.647351 0.927149 0.384186
O O12 0.615803 0.886648 0.633809
O O13 0.606565 0.250000 0.875969
O O14 0.545591 0.371743 0.751713
O O15 0.266624 0.750000 0.654938
O O16 0.300973 0.575848 0.730433
O O17 0.198282 0.612271 0.676626
O O18 0.531221 0.750000 0.212217
O O19 0.867683 0.250000 0.302937
#
# Coordination Sequence:
#
# PCOD9464439 Si02
#       8
#     8   8   8   8   8   8   8   8
#     4  11  21  35  60  87 116 150 192 242 290 343
#     4  10  21  37  57  84 115 154 193 231 289 350
#     4   9  20  36  59  87 114 144 191 244 292 341
#     4  10  22  38  60  84 117 157 197 238 283 348
#     4  10  22  36  53  80 119 154 187 231 289 353
#     4   9  19  39  62  86 115 151 193 240 293 345
#     4  11  22  34  58  84 116 150 190 236 290 343
#     4  10  20  35  56  86 115 144 184 240 294 341
#
# _framework density 19.174733
#
# number of rings (size 3 to 8) (size 9 to 14) (size 15 to 20)
#    0.000    2.000    1.250    1.875    3.500    1.500 
#    0.000    3.125    2.750    0.000    0.000    0.000 
#    0.000    0.000    0.000    0.000    0.000    0.000 
#
# Total GULP energy -357052.098401 kJ/mol
# GULP energy per Si atom -5578.939038 kJ/mol
# Density = 1.913109 g / cm^3
# Si number density = 19.174733 Si / 1000 Ang^3
#
#
#
# Elastic Constant Matrix: (Units=GPa)
#
#
# Indices 1 2 3 4 5 6 
#
# 1 91.6704 13.3826 20.6404 0.0000 0.0000 0.0000
# 2 13.3826 25.0196 21.0128 0.0000 0.0000 0.0000
# 3 20.6404 21.0128 81.3999 0.0000 0.0000 0.0000
# 4 0.0000 0.0000 0.0000 26.4562 0.0000 0.0000
# 5 0.0000 0.0000 0.0000 0.0000 7.6042 0.0000
# 6 0.0000 0.0000 0.0000 0.0000 0.0000 16.4816
#
#
#
# Elastic Compliance Matrix: (Units=1/GPa)
#
#
# Indices 1 2 3 4 5 6 
#
# 1 0.012030 -0.004945 -0.001774 0.000000 0.000000 0.000000
# 2 -0.004945 0.053065 -0.012445 0.000000 0.000000 0.000000
# 3 -0.001774 -0.012445 0.015947 0.000000 0.000000 0.000000
# 4 0.000000 0.000000 0.000000 0.037798 0.000000 0.000000
# 5 0.000000 0.000000 0.000000 0.000000 0.131507 0.000000
# 6 0.000000 0.000000 0.000000 0.000000 0.000000 0.060674
#
#
# Mechanical properties :
#
#
# Convention : Reuss Voigt Hill
#
# Bulk Modulus (GPa) = 23.41050 34.24014 28.82532
# Shear Modulus (GPa) = 13.75190 19.64534 16.69862
#
# Velocity S-wave (km/s) = 2.68094 3.20432 2.95425
# Velocity P-wave (km/s) = 4.67106 5.62013 5.16743
#
# Compressibility (1/GPa) = 0.04271588
#
# Stress axis : x y z
#
# Youngs Moduli (GPa) = 83.12601 18.84477 62.70649
#
# Poissons Ratio (x) = 0.09318 0.11124
# Poissons Ratio (y) = 0.41104 0.78035
# Poissons Ratio (z) = 0.14746 0.23451
#
# Static dielectric constant tensor:
#      x y z
#    x 1.659670 0.000000 0.000000 
#    y 0.000000 1.702310 0.000000 
#    z 0.000000 0.000000 1.660440 
# 
# From -- ./inp_files/9475.got.cif
#   From: 2010.05.17/outbox.cif.g08.bks.cpg/sg62_5_cif.got.tgz:9475.got - 2010.06.03 15:25:27.
