data_PCOD9464791
_publ_section_title
;
Structure prediction by ZEFSAII (Michael W. Deem and Ramdas Pophale) SiO2 
 PCOD9464791
Probable space group: P N M A
;
_chemical_formula_sum "Si O2"
_cell_formula_units_Z 48
_cell_length_a 19.719016
_cell_length_b 8.787652
_cell_length_c 15.243325
_cell_angle_alpha 90.000000
_cell_angle_beta 90.000000
_cell_angle_gamma 90.000000
_cell_volume 2641.422049
_symmetry_space_group_name_H-M "P N M A"
_symmetry_group_IT_number 62
_symmetry_cell_setting 'orthorhombic'
loop_
_space_group_symop_operation_xyz
x,y,z
1/2-x,-y,1/2+z
1/2+x,1/2-y,1/2-z
-x,1/2+y,-z
-x,-y,-z
1/2+x,y,1/2-z
1/2-x,1/2+y,1/2+z
x,1/2-y,z
loop_
_atom_site_type_symbol
_atom_site_label
_atom_site_fract_x
_atom_site_fract_y
_atom_site_fract_z
Si Si1 0.990278 0.930852 0.226251
Si Si2 0.808996 0.430188 0.384939
Si Si3 0.169678 0.431561 0.802170
Si Si4 0.558626 0.068461 0.438247
Si Si5 0.697786 0.931602 0.511837
Si Si6 0.969061 0.430257 0.412373
O O1 0.001398 0.750000 0.219992
O O2 0.911752 0.961340 0.198882
O O3 0.997412 0.987958 0.325572
O O4 0.038914 0.018612 0.159785
O O5 0.794806 0.250000 0.384150
O O6 0.801279 0.497866 0.287252
O O7 0.760589 0.512560 0.453716
O O8 0.887763 0.452431 0.410471
O O9 0.179037 0.250000 0.802525
O O10 0.200476 0.504491 0.889308
O O11 0.559984 0.250000 0.447200
O O12 0.500000 0.000000 0.500000
O O13 0.629788 0.999386 0.468405
O O14 0.694094 0.750000 0.513586
O O15 0.982319 0.250000 0.407519
O O16 0.000000 0.500000 0.500000
#
# Coordination Sequence:
#
# PCOD9464791 Si02
#       6
#     8   8   8   8   8   8
#     4  10  20  36  60  88 119 154 195 242 295 353
#     4  10  22  41  62  87 120 156 200 247 298 358
#     4  10  20  37  62  87 116 155 197 241 296 358
#     4  12  23  37  59  89 123 157 198 244 297 355
#     4  12  24  39  61  88 121 159 200 248 302 357
#     4  10  21  39  64  90 119 156 200 247 297 354
#
# _framework density 18.172029999999999
#
# number of rings (size 3 to 8) (size 9 to 14) (size 15 to 20)
#    0.000    1.333    1.667    5.000    0.000    3.333 
#    3.000    0.000    0.000    0.000    0.000    0.000 
#    0.000    0.000    0.000    0.000    0.000    0.000 
#
# Total GULP energy -268384.638061 kJ/mol
# GULP energy per Si atom -5591.346626 kJ/mol
# Density = 1.813067 g / cm^3
# Si number density = 18.172030 Si / 1000 Ang^3
#
#
#
# Elastic Constant Matrix: (Units=GPa)
#
#
# Indices 1 2 3 4 5 6 
#
# 1 34.3049 45.6833 50.7058 0.0000 0.0000 0.0000
# 2 45.6833 131.6156 79.0153 0.0000 0.0000 0.0000
# 3 50.7058 79.0153 170.2990 0.0000 0.0000 0.0000
# 4 0.0000 0.0000 0.0000 40.3557 0.0000 0.0000
# 5 0.0000 0.0000 0.0000 0.0000 34.1536 0.0000
# 6 0.0000 0.0000 0.0000 0.0000 0.0000 29.2359
#
#
#
# Elastic Compliance Matrix: (Units=1/GPa)
#
#
# Indices 1 2 3 4 5 6 
#
# 1 0.071239 -0.016623 -0.013498 0.000000 0.000000 0.000000
# 2 -0.016623 0.014410 -0.001737 0.000000 0.000000 0.000000
# 3 -0.013498 -0.001737 0.010697 0.000000 0.000000 0.000000
# 4 0.000000 0.000000 0.000000 0.024780 0.000000 0.000000
# 5 0.000000 0.000000 0.000000 0.000000 0.029279 0.000000
# 6 0.000000 0.000000 0.000000 0.000000 0.000000 0.034205
#
#
# Mechanical properties :
#
#
# Convention : Reuss Voigt Hill
#
# Bulk Modulus (GPa) = 30.64666 76.33647 53.49157
# Shear Modulus (GPa) = 19.28996 31.47004 25.38000
#
# Velocity S-wave (km/s) = 3.26163 4.16599 3.74124
# Velocity P-wave (km/s) = 5.57545 8.07709 6.93993
#
# Compressibility (1/GPa) = 0.03262998
#
# Stress axis : x y z
#
# Youngs Moduli (GPa) = 14.03729 69.39494 93.48555
#
# Poissons Ratio (x) = 1.15356 1.26189
# Poissons Ratio (y) = 0.23334 0.16235
# Poissons Ratio (z) = 0.18948 0.12051
#
# Static dielectric constant tensor:
#      x y z
#    x 1.601750 0.000000 0.000000 
#    y 0.000000 1.601930 0.000000 
#    z 0.000000 0.000000 1.605670 
# 
# From -- ./inp_files/19585.got.cif
#   From: 2010.05.17/outbox.cif.g08.bks.cpg/sg62_10_cif.got.tgz:19585.got - 2010.06.03 15:25:27.
