data_PCOD9464505
_publ_section_title
;
Structure prediction by ZEFSAII (Michael W. Deem and Ramdas Pophale) SiO2 
 PCOD9464505
Probable space group: P N M A
;
_chemical_formula_sum "Si O2"
_cell_formula_units_Z 56
_cell_length_a 15.208427
_cell_length_b 8.753175
_cell_length_c 21.820027
_cell_angle_alpha 90.000000
_cell_angle_beta 90.000000
_cell_angle_gamma 90.000000
_cell_volume 2904.726136
_symmetry_space_group_name_H-M "P N M A"
_symmetry_group_IT_number 62
_symmetry_cell_setting 'orthorhombic'
loop_
_space_group_symop_operation_xyz
x,y,z
1/2-x,-y,1/2+z
1/2+x,1/2-y,1/2-z
-x,1/2+y,-z
-x,-y,-z
1/2+x,y,1/2-z
1/2-x,1/2+y,1/2+z
x,1/2-y,z
loop_
_atom_site_type_symbol
_atom_site_label
_atom_site_fract_x
_atom_site_fract_y
_atom_site_fract_z
Si Si1 0.038358 0.931482 0.913848
Si Si2 0.481101 0.433905 0.067091
Si Si3 0.412167 0.068173 0.275417
Si Si4 0.791233 0.933065 0.399566
Si Si5 0.428013 0.933495 0.812142
Si Si6 0.857112 0.931634 0.980149
Si Si7 0.232177 0.569031 0.235021
O O1 0.048974 0.750000 0.925420
O O2 0.047366 0.958800 0.842156
O O3 0.941978 0.974643 0.938524
O O4 0.112165 0.019491 0.952333
O O5 0.479785 0.250000 0.064502
O O6 0.386438 0.491857 0.090987
O O7 0.554791 0.480637 0.117513
O O8 0.500000 0.500000 0.000000
O O9 0.393732 0.250000 0.269563
O O10 0.483512 0.025218 0.224650
O O11 0.323361 0.976080 0.266809
O O12 0.801182 0.750000 0.397791
O O13 0.744874 0.984124 0.335704
O O14 0.727514 0.982684 0.454619
O O15 0.420134 0.750000 0.811166
O O16 0.346552 0.998729 0.774399
O O17 0.843805 0.750000 0.976331
O O18 0.220039 0.750000 0.233408
#
# Coordination Sequence:
#
# PCOD9464505 Si02
#       7
#     8   8   8   8   8   8   8
#     4   9  19  35  56  85 120 155 194 247 306 359
#     4  11  24  43  67  92 122 163 208 258 313 370
#     4  10  20  38  62  86 116 155 198 246 297 362
#     4  11  23  40  61  88 122 161 206 254 308 370
#     4  10  22  41  65  91 121 161 207 254 307 370
#     4  10  20  35  58  85 117 157 201 247 298 362
#     4  11  24  38  60  92 123 157 198 253 312 364
#
# _framework density 19.278924
#
# number of rings (size 3 to 8) (size 9 to 14) (size 15 to 20)
#    0.000    1.714    1.429    2.571    0.000    6.857 
#    0.000    1.429    0.000    0.000    0.000    0.000 
#    0.000    0.000    0.000    0.000    0.000    0.000 
#
# Total GULP energy -312815.417304 kJ/mol
# GULP energy per Si atom -5585.989595 kJ/mol
# Density = 1.923504 g / cm^3
# Si number density = 19.278924 Si / 1000 Ang^3
#
#
#
# Elastic Constant Matrix: (Units=GPa)
#
#
# Indices 1 2 3 4 5 6 
#
# 1 87.8404 28.4534 46.2729 0.0000 0.0000 0.0000
# 2 28.4534 34.7481 38.3361 0.0000 0.0000 0.0000
# 3 46.2729 38.3361 122.5012 0.0000 0.0000 0.0000
# 4 0.0000 0.0000 0.0000 29.5634 0.0000 0.0000
# 5 0.0000 0.0000 0.0000 0.0000 23.2293 0.0000
# 6 0.0000 0.0000 0.0000 0.0000 0.0000 -2.9288
#
#
#
# Elastic Compliance Matrix: (Units=1/GPa)
#
#
# Indices 1 2 3 4 5 6 
#
# 1 0.016186 -0.009941 -0.003003 0.000000 0.000000 0.000000
# 2 -0.009941 0.050059 -0.011911 0.000000 0.000000 0.000000
# 3 -0.003003 -0.011911 0.013025 0.000000 0.000000 0.000000
# 4 0.000000 0.000000 0.000000 0.033826 0.000000 0.000000
# 5 0.000000 0.000000 0.000000 0.000000 0.043049 0.000000
# 6 0.000000 0.000000 0.000000 0.000000 0.000000 -0.341437
#
#
# Mechanical properties :
#
#
# Convention : Reuss Voigt Hill
#
# Bulk Modulus (GPa) = 33.82839 52.35718 43.09278
# Shear Modulus (GPa) = -39.76828 18.77459 -10.49685
#
# Velocity S-wave (km/s) = -4.54672 3.12403 -2.33593
# Velocity P-wave (km/s) = 3.15889 6.34267 3.88914
#
# Compressibility (1/GPa) = 0.02956097
#
# Stress axis : x y z
#
# Youngs Moduli (GPa) = 61.78024 19.97628 76.77535
#
# Poissons Ratio (x) = 0.19858 0.23057
# Poissons Ratio (y) = 0.61415 0.91445
# Poissons Ratio (z) = 0.18554 0.23793
#
# Static dielectric constant tensor:
#      x y z
#    x 1.645040 0.000000 0.000000 
#    y 0.000000 1.702270 0.000000 
#    z 0.000000 0.000000 1.684430 
# 
# From -- ./inp_files/27158.got.cif
#   From: 2010.05.17/outbox.cif.g08.bks.cpg/sg62_14_cif.got.tgz:27158.got - 2010.06.03 15:25:27.
