data_PCOD9464659
_publ_section_title
;
Structure prediction by ZEFSAII (Michael W. Deem and Ramdas Pophale) SiO2 
 PCOD9464659
Probable space group: P N M A
;
_chemical_formula_sum "Si O2"
_cell_formula_units_Z 48
_cell_length_a 8.071985
_cell_length_b 8.157705
_cell_length_c 28.488999
_cell_angle_alpha 90.000000
_cell_angle_beta 90.000000
_cell_angle_gamma 90.000000
_cell_volume 1875.968460
_symmetry_space_group_name_H-M "P N M A"
_symmetry_group_IT_number 62
_symmetry_cell_setting 'orthorhombic'
loop_
_space_group_symop_operation_xyz
x,y,z
1/2-x,-y,1/2+z
1/2+x,1/2-y,1/2-z
-x,1/2+y,-z
-x,-y,-z
1/2+x,y,1/2-z
1/2-x,1/2+y,1/2+z
x,1/2-y,z
loop_
_atom_site_type_symbol
_atom_site_label
_atom_site_fract_x
_atom_site_fract_y
_atom_site_fract_z
Si Si1 0.244513 0.938112 0.841733
Si Si2 0.962058 0.438322 0.737348
Si Si3 0.761371 0.562162 0.821118
Si Si4 0.038875 0.064552 0.600385
Si Si5 0.078386 0.947652 0.930920
Si Si6 0.736139 0.555963 0.981315
O O1 0.215366 0.750000 0.827412
O O2 0.102890 0.999383 0.877152
O O3 0.303111 0.041222 0.797228
O O4 0.403140 0.945110 0.877181
O O5 0.016566 0.250000 0.735885
O O6 0.907847 0.492929 0.788864
O O7 0.101783 0.550097 0.713696
O O8 0.793204 0.750000 0.834477
O O9 0.699757 0.463724 0.866437
O O10 0.979467 0.250000 0.606542
O O11 0.091270 0.032444 0.547067
O O12 0.087564 0.750000 0.931542
O O13 0.904856 0.995519 0.953974
O O14 0.221047 0.015131 0.965163
O O15 0.713325 0.750000 0.975884
#
# Coordination Sequence:
#
# PCOD9464659 Si02
#       6
#     8   8   8   8   8   8
#     4  10  20  37  58  81 110 144 183 227 276 329
#     4  11  22  38  58  84 115 146 184 230 279 330
#     4  11  22  39  60  83 112 148 188 229 277 331
#     4  11  22  37  56  81 112 145 184 228 274 325
#     4   9  20  37  57  81 109 141 181 227 273 325
#     4  10  20  36  57  81 110 144 182 225 275 329
#
# _framework density 25.586784999999999
#
# number of rings (size 3 to 8) (size 9 to 14) (size 15 to 20)
#    0.000    1.667    0.000    7.500    0.000    4.000 
#    0.000    5.000    0.000    0.000    0.000    0.000 
#    0.000    0.000    0.000    0.000    0.000    0.000 
#
# Total GULP energy -268948.428385 kJ/mol
# GULP energy per Si atom -5603.092258 kJ/mol
# Density = 2.552855 g / cm^3
# Si number density = 25.586785 Si / 1000 Ang^3
#
#
#
# Elastic Constant Matrix: (Units=GPa)
#
#
# Indices 1 2 3 4 5 6 
#
# 1 63.0825 0.9386 9.7426 0.0000 0.0000 0.0000
# 2 0.9386 77.2748 10.9666 0.0000 0.0000 0.0000
# 3 9.7426 10.9666 141.0905 0.0000 0.0000 0.0000
# 4 0.0000 0.0000 0.0000 30.9865 0.0000 0.0000
# 5 0.0000 0.0000 0.0000 0.0000 57.3484 0.0000
# 6 0.0000 0.0000 0.0000 0.0000 0.0000 17.9153
#
#
#
# Elastic Compliance Matrix: (Units=1/GPa)
#
#
# Indices 1 2 3 4 5 6 
#
# 1 0.016023 -0.000038 -0.001103 0.000000 0.000000 0.000000
# 2 -0.000038 0.013085 -0.001014 0.000000 0.000000 0.000000
# 3 -0.001103 -0.001014 0.007243 0.000000 0.000000 0.000000
# 4 0.000000 0.000000 0.000000 0.032272 0.000000 0.000000
# 5 0.000000 0.000000 0.000000 0.000000 0.017437 0.000000
# 6 0.000000 0.000000 0.000000 0.000000 0.000000 0.055818
#
#
# Mechanical properties :
#
#
# Convention : Reuss Voigt Hill
#
# Bulk Modulus (GPa) = 31.21171 36.08261 33.64716
# Shear Modulus (GPa) = 31.87345 38.57005 35.22175
#
# Velocity S-wave (km/s) = 3.53328 3.88676 3.71423
# Velocity P-wave (km/s) = 5.37310 5.85451 5.61896
#
# Compressibility (1/GPa) = 0.03203926
#
# Stress axis : x y z
#
# Youngs Moduli (GPa) = 62.40936 76.42185 138.07007
#
# Poissons Ratio (x) = 0.00291 0.15236
# Poissons Ratio (y) = 0.00237 0.14007
# Poissons Ratio (z) = 0.06887 0.07753
#
# Static dielectric constant tensor:
#      x y z
#    x 2.145450 0.000000 0.000000 
#    y 0.000000 1.854710 0.000000 
#    z 0.000000 0.000000 2.016670 
# 
# From -- ./inp_files/31929.got.cif
#   From: 2010.05.17/outbox.cif.g08.bks.cpg/sg62_16_cif.got.tgz:31929.got - 2010.06.03 15:25:27.
