data_PCOD9464845
_publ_section_title
;
Structure prediction by ZEFSAII (Michael W. Deem and Ramdas Pophale) SiO2 
 PCOD9464845
Probable space group: P N M A
;
_chemical_formula_sum "Si O2"
_cell_formula_units_Z 64
_cell_length_a 16.071678
_cell_length_b 30.800731
_cell_length_c 5.596143
_cell_angle_alpha 90.000000
_cell_angle_beta 90.000000
_cell_angle_gamma 90.000000
_cell_volume 2770.199523
_symmetry_space_group_name_H-M "P N M A"
_symmetry_group_IT_number 62
_symmetry_cell_setting 'orthorhombic'
loop_
_space_group_symop_operation_xyz
x,y,z
1/2-x,-y,1/2+z
1/2+x,1/2-y,1/2-z
-x,1/2+y,-z
-x,-y,-z
1/2+x,y,1/2-z
1/2-x,1/2+y,1/2+z
x,1/2-y,z
loop_
_atom_site_type_symbol
_atom_site_label
_atom_site_fract_x
_atom_site_fract_y
_atom_site_fract_z
Si Si1 0.391629 0.371538 0.893260
Si Si2 0.573698 0.346776 0.994886
Si Si3 0.920479 0.699895 0.989400
Si Si4 0.621593 0.701366 0.485238
Si Si5 0.553530 0.564384 0.477269
Si Si6 0.678373 0.068577 0.983694
Si Si7 0.819167 0.374840 0.185593
Si Si8 0.368531 0.970366 0.515550
O O1 0.473510 0.346975 0.994700
O O2 0.310151 0.385733 0.038439
O O3 0.360177 0.335379 0.708990
O O4 0.429500 0.414928 0.779658
O O5 0.604564 0.324492 0.242663
O O6 0.604433 0.396155 0.987802
O O7 0.599906 0.323503 0.743402
O O8 0.891563 0.750000 0.990328
O O9 0.022071 0.701451 0.981368
O O10 0.648404 0.750000 0.435795
O O11 0.671648 0.677136 0.694089
O O12 0.590714 0.602543 0.640832
O O13 0.606071 0.520734 0.507289
O O14 0.457390 0.554870 0.518722
O O15 0.757132 0.099805 0.020827
O O16 0.672083 0.039529 0.225595
O O17 0.676167 0.043701 0.731325
#
# Coordination Sequence:
#
# PCOD9464845 Si02
#       8
#     8   8   8   8   8   8   8   8
#     4  10  20  38  67  97 126 175 223 283 325 397
#     4  11  20  39  62  91 131 167 221 275 331 400
#     4  10  20  36  64  95 123 166 226 287 334 385
#     4   9  20  37  61  95 125 167 224 280 327 391
#     4  10  24  43  72  97 131 172 232 281 330 394
#     4  12  27  42  66  97 142 179 218 270 346 401
#     4  11  24  41  67  94 136 179 221 270 344 404
#     4  11  26  45  69 102 132 179 225 283 331 404
#
# _framework density 23.103031000000001
#
# number of rings (size 3 to 8) (size 9 to 14) (size 15 to 20)
#    0.000    1.500    2.500    1.875    7.000    3.000 
#    0.000    1.250    0.000    0.000    0.000    0.000 
#    0.000    0.000    0.000    0.000    0.000    0.000 
#
# Total GULP energy -356665.878145 kJ/mol
# GULP energy per Si atom -5572.904346 kJ/mol
# Density = 2.305045 g / cm^3
# Si number density = 23.103031 Si / 1000 Ang^3
#
#
#
# Elastic Constant Matrix: (Units=GPa)
#
#
# Indices 1 2 3 4 5 6 
#
# 1 26.5328 14.7550 1.1033 0.0000 0.0000 0.0000
# 2 14.7550 114.0846 36.5077 0.0000 0.0000 0.0000
# 3 1.1033 36.5077 118.8689 0.0000 0.0000 0.0000
# 4 0.0000 0.0000 0.0000 14.9788 0.0000 0.0000
# 5 0.0000 0.0000 0.0000 0.0000 19.2877 0.0000
# 6 0.0000 0.0000 0.0000 0.0000 0.0000 21.3650
#
#
#
# Elastic Compliance Matrix: (Units=1/GPa)
#
#
# Indices 1 2 3 4 5 6 
#
# 1 0.040812 -0.005719 0.001378 0.000000 0.000000 0.000000
# 2 -0.005719 0.010522 -0.003179 0.000000 0.000000 0.000000
# 3 0.001378 -0.003179 0.009376 0.000000 0.000000 0.000000
# 4 0.000000 0.000000 0.000000 0.066761 0.000000 0.000000
# 5 0.000000 0.000000 0.000000 0.000000 0.051846 0.000000
# 6 0.000000 0.000000 0.000000 0.000000 0.000000 0.046806
#
#
# Mechanical properties :
#
#
# Convention : Reuss Voigt Hill
#
# Bulk Modulus (GPa) = 21.89602 40.46872 31.18237
# Shear Modulus (GPa) = 19.50172 24.93432 22.21802
#
# Velocity S-wave (km/s) = 2.90853 3.28878 3.10448
# Velocity P-wave (km/s) = 4.55823 5.65474 5.13583
#
# Compressibility (1/GPa) = 0.04567040
#
# Stress axis : x y z
#
# Youngs Moduli (GPa) = 24.50238 95.03642 106.65461
#
# Poissons Ratio (x) = 0.54354 -0.14694
# Poissons Ratio (y) = 0.14014 0.33901
# Poissons Ratio (z) = -0.03376 0.30208
#
# Static dielectric constant tensor:
#      x y z
#    x 1.958490 0.000000 0.000000 
#    y 0.000000 1.846780 0.000000 
#    z 0.000000 0.000000 2.209890 
# 
# From -- ./inp_files/1889.got.cif
#   From: 2010.05.17/outbox.cif.g08.bks.cpg/sg62_1_cif.got.tgz:1889.got - 2010.06.03 15:25:27.
