data_PCOD9464848
_publ_section_title
;
Structure prediction by ZEFSAII (Michael W. Deem and Ramdas Pophale) SiO2 
 PCOD9464848
Probable space group: P N M A
;
_chemical_formula_sum "Si O2"
_cell_formula_units_Z 48
_cell_length_a 8.558919
_cell_length_b 14.690230
_cell_length_c 18.432678
_cell_angle_alpha 90.000000
_cell_angle_beta 90.000000
_cell_angle_gamma 90.000000
_cell_volume 2317.586478
_symmetry_space_group_name_H-M "P N M A"
_symmetry_group_IT_number 62
_symmetry_cell_setting 'orthorhombic'
loop_
_space_group_symop_operation_xyz
x,y,z
1/2-x,-y,1/2+z
1/2+x,1/2-y,1/2-z
-x,1/2+y,-z
-x,-y,-z
1/2+x,y,1/2-z
1/2-x,1/2+y,1/2+z
x,1/2-y,z
loop_
_atom_site_type_symbol
_atom_site_label
_atom_site_fract_x
_atom_site_fract_y
_atom_site_fract_z
Si Si1 0.181665 0.074008 0.291859
Si Si2 0.748443 0.353402 0.839716
Si Si3 0.048051 0.057252 0.771453
Si Si4 0.668038 0.017539 0.964830
Si Si5 0.677713 0.648944 0.576148
Si Si6 0.317285 0.645404 0.626891
O O1 0.199724 0.143497 0.357011
O O2 0.201739 0.117251 0.211715
O O3 0.317776 0.001046 0.308779
O O4 0.026621 0.014076 0.285749
O O5 0.784562 0.250000 0.856015
O O6 0.635581 0.362591 0.770241
O O7 0.661266 0.405128 0.903485
O O8 0.907330 0.407850 0.820740
O O9 0.782570 0.065109 0.023508
O O10 0.500000 0.000000 0.000000
O O11 0.733335 0.926643 0.926006
O O12 0.691398 0.750000 0.541772
O O13 0.502081 0.642618 0.607727
O O14 0.264123 0.750000 0.617365
#
# Coordination Sequence:
#
# PCOD9464848 Si02
#       6
#     8   8   8   8   8   8
#     4  11  19  41  63  98 129 167 214 266 329 378
#     4  11  22  40  63  94 129 171 218 264 322 388
#     4  10  20  36  65  90 127 167 208 273 319 368
#     4  12  25  44  64  94 135 173 212 273 335 393
#     4  11  24  40  65  97 132 176 215 261 327 393
#     4  11  24  43  67  94 127 172 223 268 319 392
#
# _framework density 20.711202
#
# number of rings (size 3 to 8) (size 9 to 14) (size 15 to 20)
#    0.000    1.000    5.000    3.000    0.000    1.333 
#    0.000    0.000    0.000    3.000    0.000    0.000 
#    0.000    0.000    0.000    0.000    0.000    0.000 
#
# Total GULP energy -268003.274155 kJ/mol
# GULP energy per Si atom -5583.401545 kJ/mol
# Density = 2.066406 g / cm^3
# Si number density = 20.711202 Si / 1000 Ang^3
#
#
#
# Elastic Constant Matrix: (Units=GPa)
#
#
# Indices 1 2 3 4 5 6 
#
# 1 31.0839 5.2609 -2.4140 0.0000 0.0000 0.0000
# 2 5.2609 130.3134 41.1079 0.0000 0.0000 0.0000
# 3 -2.4140 41.1079 86.0204 0.0000 0.0000 0.0000
# 4 0.0000 0.0000 0.0000 22.0070 0.0000 0.0000
# 5 0.0000 0.0000 0.0000 0.0000 29.8675 0.0000
# 6 0.0000 0.0000 0.0000 0.0000 0.0000 19.8466
#
#
#
# Elastic Compliance Matrix: (Units=1/GPa)
#
#
# Indices 1 2 3 4 5 6 
#
# 1 0.032632 -0.001891 0.001820 0.000000 0.000000 0.000000
# 2 -0.001891 0.009146 -0.004424 0.000000 0.000000 0.000000
# 3 0.001820 -0.004424 0.013790 0.000000 0.000000 0.000000
# 4 0.000000 0.000000 0.000000 0.045440 0.000000 0.000000
# 5 0.000000 0.000000 0.000000 0.000000 0.033481 0.000000
# 6 0.000000 0.000000 0.000000 0.000000 0.000000 0.050387
#
#
# Mechanical properties :
#
#
# Convention : Reuss Voigt Hill
#
# Bulk Modulus (GPa) = 21.46964 37.25860 29.36412
# Shear Modulus (GPa) = 23.87857 27.90840 25.89348
#
# Velocity S-wave (km/s) = 3.39917 3.67482 3.53968
# Velocity P-wave (km/s) = 5.07883 6.00286 5.56007
#
# Compressibility (1/GPa) = 0.04657739
#
# Stress axis : x y z
#
# Youngs Moduli (GPa) = 30.64438 109.34198 72.51528
#
# Poissons Ratio (x) = 0.20681 -0.13195
# Poissons Ratio (y) = 0.05796 0.32078
# Poissons Ratio (z) = -0.05576 0.48369
#
# Static dielectric constant tensor:
#      x y z
#    x 1.730540 0.000000 0.000000 
#    y 0.000000 1.759520 0.000000 
#    z 0.000000 0.000000 1.784580 
# 
# From -- ./inp_files/22208.got.cif
#   From: 2010.05.17/outbox.cif.g08.bks.cpg/sg62_12_cif.got.tgz:22208.got - 2010.06.03 15:25:27.
