data_PCOD9464372
_publ_section_title
;
Structure prediction by ZEFSAII (Michael W. Deem and Ramdas Pophale) SiO2 
 PCOD9464372
Probable space group: P N M A
;
_chemical_formula_sum "Si O2"
_cell_formula_units_Z 48
_cell_length_a 15.526434
_cell_length_b 17.892973
_cell_length_c 9.279614
_cell_angle_alpha 90.000000
_cell_angle_beta 90.000000
_cell_angle_gamma 90.000000
_cell_volume 2578.007281
_symmetry_space_group_name_H-M "P N M A"
_symmetry_group_IT_number 62
_symmetry_cell_setting 'orthorhombic'
loop_
_space_group_symop_operation_xyz
x,y,z
1/2-x,-y,1/2+z
1/2+x,1/2-y,1/2-z
-x,1/2+y,-z
-x,-y,-z
1/2+x,y,1/2-z
1/2-x,1/2+y,1/2+z
x,1/2-y,z
loop_
_atom_site_type_symbol
_atom_site_label
_atom_site_fract_x
_atom_site_fract_y
_atom_site_fract_z
Si Si1 0.232372 0.159980 0.578070
Si Si2 0.939196 0.933283 0.949565
Si Si3 0.405790 0.338461 0.409560
Si Si4 0.238480 0.073609 0.875101
Si Si5 0.827902 0.583879 0.685848
Si Si6 0.314093 0.338561 0.130479
O O1 0.225263 0.250000 0.579006
O O2 0.325876 0.137405 0.510332
O O3 0.227235 0.124802 0.735171
O O4 0.163620 0.121981 0.469953
O O5 0.909528 0.936210 0.783123
O O6 0.001754 0.862660 0.965018
O O7 0.852737 0.933063 0.043488
O O8 0.000000 0.000000 0.000000
O O9 0.399912 0.250000 0.404553
O O10 0.386855 0.363733 0.245011
O O11 0.273456 0.992268 0.831900
O O12 0.304361 0.113278 0.986523
O O13 0.773090 0.644047 0.779163
O O14 0.321149 0.250000 0.100600
#
# Coordination Sequence:
#
# PCOD9464372 Si02
#       6
#     8   8   8   8   8   8
#     4  10  20  37  58  83 114 148 184 230 283 339
#     4  11  22  36  57  82 111 144 186 237 282 329
#     4   9  19  36  57  79 109 143 179 224 278 329
#     4  11  21  35  58  85 111 145 190 233 273 331
#     4  10  20  35  56  78 109 149 188 224 269 335
#     4   9  18  35  57  79 105 145 187 220 261 329
#
# _framework density 18.619033000000002
#
# number of rings (size 3 to 8) (size 9 to 14) (size 15 to 20)
#    0.000    2.000    0.000    7.000    0.000    4.000 
#    0.000    5.000    0.000    0.000    0.000    0.000 
#    0.000    0.000    0.000    0.000    0.000    0.000 
#
# Total GULP energy -267593.671774 kJ/mol
# GULP energy per Si atom -5574.868162 kJ/mol
# Density = 1.857666 g / cm^3
# Si number density = 18.619033 Si / 1000 Ang^3
#
#
#
# Elastic Constant Matrix: (Units=GPa)
#
#
# Indices 1 2 3 4 5 6 
#
# 1 68.8979 22.5664 18.1265 0.0000 0.0000 0.0000
# 2 22.5664 72.3473 32.8072 0.0000 0.0000 0.0000
# 3 18.1265 32.8072 99.5080 0.0000 0.0000 0.0000
# 4 0.0000 0.0000 0.0000 27.5484 0.0000 0.0000
# 5 0.0000 0.0000 0.0000 0.0000 31.4074 0.0000
# 6 0.0000 0.0000 0.0000 0.0000 0.0000 29.8147
#
#
#
# Elastic Compliance Matrix: (Units=1/GPa)
#
#
# Indices 1 2 3 4 5 6 
#
# 1 0.016360 -0.004411 -0.001526 0.000000 0.000000 0.000000
# 2 -0.004411 0.017441 -0.004947 0.000000 0.000000 0.000000
# 3 -0.001526 -0.004947 0.011958 0.000000 0.000000 0.000000
# 4 0.000000 0.000000 0.000000 0.036300 0.000000 0.000000
# 5 0.000000 0.000000 0.000000 0.000000 0.031840 0.000000
# 6 0.000000 0.000000 0.000000 0.000000 0.000000 0.033540
#
#
# Mechanical properties :
#
#
# Convention : Reuss Voigt Hill
#
# Bulk Modulus (GPa) = 41.67977 43.08372 42.38174
# Shear Modulus (GPa) = 28.21587 28.90431 28.56009
#
# Velocity S-wave (km/s) = 3.89708 3.94433 3.92078
# Velocity P-wave (km/s) = 6.53328 6.62824 6.58093
#
# Compressibility (1/GPa) = 0.02399246
#
# Stress axis : x y z
#
# Youngs Moduli (GPa) = 61.12287 57.33503 83.62379
#
# Poissons Ratio (x) = 0.25292 0.12760
# Poissons Ratio (y) = 0.26962 0.41367
# Poissons Ratio (z) = 0.09327 0.28362
#
# Static dielectric constant tensor:
#      x y z
#    x 1.692740 0.000000 0.000000 
#    y 0.000000 1.674820 0.000000 
#    z 0.000000 0.000000 1.676420 
# 
# From -- ./inp_files/6429.got.cif
#   From: 2010.05.17/outbox.cif.g08.bks.cpg/sg62_4_cif.got.tgz:6429.got - 2010.06.03 15:25:27.
