data_PCOD9464079
_publ_section_title
;
Structure prediction by ZEFSAII (Michael W. Deem and Ramdas Pophale) SiO2 
 PCOD9464079
Probable space group: P N M A
;
_chemical_formula_sum "Si O2"
_cell_formula_units_Z 64
_cell_length_a 9.750474
_cell_length_b 14.284551
_cell_length_c 26.937896
_cell_angle_alpha 90.000000
_cell_angle_beta 90.000000
_cell_angle_gamma 90.000000
_cell_volume 3751.940948
_symmetry_space_group_name_H-M "P N M A"
_symmetry_group_IT_number 62
_symmetry_cell_setting 'orthorhombic'
loop_
_space_group_symop_operation_xyz
x,y,z
1/2-x,-y,1/2+z
1/2+x,1/2-y,1/2-z
-x,1/2+y,-z
-x,-y,-z
1/2+x,y,1/2-z
1/2-x,1/2+y,1/2+z
x,1/2-y,z
loop_
_atom_site_type_symbol
_atom_site_label
_atom_site_fract_x
_atom_site_fract_y
_atom_site_fract_z
Si Si1 0.662965 0.034688 0.399940
Si Si2 0.085265 0.638628 0.952282
Si Si3 0.647919 0.056670 0.100126
Si Si4 0.408842 0.861214 0.795257
Si Si5 0.194545 0.647244 0.432457
Si Si6 0.975843 0.357290 0.932591
Si Si7 0.413383 0.074476 0.031698
Si Si8 0.768021 0.138251 0.302319
O O1 0.548346 0.102274 0.423684
O O2 0.788574 0.029760 0.438384
O O3 0.717518 0.078467 0.349095
O O4 0.593531 0.932930 0.397035
O O5 0.100076 0.750000 0.946354
O O6 0.216263 0.586970 0.929337
O O7 0.067140 0.618720 0.010782
O O8 0.650556 0.085798 0.157084
O O9 0.520743 0.108840 0.073045
O O10 0.633122 0.944324 0.094173
O O11 0.392678 0.750000 0.803932
O O12 0.571582 0.880206 0.791247
O O13 0.325882 0.883371 0.745333
O O14 0.156083 0.750000 0.412570
O O15 0.359277 0.638014 0.430258
O O16 0.147959 0.642227 0.490061
O O17 0.934905 0.250000 0.922668
O O18 0.500000 0.000000 0.000000
O O19 0.754525 0.250000 0.313011
#
# Coordination Sequence:
#
# PCOD9464079 Si02
#       8
#     8   8   8   8   8   8   8   8
#     4  12  20  37  57  80 115 151 190 230 277 341
#     4  11  22  33  53  83 114 152 192 229 271 328
#     4  11  21  38  55  82 114 151 188 230 282 337
#     4  10  22  40  59  82 112 142 182 232 282 339
#     4  10  20  34  54  81 114 151 190 229 274 329
#     4  10  20  34  53  80 112 149 191 229 267 320
#     4  10  21  34  55  81 115 152 189 228 280 332
#     4  10  23  39  59  85 111 144 184 232 287 340
#
# _framework density 17.057836999999999
#
# number of rings (size 3 to 8) (size 9 to 14) (size 15 to 20)
#    0.000    1.500    3.750    2.625    1.750    1.500 
#    0.000    3.750    0.000    0.750    0.000    0.000 
#    0.000    0.000    0.000    0.000    0.000    0.000 
#
# Total GULP energy -357158.227329 kJ/mol
# GULP energy per Si atom -5580.597302 kJ/mol
# Density = 1.701901 g / cm^3
# Si number density = 17.057837 Si / 1000 Ang^3
#
#
#
# Elastic Constant Matrix: (Units=GPa)
#
#
# Indices 1 2 3 4 5 6 
#
# 1 49.3996 10.5183 0.5454 0.0000 0.0000 0.0000
# 2 10.5183 73.8345 34.1544 0.0000 0.0000 0.0000
# 3 0.5454 34.1544 60.6759 0.0000 0.0000 0.0000
# 4 0.0000 0.0000 0.0000 23.4567 0.0000 0.0000
# 5 0.0000 0.0000 0.0000 0.0000 18.6481 0.0000
# 6 0.0000 0.0000 0.0000 0.0000 0.0000 6.7655
#
#
#
# Elastic Compliance Matrix: (Units=1/GPa)
#
#
# Indices 1 2 3 4 5 6 
#
# 1 0.021059 -0.003938 0.002027 0.000000 0.000000 0.000000
# 2 -0.003938 0.019048 -0.010687 0.000000 0.000000 0.000000
# 3 0.002027 -0.010687 0.022478 0.000000 0.000000 0.000000
# 4 0.000000 0.000000 0.000000 0.042632 0.000000 0.000000
# 5 0.000000 0.000000 0.000000 0.000000 0.053625 0.000000
# 6 0.000000 0.000000 0.000000 0.000000 0.000000 0.147809
#
#
# Mechanical properties :
#
#
# Convention : Reuss Voigt Hill
#
# Bulk Modulus (GPa) = 26.74433 30.48289 28.61361
# Shear Modulus (GPa) = 14.52178 19.02018 16.77098
#
# Velocity S-wave (km/s) = 2.92091 3.34284 3.13898
# Velocity P-wave (km/s) = 5.20464 5.72788 5.47252
#
# Compressibility (1/GPa) = 0.03739111
#
# Stress axis : x y z
#
# Youngs Moduli (GPa) = 47.48525 52.49808 44.48715
#
# Poissons Ratio (x) = 0.20673 -0.09019
# Poissons Ratio (y) = 0.18699 0.47543
# Poissons Ratio (z) = -0.09627 0.56104
#
# Static dielectric constant tensor:
#      x y z
#    x 1.590830 0.000000 0.000000 
#    y 0.000000 1.587690 0.000000 
#    z 0.000000 0.000000 1.563840 
# 
# From -- ./inp_files/28967.got.cif
#   From: 2010.05.17/outbox.cif.g08.bks.cpg/sg62_15_cif.got.tgz:28967.got - 2010.06.03 15:25:27.
