data_PCOD9464529
_publ_section_title
;
Structure prediction by ZEFSAII (Michael W. Deem and Ramdas Pophale) SiO2 
 PCOD9464529
Probable space group: P N M A
;
_chemical_formula_sum "Si O2"
_cell_formula_units_Z 48
_cell_length_a 16.784160
_cell_length_b 8.842530
_cell_length_c 18.312526
_cell_angle_alpha 90.000000
_cell_angle_beta 90.000000
_cell_angle_gamma 90.000000
_cell_volume 2717.843261
_symmetry_space_group_name_H-M "P N M A"
_symmetry_group_IT_number 62
_symmetry_cell_setting 'orthorhombic'
loop_
_space_group_symop_operation_xyz
x,y,z
1/2-x,-y,1/2+z
1/2+x,1/2-y,1/2-z
-x,1/2+y,-z
-x,-y,-z
1/2+x,y,1/2-z
1/2-x,1/2+y,1/2+z
x,1/2-y,z
loop_
_atom_site_type_symbol
_atom_site_label
_atom_site_fract_x
_atom_site_fract_y
_atom_site_fract_z
Si Si1 0.854230 0.930041 0.171837
Si Si2 0.501027 0.569695 0.580942
Si Si3 0.322150 0.928321 0.584884
Si Si4 0.582886 0.431572 0.973282
Si Si5 0.337714 0.069819 0.169074
Si Si6 0.755389 0.929486 0.555229
O O1 0.856326 0.750000 0.172948
O O2 0.930947 0.993640 0.128933
O O3 0.853184 0.995880 0.253115
O O4 0.777652 0.986578 0.126038
O O5 0.500000 0.500000 0.500000
O O6 0.514817 0.750000 0.577210
O O7 0.411674 0.542911 0.610948
O O8 0.317402 0.750000 0.564554
O O9 0.253682 0.957610 0.643940
O O10 0.300485 0.023324 0.512997
O O11 0.578227 0.250000 0.968349
O O12 0.608615 0.499545 0.895232
O O13 0.500000 0.500000 0.000000
O O14 0.655245 0.469000 0.029211
O O15 0.350421 0.250000 0.172480
O O16 0.750640 0.750000 0.566614
#
# Coordination Sequence:
#
# PCOD9464529 Si02
#       6
#     8   8   8   8   8   8
#     4  12  24  38  56  84 120 157 194 239 292 346
#     4  11  21  35  58  89 119 153 191 235 286 345
#     4   9  19  36  59  84 111 146 188 231 283 344
#     4  10  21  39  63  90 116 151 197 242 290 346
#     4  10  21  40  62  84 114 153 192 242 296 343
#     4  10  20  35  59  85 112 149 191 235 284 342
#
# _framework density 17.661062999999999
#
# number of rings (size 3 to 8) (size 9 to 14) (size 15 to 20)
#    0.000    1.667    1.667    3.500    0.000    3.333 
#    3.000    0.000    0.000    0.000    0.000    0.000 
#    0.000    0.000    0.000    0.000    0.000    0.000 
#
# Total GULP energy -268106.857878 kJ/mol
# GULP energy per Si atom -5585.559539 kJ/mol
# Density = 1.762087 g / cm^3
# Si number density = 17.661063 Si / 1000 Ang^3
#
#
#
# Elastic Constant Matrix: (Units=GPa)
#
#
# Indices 1 2 3 4 5 6 
#
# 1 141.2549 77.1930 90.7631 0.0000 0.0000 0.0000
# 2 77.1930 109.3813 81.1373 0.0000 0.0000 0.0000
# 3 90.7631 81.1373 150.8141 0.0000 0.0000 0.0000
# 4 0.0000 0.0000 0.0000 35.2037 0.0000 0.0000
# 5 0.0000 0.0000 0.0000 0.0000 19.4325 0.0000
# 6 0.0000 0.0000 0.0000 0.0000 0.0000 25.6794
#
#
#
# Elastic Compliance Matrix: (Units=1/GPa)
#
#
# Indices 1 2 3 4 5 6 
#
# 1 0.013442 -0.005800 -0.004969 0.000000 0.000000 0.000000
# 2 -0.005800 0.017717 -0.006041 0.000000 0.000000 0.000000
# 3 -0.004969 -0.006041 0.012871 0.000000 0.000000 0.000000
# 4 0.000000 0.000000 0.000000 0.028406 0.000000 0.000000
# 5 0.000000 0.000000 0.000000 0.000000 0.051460 0.000000
# 6 0.000000 0.000000 0.000000 0.000000 0.000000 0.038942
#
#
# Mechanical properties :
#
#
# Convention : Reuss Voigt Hill
#
# Bulk Modulus (GPa) = 96.06701 99.95968 98.01335
# Shear Modulus (GPa) = 25.00897 26.22025 25.61461
#
# Velocity S-wave (km/s) = 3.76713 3.85728 3.81247
# Velocity P-wave (km/s) = 8.56940 8.74985 8.66009
#
# Compressibility (1/GPa) = 0.01040940
#
# Stress axis : x y z
#
# Youngs Moduli (GPa) = 74.39307 56.44395 77.69335
#
# Poissons Ratio (x) = 0.32740 0.38607
# Poissons Ratio (y) = 0.43151 0.46932
# Poissons Ratio (z) = 0.36967 0.34096
#
# Static dielectric constant tensor:
#      x y z
#    x 1.612110 0.000000 0.000000 
#    y 0.000000 1.589520 0.000000 
#    z 0.000000 0.000000 1.561650 
# 
# From -- ./inp_files/23745.got.cif
#   From: 2010.05.17/outbox.cif.g08.bks.cpg/sg62_12_cif.got.tgz:23745.got - 2010.06.03 15:25:27.
