data_PCOD9464890
_publ_section_title
;
Structure prediction by ZEFSAII (Michael W. Deem and Ramdas Pophale) SiO2 
 PCOD9464890
Probable space group: P N M A
;
_chemical_formula_sum "Si O2"
_cell_formula_units_Z 56
_cell_length_a 21.376018
_cell_length_b 9.407646
_cell_length_c 15.061347
_cell_angle_alpha 90.000000
_cell_angle_beta 90.000000
_cell_angle_gamma 90.000000
_cell_volume 3028.806913
_symmetry_space_group_name_H-M "P N M A"
_symmetry_group_IT_number 62
_symmetry_cell_setting 'orthorhombic'
loop_
_space_group_symop_operation_xyz
x,y,z
1/2-x,-y,1/2+z
1/2+x,1/2-y,1/2-z
-x,1/2+y,-z
-x,-y,-z
1/2+x,y,1/2-z
1/2-x,1/2+y,1/2+z
x,1/2-y,z
loop_
_atom_site_type_symbol
_atom_site_label
_atom_site_fract_x
_atom_site_fract_y
_atom_site_fract_z
Si Si1 0.974543 0.917077 0.136493
Si Si2 0.906726 0.420123 0.280591
Si Si3 0.905373 0.083881 0.980324
Si Si4 0.688877 0.584312 0.080028
Si Si5 0.934805 0.079124 0.485813
Si Si6 0.713042 0.412162 0.422837
Si Si7 0.732757 0.582467 0.726598
O O1 0.960023 0.750000 0.142367
O O2 0.045059 0.931642 0.100088
O O3 0.960056 0.995834 0.228002
O O4 0.931973 0.993220 0.062146
O O5 0.913360 0.250000 0.268361
O O6 0.910433 0.448101 0.385592
O O7 0.839503 0.463116 0.239252
O O8 0.902561 0.250000 0.004784
O O9 0.839130 0.022959 0.951706
O O10 0.685427 0.750000 0.106481
O O11 0.727506 0.499637 0.153425
O O12 0.618941 0.534467 0.055766
O O13 0.728352 0.577615 0.988884
O O14 0.942626 0.250000 0.493953
O O15 0.000000 0.000000 0.500000
O O16 0.688199 0.250000 0.430636
O O17 0.735312 0.434194 0.322612
O O18 0.731978 0.750000 0.704709
#
# Coordination Sequence:
#
# PCOD9464890 Si02
#       7
#     8   8   8   8   8   8   8
#     4  10  21  36  55  81 114 150 189 234 285 342
#     4  10  20  38  61  83 113 154 197 240 291 351
#     4  10  21  36  54  81 116 150 187 234 287 341
#     4  10  21  39  60  84 117 154 191 240 298 349
#     4  10  22  41  62  84 116 157 197 242 296 351
#     4  10  20  37  59  81 112 150 187 232 287 345
#     4  10  21  37  59  86 114 149 193 240 291 349
#
# _framework density 18.489128000000001
#
# number of rings (size 3 to 8) (size 9 to 14) (size 15 to 20)
#    0.000    2.000    1.429    1.714    0.000    8.000 
#    0.000    5.714    0.000    0.000    0.000    0.000 
#    0.000    0.000    0.000    0.000    0.000    0.000 
#
# Total GULP energy -312681.493462 kJ/mol
# GULP energy per Si atom -5583.598098 kJ/mol
# Density = 1.844705 g / cm^3
# Si number density = 18.489128 Si / 1000 Ang^3
#
#
#
# Elastic Constant Matrix: (Units=GPa)
#
#
# Indices 1 2 3 4 5 6 
#
# 1 95.5353 40.9258 25.1661 0.0000 0.0000 0.0000
# 2 40.9258 40.6630 20.3327 0.0000 0.0000 0.0000
# 3 25.1661 20.3327 58.5917 0.0000 0.0000 0.0000
# 4 0.0000 0.0000 0.0000 19.8143 0.0000 0.0000
# 5 0.0000 0.0000 0.0000 0.0000 15.3091 0.0000
# 6 0.0000 0.0000 0.0000 0.0000 0.0000 30.6437
#
#
#
# Elastic Compliance Matrix: (Units=1/GPa)
#
#
# Indices 1 2 3 4 5 6 
#
# 1 0.018557 -0.017776 -0.001802 0.000000 0.000000 0.000000
# 2 -0.017776 0.046783 -0.008600 0.000000 0.000000 0.000000
# 3 -0.001802 -0.008600 0.020826 0.000000 0.000000 0.000000
# 4 0.000000 0.000000 0.000000 0.050469 0.000000 0.000000
# 5 0.000000 0.000000 0.000000 0.000000 0.065321 0.000000
# 6 0.000000 0.000000 0.000000 0.000000 0.000000 0.032633
#
#
# Mechanical properties :
#
#
# Convention : Reuss Voigt Hill
#
# Bulk Modulus (GPa) = 33.54515 40.84882 37.19698
# Shear Modulus (GPa) = 16.61790 20.37777 18.49783
#
# Velocity S-wave (km/s) = 3.00124 3.32346 3.16645
# Velocity P-wave (km/s) = 5.49477 6.07195 5.79056
#
# Compressibility (1/GPa) = 0.02981057
#
# Stress axis : x y z
#
# Youngs Moduli (GPa) = 53.88835 21.37511 48.01785
#
# Poissons Ratio (x) = 0.37996 0.08652
# Poissons Ratio (y) = 0.95791 0.41295
# Poissons Ratio (z) = 0.09710 0.18382
#
# Static dielectric constant tensor:
#      x y z
#    x 1.628690 0.000000 0.000000 
#    y 0.000000 1.619840 0.000000 
#    z 0.000000 0.000000 1.630010 
# 
# From -- ./inp_files/20251.got.cif
#   From: 2010.05.17/outbox.cif.g08.bks.cpg/sg62_11_cif.got.tgz:20251.got - 2010.06.03 15:25:27.
