data_PCOD9464101
_publ_section_title
;
Structure prediction by ZEFSAII (Michael W. Deem and Ramdas Pophale) SiO2 
 PCOD9464101
Probable space group: P N M A
;
_chemical_formula_sum "Si O2"
_cell_formula_units_Z 64
_cell_length_a 18.830317
_cell_length_b 7.643111
_cell_length_c 21.093640
_cell_angle_alpha 90.000000
_cell_angle_beta 90.000000
_cell_angle_gamma 90.000000
_cell_volume 3035.843138
_symmetry_space_group_name_H-M "P N M A"
_symmetry_group_IT_number 62
_symmetry_cell_setting 'orthorhombic'
loop_
_space_group_symop_operation_xyz
x,y,z
1/2-x,-y,1/2+z
1/2+x,1/2-y,1/2-z
-x,1/2+y,-z
-x,-y,-z
1/2+x,y,1/2-z
1/2-x,1/2+y,1/2+z
x,1/2-y,z
loop_
_atom_site_type_symbol
_atom_site_label
_atom_site_fract_x
_atom_site_fract_y
_atom_site_fract_z
Si Si1 0.699947 0.465568 0.948625
Si Si2 0.537401 0.535888 0.323717
Si Si3 0.552798 0.458330 0.557852
Si Si4 0.555405 0.962474 0.181949
Si Si5 0.197089 0.954044 0.161084
Si Si6 0.285169 0.043588 0.429784
Si Si7 0.460934 0.540144 0.065288
Si Si8 0.280761 0.954208 0.802703
O O1 0.699404 0.250000 0.949037
O O2 0.749728 0.526451 0.891031
O O3 0.619591 0.524754 0.938499
O O4 0.734152 0.525220 0.014862
O O5 0.537637 0.750000 0.325083
O O6 0.482311 0.475533 0.376646
O O7 0.524915 0.485451 0.250805
O O8 0.617161 0.472995 0.340101
O O9 0.500000 0.500000 0.500000
O O10 0.557724 0.250000 0.561969
O O11 0.632915 0.524527 0.550788
O O12 0.558524 0.750000 0.180880
O O13 0.506920 0.025790 0.124510
O O14 0.636621 0.025401 0.177564
O O15 0.188946 0.750000 0.145292
O O16 0.225509 0.965180 0.232847
O O17 0.269679 0.250000 0.425257
O O18 0.266804 0.971324 0.359958
O O19 0.457382 0.750000 0.072487
O O20 0.500000 0.500000 0.000000
O O21 0.264527 0.750000 0.794324
#
# Coordination Sequence:
#
# PCOD9464101 Si02
#       8
#     8   8   8   8   8   8   8   8
#     4   9  18  34  56  77 100 138 182 217 253 306
#     4   8  16  32  53  76 101 132 169 209 253 301
#     4  11  22  36  56  80 106 136 174 219 264 310
#     4   9  18  34  55  77 103 136 176 216 252 304
#     4   9  17  33  57  78  99 132 174 215 252 301
#     4  10  21  37  54  74 105 141 176 214 258 310
#     4  10  20  34  54  79 105 136 175 218 264 311
#     4  10  20  34  54  79 108 139 169 210 265 315
#
# _framework density 21.081458000000001
#
# number of rings (size 3 to 8) (size 9 to 14) (size 15 to 20)
#    0.000    2.500    0.000    3.000    0.000    5.500 
#    0.000   11.875    0.000    0.000    0.000    0.000 
#    0.000    0.000    0.000    0.000    0.000    0.000 
#
# Total GULP energy -357319.829283 kJ/mol
# GULP energy per Si atom -5583.122333 kJ/mol
# Density = 2.103348 g / cm^3
# Si number density = 21.081458 Si / 1000 Ang^3
#
#
#
# Elastic Constant Matrix: (Units=GPa)
#
#
# Indices 1 2 3 4 5 6 
#
# 1 43.1494 -11.3703 19.2744 0.0000 0.0000 0.0000
# 2 -11.3703 36.5341 -10.7860 0.0000 0.0000 0.0000
# 3 19.2744 -10.7860 72.7798 0.0000 0.0000 0.0000
# 4 0.0000 0.0000 0.0000 19.1238 0.0000 0.0000
# 5 0.0000 0.0000 0.0000 0.0000 46.4952 0.0000
# 6 0.0000 0.0000 0.0000 0.0000 0.0000 19.0094
#
#
#
# Elastic Compliance Matrix: (Units=1/GPa)
#
#
# Indices 1 2 3 4 5 6 
#
# 1 0.027801 0.006775 -0.006358 0.000000 0.000000 0.000000
# 2 0.006775 0.030275 0.002693 0.000000 0.000000 0.000000
# 3 -0.006358 0.002693 0.015823 0.000000 0.000000 0.000000
# 4 0.000000 0.000000 0.000000 0.052291 0.000000 0.000000
# 5 0.000000 0.000000 0.000000 0.000000 0.021508 0.000000
# 6 0.000000 0.000000 0.000000 0.000000 0.000000 0.052606
#
#
# Mechanical properties :
#
#
# Convention : Reuss Voigt Hill
#
# Bulk Modulus (GPa) = 12.48167 16.29992 14.39080
# Shear Modulus (GPa) = 22.64590 27.28203 24.96396
#
# Velocity S-wave (km/s) = 3.28107 3.60130 3.44491
# Velocity P-wave (km/s) = 4.50416 5.00411 4.76070
#
# Compressibility (1/GPa) = 0.08011747
#
# Stress axis : x y z
#
# Youngs Moduli (GPa) = 35.97012 33.03034 63.19900
#
# Poissons Ratio (x) = -0.22378 0.40185
# Poissons Ratio (y) = -0.24370 -0.17017
# Poissons Ratio (z) = 0.22871 -0.08894
#
# Static dielectric constant tensor:
#      x y z
#    x 2.736580 0.000000 0.000000 
#    y 0.000000 1.802120 0.000000 
#    z 0.000000 0.000000 1.794770 
# 
# From -- ./inp_files/27764.got.cif
#   From: 2010.05.17/outbox.cif.g08.bks.cpg/sg62_14_cif.got.tgz:27764.got - 2010.06.03 15:25:27.
