data_PCOD9464591
_publ_section_title
;
Structure prediction by ZEFSAII (Michael W. Deem and Ramdas Pophale) SiO2 
 PCOD9464591
Probable space group: P N M A
;
_chemical_formula_sum "Si O2"
_cell_formula_units_Z 56
_cell_length_a 5.030332
_cell_length_b 24.175242
_cell_length_c 23.597783
_cell_angle_alpha 90.000000
_cell_angle_beta 90.000000
_cell_angle_gamma 90.000000
_cell_volume 2869.714437
_symmetry_space_group_name_H-M "P N M A"
_symmetry_group_IT_number 62
_symmetry_cell_setting 'orthorhombic'
loop_
_space_group_symop_operation_xyz
x,y,z
1/2-x,-y,1/2+z
1/2+x,1/2-y,1/2-z
-x,1/2+y,-z
-x,-y,-z
1/2+x,y,1/2-z
1/2-x,1/2+y,1/2+z
x,1/2-y,z
loop_
_atom_site_type_symbol
_atom_site_label
_atom_site_fract_x
_atom_site_fract_y
_atom_site_fract_z
Si Si1 0.309864 0.364599 0.386689
Si Si2 0.656678 0.110543 0.283564
Si Si3 0.225615 0.250000 0.419684
Si Si4 0.234265 0.250000 0.005245
Si Si5 0.361569 0.874632 0.496552
Si Si6 0.082566 0.522427 0.214996
Si Si7 0.500147 0.470305 0.584571
Si Si8 0.492259 0.952758 0.935035
O O1 0.540478 0.366343 0.341261
O O2 0.170636 0.305798 0.386530
O O3 0.448001 0.372432 0.448276
O O4 0.103593 0.415063 0.382313
O O5 0.949108 0.127529 0.265608
O O6 0.614749 0.044276 0.287126
O O7 0.531015 0.250000 0.440980
O O8 0.036693 0.250000 0.474013
O O9 0.187607 0.189109 0.978419
O O10 0.491355 0.912654 0.448526
O O11 0.099633 0.908084 0.519028
O O12 0.870065 0.540566 0.262450
O O13 0.983347 0.538542 0.152294
O O14 0.262360 0.492500 0.442505
O O15 0.234950 0.506362 0.576640
#
# Coordination Sequence:
#
# PCOD9464591 Si02
#       8
#     8   8   4   4   8   8   8   8
#     4  11  23  39  58  80 110 151 191 236 283 335
#     4  10  22  34  54  76 105 145 190 232 275 328
#     4  10  22  38  58  77 104 147 198 230 273 327
#     4  10  22  38  58  81 106 155 184 222 273 333
#     4  11  24  39  59  85 119 145 189 231 281 342
#     4  10  20  36  53  77 110 148 181 220 270 337
#     4  12  25  35  57  90 117 147 182 230 287 337
#     4  12  22  35  56  85 117 147 177 226 288 336
#
# _framework density 19.514136000000001
#
# number of rings (size 3 to 8) (size 9 to 14) (size 15 to 20)
#    0.000    1.143    4.286    1.714    8.000    0.000 
#    0.000    0.714    0.000    0.000    0.000    1.000 
#    0.000    0.000    0.000    0.000    0.000    0.000 
#
# Total GULP energy -312699.488909 kJ/mol
# GULP energy per Si atom -5583.919445 kJ/mol
# Density = 1.946972 g / cm^3
# Si number density = 19.514136 Si / 1000 Ang^3
#
#
#
# Elastic Constant Matrix: (Units=GPa)
#
#
# Indices 1 2 3 4 5 6 
#
# 1 72.0889 13.6536 5.0776 0.0000 0.0000 0.0000
# 2 13.6536 112.1707 31.8949 0.0000 0.0000 0.0000
# 3 5.0776 31.8949 66.1678 0.0000 0.0000 0.0000
# 4 0.0000 0.0000 0.0000 9.9715 0.0000 0.0000
# 5 0.0000 0.0000 0.0000 0.0000 15.6867 0.0000
# 6 0.0000 0.0000 0.0000 0.0000 0.0000 9.6907
#
#
#
# Elastic Compliance Matrix: (Units=1/GPa)
#
#
# Indices 1 2 3 4 5 6 
#
# 1 0.014204 -0.001644 -0.000297 0.000000 0.000000 0.000000
# 2 -0.001644 0.010521 -0.004945 0.000000 0.000000 0.000000
# 3 -0.000297 -0.004945 0.017520 0.000000 0.000000 0.000000
# 4 0.000000 0.000000 0.000000 0.100286 0.000000 0.000000
# 5 0.000000 0.000000 0.000000 0.000000 0.063748 0.000000
# 6 0.000000 0.000000 0.000000 0.000000 0.000000 0.103192
#
#
# Mechanical properties :
#
#
# Convention : Reuss Voigt Hill
#
# Bulk Modulus (GPa) = 35.12358 39.07551 37.09954
# Shear Modulus (GPa) = 15.02695 20.38987 17.70841
#
# Velocity S-wave (km/s) = 2.77800 3.23596 3.01569
# Velocity P-wave (km/s) = 5.32239 5.83349 5.58379
#
# Compressibility (1/GPa) = 0.02847090
#
# Stress axis : x y z
#
# Youngs Moduli (GPa) = 70.40191 95.04499 57.07846
#
# Poissons Ratio (x) = 0.15629 0.01697
# Poissons Ratio (y) = 0.11577 0.28228
# Poissons Ratio (z) = 0.02093 0.47004
#
# Static dielectric constant tensor:
#      x y z
#    x 1.757660 0.000000 0.000000 
#    y 0.000000 1.697050 0.000000 
#    z 0.000000 0.000000 1.728080 
# 
# From -- ./inp_files/25453.got.cif
#   From: 2010.05.17/outbox.cif.g08.bks.cpg/sg62_13_cif.got.tgz:25453.got - 2010.06.03 15:25:27.
