data_PCOD9464905
_publ_section_title
;
Structure prediction by ZEFSAII (Michael W. Deem and Ramdas Pophale) SiO2 
 PCOD9464905
Probable space group: P N M A
;
_chemical_formula_sum "Si O2"
_cell_formula_units_Z 64
_cell_length_a 13.278078
_cell_length_b 8.050863
_cell_length_c 28.862695
_cell_angle_alpha 90.000000
_cell_angle_beta 90.000000
_cell_angle_gamma 90.000000
_cell_volume 3085.421717
_symmetry_space_group_name_H-M "P N M A"
_symmetry_group_IT_number 62
_symmetry_cell_setting 'orthorhombic'
loop_
_space_group_symop_operation_xyz
x,y,z
1/2-x,-y,1/2+z
1/2+x,1/2-y,1/2-z
-x,1/2+y,-z
-x,-y,-z
1/2+x,y,1/2-z
1/2-x,1/2+y,1/2+z
x,1/2-y,z
loop_
_atom_site_type_symbol
_atom_site_label
_atom_site_fract_x
_atom_site_fract_y
_atom_site_fract_z
Si Si1 0.635785 0.047347 0.636799
Si Si2 0.255056 0.950332 0.455243
Si Si3 0.234500 0.048632 0.695975
Si Si4 0.528842 0.057821 0.051906
Si Si5 0.478923 0.447886 0.154000
Si Si6 0.094109 0.051202 0.031604
Si Si7 0.685819 0.549458 0.203311
Si Si8 0.583042 0.554691 0.364208
O O1 0.633050 0.250000 0.638879
O O2 0.664557 0.003956 0.584310
O O3 0.727297 0.990373 0.668411
O O4 0.525615 0.984835 0.650782
O O5 0.241363 0.750000 0.453544
O O6 0.304027 0.994361 0.504222
O O7 0.148841 0.032459 0.445030
O O8 0.231643 0.250000 0.696413
O O9 0.278125 0.994648 0.745834
O O10 0.317370 0.985578 0.659343
O O11 0.123477 0.994939 0.680479
O O12 0.500750 0.250000 0.052355
O O13 0.484861 0.984113 0.100491
O O14 0.500000 0.000000 0.000000
O O15 0.482884 0.250000 0.150387
O O16 0.576885 0.500231 0.183714
O O17 0.092662 0.250000 0.037412
O O18 0.088337 0.965866 0.080940
O O19 0.000000 0.000000 0.000000
O O20 0.686593 0.750000 0.203578
O O21 0.581398 0.750000 0.352450
#
# Coordination Sequence:
#
# PCOD9464905 Si02
#       8
#     8   8   8   8   8   8   8   8
#     4   9  17  34  61  89 119 152 192 251 309 359
#     4  10  20  37  59  85 118 159 200 248 309 367
#     4  10  24  41  66  96 123 162 211 260 306 366
#     4  11  25  42  62  89 122 164 211 258 310 371
#     4  11  25  44  64  91 132 168 204 257 317 380
#     4  11  22  36  56  84 121 161 198 242 300 363
#     4  10  21  40  69  95 118 156 209 260 307 363
#     4  10  21  39  59  88 124 159 204 255 308 363
#
# _framework density 20.742708
#
# number of rings (size 3 to 8) (size 9 to 14) (size 15 to 20)
#    0.000    1.750    2.500    1.125    3.500    3.500 
#    0.000    0.625    0.000    0.000    0.000    0.000 
#    0.000    0.000    0.000    0.000    0.000    0.000 
#
# Total GULP energy -357198.586547 kJ/mol
# GULP energy per Si atom -5581.227915 kJ/mol
# Density = 2.069550 g / cm^3
# Si number density = 20.742708 Si / 1000 Ang^3
#
#
#
# Elastic Constant Matrix: (Units=GPa)
#
#
# Indices 1 2 3 4 5 6 
#
# 1 165.5389 7.2078 91.4416 0.0000 0.0000 0.0000
# 2 7.2078 15.6764 7.4003 0.0000 0.0000 0.0000
# 3 91.4416 7.4003 129.2824 0.0000 0.0000 0.0000
# 4 0.0000 0.0000 0.0000 21.1351 0.0000 0.0000
# 5 0.0000 0.0000 0.0000 0.0000 28.5502 0.0000
# 6 0.0000 0.0000 0.0000 0.0000 0.0000 17.6366
#
#
#
# Elastic Compliance Matrix: (Units=1/GPa)
#
#
# Indices 1 2 3 4 5 6 
#
# 1 0.009940 -0.001286 -0.006957 0.000000 0.000000 0.000000
# 2 -0.001286 0.065728 -0.002853 0.000000 0.000000 0.000000
# 3 -0.006957 -0.002853 0.012819 0.000000 0.000000 0.000000
# 4 0.000000 0.000000 0.000000 0.047315 0.000000 0.000000
# 5 0.000000 0.000000 0.000000 0.000000 0.035026 0.000000
# 6 0.000000 0.000000 0.000000 0.000000 0.000000 0.056700
#
#
# Mechanical properties :
#
#
# Convention : Reuss Voigt Hill
#
# Bulk Modulus (GPa) = 15.08394 58.06633 36.57514
# Shear Modulus (GPa) = 18.39470 27.09424 22.74447
#
# Velocity S-wave (km/s) = 2.98115 3.61807 3.31494
# Velocity P-wave (km/s) = 4.37463 6.74598 5.68532
#
# Compressibility (1/GPa) = 0.06629568
#
# Stress axis : x y z
#
# Youngs Moduli (GPa) = 100.60681 15.21415 78.01045
#
# Poissons Ratio (x) = 0.01957 0.54270
# Poissons Ratio (y) = 0.12939 0.22254
# Poissons Ratio (z) = 0.69989 0.04340
#
# Static dielectric constant tensor:
#      x y z
#    x 1.721480 0.000000 0.000000 
#    y 0.000000 1.742650 0.000000 
#    z 0.000000 0.000000 1.762400 
# 
# From -- ./inp_files/32456.got.cif
#   From: 2010.05.17/outbox.cif.g08.bks.cpg/sg62_17_cif.got.tgz:32456.got - 2010.06.03 15:25:27.
