data_PCOD9464346
_publ_section_title
;
Structure prediction by ZEFSAII (Michael W. Deem and Ramdas Pophale) SiO2 
 PCOD9464346
Probable space group: P N M A
;
_chemical_formula_sum "Si O2"
_cell_formula_units_Z 64
_cell_length_a 12.642036
_cell_length_b 7.501458
_cell_length_c 29.154151
_cell_angle_alpha 90.000000
_cell_angle_beta 90.000000
_cell_angle_gamma 90.000000
_cell_volume 2764.796071
_symmetry_space_group_name_H-M "P N M A"
_symmetry_group_IT_number 62
_symmetry_cell_setting 'orthorhombic'
loop_
_space_group_symop_operation_xyz
x,y,z
1/2-x,-y,1/2+z
1/2+x,1/2-y,1/2-z
-x,1/2+y,-z
-x,-y,-z
1/2+x,y,1/2-z
1/2-x,1/2+y,1/2+z
x,1/2-y,z
loop_
_atom_site_type_symbol
_atom_site_label
_atom_site_fract_x
_atom_site_fract_y
_atom_site_fract_z
Si Si1 0.909684 0.965042 0.407118
Si Si2 0.223898 0.037716 0.026016
Si Si3 0.877766 0.455008 0.551786
Si Si4 0.487770 0.545459 0.563719
Si Si5 0.195442 0.961046 0.887643
Si Si6 0.346284 0.532190 0.189551
Si Si7 0.387283 0.034063 0.660190
Si Si8 0.905290 0.964054 0.209851
O O1 0.917133 0.750000 0.407036
O O2 0.915566 0.024764 0.354285
O O3 0.007259 0.033870 0.437779
O O4 0.796380 0.010118 0.429035
O O5 0.211857 0.250000 0.019132
O O6 0.103510 0.966708 0.030506
O O7 0.299500 0.962650 0.986069
O O8 0.894835 0.250000 0.537573
O O9 0.807043 0.459036 0.597673
O O10 0.505608 0.750000 0.550476
O O11 0.601082 0.465430 0.578923
O O12 0.425285 0.544317 0.612214
O O13 0.200150 0.750000 0.895098
O O14 0.164314 0.988592 0.834725
O O15 0.350121 0.750000 0.190511
O O16 0.227419 0.480396 0.176594
O O17 0.373953 0.467575 0.240221
O O18 0.388219 0.250000 0.654689
O O19 0.475809 0.983226 0.697001
O O20 0.902118 0.750000 0.212168
#
# Coordination Sequence:
#
# PCOD9464346 Si02
#       8
#     8   8   8   8   8   8   8   8
#     4  10  20  35  55  80 109 140 179 225 268 315
#     4  10  20  35  55  80 108 142 181 221 270 325
#     4  10  22  37  54  78 111 147 180 218 270 325
#     4   9  18  33  53  75 103 137 173 218 266 310
#     4  10  21  37  54  75 105 140 178 221 269 318
#     4   9  17  30  51  79 104 131 174 219 262 315
#     4   9  16  29  50  74 100 133 173 215 258 309
#     4   9  18  32  52  76 102 135 172 214 266 318
#
# _framework density 23.148181999999998
#
# number of rings (size 3 to 8) (size 9 to 14) (size 15 to 20)
#    0.000    2.500    1.250    0.750    0.000    3.000 
#    0.000    5.000    0.000    3.000    0.000    0.000 
#    0.000    0.000    0.000    0.000    0.000    0.000 
#
# Total GULP energy -357364.580243 kJ/mol
# GULP energy per Si atom -5583.821566 kJ/mol
# Density = 2.309550 g / cm^3
# Si number density = 23.148182 Si / 1000 Ang^3
#
#
#
# Elastic Constant Matrix: (Units=GPa)
#
#
# Indices 1 2 3 4 5 6 
#
# 1 91.4517 8.1930 13.1175 0.0000 0.0000 0.0000
# 2 8.1930 69.6988 11.2333 0.0000 0.0000 0.0000
# 3 13.1175 11.2333 105.1757 0.0000 0.0000 0.0000
# 4 0.0000 0.0000 0.0000 78.0013 0.0000 0.0000
# 5 0.0000 0.0000 0.0000 0.0000 35.6741 0.0000
# 6 0.0000 0.0000 0.0000 0.0000 0.0000 -4.3695
#
#
#
# Elastic Compliance Matrix: (Units=1/GPa)
#
#
# Indices 1 2 3 4 5 6 
#
# 1 0.011218 -0.001112 -0.001280 0.000000 0.000000 0.000000
# 2 -0.001112 0.014709 -0.001432 0.000000 0.000000 0.000000
# 3 -0.001280 -0.001432 0.009821 0.000000 0.000000 0.000000
# 4 0.000000 0.000000 0.000000 0.012820 0.000000 0.000000
# 5 0.000000 0.000000 0.000000 0.000000 0.028032 0.000000
# 6 0.000000 0.000000 0.000000 0.000000 0.000000 -0.228859
#
#
# Mechanical properties :
#
#
# Convention : Reuss Voigt Hill
#
# Bulk Modulus (GPa) = 35.58993 36.82374 36.20684
# Shear Modulus (GPa) = -36.97030 37.44669 0.23819
#
# Velocity S-wave (km/s) = -4.00073 4.02642 0.32113
# Velocity P-wave (km/s) = 2.43575 6.12850 3.97653
#
# Compressibility (1/GPa) = 0.02809784
#
# Stress axis : x y z
#
# Youngs Moduli (GPa) = 89.14223 67.98538 101.82730
#
# Poissons Ratio (x) = 0.07562 0.13037
# Poissons Ratio (y) = 0.09915 0.14584
# Poissons Ratio (z) = 0.11413 0.09737
#
# Static dielectric constant tensor:
#      x y z
#    x 1.859860 0.000000 0.000000 
#    y 0.000000 1.882740 0.000000 
#    z 0.000000 0.000000 1.901010 
# 
# From -- ./inp_files/32590.got.cif
#   From: 2010.05.17/outbox.cif.g08.bks.cpg/sg62_17_cif.got.tgz:32590.got - 2010.06.03 15:25:27.
