data_PCOD9464126
_publ_section_title
;
Structure prediction by ZEFSAII (Michael W. Deem and Ramdas Pophale) SiO2 
 PCOD9464126
Probable space group: P N M A
;
_chemical_formula_sum "Si O2"
_cell_formula_units_Z 64
_cell_length_a 20.093654
_cell_length_b 7.855836
_cell_length_c 20.572846
_cell_angle_alpha 90.000000
_cell_angle_beta 90.000000
_cell_angle_gamma 90.000000
_cell_volume 3247.474154
_symmetry_space_group_name_H-M "P N M A"
_symmetry_group_IT_number 62
_symmetry_cell_setting 'orthorhombic'
loop_
_space_group_symop_operation_xyz
x,y,z
1/2-x,-y,1/2+z
1/2+x,1/2-y,1/2-z
-x,1/2+y,-z
-x,-y,-z
1/2+x,y,1/2-z
1/2-x,1/2+y,1/2+z
x,1/2-y,z
loop_
_atom_site_type_symbol
_atom_site_label
_atom_site_fract_x
_atom_site_fract_y
_atom_site_fract_z
Si Si1 0.792630 0.045717 0.515962
Si Si2 0.224945 0.546610 0.849939
Si Si3 0.236382 0.448062 0.705218
Si Si4 0.467802 0.955096 0.568438
Si Si5 0.588656 0.947016 0.817475
Si Si6 0.318566 0.545263 0.585076
Si Si7 0.933758 0.044154 0.460869
Si Si8 0.425586 0.458841 0.326780
O O1 0.794392 0.250000 0.509310
O O2 0.736777 0.979851 0.465603
O O3 0.866079 0.982878 0.496266
O O4 0.768037 0.006975 0.588445
O O5 0.224192 0.750000 0.847489
O O6 0.251147 0.482162 0.780589
O O7 0.147414 0.488797 0.853124
O O8 0.221857 0.250000 0.696342
O O9 0.169057 0.546382 0.685346
O O10 0.294505 0.502125 0.657166
O O11 0.465295 0.750000 0.573857
O O12 0.392498 0.020616 0.572061
O O13 0.515801 0.016450 0.626155
O O14 0.500000 0.000000 0.500000
O O15 0.567313 0.750000 0.817137
O O16 0.565674 0.021396 0.886281
O O17 0.566958 0.020200 0.747674
O O18 0.320035 0.750000 0.578414
O O19 0.929530 0.250000 0.457457
O O20 0.000000 0.000000 0.500000
O O21 0.425245 0.250000 0.325489
#
# Coordination Sequence:
#
# PCOD9464126 Si02
#       8
#     8   8   8   8   8   8   8   8
#     4  10  20  36  56  80 111 146 183 231 282 330
#     4  10  20  35  57  82 112 147 183 228 277 335
#     4  11  21  34  56  83 110 140 184 235 276 330
#     4  10  20  34  54  81 113 148 185 228 272 328
#     4   9  17  36  60  78 106 147 184 226 279 332
#     4  10  20  36  57  80 113 153 188 224 279 337
#     4  10  21  37  57  79 112 147 183 234 286 339
#     4   8  16  32  55  81 108 140 184 225 264 317
#
# _framework density 19.707623000000002
#
# number of rings (size 3 to 8) (size 9 to 14) (size 15 to 20)
#    0.000    2.250    1.250    3.000    0.000    2.000 
#    2.250    2.500    0.000    0.000    0.000    0.000 
#    0.000    0.000    0.000    0.000    0.000    0.000 
#
# Total GULP energy -357200.627706 kJ/mol
# GULP energy per Si atom -5581.259808 kJ/mol
# Density = 1.966277 g / cm^3
# Si number density = 19.707623 Si / 1000 Ang^3
#
#
#
# Elastic Constant Matrix: (Units=GPa)
#
#
# Indices 1 2 3 4 5 6 
#
# 1 152.1284 4.2328 118.4297 0.0000 0.0000 0.0000
# 2 4.2328 18.3858 -1.6394 0.0000 0.0000 0.0000
# 3 118.4297 -1.6394 173.7336 0.0000 0.0000 0.0000
# 4 0.0000 0.0000 0.0000 16.1043 0.0000 0.0000
# 5 0.0000 0.0000 0.0000 0.0000 33.1025 0.0000
# 6 0.0000 0.0000 0.0000 0.0000 0.0000 13.4503
#
#
#
# Elastic Compliance Matrix: (Units=1/GPa)
#
#
# Indices 1 2 3 4 5 6 
#
# 1 0.014319 -0.004170 -0.009800 0.000000 0.000000 0.000000
# 2 -0.004170 0.055650 0.003368 0.000000 0.000000 0.000000
# 3 -0.009800 0.003368 0.012468 0.000000 0.000000 0.000000
# 4 0.000000 0.000000 0.000000 0.062095 0.000000 0.000000
# 5 0.000000 0.000000 0.000000 0.000000 0.030209 0.000000
# 6 0.000000 0.000000 0.000000 0.000000 0.000000 0.074348
#
#
# Mechanical properties :
#
#
# Convention : Reuss Voigt Hill
#
# Bulk Modulus (GPa) = 16.33130 65.14380 40.73755
# Shear Modulus (GPa) = 17.19961 27.41306 22.30634
#
# Velocity S-wave (km/s) = 2.95742 3.73364 3.36797
# Velocity P-wave (km/s) = 4.46840 7.19122 5.98666
#
# Compressibility (1/GPa) = 0.06123211
#
# Stress axis : x y z
#
# Youngs Moduli (GPa) = 69.83960 17.96942 80.20484
#
# Poissons Ratio (x) = 0.07494 0.78600
# Poissons Ratio (y) = 0.29125 -0.27012
# Poissons Ratio (z) = 0.68442 -0.06052
#
# Static dielectric constant tensor:
#      x y z
#    x 1.676940 0.000000 0.000000 
#    y 0.000000 1.729940 0.000000 
#    z 0.000000 0.000000 1.685870 
# 
# From -- ./inp_files/24806.got.cif
#   From: 2010.05.17/outbox.cif.g08.bks.cpg/sg62_13_cif.got.tgz:24806.got - 2010.06.03 15:25:27.
