data_PCOD9464441
_publ_section_title
;
Structure prediction by ZEFSAII (Michael W. Deem and Ramdas Pophale) SiO2 
 PCOD9464441
Probable space group: P N M A
;
_chemical_formula_sum "Si O2"
_cell_formula_units_Z 64
_cell_length_a 25.705570
_cell_length_b 8.919639
_cell_length_c 14.913204
_cell_angle_alpha 90.000000
_cell_angle_beta 90.000000
_cell_angle_gamma 90.000000
_cell_volume 3419.365101
_symmetry_space_group_name_H-M "P N M A"
_symmetry_group_IT_number 62
_symmetry_cell_setting 'orthorhombic'
loop_
_space_group_symop_operation_xyz
x,y,z
1/2-x,-y,1/2+z
1/2+x,1/2-y,1/2-z
-x,1/2+y,-z
-x,-y,-z
1/2+x,y,1/2-z
1/2-x,1/2+y,1/2+z
x,1/2-y,z
loop_
_atom_site_type_symbol
_atom_site_label
_atom_site_fract_x
_atom_site_fract_y
_atom_site_fract_z
Si Si1 0.868027 0.071367 0.357194
Si Si2 0.827864 0.571900 0.529200
Si Si3 0.447742 0.069449 0.294513
Si Si4 0.341376 0.430748 0.776431
Si Si5 0.557209 0.570067 0.338556
Si Si6 0.891332 0.430787 0.021542
Si Si7 0.718572 0.075499 0.539183
Si Si8 0.273336 0.924497 0.244197
O O1 0.869501 0.250000 0.368989
O O2 0.916000 0.024247 0.293971
O O3 0.865460 0.991052 0.452591
O O4 0.815688 0.025016 0.304364
O O5 0.828092 0.750000 0.531031
O O6 0.842092 0.506566 0.626459
O O7 0.769629 0.512633 0.507779
O O8 0.450333 0.250000 0.295601
O O9 0.415010 0.023482 0.382746
O O10 0.505136 0.004057 0.302248
O O11 0.339734 0.250000 0.788620
O O12 0.391822 0.469988 0.719105
O O13 0.286632 0.470207 0.728872
O O14 0.551530 0.750000 0.335118
O O15 0.569810 0.527614 0.441210
O O16 0.885168 0.250000 0.020727
O O17 0.835236 0.504325 0.007343
O O18 0.722805 0.250000 0.514391
O O19 0.718894 0.066813 0.648185
O O20 0.280318 0.750000 0.217156
#
# Coordination Sequence:
#
# PCOD9464441 Si02
#       8
#     8   8   8   8   8   8   8   8
#     4  11  22  37  58  86 118 154 196 243 294 342
#     4  11  23  38  59  85 116 155 195 242 296 354
#     4  10  22  39  58  84 121 156 196 245 288 343
#     4   9  20  40  59  84 119 152 193 245 297 345
#     4  10  22  38  61  86 115 156 198 243 294 349
#     4  10  20  36  57  87 121 157 196 238 289 343
#     4  10  20  35  56  86 120 155 191 234 286 345
#     4   9  18  33  55  83 116 151 188 233 290 348
#
# _framework density 18.716925
#
# number of rings (size 3 to 8) (size 9 to 14) (size 15 to 20)
#    0.000    2.000    1.250    3.000    1.750    4.500 
#    0.000    0.625    0.000    0.000    0.000    0.000 
#    0.000    0.000    0.000    0.000    0.000    0.000 
#
# Total GULP energy -357568.684827 kJ/mol
# GULP energy per Si atom -5587.010700 kJ/mol
# Density = 1.867432 g / cm^3
# Si number density = 18.716925 Si / 1000 Ang^3
#
#
#
# Elastic Constant Matrix: (Units=GPa)
#
#
# Indices 1 2 3 4 5 6 
#
# 1 75.6389 13.6757 6.0013 0.0000 0.0000 0.0000
# 2 13.6757 31.7717 4.9314 0.0000 0.0000 0.0000
# 3 6.0013 4.9314 19.7700 0.0000 0.0000 0.0000
# 4 0.0000 0.0000 0.0000 21.7058 0.0000 0.0000
# 5 0.0000 0.0000 0.0000 0.0000 26.1165 0.0000
# 6 0.0000 0.0000 0.0000 0.0000 0.0000 34.9318
#
#
#
# Elastic Compliance Matrix: (Units=1/GPa)
#
#
# Indices 1 2 3 4 5 6 
#
# 1 0.014501 -0.005782 -0.002960 0.000000 0.000000 0.000000
# 2 -0.005782 0.035048 -0.006987 0.000000 0.000000 0.000000
# 3 -0.002960 -0.006987 0.053223 0.000000 0.000000 0.000000
# 4 0.000000 0.000000 0.000000 0.046071 0.000000 0.000000
# 5 0.000000 0.000000 0.000000 0.000000 0.038290 0.000000
# 6 0.000000 0.000000 0.000000 0.000000 0.000000 0.028627
#
#
# Mechanical properties :
#
#
# Convention : Reuss Voigt Hill
#
# Bulk Modulus (GPa) = 14.02252 19.59974 16.81113
# Shear Modulus (GPa) = 18.45094 23.38897 20.91995
#
# Velocity S-wave (km/s) = 3.14313 3.53883 3.34683
# Velocity P-wave (km/s) = 4.54759 5.21461 4.89248
#
# Compressibility (1/GPa) = 0.07131386
#
# Stress axis : x y z
#
# Youngs Moduli (GPa) = 68.96079 28.53230 18.78891
#
# Poissons Ratio (x) = 0.16499 0.05561
# Poissons Ratio (y) = 0.39876 0.13128
# Poissons Ratio (z) = 0.20409 0.19936
#
# Static dielectric constant tensor:
#      x y z
#    x 1.623360 0.000000 0.000000 
#    y 0.000000 1.622960 0.000000 
#    z 0.000000 0.000000 1.659460 
# 
# From -- ./inp_files/20768.got.cif
#   From: 2010.05.17/outbox.cif.g08.bks.cpg/sg62_11_cif.got.tgz:20768.got - 2010.06.03 15:25:27.
