data_PCOD9464794
_publ_section_title
;
Structure prediction by ZEFSAII (Michael W. Deem and Ramdas Pophale) SiO2 
 PCOD9464794
Probable space group: P N M A
;
_chemical_formula_sum "Si O2"
_cell_formula_units_Z 48
_cell_length_a 13.449761
_cell_length_b 18.807536
_cell_length_c 7.731834
_cell_angle_alpha 90.000000
_cell_angle_beta 90.000000
_cell_angle_gamma 90.000000
_cell_volume 1955.820483
_symmetry_space_group_name_H-M "P N M A"
_symmetry_group_IT_number 62
_symmetry_cell_setting 'orthorhombic'
loop_
_space_group_symop_operation_xyz
x,y,z
1/2-x,-y,1/2+z
1/2+x,1/2-y,1/2-z
-x,1/2+y,-z
-x,-y,-z
1/2+x,y,1/2-z
1/2-x,1/2+y,1/2+z
x,1/2-y,z
loop_
_atom_site_type_symbol
_atom_site_label
_atom_site_fract_x
_atom_site_fract_y
_atom_site_fract_z
Si Si1 0.529141 0.591533 0.917859
Si Si2 0.643885 0.452477 0.506461
Si Si3 0.869824 0.827012 0.760183
Si Si4 0.056456 0.909626 0.180560
Si Si5 0.166892 0.024860 0.567664
Si Si6 0.261189 0.170621 0.585913
O O1 0.482505 0.654359 0.804546
O O2 0.612563 0.540970 0.831661
O O3 0.563713 0.607705 0.114346
O O4 0.426306 0.549323 0.953424
O O5 0.670261 0.386420 0.386205
O O6 0.596263 0.514488 0.387113
O O7 0.558058 0.418849 0.626429
O O8 0.747614 0.490988 0.551026
O O9 0.870321 0.750000 0.843724
O O10 0.795354 0.825297 0.596894
O O11 0.122596 0.849816 0.085984
O O12 0.212127 0.096288 0.655354
O O13 0.247275 0.250000 0.665450
#
# Coordination Sequence:
#
# PCOD9464794 Si02
#       6
#     8   8   8   8   8   8
#     4  10  20  36  60  89 118 152 198 247 294 350
#     4  10  21  36  56  86 120 154 198 241 290 354
#     4  10  22  40  60  84 117 157 198 245 302 359
#     4  10  21  35  58  88 116 151 196 248 296 348
#     4   9  19  35  59  85 116 154 194 237 287 348
#     4   9  19  35  55  80 113 151 190 235 291 348
#
# _framework density 24.542131000000001
#
# number of rings (size 3 to 8) (size 9 to 14) (size 15 to 20)
#    0.000    2.333    0.000    3.000    0.000   12.000 
#    0.000    2.500    0.000    3.000    0.000    0.000 
#    0.000    0.000    0.000    0.000    0.000    0.000 
#
# Total GULP energy -267461.458213 kJ/mol
# GULP energy per Si atom -5572.113713 kJ/mol
# Density = 2.448627 g / cm^3
# Si number density = 24.542131 Si / 1000 Ang^3
#
#
#
# Elastic Constant Matrix: (Units=GPa)
#
#
# Indices 1 2 3 4 5 6 
#
# 1 151.1646 61.8256 23.5667 0.0000 0.0000 0.0000
# 2 61.8256 157.5546 18.3935 0.0000 0.0000 0.0000
# 3 23.5667 18.3935 37.9552 0.0000 0.0000 0.0000
# 4 0.0000 0.0000 0.0000 19.8836 0.0000 0.0000
# 5 0.0000 0.0000 0.0000 0.0000 25.1953 0.0000
# 6 0.0000 0.0000 0.0000 0.0000 0.0000 22.5937
#
#
#
# Elastic Compliance Matrix: (Units=1/GPa)
#
#
# Indices 1 2 3 4 5 6 
#
# 1 0.008372 -0.002839 -0.003823 0.000000 0.000000 0.000000
# 2 -0.002839 0.007690 -0.001964 0.000000 0.000000 0.000000
# 3 -0.003823 -0.001964 0.029672 0.000000 0.000000 0.000000
# 4 0.000000 0.000000 0.000000 0.050293 0.000000 0.000000
# 5 0.000000 0.000000 0.000000 0.000000 0.039690 0.000000
# 6 0.000000 0.000000 0.000000 0.000000 0.000000 0.044260
#
#
# Mechanical properties :
#
#
# Convention : Reuss Voigt Hill
#
# Bulk Modulus (GPa) = 35.10816 61.58288 48.34552
# Shear Modulus (GPa) = 24.18688 29.72711 26.95699
#
# Velocity S-wave (km/s) = 3.14271 3.48410 3.31780
# Velocity P-wave (km/s) = 5.24454 6.42904 5.86676
#
# Compressibility (1/GPa) = 0.02848341
#
# Stress axis : x y z
#
# Youngs Moduli (GPa) = 119.43927 130.03238 33.70163
#
# Poissons Ratio (x) = 0.36918 0.12883
# Poissons Ratio (y) = 0.33910 0.06619
# Poissons Ratio (z) = 0.45658 0.25538
#
# Static dielectric constant tensor:
#      x y z
#    x 1.972140 0.000000 0.000000 
#    y 0.000000 2.012070 0.000000 
#    z 0.000000 0.000000 2.180790 
# 
# From -- ./inp_files/6434.got.cif
#   From: 2010.05.17/outbox.cif.g08.bks.cpg/sg62_4_cif.got.tgz:6434.got - 2010.06.03 15:25:27.
