data_PCOD9464992
_publ_section_title
;
Structure prediction by ZEFSAII (Michael W. Deem and Ramdas Pophale) SiO2 
 PCOD9464992
Probable space group: P N M A
;
_chemical_formula_sum "Si O2"
_cell_formula_units_Z 52
_cell_length_a 17.509227
_cell_length_b 9.073701
_cell_length_c 15.265345
_cell_angle_alpha 90.000000
_cell_angle_beta 90.000000
_cell_angle_gamma 90.000000
_cell_volume 2425.258644
_symmetry_space_group_name_H-M "P N M A"
_symmetry_group_IT_number 62
_symmetry_cell_setting 'orthorhombic'
loop_
_space_group_symop_operation_xyz
x,y,z
1/2-x,-y,1/2+z
1/2+x,1/2-y,1/2-z
-x,1/2+y,-z
-x,-y,-z
1/2+x,y,1/2-z
1/2-x,1/2+y,1/2+z
x,1/2-y,z
loop_
_atom_site_type_symbol
_atom_site_label
_atom_site_fract_x
_atom_site_fract_y
_atom_site_fract_z
Si Si1 0.313121 0.577176 0.595729
Si Si2 0.264839 0.580122 0.390665
Si Si3 0.025397 0.927396 0.091910
Si Si4 0.509522 0.750000 0.952184
Si Si5 0.398812 0.076003 0.290610
Si Si6 0.661040 0.083911 0.864300
Si Si7 0.101775 0.008624 0.448052
O O1 0.313417 0.750000 0.621258
O O2 0.294748 0.573278 0.491344
O O3 0.392372 0.496174 0.612772
O O4 0.245003 0.485825 0.639454
O O5 0.273438 0.750000 0.362290
O O6 0.318878 0.473463 0.335156
O O7 0.175547 0.537944 0.392138
O O8 0.027356 0.750000 0.085341
O O9 0.964036 0.982136 0.162290
O O10 0.000000 0.000000 0.000000
O O11 0.555980 0.625740 0.010300
O O12 0.456917 0.879120 0.905791
O O13 0.411139 0.250000 0.299745
O O14 0.391447 0.027240 0.190151
O O15 0.656814 0.250000 0.829502
O O16 0.635684 0.088057 0.965019
#
# Coordination Sequence:
#
# PCOD9464992 Si02
#       7
#     8   8   8   4   8   8   8
#     4  10  21  38  66  94 125 160 209 257 311 373
#     4  10  20  37  61  92 122 161 204 256 310 375
#     4  12  23  40  65  97 128 164 212 266 315 373
#     4  10  20  38  62  96 120 158 212 262 298 372
#     4  12  26  40  64  92 129 168 212 260 321 378
#     4  11  23  42  64  91 129 171 207 253 319 386
#     4  10  21  38  67  93 124 158 209 258 317 360
#
# _framework density 21.441013000000002
#
# number of rings (size 3 to 8) (size 9 to 14) (size 15 to 20)
#    0.000    1.231    3.077    3.692    3.231    0.615 
#    0.000    3.077    3.385    0.000    0.000    0.000 
#    0.000    0.000    0.000    0.000    0.000    0.000 
#
# Total GULP energy -289689.552544 kJ/mol
# GULP energy per Si atom -5570.952934 kJ/mol
# Density = 2.139221 g / cm^3
# Si number density = 21.441013 Si / 1000 Ang^3
#
#
#
# Elastic Constant Matrix: (Units=GPa)
#
#
# Indices 1 2 3 4 5 6 
#
# 1 107.7206 41.3168 3.1489 0.0000 0.0000 0.0000
# 2 41.3168 162.1054 -15.0058 0.0000 0.0000 0.0000
# 3 3.1489 -15.0058 20.7608 0.0000 0.0000 0.0000
# 4 0.0000 0.0000 0.0000 18.5288 0.0000 0.0000
# 5 0.0000 0.0000 0.0000 0.0000 21.6036 0.0000
# 6 0.0000 0.0000 0.0000 0.0000 0.0000 11.3264
#
#
#
# Elastic Compliance Matrix: (Units=1/GPa)
#
#
# Indices 1 2 3 4 5 6 
#
# 1 0.010562 -0.003044 -0.003802 0.000000 0.000000 0.000000
# 2 -0.003044 0.007488 0.005874 0.000000 0.000000 0.000000
# 3 -0.003802 0.005874 0.052990 0.000000 0.000000 0.000000
# 4 0.000000 0.000000 0.000000 0.053970 0.000000 0.000000
# 5 0.000000 0.000000 0.000000 0.000000 0.046288 0.000000
# 6 0.000000 0.000000 0.000000 0.000000 0.000000 0.088289
#
#
# Mechanical properties :
#
#
# Convention : Reuss Voigt Hill
#
# Bulk Modulus (GPa) = 14.47237 38.83406 26.65321
# Shear Modulus (GPa) = 17.57071 27.70023 22.63547
#
# Velocity S-wave (km/s) = 2.86578 3.59824 3.25269
# Velocity P-wave (km/s) = 4.20889 5.95100 5.15409
#
# Compressibility (1/GPa) = 0.06909720
#
# Stress axis : x y z
#
# Youngs Moduli (GPa) = 94.67963 133.53949 18.87134
#
# Poissons Ratio (x) = 0.40649 0.07175
# Poissons Ratio (y) = 0.28820 -0.11086
# Poissons Ratio (z) = 0.35998 -0.78445
#
# Static dielectric constant tensor:
#      x y z
#    x 1.801790 0.000000 0.000000 
#    y 0.000000 1.726040 0.000000 
#    z 0.000000 0.000000 1.810060 
# 
# From -- ./inp_files/24307.got.cif
#   From: 2010.05.17/outbox.cif.g08.bks.cpg/sg62_13_cif.got.tgz:24307.got - 2010.06.03 15:25:27.
