data_PCOD9464011
_publ_section_title
;
Structure prediction by ZEFSAII (Michael W. Deem and Ramdas Pophale) SiO2 
 PCOD9464011
Probable space group: P N M A
;
_chemical_formula_sum "Si O2"
_cell_formula_units_Z 48
_cell_length_a 9.546884
_cell_length_b 14.316143
_cell_length_c 17.675945
_cell_angle_alpha 90.000000
_cell_angle_beta 90.000000
_cell_angle_gamma 90.000000
_cell_volume 2415.851944
_symmetry_space_group_name_H-M "P N M A"
_symmetry_group_IT_number 62
_symmetry_cell_setting 'orthorhombic'
loop_
_space_group_symop_operation_xyz
x,y,z
1/2-x,-y,1/2+z
1/2+x,1/2-y,1/2-z
-x,1/2+y,-z
-x,-y,-z
1/2+x,y,1/2-z
1/2-x,1/2+y,1/2+z
x,1/2-y,z
loop_
_atom_site_type_symbol
_atom_site_label
_atom_site_fract_x
_atom_site_fract_y
_atom_site_fract_z
Si Si1 0.723876 0.750000 0.125289
Si Si2 0.407145 0.953463 0.566762
Si Si3 0.050063 0.250000 0.005903
Si Si4 0.172305 0.951977 0.347382
Si Si5 0.274604 0.750000 0.045005
Si Si6 0.645752 0.750000 0.296991
Si Si7 0.980001 0.944475 0.212657
Si Si8 0.350896 0.951801 0.996749
O O1 0.653267 0.649007 0.111571
O O2 0.725279 0.750000 0.216814
O O3 0.860178 0.750000 0.072024
O O4 0.413644 0.843394 0.551777
O O5 0.500000 0.000000 0.500000
O O6 0.463008 0.987648 0.647195
O O7 0.253881 0.995394 0.553222
O O8 0.886137 0.250000 0.985063
O O9 0.040128 0.972178 0.294396
O O10 0.312893 0.943514 0.296681
O O11 0.199866 0.028414 0.411240
O O12 0.347416 0.843503 0.016631
O O13 0.256868 0.750000 0.135441
O O14 0.548956 0.657731 0.301381
O O15 0.500000 0.000000 0.000000
#
# Coordination Sequence:
#
# PCOD9464011 Si02
#       8
#     4   8   4   8   4   4   8   8
#     4  10  20  33  58  96 132 159 206 271 321 387
#     4  12  21  41  68  94 123 170 222 270 316 392
#     4  12  20  37  73  95 123 166 234 269 318 392
#     4  11  23  40  60  92 130 171 213 271 326 391
#     4  12  22  42  68  93 123 178 218 270 330 398
#     4  10  20  34  63  96 130 169 212 262 337 399
#     4  11  22  38  61  92 128 168 218 268 331 391
#     4  12  27  42  65  96 136 169 220 274 331 387
#
# _framework density 19.868766000000001
#
# number of rings (size 3 to 8) (size 9 to 14) (size 15 to 20)
#    0.000    0.667    6.667    1.500    2.333    1.333 
#    0.000    2.500    0.000    0.000    0.000    0.000 
#    0.000    0.000    0.000    0.000    0.000    0.000 
#
# Total GULP energy -268403.411572 kJ/mol
# GULP energy per Si atom -5591.737741 kJ/mol
# Density = 1.982354 g / cm^3
# Si number density = 19.868766 Si / 1000 Ang^3
#
#
#
# Elastic Constant Matrix: (Units=GPa)
#
#
# Indices 1 2 3 4 5 6 
#
# 1 102.0143 25.4462 6.5105 0.0000 0.0000 0.0000
# 2 25.4462 151.6321 29.6528 0.0000 0.0000 0.0000
# 3 6.5105 29.6528 47.4627 0.0000 0.0000 0.0000
# 4 0.0000 0.0000 0.0000 30.5316 0.0000 0.0000
# 5 0.0000 0.0000 0.0000 0.0000 35.8627 0.0000
# 6 0.0000 0.0000 0.0000 0.0000 0.0000 6.9823
#
#
#
# Elastic Compliance Matrix: (Units=1/GPa)
#
#
# Indices 1 2 3 4 5 6 
#
# 1 0.010237 -0.001644 -0.000377 0.000000 0.000000 0.000000
# 2 -0.001644 0.007777 -0.004633 0.000000 0.000000 0.000000
# 3 -0.000377 -0.004633 0.024016 0.000000 0.000000 0.000000
# 4 0.000000 0.000000 0.000000 0.032753 0.000000 0.000000
# 5 0.000000 0.000000 0.000000 0.000000 0.027884 0.000000
# 6 0.000000 0.000000 0.000000 0.000000 0.000000 0.143219
#
#
# Mechanical properties :
#
#
# Convention : Reuss Voigt Hill
#
# Bulk Modulus (GPa) = 34.81831 47.14759 40.98295
# Shear Modulus (GPa) = 18.60346 30.64195 24.62271
#
# Velocity S-wave (km/s) = 3.06325 3.93137 3.52414
# Velocity P-wave (km/s) = 5.48393 6.66247 6.10172
#
# Compressibility (1/GPa) = 0.02872052
#
# Stress axis : x y z
#
# Youngs Moduli (GPa) = 97.68752 128.58631 41.63974
#
# Poissons Ratio (x) = 0.21142 0.01570
# Poissons Ratio (y) = 0.16061 0.19292
# Poissons Ratio (z) = 0.03683 0.59576
#
# Static dielectric constant tensor:
#      x y z
#    x 1.747400 0.000000 0.000000 
#    y 0.000000 1.709820 0.000000 
#    z 0.000000 0.000000 1.712440 
# 
# From -- ./inp_files/22267.got.cif
#   From: 2010.05.17/outbox.cif.g08.bks.cpg/sg62_12_cif.got.tgz:22267.got - 2010.06.03 15:25:27.
