data_PCOD9464193
_publ_section_title
;
Structure prediction by ZEFSAII (Michael W. Deem and Ramdas Pophale) SiO2 
 PCOD9464193
Probable space group: P N M A
;
_chemical_formula_sum "Si O2"
_cell_formula_units_Z 56
_cell_length_a 9.790706
_cell_length_b 15.107949
_cell_length_c 18.135179
_cell_angle_alpha 90.000000
_cell_angle_beta 90.000000
_cell_angle_gamma 90.000000
_cell_volume 2682.510103
_symmetry_space_group_name_H-M "P N M A"
_symmetry_group_IT_number 62
_symmetry_cell_setting 'orthorhombic'
loop_
_space_group_symop_operation_xyz
x,y,z
1/2-x,-y,1/2+z
1/2+x,1/2-y,1/2-z
-x,1/2+y,-z
-x,-y,-z
1/2+x,y,1/2-z
1/2-x,1/2+y,1/2+z
x,1/2-y,z
loop_
_atom_site_type_symbol
_atom_site_label
_atom_site_fract_x
_atom_site_fract_y
_atom_site_fract_z
Si Si1 0.328398 0.854787 0.601489
Si Si2 0.915312 0.151243 0.503801
Si Si3 0.680522 0.612444 0.160835
Si Si4 0.086020 0.148527 0.736081
Si Si5 0.115905 0.650277 0.852370
Si Si6 0.361608 0.451233 0.202887
Si Si7 0.388300 0.919708 0.898597
O O1 0.308986 0.750000 0.615206
O O2 0.227165 0.878479 0.534471
O O3 0.489541 0.868997 0.593277
O O4 0.277207 0.910542 0.671399
O O5 0.947696 0.250000 0.475727
O O6 0.886341 0.157706 0.589929
O O7 0.040851 0.090201 0.478256
O O8 0.831017 0.640252 0.186811
O O9 0.577514 0.633018 0.228998
O O10 0.671389 0.512345 0.131141
O O11 0.112013 0.250000 0.709939
O O12 0.136724 0.057906 0.695480
O O13 0.095899 0.750000 0.822515
O O14 0.115239 0.581030 0.785560
O O15 0.262142 0.645205 0.890692
O O16 0.482551 0.407047 0.155278
#
# Coordination Sequence:
#
# PCOD9464193 Si02
#       7
#     8   8   8   8   8   8   8
#     4   9  20  35  56  88 121 156 196 238 296 365
#     4  10  20  39  61  84 118 161 200 238 295 362
#     4  11  23  42  64  87 117 156 201 251 302 350
#     4  11  23  39  60  87 114 150 201 249 295 348
#     4  11  20  33  55  86 123 155 194 243 292 348
#     4  10  20  34  56  82 119 159 194 242 296 351
#     4  10  21  36  58  87 120 155 200 242 296 359
#
# _framework density 20.875971
#
# number of rings (size 3 to 8) (size 9 to 14) (size 15 to 20)
#    0.000    1.714    1.429    3.429    2.000    2.857 
#    0.000    2.143    0.000    1.714    0.000    0.000 
#    0.000    0.000    0.000    0.000    0.000    0.000 
#
# Total GULP energy -311759.337232 kJ/mol
# GULP energy per Si atom -5567.131022 kJ/mol
# Density = 2.082846 g / cm^3
# Si number density = 20.875971 Si / 1000 Ang^3
#
#
#
# Elastic Constant Matrix: (Units=GPa)
#
#
# Indices 1 2 3 4 5 6 
#
# 1 93.7399 41.7648 23.2103 0.0000 0.0000 0.0000
# 2 41.7648 78.0705 7.5740 0.0000 0.0000 0.0000
# 3 23.2103 7.5740 31.2487 0.0000 0.0000 0.0000
# 4 0.0000 0.0000 0.0000 21.2921 0.0000 0.0000
# 5 0.0000 0.0000 0.0000 0.0000 7.9139 0.0000
# 6 0.0000 0.0000 0.0000 0.0000 0.0000 12.1313
#
#
#
# Elastic Compliance Matrix: (Units=1/GPa)
#
#
# Indices 1 2 3 4 5 6 
#
# 1 0.016844 -0.007985 -0.010576 0.000000 0.000000 0.000000
# 2 -0.007985 0.016903 0.001834 0.000000 0.000000 0.000000
# 3 -0.010576 0.001834 0.039412 0.000000 0.000000 0.000000
# 4 0.000000 0.000000 0.000000 0.046966 0.000000 0.000000
# 5 0.000000 0.000000 0.000000 0.000000 0.126359 0.000000
# 6 0.000000 0.000000 0.000000 0.000000 0.000000 0.082431
#
#
# Mechanical properties :
#
#
# Convention : Reuss Voigt Hill
#
# Bulk Modulus (GPa) = 25.18543 38.68415 31.93479
# Shear Modulus (GPa) = 13.31192 16.96814 15.14003
#
# Velocity S-wave (km/s) = 2.52795 2.85407 2.69594
# Velocity P-wave (km/s) = 4.53995 5.42509 5.00214
#
# Compressibility (1/GPa) = 0.03970550
#
# Stress axis : x y z
#
# Youngs Moduli (GPa) = 59.36846 59.16241 25.37301
#
# Poissons Ratio (x) = 0.47241 0.26834
# Poissons Ratio (y) = 0.47405 -0.04653
# Poissons Ratio (z) = 0.62786 -0.10850
#
# Static dielectric constant tensor:
#      x y z
#    x 1.741690 0.000000 0.000000 
#    y 0.000000 1.840110 0.000000 
#    z 0.000000 0.000000 1.765850 
# 
# From -- ./inp_files/25978.got.cif
#   From: 2010.05.17/outbox.cif.g08.bks.cpg/sg62_13_cif.got.tgz:25978.got - 2010.06.03 15:25:27.
