data_PCOD9464885
_publ_section_title
;
Structure prediction by ZEFSAII (Michael W. Deem and Ramdas Pophale) SiO2 
 PCOD9464885
Probable space group: P N M A
;
_chemical_formula_sum "Si O2"
_cell_formula_units_Z 64
_cell_length_a 16.337810
_cell_length_b 15.202768
_cell_length_c 11.788530
_cell_angle_alpha 90.000000
_cell_angle_beta 90.000000
_cell_angle_gamma 90.000000
_cell_volume 2928.034316
_symmetry_space_group_name_H-M "P N M A"
_symmetry_group_IT_number 62
_symmetry_cell_setting 'orthorhombic'
loop_
_space_group_symop_operation_xyz
x,y,z
1/2-x,-y,1/2+z
1/2+x,1/2-y,1/2-z
-x,1/2+y,-z
-x,-y,-z
1/2+x,y,1/2-z
1/2-x,1/2+y,1/2+z
x,1/2-y,z
loop_
_atom_site_type_symbol
_atom_site_label
_atom_site_fract_x
_atom_site_fract_y
_atom_site_fract_z
Si Si1 0.584231 0.652008 0.956857
Si Si2 0.046181 0.522293 0.353623
Si Si3 0.830500 0.641572 0.638567
Si Si4 0.834631 0.401206 0.030509
Si Si5 0.042712 0.600734 0.777283
Si Si6 0.086521 0.406368 0.015689
Si Si7 0.446580 0.152409 0.659185
Si Si8 0.256566 0.848543 0.618174
O O1 0.588164 0.750000 0.008300
O O2 0.544010 0.660822 0.832994
O O3 0.675273 0.611516 0.936302
O O4 0.538513 0.583143 0.037007
O O5 0.099168 0.433368 0.371813
O O6 0.963443 0.491962 0.289030
O O7 0.082403 0.587367 0.257908
O O8 0.847797 0.750000 0.635195
O O9 0.760610 0.616566 0.547407
O O10 0.791955 0.619438 0.762574
O O11 0.877691 0.379572 0.150061
O O12 0.872149 0.498061 0.002340
O O13 0.874053 0.344268 0.932036
O O14 0.969122 0.601750 0.869602
O O15 0.166490 0.348091 0.033904
O O16 0.025095 0.382138 0.914016
O O17 0.465546 0.250000 0.702061
O O18 0.228544 0.750000 0.642331
#
# Coordination Sequence:
#
# PCOD9464885 Si02
#       8
#     8   8   8   8   8   8   8   8
#     4  11  25  41  63  91 128 181 223 261 320 396
#     4  12  23  43  61  93 135 174 216 272 325 401
#     4  11  23  39  65  97 128 168 221 277 334 391
#     4  11  20  39  64  92 128 161 214 276 331 396
#     4  11  21  38  63  89 124 164 215 265 325 383
#     4  11  20  39  66  99 129 164 217 279 338 387
#     4  11  22  37  65  99 134 175 214 265 341 404
#     4  10  20  37  58  90 126 162 216 270 319 376
#
# _framework density 21.857668
#
# number of rings (size 3 to 8) (size 9 to 14) (size 15 to 20)
#    0.000    1.000    5.000    3.000    0.000    3.000 
#    0.000    0.000    0.000    0.000    0.000    0.000 
#    0.000    0.000    0.000    0.000    0.000    0.000 
#
# Total GULP energy -356496.237117 kJ/mol
# GULP energy per Si atom -5570.253705 kJ/mol
# Density = 2.180792 g / cm^3
# Si number density = 21.857668 Si / 1000 Ang^3
#
#
#
# Elastic Constant Matrix: (Units=GPa)
#
#
# Indices 1 2 3 4 5 6 
#
# 1 96.4646 41.1461 32.6828 0.0000 0.0000 0.0000
# 2 41.1461 132.2957 40.0104 0.0000 0.0000 0.0000
# 3 32.6828 40.0104 102.7535 0.0000 0.0000 0.0000
# 4 0.0000 0.0000 0.0000 12.8832 0.0000 0.0000
# 5 0.0000 0.0000 0.0000 0.0000 19.3004 0.0000
# 6 0.0000 0.0000 0.0000 0.0000 0.0000 27.5520
#
#
#
# Elastic Compliance Matrix: (Units=1/GPa)
#
#
# Indices 1 2 3 4 5 6 
#
# 1 0.012634 -0.003076 -0.002821 0.000000 0.000000 0.000000
# 2 -0.003076 0.009317 -0.002649 0.000000 0.000000 0.000000
# 3 -0.002821 -0.002649 0.011661 0.000000 0.000000 0.000000
# 4 0.000000 0.000000 0.000000 0.077620 0.000000 0.000000
# 5 0.000000 0.000000 0.000000 0.000000 0.051812 0.000000
# 6 0.000000 0.000000 0.000000 0.000000 0.000000 0.036295
#
#
# Mechanical properties :
#
#
# Convention : Reuss Voigt Hill
#
# Bulk Modulus (GPa) = 60.53570 62.13249 61.33410
# Shear Modulus (GPa) = 22.52870 26.45877 24.49373
#
# Velocity S-wave (km/s) = 3.21393 3.48300 3.35117
# Velocity P-wave (km/s) = 6.44422 6.68302 6.56471
#
# Compressibility (1/GPa) = 0.01651918
#
# Stress axis : x y z
#
# Youngs Moduli (GPa) = 79.14901 107.33213 85.75741
#
# Poissons Ratio (x) = 0.33020 0.24190
# Poissons Ratio (y) = 0.24350 0.22720
# Poissons Ratio (z) = 0.22326 0.28436
#
# Static dielectric constant tensor:
#      x y z
#    x 1.872100 0.000000 0.000000 
#    y 0.000000 1.931500 0.000000 
#    z 0.000000 0.000000 1.829800 
# 
# From -- ./inp_files/14344.got.cif
#   From: 2010.05.17/outbox.cif.g08.bks.cpg/sg62_8_cif.got.tgz:14344.got - 2010.06.03 15:25:27.
