data_PCOD9464369
_publ_section_title
;
Structure prediction by ZEFSAII (Michael W. Deem and Ramdas Pophale) SiO2 
 PCOD9464369
Probable space group: P N M A
;
_chemical_formula_sum "Si O2"
_cell_formula_units_Z 32
_cell_length_a 8.011621
_cell_length_b 17.258130
_cell_length_c 11.618015
_cell_angle_alpha 90.000000
_cell_angle_beta 90.000000
_cell_angle_gamma 90.000000
_cell_volume 1606.371777
_symmetry_space_group_name_H-M "P N M A"
_symmetry_group_IT_number 62
_symmetry_cell_setting 'orthorhombic'
loop_
_space_group_symop_operation_xyz
x,y,z
1/2-x,-y,1/2+z
1/2+x,1/2-y,1/2-z
-x,1/2+y,-z
-x,-y,-z
1/2+x,y,1/2-z
1/2-x,1/2+y,1/2+z
x,1/2-y,z
loop_
_atom_site_type_symbol
_atom_site_label
_atom_site_fract_x
_atom_site_fract_y
_atom_site_fract_z
Si Si1 0.091588 0.663894 0.199395
Si Si2 0.431136 0.995187 0.372580
Si Si3 0.448836 0.547492 0.854631
Si Si4 0.561556 0.383187 0.915849
O O1 0.029024 0.750000 0.173399
O O2 0.267153 0.652447 0.133694
O O3 0.975310 0.592359 0.163766
O O4 0.085491 0.653515 0.338501
O O5 0.500000 0.000000 0.500000
O O6 0.516665 0.054171 0.281108
O O7 0.237358 0.014871 0.368176
O O8 0.569294 0.475904 0.890221
O O9 0.465403 0.616885 0.946499
#
# Coordination Sequence:
#
# PCOD9464369 Si02
#       4
#     8   8   8   8
#     4  11  21  36  58  88 121 158 200 251 312 366
#     4  11  21  37  60  92 118 158 205 257 307 364
#     4  10  21  35  56  88 119 152 204 255 300 356
#     4  10  20  35  55  86 121 153 194 252 304 355
#
# _framework density 19.920670000000001
#
# number of rings (size 3 to 8) (size 9 to 14) (size 15 to 20)
#    0.000    1.500    2.500    6.750    3.500    0.000 
#    0.000    1.250    0.000    3.000    0.000    0.000 
#    0.000    0.000    0.000    0.000    0.000    0.000 
#
# Total GULP energy -178279.784392 kJ/mol
# GULP energy per Si atom -5571.243262 kJ/mol
# Density = 1.987533 g / cm^3
# Si number density = 19.920670 Si / 1000 Ang^3
#
#
#
# Elastic Constant Matrix: (Units=GPa)
#
#
# Indices 1 2 3 4 5 6 
#
# 1 74.2109 17.1867 40.2046 0.0000 0.0000 0.0000
# 2 17.1867 69.4425 41.5530 0.0000 0.0000 0.0000
# 3 40.2046 41.5530 174.8385 0.0000 0.0000 0.0000
# 4 0.0000 0.0000 0.0000 13.1297 0.0000 0.0000
# 5 0.0000 0.0000 0.0000 0.0000 33.0565 0.0000
# 6 0.0000 0.0000 0.0000 0.0000 0.0000 20.9885
#
#
#
# Elastic Compliance Matrix: (Units=1/GPa)
#
#
# Indices 1 2 3 4 5 6 
#
# 1 0.015628 -0.002002 -0.003118 0.000000 0.000000 0.000000
# 2 -0.002002 0.017044 -0.003590 0.000000 0.000000 0.000000
# 3 -0.003118 -0.003590 0.007290 0.000000 0.000000 0.000000
# 4 0.000000 0.000000 0.000000 0.076163 0.000000 0.000000
# 5 0.000000 0.000000 0.000000 0.000000 0.030251 0.000000
# 6 0.000000 0.000000 0.000000 0.000000 0.000000 0.047645
#
#
# Mechanical properties :
#
#
# Convention : Reuss Voigt Hill
#
# Bulk Modulus (GPa) = 44.36319 57.37562 50.86941
# Shear Modulus (GPa) = 22.83560 28.07145 25.45352
#
# Velocity S-wave (km/s) = 3.38942 3.75795 3.57843
# Velocity P-wave (km/s) = 6.13480 6.90610 6.53185
#
# Compressibility (1/GPa) = 0.02254121
#
# Stress axis : x y z
#
# Youngs Moduli (GPa) = 63.98799 58.67035 137.17717
#
# Poissons Ratio (x) = 0.11747 0.42770
# Poissons Ratio (y) = 0.12812 0.49253
# Poissons Ratio (z) = 0.19950 0.21065
#
# Static dielectric constant tensor:
#      x y z
#    x 1.742630 0.000000 0.000000 
#    y 0.000000 1.710180 0.000000 
#    z 0.000000 0.000000 1.879810 
# 
# From -- ./inp_files/11021.got.cif
#   From: 2010.05.17/outbox.cif.g08.bks.cpg/sg62_6_cif.got.tgz:11021.got - 2010.06.03 15:25:27.
