data_PCOD9464573
_publ_section_title
;
Structure prediction by ZEFSAII (Michael W. Deem and Ramdas Pophale) SiO2 
 PCOD9464573
Probable space group: P N M A
;
_chemical_formula_sum "Si O2"
_cell_formula_units_Z 64
_cell_length_a 7.814608
_cell_length_b 14.039675
_cell_length_c 26.492267
_cell_angle_alpha 90.000000
_cell_angle_beta 90.000000
_cell_angle_gamma 90.000000
_cell_volume 2906.587327
_symmetry_space_group_name_H-M "P N M A"
_symmetry_group_IT_number 62
_symmetry_cell_setting 'orthorhombic'
loop_
_space_group_symop_operation_xyz
x,y,z
1/2-x,-y,1/2+z
1/2+x,1/2-y,1/2-z
-x,1/2+y,-z
-x,-y,-z
1/2+x,y,1/2-z
1/2-x,1/2+y,1/2+z
x,1/2-y,z
loop_
_atom_site_type_symbol
_atom_site_label
_atom_site_fract_x
_atom_site_fract_y
_atom_site_fract_z
Si Si1 0.442402 0.485837 0.765320
Si Si2 0.648539 0.443773 0.605701
Si Si3 0.010083 0.358730 0.482398
Si Si4 0.603989 0.145128 0.506018
Si Si5 0.528461 0.459780 0.917466
Si Si6 0.770941 0.449410 0.330689
Si Si7 0.008695 0.854929 0.891855
Si Si8 0.654584 0.142097 0.701235
O O1 0.557529 0.559969 0.796437
O O2 0.365135 0.523867 0.712943
O O3 0.293335 0.442306 0.798647
O O4 0.545592 0.390892 0.749121
O O5 0.567393 0.428565 0.550341
O O6 0.848145 0.415049 0.599596
O O7 0.618787 0.552794 0.621589
O O8 0.565551 0.374972 0.647442
O O9 0.063590 0.250000 0.472222
O O10 0.806149 0.359663 0.492994
O O11 0.093260 0.402069 0.533453
O O12 0.028922 0.435432 0.437983
O O13 0.569779 0.250000 0.527534
O O14 0.513006 0.139734 0.452257
O O15 0.664256 0.474182 0.872742
O O16 0.675515 0.370240 0.364262
O O17 0.075107 0.750000 0.878526
O O18 0.713086 0.250000 0.705849
#
# Coordination Sequence:
#
# PCOD9464573 Si02
#       8
#     8   8   8   8   8   8   8   8
#     4  10  23  40  63  87 119 158 203 258 308 366
#     4  11  21  37  59  91 128 163 200 249 305 372
#     4   9  18  34  57  89 124 160 202 241 289 368
#     4   9  18  34  59  89 123 165 204 242 298 368
#     4  10  20  35  61  89 121 164 200 246 309 361
#     4  11  21  42  65  86 120 159 208 259 318 366
#     4  11  23  40  63  88 120 166 211 256 309 368
#     4  11  21  38  62  91 122 159 196 242 305 372
#
# _framework density 22.018948999999999
#
# number of rings (size 3 to 8) (size 9 to 14) (size 15 to 20)
#    0.000    1.750    3.750    1.125    0.000    1.000 
#    0.000    1.875    0.000    0.000    0.000    0.000 
#    0.000    0.000    0.000    0.000    0.000    0.000 
#
# Total GULP energy -356526.186991 kJ/mol
# GULP energy per Si atom -5570.721672 kJ/mol
# Density = 2.196883 g / cm^3
# Si number density = 22.018949 Si / 1000 Ang^3
#
#
#
# Elastic Constant Matrix: (Units=GPa)
#
#
# Indices 1 2 3 4 5 6 
#
# 1 31.6278 -0.1490 4.2084 0.0000 0.0000 0.0000
# 2 -0.1490 83.6076 7.4671 0.0000 0.0000 0.0000
# 3 4.2084 7.4671 92.9630 0.0000 0.0000 0.0000
# 4 0.0000 0.0000 0.0000 20.4650 0.0000 0.0000
# 5 0.0000 0.0000 0.0000 0.0000 38.1658 0.0000
# 6 0.0000 0.0000 0.0000 0.0000 0.0000 19.7749
#
#
#
# Elastic Compliance Matrix: (Units=1/GPa)
#
#
# Indices 1 2 3 4 5 6 
#
# 1 0.031812 0.000187 -0.001455 0.000000 0.000000 0.000000
# 2 0.000187 0.012048 -0.000976 0.000000 0.000000 0.000000
# 3 -0.001455 -0.000976 0.010901 0.000000 0.000000 0.000000
# 4 0.000000 0.000000 0.000000 0.048864 0.000000 0.000000
# 5 0.000000 0.000000 0.000000 0.000000 0.026201 0.000000
# 6 0.000000 0.000000 0.000000 0.000000 0.000000 0.050569
#
#
# Mechanical properties :
#
#
# Convention : Reuss Voigt Hill
#
# Bulk Modulus (GPa) = 19.89167 25.69460 22.79313
# Shear Modulus (GPa) = 24.79630 28.79259 26.79444
#
# Velocity S-wave (km/s) = 3.35943 3.62004 3.49217
# Velocity P-wave (km/s) = 4.90930 5.40070 5.16085
#
# Compressibility (1/GPa) = 0.05027231
#
# Stress axis : x y z
#
# Youngs Moduli (GPa) = 31.43444 83.00028 91.73258
#
# Poissons Ratio (x) = -0.01549 0.13348
# Poissons Ratio (y) = -0.00587 0.08955
# Poissons Ratio (z) = 0.04574 0.08102
#
# Static dielectric constant tensor:
#      x y z
#    x 1.873960 0.000000 0.000000 
#    y 0.000000 1.776300 0.000000 
#    z 0.000000 0.000000 1.904700 
# 
# From -- ./inp_files/28990.got.cif
#   From: 2010.05.17/outbox.cif.g08.bks.cpg/sg62_15_cif.got.tgz:28990.got - 2010.06.03 15:25:27.
