data_PCOD9464065
_publ_section_title
;
Structure prediction by ZEFSAII (Michael W. Deem and Ramdas Pophale) SiO2 
 PCOD9464065
Probable space group: P N M A
;
_chemical_formula_sum "Si O2"
_cell_formula_units_Z 64
_cell_length_a 21.553260
_cell_length_b 7.653514
_cell_length_c 17.553204
_cell_angle_alpha 90.000000
_cell_angle_beta 90.000000
_cell_angle_gamma 90.000000
_cell_volume 2895.544535
_symmetry_space_group_name_H-M "P N M A"
_symmetry_group_IT_number 62
_symmetry_cell_setting 'orthorhombic'
loop_
_space_group_symop_operation_xyz
x,y,z
1/2-x,-y,1/2+z
1/2+x,1/2-y,1/2-z
-x,1/2+y,-z
-x,-y,-z
1/2+x,y,1/2-z
1/2-x,1/2+y,1/2+z
x,1/2-y,z
loop_
_atom_site_type_symbol
_atom_site_label
_atom_site_fract_x
_atom_site_fract_y
_atom_site_fract_z
Si Si1 0.146408 0.451385 0.381148
Si Si2 0.624523 0.035959 0.699283
Si Si3 0.121104 0.460534 0.623434
Si Si4 0.486577 0.955887 0.865603
Si Si5 0.643358 0.534916 0.296222
Si Si6 0.245861 0.951834 0.088635
Si Si7 0.490569 0.449654 0.690336
Si Si8 0.780648 0.550794 0.073380
O O1 0.152951 0.250000 0.406519
O O2 0.147072 0.465599 0.289422
O O3 0.207909 0.546533 0.407546
O O4 0.077590 0.515795 0.404357
O O5 0.624297 0.250000 0.700749
O O6 0.630032 0.985085 0.787780
O O7 0.557292 0.973141 0.669368
O O8 0.679677 0.978618 0.644009
O O9 0.117443 0.250000 0.619114
O O10 0.053472 0.521846 0.596218
O O11 0.184090 0.523604 0.583285
O O12 0.477630 0.750000 0.850595
O O13 0.491284 0.047961 0.783139
O O14 0.642801 0.750000 0.292711
O O15 0.700951 0.473766 0.346793
O O16 0.576721 0.476650 0.330038
O O17 0.254336 0.750000 0.110888
O O18 0.212715 0.959367 0.007510
O O19 0.491095 0.250000 0.663415
O O20 0.800707 0.750000 0.062455
#
# Coordination Sequence:
#
# PCOD9464065 Si02
#       8
#     8   8   8   8   8   8   8   8
#     4  10  20  34  53  77 104 130 160 206 256 297
#     4   8  15  30  52  76  98 124 163 206 244 286
#     4   9  17  32  54  74  96 129 164 201 247 299
#     4   9  17  29  48  76 104 124 152 202 254 296
#     4   9  17  32  56  79  99 130 169 205 244 298
#     4  10  21  36  51  72 104 136 169 210 253 293
#     4   8  14  28  51  75  98 127 164 201 241 293
#     4  11  22  35  51  71 100 138 176 209 245 296
#
# _framework density 22.102924000000002
#
# number of rings (size 3 to 8) (size 9 to 14) (size 15 to 20)
#    0.000    2.750    0.000    2.625    0.000    4.500 
#    0.000    8.750    0.000    0.000    0.000    0.000 
#    0.000    0.000    0.000    0.000    0.000    0.000 
#
# Total GULP energy -356824.304710 kJ/mol
# GULP energy per Si atom -5575.379761 kJ/mol
# Density = 2.205262 g / cm^3
# Si number density = 22.102924 Si / 1000 Ang^3
#
#
#
# Elastic Constant Matrix: (Units=GPa)
#
#
# Indices 1 2 3 4 5 6 
#
# 1 106.9679 1.5673 16.4195 0.0000 0.0000 0.0000
# 2 1.5673 45.9202 -9.8870 0.0000 0.0000 0.0000
# 3 16.4195 -9.8870 34.6039 0.0000 0.0000 0.0000
# 4 0.0000 0.0000 0.0000 12.3796 0.0000 0.0000
# 5 0.0000 0.0000 0.0000 0.0000 -19.3529 0.0000
# 6 0.0000 0.0000 0.0000 0.0000 0.0000 3.4808
#
#
#
# Elastic Compliance Matrix: (Units=1/GPa)
#
#
# Indices 1 2 3 4 5 6 
#
# 1 0.010176 -0.001478 -0.005251 0.000000 0.000000 0.000000
# 2 -0.001478 0.023419 0.007393 0.000000 0.000000 0.000000
# 3 -0.005251 0.007393 0.033502 0.000000 0.000000 0.000000
# 4 0.000000 0.000000 0.000000 0.080778 0.000000 0.000000
# 5 0.000000 0.000000 0.000000 0.000000 -0.051672 0.000000
# 6 0.000000 0.000000 0.000000 0.000000 0.000000 0.287292
#
#
# Mechanical properties :
#
#
# Convention : Reuss Voigt Hill
#
# Bulk Modulus (GPa) = 14.61453 22.63238 18.62346
# Shear Modulus (GPa) = 12.34639 11.26098 11.80368
#
# Velocity S-wave (km/s) = 2.36601 2.25961 2.31342
# Velocity P-wave (km/s) = 3.75372 4.13153 3.94715
#
# Compressibility (1/GPa) = 0.06842504
#
# Stress axis : x y z
#
# Youngs Moduli (GPa) = 98.26794 42.70035 29.84879
#
# Poissons Ratio (x) = 0.06311 0.15673
# Poissons Ratio (y) = 0.14523 -0.22066
# Poissons Ratio (z) = 0.51599 -0.31566
#
# Static dielectric constant tensor:
#      x y z
#    x 1.880780 0.000000 0.000000 
#    y 0.000000 1.839960 0.000000 
#    z 0.000000 0.000000 1.764860 
# 
# From -- ./inp_files/24817.got.cif
#   From: 2010.05.17/outbox.cif.g08.bks.cpg/sg62_13_cif.got.tgz:24817.got - 2010.06.03 15:25:27.
