data_PCOD9464787
_publ_section_title
;
Structure prediction by ZEFSAII (Michael W. Deem and Ramdas Pophale) SiO2 
 PCOD9464787
Probable space group: P N M A
;
_chemical_formula_sum "Si O2"
_cell_formula_units_Z 64
_cell_length_a 19.719562
_cell_length_b 8.881855
_cell_length_c 20.198462
_cell_angle_alpha 90.000000
_cell_angle_beta 90.000000
_cell_angle_gamma 90.000000
_cell_volume 3537.685690
_symmetry_space_group_name_H-M "P N M A"
_symmetry_group_IT_number 62
_symmetry_cell_setting 'orthorhombic'
loop_
_space_group_symop_operation_xyz
x,y,z
1/2-x,-y,1/2+z
1/2+x,1/2-y,1/2-z
-x,1/2+y,-z
-x,-y,-z
1/2+x,y,1/2-z
1/2-x,1/2+y,1/2+z
x,1/2-y,z
loop_
_atom_site_type_symbol
_atom_site_label
_atom_site_fract_x
_atom_site_fract_y
_atom_site_fract_z
Si Si1 0.972473 0.428887 0.432736
Si Si2 0.182981 0.928585 0.599657
Si Si3 0.063354 0.430215 0.038597
Si Si4 0.904823 0.070861 0.821943
Si Si5 0.218104 0.429263 0.356349
Si Si6 0.571601 0.930974 0.172417
Si Si7 0.250474 0.072160 0.719799
Si Si8 0.711343 0.068619 0.516108
O O1 0.984609 0.250000 0.432576
O O2 0.892215 0.454565 0.427176
O O3 0.000000 0.500000 0.500000
O O4 0.011761 0.503615 0.371708
O O5 0.190883 0.750000 0.613300
O O6 0.238435 0.970162 0.544438
O O7 0.196258 0.019891 0.666326
O O8 0.058796 0.250000 0.037390
O O9 0.067041 0.485851 0.114461
O O10 0.134740 0.473604 0.003762
O O11 0.000000 0.500000 0.000000
O O12 0.913701 0.250000 0.831683
O O13 0.935664 0.029788 0.750248
O O14 0.824475 0.041308 0.812507
O O15 0.211965 0.250000 0.358970
O O16 0.143037 0.502788 0.353612
O O17 0.252897 0.481862 0.288036
O O18 0.260370 0.490360 0.418375
O O19 0.574825 0.750000 0.167560
O O20 0.246969 0.250000 0.733584
O O21 0.713989 0.250000 0.524871
#
# Coordination Sequence:
#
# PCOD9464787 Si02
#       8
#     8   8   8   8   8   8   8   8
#     4  11  23  38  59  88 122 161 200 248 300 353
#     4  10  21  38  60  86 118 153 196 246 293 347
#     4  11  23  39  62  87 116 153 194 244 299 356
#     4   9  19  37  61  86 113 150 197 242 288 345
#     4  11  22  36  60  90 120 155 197 246 292 347
#     4  10  21  39  61  87 122 162 201 246 293 353
#     4  10  20  36  60  87 116 151 191 239 291 350
#     4  10  21  39  61  87 118 155 194 240 298 354
#
# _framework density 18.090924999999999
#
# number of rings (size 3 to 8) (size 9 to 14) (size 15 to 20)
#    0.000    1.750    1.250    4.125    0.000    6.000 
#    2.250    0.000    0.000    0.000    0.000    0.000 
#    0.000    0.000    0.000    0.000    0.000    0.000 
#
# Total GULP energy -357554.285319 kJ/mol
# GULP energy per Si atom -5586.785708 kJ/mol
# Density = 1.804975 g / cm^3
# Si number density = 18.090925 Si / 1000 Ang^3
#
#
#
# Elastic Constant Matrix: (Units=GPa)
#
#
# Indices 1 2 3 4 5 6 
#
# 1 103.3964 61.5653 76.3089 0.0000 0.0000 0.0000
# 2 61.5653 69.0802 61.9022 0.0000 0.0000 0.0000
# 3 76.3089 61.9022 129.5822 0.0000 0.0000 0.0000
# 4 0.0000 0.0000 0.0000 37.7819 0.0000 0.0000
# 5 0.0000 0.0000 0.0000 0.0000 28.8397 0.0000
# 6 0.0000 0.0000 0.0000 0.0000 0.0000 28.2557
#
#
#
# Elastic Compliance Matrix: (Units=1/GPa)
#
#
# Indices 1 2 3 4 5 6 
#
# 1 0.023530 -0.014956 -0.006712 0.000000 0.000000 0.000000
# 2 -0.014956 0.034817 -0.007825 0.000000 0.000000 0.000000
# 3 -0.006712 -0.007825 0.015408 0.000000 0.000000 0.000000
# 4 0.000000 0.000000 0.000000 0.026468 0.000000 0.000000
# 5 0.000000 0.000000 0.000000 0.000000 0.034674 0.000000
# 6 0.000000 0.000000 0.000000 0.000000 0.000000 0.035391
#
#
# Mechanical properties :
#
#
# Convention : Reuss Voigt Hill
#
# Bulk Modulus (GPa) = 67.70934 77.95683 72.83309
# Shear Modulus (GPa) = 21.34955 25.79428 23.57192
#
# Velocity S-wave (km/s) = 3.43902 3.78009 3.61358
# Velocity P-wave (km/s) = 7.29915 7.88906 7.59984
#
# Compressibility (1/GPa) = 0.01476901
#
# Stress axis : x y z
#
# Youngs Moduli (GPa) = 42.49807 28.72186 64.90253
#
# Poissons Ratio (x) = 0.42956 0.43563
# Poissons Ratio (y) = 0.63560 0.50785
# Poissons Ratio (z) = 0.28525 0.22474
#
# Static dielectric constant tensor:
#      x y z
#    x 1.604360 0.000000 0.000000 
#    y 0.000000 1.606240 0.000000 
#    z 0.000000 0.000000 1.600100 
# 
# From -- ./inp_files/24710.got.cif
#   From: 2010.05.17/outbox.cif.g08.bks.cpg/sg62_13_cif.got.tgz:24710.got - 2010.06.03 15:25:27.
