data_PCOD9464713
_publ_section_title
;
Structure prediction by ZEFSAII (Michael W. Deem and Ramdas Pophale) SiO2 
 PCOD9464713
Probable space group: P N M A
;
_chemical_formula_sum "Si O2"
_cell_formula_units_Z 40
_cell_length_a 23.968236
_cell_length_b 13.305073
_cell_length_c 6.413819
_cell_angle_alpha 90.000000
_cell_angle_beta 90.000000
_cell_angle_gamma 90.000000
_cell_volume 2045.361297
_symmetry_space_group_name_H-M "P N M A"
_symmetry_group_IT_number 62
_symmetry_cell_setting 'orthorhombic'
loop_
_space_group_symop_operation_xyz
x,y,z
1/2-x,-y,1/2+z
1/2+x,1/2-y,1/2-z
-x,1/2+y,-z
-x,-y,-z
1/2+x,y,1/2-z
1/2-x,1/2+y,1/2+z
x,1/2-y,z
loop_
_atom_site_type_symbol
_atom_site_label
_atom_site_fract_x
_atom_site_fract_y
_atom_site_fract_z
Si Si1 0.208366 0.636073 0.241917
Si Si2 0.541835 0.638501 0.913861
Si Si3 0.184432 0.043557 0.555289
Si Si4 0.424232 0.945210 0.816261
Si Si5 0.617729 0.949256 0.565767
O O1 0.207170 0.750000 0.319589
O O2 0.264140 0.614709 0.108969
O O3 0.205368 0.553822 0.425886
O O4 0.156020 0.613896 0.091497
O O5 0.553980 0.750000 0.991961
O O6 0.476451 0.624523 0.866551
O O7 0.575741 0.616806 0.702154
O O8 0.560922 0.552076 0.073429
O O9 0.134090 0.089365 0.417905
O O10 0.157356 0.005745 0.770263
O O11 0.415202 0.969803 0.574410
#
# Coordination Sequence:
#
# PCOD9464713 Si02
#       5
#     8   8   8   8   8
#     4  11  22  37  59  84 112 154 198 240 294 347
#     4  10  20  36  58  86 114 149 192 232 285 347
#     4  10  21  39  56  83 117 149 196 245 288 347
#     4   9  21  37  57  83 117 151 185 239 289 337
#     4  10  20  37  59  81 117 149 190 244 288 335
#
# _framework density 19.556446999999999
#
# number of rings (size 3 to 8) (size 9 to 14) (size 15 to 20)
#    0.000    2.000    2.000    1.200    0.000    9.600 
#    0.000    1.000    0.000    0.000    0.000    0.000 
#    0.000    0.000    0.000    0.000    0.000    0.000 
#
# Total GULP energy -223376.841702 kJ/mol
# GULP energy per Si atom -5584.421043 kJ/mol
# Density = 1.951194 g / cm^3
# Si number density = 19.556447 Si / 1000 Ang^3
#
#
#
# Elastic Constant Matrix: (Units=GPa)
#
#
# Indices 1 2 3 4 5 6 
#
# 1 89.0755 4.6220 5.2050 0.0000 0.0000 0.0000
# 2 4.6220 25.4222 12.7255 0.0000 0.0000 0.0000
# 3 5.2050 12.7255 62.7043 0.0000 0.0000 0.0000
# 4 0.0000 0.0000 0.0000 13.7988 0.0000 0.0000
# 5 0.0000 0.0000 0.0000 0.0000 20.9708 0.0000
# 6 0.0000 0.0000 0.0000 0.0000 0.0000 0.9973
#
#
#
# Elastic Compliance Matrix: (Units=1/GPa)
#
#
# Indices 1 2 3 4 5 6 
#
# 1 0.011352 -0.001772 -0.000583 0.000000 0.000000 0.000000
# 2 -0.001772 0.044060 -0.008795 0.000000 0.000000 0.000000
# 3 -0.000583 -0.008795 0.017781 0.000000 0.000000 0.000000
# 4 0.000000 0.000000 0.000000 0.072470 0.000000 0.000000
# 5 0.000000 0.000000 0.000000 0.000000 0.047685 0.000000
# 6 0.000000 0.000000 0.000000 0.000000 0.000000 1.002749
#
#
# Mechanical properties :
#
#
# Convention : Reuss Voigt Hill
#
# Bulk Modulus (GPa) = 19.64850 24.70076 22.17463
# Shear Modulus (GPa) = 4.04740 17.46333 10.75536
#
# Velocity S-wave (km/s) = 1.44017 2.99150 2.34768
# Velocity P-wave (km/s) = 3.58250 4.95883 4.32576
#
# Compressibility (1/GPa) = 0.05089446
#
# Stress axis : x y z
#
# Youngs Moduli (GPa) = 88.08676 22.69621 56.23963
#
# Poissons Ratio (x) = 0.04022 0.03277
# Poissons Ratio (y) = 0.15612 0.49461
# Poissons Ratio (z) = 0.05133 0.19961
#
# Static dielectric constant tensor:
#      x y z
#    x 1.707590 0.000000 0.000000 
#    y 0.000000 1.658100 0.000000 
#    z 0.000000 0.000000 1.669140 
# 
# From -- ./inp_files/2654.got.cif
#   From: 2010.05.17/outbox.cif.g08.bks.cpg/sg62_2_cif.got.tgz:2654.got - 2010.06.03 15:25:27.
