data_PCOD9464109
_publ_section_title
;
Structure prediction by ZEFSAII (Michael W. Deem and Ramdas Pophale) SiO2 
 PCOD9464109
Probable space group: P N M A
;
_chemical_formula_sum "Si O2"
_cell_formula_units_Z 48
_cell_length_a 16.853872
_cell_length_b 15.394841
_cell_length_c 9.822796
_cell_angle_alpha 90.000000
_cell_angle_beta 90.000000
_cell_angle_gamma 90.000000
_cell_volume 2548.648972
_symmetry_space_group_name_H-M "P N M A"
_symmetry_group_IT_number 62
_symmetry_cell_setting 'orthorhombic'
loop_
_space_group_symop_operation_xyz
x,y,z
1/2-x,-y,1/2+z
1/2+x,1/2-y,1/2-z
-x,1/2+y,-z
-x,-y,-z
1/2+x,y,1/2-z
1/2-x,1/2+y,1/2+z
x,1/2-y,z
loop_
_atom_site_type_symbol
_atom_site_label
_atom_site_fract_x
_atom_site_fract_y
_atom_site_fract_z
Si Si1 0.400632 0.650096 0.502454
Si Si2 0.691802 0.472700 0.113446
Si Si3 0.548036 0.152964 0.201176
Si Si4 0.182204 0.523558 0.090822
Si Si5 0.456655 0.149591 0.690241
Si Si6 0.059539 0.581870 0.491678
O O1 0.368603 0.750000 0.498683
O O2 0.456746 0.645249 0.636489
O O3 0.341039 0.570446 0.526829
O O4 0.456331 0.635820 0.372833
O O5 0.619480 0.408894 0.152778
O O6 0.720183 0.508441 0.259591
O O7 0.648629 0.547618 0.024529
O O8 0.759324 0.433769 0.018432
O O9 0.572813 0.250000 0.167175
O O10 0.466146 0.133809 0.124753
O O11 0.104789 0.581830 0.122790
O O12 0.434332 0.250000 0.663810
O O13 0.457887 0.132158 0.851595
O O14 0.000000 0.500000 0.500000
#
# Coordination Sequence:
#
# PCOD9464109 Si02
#       6
#     8   8   8   8   8   8
#     4   9  19  35  54  77 102 133 175 218 261 308
#     4   9  20  33  48  71 101 134 169 207 255 308
#     4   9  17  32  53  74  98 129 168 213 256 304
#     4  10  20  35  51  72 105 140 170 213 262 309
#     4  10  20  34  54  80 107 135 172 217 262 311
#     4   9  18  33  51  74 101 131 168 212 257 302
#
# _framework density 18.833507999999998
#
# number of rings (size 3 to 8) (size 9 to 14) (size 15 to 20)
#    0.000    2.667    0.000    2.000    0.000    4.667 
#    0.000    4.167    0.000    0.000    0.000    0.000 
#    0.000    0.000    0.000    0.000    0.000    0.000 
#
# Total GULP energy -267239.396051 kJ/mol
# GULP energy per Si atom -5567.487418 kJ/mol
# Density = 1.879064 g / cm^3
# Si number density = 18.833508 Si / 1000 Ang^3
#
#
#
# Elastic Constant Matrix: (Units=GPa)
#
#
# Indices 1 2 3 4 5 6 
#
# 1 15.0464 -2.2757 4.2223 0.0000 0.0000 0.0000
# 2 -2.2757 46.0049 -2.2109 0.0000 0.0000 0.0000
# 3 4.2223 -2.2109 11.7012 0.0000 0.0000 0.0000
# 4 0.0000 0.0000 0.0000 24.6727 0.0000 0.0000
# 5 0.0000 0.0000 0.0000 0.0000 27.2073 0.0000
# 6 0.0000 0.0000 0.0000 0.0000 0.0000 8.8694
#
#
#
# Elastic Compliance Matrix: (Units=1/GPa)
#
#
# Indices 1 2 3 4 5 6 
#
# 1 0.074212 0.002406 -0.026324 0.000000 0.000000 0.000000
# 2 0.002406 0.022014 0.003291 0.000000 0.000000 0.000000
# 3 -0.026324 0.003291 0.095582 0.000000 0.000000 0.000000
# 4 0.000000 0.000000 0.000000 0.040531 0.000000 0.000000
# 5 0.000000 0.000000 0.000000 0.000000 0.036755 0.000000
# 6 0.000000 0.000000 0.000000 0.000000 0.000000 0.112748
#
#
# Mechanical properties :
#
#
# Convention : Reuss Voigt Hill
#
# Bulk Modulus (GPa) = 6.64212 8.02486 7.33349
# Shear Modulus (GPa) = 10.56457 17.01765 13.79111
#
# Velocity S-wave (km/s) = 2.37100 3.00923 2.70897
# Velocity P-wave (km/s) = 3.32113 4.04279 3.69960
#
# Compressibility (1/GPa) = 0.15055442
#
# Stress axis : x y z
#
# Youngs Moduli (GPa) = 13.47492 45.42564 10.46221
#
# Poissons Ratio (x) = -0.10929 0.27541
# Poissons Ratio (y) = -0.03242 -0.03443
# Poissons Ratio (z) = 0.35471 -0.14951
#
# Static dielectric constant tensor:
#      x y z
#    x 1.624180 0.000000 0.000000 
#    y 0.000000 1.720010 0.000000 
#    z 0.000000 0.000000 1.672790 
# 
# From -- ./inp_files/8590.got.cif
#   From: 2010.05.17/outbox.cif.g08.bks.cpg/sg62_5_cif.got.tgz:8590.got - 2010.06.03 15:25:27.
