data_PCOD9464456
_publ_section_title
;
Structure prediction by ZEFSAII (Michael W. Deem and Ramdas Pophale) SiO2 
 PCOD9464456
Probable space group: P N M A
;
_chemical_formula_sum "Si O2"
_cell_formula_units_Z 64
_cell_length_a 14.132603
_cell_length_b 7.461018
_cell_length_c 25.067244
_cell_angle_alpha 90.000000
_cell_angle_beta 90.000000
_cell_angle_gamma 90.000000
_cell_volume 2643.180584
_symmetry_space_group_name_H-M "P N M A"
_symmetry_group_IT_number 62
_symmetry_cell_setting 'orthorhombic'
loop_
_space_group_symop_operation_xyz
x,y,z
1/2-x,-y,1/2+z
1/2+x,1/2-y,1/2-z
-x,1/2+y,-z
-x,-y,-z
1/2+x,y,1/2-z
1/2-x,1/2+y,1/2+z
x,1/2-y,z
loop_
_atom_site_type_symbol
_atom_site_label
_atom_site_fract_x
_atom_site_fract_y
_atom_site_fract_z
Si Si1 0.367058 0.542636 0.370652
Si Si2 0.663759 0.533450 0.833259
Si Si3 0.246802 0.040790 0.554132
Si Si4 0.097704 0.034214 0.470287
Si Si5 0.339575 0.952608 0.862010
Si Si6 0.335071 0.968809 0.742185
Si Si7 0.956303 0.466108 0.238050
Si Si8 0.039837 0.535841 0.059013
O O1 0.355503 0.750000 0.386029
O O2 0.268487 0.448153 0.382913
O O3 0.385868 0.530220 0.307488
O O4 0.459847 0.467109 0.400152
O O5 0.662508 0.750000 0.835951
O O6 0.682927 0.470766 0.892810
O O7 0.752531 0.473026 0.796923
O O8 0.573701 0.477521 0.797662
O O9 0.261645 0.250000 0.541778
O O10 0.185207 0.964025 0.505647
O O11 0.352459 0.965139 0.563723
O O12 0.107984 0.250000 0.466375
O O13 0.100617 0.964321 0.409765
O O14 0.000000 0.000000 0.500000
O O15 0.375924 0.750000 0.853387
O O16 0.332633 0.033801 0.803240
O O17 0.327769 0.750000 0.743359
O O18 0.438561 0.020962 0.722180
O O19 0.952095 0.250000 0.237515
O O20 0.044289 0.750000 0.068179
O O21 0.000000 0.500000 0.000000
#
# Coordination Sequence:
#
# PCOD9464456 Si02
#       8
#     8   8   8   8   8   8   8   8
#     4  11  22  36  57  89 122 150 185 237 296 349
#     4  10  20  35  57  86 113 146 193 238 278 331
#     4  10  22  40  57  82 119 155 189 233 290 352
#     4  10  23  40  62  86 113 153 198 241 290 341
#     4  10  20  39  63  83 111 156 200 241 287 341
#     4   9  18  34  57  85 111 142 194 244 281 329
#     4  10  20  35  57  82 112 149 193 238 280 340
#     4  10  22  39  60  86 116 149 190 235 284 347
#
# _framework density 24.213252000000001
#
# number of rings (size 3 to 8) (size 9 to 14) (size 15 to 20)
#    0.000    2.000    1.250    1.875    1.750    4.000 
#    0.000    0.625    0.000    0.000    0.000    0.000 
#    0.000    0.000    0.000    0.000    0.000    0.000 
#
# Total GULP energy -357745.834548 kJ/mol
# GULP energy per Si atom -5589.778665 kJ/mol
# Density = 2.415814 g / cm^3
# Si number density = 24.213252 Si / 1000 Ang^3
#
#
#
# Elastic Constant Matrix: (Units=GPa)
#
#
# Indices 1 2 3 4 5 6 
#
# 1 40.4599 -5.5160 -22.3060 0.0000 0.0000 0.0000
# 2 -5.5160 72.5840 -13.3744 0.0000 0.0000 0.0000
# 3 -22.3060 -13.3744 88.9824 0.0000 0.0000 0.0000
# 4 0.0000 0.0000 0.0000 18.5878 0.0000 0.0000
# 5 0.0000 0.0000 0.0000 0.0000 42.3657 0.0000
# 6 0.0000 0.0000 0.0000 0.0000 0.0000 10.5339
#
#
#
# Elastic Compliance Matrix: (Units=1/GPa)
#
#
# Indices 1 2 3 4 5 6 
#
# 1 0.029626 0.003723 0.007986 0.000000 0.000000 0.000000
# 2 0.003723 0.014637 0.003133 0.000000 0.000000 0.000000
# 3 0.007986 0.003133 0.013711 0.000000 0.000000 0.000000
# 4 0.000000 0.000000 0.000000 0.053799 0.000000 0.000000
# 5 0.000000 0.000000 0.000000 0.000000 0.023604 0.000000
# 6 0.000000 0.000000 0.000000 0.000000 0.000000 0.094932
#
#
# Mechanical properties :
#
#
# Convention : Reuss Voigt Hill
#
# Bulk Modulus (GPa) = 11.40769 13.29260 12.35014
# Shear Modulus (GPa) = 21.75386 30.51233 26.13309
#
# Velocity S-wave (km/s) = 3.00063 3.55371 3.28882
# Velocity P-wave (km/s) = 4.08982 4.72654 4.41966
#
# Compressibility (1/GPa) = 0.08766020
#
# Stress axis : x y z
#
# Youngs Moduli (GPa) = 33.75372 68.31802 72.93347
#
# Poissons Ratio (x) = -0.25435 -0.58247
# Poissons Ratio (y) = -0.12567 -0.22853
# Poissons Ratio (z) = -0.26957 -0.21406
#
# Static dielectric constant tensor:
#      x y z
#    x 1.921940 0.000000 0.000000 
#    y 0.000000 1.939580 0.000000 
#    z 0.000000 0.000000 1.915890 
# 
# From -- ./inp_files/29798.got.cif
#   From: 2010.05.17/outbox.cif.g08.bks.cpg/sg62_15_cif.got.tgz:29798.got - 2010.06.03 15:25:27.
