data_PCOD9464105
_publ_section_title
;
Structure prediction by ZEFSAII (Michael W. Deem and Ramdas Pophale) SiO2 
 PCOD9464105
Probable space group: P N M A
;
_chemical_formula_sum "Si O2"
_cell_formula_units_Z 48
_cell_length_a 16.237903
_cell_length_b 8.671325
_cell_length_c 18.895425
_cell_angle_alpha 90.000000
_cell_angle_beta 90.000000
_cell_angle_gamma 90.000000
_cell_volume 2660.553958
_symmetry_space_group_name_H-M "P N M A"
_symmetry_group_IT_number 62
_symmetry_cell_setting 'orthorhombic'
loop_
_space_group_symop_operation_xyz
x,y,z
1/2-x,-y,1/2+z
1/2+x,1/2-y,1/2-z
-x,1/2+y,-z
-x,-y,-z
1/2+x,y,1/2-z
1/2-x,1/2+y,1/2+z
x,1/2-y,z
loop_
_atom_site_type_symbol
_atom_site_label
_atom_site_fract_x
_atom_site_fract_y
_atom_site_fract_z
Si Si1 0.921385 0.933403 0.204356
Si Si2 0.426831 0.435598 0.952525
Si Si3 0.255303 0.566894 0.457562
Si Si4 0.753560 0.065749 0.201004
Si Si5 0.429238 0.934027 0.793325
Si Si6 0.925324 0.066625 0.045261
O O1 0.913768 0.750000 0.201608
O O2 0.837058 0.005282 0.236292
O O3 0.929887 0.998859 0.124714
O O4 0.000582 0.983702 0.248584
O O5 0.431141 0.250000 0.946862
O O6 0.336127 0.474275 0.984255
O O7 0.432623 0.508295 0.874325
O O8 0.500000 0.500000 0.000000
O O9 0.266777 0.750000 0.463868
O O10 0.252083 0.519210 0.374863
O O11 0.336434 0.483311 0.486149
O O12 0.759945 0.250000 0.189768
O O13 0.664033 0.034517 0.234168
O O14 0.441723 0.750000 0.791481
O O15 0.929848 0.250000 0.048804
O O16 0.000000 0.000000 0.000000
#
# Coordination Sequence:
#
# PCOD9464105 Si02
#       6
#     8   8   8   8   8   8
#     4  11  21  34  54  79 107 137 171 212 257 307
#     4  10  20  34  54  79 107 138 173 214 257 305
#     4   9  17  31  51  75 102 134 172 210 251 303
#     4   9  17  31  52  75 100 134 173 210 251 303
#     4  10  20  35  55  78 105 137 174 215 257 304
#     4  11  21  35  55  78 105 136 172 213 257 306
#
# _framework density 18.041354999999999
#
# number of rings (size 3 to 8) (size 9 to 14) (size 15 to 20)
#    0.000    2.000    0.000    7.000    0.000    4.000 
#    0.000    1.667    0.000   10.000    0.000    0.000 
#    0.000    0.000    0.000    0.000    0.000    0.000 
#
# Total GULP energy -267691.472791 kJ/mol
# GULP energy per Si atom -5576.905683 kJ/mol
# Density = 1.800029 g / cm^3
# Si number density = 18.041355 Si / 1000 Ang^3
#
#
#
# Elastic Constant Matrix: (Units=GPa)
#
#
# Indices 1 2 3 4 5 6 
#
# 1 177.7631 52.0499 48.7448 0.0000 0.0000 0.0000
# 2 52.0499 92.0769 22.0142 0.0000 0.0000 0.0000
# 3 48.7448 22.0142 34.2721 0.0000 0.0000 0.0000
# 4 0.0000 0.0000 0.0000 25.3141 0.0000 0.0000
# 5 0.0000 0.0000 0.0000 0.0000 32.1700 0.0000
# 6 0.0000 0.0000 0.0000 0.0000 0.0000 32.8451
#
#
#
# Elastic Compliance Matrix: (Units=1/GPa)
#
#
# Indices 1 2 3 4 5 6 
#
# 1 0.009717 -0.002586 -0.012159 0.000000 0.000000 0.000000
# 2 -0.002586 0.013519 -0.005006 0.000000 0.000000 0.000000
# 3 -0.012159 -0.005006 0.049688 0.000000 0.000000 0.000000
# 4 0.000000 0.000000 0.000000 0.039504 0.000000 0.000000
# 5 0.000000 0.000000 0.000000 0.000000 0.031085 0.000000
# 6 0.000000 0.000000 0.000000 0.000000 0.000000 0.030446
#
#
# Mechanical properties :
#
#
# Convention : Reuss Voigt Hill
#
# Bulk Modulus (GPa) = 29.92085 61.08111 45.50098
# Shear Modulus (GPa) = 22.26173 30.15270 26.20721
#
# Velocity S-wave (km/s) = 3.51654 4.09260 3.81546
# Velocity P-wave (km/s) = 5.75401 7.50081 6.68472
#
# Compressibility (1/GPa) = 0.03342151
#
# Stress axis : x y z
#
# Youngs Moduli (GPa) = 102.91492 73.96968 20.12567
#
# Poissons Ratio (x) = 0.19126 0.24471
# Poissons Ratio (y) = 0.26611 0.10075
# Poissons Ratio (z) = 1.25136 0.37031
#
# Static dielectric constant tensor:
#      x y z
#    x 1.677800 0.000000 0.000000 
#    y 0.000000 1.599100 0.000000 
#    z 0.000000 0.000000 1.587440 
# 
# From -- ./inp_files/26885.got.cif
#   From: 2010.05.17/outbox.cif.g08.bks.cpg/sg62_14_cif.got.tgz:26885.got - 2010.06.03 15:25:27.
