data_PCOD9464422
_publ_section_title
;
Structure prediction by ZEFSAII (Michael W. Deem and Ramdas Pophale) SiO2 
 PCOD9464422
Probable space group: P N M A
;
_chemical_formula_sum "Si O2"
_cell_formula_units_Z 64
_cell_length_a 33.724777
_cell_length_b 7.717972
_cell_length_c 11.549642
_cell_angle_alpha 90.000000
_cell_angle_beta 90.000000
_cell_angle_gamma 90.000000
_cell_volume 3006.220334
_symmetry_space_group_name_H-M "P N M A"
_symmetry_group_IT_number 62
_symmetry_cell_setting 'orthorhombic'
loop_
_space_group_symop_operation_xyz
x,y,z
1/2-x,-y,1/2+z
1/2+x,1/2-y,1/2-z
-x,1/2+y,-z
-x,-y,-z
1/2+x,y,1/2-z
1/2-x,1/2+y,1/2+z
x,1/2-y,z
loop_
_atom_site_type_symbol
_atom_site_label
_atom_site_fract_x
_atom_site_fract_y
_atom_site_fract_z
Si Si1 0.885059 0.956332 0.095236
Si Si2 0.829131 0.959168 0.509089
Si Si3 0.404746 0.549066 0.866093
Si Si4 0.225583 0.952019 0.278509
Si Si5 0.992582 0.442858 0.633422
Si Si6 0.312794 0.961398 0.252648
Si Si7 0.524596 0.459600 0.618141
Si Si8 0.650341 0.959091 0.347145
O O1 0.888203 0.750000 0.115044
O O2 0.851738 0.027308 0.182198
O O3 0.929969 0.022824 0.104827
O O4 0.866708 0.987489 0.969482
O O5 0.828514 0.750000 0.521724
O O6 0.874218 0.013710 0.535811
O O7 0.816105 0.004647 0.381674
O O8 0.799408 0.032802 0.604152
O O9 0.415111 0.750000 0.887120
O O10 0.445178 0.447535 0.855083
O O11 0.378695 0.533541 0.750457
O O12 0.231263 0.750000 0.249380
O O13 0.269601 0.025557 0.293037
O O14 0.195130 0.021996 0.181195
O O15 0.009391 0.250000 0.635614
O O16 0.008293 0.524446 0.755640
O O17 0.000000 0.500000 0.500000
O O18 0.313747 0.750000 0.264769
O O19 0.500000 0.500000 0.500000
O O20 0.523988 0.250000 0.622819
O O21 0.649980 0.750000 0.337156
#
# Coordination Sequence:
#
# PCOD9464422 Si02
#       8
#     8   8   8   8   8   8   8   8
#     4  10  21  37  59  83 110 146 190 234 281 337
#     4   9  19  35  58  81 107 145 188 231 278 337
#     4  10  20  36  60  86 112 148 193 236 283 342
#     4   9  19  35  54  79 111 147 183 228 280 329
#     4  11  24  40  61  90 122 157 196 244 299 359
#     4   9  19  35  56  79 108 147 186 229 280 330
#     4  10  23  41  63  88 117 152 194 244 297 354
#     4  10  20  35  56  83 117 150 185 232 283 338
#
# _framework density 21.289192
#
# number of rings (size 3 to 8) (size 9 to 14) (size 15 to 20)
#    0.000    2.250    0.000    1.875    3.500    4.500 
#    0.000    1.250    0.000    0.000    0.000    0.000 
#    0.000    0.000    0.000    0.000    0.000    0.000 
#
# Total GULP energy -356872.314433 kJ/mol
# GULP energy per Si atom -5576.129913 kJ/mol
# Density = 2.124074 g / cm^3
# Si number density = 21.289192 Si / 1000 Ang^3
#
#
#
# Elastic Constant Matrix: (Units=GPa)
#
#
# Indices 1 2 3 4 5 6 
#
# 1 182.8709 8.5571 81.9809 0.0000 0.0000 0.0000
# 2 8.5571 32.9104 -0.3720 0.0000 0.0000 0.0000
# 3 81.9809 -0.3720 108.6892 0.0000 0.0000 0.0000
# 4 0.0000 0.0000 0.0000 17.1744 0.0000 0.0000
# 5 0.0000 0.0000 0.0000 0.0000 15.9321 0.0000
# 6 0.0000 0.0000 0.0000 0.0000 0.0000 10.0921
#
#
#
# Elastic Compliance Matrix: (Units=1/GPa)
#
#
# Indices 1 2 3 4 5 6 
#
# 1 0.008427 -0.002263 -0.006364 0.000000 0.000000 0.000000
# 2 -0.002263 0.030994 0.001813 0.000000 0.000000 0.000000
# 3 -0.006364 0.001813 0.014007 0.000000 0.000000 0.000000
# 4 0.000000 0.000000 0.000000 0.058226 0.000000 0.000000
# 5 0.000000 0.000000 0.000000 0.000000 0.062766 0.000000
# 6 0.000000 0.000000 0.000000 0.000000 0.000000 0.099087
#
#
# Mechanical properties :
#
#
# Convention : Reuss Voigt Hill
#
# Bulk Modulus (GPa) = 25.12539 56.08914 40.60727
# Shear Modulus (GPa) = 16.64426 24.26003 20.45215
#
# Velocity S-wave (km/s) = 2.79913 3.37938 3.10285
# Velocity P-wave (km/s) = 4.71958 6.45217 5.65265
#
# Compressibility (1/GPa) = 0.03980038
#
# Stress axis : x y z
#
# Youngs Moduli (GPa) = 118.66192 32.26381 71.39254
#
# Poissons Ratio (x) = 0.07302 0.45436
# Poissons Ratio (y) = 0.26855 -0.12944
# Poissons Ratio (z) = 0.75519 -0.05850
#
# Static dielectric constant tensor:
#      x y z
#    x 1.765860 0.000000 0.000000 
#    y 0.000000 1.826990 0.000000 
#    z 0.000000 0.000000 1.758440 
# 
# From -- ./inp_files/15766.got.cif
#   From: 2010.05.17/outbox.cif.g08.bks.cpg/sg62_8_cif.got.tgz:15766.got - 2010.06.03 15:25:27.
