data_PCOD9464432
_publ_section_title
;
Structure prediction by ZEFSAII (Michael W. Deem and Ramdas Pophale) SiO2 
 PCOD9464432
Probable space group: P N M A
;
_chemical_formula_sum "Si O2"
_cell_formula_units_Z 64
_cell_length_a 25.318567
_cell_length_b 10.195581
_cell_length_c 14.060351
_cell_angle_alpha 90.000000
_cell_angle_beta 90.000000
_cell_angle_gamma 90.000000
_cell_volume 3629.503865
_symmetry_space_group_name_H-M "P N M A"
_symmetry_group_IT_number 62
_symmetry_cell_setting 'orthorhombic'
loop_
_space_group_symop_operation_xyz
x,y,z
1/2-x,-y,1/2+z
1/2+x,1/2-y,1/2-z
-x,1/2+y,-z
-x,-y,-z
1/2+x,y,1/2-z
1/2-x,1/2+y,1/2+z
x,1/2-y,z
loop_
_atom_site_type_symbol
_atom_site_label
_atom_site_fract_x
_atom_site_fract_y
_atom_site_fract_z
Si Si1 0.701176 0.906420 0.785531
Si Si2 0.708916 0.592221 0.201333
Si Si3 0.449097 0.407641 0.506963
Si Si4 0.913364 0.095518 0.204262
Si Si5 0.495354 0.017241 0.835919
Si Si6 0.399537 0.403457 0.703441
Si Si7 0.162009 0.597164 0.504744
Si Si8 0.567236 0.390947 0.003169
O O1 0.710851 0.750000 0.767311
O O2 0.643792 0.942488 0.743124
O O3 0.695038 0.924145 0.899074
O O4 0.744239 0.001771 0.739721
O O5 0.717599 0.750000 0.216898
O O6 0.655125 0.545914 0.253985
O O7 0.696654 0.575035 0.089416
O O8 0.500000 0.500000 0.500000
O O9 0.461569 0.250000 0.515934
O O10 0.418029 0.424882 0.408407
O O11 0.417012 0.452471 0.600073
O O12 0.919048 0.250000 0.222964
O O13 0.961020 0.028156 0.260460
O O14 0.447523 0.080340 0.777278
O O15 0.527010 0.100158 0.914623
O O16 0.467241 0.907835 0.901404
O O17 0.390323 0.250000 0.690848
O O18 0.144741 0.750000 0.503952
O O19 0.110242 0.506050 0.503416
O O20 0.594370 0.250000 0.002697
#
# Coordination Sequence:
#
# PCOD9464432 Si02
#       8
#     8   8   8   8   8   8   8   8
#     4  10  22  41  62  85 113 153 195 240 289 340
#     4  10  22  41  62  85 113 153 195 240 289 340
#     4  10  20  35  56  85 116 153 195 235 281 340
#     4  10  20  36  58  83 117 158 194 232 287 347
#     4  11  20  35  56  84 124 159 186 229 296 350
#     4  10  20  36  58  83 117 158 194 232 287 347
#     4  10  21  40  63  84 117 158 191 230 295 357
#     4  11  23  33  55  94 123 150 192 239 284 344
#
# _framework density 17.633264
#
# number of rings (size 3 to 8) (size 9 to 14) (size 15 to 20)
#    0.000    1.750    3.750    0.750    0.000    4.000 
#    0.000    2.500    0.000    0.000    0.000    0.000 
#    0.000    0.000    0.000    0.000    0.000    0.000 
#
# Total GULP energy -356817.073558 kJ/mol
# GULP energy per Si atom -5575.266774 kJ/mol
# Density = 1.759313 g / cm^3
# Si number density = 17.633264 Si / 1000 Ang^3
#
#
#
# Elastic Constant Matrix: (Units=GPa)
#
#
# Indices 1 2 3 4 5 6 
#
# 1 93.0500 40.5276 29.9179 0.0000 0.0000 0.0000
# 2 40.5276 65.4498 29.8193 0.0000 0.0000 0.0000
# 3 29.9179 29.8193 96.7210 0.0000 0.0000 0.0000
# 4 0.0000 0.0000 0.0000 6.2148 0.0000 0.0000
# 5 0.0000 0.0000 0.0000 0.0000 20.2838 0.0000
# 6 0.0000 0.0000 0.0000 0.0000 0.0000 29.5196
#
#
#
# Elastic Compliance Matrix: (Units=1/GPa)
#
#
# Indices 1 2 3 4 5 6 
#
# 1 0.015066 -0.008383 -0.002076 0.000000 0.000000 0.000000
# 2 -0.008383 0.022441 -0.004325 0.000000 0.000000 0.000000
# 3 -0.002076 -0.004325 0.012315 0.000000 0.000000 0.000000
# 4 0.000000 0.000000 0.000000 0.160906 0.000000 0.000000
# 5 0.000000 0.000000 0.000000 0.000000 0.049300 0.000000
# 6 0.000000 0.000000 0.000000 0.000000 0.000000 0.033876
#
#
# Mechanical properties :
#
#
# Convention : Reuss Voigt Hill
#
# Bulk Modulus (GPa) = 49.37681 50.63894 50.00787
# Shear Modulus (GPa) = 15.14133 21.53404 18.33769
#
# Velocity S-wave (km/s) = 2.93350 3.49838 3.22832
# Velocity P-wave (km/s) = 6.28783 6.71554 6.50520
#
# Compressibility (1/GPa) = 0.02025242
#
# Stress axis : x y z
#
# Youngs Moduli (GPa) = 66.37676 44.56219 81.20478
#
# Poissons Ratio (x) = 0.37357 0.16854
# Poissons Ratio (y) = 0.55645 0.35124
# Poissons Ratio (z) = 0.13777 0.19275
#
# Static dielectric constant tensor:
#      x y z
#    x 1.575180 0.000000 0.000000 
#    y 0.000000 1.620220 0.000000 
#    z 0.000000 0.000000 1.627100 
# 
# From -- ./inp_files/15330.got.cif
#   From: 2010.05.17/outbox.cif.g08.bks.cpg/sg62_8_cif.got.tgz:15330.got - 2010.06.03 15:25:27.
