data_PCOD9464716
_publ_section_title
;
Structure prediction by ZEFSAII (Michael W. Deem and Ramdas Pophale) SiO2 
 PCOD9464716
Probable space group: P N M A
;
_chemical_formula_sum "Si O2"
_cell_formula_units_Z 56
_cell_length_a 23.429063
_cell_length_b 8.976648
_cell_length_c 13.856883
_cell_angle_alpha 90.000000
_cell_angle_beta 90.000000
_cell_angle_gamma 90.000000
_cell_volume 2914.302748
_symmetry_space_group_name_H-M "P N M A"
_symmetry_group_IT_number 62
_symmetry_cell_setting 'orthorhombic'
loop_
_space_group_symop_operation_xyz
x,y,z
1/2-x,-y,1/2+z
1/2+x,1/2-y,1/2-z
-x,1/2+y,-z
-x,-y,-z
1/2+x,y,1/2-z
1/2-x,1/2+y,1/2+z
x,1/2-y,z
loop_
_atom_site_type_symbol
_atom_site_label
_atom_site_fract_x
_atom_site_fract_y
_atom_site_fract_z
Si Si1 0.234731 0.073181 0.303755
Si Si2 0.558269 0.919957 0.103093
Si Si3 0.662128 0.073859 0.010977
Si Si4 0.365061 0.080403 0.700891
Si Si5 0.839052 0.925976 0.293478
Si Si6 0.462737 0.427818 0.215978
Si Si7 0.023611 0.570264 0.097730
O O1 0.243492 0.250000 0.302833
O O2 0.207159 0.028932 0.406742
O O3 0.187248 0.026367 0.224597
O O4 0.292950 0.989747 0.280102
O O5 0.543488 0.750000 0.079191
O O6 0.595061 0.919074 0.203127
O O7 0.602606 0.989554 0.028133
O O8 0.502118 0.013528 0.127943
O O9 0.651065 0.250000 0.024866
O O10 0.683447 0.051058 0.902799
O O11 0.344132 0.250000 0.686765
O O12 0.408936 0.039870 0.615921
O O13 0.848090 0.750000 0.279063
O O14 0.898945 0.010458 0.288696
O O15 0.464027 0.250000 0.218750
O O16 0.490326 0.496416 0.313024
O O17 0.016755 0.750000 0.099985
O O18 0.000000 0.500000 0.000000
#
# Coordination Sequence:
#
# PCOD9464716 Si02
#       7
#     8   8   8   8   8   8   8
#     4  10  20  37  59  83 110 145 192 243 288 344
#     4   9  17  32  57  85 113 144 182 228 279 342
#     4   9  20  38  60  84 111 148 192 237 290 350
#     4   8  16  32  54  79 107 144 184 227 278 332
#     4  11  23  40  59  82 116 155 193 242 296 350
#     4  11  22  37  57  83 117 154 190 239 293 345
#     4  10  20  36  58  86 118 153 195 241 291 348
#
# _framework density 19.215574
#
# number of rings (size 3 to 8) (size 9 to 14) (size 15 to 20)
#    0.000    2.286    0.000    3.857    0.000    6.286 
#    2.571    0.000    0.000    0.000    0.000    0.000 
#    0.000    0.000    0.000    0.000    0.000    0.000 
#
# Total GULP energy -312663.135497 kJ/mol
# GULP energy per Si atom -5583.270277 kJ/mol
# Density = 1.917184 g / cm^3
# Si number density = 19.215574 Si / 1000 Ang^3
#
#
#
# Elastic Constant Matrix: (Units=GPa)
#
#
# Indices 1 2 3 4 5 6 
#
# 1 93.4079 55.2747 19.4860 0.0000 0.0000 0.0000
# 2 55.2747 100.2670 30.7207 0.0000 0.0000 0.0000
# 3 19.4860 30.7207 50.1083 0.0000 0.0000 0.0000
# 4 0.0000 0.0000 0.0000 23.0905 0.0000 0.0000
# 5 0.0000 0.0000 0.0000 0.0000 27.0715 0.0000
# 6 0.0000 0.0000 0.0000 0.0000 0.0000 38.1333
#
#
#
# Elastic Compliance Matrix: (Units=1/GPa)
#
#
# Indices 1 2 3 4 5 6 
#
# 1 0.015930 -0.008476 -0.000998 0.000000 0.000000 0.000000
# 2 -0.008476 0.016790 -0.006998 0.000000 0.000000 0.000000
# 3 -0.000998 -0.006998 0.024635 0.000000 0.000000 0.000000
# 4 0.000000 0.000000 0.000000 0.043308 0.000000 0.000000
# 5 0.000000 0.000000 0.000000 0.000000 0.036939 0.000000
# 6 0.000000 0.000000 0.000000 0.000000 0.000000 0.026224
#
#
# Mechanical properties :
#
#
# Convention : Reuss Voigt Hill
#
# Bulk Modulus (GPa) = 40.96468 50.52733 45.74600
# Shear Modulus (GPa) = 24.40150 26.87919 25.64035
#
# Velocity S-wave (km/s) = 3.56741 3.74414 3.65684
# Velocity P-wave (km/s) = 6.19139 6.71145 6.45666
#
# Compressibility (1/GPa) = 0.02441127
#
# Stress axis : x y z
#
# Youngs Moduli (GPa) = 62.77652 59.56008 40.59252
#
# Poissons Ratio (x) = 0.50481 0.04052
# Poissons Ratio (y) = 0.53207 0.28405
# Poissons Ratio (z) = 0.06267 0.41678
#
# Static dielectric constant tensor:
#      x y z
#    x 1.655760 0.000000 0.000000 
#    y 0.000000 1.655000 0.000000 
#    z 0.000000 0.000000 1.695210 
# 
# From -- ./inp_files/20347.got.cif
#   From: 2010.05.17/outbox.cif.g08.bks.cpg/sg62_11_cif.got.tgz:20347.got - 2010.06.03 15:25:27.
