data_PCOD9464622
_publ_section_title
;
Structure prediction by ZEFSAII (Michael W. Deem and Ramdas Pophale) SiO2 
 PCOD9464622
Probable space group: P N M A
;
_chemical_formula_sum "Si O2"
_cell_formula_units_Z 48
_cell_length_a 8.343580
_cell_length_b 7.534986
_cell_length_c 33.105440
_cell_angle_alpha 90.000000
_cell_angle_beta 90.000000
_cell_angle_gamma 90.000000
_cell_volume 2081.297912
_symmetry_space_group_name_H-M "P N M A"
_symmetry_group_IT_number 62
_symmetry_cell_setting 'orthorhombic'
loop_
_space_group_symop_operation_xyz
x,y,z
1/2-x,-y,1/2+z
1/2+x,1/2-y,1/2-z
-x,1/2+y,-z
-x,-y,-z
1/2+x,y,1/2-z
1/2-x,1/2+y,1/2+z
x,1/2-y,z
loop_
_atom_site_type_symbol
_atom_site_label
_atom_site_fract_x
_atom_site_fract_y
_atom_site_fract_z
Si Si1 0.355360 0.535268 0.052278
Si Si2 0.333955 0.461076 0.477779
Si Si3 0.695994 0.955286 0.367829
Si Si4 0.149823 0.040897 0.826404
Si Si5 0.664497 0.955657 0.098671
Si Si6 0.316861 0.250000 0.188215
Si Si7 0.530735 0.750000 0.731201
O O1 0.368194 0.750000 0.048548
O O2 0.217358 0.497240 0.085264
O O3 0.515578 0.466064 0.073836
O O4 0.303901 0.468994 0.008448
O O5 0.500000 0.500000 0.500000
O O6 0.319335 0.250000 0.473826
O O7 0.309423 0.538406 0.433460
O O8 0.743012 0.750000 0.363436
O O9 0.516489 0.973828 0.351524
O O10 0.806967 0.079656 0.340560
O O11 0.174974 0.250000 0.817192
O O12 0.282950 0.972253 0.858000
O O13 0.121306 0.921236 0.787389
O O14 0.625829 0.750000 0.106326
O O15 0.456594 0.250000 0.220806
O O16 0.150131 0.250000 0.214192
#
# Coordination Sequence:
#
# PCOD9464622 Si02
#       7
#     8   8   8   8   8   4   4
#     4   9  19  36  56  79 111 146 183 232 285 339
#     4  11  22  36  54  78 110 150 192 232 278 332
#     4   9  18  37  58  79 111 149 188 229 279 340
#     4   9  19  36  59  81 110 152 188 228 282 341
#     4  10  20  36  56  81 111 142 184 234 286 338
#     4  10  22  38  56  88 110 148 184 238 284 342
#     4  10  22  38  58  82 120 140 190 236 284 344
#
# _framework density 23.062529999999999
#
# number of rings (size 3 to 8) (size 9 to 14) (size 15 to 20)
#    0.000    2.333    0.000    2.000    1.167    4.667 
#    7.500    0.000    0.000    0.000    0.000    0.000 
#    0.000    0.000    0.000    0.000    0.000    0.000 
#
# Total GULP energy -268268.007655 kJ/mol
# GULP energy per Si atom -5588.916826 kJ/mol
# Density = 2.301004 g / cm^3
# Si number density = 23.062530 Si / 1000 Ang^3
#
#
#
# Elastic Constant Matrix: (Units=GPa)
#
#
# Indices 1 2 3 4 5 6 
#
# 1 49.9091 -0.5879 -7.4141 0.0000 0.0000 0.0000
# 2 -0.5879 65.4071 12.2082 0.0000 0.0000 0.0000
# 3 -7.4141 12.2082 75.9374 0.0000 0.0000 0.0000
# 4 0.0000 0.0000 0.0000 22.0023 0.0000 0.0000
# 5 0.0000 0.0000 0.0000 0.0000 40.9974 0.0000
# 6 0.0000 0.0000 0.0000 0.0000 0.0000 9.0533
#
#
#
# Elastic Compliance Matrix: (Units=1/GPa)
#
#
# Indices 1 2 3 4 5 6 
#
# 1 0.020334 -0.000194 0.002016 0.000000 0.000000 0.000000
# 2 -0.000194 0.015764 -0.002553 0.000000 0.000000 0.000000
# 3 0.002016 -0.002553 0.013776 0.000000 0.000000 0.000000
# 4 0.000000 0.000000 0.000000 0.045450 0.000000 0.000000
# 5 0.000000 0.000000 0.000000 0.000000 0.024392 0.000000
# 6 0.000000 0.000000 0.000000 0.000000 0.000000 0.110457
#
#
# Mechanical properties :
#
#
# Convention : Reuss Voigt Hill
#
# Bulk Modulus (GPa) = 20.65573 22.18510 21.42042
# Shear Modulus (GPa) = 20.17999 26.88044 23.53022
#
# Velocity S-wave (km/s) = 2.96127 3.41771 3.19765
# Velocity P-wave (km/s) = 4.54621 5.02143 4.78972
#
# Compressibility (1/GPa) = 0.04841270
#
# Stress axis : x y z
#
# Youngs Moduli (GPa) = 49.17948 63.43698 72.58968
#
# Poissons Ratio (x) = 0.01228 -0.14637
# Poissons Ratio (y) = 0.00952 0.18533
# Poissons Ratio (z) = -0.09916 0.16196
#
# Static dielectric constant tensor:
#      x y z
#    x 1.937310 0.000000 0.000000 
#    y 0.000000 1.837540 0.000000 
#    z 0.000000 0.000000 1.809290 
# 
# From -- ./inp_files/32069.got.cif
#   From: 2010.05.17/outbox.cif.g08.bks.cpg/sg62_17_cif.got.tgz:32069.got - 2010.06.03 15:25:27.
