data_PCOD9464419
_publ_section_title
;
Structure prediction by ZEFSAII (Michael W. Deem and Ramdas Pophale) SiO2 
 PCOD9464419
Probable space group: P N M A
;
_chemical_formula_sum "Si O2"
_cell_formula_units_Z 56
_cell_length_a 24.870842
_cell_length_b 9.194598
_cell_length_c 13.539155
_cell_angle_alpha 90.000000
_cell_angle_beta 90.000000
_cell_angle_gamma 90.000000
_cell_volume 3096.098684
_symmetry_space_group_name_H-M "P N M A"
_symmetry_group_IT_number 62
_symmetry_cell_setting 'orthorhombic'
loop_
_space_group_symop_operation_xyz
x,y,z
1/2-x,-y,1/2+z
1/2+x,1/2-y,1/2-z
-x,1/2+y,-z
-x,-y,-z
1/2+x,y,1/2-z
1/2-x,1/2+y,1/2+z
x,1/2-y,z
loop_
_atom_site_type_symbol
_atom_site_label
_atom_site_fract_x
_atom_site_fract_y
_atom_site_fract_z
Si Si1 0.443109 0.079101 0.006825
Si Si2 0.549091 0.079203 0.630068
Si Si3 0.121073 0.578764 0.711749
Si Si4 0.781062 0.923420 0.389868
Si Si5 0.155514 0.076882 0.411062
Si Si6 0.822846 0.923975 0.812456
Si Si7 0.440303 0.920928 0.605217
O O1 0.449104 0.250000 0.986614
O O2 0.417907 0.062291 0.116468
O O3 0.500000 0.000000 0.000000
O O4 0.399337 0.007986 0.934017
O O5 0.550820 0.250000 0.653737
O O6 0.560878 0.061261 0.513376
O O7 0.591629 0.992767 0.695613
O O8 0.489529 0.014732 0.646388
O O9 0.130720 0.750000 0.726974
O O10 0.176097 0.497766 0.683671
O O11 0.780786 0.750000 0.376238
O O12 0.803161 0.954527 0.500143
O O13 0.723010 0.990702 0.370200
O O14 0.143932 0.250000 0.412846
O O15 0.178948 0.041549 0.303995
O O16 0.815059 0.750000 0.824892
O O17 0.882618 0.959414 0.850397
O O18 0.450730 0.750000 0.626072
#
# Coordination Sequence:
#
# PCOD9464419 Si02
#       7
#     8   8   8   8   8   8   8
#     4  10  21  35  54  81 112 145 181 225 279 338
#     4  10  20  35  56  83 115 148 187 237 283 330
#     4  10  21  37  57  79 108 149 188 224 278 342
#     4  10  21  38  57  81 112 142 184 235 279 326
#     4   9  20  38  57  80 111 145 184 231 276 329
#     4  10  21  38  60  82 110 150 190 229 283 342
#     4   9  20  37  55  80 114 150 188 231 284 342
#
# _framework density 18.087278999999999
#
# number of rings (size 3 to 8) (size 9 to 14) (size 15 to 20)
#    0.000    2.286    0.000    1.714    2.000    5.143 
#    0.000    2.857    0.000    0.000    0.000    0.000 
#    0.000    0.000    0.000    0.000    0.000    0.000 
#
# Total GULP energy -312721.227789 kJ/mol
# GULP energy per Si atom -5584.307639 kJ/mol
# Density = 1.804611 g / cm^3
# Si number density = 18.087279 Si / 1000 Ang^3
#
#
#
# Elastic Constant Matrix: (Units=GPa)
#
#
# Indices 1 2 3 4 5 6 
#
# 1 88.6641 43.0632 50.1950 0.0000 0.0000 0.0000
# 2 43.0632 58.9675 43.4623 0.0000 0.0000 0.0000
# 3 50.1950 43.4623 47.6502 0.0000 0.0000 0.0000
# 4 0.0000 0.0000 0.0000 25.7755 0.0000 0.0000
# 5 0.0000 0.0000 0.0000 0.0000 18.9627 0.0000
# 6 0.0000 0.0000 0.0000 0.0000 0.0000 40.8008
#
#
#
# Elastic Compliance Matrix: (Units=1/GPa)
#
#
# Indices 1 2 3 4 5 6 
#
# 1 0.028244 0.003976 -0.033379 0.000000 0.000000 0.000000
# 2 0.003976 0.052306 -0.051897 0.000000 0.000000 0.000000
# 3 -0.033379 -0.051897 0.103485 0.000000 0.000000 0.000000
# 4 0.000000 0.000000 0.000000 0.038797 0.000000 0.000000
# 5 0.000000 0.000000 0.000000 0.000000 0.052735 0.000000
# 6 0.000000 0.000000 0.000000 0.000000 0.000000 0.024509
#
#
# Mechanical properties :
#
#
# Convention : Reuss Voigt Hill
#
# Bulk Modulus (GPa) = 46.65585 52.08032 49.36808
# Shear Modulus (GPa) = 10.64232 21.01189 15.82711
#
# Velocity S-wave (km/s) = 2.42830 3.41206 2.96132
# Velocity P-wave (km/s) = 5.80629 6.66178 6.24869
#
# Compressibility (1/GPa) = 0.02143354
#
# Stress axis : x y z
#
# Youngs Moduli (GPa) = 35.40536 19.11816 9.66328
#
# Poissons Ratio (x) = -0.07601 0.32255
# Poissons Ratio (y) = -0.14077 0.50150
# Poissons Ratio (z) = 1.18180 0.99218
#
# Static dielectric constant tensor:
#      x y z
#    x 1.581080 0.000000 0.000000 
#    y 0.000000 1.603200 0.000000 
#    z 0.000000 0.000000 1.616790 
# 
# From -- ./inp_files/20336.got.cif
#   From: 2010.05.17/outbox.cif.g08.bks.cpg/sg62_11_cif.got.tgz:20336.got - 2010.06.03 15:25:27.
