data_PCOD9464719
_publ_section_title
;
Structure prediction by ZEFSAII (Michael W. Deem and Ramdas Pophale) SiO2 
 PCOD9464719
Probable space group: P N M A
;
_chemical_formula_sum "Si O2"
_cell_formula_units_Z 48
_cell_length_a 20.131005
_cell_length_b 13.644819
_cell_length_c 8.193227
_cell_angle_alpha 90.000000
_cell_angle_beta 90.000000
_cell_angle_gamma 90.000000
_cell_volume 2250.547706
_symmetry_space_group_name_H-M "P N M A"
_symmetry_group_IT_number 62
_symmetry_cell_setting 'orthorhombic'
loop_
_space_group_symop_operation_xyz
x,y,z
1/2-x,-y,1/2+z
1/2+x,1/2-y,1/2-z
-x,1/2+y,-z
-x,-y,-z
1/2+x,y,1/2-z
1/2-x,1/2+y,1/2+z
x,1/2-y,z
loop_
_atom_site_type_symbol
_atom_site_label
_atom_site_fract_x
_atom_site_fract_y
_atom_site_fract_z
Si Si1 0.719309 0.989662 0.065303
Si Si2 0.422586 0.972994 0.508274
Si Si3 0.812968 0.632829 0.836258
Si Si4 0.875246 0.362394 0.786120
Si Si5 0.979479 0.359910 0.491967
Si Si6 0.095462 0.039929 0.645915
O O1 0.683590 0.913573 0.187403
O O2 0.722406 0.088392 0.174309
O O3 0.778357 0.929609 0.981965
O O4 0.667572 0.016969 0.922369
O O5 0.388816 0.076677 0.551809
O O6 0.500000 0.000000 0.500000
O O7 0.390590 0.901206 0.645732
O O8 0.404858 0.929975 0.332574
O O9 0.806250 0.750000 0.848579
O O10 0.861982 0.250000 0.817827
O O11 0.938566 0.370399 0.663084
O O12 0.970103 0.250000 0.432287
O O13 0.948298 0.440678 0.373718
O O14 0.055367 0.383702 0.534448
#
# Coordination Sequence:
#
# PCOD9464719 Si02
#       6
#     8   8   8   8   8   8
#     4  10  22  43  64  93 129 166 217 282 329 391
#     4  11  22  38  60  92 133 169 213 275 324 390
#     4  11  25  45  70  97 130 178 225 273 340 404
#     4   9  18  35  59  86 121 164 210 259 321 388
#     4   9  18  32  54  84 118 163 209 251 307 379
#     4  10  20  36  58  86 126 165 203 263 327 372
#
# _framework density 21.328142
#
# number of rings (size 3 to 8) (size 9 to 14) (size 15 to 20)
#    0.000    2.000    1.667    1.500    2.333    3.333 
#    0.000    9.167    0.000    0.000    0.000    0.000 
#    0.000    0.000    0.000    0.000    0.000    0.000 
#
# Total GULP energy -267806.797296 kJ/mol
# GULP energy per Si atom -5579.308277 kJ/mol
# Density = 2.127960 g / cm^3
# Si number density = 21.328142 Si / 1000 Ang^3
#
#
#
# Elastic Constant Matrix: (Units=GPa)
#
#
# Indices 1 2 3 4 5 6 
#
# 1 84.0329 22.2301 13.2711 0.0000 0.0000 0.0000
# 2 22.2301 123.1550 11.8309 0.0000 0.0000 0.0000
# 3 13.2711 11.8309 61.4736 0.0000 0.0000 0.0000
# 4 0.0000 0.0000 0.0000 22.0273 0.0000 0.0000
# 5 0.0000 0.0000 0.0000 0.0000 18.9772 0.0000
# 6 0.0000 0.0000 0.0000 0.0000 0.0000 12.1543
#
#
#
# Elastic Compliance Matrix: (Units=1/GPa)
#
#
# Indices 1 2 3 4 5 6 
#
# 1 0.012826 -0.002088 -0.002367 0.000000 0.000000 0.000000
# 2 -0.002088 0.008613 -0.001207 0.000000 0.000000 0.000000
# 3 -0.002367 -0.001207 0.017010 0.000000 0.000000 0.000000
# 4 0.000000 0.000000 0.000000 0.045398 0.000000 0.000000
# 5 0.000000 0.000000 0.000000 0.000000 0.052695 0.000000
# 6 0.000000 0.000000 0.000000 0.000000 0.000000 0.082276
#
#
# Mechanical properties :
#
#
# Convention : Reuss Voigt Hill
#
# Bulk Modulus (GPa) = 36.86533 40.36952 38.61743
# Shear Modulus (GPa) = 20.90443 25.38703 23.14573
#
# Velocity S-wave (km/s) = 3.13411 3.45382 3.29784
# Velocity P-wave (km/s) = 5.51536 5.90543 5.71372
#
# Compressibility (1/GPa) = 0.02712576
#
# Stress axis : x y z
#
# Youngs Moduli (GPa) = 77.96506 116.10841 58.78740
#
# Poissons Ratio (x) = 0.24241 0.13916
# Poissons Ratio (y) = 0.16278 0.07095
# Poissons Ratio (z) = 0.18456 0.14012
#
# Static dielectric constant tensor:
#      x y z
#    x 1.860090 0.000000 0.000000 
#    y 0.000000 1.728060 0.000000 
#    z 0.000000 0.000000 1.775500 
# 
# From -- ./inp_files/8566.got.cif
#   From: 2010.05.17/outbox.cif.g08.bks.cpg/sg62_5_cif.got.tgz:8566.got - 2010.06.03 15:25:27.
