data_PCOD9464310
_publ_section_title
;
Structure prediction by ZEFSAII (Michael W. Deem and Ramdas Pophale) SiO2 
 PCOD9464310
Probable space group: P N M A
;
_chemical_formula_sum "Si O2"
_cell_formula_units_Z 40
_cell_length_a 18.734734
_cell_length_b 8.779193
_cell_length_c 13.662020
_cell_angle_alpha 90.000000
_cell_angle_beta 90.000000
_cell_angle_gamma 90.000000
_cell_volume 2247.072292
_symmetry_space_group_name_H-M "P N M A"
_symmetry_group_IT_number 62
_symmetry_cell_setting 'orthorhombic'
loop_
_space_group_symop_operation_xyz
x,y,z
1/2-x,-y,1/2+z
1/2+x,1/2-y,1/2-z
-x,1/2+y,-z
-x,-y,-z
1/2+x,y,1/2-z
1/2-x,1/2+y,1/2+z
x,1/2-y,z
loop_
_atom_site_type_symbol
_atom_site_label
_atom_site_fract_x
_atom_site_fract_y
_atom_site_fract_z
Si Si1 0.022749 0.433033 0.193898
Si Si2 0.681246 0.067341 0.825612
Si Si3 0.619779 0.433103 0.615671
Si Si4 0.962086 0.067291 0.405125
Si Si5 0.828643 0.565703 0.902432
O O1 0.018958 0.250000 0.186700
O O2 0.100925 0.479969 0.158472
O O3 0.959559 0.500972 0.127935
O O4 0.005041 0.475567 0.305962
O O5 0.679046 0.250000 0.831920
O O6 0.663437 0.022631 0.713142
O O7 0.617345 0.997793 0.890225
O O8 0.757205 0.006220 0.859954
O O9 0.614339 0.250000 0.614468
O O10 0.656980 0.480169 0.514967
O O11 0.959518 0.250000 0.411075
O O12 0.000000 0.000000 0.500000
O O13 0.822646 0.750000 0.898771
#
# Coordination Sequence:
#
# PCOD9464310 Si02
#       5
#     8   8   8   8   8
#     4   9  19  34  54  79 105 134 173 214 258 311
#     4  10  21  36  52  76 106 137 173 213 257 308
#     4   9  19  35  54  75 103 135 170 212 260 309
#     4  10  20  36  56  78 105 140 177 215 258 307
#     4  10  20  35  54  78 106 136 170 214 262 309
#
# _framework density 17.800941000000002
#
# number of rings (size 3 to 8) (size 9 to 14) (size 15 to 20)
#    0.000    2.400    0.000    1.800    0.000    4.800 
#    0.000    4.000    0.000    0.000    0.000    0.000 
#    0.000    0.000    0.000    0.000    0.000    0.000 
#
# Total GULP energy -223267.107287 kJ/mol
# GULP energy per Si atom -5581.677682 kJ/mol
# Density = 1.776043 g / cm^3
# Si number density = 17.800941 Si / 1000 Ang^3
#
#
#
# Elastic Constant Matrix: (Units=GPa)
#
#
# Indices 1 2 3 4 5 6 
#
# 1 196.3675 47.6435 106.0689 0.0000 0.0000 0.0000
# 2 47.6435 28.1209 36.2888 0.0000 0.0000 0.0000
# 3 106.0689 36.2888 104.1888 0.0000 0.0000 0.0000
# 4 0.0000 0.0000 0.0000 22.7667 0.0000 0.0000
# 5 0.0000 0.0000 0.0000 0.0000 26.3754 0.0000
# 6 0.0000 0.0000 0.0000 0.0000 0.0000 36.0626
#
#
#
# Elastic Compliance Matrix: (Units=1/GPa)
#
#
# Indices 1 2 3 4 5 6 
#
# 1 0.012347 -0.008534 -0.009598 0.000000 0.000000 0.000000
# 2 -0.008534 0.070491 -0.015864 0.000000 0.000000 0.000000
# 3 -0.009598 -0.015864 0.024894 0.000000 0.000000 0.000000
# 4 0.000000 0.000000 0.000000 0.043924 0.000000 0.000000
# 5 0.000000 0.000000 0.000000 0.000000 0.037914 0.000000
# 6 0.000000 0.000000 0.000000 0.000000 0.000000 0.027730
#
#
# Mechanical properties :
#
#
# Convention : Reuss Voigt Hill
#
# Bulk Modulus (GPa) = 25.16279 78.74217 51.95248
# Shear Modulus (GPa) = 16.74825 26.28601 21.51713
#
# Velocity S-wave (km/s) = 3.07068 3.84691 3.48050
# Velocity P-wave (km/s) = 5.17092 8.00390 6.73798
#
# Compressibility (1/GPa) = 0.03974122
#
# Stress axis : x y z
#
# Youngs Moduli (GPa) = 80.98958 14.18623 40.16952
#
# Poissons Ratio (x) = 0.12106 0.38554
# Poissons Ratio (y) = 0.69113 0.63726
# Poissons Ratio (z) = 0.77732 0.22505
#
# Static dielectric constant tensor:
#      x y z
#    x 1.567940 0.000000 0.000000 
#    y 0.000000 1.603210 0.000000 
#    z 0.000000 0.000000 1.610240 
# 
# From -- ./inp_files/13829.got.cif
#   From: 2010.05.17/outbox.cif.g08.bks.cpg/sg62_7_cif.got.tgz:13829.got - 2010.06.03 15:25:27.
