data_PCOD9464599
_publ_section_title
;
Structure prediction by ZEFSAII (Michael W. Deem and Ramdas Pophale) SiO2 
 PCOD9464599
Probable space group: P N M A
;
_chemical_formula_sum "Si O2"
_cell_formula_units_Z 64
_cell_length_a 23.632009
_cell_length_b 8.745267
_cell_length_c 19.347129
_cell_angle_alpha 90.000000
_cell_angle_beta 90.000000
_cell_angle_gamma 90.000000
_cell_volume 3998.436876
_symmetry_space_group_name_H-M "P N M A"
_symmetry_group_IT_number 62
_symmetry_cell_setting 'orthorhombic'
loop_
_space_group_symop_operation_xyz
x,y,z
1/2-x,-y,1/2+z
1/2+x,1/2-y,1/2-z
-x,1/2+y,-z
-x,-y,-z
1/2+x,y,1/2-z
1/2-x,1/2+y,1/2+z
x,1/2-y,z
loop_
_atom_site_type_symbol
_atom_site_label
_atom_site_fract_x
_atom_site_fract_y
_atom_site_fract_z
Si Si1 0.152919 0.932150 0.754810
Si Si2 0.780719 0.931532 0.370251
Si Si3 0.616469 0.933176 0.509084
Si Si4 0.825199 0.567913 0.790815
Si Si5 0.938654 0.932358 0.148204
Si Si6 0.061079 0.067283 0.128484
Si Si7 0.735012 0.068893 0.153128
Si Si8 0.242794 0.069005 0.991460
O O1 0.145391 0.750000 0.750349
O O2 0.205269 0.960178 0.807895
O O3 0.172979 0.998585 0.681633
O O4 0.098138 0.010840 0.786982
O O5 0.786000 0.750000 0.373681
O O6 0.720199 0.976936 0.336418
O O7 0.780216 0.004130 0.446109
O O8 0.615389 0.750000 0.508384
O O9 0.581419 0.999417 0.444679
O O10 0.589713 0.994487 0.579968
O O11 0.680923 0.991197 0.503990
O O12 0.813125 0.750000 0.800344
O O13 0.887988 0.538438 0.817643
O O14 0.812372 0.533874 0.710729
O O15 0.936620 0.750000 0.142842
O O16 0.002765 0.990958 0.151040
O O17 0.946279 0.750000 0.878216
O O18 0.733018 0.250000 0.136815
O O19 0.732533 0.974163 0.083249
O O20 0.235910 0.250000 0.998846
#
# Coordination Sequence:
#
# PCOD9464599 Si02
#       8
#     8   8   8   8   8   8   8   8
#     4  10  20  36  55  75 103 136 174 218 263 310
#     4  11  21  33  53  77 105 136 172 215 263 313
#     4  12  23  36  51  73 104 141 182 222 259 305
#     4   9  19  35  54  74 102 136 174 215 261 311
#     4  12  24  37  53  75 104 141 182 221 260 308
#     4  11  22  37  55  75 103 142 181 219 261 309
#     4   9  18  33  53  76 102 133 170 213 261 309
#     4  12  22  33  51  77 107 141 176 212 260 315
#
# _framework density 16.006254999999999
#
# number of rings (size 3 to 8) (size 9 to 14) (size 15 to 20)
#    0.000    1.250    2.500    6.375    0.000    2.500 
#    0.000    0.000    0.000    0.000    0.000    0.875 
#    0.000    0.000    0.000    0.000    0.000    0.000 
#
# Total GULP energy -357661.565034 kJ/mol
# GULP energy per Si atom -5588.461954 kJ/mol
# Density = 1.596982 g / cm^3
# Si number density = 16.006255 Si / 1000 Ang^3
#
#
#
# Elastic Constant Matrix: (Units=GPa)
#
#
# Indices 1 2 3 4 5 6 
#
# 1 44.1580 22.5740 15.1964 0.0000 0.0000 0.0000
# 2 22.5740 98.6379 38.9820 0.0000 0.0000 0.0000
# 3 15.1964 38.9820 66.2077 0.0000 0.0000 0.0000
# 4 0.0000 0.0000 0.0000 28.0030 0.0000 0.0000
# 5 0.0000 0.0000 0.0000 0.0000 16.3666 0.0000
# 6 0.0000 0.0000 0.0000 0.0000 0.0000 24.6893
#
#
#
# Elastic Compliance Matrix: (Units=1/GPa)
#
#
# Indices 1 2 3 4 5 6 
#
# 1 0.026167 -0.004711 -0.003232 0.000000 0.000000 0.000000
# 2 -0.004711 0.014061 -0.007197 0.000000 0.000000 0.000000
# 3 -0.003232 -0.007197 0.020084 0.000000 0.000000 0.000000
# 4 0.000000 0.000000 0.000000 0.035711 0.000000 0.000000
# 5 0.000000 0.000000 0.000000 0.000000 0.061100 0.000000
# 6 0.000000 0.000000 0.000000 0.000000 0.000000 0.040503
#
#
# Mechanical properties :
#
#
# Convention : Reuss Voigt Hill
#
# Bulk Modulus (GPa) = 33.30040 40.27872 36.78956
# Shear Modulus (GPa) = 21.01582 22.62851 21.82217
#
# Velocity S-wave (km/s) = 3.62743 3.76404 3.69637
# Velocity P-wave (km/s) = 6.19630 6.64151 6.42276
#
# Compressibility (1/GPa) = 0.03002967
#
# Stress axis : x y z
#
# Youngs Moduli (GPa) = 38.21663 71.12030 49.79199
#
# Poissons Ratio (x) = 0.33505 0.16093
# Poissons Ratio (y) = 0.18004 0.35837
# Poissons Ratio (z) = 0.12352 0.51188
#
# Static dielectric constant tensor:
#      x y z
#    x 1.516010 0.000000 0.000000 
#    y 0.000000 1.532650 0.000000 
#    z 0.000000 0.000000 1.534210 
# 
# From -- ./inp_files/24797.got.cif
#   From: 2010.05.17/outbox.cif.g08.bks.cpg/sg62_13_cif.got.tgz:24797.got - 2010.06.03 15:25:27.
