data_PCOD9464532
_publ_section_title
;
Structure prediction by ZEFSAII (Michael W. Deem and Ramdas Pophale) SiO2 
 PCOD9464532
Probable space group: P N M A
;
_chemical_formula_sum "Si O2"
_cell_formula_units_Z 64
_cell_length_a 15.301579
_cell_length_b 7.907792
_cell_length_c 25.076561
_cell_angle_alpha 90.000000
_cell_angle_beta 90.000000
_cell_angle_gamma 90.000000
_cell_volume 3034.306612
_symmetry_space_group_name_H-M "P N M A"
_symmetry_group_IT_number 62
_symmetry_cell_setting 'orthorhombic'
loop_
_space_group_symop_operation_xyz
x,y,z
1/2-x,-y,1/2+z
1/2+x,1/2-y,1/2-z
-x,1/2+y,-z
-x,-y,-z
1/2+x,y,1/2-z
1/2-x,1/2+y,1/2+z
x,1/2-y,z
loop_
_atom_site_type_symbol
_atom_site_label
_atom_site_fract_x
_atom_site_fract_y
_atom_site_fract_z
Si Si1 0.053903 0.446613 0.136890
Si Si2 0.137226 0.945351 0.243462
Si Si3 0.595519 0.547790 0.478076
Si Si4 0.999311 0.041591 0.668017
Si Si5 0.171240 0.445526 0.726254
Si Si6 0.358748 0.451985 0.342882
Si Si7 0.057243 0.950931 0.449139
Si Si8 0.744078 0.953003 0.558591
O O1 0.063980 0.250000 0.150666
O O2 0.085025 0.548100 0.188172
O O3 0.103430 0.485505 0.082462
O O4 0.950987 0.477132 0.127648
O O5 0.154053 0.750000 0.258718
O O6 0.076458 0.016278 0.290723
O O7 0.232027 0.024745 0.230798
O O8 0.500000 0.500000 0.500000
O O9 0.600198 0.750000 0.477446
O O10 0.672999 0.482635 0.516074
O O11 0.000163 0.250000 0.670077
O O12 0.979064 0.985503 0.607918
O O13 0.094255 0.983163 0.689206
O O14 0.182564 0.250000 0.709277
O O15 0.137534 0.455689 0.786788
O O16 0.349355 0.250000 0.332747
O O17 0.282564 0.513066 0.382143
O O18 0.056194 0.750000 0.445312
O O19 0.157241 0.006503 0.455580
O O20 0.000000 0.000000 0.500000
O O21 0.734272 0.750000 0.560366
#
# Coordination Sequence:
#
# PCOD9464532 Si02
#       8
#     8   8   8   8   8   8   8   8
#     4  11  22  37  56  85 123 159 194 241 299 360
#     4  10  20  36  58  87 117 153 199 241 293 355
#     4  11  22  38  60  87 122 160 199 246 303 364
#     4   9  19  37  59  85 118 152 195 247 293 350
#     4  10  20  35  59  86 115 154 199 243 292 357
#     4  10  20  36  57  85 121 155 194 244 300 353
#     4  11  24  43  65  90 120 159 206 256 304 357
#     4  10  22  41  62  87 120 158 201 252 304 358
#
# _framework density 21.092134000000001
#
# number of rings (size 3 to 8) (size 9 to 14) (size 15 to 20)
#    0.000    1.750    2.500    1.875    0.000    4.500 
#    0.000    5.000    0.000    0.000    0.000    0.000 
#    0.000    0.000    0.000    0.000    0.000    0.000 
#
# Total GULP energy -357379.878107 kJ/mol
# GULP energy per Si atom -5584.060595 kJ/mol
# Density = 2.104413 g / cm^3
# Si number density = 21.092134 Si / 1000 Ang^3
#
#
#
# Elastic Constant Matrix: (Units=GPa)
#
#
# Indices 1 2 3 4 5 6 
#
# 1 144.7881 2.5940 60.4705 0.0000 0.0000 0.0000
# 2 2.5940 20.0625 -6.6353 0.0000 0.0000 0.0000
# 3 60.4705 -6.6353 130.5012 0.0000 0.0000 0.0000
# 4 0.0000 0.0000 0.0000 17.7340 0.0000 0.0000
# 5 0.0000 0.0000 0.0000 0.0000 34.1070 0.0000
# 6 0.0000 0.0000 0.0000 0.0000 0.0000 16.4162
#
#
#
# Elastic Compliance Matrix: (Units=1/GPa)
#
#
# Indices 1 2 3 4 5 6 
#
# 1 0.008685 -0.002496 -0.004151 0.000000 0.000000 0.000000
# 2 -0.002496 0.051414 0.003771 0.000000 0.000000 0.000000
# 3 -0.004151 0.003771 0.009778 0.000000 0.000000 0.000000
# 4 0.000000 0.000000 0.000000 0.056389 0.000000 0.000000
# 5 0.000000 0.000000 0.000000 0.000000 0.029319 0.000000
# 6 0.000000 0.000000 0.000000 0.000000 0.000000 0.060915
#
#
# Mechanical properties :
#
#
# Convention : Reuss Voigt Hill
#
# Bulk Modulus (GPa) = 15.59480 45.35670 30.47575
# Shear Modulus (GPa) = 20.52304 29.57963 25.05134
#
# Velocity S-wave (km/s) = 3.12271 3.74893 3.45006
# Velocity P-wave (km/s) = 4.51790 6.34744 5.50915
#
# Compressibility (1/GPa) = 0.06412393
#
# Stress axis : x y z
#
# Youngs Moduli (GPa) = 115.13867 19.44998 102.26924
#
# Poissons Ratio (x) = 0.04855 0.42456
# Poissons Ratio (y) = 0.28738 -0.38562
# Poissons Ratio (z) = 0.47798 -0.07334
#
# Static dielectric constant tensor:
#      x y z
#    x 1.767650 0.000000 0.000000 
#    y 0.000000 1.804330 0.000000 
#    z 0.000000 0.000000 1.710910 
# 
# From -- ./inp_files/29891.got.cif
#   From: 2010.05.17/outbox.cif.g08.bks.cpg/sg62_15_cif.got.tgz:29891.got - 2010.06.03 15:25:27.
