data_PCOD9464373
_publ_section_title
;
Structure prediction by ZEFSAII (Michael W. Deem and Ramdas Pophale) SiO2 
 PCOD9464373
Probable space group: P N M A
;
_chemical_formula_sum "Si O2"
_cell_formula_units_Z 56
_cell_length_a 19.660032
_cell_length_b 8.716931
_cell_length_c 18.790605
_cell_angle_alpha 90.000000
_cell_angle_beta 90.000000
_cell_angle_gamma 90.000000
_cell_volume 3220.242608
_symmetry_space_group_name_H-M "P N M A"
_symmetry_group_IT_number 62
_symmetry_cell_setting 'orthorhombic'
loop_
_space_group_symop_operation_xyz
x,y,z
1/2-x,-y,1/2+z
1/2+x,1/2-y,1/2-z
-x,1/2+y,-z
-x,-y,-z
1/2+x,y,1/2-z
1/2-x,1/2+y,1/2+z
x,1/2-y,z
loop_
_atom_site_type_symbol
_atom_site_label
_atom_site_fract_x
_atom_site_fract_y
_atom_site_fract_z
Si Si1 0.316536 0.431919 0.747488
Si Si2 0.971377 0.066664 0.780408
Si Si3 0.953976 0.567161 0.936720
Si Si4 0.298547 0.568378 0.357185
Si Si5 0.187289 0.569528 0.012265
Si Si6 0.607923 0.933573 0.767140
Si Si7 0.776951 0.431293 0.374032
O O1 0.309862 0.250000 0.729580
O O2 0.395997 0.468868 0.748771
O O3 0.274758 0.456672 0.819976
O O4 0.278572 0.527366 0.686515
O O5 0.979612 0.250000 0.782036
O O6 0.975048 0.002858 0.860852
O O7 0.031231 0.992018 0.734745
O O8 0.960552 0.750000 0.934522
O O9 0.876617 0.518970 0.953432
O O10 0.000000 0.500000 0.000000
O O11 0.307700 0.750000 0.369356
O O12 0.306372 0.479607 0.430587
O O13 0.353227 0.510717 0.299435
O O14 0.174774 0.750000 0.018805
O O15 0.254019 0.521778 0.056335
O O16 0.610660 0.750000 0.758689
O O17 0.651226 0.973123 0.837672
O O18 0.775890 0.250000 0.388329
#
# Coordination Sequence:
#
# PCOD9464373 Si02
#       7
#     8   8   8   8   8   8   8
#     4   9  19  35  56  79 106 139 180 225 269 323
#     4  11  21  35  55  81 110 143 179 221 270 324
#     4  12  24  37  53  77 111 149 182 219 268 327
#     4  10  20  36  56  79 107 142 181 224 271 322
#     4  12  23  36  54  79 110 143 180 225 273 325
#     4  10  21  36  54  80 111 143 181 224 269 321
#     4  10  20  35  56  79 105 141 184 226 268 321
#
# _framework density 17.389994000000002
#
# number of rings (size 3 to 8) (size 9 to 14) (size 15 to 20)
#    0.000    1.429    1.429    5.143    0.000    2.857 
#    0.000    0.000    0.000    0.857    0.000    0.000 
#    0.000    0.000    0.000    0.000    0.000    0.000 
#
# Total GULP energy -312916.909814 kJ/mol
# GULP energy per Si atom -5587.801961 kJ/mol
# Density = 1.735041 g / cm^3
# Si number density = 17.389994 Si / 1000 Ang^3
#
#
#
# Elastic Constant Matrix: (Units=GPa)
#
#
# Indices 1 2 3 4 5 6 
#
# 1 78.5935 14.0888 -11.6262 0.0000 0.0000 0.0000
# 2 14.0888 43.9247 -2.0182 0.0000 0.0000 0.0000
# 3 -11.6262 -2.0182 8.1139 0.0000 0.0000 0.0000
# 4 0.0000 0.0000 0.0000 27.2386 0.0000 0.0000
# 5 0.0000 0.0000 0.0000 0.0000 23.3524 0.0000
# 6 0.0000 0.0000 0.0000 0.0000 0.0000 23.5601
#
#
#
# Elastic Compliance Matrix: (Units=1/GPa)
#
#
# Indices 1 2 3 4 5 6 
#
# 1 0.016936 -0.004367 0.023180 0.000000 0.000000 0.000000
# 2 -0.004367 0.024156 -0.000249 0.000000 0.000000 0.000000
# 3 0.023180 -0.000249 0.156398 0.000000 0.000000 0.000000
# 4 0.000000 0.000000 0.000000 0.036713 0.000000 0.000000
# 5 0.000000 0.000000 0.000000 0.000000 0.042822 0.000000
# 6 0.000000 0.000000 0.000000 0.000000 0.000000 0.042445
#
#
# Mechanical properties :
#
#
# Convention : Reuss Voigt Hill
#
# Bulk Modulus (GPa) = 4.26226 14.61344 9.43785
# Shear Modulus (GPa) = 13.86787 23.50939 18.68863
#
# Velocity S-wave (km/s) = 2.82700 3.68080 3.28178
# Velocity P-wave (km/s) = 3.62108 5.14645 4.44962
#
# Compressibility (1/GPa) = 0.23461745
#
# Stress axis : x y z
#
# Youngs Moduli (GPa) = 59.04749 41.39838 6.39395
#
# Poissons Ratio (x) = 0.18079 -0.14821
# Poissons Ratio (y) = 0.25786 0.00159
# Poissons Ratio (z) = -1.36873 0.01030
#
# Static dielectric constant tensor:
#      x y z
#    x 1.603260 0.000000 0.000000 
#    y 0.000000 1.581070 0.000000 
#    z 0.000000 0.000000 1.567800 
# 
# From -- ./inp_files/27549.got.cif
#   From: 2010.05.17/outbox.cif.g08.bks.cpg/sg62_14_cif.got.tgz:27549.got - 2010.06.03 15:25:27.
