data_PCOD9464212
_publ_section_title
;
Structure prediction by ZEFSAII (Michael W. Deem and Ramdas Pophale) SiO2 
 PCOD9464212
Probable space group: P N M A
;
_chemical_formula_sum "Si O2"
_cell_formula_units_Z 48
_cell_length_a 9.717168
_cell_length_b 7.842604
_cell_length_c 28.712684
_cell_angle_alpha 90.000000
_cell_angle_beta 90.000000
_cell_angle_gamma 90.000000
_cell_volume 2188.133369
_symmetry_space_group_name_H-M "P N M A"
_symmetry_group_IT_number 62
_symmetry_cell_setting 'orthorhombic'
loop_
_space_group_symop_operation_xyz
x,y,z
1/2-x,-y,1/2+z
1/2+x,1/2-y,1/2-z
-x,1/2+y,-z
-x,-y,-z
1/2+x,y,1/2-z
1/2-x,1/2+y,1/2+z
x,1/2-y,z
loop_
_atom_site_type_symbol
_atom_site_label
_atom_site_fract_x
_atom_site_fract_y
_atom_site_fract_z
Si Si1 0.587287 0.942318 0.544626
Si Si2 0.980701 0.957813 0.303666
Si Si3 0.798318 0.957506 0.386432
Si Si4 0.210256 0.458987 0.781513
Si Si5 0.003846 0.945310 0.142187
Si Si6 0.343495 0.447984 0.007110
O O1 0.548271 0.750000 0.556649
O O2 0.500000 0.000000 0.500000
O O3 0.556424 0.051415 0.590100
O O4 0.743417 0.952522 0.527501
O O5 0.984132 0.750000 0.303312
O O6 0.927805 0.008989 0.354787
O O7 0.864524 0.008465 0.266317
O O8 0.133009 0.017008 0.289321
O O9 0.794058 0.750000 0.388297
O O10 0.657106 0.018717 0.362128
O O11 0.804431 0.019256 0.439252
O O12 0.215778 0.250000 0.782315
O O13 0.108312 0.519095 0.822670
O O14 0.023893 0.750000 0.158102
O O15 0.324418 0.250000 0.996481
O O16 0.500000 0.500000 0.000000
#
# Coordination Sequence:
#
# PCOD9464212 Si02
#       6
#     8   8   8   8   8   8
#     4  12  24  41  63  90 122 162 207 252 302 362
#     4   9  17  30  51  81 117 155 198 248 299 354
#     4  10  20  35  56  84 119 158 201 249 301 357
#     4   9  17  30  51  82 117 155 198 247 299 353
#     4  10  20  34  56  85 119 158 201 249 300 356
#     4  12  26  43  63  88 122 162 205 254 307 365
#
# _framework density 21.936506000000001
#
# number of rings (size 3 to 8) (size 9 to 14) (size 15 to 20)
#    0.000    1.667    1.667    4.000    2.333    4.000 
#    0.000    0.000    0.000    1.000    0.000    0.000 
#    0.000    0.000    0.000    0.000    0.000    0.000 
#
# Total GULP energy -268268.547262 kJ/mol
# GULP energy per Si atom -5588.928068 kJ/mol
# Density = 2.188658 g / cm^3
# Si number density = 21.936506 Si / 1000 Ang^3
#
#
#
# Elastic Constant Matrix: (Units=GPa)
#
#
# Indices 1 2 3 4 5 6 
#
# 1 127.5268 -1.3569 9.5799 0.0000 0.0000 0.0000
# 2 -1.3569 47.6171 -8.1667 0.0000 0.0000 0.0000
# 3 9.5799 -8.1667 58.3041 0.0000 0.0000 0.0000
# 4 0.0000 0.0000 0.0000 10.4658 0.0000 0.0000
# 5 0.0000 0.0000 0.0000 0.0000 43.7088 0.0000
# 6 0.0000 0.0000 0.0000 0.0000 0.0000 10.9307
#
#
#
# Elastic Compliance Matrix: (Units=1/GPa)
#
#
# Indices 1 2 3 4 5 6 
#
# 1 0.007939 0.000003 -0.001304 0.000000 0.000000 0.000000
# 2 0.000003 0.021518 0.003014 0.000000 0.000000 0.000000
# 3 -0.001304 0.003014 0.017788 0.000000 0.000000 0.000000
# 4 0.000000 0.000000 0.000000 0.095549 0.000000 0.000000
# 5 0.000000 0.000000 0.000000 0.000000 0.022879 0.000000
# 6 0.000000 0.000000 0.000000 0.000000 0.000000 0.091486
#
#
# Mechanical properties :
#
#
# Convention : Reuss Voigt Hill
#
# Bulk Modulus (GPa) = 19.73586 25.95114 22.84350
# Shear Modulus (GPa) = 18.47577 28.58049 23.52813
#
# Velocity S-wave (km/s) = 2.90528 3.61345 3.27854
# Velocity P-wave (km/s) = 4.50228 5.40973 4.97673
#
# Compressibility (1/GPa) = 0.05066920
#
# Stress axis : x y z
#
# Youngs Moduli (GPa) = 125.95271 46.47317 56.21809
#
# Poissons Ratio (x) = -0.00012 0.07332
# Poissons Ratio (y) = -0.00032 -0.16942
# Poissons Ratio (z) = 0.16426 -0.14005
#
# Static dielectric constant tensor:
#      x y z
#    x 1.802110 0.000000 0.000000 
#    y 0.000000 1.948750 0.000000 
#    z 0.000000 0.000000 1.778700 
# 
# From -- ./inp_files/31971.got.cif
#   From: 2010.05.17/outbox.cif.g08.bks.cpg/sg62_16_cif.got.tgz:31971.got - 2010.06.03 15:25:27.
