data_PCOD9464970
_publ_section_title
;
Structure prediction by ZEFSAII (Michael W. Deem and Ramdas Pophale) SiO2 
 PCOD9464970
Probable space group: P N M A
;
_chemical_formula_sum "Si O2"
_cell_formula_units_Z 56
_cell_length_a 21.815059
_cell_length_b 8.382157
_cell_length_c 15.040516
_cell_angle_alpha 90.000000
_cell_angle_beta 90.000000
_cell_angle_gamma 90.000000
_cell_volume 2750.267387
_symmetry_space_group_name_H-M "P N M A"
_symmetry_group_IT_number 62
_symmetry_cell_setting 'orthorhombic'
loop_
_space_group_symop_operation_xyz
x,y,z
1/2-x,-y,1/2+z
1/2+x,1/2-y,1/2-z
-x,1/2+y,-z
-x,-y,-z
1/2+x,y,1/2-z
1/2-x,1/2+y,1/2+z
x,1/2-y,z
loop_
_atom_site_type_symbol
_atom_site_label
_atom_site_fract_x
_atom_site_fract_y
_atom_site_fract_z
Si Si1 0.379757 0.558871 0.604191
Si Si2 0.675667 0.057101 0.072757
Si Si3 0.485438 0.059709 0.722712
Si Si4 0.535442 0.440607 0.086465
Si Si5 0.759819 0.942847 0.390960
Si Si6 0.215561 0.442515 0.806061
Si Si7 0.906991 0.944722 0.092465
O O1 0.381108 0.750000 0.607732
O O2 0.419754 0.492545 0.684732
O O3 0.309788 0.502749 0.605516
O O4 0.408864 0.504148 0.510066
O O5 0.675343 0.250000 0.073395
O O6 0.606077 0.001237 0.085141
O O7 0.721897 0.000480 0.148936
O O8 0.702994 0.003041 0.977695
O O9 0.488617 0.250000 0.724938
O O10 0.536886 0.000322 0.653392
O O11 0.494748 0.996652 0.821781
O O12 0.536523 0.250000 0.085006
O O13 0.500000 0.500000 0.000000
O O14 0.759142 0.750000 0.392402
O O15 0.788109 0.993899 0.296575
O O16 0.215537 0.250000 0.807638
O O17 0.157219 0.496600 0.863576
O O18 0.907461 0.750000 0.092426
#
# Coordination Sequence:
#
# PCOD9464970 Si02
#       7
#     8   8   8   8   8   8   8
#     4  11  21  38  61  89 124 157 199 251 305 363
#     4  10  22  40  61  87 120 155 193 246 301 356
#     4  11  23  40  63  88 121 164 207 250 305 365
#     4  11  25  44  65  91 124 162 207 255 307 364
#     4  10  21  36  60  88 116 153 197 241 300 366
#     4  10  20  37  61  87 117 155 200 245 297 362
#     4   9  20  37  60  88 118 157 201 252 306 357
#
# _framework density 20.361656
#
# number of rings (size 3 to 8) (size 9 to 14) (size 15 to 20)
#    0.000    1.714    1.429    2.571    2.000    4.000 
#    0.000    3.571    0.000    0.000    0.000    0.000 
#    0.000    0.000    0.000    0.000    0.000    0.000 
#
# Total GULP energy -313048.233631 kJ/mol
# GULP energy per Si atom -5590.147029 kJ/mol
# Density = 2.031531 g / cm^3
# Si number density = 20.361656 Si / 1000 Ang^3
#
#
#
# Elastic Constant Matrix: (Units=GPa)
#
#
# Indices 1 2 3 4 5 6 
#
# 1 44.3123 -0.8868 -7.3468 0.0000 0.0000 0.0000
# 2 -0.8868 15.7186 10.7575 0.0000 0.0000 0.0000
# 3 -7.3468 10.7575 109.2069 0.0000 0.0000 0.0000
# 4 0.0000 0.0000 0.0000 28.7640 0.0000 0.0000
# 5 0.0000 0.0000 0.0000 0.0000 31.1410 0.0000
# 6 0.0000 0.0000 0.0000 0.0000 0.0000 21.3638
#
#
#
# Elastic Compliance Matrix: (Units=1/GPa)
#
#
# Indices 1 2 3 4 5 6 
#
# 1 0.022823 0.000254 0.001510 0.000000 0.000000 0.000000
# 2 0.000254 0.068221 -0.006703 0.000000 0.000000 0.000000
# 3 0.001510 -0.006703 0.009919 0.000000 0.000000 0.000000
# 4 0.000000 0.000000 0.000000 0.034766 0.000000 0.000000
# 5 0.000000 0.000000 0.000000 0.000000 0.032112 0.000000
# 6 0.000000 0.000000 0.000000 0.000000 0.000000 0.046808
#
#
# Mechanical properties :
#
#
# Convention : Reuss Voigt Hill
#
# Bulk Modulus (GPa) = 10.97880 19.36507 15.17193
# Shear Modulus (GPa) = 19.61654 27.36803 23.49229
#
# Velocity S-wave (km/s) = 3.10725 3.67017 3.40038
# Velocity P-wave (km/s) = 4.27515 5.24322 4.78374
#
# Compressibility (1/GPa) = 0.09108466
#
# Stress axis : x y z
#
# Youngs Moduli (GPa) = 43.81626 14.65830 100.81835
#
# Poissons Ratio (x) = -0.00372 -0.15227
# Poissons Ratio (y) = -0.01113 0.67579
# Poissons Ratio (z) = -0.06618 0.09826
#
# Static dielectric constant tensor:
#      x y z
#    x 1.697860 0.000000 0.000000 
#    y 0.000000 1.702230 0.000000 
#    z 0.000000 0.000000 1.705680 
# 
# From -- ./inp_files/20261.got.cif
#   From: 2010.05.17/outbox.cif.g08.bks.cpg/sg62_11_cif.got.tgz:20261.got - 2010.06.03 15:25:27.
