data_PCOD9464555
_publ_section_title
;
Structure prediction by ZEFSAII (Michael W. Deem and Ramdas Pophale) SiO2 
 PCOD9464555
Probable space group: P N M A
;
_chemical_formula_sum "Si O2"
_cell_formula_units_Z 48
_cell_length_a 14.862606
_cell_length_b 21.817237
_cell_length_c 7.824209
_cell_angle_alpha 90.000000
_cell_angle_beta 90.000000
_cell_angle_gamma 90.000000
_cell_volume 2537.085815
_symmetry_space_group_name_H-M "P N M A"
_symmetry_group_IT_number 62
_symmetry_cell_setting 'orthorhombic'
loop_
_space_group_symop_operation_xyz
x,y,z
1/2-x,-y,1/2+z
1/2+x,1/2-y,1/2-z
-x,1/2+y,-z
-x,-y,-z
1/2+x,y,1/2-z
1/2-x,1/2+y,1/2+z
x,1/2-y,z
loop_
_atom_site_type_symbol
_atom_site_label
_atom_site_fract_x
_atom_site_fract_y
_atom_site_fract_z
Si Si1 0.347721 0.983551 0.394897
Si Si2 0.216277 0.320968 0.203622
Si Si3 0.837197 0.121130 0.993427
Si Si4 0.196693 0.880331 0.388046
Si Si5 0.033641 0.388021 0.095794
Si Si6 0.062063 0.546834 0.593421
O O1 0.262715 0.939128 0.399008
O O2 0.427620 0.940358 0.468001
O O3 0.338578 0.046402 0.502170
O O4 0.365206 0.008867 0.204391
O O5 0.211925 0.250000 0.250139
O O6 0.271081 0.356495 0.354106
O O7 0.117135 0.346539 0.156395
O O8 0.270114 0.331741 0.027193
O O9 0.805949 0.141467 0.806339
O O10 0.941525 0.141240 0.021576
O O11 0.103217 0.906184 0.458958
O O12 0.996830 0.419717 0.265302
O O13 0.000000 0.500000 0.500000
#
# Coordination Sequence:
#
# PCOD9464555 Si02
#       6
#     8   8   8   8   8   8
#     4  10  20  35  59  99 135 159 194 257 320 386
#     4  11  26  46  63  87 125 172 224 263 303 368
#     4  11  22  41  66  94 128 166 207 260 323 378
#     4  11  22  38  65  94 128 165 205 257 318 382
#     4  10  22  40  61  95 132 167 206 260 321 375
#     4  11  20  32  59  98 130 161 199 251 320 391
#
# _framework density 18.919343999999999
#
# number of rings (size 3 to 8) (size 9 to 14) (size 15 to 20)
#    0.000    1.333    3.333    5.000    7.000    1.333 
#    0.000    0.000    0.000    0.000    0.000    0.000 
#    0.000    0.000    0.000    0.000    0.000    0.000 
#
# Total GULP energy -267734.047497 kJ/mol
# GULP energy per Si atom -5577.792656 kJ/mol
# Density = 1.887628 g / cm^3
# Si number density = 18.919344 Si / 1000 Ang^3
#
#
#
# Elastic Constant Matrix: (Units=GPa)
#
#
# Indices 1 2 3 4 5 6 
#
# 1 93.2082 26.2718 31.2732 0.0000 0.0000 0.0000
# 2 26.2718 59.7104 7.2806 0.0000 0.0000 0.0000
# 3 31.2732 7.2806 118.4080 0.0000 0.0000 0.0000
# 4 0.0000 0.0000 0.0000 13.7680 0.0000 0.0000
# 5 0.0000 0.0000 0.0000 0.0000 16.1367 0.0000
# 6 0.0000 0.0000 0.0000 0.0000 0.0000 10.1944
#
#
#
# Elastic Compliance Matrix: (Units=1/GPa)
#
#
# Indices 1 2 3 4 5 6 
#
# 1 0.013343 -0.005482 -0.003187 0.000000 0.000000 0.000000
# 2 -0.005482 0.019126 0.000272 0.000000 0.000000 0.000000
# 3 -0.003187 0.000272 0.009270 0.000000 0.000000 0.000000
# 4 0.000000 0.000000 0.000000 0.072632 0.000000 0.000000
# 5 0.000000 0.000000 0.000000 0.000000 0.061971 0.000000
# 6 0.000000 0.000000 0.000000 0.000000 0.000000 0.098093
#
#
# Mechanical properties :
#
#
# Convention : Reuss Voigt Hill
#
# Bulk Modulus (GPa) = 40.08768 44.55309 42.32039
# Shear Modulus (GPa) = 16.69195 21.78655 19.23925
#
# Velocity S-wave (km/s) = 2.97352 3.39713 3.19236
# Velocity P-wave (km/s) = 5.74664 6.24399 6.00047
#
# Compressibility (1/GPa) = 0.02494532
#
# Stress axis : x y z
#
# Youngs Moduli (GPa) = 74.94446 52.28358 107.87019
#
# Poissons Ratio (x) = 0.28663 0.34379
# Poissons Ratio (y) = 0.41086 -0.02933
# Poissons Ratio (z) = 0.23885 -0.01422
#
# Static dielectric constant tensor:
#      x y z
#    x 1.737870 0.000000 0.000000 
#    y 0.000000 1.650040 0.000000 
#    z 0.000000 0.000000 1.680170 
# 
# From -- ./inp_files/6610.got.cif
#   From: 2010.05.17/outbox.cif.g08.bks.cpg/sg62_4_cif.got.tgz:6610.got - 2010.06.03 15:25:27.
