data_PCOD9464396
_publ_section_title
;
Structure prediction by ZEFSAII (Michael W. Deem and Ramdas Pophale) SiO2 
 PCOD9464396
Probable space group: P N M A
;
_chemical_formula_sum "Si O2"
_cell_formula_units_Z 64
_cell_length_a 12.660031
_cell_length_b 9.993995
_cell_length_c 26.011059
_cell_angle_alpha 90.000000
_cell_angle_beta 90.000000
_cell_angle_gamma 90.000000
_cell_volume 3291.030681
_symmetry_space_group_name_H-M "P N M A"
_symmetry_group_IT_number 62
_symmetry_cell_setting 'orthorhombic'
loop_
_space_group_symop_operation_xyz
x,y,z
1/2-x,-y,1/2+z
1/2+x,1/2-y,1/2-z
-x,1/2+y,-z
-x,-y,-z
1/2+x,y,1/2-z
1/2-x,1/2+y,1/2+z
x,1/2-y,z
loop_
_atom_site_type_symbol
_atom_site_label
_atom_site_fract_x
_atom_site_fract_y
_atom_site_fract_z
Si Si1 0.510885 0.903131 0.048366
Si Si2 0.241404 0.394661 0.949764
Si Si3 0.711981 0.090399 0.315872
Si Si4 0.876071 0.093595 0.727444
Si Si5 0.416557 0.400522 0.475101
Si Si6 0.913426 0.591208 0.340841
Si Si7 0.340110 0.605241 0.334298
Si Si8 0.001534 0.103163 0.141014
O O1 0.483282 0.750000 0.034176
O O2 0.635237 0.904985 0.061476
O O3 0.447000 0.937598 0.100044
O O4 0.500000 0.000000 0.000000
O O5 0.221902 0.250000 0.976119
O O6 0.195085 0.522836 0.978522
O O7 0.182477 0.389602 0.895143
O O8 0.731588 0.250000 0.308240
O O9 0.626227 0.074115 0.361808
O O10 0.647356 0.018035 0.270066
O O11 0.818055 0.005561 0.324594
O O12 0.876532 0.250000 0.745907
O O13 0.772642 0.080483 0.691233
O O14 0.983215 0.072618 0.695121
O O15 0.500000 0.500000 0.500000
O O16 0.415411 0.250000 0.496496
O O17 0.451963 0.391186 0.415638
O O18 0.884663 0.750000 0.337348
O O19 0.378071 0.750000 0.315987
O O20 0.431272 0.498612 0.326440
O O21 0.992211 0.250000 0.164922
#
# Coordination Sequence:
#
# PCOD9464396 Si02
#       8
#     8   8   8   8   8   8   8   8
#     4  10  21  38  61  89 122 161 204 252 306 364
#     4   9  17  34  56  80 110 146 189 241 296 347
#     4  11  25  41  58  86 124 162 198 243 304 365
#     4  10  21  39  63  88 114 150 198 248 296 352
#     4  10  20  35  56  82 112 150 194 242 294 350
#     4  10  22  43  65  88 123 163 208 256 303 363
#     4   9  17  33  60  85 105 139 188 239 288 342
#     4   9  21  39  55  78 117 153 185 234 294 350
#
# _framework density 19.446795999999999
#
# number of rings (size 3 to 8) (size 9 to 14) (size 15 to 20)
#    0.000    2.250    1.250    0.750    1.750    4.500 
#    0.000    3.750    0.000    0.000    0.000    0.000 
#    0.000    0.000    0.000    0.000    0.000    0.000 
#
# Total GULP energy -356658.515881 kJ/mol
# GULP energy per Si atom -5572.789311 kJ/mol
# Density = 1.940253 g / cm^3
# Si number density = 19.446796 Si / 1000 Ang^3
#
#
#
# Elastic Constant Matrix: (Units=GPa)
#
#
# Indices 1 2 3 4 5 6 
#
# 1 119.5175 84.3132 20.5040 0.0000 0.0000 0.0000
# 2 84.3132 139.2312 45.0575 0.0000 0.0000 0.0000
# 3 20.5040 45.0575 45.1453 0.0000 0.0000 0.0000
# 4 0.0000 0.0000 0.0000 13.0327 0.0000 0.0000
# 5 0.0000 0.0000 0.0000 0.0000 24.4052 0.0000
# 6 0.0000 0.0000 0.0000 0.0000 0.0000 34.5482
#
#
#
# Elastic Compliance Matrix: (Units=1/GPa)
#
#
# Indices 1 2 3 4 5 6 
#
# 1 0.014935 -0.010117 0.003314 0.000000 0.000000 0.000000
# 2 -0.010117 0.017461 -0.012833 0.000000 0.000000 0.000000
# 3 0.003314 -0.012833 0.033453 0.000000 0.000000 0.000000
# 4 0.000000 0.000000 0.000000 0.076730 0.000000 0.000000
# 5 0.000000 0.000000 0.000000 0.000000 0.040975 0.000000
# 6 0.000000 0.000000 0.000000 0.000000 0.000000 0.028945
#
#
# Mechanical properties :
#
#
# Convention : Reuss Voigt Hill
#
# Bulk Modulus (GPa) = 37.62398 67.07151 52.34775
# Shear Modulus (GPa) = 19.18422 24.66516 21.92469
#
# Velocity S-wave (km/s) = 3.14426 3.56524 3.36135
# Velocity P-wave (km/s) = 5.70710 7.17722 6.48396
#
# Compressibility (1/GPa) = 0.02657879
#
# Stress axis : x y z
#
# Youngs Moduli (GPa) = 66.95608 57.26936 29.89227
#
# Poissons Ratio (x) = 0.57937 -0.09905
# Poissons Ratio (y) = 0.67736 0.38360
# Poissons Ratio (z) = -0.22187 0.73492
#
# Static dielectric constant tensor:
#      x y z
#    x 1.680300 0.000000 0.000000 
#    y 0.000000 1.691480 0.000000 
#    z 0.000000 0.000000 1.716470 
# 
# From -- ./inp_files/32553.got.cif
#   From: 2010.05.17/outbox.cif.g08.bks.cpg/sg62_17_cif.got.tgz:32553.got - 2010.06.03 15:25:27.
