data_PCOD9464088
_publ_section_title
;
Structure prediction by ZEFSAII (Michael W. Deem and Ramdas Pophale) SiO2 
 PCOD9464088
Probable space group: P N M A
;
_chemical_formula_sum "Si O2"
_cell_formula_units_Z 48
_cell_length_a 13.721595
_cell_length_b 19.484251
_cell_length_c 7.339361
_cell_angle_alpha 90.000000
_cell_angle_beta 90.000000
_cell_angle_gamma 90.000000
_cell_volume 1962.214868
_symmetry_space_group_name_H-M "P N M A"
_symmetry_group_IT_number 62
_symmetry_cell_setting 'orthorhombic'
loop_
_space_group_symop_operation_xyz
x,y,z
1/2-x,-y,1/2+z
1/2+x,1/2-y,1/2-z
-x,1/2+y,-z
-x,-y,-z
1/2+x,y,1/2-z
1/2-x,1/2+y,1/2+z
x,1/2-y,z
loop_
_atom_site_type_symbol
_atom_site_label
_atom_site_fract_x
_atom_site_fract_y
_atom_site_fract_z
Si Si1 0.719938 0.327268 0.167009
Si Si2 0.361506 0.015652 0.118789
Si Si3 0.040453 0.409304 0.342717
Si Si4 0.789182 0.827914 0.102139
Si Si5 0.957505 0.580463 0.088761
Si Si6 0.185513 0.572758 0.118387
O O1 0.747245 0.250000 0.114507
O O2 0.606374 0.342829 0.119082
O O3 0.728135 0.333163 0.385321
O O4 0.782964 0.383915 0.061041
O O5 0.400220 0.978704 0.303192
O O6 0.246464 0.998987 0.115868
O O7 0.425902 0.084889 0.109133
O O8 0.405349 0.968672 0.956630
O O9 0.049594 0.422087 0.128221
O O10 0.770042 0.750000 0.158256
O O11 0.727102 0.882732 0.213844
O O12 0.901308 0.849776 0.140376
O O13 0.070224 0.574178 0.135960
#
# Coordination Sequence:
#
# PCOD9464088 Si02
#       6
#     8   8   8   8   8   8
#     4   9  18  34  56  77 103 141 182 227 280 328
#     4   9  19  37  54  79 115 146 182 229 282 332
#     4   9  18  36  57  76 108 144 182 230 278 331
#     4   9  19  35  54  77 110 147 181 230 281 327
#     4  10  20  34  56  82 107 146 192 225 276 332
#     4  10  20  34  53  83 112 145 187 230 277 330
#
# _framework density 24.462154000000002
#
# number of rings (size 3 to 8) (size 9 to 14) (size 15 to 20)
#    0.000    2.667    0.000    1.000    0.000    2.667 
#    9.000    0.000    0.000    8.000    0.000    0.000 
#    0.000    0.000    0.000    0.000    0.000    0.000 
#
# Total GULP energy -268473.502219 kJ/mol
# GULP energy per Si atom -5593.197963 kJ/mol
# Density = 2.440648 g / cm^3
# Si number density = 24.462154 Si / 1000 Ang^3
#
#
#
# Elastic Constant Matrix: (Units=GPa)
#
#
# Indices 1 2 3 4 5 6 
#
# 1 186.7305 29.3232 15.5387 0.0000 0.0000 0.0000
# 2 29.3232 67.1671 -8.5734 0.0000 0.0000 0.0000
# 3 15.5387 -8.5734 85.9778 0.0000 0.0000 0.0000
# 4 0.0000 0.0000 0.0000 29.0853 0.0000 0.0000
# 5 0.0000 0.0000 0.0000 0.0000 38.2615 0.0000
# 6 0.0000 0.0000 0.0000 0.0000 0.0000 22.1331
#
#
#
# Elastic Compliance Matrix: (Units=1/GPa)
#
#
# Indices 1 2 3 4 5 6 
#
# 1 0.005898 -0.002746 -0.001340 0.000000 0.000000 0.000000
# 2 -0.002746 0.016359 0.002127 0.000000 0.000000 0.000000
# 3 -0.001340 0.002127 0.012085 0.000000 0.000000 0.000000
# 4 0.000000 0.000000 0.000000 0.034382 0.000000 0.000000
# 5 0.000000 0.000000 0.000000 0.000000 0.026136 0.000000
# 6 0.000000 0.000000 0.000000 0.000000 0.000000 0.045181
#
#
# Mechanical properties :
#
#
# Convention : Reuss Voigt Hill
#
# Bulk Modulus (GPa) = 32.86723 45.82803 39.34763
# Shear Modulus (GPa) = 32.44670 38.13509 35.29090
#
# Velocity S-wave (km/s) = 3.64593 3.95263 3.80237
# Velocity P-wave (km/s) = 5.58470 6.29333 5.94957
#
# Compressibility (1/GPa) = 0.03042544
#
# Stress axis : x y z
#
# Youngs Moduli (GPa) = 169.54902 61.12997 82.74589
#
# Poissons Ratio (x) = 0.16786 0.11086
# Poissons Ratio (y) = 0.46557 -0.17604
# Poissons Ratio (z) = 0.22715 -0.13005
#
# Static dielectric constant tensor:
#      x y z
#    x 1.949700 0.000000 0.000000 
#    y 0.000000 1.952570 0.000000 
#    z 0.000000 0.000000 2.008680 
# 
# From -- ./inp_files/5318.got.cif
#   From: 2010.05.17/outbox.cif.g08.bks.cpg/sg62_3_cif.got.tgz:5318.got - 2010.06.03 15:25:27.
