data_PCOD9464119
_publ_section_title
;
Structure prediction by ZEFSAII (Michael W. Deem and Ramdas Pophale) SiO2 
 PCOD9464119
Probable space group: P N M A
;
_chemical_formula_sum "Si O2"
_cell_formula_units_Z 40
_cell_length_a 9.299175
_cell_length_b 8.743158
_cell_length_c 26.922151
_cell_angle_alpha 90.000000
_cell_angle_beta 90.000000
_cell_angle_gamma 90.000000
_cell_volume 2188.882773
_symmetry_space_group_name_H-M "P N M A"
_symmetry_group_IT_number 62
_symmetry_cell_setting 'orthorhombic'
loop_
_space_group_symop_operation_xyz
x,y,z
1/2-x,-y,1/2+z
1/2+x,1/2-y,1/2-z
-x,1/2+y,-z
-x,-y,-z
1/2+x,y,1/2-z
1/2-x,1/2+y,1/2+z
x,1/2-y,z
loop_
_atom_site_type_symbol
_atom_site_label
_atom_site_fract_x
_atom_site_fract_y
_atom_site_fract_z
Si Si1 0.175266 0.064773 0.298692
Si Si2 0.838595 0.066401 0.003383
Si Si3 0.661953 0.433170 0.606411
Si Si4 0.323805 0.066286 0.605957
Si Si5 0.842451 0.434281 0.300613
O O1 0.181756 0.250000 0.301204
O O2 0.255734 0.015495 0.248357
O O3 0.008570 0.018090 0.297370
O O4 0.253372 0.997219 0.346675
O O5 0.844236 0.250000 0.006599
O O6 0.777987 0.998781 0.054365
O O7 0.771797 0.024758 0.949845
O O8 0.000000 0.000000 0.000000
O O9 0.668248 0.250000 0.604895
O O10 0.492691 0.477900 0.610527
O O11 0.317641 0.250000 0.609862
O O12 0.232377 0.994198 0.649744
O O13 0.838760 0.250000 0.301443
#
# Coordination Sequence:
#
# PCOD9464119 Si02
#       5
#     8   8   8   8   8
#     4  10  21  37  55  78 105 136 175 219 265 316
#     4   9  17  31  52  79 109 141 177 218 260 309
#     4  10  20  34  54  81 108 140 179 218 262 312
#     4   9  19  34  53  79 109 138 173 214 259 308
#     4  10  21  36  56  79 104 137 177 217 265 319
#
# _framework density 18.274163000000001
#
# number of rings (size 3 to 8) (size 9 to 14) (size 15 to 20)
#    0.000    2.400    0.000    3.600    0.000    8.000 
#    0.000    1.000    0.000    0.000    0.000    0.000 
#    0.000    0.000    0.000    0.000    0.000    0.000 
#
# Total GULP energy -223129.073630 kJ/mol
# GULP energy per Si atom -5578.226841 kJ/mol
# Density = 1.823257 g / cm^3
# Si number density = 18.274163 Si / 1000 Ang^3
#
#
#
# Elastic Constant Matrix: (Units=GPa)
#
#
# Indices 1 2 3 4 5 6 
#
# 1 120.5408 39.2220 120.0606 0.0000 0.0000 0.0000
# 2 39.2220 29.0427 57.5243 0.0000 0.0000 0.0000
# 3 120.0606 57.5243 263.0499 0.0000 0.0000 0.0000
# 4 0.0000 0.0000 0.0000 38.6380 0.0000 0.0000
# 5 0.0000 0.0000 0.0000 0.0000 32.6738 0.0000
# 6 0.0000 0.0000 0.0000 0.0000 0.0000 23.7831
#
#
#
# Elastic Compliance Matrix: (Units=1/GPa)
#
#
# Indices 1 2 3 4 5 6 
#
# 1 0.018008 -0.014184 -0.005118 0.000000 0.000000 0.000000
# 2 -0.014184 0.071913 -0.009252 0.000000 0.000000 0.000000
# 3 -0.005118 -0.009252 0.008161 0.000000 0.000000 0.000000
# 4 0.000000 0.000000 0.000000 0.025881 0.000000 0.000000
# 5 0.000000 0.000000 0.000000 0.000000 0.030606 0.000000
# 6 0.000000 0.000000 0.000000 0.000000 0.000000 0.042047
#
#
# Mechanical properties :
#
#
# Convention : Reuss Voigt Hill
#
# Bulk Modulus (GPa) = 24.40536 94.02745 59.21640
# Shear Modulus (GPa) = 18.69986 32.07406 25.38696
#
# Velocity S-wave (km/s) = 3.20237 4.19401 3.73128
# Velocity P-wave (km/s) = 5.20170 8.66132 7.14409
#
# Compressibility (1/GPa) = 0.04097461
#
# Stress axis : x y z
#
# Youngs Moduli (GPa) = 55.52987 13.90563 122.53961
#
# Poissons Ratio (x) = 0.19724 0.62710
# Poissons Ratio (y) = 0.78763 1.13378
# Poissons Ratio (z) = 0.28418 0.12866
#
# Static dielectric constant tensor:
#      x y z
#    x 1.643840 0.000000 0.000000 
#    y 0.000000 1.619310 0.000000 
#    z 0.000000 0.000000 1.637740 
# 
# From -- ./inp_files/28561.got.cif
#   From: 2010.05.17/outbox.cif.g08.bks.cpg/sg62_15_cif.got.tgz:28561.got - 2010.06.03 15:25:27.
