data_PCOD9464800
_publ_section_title
;
Structure prediction by ZEFSAII (Michael W. Deem and Ramdas Pophale) SiO2 
 PCOD9464800
Probable space group: P N M A
;
_chemical_formula_sum "Si O2"
_cell_formula_units_Z 56
_cell_length_a 12.354853
_cell_length_b 20.857758
_cell_length_c 10.404052
_cell_angle_alpha 90.000000
_cell_angle_beta 90.000000
_cell_angle_gamma 90.000000
_cell_volume 2681.067332
_symmetry_space_group_name_H-M "P N M A"
_symmetry_group_IT_number 62
_symmetry_cell_setting 'orthorhombic'
loop_
_space_group_symop_operation_xyz
x,y,z
1/2-x,-y,1/2+z
1/2+x,1/2-y,1/2-z
-x,1/2+y,-z
-x,-y,-z
1/2+x,y,1/2-z
1/2-x,1/2+y,1/2+z
x,1/2-y,z
loop_
_atom_site_type_symbol
_atom_site_label
_atom_site_fract_x
_atom_site_fract_y
_atom_site_fract_z
Si Si1 0.637917 0.129981 0.385684
Si Si2 0.921384 0.176177 0.176828
Si Si3 0.656440 0.453586 0.992210
Si Si4 0.606549 0.514435 0.415004
Si Si5 0.321571 0.819835 0.890742
Si Si6 0.361659 0.172658 0.028282
Si Si7 0.457330 0.433232 0.847425
O O1 0.511142 0.141343 0.408564
O O2 0.655011 0.173000 0.259658
O O3 0.734721 0.151669 0.478008
O O4 0.645848 0.054586 0.358754
O O5 0.952990 0.250000 0.189828
O O6 0.807659 0.175744 0.104317
O O7 0.902179 0.153358 0.325672
O O8 0.784870 0.461450 0.983845
O O9 0.584252 0.451969 0.862709
O O10 0.632130 0.383450 0.048183
O O11 0.607675 0.510835 0.076783
O O12 0.500000 0.500000 0.500000
O O13 0.576008 0.561727 0.299824
O O14 0.358469 0.750000 0.938257
O O15 0.370057 0.250000 0.017843
O O16 0.423845 0.132406 0.919345
#
# Coordination Sequence:
#
# PCOD9464800 Si02
#       7
#     8   8   8   8   8   8   8
#     4  11  19  34  61  93 131 162 212 271 325 380
#     4   9  18  31  55  93 131 166 210 270 336 387
#     4  11  24  43  65  95 134 169 216 268 329 394
#     4  12  27  42  68  96 134 175 223 275 323 390
#     4  10  20  36  60  91 126 166 214 273 328 381
#     4  10  21  38  62  94 129 173 222 264 327 402
#     4  11  25  42  65  96 130 176 212 268 327 390
#
# _framework density 20.887204000000001
#
# number of rings (size 3 to 8) (size 9 to 14) (size 15 to 20)
#    0.000    1.429    2.857    3.857    4.000    1.714 
#    0.000    0.714    0.000    4.286    0.000    0.000 
#    0.000    0.000    0.000    0.000    0.000    0.000 
#
# Total GULP energy -312285.877643 kJ/mol
# GULP energy per Si atom -5576.533529 kJ/mol
# Density = 2.083966 g / cm^3
# Si number density = 20.887204 Si / 1000 Ang^3
#
#
#
# Elastic Constant Matrix: (Units=GPa)
#
#
# Indices 1 2 3 4 5 6 
#
# 1 116.2654 12.2498 13.5175 0.0000 0.0000 0.0000
# 2 12.2498 113.4763 12.6669 0.0000 0.0000 0.0000
# 3 13.5175 12.6669 39.0699 0.0000 0.0000 0.0000
# 4 0.0000 0.0000 0.0000 29.8432 0.0000 0.0000
# 5 0.0000 0.0000 0.0000 0.0000 16.7516 0.0000
# 6 0.0000 0.0000 0.0000 0.0000 0.0000 8.8968
#
#
#
# Elastic Compliance Matrix: (Units=1/GPa)
#
#
# Indices 1 2 3 4 5 6 
#
# 1 0.009007 -0.000648 -0.002906 0.000000 0.000000 0.000000
# 2 -0.000648 0.009190 -0.002755 0.000000 0.000000 0.000000
# 3 -0.002906 -0.002755 0.027494 0.000000 0.000000 0.000000
# 4 0.000000 0.000000 0.000000 0.033509 0.000000 0.000000
# 5 0.000000 0.000000 0.000000 0.000000 0.059696 0.000000
# 6 0.000000 0.000000 0.000000 0.000000 0.000000 0.112401
#
#
# Mechanical properties :
#
#
# Convention : Reuss Voigt Hill
#
# Bulk Modulus (GPa) = 30.23696 38.40889 34.32293
# Shear Modulus (GPa) = 18.18586 26.45681 22.32133
#
# Velocity S-wave (km/s) = 2.95391 3.56287 3.27258
# Velocity P-wave (km/s) = 5.11291 5.94592 5.54508
#
# Compressibility (1/GPa) = 0.03307210
#
# Stress axis : x y z
#
# Youngs Moduli (GPa) = 111.02272 108.81488 36.37158
#
# Poissons Ratio (x) = 0.07050 0.10571
# Poissons Ratio (y) = 0.07193 0.10022
# Poissons Ratio (z) = 0.32266 0.29982
#
# Static dielectric constant tensor:
#      x y z
#    x 1.896240 0.000000 0.000000 
#    y 0.000000 1.760590 0.000000 
#    z 0.000000 0.000000 1.755700 
# 
# From -- ./inp_files/12397.got.cif
#   From: 2010.05.17/outbox.cif.g08.bks.cpg/sg62_7_cif.got.tgz:12397.got - 2010.06.03 15:25:27.
