data_PCOD9464603
_publ_section_title
;
Structure prediction by ZEFSAII (Michael W. Deem and Ramdas Pophale) SiO2 
 PCOD9464603
Probable space group: P N M A
;
_chemical_formula_sum "Si O2"
_cell_formula_units_Z 64
_cell_length_a 22.958257
_cell_length_b 24.204212
_cell_length_c 5.443724
_cell_angle_alpha 90.000000
_cell_angle_beta 90.000000
_cell_angle_gamma 90.000000
_cell_volume 3025.004043
_symmetry_space_group_name_H-M "P N M A"
_symmetry_group_IT_number 62
_symmetry_cell_setting 'orthorhombic'
loop_
_space_group_symop_operation_xyz
x,y,z
1/2-x,-y,1/2+z
1/2+x,1/2-y,1/2-z
-x,1/2+y,-z
-x,-y,-z
1/2+x,y,1/2-z
1/2-x,1/2+y,1/2+z
x,1/2-y,z
loop_
_atom_site_type_symbol
_atom_site_label
_atom_site_fract_x
_atom_site_fract_y
_atom_site_fract_z
Si Si1 0.604101 0.186189 0.444313
Si Si2 0.881861 0.880579 0.455799
Si Si3 0.104387 0.879434 0.825199
Si Si4 0.316258 0.957099 0.368782
Si Si5 0.988962 0.417012 0.562217
Si Si6 0.475381 0.189466 0.589413
Si Si7 0.200574 0.936066 0.598180
Si Si8 0.107605 0.522230 0.205721
O O1 0.623468 0.250000 0.442054
O O2 0.614919 0.158842 0.712489
O O3 0.533518 0.186313 0.424648
O O4 0.626919 0.152859 0.207436
O O5 0.833834 0.924371 0.374058
O O6 0.942206 0.915298 0.478873
O O7 0.050838 0.906149 0.673983
O O8 0.164011 0.882378 0.675346
O O9 0.081392 0.822024 0.926875
O O10 0.114558 0.923260 0.039698
O O11 0.263774 0.924772 0.493985
O O12 0.372637 0.969948 0.541309
O O13 0.291569 0.018033 0.310260
O O14 0.979040 0.361438 0.724283
O O15 0.958574 0.469697 0.695482
O O16 0.474970 0.250000 0.707362
O O17 0.155427 0.967187 0.415579
#
# Coordination Sequence:
#
# PCOD9464603 Si02
#       8
#     8   8   8   8   8   8   8   8
#     4  10  21  39  59  86 122 155 189 238 294 353
#     4  11  23  36  61  92 119 152 200 241 290 360
#     4   9  17  33  54  78 111 149 182 236 287 339
#     4  11  22  35  59  83 111 149 205 244 285 344
#     4   9  18  34  51  80 122 149 187 230 296 349
#     4   9  17  30  55  83 112 149 189 233 284 346
#     4  10  20  36  55  79 109 147 195 243 285 338
#     4   9  19  35  54  77 113 155 183 234 290 340
#
# _framework density 21.156997
#
# number of rings (size 3 to 8) (size 9 to 14) (size 15 to 20)
#    0.000    2.250    2.500    0.375    1.750    1.500 
#    0.000    5.625    0.000    1.500    0.000    0.000 
#    0.000    0.000    0.000    0.000    0.000    0.000 
#
# Total GULP energy -356872.076173 kJ/mol
# GULP energy per Si atom -5576.126190 kJ/mol
# Density = 2.110884 g / cm^3
# Si number density = 21.156997 Si / 1000 Ang^3
#
#
#
# Elastic Constant Matrix: (Units=GPa)
#
#
# Indices 1 2 3 4 5 6 
#
# 1 63.0804 11.2633 3.6414 0.0000 0.0000 0.0000
# 2 11.2633 78.3970 21.1936 0.0000 0.0000 0.0000
# 3 3.6414 21.1936 60.6809 0.0000 0.0000 0.0000
# 4 0.0000 0.0000 0.0000 27.1972 0.0000 0.0000
# 5 0.0000 0.0000 0.0000 0.0000 21.4915 0.0000
# 6 0.0000 0.0000 0.0000 0.0000 0.0000 17.9087
#
#
#
# Elastic Compliance Matrix: (Units=1/GPa)
#
#
# Indices 1 2 3 4 5 6 
#
# 1 0.016272 -0.002290 -0.000177 0.000000 0.000000 0.000000
# 2 -0.002290 0.014408 -0.004895 0.000000 0.000000 0.000000
# 3 -0.000177 -0.004895 0.018200 0.000000 0.000000 0.000000
# 4 0.000000 0.000000 0.000000 0.036769 0.000000 0.000000
# 5 0.000000 0.000000 0.000000 0.000000 0.046530 0.000000
# 6 0.000000 0.000000 0.000000 0.000000 0.000000 0.055839
#
#
# Mechanical properties :
#
#
# Convention : Reuss Voigt Hill
#
# Bulk Modulus (GPa) = 29.27680 30.48389 29.88034
# Shear Modulus (GPa) = 23.35084 24.39015 23.87049
#
# Velocity S-wave (km/s) = 3.32579 3.39900 3.36260
# Velocity P-wave (km/s) = 5.34937 5.46296 5.40647
#
# Compressibility (1/GPa) = 0.03415674
#
# Stress axis : x y z
#
# Youngs Moduli (GPa) = 61.45570 69.40680 54.94566
#
# Poissons Ratio (x) = 0.15894 0.00971
# Poissons Ratio (y) = 0.14074 0.26894
# Poissons Ratio (z) = 0.01086 0.33973
#
# Static dielectric constant tensor:
#      x y z
#    x 1.786690 0.000000 0.000000 
#    y 0.000000 1.760130 0.000000 
#    z 0.000000 0.000000 1.861890 
# 
# From -- ./inp_files/2399.got.cif
#   From: 2010.05.17/outbox.cif.g08.bks.cpg/sg62_2_cif.got.tgz:2399.got - 2010.06.03 15:25:27.
