data_PCOD9464308
_publ_section_title
;
Structure prediction by ZEFSAII (Michael W. Deem and Ramdas Pophale) SiO2 
 PCOD9464308
Probable space group: P N M A
;
_chemical_formula_sum "Si O2"
_cell_formula_units_Z 48
_cell_length_a 5.456105
_cell_length_b 14.547656
_cell_length_c 26.985824
_cell_angle_alpha 90.000000
_cell_angle_beta 90.000000
_cell_angle_gamma 90.000000
_cell_volume 2141.960344
_symmetry_space_group_name_H-M "P N M A"
_symmetry_group_IT_number 62
_symmetry_cell_setting 'orthorhombic'
loop_
_space_group_symop_operation_xyz
x,y,z
1/2-x,-y,1/2+z
1/2+x,1/2-y,1/2-z
-x,1/2+y,-z
-x,-y,-z
1/2+x,y,1/2-z
1/2-x,1/2+y,1/2+z
x,1/2-y,z
loop_
_atom_site_type_symbol
_atom_site_label
_atom_site_fract_x
_atom_site_fract_y
_atom_site_fract_z
Si Si1 0.694508 0.920445 0.360025
Si Si2 0.805464 0.352831 0.680260
Si Si3 0.971082 0.250000 0.435788
Si Si4 0.321861 0.933192 0.471534
Si Si5 0.192441 0.474255 0.241587
Si Si6 0.474196 0.250000 0.500655
Si Si7 0.948426 0.446583 0.429443
O O1 0.942390 0.861403 0.351086
O O2 0.693756 0.989108 0.313658
O O3 0.439868 0.866718 0.352677
O O4 0.741532 0.987734 0.406427
O O5 0.796448 0.250000 0.702664
O O6 0.807962 0.434529 0.721766
O O7 0.208701 0.250000 0.473849
O O8 0.986716 0.346395 0.406101
O O9 0.694454 0.250000 0.459703
O O10 0.468282 0.838919 0.466057
O O11 0.109104 0.918255 0.513417
O O12 0.500000 0.000000 0.500000
O O13 0.188583 0.989840 0.428808
O O14 0.942313 0.422215 0.249826
#
# Coordination Sequence:
#
# PCOD9464308 Si02
#       7
#     8   8   4   8   8   4   8
#     4  10  21  33  52  79 109 138 181 231 268 310
#     4  10  20  35  54  77 111 154 187 214 261 330
#     4  10  20  36  60  78  98 133 186 225 262 326
#     4  10  20  37  59  77 109 146 182 226 278 334
#     4   8  16  30  49  74 100 142 180 214 258 314
#     4  10  20  36  56  82 100 137 184 217 268 330
#     4  10  22  37  56  82 106 141 183 233 280 321
#
# _framework density 22.409379999999999
#
# number of rings (size 3 to 8) (size 9 to 14) (size 15 to 20)
#    0.000    2.333    1.667    0.500    2.333    6.000 
#    3.000    0.000    0.000    0.000    0.000   10.500 
#    0.000    0.000    0.000    0.000    0.000    0.000 
#
# Total GULP energy -267335.757926 kJ/mol
# GULP energy per Si atom -5569.494957 kJ/mol
# Density = 2.235837 g / cm^3
# Si number density = 22.409380 Si / 1000 Ang^3
#
#
#
# Elastic Constant Matrix: (Units=GPa)
#
#
# Indices 1 2 3 4 5 6 
#
# 1 156.3469 -3.3197 10.3196 0.0000 0.0000 0.0000
# 2 -3.3197 91.1725 5.5178 0.0000 0.0000 0.0000
# 3 10.3196 5.5178 48.6656 0.0000 0.0000 0.0000
# 4 0.0000 0.0000 0.0000 12.6099 0.0000 0.0000
# 5 0.0000 0.0000 0.0000 0.0000 28.3655 0.0000
# 6 0.0000 0.0000 0.0000 0.0000 0.0000 26.0174
#
#
#
# Elastic Compliance Matrix: (Units=1/GPa)
#
#
# Indices 1 2 3 4 5 6 
#
# 1 0.006496 0.000322 -0.001414 0.000000 0.000000 0.000000
# 2 0.000322 0.011060 -0.001322 0.000000 0.000000 0.000000
# 3 -0.001414 -0.001322 0.020998 0.000000 0.000000 0.000000
# 4 0.000000 0.000000 0.000000 0.079303 0.000000 0.000000
# 5 0.000000 0.000000 0.000000 0.000000 0.035254 0.000000
# 6 0.000000 0.000000 0.000000 0.000000 0.000000 0.038436
#
#
# Mechanical properties :
#
#
# Convention : Reuss Voigt Hill
#
# Bulk Modulus (GPa) = 29.65081 35.69114 32.67097
# Shear Modulus (GPa) = 24.08274 32.30971 28.19623
#
# Velocity S-wave (km/s) = 3.28178 3.80122 3.55101
# Velocity P-wave (km/s) = 5.25549 5.93524 5.60568
#
# Compressibility (1/GPa) = 0.03372590
#
# Stress axis : x y z
#
# Youngs Moduli (GPa) = 153.93598 90.41615 47.62317
#
# Poissons Ratio (x) = -0.02912 0.06734
# Poissons Ratio (y) = -0.04958 0.06297
# Poissons Ratio (z) = 0.21767 0.11956
#
# Static dielectric constant tensor:
#      x y z
#    x 1.921810 0.000000 0.000000 
#    y 0.000000 1.837700 0.000000 
#    z 0.000000 0.000000 1.884240 
# 
# From -- ./inp_files/31586.got.cif
#   From: 2010.05.17/outbox.cif.g08.bks.cpg/sg62_16_cif.got.tgz:31586.got - 2010.06.03 15:25:27.
