data_PCOD9464545
_publ_section_title
;
Structure prediction by ZEFSAII (Michael W. Deem and Ramdas Pophale) SiO2 
 PCOD9464545
Probable space group: P N M A
;
_chemical_formula_sum "Si O2"
_cell_formula_units_Z 56
_cell_length_a 13.728888
_cell_length_b 13.200679
_cell_length_c 13.365340
_cell_angle_alpha 90.000000
_cell_angle_beta 90.000000
_cell_angle_gamma 90.000000
_cell_volume 2422.209169
_symmetry_space_group_name_H-M "P N M A"
_symmetry_group_IT_number 62
_symmetry_cell_setting 'orthorhombic'
loop_
_space_group_symop_operation_xyz
x,y,z
1/2-x,-y,1/2+z
1/2+x,1/2-y,1/2-z
-x,1/2+y,-z
-x,-y,-z
1/2+x,y,1/2-z
1/2-x,1/2+y,1/2+z
x,1/2-y,z
loop_
_atom_site_type_symbol
_atom_site_label
_atom_site_fract_x
_atom_site_fract_y
_atom_site_fract_z
Si Si1 0.059951 0.636901 0.579500
Si Si2 0.918150 0.365281 0.641016
Si Si3 0.279716 0.921414 0.603759
Si Si4 0.044667 0.488508 0.761449
Si Si5 0.311963 0.135405 0.522459
Si Si6 0.481121 0.863775 0.565948
Si Si7 0.740713 0.036539 0.179734
O O1 0.033006 0.750000 0.611418
O O2 0.026792 0.621528 0.465609
O O3 0.177452 0.626858 0.574610
O O4 0.028986 0.557555 0.662570
O O5 0.881596 0.250000 0.642981
O O6 0.834490 0.449636 0.649343
O O7 0.990973 0.385960 0.732919
O O8 0.368978 0.881060 0.536690
O O9 0.295451 0.903013 0.722073
O O10 0.276563 0.042960 0.590162
O O11 0.158295 0.484979 0.785559
O O12 0.999532 0.550248 0.852555
O O13 0.286883 0.250000 0.552487
O O14 0.429707 0.128268 0.511212
O O15 0.267130 0.109375 0.412897
O O16 0.489815 0.750000 0.608138
#
# Coordination Sequence:
#
# PCOD9464545 Si02
#       7
#     8   8   8   8   8   8   8
#     4  10  21  37  61  87 118 157 201 254 308 366
#     4  11  22  40  61  85 122 162 203 253 314 375
#     4  11  20  37  63  89 121 160 205 254 312 368
#     4  10  21  39  62  87 120 158 203 257 307 365
#     4  10  22  40  60  88 125 164 207 260 312 368
#     4  10  20  35  59  89 122 158 203 255 309 363
#     4  10  22  40  62  89 122 159 204 259 302 366
#
# _framework density 23.119392000000001
#
# number of rings (size 3 to 8) (size 9 to 14) (size 15 to 20)
#    0.000    1.714    2.857    1.714    0.000    5.143 
#    0.000    2.143    0.000    0.000    0.000    0.000 
#    0.000    0.000    0.000    0.000    0.000    0.000 
#
# Total GULP energy -313037.075499 kJ/mol
# GULP energy per Si atom -5589.947777 kJ/mol
# Density = 2.306677 g / cm^3
# Si number density = 23.119392 Si / 1000 Ang^3
#
#
#
# Elastic Constant Matrix: (Units=GPa)
#
#
# Indices 1 2 3 4 5 6 
#
# 1 41.8734 8.6772 -11.1683 0.0000 0.0000 0.0000
# 2 8.6772 89.1342 13.9428 0.0000 0.0000 0.0000
# 3 -11.1683 13.9428 52.2692 0.0000 0.0000 0.0000
# 4 0.0000 0.0000 0.0000 23.7230 0.0000 0.0000
# 5 0.0000 0.0000 0.0000 0.0000 16.6805 0.0000
# 6 0.0000 0.0000 0.0000 0.0000 0.0000 24.2195
#
#
#
# Elastic Compliance Matrix: (Units=1/GPa)
#
#
# Indices 1 2 3 4 5 6 
#
# 1 0.026388 -0.003601 0.006599 0.000000 0.000000 0.000000
# 2 -0.003601 0.012199 -0.004024 0.000000 0.000000 0.000000
# 3 0.006599 -0.004024 0.021615 0.000000 0.000000 0.000000
# 4 0.000000 0.000000 0.000000 0.042153 0.000000 0.000000
# 5 0.000000 0.000000 0.000000 0.000000 0.059950 0.000000
# 6 0.000000 0.000000 0.000000 0.000000 0.000000 0.041289
#
#
# Mechanical properties :
#
#
# Convention : Reuss Voigt Hill
#
# Bulk Modulus (GPa) = 17.19685 22.90891 20.05288
# Shear Modulus (GPa) = 22.21933 24.37959 23.29946
#
# Velocity S-wave (km/s) = 3.10347 3.25084 3.17801
# Velocity P-wave (km/s) = 4.50516 4.90113 4.70731
#
# Compressibility (1/GPa) = 0.05815017
#
# Stress axis : x y z
#
# Youngs Moduli (GPa) = 37.89642 81.97407 46.26423
#
# Poissons Ratio (x) = 0.29519 -0.30529
# Poissons Ratio (y) = 0.13647 0.18614
# Poissons Ratio (z) = -0.25007 0.32982
#
# Static dielectric constant tensor:
#      x y z
#    x 1.902740 0.000000 0.000000 
#    y 0.000000 1.819700 0.000000 
#    z 0.000000 0.000000 1.901730 
# 
# From -- ./inp_files/18994.got.cif
#   From: 2010.05.17/outbox.cif.g08.bks.cpg/sg62_10_cif.got.tgz:18994.got - 2010.06.03 15:25:27.
