data_PCOD9464785
_publ_section_title
;
Structure prediction by ZEFSAII (Michael W. Deem and Ramdas Pophale) SiO2 
 PCOD9464785
Probable space group: P N M A
;
_chemical_formula_sum "Si O2"
_cell_formula_units_Z 40
_cell_length_a 12.629055
_cell_length_b 18.647838
_cell_length_c 8.965189
_cell_angle_alpha 90.000000
_cell_angle_beta 90.000000
_cell_angle_gamma 90.000000
_cell_volume 2111.342996
_symmetry_space_group_name_H-M "P N M A"
_symmetry_group_IT_number 62
_symmetry_cell_setting 'orthorhombic'
loop_
_space_group_symop_operation_xyz
x,y,z
1/2-x,-y,1/2+z
1/2+x,1/2-y,1/2-z
-x,1/2+y,-z
-x,-y,-z
1/2+x,y,1/2-z
1/2-x,1/2+y,1/2+z
x,1/2-y,z
loop_
_atom_site_type_symbol
_atom_site_label
_atom_site_fract_x
_atom_site_fract_y
_atom_site_fract_z
Si Si1 0.614241 0.334073 0.459245
Si Si2 0.384209 0.467273 0.988490
Si Si3 0.757063 0.932743 0.736479
Si Si4 0.366948 0.335098 0.496474
Si Si5 0.310187 0.333753 0.833564
O O1 0.621698 0.250000 0.415161
O O2 0.660078 0.385300 0.331521
O O3 0.492632 0.349939 0.495431
O O4 0.692003 0.343439 0.600999
O O5 0.321888 0.468816 0.144615
O O6 0.500000 0.500000 0.000000
O O7 0.317389 0.510341 0.865296
O O8 0.383941 0.385039 0.932229
O O9 0.690607 0.880754 0.629177
O O10 0.352474 0.250000 0.469626
O O11 0.321031 0.351869 0.659979
O O12 0.338640 0.250000 0.851011
#
# Coordination Sequence:
#
# PCOD9464785 Si02
#       5
#     8   8   8   8   8
#     4   9  19  37  59  84 115 150 187 231 281 332
#     4  11  24  40  59  85 116 151 190 234 287 339
#     4  11  22  38  57  84 116 150 188 236 281 337
#     4  10  20  36  60  87 115 151 192 233 281 334
#     4   9  20  39  60  82 111 148 192 236 278 334
#
# _framework density 18.945288000000001
#
# number of rings (size 3 to 8) (size 9 to 14) (size 15 to 20)
#    0.000    2.000    0.000    3.000    0.000    5.600 
#    0.000   11.000    0.000    0.000    0.000    0.000 
#    0.000    0.000    0.000    0.000    0.000    0.000 
#
# Total GULP energy -223473.791967 kJ/mol
# GULP energy per Si atom -5586.844799 kJ/mol
# Density = 1.890217 g / cm^3
# Si number density = 18.945288 Si / 1000 Ang^3
#
#
#
# Elastic Constant Matrix: (Units=GPa)
#
#
# Indices 1 2 3 4 5 6 
#
# 1 91.0898 63.6282 78.1099 0.0000 0.0000 0.0000
# 2 63.6282 69.9521 69.0054 0.0000 0.0000 0.0000
# 3 78.1099 69.0054 142.7160 0.0000 0.0000 0.0000
# 4 0.0000 0.0000 0.0000 33.6399 0.0000 0.0000
# 5 0.0000 0.0000 0.0000 0.0000 12.4922 0.0000
# 6 0.0000 0.0000 0.0000 0.0000 0.0000 25.8154
#
#
#
# Elastic Compliance Matrix: (Units=1/GPa)
#
#
# Indices 1 2 3 4 5 6 
#
# 1 0.033267 -0.023514 -0.006838 0.000000 0.000000 0.000000
# 2 -0.023514 0.043953 -0.008382 0.000000 0.000000 0.000000
# 3 -0.006838 -0.008382 0.014802 0.000000 0.000000 0.000000
# 4 0.000000 0.000000 0.000000 0.029727 0.000000 0.000000
# 5 0.000000 0.000000 0.000000 0.000000 0.080050 0.000000
# 6 0.000000 0.000000 0.000000 0.000000 0.000000 0.038737
#
#
# Mechanical properties :
#
#
# Convention : Reuss Voigt Hill
#
# Bulk Modulus (GPa) = 68.71271 80.58279 74.64775
# Shear Modulus (GPa) = 15.48686 20.59046 18.03866
#
# Velocity S-wave (km/s) = 2.86221 3.30030 3.08903
# Velocity P-wave (km/s) = 6.87537 7.55973 7.22566
#
# Compressibility (1/GPa) = 0.01455335
#
# Stress axis : x y z
#
# Youngs Moduli (GPa) = 30.06012 22.75177 67.55702
#
# Poissons Ratio (x) = 0.53498 0.46194
# Poissons Ratio (y) = 0.70683 0.56629
# Poissons Ratio (z) = 0.20555 0.19071
#
# Static dielectric constant tensor:
#      x y z
#    x 1.618650 0.000000 0.000000 
#    y 0.000000 1.671050 0.000000 
#    z 0.000000 0.000000 1.631070 
# 
# From -- ./inp_files/5004.got.cif
#   From: 2010.05.17/outbox.cif.g08.bks.cpg/sg62_3_cif.got.tgz:5004.got - 2010.06.03 15:25:27.
