data_PCOD9464516
_publ_section_title
;
Structure prediction by ZEFSAII (Michael W. Deem and Ramdas Pophale) SiO2 
 PCOD9464516
Probable space group: P N M A
;
_chemical_formula_sum "Si O2"
_cell_formula_units_Z 64
_cell_length_a 15.805647
_cell_length_b 8.232108
_cell_length_c 24.314401
_cell_angle_alpha 90.000000
_cell_angle_beta 90.000000
_cell_angle_gamma 90.000000
_cell_volume 3163.638941
_symmetry_space_group_name_H-M "P N M A"
_symmetry_group_IT_number 62
_symmetry_cell_setting 'orthorhombic'
loop_
_space_group_symop_operation_xyz
x,y,z
1/2-x,-y,1/2+z
1/2+x,1/2-y,1/2-z
-x,1/2+y,-z
-x,-y,-z
1/2+x,y,1/2-z
1/2-x,1/2+y,1/2+z
x,1/2-y,z
loop_
_atom_site_type_symbol
_atom_site_label
_atom_site_fract_x
_atom_site_fract_y
_atom_site_fract_z
Si Si1 0.747208 0.050764 0.427045
Si Si2 0.696742 0.554476 0.191434
Si Si3 0.508328 0.943346 0.718039
Si Si4 0.992155 0.443537 0.663769
Si Si5 0.682258 0.444977 0.309423
Si Si6 0.064853 0.942263 0.547601
Si Si7 0.903832 0.553982 0.006870
Si Si8 0.358433 0.553430 0.371815
O O1 0.749198 0.250000 0.427199
O O2 0.730168 0.997133 0.364055
O O3 0.837395 0.995314 0.451972
O O4 0.665269 0.999198 0.462188
O O5 0.862954 0.750000 0.129207
O O6 0.604031 0.496352 0.173847
O O7 0.722848 0.493405 0.251593
O O8 0.765864 0.504061 0.147667
O O9 0.503207 0.750000 0.724908
O O10 0.415352 0.003001 0.697701
O O11 0.533659 0.016496 0.777233
O O12 0.574263 0.987366 0.671242
O O13 0.991743 0.250000 0.655994
O O14 0.030499 0.519324 0.608844
O O15 0.679376 0.250000 0.313193
O O16 0.069997 0.750000 0.540547
O O17 0.000000 0.000000 0.500000
O O18 0.902498 0.750000 0.005349
O O19 0.875847 0.497496 0.066906
O O20 0.000000 0.500000 0.000000
O O21 0.693040 0.750000 0.193832
#
# Coordination Sequence:
#
# PCOD9464516 Si02
#       8
#     8   8   8   8   8   8   8   8
#     4   9  20  38  62  86 115 156 197 241 296 357
#     4   9  20  36  56  83 112 149 189 233 289 348
#     4  10  20  35  58  87 120 153 188 235 292 352
#     4  10  21  39  62  85 117 154 194 242 297 351
#     4   9  18  35  57  83 112 147 188 232 288 349
#     4  11  24  41  62  87 117 156 205 252 300 355
#     4  10  21  39  62  86 117 155 195 240 293 353
#     4  10  21  35  56  84 114 150 194 236 285 351
#
# _framework density 20.229869999999998
#
# number of rings (size 3 to 8) (size 9 to 14) (size 15 to 20)
#    0.000    2.250    0.000    1.875    3.500    3.000 
#    0.000    2.500    0.000    0.000    0.000    0.000 
#    0.000    0.000    0.000    0.000    0.000    0.000 
#
# Total GULP energy -357177.239750 kJ/mol
# GULP energy per Si atom -5580.894371 kJ/mol
# Density = 2.018383 g / cm^3
# Si number density = 20.229870 Si / 1000 Ang^3
#
#
#
# Elastic Constant Matrix: (Units=GPa)
#
#
# Indices 1 2 3 4 5 6 
#
# 1 108.2211 9.6490 71.5907 0.0000 0.0000 0.0000
# 2 9.6490 6.5714 5.3436 0.0000 0.0000 0.0000
# 3 71.5907 5.3436 133.8822 0.0000 0.0000 0.0000
# 4 0.0000 0.0000 0.0000 26.7302 0.0000 0.0000
# 5 0.0000 0.0000 0.0000 0.0000 36.9164 0.0000
# 6 0.0000 0.0000 0.0000 0.0000 0.0000 22.2033
#
#
#
# Elastic Compliance Matrix: (Units=1/GPa)
#
#
# Indices 1 2 3 4 5 6 
#
# 1 0.015953 -0.017041 -0.007850 0.000000 0.000000 0.000000
# 2 -0.017041 0.175481 0.002108 0.000000 0.000000 0.000000
# 3 -0.007850 0.002108 0.011583 0.000000 0.000000 0.000000
# 4 0.000000 0.000000 0.000000 0.037411 0.000000 0.000000
# 5 0.000000 0.000000 0.000000 0.000000 0.027088 0.000000
# 6 0.000000 0.000000 0.000000 0.000000 0.000000 0.045038
#
#
# Mechanical properties :
#
#
# Convention : Reuss Voigt Hill
#
# Bulk Modulus (GPa) = 6.35118 46.87126 26.61122
# Shear Modulus (GPa) = 12.17722 27.97607 20.07664
#
# Velocity S-wave (km/s) = 2.45611 3.72278 3.15370
# Velocity P-wave (km/s) = 3.34509 6.45743 5.14238
#
# Compressibility (1/GPa) = 0.15745110
#
# Stress axis : x y z
#
# Youngs Moduli (GPa) = 62.68473 5.69863 86.33408
#
# Poissons Ratio (x) = 0.09711 0.67775
# Poissons Ratio (y) = 1.06818 -0.18201
# Poissons Ratio (z) = 0.49210 -0.01201
#
# Static dielectric constant tensor:
#      x y z
#    x 1.723130 0.000000 0.000000 
#    y 0.000000 1.714860 0.000000 
#    z 0.000000 0.000000 1.691850 
# 
# From -- ./inp_files/29761.got.cif
#   From: 2010.05.17/outbox.cif.g08.bks.cpg/sg62_15_cif.got.tgz:29761.got - 2010.06.03 15:25:27.
