data_PCOD9464425
_publ_section_title
;
Structure prediction by ZEFSAII (Michael W. Deem and Ramdas Pophale) SiO2 
 PCOD9464425
Probable space group: P N M A
;
_chemical_formula_sum "Si O2"
_cell_formula_units_Z 48
_cell_length_a 11.664728
_cell_length_b 13.617152
_cell_length_c 16.911723
_cell_angle_alpha 90.000000
_cell_angle_beta 90.000000
_cell_angle_gamma 90.000000
_cell_volume 2686.264410
_symmetry_space_group_name_H-M "P N M A"
_symmetry_group_IT_number 62
_symmetry_cell_setting 'orthorhombic'
loop_
_space_group_symop_operation_xyz
x,y,z
1/2-x,-y,1/2+z
1/2+x,1/2-y,1/2-z
-x,1/2+y,-z
-x,-y,-z
1/2+x,y,1/2-z
1/2-x,1/2+y,1/2+z
x,1/2-y,z
loop_
_atom_site_type_symbol
_atom_site_label
_atom_site_fract_x
_atom_site_fract_y
_atom_site_fract_z
Si Si1 0.437534 0.367843 0.228882
Si Si2 0.116752 0.960056 0.893830
Si Si3 0.734882 0.636235 0.902483
Si Si4 0.610940 0.447653 0.105516
Si Si5 0.946765 0.866040 0.004198
Si Si6 0.531277 0.861536 0.032056
O O1 0.429806 0.250000 0.239274
O O2 0.434925 0.421262 0.312139
O O3 0.329642 0.403295 0.174672
O O4 0.550199 0.391811 0.177559
O O5 0.253484 0.954161 0.888036
O O6 0.067343 0.891824 0.964201
O O7 0.077153 0.069175 0.918637
O O8 0.759314 0.750000 0.883803
O O9 0.851404 0.596966 0.939962
O O10 0.640459 0.633737 0.972428
O O11 0.555290 0.556093 0.097097
O O12 0.573901 0.393269 0.024135
O O13 0.932437 0.750000 0.016698
O O14 0.519494 0.750000 0.060052
#
# Coordination Sequence:
#
# PCOD9464425 Si02
#       6
#     8   8   8   8   8   8
#     4  10  22  36  54  83 115 145 183 236 289 331
#     4  11  23  36  57  86 112 151 190 231 278 333
#     4   8  15  32  56  78 105 142 177 216 275 334
#     4  10  20  35  56  84 113 143 189 234 277 334
#     4  10  21  38  58  82 114 151 189 227 279 341
#     4   9  17  33  58  83 108 144 182 227 279 332
#
# _framework density 17.868679
#
# number of rings (size 3 to 8) (size 9 to 14) (size 15 to 20)
#    0.000    2.333    1.667    2.000    2.333    2.667 
#    0.000    0.833    0.000    0.000    0.000    0.000 
#    0.000    0.000    0.000    0.000    0.000    0.000 
#
# Total GULP energy -267574.625915 kJ/mol
# GULP energy per Si atom -5574.471373 kJ/mol
# Density = 1.782801 g / cm^3
# Si number density = 17.868679 Si / 1000 Ang^3
#
#
#
# Elastic Constant Matrix: (Units=GPa)
#
#
# Indices 1 2 3 4 5 6 
#
# 1 57.9927 28.5767 34.5303 0.0000 0.0000 0.0000
# 2 28.5767 101.7256 44.3909 0.0000 0.0000 0.0000
# 3 34.5303 44.3909 80.6494 0.0000 0.0000 0.0000
# 4 0.0000 0.0000 0.0000 28.0978 0.0000 0.0000
# 5 0.0000 0.0000 0.0000 0.0000 11.1375 0.0000
# 6 0.0000 0.0000 0.0000 0.0000 0.0000 16.5307
#
#
#
# Elastic Compliance Matrix: (Units=1/GPa)
#
#
# Indices 1 2 3 4 5 6 
#
# 1 0.023796 -0.002947 -0.008567 0.000000 0.000000 0.000000
# 2 -0.002947 0.013303 -0.006061 0.000000 0.000000 0.000000
# 3 -0.008567 -0.006061 0.019403 0.000000 0.000000 0.000000
# 4 0.000000 0.000000 0.000000 0.035590 0.000000 0.000000
# 5 0.000000 0.000000 0.000000 0.000000 0.089787 0.000000
# 6 0.000000 0.000000 0.000000 0.000000 0.000000 0.060493
#
#
# Mechanical properties :
#
#
# Convention : Reuss Voigt Hill
#
# Bulk Modulus (GPa) = 46.82811 50.59593 48.71202
# Shear Modulus (GPa) = 17.56616 20.01118 18.78867
#
# Velocity S-wave (km/s) = 3.13880 3.35012 3.24618
# Velocity P-wave (km/s) = 6.27692 6.58341 6.43199
#
# Compressibility (1/GPa) = 0.02135470
#
# Stress axis : x y z
#
# Youngs Moduli (GPa) = 42.02335 75.17211 51.53847
#
# Poissons Ratio (x) = 0.22150 0.44151
# Poissons Ratio (y) = 0.12382 0.31235
# Poissons Ratio (z) = 0.36000 0.45558
#
# Static dielectric constant tensor:
#      x y z
#    x 1.646890 0.000000 0.000000 
#    y 0.000000 1.625820 0.000000 
#    z 0.000000 0.000000 1.610640 
# 
# From -- ./inp_files/17993.got.cif
#   From: 2010.05.17/outbox.cif.g08.bks.cpg/sg62_9_cif.got.tgz:17993.got - 2010.06.03 15:25:27.
