data_PCOD9464823
_publ_section_title
;
Structure prediction by ZEFSAII (Michael W. Deem and Ramdas Pophale) SiO2 
 PCOD9464823
Probable space group: P N M A
;
_chemical_formula_sum "Si O2"
_cell_formula_units_Z 44
_cell_length_a 8.608139
_cell_length_b 20.698857
_cell_length_c 12.431752
_cell_angle_alpha 90.000000
_cell_angle_beta 90.000000
_cell_angle_gamma 90.000000
_cell_volume 2215.072642
_symmetry_space_group_name_H-M "P N M A"
_symmetry_group_IT_number 62
_symmetry_cell_setting 'orthorhombic'
loop_
_space_group_symop_operation_xyz
x,y,z
1/2-x,-y,1/2+z
1/2+x,1/2-y,1/2-z
-x,1/2+y,-z
-x,-y,-z
1/2+x,y,1/2-z
1/2-x,1/2+y,1/2+z
x,1/2-y,z
loop_
_atom_site_type_symbol
_atom_site_label
_atom_site_fract_x
_atom_site_fract_y
_atom_site_fract_z
Si Si1 0.588935 0.004143 0.659442
Si Si2 0.046880 0.520213 0.379245
Si Si3 0.441519 0.395016 0.506049
Si Si4 0.622830 0.355197 0.911097
Si Si5 0.094133 0.750000 0.462810
Si Si6 0.176460 0.750000 0.210734
Si Si7 0.050650 0.250000 0.983043
O O1 0.772384 0.010230 0.641816
O O2 0.549593 0.988508 0.782592
O O3 0.516212 0.070998 0.611804
O O4 0.522855 0.945453 0.588060
O O5 0.000000 0.500000 0.500000
O O6 0.997606 0.594663 0.363178
O O7 0.257072 0.392274 0.525600
O O8 0.491013 0.321184 0.480982
O O9 0.516671 0.310233 0.985632
O O10 0.719172 0.311066 0.826986
O O11 0.128464 0.750000 0.333876
O O12 0.266617 0.750000 0.506776
O O13 0.018901 0.750000 0.139183
#
# Coordination Sequence:
#
# PCOD9464823 Si02
#       7
#     8   8   8   8   4   4   4
#     4  11  25  42  66  96 138 172 225 282 337 400
#     4  12  25  42  67  97 131 179 225 275 339 402
#     4  10  22  43  65  96 133 178 218 275 340 399
#     4  10  21  37  57  90 131 168 215 267 333 410
#     4  11  21  33  57  94 128 170 210 278 336 413
#     4   9  21  33  53  88 131 169 211 265 345 392
#     4  10  20  36  62  88 127 171 219 263 331 413
#
# _framework density 19.863909
#
# number of rings (size 3 to 8) (size 9 to 14) (size 15 to 20)
#    0.000    1.455    1.818    3.818   12.727    0.000 
#    0.000    0.000    0.000    3.273    0.000    0.000 
#    0.000    0.000    0.000    0.000    0.000    0.000 
#
# Total GULP energy -245321.098966 kJ/mol
# GULP energy per Si atom -5575.479522 kJ/mol
# Density = 1.981870 g / cm^3
# Si number density = 19.863909 Si / 1000 Ang^3
#
#
#
# Elastic Constant Matrix: (Units=GPa)
#
#
# Indices 1 2 3 4 5 6 
#
# 1 132.4679 23.1929 27.5915 0.0000 0.0000 0.0000
# 2 23.1929 97.7671 30.4212 0.0000 0.0000 0.0000
# 3 27.5915 30.4212 99.7622 0.0000 0.0000 0.0000
# 4 0.0000 0.0000 0.0000 -3.7666 0.0000 0.0000
# 5 0.0000 0.0000 0.0000 0.0000 14.2713 0.0000
# 6 0.0000 0.0000 0.0000 0.0000 0.0000 29.9060
#
#
#
# Elastic Compliance Matrix: (Units=1/GPa)
#
#
# Indices 1 2 3 4 5 6 
#
# 1 0.008172 -0.001365 -0.001844 0.000000 0.000000 0.000000
# 2 -0.001365 0.011529 -0.003138 0.000000 0.000000 0.000000
# 3 -0.001844 -0.003138 0.011491 0.000000 0.000000 0.000000
# 4 0.000000 0.000000 0.000000 -0.265489 0.000000 0.000000
# 5 0.000000 0.000000 0.000000 0.000000 0.070071 0.000000
# 6 0.000000 0.000000 0.000000 0.000000 0.000000 0.033438
#
#
# Mechanical properties :
#
#
# Convention : Reuss Voigt Hill
#
# Bulk Modulus (GPa) = 54.06080 54.71203 54.38642
# Shear Modulus (GPa) = -44.67103 24.66824 -10.00140
#
# Velocity S-wave (km/s) = -4.74735 3.52783 -2.24631
# Velocity P-wave (km/s) = 1.66588 6.64811 4.55094
#
# Compressibility (1/GPa) = 0.01849769
#
# Stress axis : x y z
#
# Youngs Moduli (GPa) = 122.36853 86.74090 87.02670
#
# Poissons Ratio (x) = 0.11839 0.16047
# Poissons Ratio (y) = 0.16701 0.27309
# Poissons Ratio (z) = 0.22564 0.27219
#
# Static dielectric constant tensor:
#      x y z
#    x 1.704100 0.000000 0.000000 
#    y 0.000000 1.765740 0.000000 
#    z 0.000000 0.000000 1.717450 
# 
# From -- ./inp_files/11275.got.cif
#   From: 2010.05.17/outbox.cif.g08.bks.cpg/sg62_6_cif.got.tgz:11275.got - 2010.06.03 15:25:27.
