data_PCOD9464576
_publ_section_title
;
Structure prediction by ZEFSAII (Michael W. Deem and Ramdas Pophale) SiO2 
 PCOD9464576
Probable space group: P N M A
;
_chemical_formula_sum "Si O2"
_cell_formula_units_Z 64
_cell_length_a 27.651269
_cell_length_b 9.094739
_cell_length_c 12.902018
_cell_angle_alpha 90.000000
_cell_angle_beta 90.000000
_cell_angle_gamma 90.000000
_cell_volume 3244.613351
_symmetry_space_group_name_H-M "P N M A"
_symmetry_group_IT_number 62
_symmetry_cell_setting 'orthorhombic'
loop_
_space_group_symop_operation_xyz
x,y,z
1/2-x,-y,1/2+z
1/2+x,1/2-y,1/2-z
-x,1/2+y,-z
-x,-y,-z
1/2+x,y,1/2-z
1/2-x,1/2+y,1/2+z
x,1/2-y,z
loop_
_atom_site_type_symbol
_atom_site_label
_atom_site_fract_x
_atom_site_fract_y
_atom_site_fract_z
Si Si1 0.460777 0.923906 0.794005
Si Si2 0.700582 0.078955 0.557091
Si Si3 0.823850 0.418620 0.854547
Si Si4 0.587923 0.421355 0.620293
Si Si5 0.937496 0.080621 0.914573
Si Si6 0.288229 0.575544 0.847036
Si Si7 0.931165 0.076625 0.338359
Si Si8 0.383115 0.573428 0.965644
O O1 0.454179 0.750000 0.772036
O O2 0.511242 0.943067 0.853816
O O3 0.462746 0.007430 0.684587
O O4 0.417268 0.973160 0.868914
O O5 0.710576 0.250000 0.535144
O O6 0.645354 0.069256 0.596047
O O7 0.703776 0.980605 0.454230
O O8 0.739170 0.013391 0.636195
O O9 0.810584 0.250000 0.831372
O O10 0.880604 0.422035 0.882773
O O11 0.812659 0.523731 0.759155
O O12 0.575036 0.250000 0.630006
O O13 0.560080 0.493045 0.522619
O O14 0.579478 0.505795 0.726971
O O15 0.952098 0.250000 0.928775
O O16 0.279604 0.750000 0.846512
O O17 0.327759 0.541121 0.936022
O O18 0.920956 0.250000 0.335258
O O19 0.901421 0.001625 0.430100
O O20 0.388240 0.750000 0.974996
#
# Coordination Sequence:
#
# PCOD9464576 Si02
#       8
#     8   8   8   8   8   8   8   8
#     4  10  21  39  61  88 120 157 199 244 297 357
#     4  10  22  39  60  86 116 153 196 244 298 355
#     4  10  20  36  58  85 116 149 190 242 294 349
#     4  10  22  41  62  83 117 161 198 242 302 360
#     4  10  20  35  61  91 117 149 195 248 293 344
#     4  11  22  37  61  89 117 154 196 242 296 354
#     4  11  24  39  60  88 121 159 200 248 298 350
#     4  10  22  40  61  85 119 158 198 242 295 359
#
# _framework density 19.725000000000001
#
# number of rings (size 3 to 8) (size 9 to 14) (size 15 to 20)
#    0.000    1.750    1.250    2.625    0.000    6.500 
#    0.000    1.250    0.000    0.000    0.000    0.000 
#    0.000    0.000    0.000    0.000    0.000    0.000 
#
# Total GULP energy -357684.799350 kJ/mol
# GULP energy per Si atom -5588.824990 kJ/mol
# Density = 1.968011 g / cm^3
# Si number density = 19.725000 Si / 1000 Ang^3
#
#
#
# Elastic Constant Matrix: (Units=GPa)
#
#
# Indices 1 2 3 4 5 6 
#
# 1 37.8691 20.3542 4.2273 0.0000 0.0000 0.0000
# 2 20.3542 51.1336 9.2677 0.0000 0.0000 0.0000
# 3 4.2273 9.2677 74.5679 0.0000 0.0000 0.0000
# 4 0.0000 0.0000 0.0000 39.7494 0.0000 0.0000
# 5 0.0000 0.0000 0.0000 0.0000 20.2691 0.0000
# 6 0.0000 0.0000 0.0000 0.0000 0.0000 21.8174
#
#
#
# Elastic Compliance Matrix: (Units=1/GPa)
#
#
# Indices 1 2 3 4 5 6 
#
# 1 0.033599 -0.013329 -0.000248 0.000000 0.000000 0.000000
# 2 -0.013329 0.025295 -0.002388 0.000000 0.000000 0.000000
# 3 -0.000248 -0.002388 0.013721 0.000000 0.000000 0.000000
# 4 0.000000 0.000000 0.000000 0.025158 0.000000 0.000000
# 5 0.000000 0.000000 0.000000 0.000000 0.049336 0.000000
# 6 0.000000 0.000000 0.000000 0.000000 0.000000 0.045835
#
#
# Mechanical properties :
#
#
# Convention : Reuss Voigt Hill
#
# Bulk Modulus (GPa) = 24.57946 25.69654 25.13800
# Shear Modulus (GPa) = 20.96991 25.01530 22.99261
#
# Velocity S-wave (km/s) = 3.26408 3.56505 3.41788
# Velocity P-wave (km/s) = 5.16660 5.47739 5.32426
#
# Compressibility (1/GPa) = 0.04068437
#
# Stress axis : x y z
#
# Youngs Moduli (GPa) = 29.76301 39.53301 72.87848
#
# Poissons Ratio (x) = 0.52695 0.01808
# Poissons Ratio (y) = 0.39672 0.17405
# Poissons Ratio (z) = 0.00738 0.09441
#
# Static dielectric constant tensor:
#      x y z
#    x 1.712760 0.000000 0.000000 
#    y 0.000000 1.659000 0.000000 
#    z 0.000000 0.000000 1.656880 
# 
# From -- ./inp_files/15765.got.cif
#   From: 2010.05.17/outbox.cif.g08.bks.cpg/sg62_8_cif.got.tgz:15765.got - 2010.06.03 15:25:27.
