data_PCOD9464667
_publ_section_title
;
Structure prediction by ZEFSAII (Michael W. Deem and Ramdas Pophale) SiO2 
 PCOD9464667
Probable space group: P N M A
;
_chemical_formula_sum "Si O2"
_cell_formula_units_Z 64
_cell_length_a 28.943363
_cell_length_b 7.488616
_cell_length_c 13.134140
_cell_angle_alpha 90.000000
_cell_angle_beta 90.000000
_cell_angle_gamma 90.000000
_cell_volume 2846.768779
_symmetry_space_group_name_H-M "P N M A"
_symmetry_group_IT_number 62
_symmetry_cell_setting 'orthorhombic'
loop_
_space_group_symop_operation_xyz
x,y,z
1/2-x,-y,1/2+z
1/2+x,1/2-y,1/2-z
-x,1/2+y,-z
-x,-y,-z
1/2+x,y,1/2-z
1/2-x,1/2+y,1/2+z
x,1/2-y,z
loop_
_atom_site_type_symbol
_atom_site_label
_atom_site_fract_x
_atom_site_fract_y
_atom_site_fract_z
Si Si1 0.932779 0.033840 0.753316
Si Si2 0.516644 0.463617 0.885649
Si Si3 0.362132 0.954658 0.383927
Si Si4 0.700227 0.466580 0.995185
Si Si5 0.669589 0.040643 0.211077
Si Si6 0.446285 0.037855 0.516446
Si Si7 0.802983 0.959679 0.930556
Si Si8 0.879570 0.530809 0.340860
O O1 0.933571 0.250000 0.754179
O O2 0.932503 0.973352 0.870712
O O3 0.978060 0.969638 0.693600
O O4 0.885550 0.975725 0.700099
O O5 0.518280 0.250000 0.872790
O O6 0.568405 0.529958 0.865159
O O7 0.500000 0.500000 0.000000
O O8 0.346331 0.750000 0.370799
O O9 0.330099 0.037320 0.471997
O O10 0.363835 0.031971 0.270970
O O11 0.413613 0.956074 0.430637
O O12 0.699736 0.250000 0.996753
O O13 0.748733 0.524165 0.948610
O O14 0.657175 0.523774 0.925903
O O15 0.693962 0.533083 0.110693
O O16 0.681882 0.250000 0.214559
O O17 0.683030 0.962498 0.320965
O O18 0.439086 0.250000 0.512610
O O19 0.500000 0.000000 0.500000
O O20 0.816233 0.750000 0.927295
O O21 0.880423 0.750000 0.339481
#
# Coordination Sequence:
#
# PCOD9464667 Si02
#       8
#     8   8   8   8   8   8   8   8
#     4  10  21  36  57  85 114 149 191 238 285 340
#     4  10  20  36  57  82 114 150 192 234 279 335
#     4  10  20  38  60  81 112 149 188 233 288 344
#     4  10  22  38  60  85 112 151 196 236 284 348
#     4  10  21  39  60  85 115 148 189 239 291 341
#     4  11  22  36  56  84 115 150 191 232 282 338
#     4  10  22  38  58  85 114 148 186 237 299 344
#     4   9  19  37  59  83 113 154 193 229 279 345
#
# _framework density 22.481629999999999
#
# number of rings (size 3 to 8) (size 9 to 14) (size 15 to 20)
#    0.000    2.000    1.250    1.875    1.750    5.500 
#    0.000    3.125    0.000    0.000    0.000    0.000 
#    0.000    0.000    0.000    0.000    0.000    0.000 
#
# Total GULP energy -357799.157444 kJ/mol
# GULP energy per Si atom -5590.611835 kJ/mol
# Density = 2.243046 g / cm^3
# Si number density = 22.481630 Si / 1000 Ang^3
#
#
#
# Elastic Constant Matrix: (Units=GPa)
#
#
# Indices 1 2 3 4 5 6 
#
# 1 127.0788 -12.0411 59.2267 0.0000 0.0000 0.0000
# 2 -12.0411 65.4710 9.1148 0.0000 0.0000 0.0000
# 3 59.2267 9.1148 162.3629 0.0000 0.0000 0.0000
# 4 0.0000 0.0000 0.0000 3.5386 0.0000 0.0000
# 5 0.0000 0.0000 0.0000 0.0000 40.5743 0.0000
# 6 0.0000 0.0000 0.0000 0.0000 0.0000 25.1679
#
#
#
# Elastic Compliance Matrix: (Units=1/GPa)
#
#
# Indices 1 2 3 4 5 6 
#
# 1 0.009819 0.002323 -0.003712 0.000000 0.000000 0.000000
# 2 0.002323 0.015944 -0.001742 0.000000 0.000000 0.000000
# 3 -0.003712 -0.001742 0.007611 0.000000 0.000000 0.000000
# 4 0.000000 0.000000 0.000000 0.282598 0.000000 0.000000
# 5 0.000000 0.000000 0.000000 0.000000 0.024646 0.000000
# 6 0.000000 0.000000 0.000000 0.000000 0.000000 0.039733
#
#
# Mechanical properties :
#
#
# Convention : Reuss Voigt Hill
#
# Bulk Modulus (GPa) = 36.88636 51.94595 44.41615
# Shear Modulus (GPa) = 12.63737 33.76365 23.20051
#
# Velocity S-wave (km/s) = 2.37348 3.87955 3.21592
# Velocity P-wave (km/s) = 4.89430 6.57450 5.79561
#
# Compressibility (1/GPa) = 0.02711030
#
# Stress axis : x y z
#
# Youngs Moduli (GPa) = 101.83939 62.72077 131.38831
#
# Poissons Ratio (x) = -0.14568 0.48775
# Poissons Ratio (y) = -0.23655 0.22892
# Poissons Ratio (z) = 0.37806 0.10928
#
# Static dielectric constant tensor:
#      x y z
#    x 1.773650 0.000000 0.000000 
#    y 0.000000 1.862030 0.000000 
#    z 0.000000 0.000000 1.825260 
# 
# From -- ./inp_files/15916.got.cif
#   From: 2010.05.17/outbox.cif.g08.bks.cpg/sg62_8_cif.got.tgz:15916.got - 2010.06.03 15:25:27.
