data_PCOD9464114
_publ_section_title
;
Structure prediction by ZEFSAII (Michael W. Deem and Ramdas Pophale) SiO2 
 PCOD9464114
Probable space group: P N M A
;
_chemical_formula_sum "Si O2"
_cell_formula_units_Z 56
_cell_length_a 16.647206
_cell_length_b 7.679151
_cell_length_c 21.049455
_cell_angle_alpha 90.000000
_cell_angle_beta 90.000000
_cell_angle_gamma 90.000000
_cell_volume 2690.886730
_symmetry_space_group_name_H-M "P N M A"
_symmetry_group_IT_number 62
_symmetry_cell_setting 'orthorhombic'
loop_
_space_group_symop_operation_xyz
x,y,z
1/2-x,-y,1/2+z
1/2+x,1/2-y,1/2-z
-x,1/2+y,-z
-x,-y,-z
1/2+x,y,1/2-z
1/2-x,1/2+y,1/2+z
x,1/2-y,z
loop_
_atom_site_type_symbol
_atom_site_label
_atom_site_fract_x
_atom_site_fract_y
_atom_site_fract_z
Si Si1 0.844562 0.539952 0.151262
Si Si2 0.752243 0.036367 0.527759
Si Si3 0.992665 0.453825 0.686222
Si Si4 0.067249 0.540419 0.448225
Si Si5 0.524622 0.540470 0.325747
Si Si6 0.188805 0.041088 0.107831
Si Si7 0.176484 0.542979 0.705681
O O1 0.845555 0.750000 0.148546
O O2 0.794725 0.478056 0.090731
O O3 0.808635 0.492395 0.219937
O O4 0.937241 0.478125 0.150980
O O5 0.751303 0.250000 0.527826
O O6 0.844737 0.979638 0.531134
O O7 0.711190 0.977711 0.462413
O O8 0.970704 0.250000 0.686367
O O9 0.089412 0.466701 0.687923
O O10 0.957941 0.529155 0.621165
O O11 0.963050 0.527817 0.753709
O O12 0.071301 0.750000 0.443945
O O13 0.000000 0.500000 0.500000
O O14 0.518854 0.750000 0.321618
O O15 0.598928 0.498630 0.370259
O O16 0.196526 0.250000 0.106683
O O17 0.252972 0.976134 0.160091
O O18 0.169619 0.750000 0.697173
#
# Coordination Sequence:
#
# PCOD9464114 Si02
#       7
#     8   8   8   8   8   8   8
#     4   9  19  37  59  79 102 139 185 227 266 318
#     4   9  19  36  57  78 105 144 185 219 264 324
#     4   9  19  35  55  80 106 137 183 224 263 321
#     4  10  20  35  56  81 110 145 181 221 270 324
#     4   9  19  34  53  80 105 132 179 229 267 309
#     4  10  21  35  52  78 109 143 179 215 267 330
#     4  10  20  34  54  80 111 142 175 220 273 324
#
# _framework density 20.810981999999999
#
# number of rings (size 3 to 8) (size 9 to 14) (size 15 to 20)
#    0.000    2.571    0.000    2.143    2.000    5.714 
#    0.000    2.143    0.000    0.000    0.000    0.000 
#    0.000    0.000    0.000    0.000    0.000    0.000 
#
# Total GULP energy -312653.681396 kJ/mol
# GULP energy per Si atom -5583.101454 kJ/mol
# Density = 2.076362 g / cm^3
# Si number density = 20.810982 Si / 1000 Ang^3
#
#
#
# Elastic Constant Matrix: (Units=GPa)
#
#
# Indices 1 2 3 4 5 6 
#
# 1 68.7698 0.4270 76.1327 0.0000 0.0000 0.0000
# 2 0.4270 34.0241 5.5230 0.0000 0.0000 0.0000
# 3 76.1327 5.5230 158.4131 0.0000 0.0000 0.0000
# 4 0.0000 0.0000 0.0000 11.9180 0.0000 0.0000
# 5 0.0000 0.0000 0.0000 0.0000 35.0609 0.0000
# 6 0.0000 0.0000 0.0000 0.0000 0.0000 -9.9002
#
#
#
# Elastic Compliance Matrix: (Units=1/GPa)
#
#
# Indices 1 2 3 4 5 6 
#
# 1 0.031217 0.002055 -0.015074 0.000000 0.000000 0.000000
# 2 0.002055 0.029694 -0.002023 0.000000 0.000000 0.000000
# 3 -0.015074 -0.002023 0.013628 0.000000 0.000000 0.000000
# 4 0.000000 0.000000 0.000000 0.083906 0.000000 0.000000
# 5 0.000000 0.000000 0.000000 0.000000 0.028522 0.000000
# 6 0.000000 0.000000 0.000000 0.000000 0.000000 -0.101008
#
#
# Mechanical properties :
#
#
# Convention : Reuss Voigt Hill
#
# Bulk Modulus (GPa) = 22.49521 47.26361 34.87941
# Shear Modulus (GPa) = 38.20869 19.35737 28.78303
#
# Velocity S-wave (km/s) = 4.28949 3.05315 3.72300
# Velocity P-wave (km/s) = 5.94691 5.93204 5.93948
#
# Compressibility (1/GPa) = 0.04445390
#
# Stress axis : x y z
#
# Youngs Moduli (GPa) = 32.03403 33.67737 73.37937
#
# Poissons Ratio (x) = -0.06921 1.10615
# Poissons Ratio (y) = -0.06584 0.14844
# Poissons Ratio (z) = 0.48289 0.06813
#
# Static dielectric constant tensor:
#      x y z
#    x 1.711520 0.000000 0.000000 
#    y 0.000000 1.786740 0.000000 
#    z 0.000000 0.000000 1.740070 
# 
# From -- ./inp_files/27190.got.cif
#   From: 2010.05.17/outbox.cif.g08.bks.cpg/sg62_14_cif.got.tgz:27190.got - 2010.06.03 15:25:27.
