data_PCOD9464476
_publ_section_title
;
Structure prediction by ZEFSAII (Michael W. Deem and Ramdas Pophale) SiO2 
 PCOD9464476
Probable space group: P N M A
;
_chemical_formula_sum "Si O2"
_cell_formula_units_Z 56
_cell_length_a 11.306230
_cell_length_b 12.826162
_cell_length_c 20.515695
_cell_angle_alpha 90.000000
_cell_angle_beta 90.000000
_cell_angle_gamma 90.000000
_cell_volume 2975.094539
_symmetry_space_group_name_H-M "P N M A"
_symmetry_group_IT_number 62
_symmetry_cell_setting 'orthorhombic'
loop_
_space_group_symop_operation_xyz
x,y,z
1/2-x,-y,1/2+z
1/2+x,1/2-y,1/2-z
-x,1/2+y,-z
-x,-y,-z
1/2+x,y,1/2-z
1/2-x,1/2+y,1/2+z
x,1/2-y,z
loop_
_atom_site_type_symbol
_atom_site_label
_atom_site_fract_x
_atom_site_fract_y
_atom_site_fract_z
Si Si1 0.595714 0.023392 0.098107
Si Si2 0.979184 0.482074 0.741805
Si Si3 0.271790 0.873627 0.215268
Si Si4 0.579696 0.630373 0.989120
Si Si5 0.684940 0.869214 0.556154
Si Si6 0.049229 0.130785 0.140162
Si Si7 0.263357 0.474415 0.578451
O O1 0.541837 0.109485 0.048741
O O2 0.732850 0.053039 0.097919
O O3 0.538120 0.023105 0.168391
O O4 0.574430 0.912654 0.062627
O O5 0.104612 0.419761 0.744651
O O6 0.987199 0.577856 0.791944
O O7 0.854943 0.420589 0.758580
O O8 0.269721 0.750000 0.225250
O O9 0.276765 0.901923 0.138121
O O10 0.615871 0.750000 0.985768
O O11 0.663955 0.548676 0.952395
O O12 0.727842 0.750000 0.558883
O O13 0.557866 0.869979 0.589355
O O14 0.684633 0.908948 0.481770
O O15 0.089258 0.250000 0.149453
O O16 0.146374 0.055767 0.109664
#
# Coordination Sequence:
#
# PCOD9464476 Si02
#       7
#     8   8   8   8   8   8   8
#     4  10  21  37  55  84 116 149 190 245 292 358
#     4  11  23  42  60  89 123 163 203 252 299 368
#     4  11  23  40  62  87 119 161 207 253 306 360
#     4  10  20  35  57  85 113 147 188 241 300 350
#     4  10  20  36  59  87 118 155 198 249 307 358
#     4  10  22  38  59  86 120 161 201 245 297 361
#     4  10  20  38  59  86 118 154 199 252 296 362
#
# _framework density 18.822929999999999
#
# number of rings (size 3 to 8) (size 9 to 14) (size 15 to 20)
#    0.000    1.714    1.429    3.000    0.000    2.286 
#    0.000    2.143    0.000    9.429    0.000    0.000 
#    0.000    0.000    0.000    0.000    0.000    0.000 
#
# Total GULP energy -312231.627528 kJ/mol
# GULP energy per Si atom -5575.564777 kJ/mol
# Density = 1.878009 g / cm^3
# Si number density = 18.822930 Si / 1000 Ang^3
#
#
#
# Elastic Constant Matrix: (Units=GPa)
#
#
# Indices 1 2 3 4 5 6 
#
# 1 68.9835 20.1226 17.3245 0.0000 0.0000 0.0000
# 2 20.1226 82.4343 17.8302 0.0000 0.0000 0.0000
# 3 17.3245 17.8302 76.5062 0.0000 0.0000 0.0000
# 4 0.0000 0.0000 0.0000 21.4428 0.0000 0.0000
# 5 0.0000 0.0000 0.0000 0.0000 24.9180 0.0000
# 6 0.0000 0.0000 0.0000 0.0000 0.0000 23.8655
#
#
#
# Elastic Compliance Matrix: (Units=1/GPa)
#
#
# Indices 1 2 3 4 5 6 
#
# 1 0.016193 -0.003327 -0.002891 0.000000 0.000000 0.000000
# 2 -0.003327 0.013459 -0.002383 0.000000 0.000000 0.000000
# 3 -0.002891 -0.002383 0.014281 0.000000 0.000000 0.000000
# 4 0.000000 0.000000 0.000000 0.046636 0.000000 0.000000
# 5 0.000000 0.000000 0.000000 0.000000 0.040132 0.000000
# 6 0.000000 0.000000 0.000000 0.000000 0.000000 0.041901
#
#
# Mechanical properties :
#
#
# Convention : Reuss Voigt Hill
#
# Bulk Modulus (GPa) = 37.41289 37.60873 37.51081
# Shear Modulus (GPa) = 25.16172 25.55505 25.35839
#
# Velocity S-wave (km/s) = 3.66014 3.68863 3.67441
# Velocity P-wave (km/s) = 6.14667 6.17778 6.16225
#
# Compressibility (1/GPa) = 0.02672876
#
# Stress axis : x y z
#
# Youngs Moduli (GPa) = 61.75527 74.30213 70.02327
#
# Poissons Ratio (x) = 0.24723 0.20246
# Poissons Ratio (y) = 0.20548 0.16687
# Poissons Ratio (z) = 0.17856 0.17707
#
# Static dielectric constant tensor:
#      x y z
#    x 1.719260 0.000000 0.000000 
#    y 0.000000 1.618360 0.000000 
#    z 0.000000 0.000000 1.643330 
# 
# From -- ./inp_files/26631.got.cif
#   From: 2010.05.17/outbox.cif.g08.bks.cpg/sg62_14_cif.got.tgz:26631.got - 2010.06.03 15:25:27.
