data_PCOD9464647
_publ_section_title
;
Structure prediction by ZEFSAII (Michael W. Deem and Ramdas Pophale) SiO2 
 PCOD9464647
Probable space group: P N M A
;
_chemical_formula_sum "Si O2"
_cell_formula_units_Z 40
_cell_length_a 24.729277
_cell_length_b 7.456446
_cell_length_c 8.448304
_cell_angle_alpha 90.000000
_cell_angle_beta 90.000000
_cell_angle_gamma 90.000000
_cell_volume 1557.804052
_symmetry_space_group_name_H-M "P N M A"
_symmetry_group_IT_number 62
_symmetry_cell_setting 'orthorhombic'
loop_
_space_group_symop_operation_xyz
x,y,z
1/2-x,-y,1/2+z
1/2+x,1/2-y,1/2-z
-x,1/2+y,-z
-x,-y,-z
1/2+x,y,1/2-z
1/2-x,1/2+y,1/2+z
x,1/2-y,z
loop_
_atom_site_type_symbol
_atom_site_label
_atom_site_fract_x
_atom_site_fract_y
_atom_site_fract_z
Si Si1 0.829660 0.541926 0.338545
Si Si2 0.030097 0.962508 0.335622
Si Si3 0.869523 0.955807 0.841097
Si Si4 0.070605 0.029810 0.849014
Si Si5 0.270864 0.968067 0.850097
O O1 0.838639 0.750000 0.375420
O O2 0.887519 0.469177 0.287273
O O3 0.796843 0.465234 0.486411
O O4 0.789195 0.529242 0.189496
O O5 0.036225 0.750000 0.321675
O O6 0.989174 0.029631 0.198322
O O7 0.089298 0.041340 0.307628
O O8 0.000000 0.000000 0.500000
O O9 0.858794 0.750000 0.883498
O O10 0.812430 0.032768 0.786310
O O11 0.903189 0.034321 0.987139
O O12 0.069349 0.250000 0.850410
O O13 0.270051 0.750000 0.851075
#
# Coordination Sequence:
#
# PCOD9464647 Si02
#       5
#     8   8   8   8   8
#     4  10  20  36  57  80 108 143 183 223 267 323
#     4  11  22  37  57  82 112 145 183 224 271 325
#     4  10  20  37  59  81 108 142 180 223 275 327
#     4   9  19  36  58  81 107 142 180 224 276 325
#     4  10  21  36  56  82 111 144 181 224 274 324
#
# _framework density 25.677171000000001
#
# number of rings (size 3 to 8) (size 9 to 14) (size 15 to 20)
#    0.000    2.000    0.000    3.600    0.000    6.400 
#    0.000    6.000    0.000    0.000    0.000    0.000 
#    0.000    0.000    0.000    0.000    0.000    0.000 
#
# Total GULP energy -223856.120325 kJ/mol
# GULP energy per Si atom -5596.403008 kJ/mol
# Density = 2.561873 g / cm^3
# Si number density = 25.677171 Si / 1000 Ang^3
#
#
#
# Elastic Constant Matrix: (Units=GPa)
#
#
# Indices 1 2 3 4 5 6 
#
# 1 118.2050 -5.9599 -11.4937 0.0000 0.0000 0.0000
# 2 -5.9599 93.5137 -5.5036 0.0000 0.0000 0.0000
# 3 -11.4937 -5.5036 68.7426 0.0000 0.0000 0.0000
# 4 0.0000 0.0000 0.0000 12.1735 0.0000 0.0000
# 5 0.0000 0.0000 0.0000 0.0000 46.6736 0.0000
# 6 0.0000 0.0000 0.0000 0.0000 0.0000 13.8555
#
#
#
# Elastic Compliance Matrix: (Units=1/GPa)
#
#
# Indices 1 2 3 4 5 6 
#
# 1 0.008637 0.000638 0.001495 0.000000 0.000000 0.000000
# 2 0.000638 0.010791 0.000971 0.000000 0.000000 0.000000
# 3 0.001495 0.000971 0.014875 0.000000 0.000000 0.000000
# 4 0.000000 0.000000 0.000000 0.082146 0.000000 0.000000
# 5 0.000000 0.000000 0.000000 0.000000 0.021425 0.000000
# 6 0.000000 0.000000 0.000000 0.000000 0.000000 0.072174
#
#
# Mechanical properties :
#
#
# Convention : Reuss Voigt Hill
#
# Bulk Modulus (GPa) = 24.68362 26.06077 25.37220
# Shear Modulus (GPa) = 23.00506 34.76841 28.88674
#
# Velocity S-wave (km/s) = 2.99646 3.68375 3.35774
# Velocity P-wave (km/s) = 4.64819 5.31646 4.99352
#
# Compressibility (1/GPa) = 0.04051269
#
# Stress axis : x y z
#
# Youngs Moduli (GPa) = 115.77473 92.66596 67.22800
#
# Poissons Ratio (x) = -0.05917 -0.10053
# Poissons Ratio (y) = -0.07392 -0.06526
# Poissons Ratio (z) = -0.17312 -0.08995
#
# Static dielectric constant tensor:
#      x y z
#    x 1.935140 0.000000 0.000000 
#    y 0.000000 1.957670 0.000000 
#    z 0.000000 0.000000 2.096300 
# 
# From -- ./inp_files/9062.got.cif
#   From: 2010.05.17/outbox.cif.g08.bks.cpg/sg62_5_cif.got.tgz:9062.got - 2010.06.03 15:25:27.
