data_PCOD9464615
_publ_section_title
;
Structure prediction by ZEFSAII (Michael W. Deem and Ramdas Pophale) SiO2 
 PCOD9464615
Probable space group: P N M A
;
_chemical_formula_sum "Si O2"
_cell_formula_units_Z 48
_cell_length_a 15.277849
_cell_length_b 8.786214
_cell_length_c 20.345865
_cell_angle_alpha 90.000000
_cell_angle_beta 90.000000
_cell_angle_gamma 90.000000
_cell_volume 2731.116014
_symmetry_space_group_name_H-M "P N M A"
_symmetry_group_IT_number 62
_symmetry_cell_setting 'orthorhombic'
loop_
_space_group_symop_operation_xyz
x,y,z
1/2-x,-y,1/2+z
1/2+x,1/2-y,1/2-z
-x,1/2+y,-z
-x,-y,-z
1/2+x,y,1/2-z
1/2-x,1/2+y,1/2+z
x,1/2-y,z
loop_
_atom_site_type_symbol
_atom_site_label
_atom_site_fract_x
_atom_site_fract_y
_atom_site_fract_z
Si Si1 0.620279 0.433842 0.188191
Si Si2 0.986335 0.433153 0.196497
Si Si3 0.722682 0.567228 0.517748
Si Si4 0.565254 0.432219 0.445621
Si Si5 0.919574 0.932295 0.539363
Si Si6 0.305191 0.931416 0.337699
O O1 0.631688 0.250000 0.188634
O O2 0.551842 0.475076 0.244743
O O3 0.584009 0.477577 0.116132
O O4 0.715522 0.509081 0.194938
O O5 0.974012 0.250000 0.198102
O O6 0.892047 0.511912 0.198988
O O7 0.030909 0.472307 0.126720
O O8 0.714777 0.750000 0.519369
O O9 0.660187 0.498378 0.462694
O O10 0.824616 0.525571 0.509982
O O11 0.693457 0.503562 0.588925
O O12 0.500000 0.500000 0.500000
O O13 0.566254 0.250000 0.451333
O O14 0.925819 0.750000 0.537482
O O15 0.000000 0.000000 0.500000
O O16 0.304274 0.750000 0.342805
#
# Coordination Sequence:
#
# PCOD9464615 Si02
#       6
#     8   8   8   8   8   8
#     4   9  20  40  60  79 108 149 191 226 271 336
#     4  10  21  38  59  80 110 150 189 229 275 336
#     4  10  20  36  56  79 111 149 186 226 274 335
#     4  11  21  33  55  86 114 145 185 230 279 328
#     4   9  19  36  59  82 106 142 185 229 276 324
#     4  11  21  34  57  84 110 144 183 230 282 329
#
# _framework density 17.575232
#
# number of rings (size 3 to 8) (size 9 to 14) (size 15 to 20)
#    0.000    2.000    1.667    3.500    0.000    4.667 
#    3.000    0.000    0.000    0.000    0.000    0.000 
#    0.000    0.000    0.000    0.000    0.000    0.000 
#
# Total GULP energy -267981.932643 kJ/mol
# GULP energy per Si atom -5582.956930 kJ/mol
# Density = 1.753523 g / cm^3
# Si number density = 17.575232 Si / 1000 Ang^3
#
#
#
# Elastic Constant Matrix: (Units=GPa)
#
#
# Indices 1 2 3 4 5 6 
#
# 1 182.6211 59.8475 97.1405 0.0000 0.0000 0.0000
# 2 59.8475 49.3844 39.8511 0.0000 0.0000 0.0000
# 3 97.1405 39.8511 93.4274 0.0000 0.0000 0.0000
# 4 0.0000 0.0000 0.0000 23.4016 0.0000 0.0000
# 5 0.0000 0.0000 0.0000 0.0000 34.4279 0.0000
# 6 0.0000 0.0000 0.0000 0.0000 0.0000 37.1324
#
#
#
# Elastic Compliance Matrix: (Units=1/GPa)
#
#
# Indices 1 2 3 4 5 6 
#
# 1 0.014054 -0.007990 -0.011205 0.000000 0.000000 0.000000
# 2 -0.007990 0.035420 -0.006800 0.000000 0.000000 0.000000
# 3 -0.011205 -0.006800 0.025254 0.000000 0.000000 0.000000
# 4 0.000000 0.000000 0.000000 0.042732 0.000000 0.000000
# 5 0.000000 0.000000 0.000000 0.000000 0.029046 0.000000
# 6 0.000000 0.000000 0.000000 0.000000 0.000000 0.026931
#
#
# Mechanical properties :
#
#
# Convention : Reuss Voigt Hill
#
# Bulk Modulus (GPa) = 43.97957 79.90123 61.94040
# Shear Modulus (GPa) = 21.45845 27.56530 24.51187
#
# Velocity S-wave (km/s) = 3.49800 3.96462 3.73860
# Velocity P-wave (km/s) = 6.43371 8.15590 7.34545
#
# Compressibility (1/GPa) = 0.02273783
#
# Stress axis : x y z
#
# Youngs Moduli (GPa) = 71.15185 28.23240 39.59731
#
# Poissons Ratio (x) = 0.22559 0.44368
# Poissons Ratio (y) = 0.56853 0.26928
# Poissons Ratio (z) = 0.79724 0.19199
#
# Static dielectric constant tensor:
#      x y z
#    x 1.597800 0.000000 0.000000 
#    y 0.000000 1.598860 0.000000 
#    z 0.000000 0.000000 1.579920 
# 
# From -- ./inp_files/26864.got.cif
#   From: 2010.05.17/outbox.cif.g08.bks.cpg/sg62_14_cif.got.tgz:26864.got - 2010.06.03 15:25:27.
