data_PCOD9464842
_publ_section_title
;
Structure prediction by ZEFSAII (Michael W. Deem and Ramdas Pophale) SiO2 
 PCOD9464842
Probable space group: P N M A
;
_chemical_formula_sum "Si O2"
_cell_formula_units_Z 32
_cell_length_a 10.645410
_cell_length_b 13.118902
_cell_length_c 12.040157
_cell_angle_alpha 90.000000
_cell_angle_beta 90.000000
_cell_angle_gamma 90.000000
_cell_volume 1681.481256
_symmetry_space_group_name_H-M "P N M A"
_symmetry_group_IT_number 62
_symmetry_cell_setting 'orthorhombic'
loop_
_space_group_symop_operation_xyz
x,y,z
1/2-x,-y,1/2+z
1/2+x,1/2-y,1/2-z
-x,1/2+y,-z
-x,-y,-z
1/2+x,y,1/2-z
1/2-x,1/2+y,1/2+z
x,1/2-y,z
loop_
_atom_site_type_symbol
_atom_site_label
_atom_site_fract_x
_atom_site_fract_y
_atom_site_fract_z
Si Si1 0.562991 0.931957 0.406781
Si Si2 0.842972 0.871932 0.475304
Si Si3 0.840073 0.250000 0.653377
Si Si4 0.572564 0.250000 0.682712
Si Si5 0.573230 0.962884 0.147710
O O1 0.696819 0.888844 0.447719
O O2 0.457485 0.846464 0.390333
O O3 0.584891 0.973236 0.280783
O O4 0.500000 0.000000 0.500000
O O5 0.869569 0.750000 0.482886
O O6 0.930825 0.929628 0.384239
O O7 0.882055 0.935351 0.585703
O O8 0.713329 0.250000 0.725066
O O9 0.848893 0.136875 0.601398
O O10 0.963321 0.250000 0.727892
#
# Coordination Sequence:
#
# PCOD9464842 Si02
#       5
#     8   8   4   4   8
#     4  11  24  39  66  93 129 164 220 264 325 379
#     4  11  23  43  64  97 129 174 211 267 328 389
#     4  10  20  36  64  93 123 158 224 261 322 368
#     4  10  22  34  62  93 121 162 208 271 306 378
#     4  10  24  39  69  93 130 167 216 269 323 387
#
# _framework density 19.030839
#
# number of rings (size 3 to 8) (size 9 to 14) (size 15 to 20)
#    0.000    1.500    2.500    1.500   17.500    0.000 
#    2.250    0.000    0.000    0.000    0.000    0.000 
#    0.000    0.000    0.000    0.000    0.000    0.000 
#
# Total GULP energy -178158.195045 kJ/mol
# GULP energy per Si atom -5567.443595 kJ/mol
# Density = 1.898752 g / cm^3
# Si number density = 19.030839 Si / 1000 Ang^3
#
#
#
# Elastic Constant Matrix: (Units=GPa)
#
#
# Indices 1 2 3 4 5 6 
#
# 1 123.7510 27.7450 16.9113 0.0000 0.0000 0.0000
# 2 27.7450 123.6463 68.3916 0.0000 0.0000 0.0000
# 3 16.9113 68.3916 106.2870 0.0000 0.0000 0.0000
# 4 0.0000 0.0000 0.0000 37.6514 0.0000 0.0000
# 5 0.0000 0.0000 0.0000 0.0000 22.7129 0.0000
# 6 0.0000 0.0000 0.0000 0.0000 0.0000 23.3421
#
#
#
# Elastic Compliance Matrix: (Units=1/GPa)
#
#
# Indices 1 2 3 4 5 6 
#
# 1 0.008511 -0.001802 -0.000195 0.000000 0.000000 0.000000
# 2 -0.001802 0.012938 -0.008039 0.000000 0.000000 0.000000
# 3 -0.000195 -0.008039 0.014612 0.000000 0.000000 0.000000
# 4 0.000000 0.000000 0.000000 0.026559 0.000000 0.000000
# 5 0.000000 0.000000 0.000000 0.000000 0.044028 0.000000
# 6 0.000000 0.000000 0.000000 0.000000 0.000000 0.042841
#
#
# Mechanical properties :
#
#
# Convention : Reuss Voigt Hill
#
# Bulk Modulus (GPa) = 62.53553 64.42001 63.47777
# Shear Modulus (GPa) = 28.58924 32.78370 30.68647
#
# Velocity S-wave (km/s) = 3.88010 4.15500 4.01990
# Velocity P-wave (km/s) = 7.28046 7.54603 7.41443
#
# Compressibility (1/GPa) = 0.01599091
#
# Stress axis : x y z
#
# Youngs Moduli (GPa) = 117.48950 77.28999 68.43729
#
# Poissons Ratio (x) = 0.13930 0.01332
# Poissons Ratio (y) = 0.21175 0.55013
# Poissons Ratio (z) = 0.02286 0.62130
#
# Static dielectric constant tensor:
#      x y z
#    x 1.672670 0.000000 0.000000 
#    y 0.000000 1.773800 0.000000 
#    z 0.000000 0.000000 1.693360 
# 
# From -- ./inp_files/10963.got.cif
#   From: 2010.05.17/outbox.cif.g08.bks.cpg/sg62_6_cif.got.tgz:10963.got - 2010.06.03 15:25:27.
