data_PCOD9464506
_publ_section_title
;
Structure prediction by ZEFSAII (Michael W. Deem and Ramdas Pophale) SiO2 
 PCOD9464506
Probable space group: P N M A
;
_chemical_formula_sum "Si O2"
_cell_formula_units_Z 32
_cell_length_a 12.852792
_cell_length_b 8.510673
_cell_length_c 14.792132
_cell_angle_alpha 90.000000
_cell_angle_beta 90.000000
_cell_angle_gamma 90.000000
_cell_volume 1618.050817
_symmetry_space_group_name_H-M "P N M A"
_symmetry_group_IT_number 62
_symmetry_cell_setting 'orthorhombic'
loop_
_space_group_symop_operation_xyz
x,y,z
1/2-x,-y,1/2+z
1/2+x,1/2-y,1/2-z
-x,1/2+y,-z
-x,-y,-z
1/2+x,y,1/2-z
1/2-x,1/2+y,1/2+z
x,1/2-y,z
loop_
_atom_site_type_symbol
_atom_site_label
_atom_site_fract_x
_atom_site_fract_y
_atom_site_fract_z
Si Si1 0.093151 0.439257 0.436589
Si Si2 0.230299 0.440096 0.594889
Si Si3 0.954961 0.061827 0.279033
Si Si4 0.534030 0.562127 0.402915
O O1 0.092940 0.250000 0.435073
O O2 0.195260 0.487919 0.492540
O O3 0.000000 0.500000 0.500000
O O4 0.057573 0.491320 0.336922
O O5 0.226106 0.250000 0.599069
O O6 0.145787 0.505084 0.665347
O O7 0.347131 0.492118 0.614312
O O8 0.953529 0.250000 0.276279
O O9 0.962612 0.996885 0.178605
O O10 0.500000 0.500000 0.500000
O O11 0.533303 0.750000 0.404381
#
# Coordination Sequence:
#
# PCOD9464506 Si02
#       4
#     8   8   8   8
#     4   8  15  30  53  80 107 136 176 225 275 327
#     4   9  19  37  59  83 113 149 188 233 283 334
#     4  10  20  35  58  86 114 148 190 236 286 342
#     4  11  24  40  57  81 115 153 193 238 287 339
#
# _framework density 19.776882000000001
#
# number of rings (size 3 to 8) (size 9 to 14) (size 15 to 20)
#    0.000    2.500    0.000    1.500    0.000    5.000 
#    0.000    2.500    0.000    0.000    0.000    0.000 
#    0.000    0.000    0.000    0.000    0.000    0.000 
#
# Total GULP energy -178388.507406 kJ/mol
# GULP energy per Si atom -5574.640856 kJ/mol
# Density = 1.973187 g / cm^3
# Si number density = 19.776882 Si / 1000 Ang^3
#
#
#
# Elastic Constant Matrix: (Units=GPa)
#
#
# Indices 1 2 3 4 5 6 
#
# 1 85.5461 23.4689 48.5649 0.0000 0.0000 0.0000
# 2 23.4689 26.0363 28.2056 0.0000 0.0000 0.0000
# 3 48.5649 28.2056 157.7077 0.0000 0.0000 0.0000
# 4 0.0000 0.0000 0.0000 27.2677 0.0000 0.0000
# 5 0.0000 0.0000 0.0000 0.0000 24.7667 0.0000
# 6 0.0000 0.0000 0.0000 0.0000 0.0000 19.3865
#
#
#
# Elastic Compliance Matrix: (Units=1/GPa)
#
#
# Indices 1 2 3 4 5 6 
#
# 1 0.016617 -0.011702 -0.003024 0.000000 0.000000 0.000000
# 2 -0.011702 0.055879 -0.006390 0.000000 0.000000 0.000000
# 3 -0.003024 -0.006390 0.008415 0.000000 0.000000 0.000000
# 4 0.000000 0.000000 0.000000 0.036673 0.000000 0.000000
# 5 0.000000 0.000000 0.000000 0.000000 0.040377 0.000000
# 6 0.000000 0.000000 0.000000 0.000000 0.000000 0.051582
#
#
# Mechanical properties :
#
#
# Convention : Reuss Voigt Hill
#
# Bulk Modulus (GPa) = 25.85479 52.19655 39.02567
# Shear Modulus (GPa) = 18.89157 25.55423 22.22290
#
# Velocity S-wave (km/s) = 3.09404 3.59852 3.35577
# Velocity P-wave (km/s) = 5.08584 6.61179 5.89837
#
# Compressibility (1/GPa) = 0.03867755
#
# Stress axis : x y z
#
# Youngs Moduli (GPa) = 60.18002 17.89591 118.83591
#
# Poissons Ratio (x) = 0.20942 0.35937
# Poissons Ratio (y) = 0.70424 0.75938
# Poissons Ratio (z) = 0.18199 0.11436
#
# Static dielectric constant tensor:
#      x y z
#    x 1.721940 0.000000 0.000000 
#    y 0.000000 1.690100 0.000000 
#    z 0.000000 0.000000 1.706350 
# 
# From -- ./inp_files/12750.got.cif
#   From: 2010.05.17/outbox.cif.g08.bks.cpg/sg62_7_cif.got.tgz:12750.got - 2010.06.03 15:25:27.
