data_PCOD9464399
_publ_section_title
;
Structure prediction by ZEFSAII (Michael W. Deem and Ramdas Pophale) SiO2 
 PCOD9464399
Probable space group: P N M A
;
_chemical_formula_sum "Si O2"
_cell_formula_units_Z 48
_cell_length_a 13.005661
_cell_length_b 13.910888
_cell_length_c 9.945626
_cell_angle_alpha 90.000000
_cell_angle_beta 90.000000
_cell_angle_gamma 90.000000
_cell_volume 1799.365575
_symmetry_space_group_name_H-M "P N M A"
_symmetry_group_IT_number 62
_symmetry_cell_setting 'orthorhombic'
loop_
_space_group_symop_operation_xyz
x,y,z
1/2-x,-y,1/2+z
1/2+x,1/2-y,1/2-z
-x,1/2+y,-z
-x,-y,-z
1/2+x,y,1/2-z
1/2-x,1/2+y,1/2+z
x,1/2-y,z
loop_
_atom_site_type_symbol
_atom_site_label
_atom_site_fract_x
_atom_site_fract_y
_atom_site_fract_z
Si Si1 0.882306 0.560690 0.373183
Si Si2 0.850551 0.637601 0.658620
Si Si3 0.132337 0.642963 0.723517
Si Si4 0.947598 0.858461 0.113368
Si Si5 0.278472 0.141956 0.923708
Si Si6 0.141041 0.967156 0.174748
O O1 0.900976 0.591698 0.525798
O O2 0.918653 0.461678 0.300086
O O3 0.927796 0.640395 0.274522
O O4 0.757677 0.552123 0.371956
O O5 0.873185 0.750000 0.663021
O O6 0.725663 0.630470 0.670323
O O7 0.881491 0.577737 0.790217
O O8 0.086493 0.750000 0.750281
O O9 0.178904 0.650378 0.572531
O O10 0.958206 0.750000 0.062539
O O11 0.836996 0.899917 0.068710
O O12 0.051834 0.916678 0.090754
O O13 0.269194 0.250000 0.866820
O O14 0.349727 0.082035 0.824202
#
# Coordination Sequence:
#
# PCOD9464399 Si02
#       6
#     8   8   8   8   8   8
#     4  10  20  37  59  83 114 148 192 237 285 334
#     4  10  20  35  56  82 116 153 187 232 285 334
#     4   9  18  35  60  83 112 154 192 225 279 344
#     4  10  21  35  57  89 117 145 191 241 285 332
#     4   9  17  34  59  83 113 148 186 235 280 329
#     4  10  20  36  59  85 112 151 191 233 283 342
#
# _framework density 26.676068999999998
#
# number of rings (size 3 to 8) (size 9 to 14) (size 15 to 20)
#    0.000    2.333    1.667    1.000    0.000    2.667 
#    0.000    4.167    0.000    1.000    0.000    0.000 
#    0.000    0.000    0.000    0.000    0.000    0.000 
#
# Total GULP energy -268086.558088 kJ/mol
# GULP energy per Si atom -5585.136627 kJ/mol
# Density = 2.661535 g / cm^3
# Si number density = 26.676069 Si / 1000 Ang^3
#
#
#
# Elastic Constant Matrix: (Units=GPa)
#
#
# Indices 1 2 3 4 5 6 
#
# 1 97.6705 16.5733 -5.9093 0.0000 0.0000 0.0000
# 2 16.5733 154.0761 -10.2931 0.0000 0.0000 0.0000
# 3 -5.9093 -10.2931 64.1173 0.0000 0.0000 0.0000
# 4 0.0000 0.0000 0.0000 21.9321 0.0000 0.0000
# 5 0.0000 0.0000 0.0000 0.0000 23.6849 0.0000
# 6 0.0000 0.0000 0.0000 0.0000 0.0000 11.3437
#
#
#
# Elastic Compliance Matrix: (Units=1/GPa)
#
#
# Indices 1 2 3 4 5 6 
#
# 1 0.010469 -0.001073 0.000793 0.000000 0.000000 0.000000
# 2 -0.001073 0.006671 0.000972 0.000000 0.000000 0.000000
# 3 0.000793 0.000972 0.015825 0.000000 0.000000 0.000000
# 4 0.000000 0.000000 0.000000 0.045595 0.000000 0.000000
# 5 0.000000 0.000000 0.000000 0.000000 0.042221 0.000000
# 6 0.000000 0.000000 0.000000 0.000000 0.000000 0.088155
#
#
# Mechanical properties :
#
#
# Convention : Reuss Voigt Hill
#
# Bulk Modulus (GPa) = 29.11419 35.17843 32.14631
# Shear Modulus (GPa) = 22.83087 32.42502 27.62795
#
# Velocity S-wave (km/s) = 2.92868 3.49020 3.22169
# Velocity P-wave (km/s) = 4.73010 5.42751 5.09076
#
# Compressibility (1/GPa) = 0.03434751
#
# Stress axis : x y z
#
# Youngs Moduli (GPa) = 95.52423 149.91011 63.18922
#
# Poissons Ratio (x) = 0.16087 -0.05008
# Poissons Ratio (y) = 0.10251 -0.06142
# Poissons Ratio (z) = -0.07571 -0.14571
#
# Static dielectric constant tensor:
#      x y z
#    x 2.119590 0.000000 0.000000 
#    y 0.000000 2.234220 0.000000 
#    z 0.000000 0.000000 2.031720 
# 
# From -- ./inp_files/13292.got.cif
#   From: 2010.05.17/outbox.cif.g08.bks.cpg/sg62_7_cif.got.tgz:13292.got - 2010.06.03 15:25:27.
