data_PCOD9464898
_publ_section_title
;
Structure prediction by ZEFSAII (Michael W. Deem and Ramdas Pophale) SiO2 
 PCOD9464898
Probable space group: P N M A
;
_chemical_formula_sum "Si O2"
_cell_formula_units_Z 48
_cell_length_a 9.394747
_cell_length_b 8.675600
_cell_length_c 31.805329
_cell_angle_alpha 90.000000
_cell_angle_beta 90.000000
_cell_angle_gamma 90.000000
_cell_volume 2592.295473
_symmetry_space_group_name_H-M "P N M A"
_symmetry_group_IT_number 62
_symmetry_cell_setting 'orthorhombic'
loop_
_space_group_symop_operation_xyz
x,y,z
1/2-x,-y,1/2+z
1/2+x,1/2-y,1/2-z
-x,1/2+y,-z
-x,-y,-z
1/2+x,y,1/2-z
1/2-x,1/2+y,1/2+z
x,1/2-y,z
loop_
_atom_site_type_symbol
_atom_site_label
_atom_site_fract_x
_atom_site_fract_y
_atom_site_fract_z
Si Si1 0.911764 0.935120 0.879640
Si Si2 0.580144 0.565420 0.882931
Si Si3 0.575008 0.435370 0.792871
Si Si4 0.409561 0.064165 0.461112
Si Si5 0.090899 0.933923 0.461281
Si Si6 0.589978 0.565753 0.290025
O O1 0.912002 0.750000 0.878290
O O2 0.746831 0.982744 0.886956
O O3 0.011709 0.984352 0.917949
O O4 0.959483 0.996053 0.834241
O O5 0.572255 0.750000 0.887508
O O6 0.532060 0.515553 0.836339
O O7 0.486656 0.486188 0.918576
O O8 0.557187 0.250000 0.797375
O O9 0.742198 0.467188 0.786292
O O10 0.490324 0.488192 0.751717
O O11 0.407539 0.250000 0.462703
O O12 0.500000 0.000000 0.500000
O O13 0.249918 0.000937 0.462651
O O14 0.096098 0.750000 0.464103
O O15 0.000000 0.000000 0.500000
O O16 0.571845 0.750000 0.292384
#
# Coordination Sequence:
#
# PCOD9464898 Si02
#       6
#     8   8   8   8   8   8
#     4   9  20  37  57  81 112 146 185 231 281 334
#     4  10  20  37  59  84 113 148 188 232 281 337
#     4   9  18  33  51  76 108 145 186 230 277 328
#     4  11  23  40  61  87 117 151 190 235 284 339
#     4  12  25  41  61  86 115 149 188 234 284 340
#     4   9  18  32  52  76 107 145 187 230 275 328
#
# _framework density 18.516407999999998
#
# number of rings (size 3 to 8) (size 9 to 14) (size 15 to 20)
#    0.000    2.000    0.000    3.500    0.000    5.333 
#    0.000    1.667    0.000    0.000    0.000    0.000 
#    0.000    0.000    0.000    0.000    0.000    0.000 
#
# Total GULP energy -268115.117743 kJ/mol
# GULP energy per Si atom -5585.731620 kJ/mol
# Density = 1.847426 g / cm^3
# Si number density = 18.516408 Si / 1000 Ang^3
#
#
#
# Elastic Constant Matrix: (Units=GPa)
#
#
# Indices 1 2 3 4 5 6 
#
# 1 111.4044 46.0866 105.3739 0.0000 0.0000 0.0000
# 2 46.0866 61.7091 60.1104 0.0000 0.0000 0.0000
# 3 105.3739 60.1104 197.1270 0.0000 0.0000 0.0000
# 4 0.0000 0.0000 0.0000 37.9189 0.0000 0.0000
# 5 0.0000 0.0000 0.0000 0.0000 42.4195 0.0000
# 6 0.0000 0.0000 0.0000 0.0000 0.0000 26.6336
#
#
#
# Elastic Compliance Matrix: (Units=1/GPa)
#
#
# Indices 1 2 3 4 5 6 
#
# 1 0.019768 -0.006359 -0.008628 0.000000 0.000000 0.000000
# 2 -0.006359 0.025098 -0.004254 0.000000 0.000000 0.000000
# 3 -0.008628 -0.004254 0.010982 0.000000 0.000000 0.000000
# 4 0.000000 0.000000 0.000000 0.026372 0.000000 0.000000
# 5 0.000000 0.000000 0.000000 0.000000 0.023574 0.000000
# 6 0.000000 0.000000 0.000000 0.000000 0.000000 0.037547
#
#
# Mechanical properties :
#
#
# Convention : Reuss Voigt Hill
#
# Bulk Modulus (GPa) = 57.58310 88.15360 72.86835
# Shear Modulus (GPa) = 26.65101 31.97239 29.31170
#
# Velocity S-wave (km/s) = 3.79795 4.15987 3.98302
# Velocity P-wave (km/s) = 7.09919 8.41335 7.78405
#
# Compressibility (1/GPa) = 0.01736621
#
# Stress axis : x y z
#
# Youngs Moduli (GPa) = 50.58795 39.84384 91.05851
#
# Poissons Ratio (x) = 0.25337 0.78562
# Poissons Ratio (y) = 0.32169 0.38736
# Poissons Ratio (z) = 0.43646 0.16950
#
# Static dielectric constant tensor:
#      x y z
#    x 1.620170 0.000000 0.000000 
#    y 0.000000 1.626690 0.000000 
#    z 0.000000 0.000000 1.618870 
# 
# From -- ./inp_files/31937.got.cif
#   From: 2010.05.17/outbox.cif.g08.bks.cpg/sg62_16_cif.got.tgz:31937.got - 2010.06.03 15:25:27.
