data_PCOD9464767
_publ_section_title
;
Structure prediction by ZEFSAII (Michael W. Deem and Ramdas Pophale) SiO2 
 PCOD9464767
Probable space group: P N M A
;
_chemical_formula_sum "Si O2"
_cell_formula_units_Z 48
_cell_length_a 4.999883
_cell_length_b 20.257712
_cell_length_c 20.348102
_cell_angle_alpha 90.000000
_cell_angle_beta 90.000000
_cell_angle_gamma 90.000000
_cell_volume 2060.981722
_symmetry_space_group_name_H-M "P N M A"
_symmetry_group_IT_number 62
_symmetry_cell_setting 'orthorhombic'
loop_
_space_group_symop_operation_xyz
x,y,z
1/2-x,-y,1/2+z
1/2+x,1/2-y,1/2-z
-x,1/2+y,-z
-x,-y,-z
1/2+x,y,1/2-z
1/2-x,1/2+y,1/2+z
x,1/2-y,z
loop_
_atom_site_type_symbol
_atom_site_label
_atom_site_fract_x
_atom_site_fract_y
_atom_site_fract_z
Si Si1 0.738719 0.515123 0.790757
Si Si2 0.334064 0.642903 0.209538
Si Si3 0.460881 0.818714 0.400206
Si Si4 0.794732 0.430296 0.540943
Si Si5 0.411472 0.060448 0.414064
Si Si6 0.692907 0.175140 0.025023
O O1 0.938931 0.534253 0.730540
O O2 0.891080 0.541903 0.854861
O O3 0.710686 0.435748 0.797924
O O4 0.627903 0.661437 0.232241
O O5 0.219739 0.676646 0.145190
O O6 0.314512 0.750000 0.387468
O O7 0.313809 0.888144 0.397308
O O8 0.559409 0.816405 0.475394
O O9 0.814881 0.504042 0.570963
O O10 0.593758 0.438961 0.479880
O O11 0.016080 0.380022 0.513122
O O12 0.285461 0.133712 0.411320
O O13 0.585205 0.250000 0.035406
#
# Coordination Sequence:
#
# PCOD9464767 Si02
#       6
#     8   8   8   8   8   8
#     4  10  22  38  62  90 123 160 204 260 314 363
#     4  10  22  38  55  82 119 165 209 257 298 353
#     4  10  21  36  54  81 121 162 205 249 303 364
#     4  10  20  36  59  89 119 155 201 254 307 363
#     4  10  21  37  60  91 117 156 206 254 309 372
#     4  10  22  37  59  89 121 160 198 255 321 374
#
# _framework density 23.289874000000001
#
# number of rings (size 3 to 8) (size 9 to 14) (size 15 to 20)
#    0.000    2.000    1.667    1.000    4.667    2.667 
#    0.000    0.000    0.000    1.000    0.000    0.000 
#    0.000    0.000    0.000    0.000    0.000    0.000 
#
# Total GULP energy -267754.207461 kJ/mol
# GULP energy per Si atom -5578.212655 kJ/mol
# Density = 2.323687 g / cm^3
# Si number density = 23.289874 Si / 1000 Ang^3
#
#
#
# Elastic Constant Matrix: (Units=GPa)
#
#
# Indices 1 2 3 4 5 6 
#
# 1 63.4028 22.7822 6.5797 0.0000 0.0000 0.0000
# 2 22.7822 153.0962 36.3823 0.0000 0.0000 0.0000
# 3 6.5797 36.3823 61.9112 0.0000 0.0000 0.0000
# 4 0.0000 0.0000 0.0000 -3.9992 0.0000 0.0000
# 5 0.0000 0.0000 0.0000 0.0000 34.7723 0.0000
# 6 0.0000 0.0000 0.0000 0.0000 0.0000 15.2506
#
#
#
# Elastic Compliance Matrix: (Units=1/GPa)
#
#
# Indices 1 2 3 4 5 6 
#
# 1 0.016670 -0.002394 -0.000365 0.000000 0.000000 0.000000
# 2 -0.002394 0.007936 -0.004409 0.000000 0.000000 0.000000
# 3 -0.000365 -0.004409 0.018782 0.000000 0.000000 0.000000
# 4 0.000000 0.000000 0.000000 -0.250049 0.000000 0.000000
# 5 0.000000 0.000000 0.000000 0.000000 0.028759 0.000000
# 6 0.000000 0.000000 0.000000 0.000000 0.000000 0.065571
#
#
# Mechanical properties :
#
#
# Convention : Reuss Voigt Hill
#
# Bulk Modulus (GPa) = 34.42073 45.54428 39.98250
# Shear Modulus (GPa) = -56.61800 23.38247 -16.61777
#
# Velocity S-wave (km/s) = -4.93588 3.17199 -2.67408
# Velocity P-wave (km/s) = 4.20387 5.74572 2.76954
#
# Compressibility (1/GPa) = 0.02905226
#
# Stress axis : x y z
#
# Youngs Moduli (GPa) = 59.98704 126.00983 53.24255
#
# Poissons Ratio (x) = 0.30167 0.01942
# Poissons Ratio (y) = 0.14361 0.23475
# Poissons Ratio (z) = 0.02188 0.55559
#
# Static dielectric constant tensor:
#      x y z
#    x 1.989820 0.000000 0.000000 
#    y 0.000000 1.951990 0.000000 
#    z 0.000000 0.000000 1.904150 
# 
# From -- ./inp_files/25305.got.cif
#   From: 2010.05.17/outbox.cif.g08.bks.cpg/sg62_13_cif.got.tgz:25305.got - 2010.06.03 15:25:27.
