data_PCOD9464938
_publ_section_title
;
Structure prediction by ZEFSAII (Michael W. Deem and Ramdas Pophale) SiO2 
 PCOD9464938
Probable space group: P N M A
;
_chemical_formula_sum "Si O2"
_cell_formula_units_Z 64
_cell_length_a 8.495088
_cell_length_b 17.171566
_cell_length_c 18.986614
_cell_angle_alpha 90.000000
_cell_angle_beta 90.000000
_cell_angle_gamma 90.000000
_cell_volume 2769.652652
_symmetry_space_group_name_H-M "P N M A"
_symmetry_group_IT_number 62
_symmetry_cell_setting 'orthorhombic'
loop_
_space_group_symop_operation_xyz
x,y,z
1/2-x,-y,1/2+z
1/2+x,1/2-y,1/2-z
-x,1/2+y,-z
-x,-y,-z
1/2+x,y,1/2-z
1/2-x,1/2+y,1/2+z
x,1/2-y,z
loop_
_atom_site_type_symbol
_atom_site_label
_atom_site_fract_x
_atom_site_fract_y
_atom_site_fract_z
Si Si1 0.606968 0.916083 0.672466
Si Si2 0.856640 0.561702 0.005613
Si Si3 0.973956 0.951575 0.275436
Si Si4 0.891624 0.160270 0.923870
Si Si5 0.301404 0.579693 0.960063
Si Si6 0.377450 0.412853 0.116606
Si Si7 0.309339 0.664935 0.728496
Si Si8 0.205989 0.660001 0.237449
O O1 0.660566 0.899949 0.593684
O O2 0.768964 0.900096 0.714340
O O3 0.475676 0.854041 0.694325
O O4 0.541155 0.997673 0.702906
O O5 0.712556 0.514254 0.040635
O O6 0.938617 0.629710 0.049305
O O7 0.780000 0.579839 0.930440
O O8 0.000000 0.500000 0.000000
O O9 0.882429 0.869283 0.274705
O O10 0.145433 0.914046 0.282843
O O11 0.913589 0.009749 0.336601
O O12 0.872961 0.250000 0.943958
O O13 0.874167 0.154609 0.839912
O O14 0.753472 0.112775 0.964674
O O15 0.470669 0.604085 0.931239
O O16 0.329857 0.346235 0.171755
O O17 0.306666 0.750000 0.760002
O O18 0.197427 0.750000 0.261930
#
# Coordination Sequence:
#
# PCOD9464938 Si02
#       8
#     8   8   8   8   8   8   8   8
#     4  11  22  37  61  89 119 166 211 251 316 371
#     4  10  20  37  60  86 117 157 203 250 301 366
#     4  11  21  40  62  87 121 153 200 263 306 368
#     4  10  23  41  62  89 126 167 207 252 312 383
#     4  11  22  38  59  87 120 158 205 256 307 369
#     4  11  23  38  63  93 120 162 210 254 318 375
#     4  11  23  39  58  88 126 161 205 259 306 372
#     4  11  23  40  63  91 120 158 202 253 319 374
#
# _framework density 23.107590999999999
#
# number of rings (size 3 to 8) (size 9 to 14) (size 15 to 20)
#    0.000    1.250    0.000    8.625    0.000    3.000 
#    0.000    0.000    0.000    3.750    0.000    0.000 
#    0.000    0.000    0.000    0.000    0.000    0.000 
#
# Total GULP energy -357090.722334 kJ/mol
# GULP energy per Si atom -5579.542536 kJ/mol
# Density = 2.305500 g / cm^3
# Si number density = 23.107591 Si / 1000 Ang^3
#
#
#
# Elastic Constant Matrix: (Units=GPa)
#
#
# Indices 1 2 3 4 5 6 
#
# 1 65.3554 10.4698 9.5077 0.0000 0.0000 0.0000
# 2 10.4698 99.4841 -1.5030 0.0000 0.0000 0.0000
# 3 9.5077 -1.5030 40.1532 0.0000 0.0000 0.0000
# 4 0.0000 0.0000 0.0000 21.5546 0.0000 0.0000
# 5 0.0000 0.0000 0.0000 0.0000 45.8449 0.0000
# 6 0.0000 0.0000 0.0000 0.0000 0.0000 26.8195
#
#
#
# Elastic Compliance Matrix: (Units=1/GPa)
#
#
# Indices 1 2 3 4 5 6 
#
# 1 0.016148 -0.001758 -0.003890 0.000000 0.000000 0.000000
# 2 -0.001758 0.010249 0.000800 0.000000 0.000000 0.000000
# 3 -0.003890 0.000800 0.025856 0.000000 0.000000 0.000000
# 4 0.000000 0.000000 0.000000 0.046394 0.000000 0.000000
# 5 0.000000 0.000000 0.000000 0.000000 0.021813 0.000000
# 6 0.000000 0.000000 0.000000 0.000000 0.000000 0.037286
#
#
# Mechanical properties :
#
#
# Convention : Reuss Voigt Hill
#
# Bulk Modulus (GPa) = 23.49769 26.88241 25.19005
# Shear Modulus (GPa) = 27.52892 31.27834 29.40363
#
# Velocity S-wave (km/s) = 3.45532 3.68312 3.57103
# Velocity P-wave (km/s) = 5.10978 5.45399 5.28469
#
# Compressibility (1/GPa) = 0.04255737
#
# Stress axis : x y z
#
# Youngs Moduli (GPa) = 61.92543 97.57064 38.67642
#
# Poissons Ratio (x) = 0.17155 0.15043
# Poissons Ratio (y) = 0.10888 -0.03094
# Poissons Ratio (z) = 0.24086 -0.07805
#
# Static dielectric constant tensor:
#      x y z
#    x 1.943090 0.000000 0.000000 
#    y 0.000000 1.846060 0.000000 
#    z 0.000000 0.000000 2.092500 
# 
# From -- ./inp_files/26158.got.cif
#   From: 2010.05.17/outbox.cif.g08.bks.cpg/sg62_14_cif.got.tgz:26158.got - 2010.06.03 15:25:27.
