data_PCOD9464582
_publ_section_title
;
Structure prediction by ZEFSAII (Michael W. Deem and Ramdas Pophale) SiO2 
 PCOD9464582
Probable space group: P N M A
;
_chemical_formula_sum "Si O2"
_cell_formula_units_Z 64
_cell_length_a 29.591021
_cell_length_b 13.256551
_cell_length_c 7.250105
_cell_angle_alpha 90.000000
_cell_angle_beta 90.000000
_cell_angle_gamma 90.000000
_cell_volume 2844.034062
_symmetry_space_group_name_H-M "P N M A"
_symmetry_group_IT_number 62
_symmetry_cell_setting 'orthorhombic'
loop_
_space_group_symop_operation_xyz
x,y,z
1/2-x,-y,1/2+z
1/2+x,1/2-y,1/2-z
-x,1/2+y,-z
-x,-y,-z
1/2+x,y,1/2-z
1/2-x,1/2+y,1/2+z
x,1/2-y,z
loop_
_atom_site_type_symbol
_atom_site_label
_atom_site_fract_x
_atom_site_fract_y
_atom_site_fract_z
Si Si1 0.561331 0.865448 0.953730
Si Si2 0.378166 0.634637 0.340068
Si Si3 0.658195 0.937976 0.851652
Si Si4 0.092902 0.865266 0.140654
Si Si5 0.263414 0.432523 0.419330
Si Si6 0.805317 0.135581 0.719318
Si Si7 0.457526 0.502615 0.366333
Si Si8 0.702541 0.367143 0.408112
O O1 0.545343 0.750000 0.933073
O O2 0.613410 0.872739 0.884645
O O3 0.535192 0.946142 0.828061
O O4 0.565756 0.890477 0.170768
O O5 0.371027 0.750000 0.281037
O O6 0.357467 0.550661 0.202907
O O7 0.431403 0.608415 0.348713
O O8 0.350356 0.622624 0.533917
O O9 0.692819 0.898358 0.699206
O O10 0.685342 0.933069 0.041982
O O11 0.081636 0.750000 0.094082
O O12 0.145969 0.871664 0.179500
O O13 0.079352 0.936321 0.975973
O O14 0.231608 0.612799 0.123546
O O15 0.273677 0.551425 0.457822
O O16 0.221464 0.396642 0.293833
O O17 0.800164 0.250000 0.653875
O O18 0.500000 0.500000 0.500000
O O19 0.713682 0.250000 0.439515
#
# Coordination Sequence:
#
# PCOD9464582 Si02
#       8
#     8   8   8   8   8   8   8   8
#     4   9  18  34  57  87 123 154 186 242 318 386
#     4   9  20  42  66  88 127 182 227 267 326 403
#     4   9  19  36  60  89 121 159 207 264 312 376
#     4   9  18  34  57  87 119 152 186 238 317 391
#     4  11  23  39  61  89 126 165 213 272 318 374
#     4  10  20  35  62  95 125 156 198 257 329 390
#     4  11  22  35  60  91 122 162 211 270 322 380
#     4  10  23  43  64  88 124 172 223 271 324 389
#
# _framework density 22.503247000000002
#
# number of rings (size 3 to 8) (size 9 to 14) (size 15 to 20)
#    0.000    2.250    0.000    4.125    1.750    4.500 
#    0.000    1.250    0.000   15.000    0.000    0.000 
#    0.000    0.000    0.000    0.000    0.000    0.000 
#
# Total GULP energy -357227.623390 kJ/mol
# GULP energy per Si atom -5581.681615 kJ/mol
# Density = 2.245203 g / cm^3
# Si number density = 22.503247 Si / 1000 Ang^3
#
#
#
# Elastic Constant Matrix: (Units=GPa)
#
#
# Indices 1 2 3 4 5 6 
#
# 1 27.3204 -0.8179 -1.1406 0.0000 0.0000 0.0000
# 2 -0.8179 86.8261 37.6795 0.0000 0.0000 0.0000
# 3 -1.1406 37.6795 94.2146 0.0000 0.0000 0.0000
# 4 0.0000 0.0000 0.0000 22.1568 0.0000 0.0000
# 5 0.0000 0.0000 0.0000 0.0000 19.6761 0.0000
# 6 0.0000 0.0000 0.0000 0.0000 0.0000 30.2732
#
#
#
# Elastic Compliance Matrix: (Units=1/GPa)
#
#
# Indices 1 2 3 4 5 6 
#
# 1 0.036624 0.000185 0.000370 0.000000 0.000000 0.000000
# 2 0.000185 0.013937 -0.005572 0.000000 0.000000 0.000000
# 3 0.000370 -0.005572 0.012847 0.000000 0.000000 0.000000
# 4 0.000000 0.000000 0.000000 0.045133 0.000000 0.000000
# 5 0.000000 0.000000 0.000000 0.000000 0.050823 0.000000
# 6 0.000000 0.000000 0.000000 0.000000 0.000000 0.033032
#
#
# Mechanical properties :
#
#
# Convention : Reuss Voigt Hill
#
# Bulk Modulus (GPa) = 18.73625 31.08923 24.91274
# Shear Modulus (GPa) = 22.70441 25.93055 24.31748
#
# Velocity S-wave (km/s) = 3.17983 3.39824 3.29085
# Velocity P-wave (km/s) = 4.67181 5.40766 5.05315
#
# Compressibility (1/GPa) = 0.05337248
#
# Stress axis : x y z
#
# Youngs Moduli (GPa) = 27.30478 71.75203 77.84040
#
# Poissons Ratio (x) = -0.01325 -0.02877
# Poissons Ratio (y) = -0.00504 0.43369
# Poissons Ratio (z) = -0.01009 0.39977
#
# Static dielectric constant tensor:
#      x y z
#    x 1.933980 0.000000 0.000000 
#    y 0.000000 1.871020 0.000000 
#    z 0.000000 0.000000 1.850110 
# 
# From -- ./inp_files/10457.got.cif
#   From: 2010.05.17/outbox.cif.g08.bks.cpg/sg62_6_cif.got.tgz:10457.got - 2010.06.03 15:25:27.
