data_PCOD9464973
_publ_section_title
;
Structure prediction by ZEFSAII (Michael W. Deem and Ramdas Pophale) SiO2 
 PCOD9464973
Probable space group: P N M A
;
_chemical_formula_sum "Si O2"
_cell_formula_units_Z 56
_cell_length_a 21.525743
_cell_length_b 7.738829
_cell_length_c 14.645403
_cell_angle_alpha 90.000000
_cell_angle_beta 90.000000
_cell_angle_gamma 90.000000
_cell_volume 2439.690460
_symmetry_space_group_name_H-M "P N M A"
_symmetry_group_IT_number 62
_symmetry_cell_setting 'orthorhombic'
loop_
_space_group_symop_operation_xyz
x,y,z
1/2-x,-y,1/2+z
1/2+x,1/2-y,1/2-z
-x,1/2+y,-z
-x,-y,-z
1/2+x,y,1/2-z
1/2-x,1/2+y,1/2+z
x,1/2-y,z
loop_
_atom_site_type_symbol
_atom_site_label
_atom_site_fract_x
_atom_site_fract_y
_atom_site_fract_z
Si Si1 0.769284 0.957405 0.394601
Si Si2 0.968691 0.544991 0.595501
Si Si3 0.406152 0.548693 0.428441
Si Si4 0.009953 0.543884 0.210214
Si Si5 0.708981 0.956346 0.694432
Si Si6 0.369089 0.051401 0.624766
Si Si7 0.328273 0.961401 0.914399
O O1 0.764876 0.750000 0.404944
O O2 0.699131 0.029028 0.383884
O O3 0.802631 0.018565 0.486501
O O4 0.802527 0.996895 0.299423
O O5 0.965107 0.750000 0.600997
O O6 0.005935 0.484781 0.684543
O O7 0.898154 0.474695 0.599630
O O8 0.000000 0.500000 0.500000
O O9 0.418162 0.750000 0.449293
O O10 0.460046 0.477882 0.362499
O O11 0.342363 0.534604 0.372030
O O12 0.398511 0.452562 0.523760
O O13 0.012645 0.750000 0.195778
O O14 0.078753 0.470785 0.189803
O O15 0.705855 0.750000 0.683856
O O16 0.777636 0.013600 0.661401
O O17 0.359773 0.250000 0.653923
O O18 0.329899 0.750000 0.914099
#
# Coordination Sequence:
#
# PCOD9464973 Si02
#       7
#     8   8   8   8   8   8   8
#     4  10  20  37  61  88 119 156 191 238 303 356
#     4  11  24  42  64  89 120 159 204 251 300 357
#     4  11  23  38  59  89 125 160 198 247 301 354
#     4  10  23  41  61  88 122 161 201 246 300 355
#     4  11  22  39  61  89 120 156 203 247 295 358
#     4  10  20  39  65  91 122 159 198 244 298 361
#     4   9  20  40  62  84 119 158 190 240 304 352
#
# _framework density 22.953733
#
# number of rings (size 3 to 8) (size 9 to 14) (size 15 to 20)
#    0.000    1.714    1.429    2.571    2.000    2.286 
#    0.000    2.857    0.000    0.000    0.000    0.000 
#    0.000    0.000    0.000    0.000    0.000    0.000 
#
# Total GULP energy -313158.407349 kJ/mol
# GULP energy per Si atom -5592.114417 kJ/mol
# Density = 2.290149 g / cm^3
# Si number density = 22.953733 Si / 1000 Ang^3
#
#
#
# Elastic Constant Matrix: (Units=GPa)
#
#
# Indices 1 2 3 4 5 6 
#
# 1 59.6617 -1.1756 1.3263 0.0000 0.0000 0.0000
# 2 -1.1756 42.1825 -16.8342 0.0000 0.0000 0.0000
# 3 1.3263 -16.8342 111.1404 0.0000 0.0000 0.0000
# 4 0.0000 0.0000 0.0000 21.4834 0.0000 0.0000
# 5 0.0000 0.0000 0.0000 0.0000 27.4692 0.0000
# 6 0.0000 0.0000 0.0000 0.0000 0.0000 12.5195
#
#
#
# Elastic Compliance Matrix: (Units=1/GPa)
#
#
# Indices 1 2 3 4 5 6 
#
# 1 0.016772 0.000412 -0.000138 0.000000 0.000000 0.000000
# 2 0.000412 0.025242 0.003818 0.000000 0.000000 0.000000
# 3 -0.000138 0.003818 0.009578 0.000000 0.000000 0.000000
# 4 0.000000 0.000000 0.000000 0.046547 0.000000 0.000000
# 5 0.000000 0.000000 0.000000 0.000000 0.036404 0.000000
# 6 0.000000 0.000000 0.000000 0.000000 0.000000 0.079876
#
#
# Mechanical properties :
#
#
# Convention : Reuss Voigt Hill
#
# Bulk Modulus (GPa) = 16.72849 19.95752 18.34300
# Shear Modulus (GPa) = 22.10834 27.60562 24.85698
#
# Velocity S-wave (km/s) = 3.10686 3.47171 3.29434
# Velocity P-wave (km/s) = 4.49153 4.97834 4.74119
#
# Compressibility (1/GPa) = 0.05977827
#
# Stress axis : x y z
#
# Youngs Moduli (GPa) = 59.62188 39.61673 104.40990
#
# Poissons Ratio (x) = -0.01634 0.01437
# Poissons Ratio (y) = -0.02459 -0.39868
# Poissons Ratio (z) = 0.00821 -0.15127
#
# Static dielectric constant tensor:
#      x y z
#    x 1.878250 0.000000 0.000000 
#    y 0.000000 1.871400 0.000000 
#    z 0.000000 0.000000 1.769340 
# 
# From -- ./inp_files/20297.got.cif
#   From: 2010.05.17/outbox.cif.g08.bks.cpg/sg62_11_cif.got.tgz:20297.got - 2010.06.03 15:25:27.
