data_PCOD9464988
_publ_section_title
;
Structure prediction by ZEFSAII (Michael W. Deem and Ramdas Pophale) SiO2 
 PCOD9464988
Probable space group: P N M A
;
_chemical_formula_sum "Si O2"
_cell_formula_units_Z 48
_cell_length_a 5.679707
_cell_length_b 19.282858
_cell_length_c 19.638712
_cell_angle_alpha 90.000000
_cell_angle_beta 90.000000
_cell_angle_gamma 90.000000
_cell_volume 2150.851054
_symmetry_space_group_name_H-M "P N M A"
_symmetry_group_IT_number 62
_symmetry_cell_setting 'orthorhombic'
loop_
_space_group_symop_operation_xyz
x,y,z
1/2-x,-y,1/2+z
1/2+x,1/2-y,1/2-z
-x,1/2+y,-z
-x,-y,-z
1/2+x,y,1/2-z
1/2-x,1/2+y,1/2+z
x,1/2-y,z
loop_
_atom_site_type_symbol
_atom_site_label
_atom_site_fract_x
_atom_site_fract_y
_atom_site_fract_z
Si Si1 0.788321 0.956649 0.916266
Si Si2 0.032343 0.825669 0.544564
Si Si3 0.048686 0.051088 0.234712
Si Si4 0.284739 0.827687 0.401363
Si Si5 0.844728 0.405486 0.970254
Si Si6 0.966027 0.105017 0.716427
O O1 0.915532 0.966578 0.844476
O O2 0.689847 0.029645 0.944067
O O3 0.605829 0.892956 0.912174
O O4 0.981458 0.934666 0.971900
O O5 0.031029 0.750000 0.578167
O O6 0.206935 0.822668 0.479923
O O7 0.789990 0.843749 0.507215
O O8 0.294650 0.086622 0.256236
O O9 0.035401 0.979016 0.277793
O O10 0.333785 0.750000 0.376349
O O11 0.509775 0.877209 0.405856
O O12 0.081401 0.863131 0.357439
O O13 0.721080 0.126958 0.754658
#
# Coordination Sequence:
#
# PCOD9464988 Si02
#       6
#     8   8   8   8   8   8
#     4  10  22  37  60  93 122 158 214 266 319 379
#     4  10  22  38  61  89 122 163 203 263 328 388
#     4  10  22  37  61  89 123 161 207 260 317 371
#     4  10  22  37  57  87 126 167 213 255 308 380
#     4  10  20  37  61  91 121 163 206 267 323 377
#     4  10  22  38  56  85 121 172 210 255 301 364
#
# _framework density 22.316748
#
# number of rings (size 3 to 8) (size 9 to 14) (size 15 to 20)
#    0.000    2.000    0.000    3.000    9.333    1.333 
#    0.000    0.000    0.000    1.000    0.000    0.000 
#    0.000    0.000    0.000    0.000    0.000    0.000 
#
# Total GULP energy -267739.485060 kJ/mol
# GULP energy per Si atom -5577.905939 kJ/mol
# Density = 2.226595 g / cm^3
# Si number density = 22.316748 Si / 1000 Ang^3
#
#
#
# Elastic Constant Matrix: (Units=GPa)
#
#
# Indices 1 2 3 4 5 6 
#
# 1 106.9473 22.6290 16.7938 0.0000 0.0000 0.0000
# 2 22.6290 98.3848 14.5450 0.0000 0.0000 0.0000
# 3 16.7938 14.5450 33.5040 0.0000 0.0000 0.0000
# 4 0.0000 0.0000 0.0000 -24.1143 0.0000 0.0000
# 5 0.0000 0.0000 0.0000 0.0000 24.8149 0.0000
# 6 0.0000 0.0000 0.0000 0.0000 0.0000 14.0724
#
#
#
# Elastic Compliance Matrix: (Units=1/GPa)
#
#
# Indices 1 2 3 4 5 6 
#
# 1 0.010419 -0.001736 -0.004469 0.000000 0.000000 0.000000
# 2 -0.001736 0.011150 -0.003971 0.000000 0.000000 0.000000
# 3 -0.004469 -0.003971 0.033811 0.000000 0.000000 0.000000
# 4 0.000000 0.000000 0.000000 -0.041469 0.000000 0.000000
# 5 0.000000 0.000000 0.000000 0.000000 0.040298 0.000000
# 6 0.000000 0.000000 0.000000 0.000000 0.000000 0.071061
#
#
# Mechanical properties :
#
#
# Convention : Reuss Voigt Hill
#
# Bulk Modulus (GPa) = 28.54713 38.53018 33.53865
# Shear Modulus (GPa) = 31.78658 15.27916 23.53287
#
# Velocity S-wave (km/s) = 3.77813 2.61942 3.25082
# Velocity P-wave (km/s) = 5.64375 5.14306 5.39922
#
# Compressibility (1/GPa) = 0.03502980
#
# Stress axis : x y z
#
# Youngs Moduli (GPa) = 95.97410 89.68268 29.57605
#
# Poissons Ratio (x) = 0.15567 0.13218
# Poissons Ratio (y) = 0.16659 0.11744
# Poissons Ratio (z) = 0.42893 0.35610
#
# Static dielectric constant tensor:
#      x y z
#    x 1.902810 0.000000 0.000000 
#    y 0.000000 1.840420 0.000000 
#    z 0.000000 0.000000 1.841120 
# 
# From -- ./inp_files/25297.got.cif
#   From: 2010.05.17/outbox.cif.g08.bks.cpg/sg62_13_cif.got.tgz:25297.got - 2010.06.03 15:25:27.
