data_PCOD9464201
_publ_section_title
;
Structure prediction by ZEFSAII (Michael W. Deem and Ramdas Pophale) SiO2 
 PCOD9464201
Probable space group: P N M A
;
_chemical_formula_sum "Si O2"
_cell_formula_units_Z 48
_cell_length_a 30.385225
_cell_length_b 8.488286
_cell_length_c 10.439589
_cell_angle_alpha 90.000000
_cell_angle_beta 90.000000
_cell_angle_gamma 90.000000
_cell_volume 2692.562926
_symmetry_space_group_name_H-M "P N M A"
_symmetry_group_IT_number 62
_symmetry_cell_setting 'orthorhombic'
loop_
_space_group_symop_operation_xyz
x,y,z
1/2-x,-y,1/2+z
1/2+x,1/2-y,1/2-z
-x,1/2+y,-z
-x,-y,-z
1/2+x,y,1/2-z
1/2-x,1/2+y,1/2+z
x,1/2-y,z
loop_
_atom_site_type_symbol
_atom_site_label
_atom_site_fract_x
_atom_site_fract_y
_atom_site_fract_z
Si Si1 0.615340 0.558988 0.774608
Si Si2 0.976634 0.438759 0.373585
Si Si3 0.881073 0.439785 0.977542
Si Si4 0.714394 0.940748 0.774777
Si Si5 0.473764 0.060562 0.623771
Si Si6 0.784499 0.561629 0.986722
O O1 0.615585 0.750000 0.781051
O O2 0.573833 0.503396 0.856547
O O3 0.608153 0.517476 0.625299
O O4 0.664598 0.506014 0.808984
O O5 0.975707 0.250000 0.376249
O O6 0.000000 0.500000 0.500000
O O7 0.003716 0.493558 0.249869
O O8 0.876836 0.250000 0.972986
O O9 0.833830 0.512259 0.946879
O O10 0.922581 0.486937 0.891848
O O11 0.714518 0.750000 0.773435
O O12 0.723759 0.995430 0.629599
O O13 0.749476 0.994229 0.880547
O O14 0.475422 0.250000 0.625433
O O15 0.500000 0.000000 0.500000
O O16 0.782013 0.750000 0.993759
#
# Coordination Sequence:
#
# PCOD9464201 Si02
#       6
#     8   8   8   8   8   8
#     4   8  15  33  57  75 101 145 183 213 263 330
#     4  11  22  38  56  80 114 149 187 229 274 330
#     4   9  18  35  57  80 108 145 181 219 274 330
#     4   9  19  37  57  78 109 143 177 221 274 330
#     4  11  21  36  59  85 111 145 184 227 275 328
#     4  10  20  34  56  84 110 140 181 229 271 315
#
# _framework density 17.826881
#
# number of rings (size 3 to 8) (size 9 to 14) (size 15 to 20)
#    0.000    2.333    1.667    2.500    0.000    2.667 
#    3.000    0.833    0.000    0.000    0.000    0.000 
#    0.000    0.000    0.000    0.000    0.000    0.000 
#
# Total GULP energy -267716.137957 kJ/mol
# GULP energy per Si atom -5577.419541 kJ/mol
# Density = 1.778631 g / cm^3
# Si number density = 17.826881 Si / 1000 Ang^3
#
#
#
# Elastic Constant Matrix: (Units=GPa)
#
#
# Indices 1 2 3 4 5 6 
#
# 1 176.6531 30.9774 101.4580 0.0000 0.0000 0.0000
# 2 30.9774 29.1168 24.9187 0.0000 0.0000 0.0000
# 3 101.4580 24.9187 122.6027 0.0000 0.0000 0.0000
# 4 0.0000 0.0000 0.0000 29.0859 0.0000 0.0000
# 5 0.0000 0.0000 0.0000 0.0000 36.3144 0.0000
# 6 0.0000 0.0000 0.0000 0.0000 0.0000 26.9617
#
#
#
# Elastic Compliance Matrix: (Units=1/GPa)
#
#
# Indices 1 2 3 4 5 6 
#
# 1 0.011334 -0.004880 -0.008387 0.000000 0.000000 0.000000
# 2 -0.004880 0.043678 -0.004839 0.000000 0.000000 0.000000
# 3 -0.008387 -0.004839 0.016081 0.000000 0.000000 0.000000
# 4 0.000000 0.000000 0.000000 0.034381 0.000000 0.000000
# 5 0.000000 0.000000 0.000000 0.000000 0.027537 0.000000
# 6 0.000000 0.000000 0.000000 0.000000 0.000000 0.037090
#
#
# Mechanical properties :
#
#
# Convention : Reuss Voigt Hill
#
# Bulk Modulus (GPa) = 28.67010 71.45341 50.06176
# Shear Modulus (GPa) = 22.94229 29.87361 26.40795
#
# Velocity S-wave (km/s) = 3.59130 4.09805 3.85301
# Velocity P-wave (km/s) = 5.77183 7.90954 6.92369
#
# Compressibility (1/GPa) = 0.03487954
#
# Stress axis : x y z
#
# Youngs Moduli (GPa) = 88.23396 22.89504 62.18704
#
# Poissons Ratio (x) = 0.11173 0.52156
# Poissons Ratio (y) = 0.43057 0.30093
# Poissons Ratio (z) = 0.74002 0.11079
#
# Static dielectric constant tensor:
#      x y z
#    x 1.629940 0.000000 0.000000 
#    y 0.000000 1.616720 0.000000 
#    z 0.000000 0.000000 1.573120 
# 
# From -- ./inp_files/10150.got.cif
#   From: 2010.05.17/outbox.cif.g08.bks.cpg/sg62_6_cif.got.tgz:10150.got - 2010.06.03 15:25:27.
