data_PCOD9464805
_publ_section_title
;
Structure prediction by ZEFSAII (Michael W. Deem and Ramdas Pophale) SiO2 
 PCOD9464805
Probable space group: P N M A
;
_chemical_formula_sum "Si O2"
_cell_formula_units_Z 48
_cell_length_a 16.837482
_cell_length_b 8.750953
_cell_length_c 18.175588
_cell_angle_alpha 90.000000
_cell_angle_beta 90.000000
_cell_angle_gamma 90.000000
_cell_volume 2678.064086
_symmetry_space_group_name_H-M "P N M A"
_symmetry_group_IT_number 62
_symmetry_cell_setting 'orthorhombic'
loop_
_space_group_symop_operation_xyz
x,y,z
1/2-x,-y,1/2+z
1/2+x,1/2-y,1/2-z
-x,1/2+y,-z
-x,-y,-z
1/2+x,y,1/2-z
1/2-x,1/2+y,1/2+z
x,1/2-y,z
loop_
_atom_site_type_symbol
_atom_site_label
_atom_site_fract_x
_atom_site_fract_y
_atom_site_fract_z
Si Si1 0.913546 0.932828 0.015787
Si Si2 0.671350 0.433035 0.668909
Si Si3 0.173932 0.432020 0.402685
Si Si4 0.740502 0.567950 0.441812
Si Si5 0.359142 0.067580 0.172712
Si Si6 0.505659 0.567778 0.081897
O O1 0.914187 0.750000 0.007362
O O2 0.885510 0.968159 0.099332
O O3 0.845728 0.002938 0.962992
O O4 0.000000 0.000000 0.000000
O O5 0.677687 0.250000 0.674796
O O6 0.756428 0.504656 0.648588
O O7 0.642137 0.503354 0.744907
O O8 0.164616 0.250000 0.394108
O O9 0.203703 0.461021 0.486543
O O10 0.091571 0.516830 0.388918
O O11 0.736224 0.750000 0.431158
O O12 0.782071 0.490069 0.372350
O O13 0.361236 0.250000 0.172675
O O14 0.435341 0.001466 0.130331
O O15 0.498314 0.750000 0.079142
O O16 0.500000 0.500000 0.000000
#
# Coordination Sequence:
#
# PCOD9464805 Si02
#       6
#     8   8   8   8   8   8
#     4  10  21  39  64  90 118 154 202 249 297 353
#     4  10  22  41  62  86 120 158 197 246 303 357
#     4  10  20  37  61  88 117 154 197 239 292 355
#     4  10  20  36  61  87 117 154 195 240 294 355
#     4  12  24  39  60  88 123 158 199 249 302 358
#     4  12  23  37  60  90 123 159 200 246 298 357
#
# _framework density 17.923393999999998
#
# number of rings (size 3 to 8) (size 9 to 14) (size 15 to 20)
#    0.000    1.333    1.667    5.000    0.000    3.333 
#    3.000    0.000    0.000    0.000    0.000    0.000 
#    0.000    0.000    0.000    0.000    0.000    0.000 
#
# Total GULP energy -268337.316334 kJ/mol
# GULP energy per Si atom -5590.360757 kJ/mol
# Density = 1.788260 g / cm^3
# Si number density = 17.923394 Si / 1000 Ang^3
#
#
#
# Elastic Constant Matrix: (Units=GPa)
#
#
# Indices 1 2 3 4 5 6 
#
# 1 125.3580 40.0865 60.5377 0.0000 0.0000 0.0000
# 2 40.0865 93.5542 50.9169 0.0000 0.0000 0.0000
# 3 60.5377 50.9169 103.3491 0.0000 0.0000 0.0000
# 4 0.0000 0.0000 0.0000 31.7033 0.0000 0.0000
# 5 0.0000 0.0000 0.0000 0.0000 23.9742 0.0000
# 6 0.0000 0.0000 0.0000 0.0000 0.0000 37.9897
#
#
#
# Elastic Compliance Matrix: (Units=1/GPa)
#
#
# Indices 1 2 3 4 5 6 
#
# 1 0.011317 -0.001696 -0.005794 0.000000 0.000000 0.000000
# 2 -0.001696 0.014859 -0.006327 0.000000 0.000000 0.000000
# 3 -0.005794 -0.006327 0.016187 0.000000 0.000000 0.000000
# 4 0.000000 0.000000 0.000000 0.031542 0.000000 0.000000
# 5 0.000000 0.000000 0.000000 0.000000 0.041712 0.000000
# 6 0.000000 0.000000 0.000000 0.000000 0.000000 0.026323
#
#
# Mechanical properties :
#
#
# Convention : Reuss Voigt Hill
#
# Bulk Modulus (GPa) = 67.89046 69.48263 68.68654
# Shear Modulus (GPa) = 28.65588 30.11479 29.38534
#
# Velocity S-wave (km/s) = 4.00283 4.10346 4.05346
# Velocity P-wave (km/s) = 7.70220 7.82955 7.76614
#
# Compressibility (1/GPa) = 0.01472961
#
# Stress axis : x y z
#
# Youngs Moduli (GPa) = 88.35957 67.29770 61.77863
#
# Poissons Ratio (x) = 0.11415 0.35792
# Poissons Ratio (y) = 0.14987 0.39089
# Poissons Ratio (z) = 0.51192 0.42581
#
# Static dielectric constant tensor:
#      x y z
#    x 1.604130 0.000000 0.000000 
#    y 0.000000 1.589630 0.000000 
#    z 0.000000 0.000000 1.566670 
# 
# From -- ./inp_files/23670.got.cif
#   From: 2010.05.17/outbox.cif.g08.bks.cpg/sg62_12_cif.got.tgz:23670.got - 2010.06.03 15:25:27.
