data_PCOD9464835
_publ_section_title
;
Structure prediction by ZEFSAII (Michael W. Deem and Ramdas Pophale) SiO2 
 PCOD9464835
Probable space group: P N M A
;
_chemical_formula_sum "Si O2"
_cell_formula_units_Z 56
_cell_length_a 14.892703
_cell_length_b 13.726064
_cell_length_c 11.989436
_cell_angle_alpha 90.000000
_cell_angle_beta 90.000000
_cell_angle_gamma 90.000000
_cell_volume 2450.858860
_symmetry_space_group_name_H-M "P N M A"
_symmetry_group_IT_number 62
_symmetry_cell_setting 'orthorhombic'
loop_
_space_group_symop_operation_xyz
x,y,z
1/2-x,-y,1/2+z
1/2+x,1/2-y,1/2-z
-x,1/2+y,-z
-x,-y,-z
1/2+x,y,1/2-z
1/2-x,1/2+y,1/2+z
x,1/2-y,z
loop_
_atom_site_type_symbol
_atom_site_label
_atom_site_fract_x
_atom_site_fract_y
_atom_site_fract_z
Si Si1 0.625787 0.867695 0.873946
Si Si2 0.820454 0.367429 0.745718
Si Si3 0.199042 0.015790 0.054870
Si Si4 0.116230 0.362386 0.753762
Si Si5 0.469103 0.609552 0.487028
Si Si6 0.645287 0.856223 0.613780
Si Si7 0.518082 0.867518 0.077237
O O1 0.642148 0.750000 0.890425
O O2 0.621190 0.882380 0.741071
O O3 0.707751 0.932988 0.917686
O O4 0.538714 0.892692 0.949340
O O5 0.828693 0.250000 0.771997
O O6 0.833538 0.440251 0.849245
O O7 0.717046 0.390583 0.713458
O O8 0.892631 0.388845 0.650057
O O9 0.128712 0.105195 0.042545
O O10 0.197608 0.943364 0.947822
O O11 0.128648 0.250000 0.725540
O O12 0.067412 0.407117 0.645944
O O13 0.049092 0.367033 0.858488
O O14 0.500000 0.500000 0.500000
O O15 0.551308 0.657170 0.549261
O O16 0.692414 0.750000 0.611447
O O17 0.509927 0.750000 0.078548
#
# Coordination Sequence:
#
# PCOD9464835 Si02
#       7
#     8   8   8   8   8   8   8
#     4  10  23  40  61  89 129 172 207 257 322 386
#     4  10  21  37  63  95 127 163 211 271 321 373
#     4  11  23  38  64  90 128 162 218 260 317 388
#     4  10  20  36  63  91 118 156 214 271 322 379
#     4  10  21  35  59  90 121 159 208 264 320 380
#     4  10  22  42  64  90 129 171 213 265 326 386
#     4   9  18  36  60  88 121 160 206 260 321 374
#
# _framework density 22.849133999999999
#
# number of rings (size 3 to 8) (size 9 to 14) (size 15 to 20)
#    0.000    2.000    0.000    3.429    6.000    3.429 
#    0.000    2.143    0.000    3.429    0.000    0.000 
#    0.000    0.000    0.000    0.000    0.000    0.000 
#
# Total GULP energy -312354.274105 kJ/mol
# GULP energy per Si atom -5577.754895 kJ/mol
# Density = 2.279713 g / cm^3
# Si number density = 22.849134 Si / 1000 Ang^3
#
#
#
# Elastic Constant Matrix: (Units=GPa)
#
#
# Indices 1 2 3 4 5 6 
#
# 1 56.5139 -2.4681 4.9869 0.0000 0.0000 0.0000
# 2 -2.4681 81.3107 26.2871 0.0000 0.0000 0.0000
# 3 4.9869 26.2871 100.7725 0.0000 0.0000 0.0000
# 4 0.0000 0.0000 0.0000 15.3104 0.0000 0.0000
# 5 0.0000 0.0000 0.0000 0.0000 32.9652 0.0000
# 6 0.0000 0.0000 0.0000 0.0000 0.0000 16.0089
#
#
#
# Elastic Compliance Matrix: (Units=1/GPa)
#
#
# Indices 1 2 3 4 5 6 
#
# 1 0.017833 0.000903 -0.001118 0.000000 0.000000 0.000000
# 2 0.000903 0.013477 -0.003560 0.000000 0.000000 0.000000
# 3 -0.001118 -0.003560 0.010907 0.000000 0.000000 0.000000
# 4 0.000000 0.000000 0.000000 0.065315 0.000000 0.000000
# 5 0.000000 0.000000 0.000000 0.000000 0.030335 0.000000
# 6 0.000000 0.000000 0.000000 0.000000 0.000000 0.062465
#
#
# Mechanical properties :
#
#
# Convention : Reuss Voigt Hill
#
# Bulk Modulus (GPa) = 28.84652 32.91210 30.87931
# Shear Modulus (GPa) = 22.78540 26.84298 24.81419
#
# Velocity S-wave (km/s) = 3.16129 3.43124 3.29903
# Velocity P-wave (km/s) = 5.09678 5.48938 5.29672
#
# Compressibility (1/GPa) = 0.03466622
#
# Stress axis : x y z
#
# Youngs Moduli (GPa) = 56.07631 74.20111 91.68118
#
# Poissons Ratio (x) = -0.06698 0.10250
# Poissons Ratio (y) = -0.05062 0.32640
# Poissons Ratio (z) = 0.06269 0.26417
#
# Static dielectric constant tensor:
#      x y z
#    x 1.922730 0.000000 0.000000 
#    y 0.000000 1.934250 0.000000 
#    z 0.000000 0.000000 1.876860 
# 
# From -- ./inp_files/13392.got.cif
#   From: 2010.05.17/outbox.cif.g08.bks.cpg/sg62_7_cif.got.tgz:13392.got - 2010.06.03 15:25:27.
