data_PCOD9464558
_publ_section_title
;
Structure prediction by ZEFSAII (Michael W. Deem and Ramdas Pophale) SiO2 
 PCOD9464558
Probable space group: P N M A
;
_chemical_formula_sum "Si O2"
_cell_formula_units_Z 64
_cell_length_a 14.988032
_cell_length_b 7.508352
_cell_length_c 23.786243
_cell_angle_alpha 90.000000
_cell_angle_beta 90.000000
_cell_angle_gamma 90.000000
_cell_volume 2676.794847
_symmetry_space_group_name_H-M "P N M A"
_symmetry_group_IT_number 62
_symmetry_cell_setting 'orthorhombic'
loop_
_space_group_symop_operation_xyz
x,y,z
1/2-x,-y,1/2+z
1/2+x,1/2-y,1/2-z
-x,1/2+y,-z
-x,-y,-z
1/2+x,y,1/2-z
1/2-x,1/2+y,1/2+z
x,1/2-y,z
loop_
_atom_site_type_symbol
_atom_site_label
_atom_site_fract_x
_atom_site_fract_y
_atom_site_fract_z
Si Si1 0.382253 0.548457 0.344656
Si Si2 0.822906 0.531677 0.827147
Si Si3 0.281356 0.959385 0.549132
Si Si4 0.104203 0.460733 0.494123
Si Si5 0.313075 0.966237 0.877190
Si Si6 0.440823 0.967525 0.774973
Si Si7 0.866747 0.450791 0.280877
Si Si8 0.081833 0.463145 0.959638
O O1 0.410024 0.750000 0.330853
O O2 0.283777 0.548162 0.371342
O O3 0.372949 0.445737 0.286729
O O4 0.436527 0.466954 0.396706
O O5 0.824504 0.750000 0.826470
O O6 0.818828 0.470118 0.891715
O O7 0.903489 0.475392 0.786051
O O8 0.728085 0.473188 0.799652
O O9 0.301681 0.750000 0.549645
O O10 0.332101 0.033331 0.494105
O O11 0.174904 0.976331 0.541100
O O12 0.113397 0.250000 0.493804
O O13 0.138619 0.527571 0.433769
O O14 0.000000 0.500000 0.500000
O O15 0.304950 0.750000 0.878010
O O16 0.369173 0.013549 0.822079
O O17 0.446991 0.750000 0.773099
O O18 0.537647 0.035003 0.794535
O O19 0.866966 0.250000 0.304270
O O20 0.090640 0.250000 0.951857
O O21 0.000000 0.500000 0.000000
#
# Coordination Sequence:
#
# PCOD9464558 Si02
#       8
#     8   8   8   8   8   8   8   8
#     4  11  22  38  58  84 118 152 187 237 296 347
#     4   9  18  33  56  84 113 146 188 236 281 330
#     4  10  21  39  60  84 118 155 193 241 294 345
#     4  11  24  39  61  89 117 155 195 239 291 347
#     4  10  20  38  63  85 108 147 200 245 280 333
#     4   9  18  33  57  88 110 136 191 245 278 320
#     4  10  20  35  60  86 111 147 191 238 280 334
#     4  10  23  39  58  84 115 154 195 239 291 347
#
# _framework density 23.909189999999999
#
# number of rings (size 3 to 8) (size 9 to 14) (size 15 to 20)
#    0.000    2.000    2.500    0.750    3.500    2.000 
#    0.000    1.250    0.000    0.000    0.000    0.000 
#    0.000    0.000    0.000    0.000    0.000    0.000 
#
# Total GULP energy -357530.354853 kJ/mol
# GULP energy per Si atom -5586.411795 kJ/mol
# Density = 2.385477 g / cm^3
# Si number density = 23.909190 Si / 1000 Ang^3
#
#
#
# Elastic Constant Matrix: (Units=GPa)
#
#
# Indices 1 2 3 4 5 6 
#
# 1 59.7869 -6.7506 -23.1934 0.0000 0.0000 0.0000
# 2 -6.7506 70.6943 3.7148 0.0000 0.0000 0.0000
# 3 -23.1934 3.7148 53.5056 0.0000 0.0000 0.0000
# 4 0.0000 0.0000 0.0000 10.4360 0.0000 0.0000
# 5 0.0000 0.0000 0.0000 0.0000 38.7914 0.0000
# 6 0.0000 0.0000 0.0000 0.0000 0.0000 15.0819
#
#
#
# Elastic Compliance Matrix: (Units=1/GPa)
#
#
# Indices 1 2 3 4 5 6 
#
# 1 0.020260 0.001479 0.008680 0.000000 0.000000 0.000000
# 2 0.001479 0.014305 -0.000352 0.000000 0.000000 0.000000
# 3 0.008680 -0.000352 0.022477 0.000000 0.000000 0.000000
# 4 0.000000 0.000000 0.000000 0.095822 0.000000 0.000000
# 5 0.000000 0.000000 0.000000 0.000000 0.025779 0.000000
# 6 0.000000 0.000000 0.000000 0.000000 0.000000 0.066305
#
#
# Mechanical properties :
#
#
# Convention : Reuss Voigt Hill
#
# Bulk Modulus (GPa) = 13.04569 14.61426 13.82998
# Shear Modulus (GPa) = 19.92930 26.87625 23.40277
#
# Velocity S-wave (km/s) = 2.89024 3.35639 3.13200
# Velocity P-wave (km/s) = 4.07507 4.59850 4.34467
#
# Compressibility (1/GPa) = 0.07665366
#
# Stress axis : x y z
#
# Youngs Moduli (GPa) = 49.35792 69.90506 44.49088
#
# Poissons Ratio (x) = -0.10336 -0.38617
# Poissons Ratio (y) = -0.07298 0.01567
# Poissons Ratio (z) = -0.42841 0.02463
#
# Static dielectric constant tensor:
#      x y z
#    x 2.076020 0.000000 0.000000 
#    y 0.000000 1.911600 0.000000 
#    z 0.000000 0.000000 1.944160 
# 
# From -- ./inp_files/29800.got.cif
#   From: 2010.05.17/outbox.cif.g08.bks.cpg/sg62_15_cif.got.tgz:29800.got - 2010.06.03 15:25:27.
