data_PCOD9464434
_publ_section_title
;
Structure prediction by ZEFSAII (Michael W. Deem and Ramdas Pophale) SiO2 
 PCOD9464434
Probable space group: P N M A
;
_chemical_formula_sum "Si O2"
_cell_formula_units_Z 64
_cell_length_a 30.748606
_cell_length_b 7.694677
_cell_length_c 11.749250
_cell_angle_alpha 90.000000
_cell_angle_beta 90.000000
_cell_angle_gamma 90.000000
_cell_volume 2779.879498
_symmetry_space_group_name_H-M "P N M A"
_symmetry_group_IT_number 62
_symmetry_cell_setting 'orthorhombic'
loop_
_space_group_symop_operation_xyz
x,y,z
1/2-x,-y,1/2+z
1/2+x,1/2-y,1/2-z
-x,1/2+y,-z
-x,-y,-z
1/2+x,y,1/2-z
1/2-x,1/2+y,1/2+z
x,1/2-y,z
loop_
_atom_site_type_symbol
_atom_site_label
_atom_site_fract_x
_atom_site_fract_y
_atom_site_fract_z
Si Si1 0.166518 0.447937 0.974802
Si Si2 0.027129 0.548808 0.698016
Si Si3 0.313803 0.449872 0.232927
Si Si4 0.555626 0.459336 0.310544
Si Si5 0.890443 0.463606 0.433728
Si Si6 0.066774 0.038937 0.939833
Si Si7 0.358887 0.041526 0.820159
Si Si8 0.221172 0.551107 0.184506
O O1 0.163259 0.250000 0.016415
O O2 0.189189 0.454393 0.852633
O O3 0.117475 0.509635 0.952581
O O4 0.193907 0.547460 0.068313
O O5 0.021340 0.750000 0.664940
O O6 0.062605 0.474195 0.611117
O O7 0.047947 0.539586 0.824605
O O8 0.979347 0.470905 0.719312
O O9 0.324076 0.250000 0.259287
O O10 0.352943 0.517593 0.154822
O O11 0.267197 0.458711 0.172780
O O12 0.552025 0.250000 0.312350
O O13 0.546211 0.518295 0.439625
O O14 0.604176 0.503370 0.272877
O O15 0.891183 0.250000 0.433819
O O16 0.876550 0.522641 0.558899
O O17 0.063912 0.250000 0.930291
O O18 0.354734 0.250000 0.827891
O O19 0.312006 0.975396 0.778865
O O20 0.231008 0.750000 0.214118
#
# Coordination Sequence:
#
# PCOD9464434 Si02
#       8
#     8   8   8   8   8   8   8   8
#     4  11  22  39  63  88 122 159 194 245 299 353
#     4  10  20  36  60  85 116 154 196 241 292 357
#     4  11  23  40  64  90 120 158 198 246 301 356
#     4  10  21  37  57  86 118 152 193 244 297 347
#     4   9  20  39  59  83 115 154 194 236 293 352
#     4  10  20  35  56  85 121 152 190 243 297 345
#     4  10  22  40  60  81 114 156 195 240 291 353
#     4  11  24  40  61  90 119 154 202 247 296 361
#
# _framework density 23.022579
#
# number of rings (size 3 to 8) (size 9 to 14) (size 15 to 20)
#    0.000    1.750    2.500    1.500    1.750    2.500 
#    0.000    1.875    0.000    0.000    0.000    0.000 
#    0.000    0.000    0.000    0.000    0.000    0.000 
#
# Total GULP energy -357717.405823 kJ/mol
# GULP energy per Si atom -5589.334466 kJ/mol
# Density = 2.297018 g / cm^3
# Si number density = 23.022579 Si / 1000 Ang^3
#
#
#
# Elastic Constant Matrix: (Units=GPa)
#
#
# Indices 1 2 3 4 5 6 
#
# 1 57.6582 -4.4271 -30.8253 0.0000 0.0000 0.0000
# 2 -4.4271 43.4336 -7.9221 0.0000 0.0000 0.0000
# 3 -30.8253 -7.9221 49.4233 0.0000 0.0000 0.0000
# 4 0.0000 0.0000 0.0000 6.9300 0.0000 0.0000
# 5 0.0000 0.0000 0.0000 0.0000 29.4238 0.0000
# 6 0.0000 0.0000 0.0000 0.0000 0.0000 10.0256
#
#
#
# Elastic Compliance Matrix: (Units=1/GPa)
#
#
# Indices 1 2 3 4 5 6 
#
# 1 0.027510 0.006112 0.018137 0.000000 0.000000 0.000000
# 2 0.006112 0.025075 0.007831 0.000000 0.000000 0.000000
# 3 0.018137 0.007831 0.032801 0.000000 0.000000 0.000000
# 4 0.000000 0.000000 0.000000 0.144300 0.000000 0.000000
# 5 0.000000 0.000000 0.000000 0.000000 0.033986 0.000000
# 6 0.000000 0.000000 0.000000 0.000000 0.000000 0.099745
#
#
# Mechanical properties :
#
#
# Convention : Reuss Voigt Hill
#
# Bulk Modulus (GPa) = 6.68683 7.12957 6.90820
# Shear Modulus (GPa) = 14.32241 22.18852 18.25547
#
# Velocity S-wave (km/s) = 2.49690 3.10784 2.81897
# Velocity P-wave (km/s) = 3.35015 3.99771 3.68817
#
# Compressibility (1/GPa) = 0.14954764
#
# Stress axis : x y z
#
# Youngs Moduli (GPa) = 36.35103 39.88026 30.48688
#
# Poissons Ratio (x) = -0.24375 -0.55295
# Poissons Ratio (y) = -0.22218 -0.23876
# Poissons Ratio (z) = -0.65931 -0.31232
#
# Static dielectric constant tensor:
#      x y z
#    x 1.871770 0.000000 0.000000 
#    y 0.000000 1.790750 0.000000 
#    z 0.000000 0.000000 1.845840 
# 
# From -- ./inp_files/15760.got.cif
#   From: 2010.05.17/outbox.cif.g08.bks.cpg/sg62_8_cif.got.tgz:15760.got - 2010.06.03 15:25:27.
