data_PCOD9464320
_publ_section_title
;
Structure prediction by ZEFSAII (Michael W. Deem and Ramdas Pophale) SiO2 
 PCOD9464320
Probable space group: P N M A
;
_chemical_formula_sum "Si O2"
_cell_formula_units_Z 64
_cell_length_a 12.420883
_cell_length_b 9.547488
_cell_length_c 28.952255
_cell_angle_alpha 90.000000
_cell_angle_beta 90.000000
_cell_angle_gamma 90.000000
_cell_volume 3433.396715
_symmetry_space_group_name_H-M "P N M A"
_symmetry_group_IT_number 62
_symmetry_cell_setting 'orthorhombic'
loop_
_space_group_symop_operation_xyz
x,y,z
1/2-x,-y,1/2+z
1/2+x,1/2-y,1/2-z
-x,1/2+y,-z
-x,-y,-z
1/2+x,y,1/2-z
1/2-x,1/2+y,1/2+z
x,1/2-y,z
loop_
_atom_site_type_symbol
_atom_site_label
_atom_site_fract_x
_atom_site_fract_y
_atom_site_fract_z
Si Si1 0.773894 0.415867 0.528531
Si Si2 0.663743 0.579570 0.875172
Si Si3 0.433840 0.583520 0.412595
Si Si4 0.063584 0.586047 0.721501
Si Si5 0.641792 0.416589 0.434915
Si Si6 0.867888 0.583962 0.189620
Si Si7 0.455268 0.587917 0.928175
Si Si8 0.161228 0.406714 0.328619
O O1 0.795473 0.250000 0.532706
O O2 0.682492 0.455079 0.566258
O O3 0.715126 0.440625 0.479932
O O4 0.883969 0.498915 0.536689
O O5 0.656808 0.750000 0.875605
O O6 0.631450 0.536768 0.823495
O O7 0.782232 0.540853 0.891961
O O8 0.572778 0.534231 0.912301
O O9 0.446748 0.750000 0.420581
O O10 0.531070 0.500094 0.435593
O O11 0.432191 0.556071 0.357855
O O12 0.089754 0.750000 0.729830
O O13 0.939600 0.579507 0.705711
O O14 0.085399 0.495272 0.766313
O O15 0.620140 0.250000 0.432397
O O16 0.865284 0.750000 0.196842
O O17 0.749135 0.523183 0.180616
O O18 0.464961 0.750000 0.943289
O O19 0.388882 0.585811 0.879838
O O20 0.208356 0.250000 0.323041
#
# Coordination Sequence:
#
# PCOD9464320 Si02
#       8
#     8   8   8   8   8   8   8   8
#     4  10  20  35  54  80 111 143 179 224 276 322
#     4   8  17  36  56  79 110 140 175 227 277 314
#     4  10  22  38  52  73 111 146 177 226 276 316
#     4   9  19  36  57  79 106 139 179 225 272 322
#     4  10  21  36  57  80 107 146 186 222 268 329
#     4  11  22  35  54  80 110 142 176 223 277 328
#     4   9  17  32  57  81 104 137 178 221 265 319
#     4   9  18  34  55  77 101 136 179 222 264 315
#
# _framework density 18.640433000000002
#
# number of rings (size 3 to 8) (size 9 to 14) (size 15 to 20)
#    0.000    2.500    1.250    2.250    0.000    4.000 
#    0.000    6.875    0.000    0.000    0.000    0.000 
#    0.000    0.000    0.000    0.000    0.000    0.000 
#
# Total GULP energy -357074.184526 kJ/mol
# GULP energy per Si atom -5579.284133 kJ/mol
# Density = 1.859801 g / cm^3
# Si number density = 18.640433 Si / 1000 Ang^3
#
#
#
# Elastic Constant Matrix: (Units=GPa)
#
#
# Indices 1 2 3 4 5 6 
#
# 1 43.3439 16.4920 6.2146 0.0000 0.0000 0.0000
# 2 16.4920 31.1101 23.9867 0.0000 0.0000 0.0000
# 3 6.2146 23.9867 47.0159 0.0000 0.0000 0.0000
# 4 0.0000 0.0000 0.0000 25.9289 0.0000 0.0000
# 5 0.0000 0.0000 0.0000 0.0000 22.7210 0.0000
# 6 0.0000 0.0000 0.0000 0.0000 0.0000 18.8034
#
#
#
# Elastic Compliance Matrix: (Units=1/GPa)
#
#
# Indices 1 2 3 4 5 6 
#
# 1 0.030194 -0.021313 0.006882 0.000000 0.000000 0.000000
# 2 -0.021313 0.068031 -0.031891 0.000000 0.000000 0.000000
# 3 0.006882 -0.031891 0.036630 0.000000 0.000000 0.000000
# 4 0.000000 0.000000 0.000000 0.038567 0.000000 0.000000
# 5 0.000000 0.000000 0.000000 0.000000 0.044012 0.000000
# 6 0.000000 0.000000 0.000000 0.000000 0.000000 0.053182
#
#
# Mechanical properties :
#
#
# Convention : Reuss Voigt Hill
#
# Bulk Modulus (GPa) = 23.69006 23.87296 23.78151
# Shear Modulus (GPa) = 13.25102 18.47574 15.86338
#
# Velocity S-wave (km/s) = 2.66912 3.15169 2.92039
# Velocity P-wave (km/s) = 4.71545 5.10677 4.91501
#
# Compressibility (1/GPa) = 0.04221179
#
# Stress axis : x y z
#
# Youngs Moduli (GPa) = 33.11936 14.69919 27.30005
#
# Poissons Ratio (x) = 0.31328 -0.18789
# Poissons Ratio (y) = 0.70586 0.87063
# Poissons Ratio (z) = -0.22794 0.46877
#
# Static dielectric constant tensor:
#      x y z
#    x 1.630720 0.000000 0.000000 
#    y 0.000000 1.587870 0.000000 
#    z 0.000000 0.000000 1.667170 
# 
# From -- ./inp_files/32549.got.cif
#   From: 2010.05.17/outbox.cif.g08.bks.cpg/sg62_17_cif.got.tgz:32549.got - 2010.06.03 15:25:27.
