data_PCOD9464347
_publ_section_title
;
Structure prediction by ZEFSAII (Michael W. Deem and Ramdas Pophale) SiO2 
 PCOD9464347
Probable space group: P N M A
;
_chemical_formula_sum "Si O2"
_cell_formula_units_Z 56
_cell_length_a 12.842544
_cell_length_b 9.444626
_cell_length_c 23.280388
_cell_angle_alpha 90.000000
_cell_angle_beta 90.000000
_cell_angle_gamma 90.000000
_cell_volume 2823.748683
_symmetry_space_group_name_H-M "P N M A"
_symmetry_group_IT_number 62
_symmetry_cell_setting 'orthorhombic'
loop_
_space_group_symop_operation_xyz
x,y,z
1/2-x,-y,1/2+z
1/2+x,1/2-y,1/2-z
-x,1/2+y,-z
-x,-y,-z
1/2+x,y,1/2-z
1/2-x,1/2+y,1/2+z
x,1/2-y,z
loop_
_atom_site_type_symbol
_atom_site_label
_atom_site_fract_x
_atom_site_fract_y
_atom_site_fract_z
Si Si1 0.281532 0.909460 0.964575
Si Si2 0.314954 0.586924 0.634565
Si Si3 0.925414 0.088402 0.958260
Si Si4 0.106577 0.910528 0.554727
Si Si5 0.998187 0.088045 0.648294
Si Si6 0.691792 0.081443 0.771400
Si Si7 0.256437 0.414151 0.851792
O O1 0.315368 0.750000 0.951427
O O2 0.183619 0.902140 0.007618
O O3 0.245465 0.990179 0.907594
O O4 0.368308 0.997081 0.999002
O O5 0.346150 0.750000 0.644862
O O6 0.401263 0.496716 0.600255
O O7 0.213433 0.591179 0.592649
O O8 0.274725 0.507077 0.691383
O O9 0.962220 0.250000 0.948143
O O10 0.000000 0.000000 0.000000
O O11 0.081006 0.750000 0.539117
O O12 0.024350 0.982159 0.597015
O O13 0.018195 0.250000 0.628505
O O14 0.079365 0.060063 0.699401
O O15 0.878445 0.078206 0.665454
O O16 0.716383 0.250000 0.775218
O O17 0.693170 0.042500 0.704555
O O18 0.233107 0.250000 0.866043
#
# Coordination Sequence:
#
# PCOD9464347 Si02
#       7
#     8   8   8   8   8   8   8
#     4  10  21  36  54  78 111 144 176 221 277 324
#     4   9  17  31  53  78 104 136 177 222 268 319
#     4  10  20  35  55  80 110 143 181 225 273 329
#     4   9  17  31  54  80 105 135 174 215 264 324
#     4   9  18  34  55  77 104 139 180 224 270 323
#     4   9  18  35  55  75 104 141 183 228 270 318
#     4  10  21  36  54  78 110 145 184 226 273 327
#
# _framework density 19.831793000000001
#
# number of rings (size 3 to 8) (size 9 to 14) (size 15 to 20)
#    0.000    2.571    0.000    1.714    0.000    6.857 
#    2.571    0.000    0.000    0.000    0.000    0.000 
#    0.000    0.000    0.000    0.000    0.000    0.000 
#
# Total GULP energy -312645.114473 kJ/mol
# GULP energy per Si atom -5582.948473 kJ/mol
# Density = 1.978666 g / cm^3
# Si number density = 19.831793 Si / 1000 Ang^3
#
#
#
# Elastic Constant Matrix: (Units=GPa)
#
#
# Indices 1 2 3 4 5 6 
#
# 1 16.3096 5.4774 -12.8192 0.0000 0.0000 0.0000
# 2 5.4774 105.9889 50.7359 0.0000 0.0000 0.0000
# 3 -12.8192 50.7359 95.6536 0.0000 0.0000 0.0000
# 4 0.0000 0.0000 0.0000 30.6293 0.0000 0.0000
# 5 0.0000 0.0000 0.0000 0.0000 24.9274 0.0000
# 6 0.0000 0.0000 0.0000 0.0000 0.0000 20.0853
#
#
#
# Elastic Compliance Matrix: (Units=1/GPa)
#
#
# Indices 1 2 3 4 5 6 
#
# 1 0.078830 -0.012238 0.017056 0.000000 0.000000 0.000000
# 2 -0.012238 0.014546 -0.009355 0.000000 0.000000 0.000000
# 3 0.017056 -0.009355 0.017702 0.000000 0.000000 0.000000
# 4 0.000000 0.000000 0.000000 0.032648 0.000000 0.000000
# 5 0.000000 0.000000 0.000000 0.000000 0.040117 0.000000
# 6 0.000000 0.000000 0.000000 0.000000 0.000000 0.049788
#
#
# Mechanical properties :
#
#
# Convention : Reuss Voigt Hill
#
# Bulk Modulus (GPa) = 9.80373 33.86002 21.83188
# Shear Modulus (GPa) = 18.06967 26.76560 22.41764
#
# Velocity S-wave (km/s) = 3.02180 3.67772 3.36577
# Velocity P-wave (km/s) = 4.13874 5.92831 5.11244
#
# Compressibility (1/GPa) = 0.10200197
#
# Stress axis : x y z
#
# Youngs Moduli (GPa) = 12.68560 68.74861 56.48962
#
# Poissons Ratio (x) = 0.84137 -0.96348
# Poissons Ratio (y) = 0.15525 0.52848
# Poissons Ratio (z) = -0.21636 0.64317
#
# Static dielectric constant tensor:
#      x y z
#    x 1.716530 0.000000 0.000000 
#    y 0.000000 1.691640 0.000000 
#    z 0.000000 0.000000 1.668190 
# 
# From -- ./inp_files/27229.got.cif
#   From: 2010.05.17/outbox.cif.g08.bks.cpg/sg62_14_cif.got.tgz:27229.got - 2010.06.03 15:25:27.
