data_PCOD9464559
_publ_section_title
;
Structure prediction by ZEFSAII (Michael W. Deem and Ramdas Pophale) SiO2 
 PCOD9464559
Probable space group: P N M A
;
_chemical_formula_sum "Si O2"
_cell_formula_units_Z 64
_cell_length_a 27.086973
_cell_length_b 8.251623
_cell_length_c 11.472569
_cell_angle_alpha 90.000000
_cell_angle_beta 90.000000
_cell_angle_gamma 90.000000
_cell_volume 2564.250985
_symmetry_space_group_name_H-M "P N M A"
_symmetry_group_IT_number 62
_symmetry_cell_setting 'orthorhombic'
loop_
_space_group_symop_operation_xyz
x,y,z
1/2-x,-y,1/2+z
1/2+x,1/2-y,1/2-z
-x,1/2+y,-z
-x,-y,-z
1/2+x,y,1/2-z
1/2-x,1/2+y,1/2+z
x,1/2-y,z
loop_
_atom_site_type_symbol
_atom_site_label
_atom_site_fract_x
_atom_site_fract_y
_atom_site_fract_z
Si Si1 0.780830 0.444135 0.616722
Si Si2 0.165845 0.072399 0.696604
Si Si3 0.980863 0.056027 0.172731
Si Si4 0.393332 0.439031 0.874849
Si Si5 0.758520 0.568306 0.878927
Si Si6 0.627946 0.939538 0.581830
Si Si7 0.443795 0.934173 0.090742
Si Si8 0.913838 0.936781 0.872568
O O1 0.775408 0.250000 0.612313
O O2 0.837835 0.484948 0.585876
O O3 0.775462 0.494056 0.753646
O O4 0.744879 0.508003 0.510911
O O5 0.187220 0.250000 0.670164
O O6 0.110796 0.066752 0.648528
O O7 0.199714 0.932263 0.647593
O O8 0.161174 0.046656 0.834802
O O9 0.984408 0.250000 0.167988
O O10 0.030893 0.989130 0.116094
O O11 0.977544 0.004090 0.307406
O O12 0.928824 0.011795 0.114411
O O13 0.392900 0.250000 0.840680
O O14 0.404055 0.547920 0.763574
O O15 0.433959 0.465672 0.974599
O O16 0.779287 0.750000 0.886276
O O17 0.634590 0.750000 0.608295
O O18 0.628462 0.972116 0.444827
O O19 0.457535 0.750000 0.062667
O O20 0.913331 0.750000 0.909981
#
# Coordination Sequence:
#
# PCOD9464559 Si02
#       8
#     8   8   8   8   8   8   8   8
#     4  10  24  44  65  93 127 163 206 255 311 375
#     4  10  20  36  61  90 119 153 195 242 295 355
#     4   9  20  37  58  84 117 158 201 250 303 362
#     4  11  23  41  62  82 117 161 200 247 303 365
#     4  11  23  41  67  96 126 162 203 254 310 371
#     4  10  20  36  59  86 118 159 204 247 302 363
#     4  10  20  35  60  89 115 149 198 249 296 353
#     4  11  23  38  56  84 121 158 202 253 306 360
#
# _framework density 24.958556000000002
#
# number of rings (size 3 to 8) (size 9 to 14) (size 15 to 20)
#    0.000    1.750    1.250    2.625    0.000    6.000 
#    0.000    2.500    0.000    0.000    0.000    0.000 
#    0.000    0.000    0.000    0.000    0.000    0.000 
#
# Total GULP energy -357496.968095 kJ/mol
# GULP energy per Si atom -5585.890126 kJ/mol
# Density = 2.490175 g / cm^3
# Si number density = 24.958556 Si / 1000 Ang^3
#
#
#
# Elastic Constant Matrix: (Units=GPa)
#
#
# Indices 1 2 3 4 5 6 
#
# 1 27.6813 -9.3492 12.4724 0.0000 0.0000 0.0000
# 2 -9.3492 33.3618 7.4927 0.0000 0.0000 0.0000
# 3 12.4724 7.4927 129.9609 0.0000 0.0000 0.0000
# 4 0.0000 0.0000 0.0000 35.0508 0.0000 0.0000
# 5 0.0000 0.0000 0.0000 0.0000 54.9248 0.0000
# 6 0.0000 0.0000 0.0000 0.0000 0.0000 17.3466
#
#
#
# Elastic Compliance Matrix: (Units=1/GPa)
#
#
# Indices 1 2 3 4 5 6 
#
# 1 0.042724 0.013063 -0.004853 0.000000 0.000000 0.000000
# 2 0.013063 0.034362 -0.003235 0.000000 0.000000 0.000000
# 3 -0.004853 -0.003235 0.008347 0.000000 0.000000 0.000000
# 4 0.000000 0.000000 0.000000 0.028530 0.000000 0.000000
# 5 0.000000 0.000000 0.000000 0.000000 0.018207 0.000000
# 6 0.000000 0.000000 0.000000 0.000000 0.000000 0.057648
#
#
# Mechanical properties :
#
#
# Convention : Reuss Voigt Hill
#
# Bulk Modulus (GPa) = 10.48414 23.58176 17.03295
# Shear Modulus (GPa) = 23.62254 33.49030 28.55642
#
# Velocity S-wave (km/s) = 3.07981 3.66708 3.38620
# Velocity P-wave (km/s) = 4.10570 5.23439 4.70402
#
# Compressibility (1/GPa) = 0.09538219
#
# Stress axis : x y z
#
# Youngs Moduli (GPa) = 23.40593 29.10231 119.80502
#
# Poissons Ratio (x) = -0.38016 0.58146
# Poissons Ratio (y) = -0.30575 0.38754
# Poissons Ratio (z) = 0.11360 0.09414
#
# Static dielectric constant tensor:
#      x y z
#    x 2.027990 0.000000 0.000000 
#    y 0.000000 1.887500 0.000000 
#    z 0.000000 0.000000 2.042840 
# 
# From -- ./inp_files/15817.got.cif
#   From: 2010.05.17/outbox.cif.g08.bks.cpg/sg62_8_cif.got.tgz:15817.got - 2010.06.03 15:25:27.
