data_PCOD9464612
_publ_section_title
;
Structure prediction by ZEFSAII (Michael W. Deem and Ramdas Pophale) SiO2 
 PCOD9464612
Probable space group: P N M A
;
_chemical_formula_sum "Si O2"
_cell_formula_units_Z 40
_cell_length_a 13.065654
_cell_length_b 9.439631
_cell_length_c 16.144228
_cell_angle_alpha 90.000000
_cell_angle_beta 90.000000
_cell_angle_gamma 90.000000
_cell_volume 1991.147594
_symmetry_space_group_name_H-M "P N M A"
_symmetry_group_IT_number 62
_symmetry_cell_setting 'orthorhombic'
loop_
_space_group_symop_operation_xyz
x,y,z
1/2-x,-y,1/2+z
1/2+x,1/2-y,1/2-z
-x,1/2+y,-z
-x,-y,-z
1/2+x,y,1/2-z
1/2-x,1/2+y,1/2+z
x,1/2-y,z
loop_
_atom_site_type_symbol
_atom_site_label
_atom_site_fract_x
_atom_site_fract_y
_atom_site_fract_z
Si Si1 0.204045 0.080042 0.634696
Si Si2 0.026386 0.089585 0.874747
Si Si3 0.979882 0.418153 0.583937
Si Si4 0.367950 0.076783 0.763095
Si Si5 0.657706 0.911045 0.510363
O O1 0.222065 0.250000 0.630970
O O2 0.266830 0.028930 0.714430
O O3 0.253191 0.025828 0.548251
O O4 0.084028 0.059797 0.636200
O O5 0.060862 0.250000 0.856882
O O6 0.963293 0.034395 0.795941
O O7 0.119078 0.000063 0.911756
O O8 0.939123 0.095861 0.946633
O O9 0.969320 0.250000 0.567751
O O10 0.887898 0.468660 0.642991
O O11 0.000000 0.500000 0.500000
O O12 0.368946 0.250000 0.764298
O O13 0.683159 0.750000 0.534661
#
# Coordination Sequence:
#
# PCOD9464612 Si02
#       5
#     8   8   8   8   8
#     4   8  15  30  51  72  99 135 170 203 249 305
#     4   8  13  23  41  67  96 122 157 206 249 284
#     4  10  20  36  56  76 103 137 171 212 258 305
#     4   8  15  30  51  74  98 130 173 212 245 296
#     4   8  13  23  41  65  95 129 159 192 244 305
#
# _framework density 20.088918
#
# number of rings (size 3 to 8) (size 9 to 14) (size 15 to 20)
#    0.000    3.600    0.000    2.400    0.000    0.000 
#    3.600    2.000    0.000    3.600    0.000    0.000 
#    0.000    0.000    0.000    0.000    0.000    0.000 
#
# Total GULP energy -222751.954859 kJ/mol
# GULP energy per Si atom -5568.798871 kJ/mol
# Density = 2.004319 g / cm^3
# Si number density = 20.088918 Si / 1000 Ang^3
#
#
#
# Elastic Constant Matrix: (Units=GPa)
#
#
# Indices 1 2 3 4 5 6 
#
# 1 25.6642 6.5736 12.1138 0.0000 0.0000 0.0000
# 2 6.5736 16.7966 18.2123 0.0000 0.0000 0.0000
# 3 12.1138 18.2123 99.3281 0.0000 0.0000 0.0000
# 4 0.0000 0.0000 0.0000 20.1879 0.0000 0.0000
# 5 0.0000 0.0000 0.0000 0.0000 22.1248 0.0000
# 6 0.0000 0.0000 0.0000 0.0000 0.0000 11.2369
#
#
#
# Elastic Compliance Matrix: (Units=1/GPa)
#
#
# Indices 1 2 3 4 5 6 
#
# 1 0.043900 -0.014199 -0.002751 0.000000 0.000000 0.000000
# 2 -0.014199 0.078901 -0.012735 0.000000 0.000000 0.000000
# 3 -0.002751 -0.012735 0.012738 0.000000 0.000000 0.000000
# 4 0.000000 0.000000 0.000000 0.049535 0.000000 0.000000
# 5 0.000000 0.000000 0.000000 0.000000 0.045198 0.000000
# 6 0.000000 0.000000 0.000000 0.000000 0.000000 0.088992
#
#
# Mechanical properties :
#
#
# Convention : Reuss Voigt Hill
#
# Bulk Modulus (GPa) = 13.12844 23.95425 18.54134
# Shear Modulus (GPa) = 12.37551 17.70253 15.03902
#
# Velocity S-wave (km/s) = 2.48470 2.97174 2.73907
# Velocity P-wave (km/s) = 3.84461 4.87083 4.38782
#
# Compressibility (1/GPa) = 0.07617053
#
# Stress axis : x y z
#
# Youngs Moduli (GPa) = 22.77911 12.67405 78.50417
#
# Poissons Ratio (x) = 0.17995 0.21593
# Poissons Ratio (y) = 0.32343 0.99978
# Poissons Ratio (z) = 0.06265 0.16141
#
# Static dielectric constant tensor:
#      x y z
#    x 1.764330 0.000000 0.000000 
#    y 0.000000 1.681390 0.000000 
#    z 0.000000 0.000000 1.756550 
# 
# From -- ./inp_files/17802.got.cif
#   From: 2010.05.17/outbox.cif.g08.bks.cpg/sg62_9_cif.got.tgz:17802.got - 2010.06.03 15:25:27.
