data_PCOD9464285
_publ_section_title
;
Structure prediction by ZEFSAII (Michael W. Deem and Ramdas Pophale) SiO2 
 PCOD9464285
Probable space group: P N M A
;
_chemical_formula_sum "Si O2"
_cell_formula_units_Z 48
_cell_length_a 6.868298
_cell_length_b 9.007861
_cell_length_c 31.693659
_cell_angle_alpha 90.000000
_cell_angle_beta 90.000000
_cell_angle_gamma 90.000000
_cell_volume 1960.844647
_symmetry_space_group_name_H-M "P N M A"
_symmetry_group_IT_number 62
_symmetry_cell_setting 'orthorhombic'
loop_
_space_group_symop_operation_xyz
x,y,z
1/2-x,-y,1/2+z
1/2+x,1/2-y,1/2-z
-x,1/2+y,-z
-x,-y,-z
1/2+x,y,1/2-z
1/2-x,1/2+y,1/2+z
x,1/2-y,z
loop_
_atom_site_type_symbol
_atom_site_label
_atom_site_fract_x
_atom_site_fract_y
_atom_site_fract_z
Si Si1 0.409820 0.419774 0.863125
Si Si2 0.587764 0.574524 0.300400
Si Si3 0.869627 0.416320 0.891451
Si Si4 0.222105 0.417081 0.028164
Si Si5 0.317901 0.918338 0.946338
Si Si6 0.472511 0.422252 0.217732
O O1 0.360800 0.250000 0.852998
O O2 0.641588 0.419081 0.876329
O O3 0.306323 0.479189 0.905153
O O4 0.396019 0.518320 0.820795
O O5 0.646342 0.750000 0.296709
O O6 0.511750 0.560805 0.348149
O O7 0.472750 0.528233 0.258747
O O8 0.756078 0.450557 0.298743
O O9 0.907205 0.250000 0.907500
O O10 0.885186 0.529804 0.929572
O O11 0.170832 0.250000 0.016258
O O12 0.452170 0.418133 0.040842
O O13 0.209290 0.523000 0.987819
O O14 0.265511 0.750000 0.935850
O O15 0.511470 0.250000 0.226977
#
# Coordination Sequence:
#
# PCOD9464285 Si02
#       6
#     8   8   8   8   8   8
#     4   9  16  27  41  58  83 116 151 186 229 280
#     4  10  20  35  52  70  95 129 164 198 240 289
#     4   8  15  26  40  57  80 112 149 186 225 272
#     4   9  15  21  32  51  77 109 143 179 222 272
#     4   9  15  22  33  51  77 109 145 183 222 268
#     4  11  21  33  50  73  98 125 160 202 244 285
#
# _framework density 24.479248999999999
#
# number of rings (size 3 to 8) (size 9 to 14) (size 15 to 20)
#    0.000    2.667    0.000    4.500    0.000    8.667 
#    0.000    0.000    0.000    0.000    0.000    0.000 
#    0.000    1.333    0.000    5.000    0.000   13.333 
#
# Total GULP energy -268357.977848 kJ/mol
# GULP energy per Si atom -5590.791205 kJ/mol
# Density = 2.442353 g / cm^3
# Si number density = 24.479249 Si / 1000 Ang^3
#
#
#
# Elastic Constant Matrix: (Units=GPa)
#
#
# Indices 1 2 3 4 5 6 
#
# 1 55.3581 1.5998 13.4173 0.0000 0.0000 0.0000
# 2 1.5998 142.3256 68.4309 0.0000 0.0000 0.0000
# 3 13.4173 68.4309 140.4975 0.0000 0.0000 0.0000
# 4 0.0000 0.0000 0.0000 43.8664 0.0000 0.0000
# 5 0.0000 0.0000 0.0000 0.0000 46.9731 0.0000
# 6 0.0000 0.0000 0.0000 0.0000 0.0000 23.0777
#
#
#
# Elastic Compliance Matrix: (Units=1/GPa)
#
#
# Indices 1 2 3 4 5 6 
#
# 1 0.018569 0.000841 -0.002183 0.000000 0.000000 0.000000
# 2 0.000841 0.009213 -0.004567 0.000000 0.000000 0.000000
# 3 -0.002183 -0.004567 0.009551 0.000000 0.000000 0.000000
# 4 0.000000 0.000000 0.000000 0.022796 0.000000 0.000000
# 5 0.000000 0.000000 0.000000 0.000000 0.021289 0.000000
# 6 0.000000 0.000000 0.000000 0.000000 0.000000 0.043332
#
#
# Mechanical properties :
#
#
# Convention : Reuss Voigt Hill
#
# Bulk Modulus (GPa) = 39.19513 56.11970 47.65741
# Shear Modulus (GPa) = 34.46542 39.76566 37.11554
#
# Velocity S-wave (km/s) = 3.75633 4.03484 3.89807
# Velocity P-wave (km/s) = 5.90421 6.68444 6.30640
#
# Compressibility (1/GPa) = 0.02551337
#
# Stress axis : x y z
#
# Youngs Moduli (GPa) = 53.85327 108.54512 104.70479
#
# Poissons Ratio (x) = -0.09126 0.22855
# Poissons Ratio (y) = -0.04528 0.47824
# Poissons Ratio (z) = 0.11755 0.49578
#
# Static dielectric constant tensor:
#      x y z
#    x 2.163400 0.000000 0.000000 
#    y 0.000000 1.805900 0.000000 
#    z 0.000000 0.000000 1.927920 
# 
# From -- ./inp_files/31001.got.cif
#   From: 2010.05.17/outbox.cif.g08.bks.cpg/sg62_16_cif.got.tgz:31001.got - 2010.06.03 15:25:27.
