data_PCOD9464642
_publ_section_title
;
Structure prediction by ZEFSAII (Michael W. Deem and Ramdas Pophale) SiO2 
 PCOD9464642
Probable space group: P N M A
;
_chemical_formula_sum "Si O2"
_cell_formula_units_Z 56
_cell_length_a 13.304579
_cell_length_b 9.444693
_cell_length_c 23.574563
_cell_angle_alpha 90.000000
_cell_angle_beta 90.000000
_cell_angle_gamma 90.000000
_cell_volume 2962.324520
_symmetry_space_group_name_H-M "P N M A"
_symmetry_group_IT_number 62
_symmetry_cell_setting 'orthorhombic'
loop_
_space_group_symop_operation_xyz
x,y,z
1/2-x,-y,1/2+z
1/2+x,1/2-y,1/2-z
-x,1/2+y,-z
-x,-y,-z
1/2+x,y,1/2-z
1/2-x,1/2+y,1/2+z
x,1/2-y,z
loop_
_atom_site_type_symbol
_atom_site_label
_atom_site_fract_x
_atom_site_fract_y
_atom_site_fract_z
Si Si1 0.203104 0.084481 0.466317
Si Si2 0.498944 0.084528 0.172962
Si Si3 0.282808 0.081805 0.628960
Si Si4 0.109485 0.582498 0.562108
Si Si5 0.170118 0.416631 0.740107
Si Si6 0.271141 0.917405 0.836902
Si Si7 0.083957 0.586898 0.032367
O O1 0.173129 0.250000 0.464512
O O2 0.223638 0.036237 0.402389
O O3 0.309816 0.074726 0.499181
O O4 0.121832 0.998843 0.502993
O O5 0.471335 0.250000 0.181838
O O6 0.482490 0.057548 0.105421
O O7 0.615514 0.065962 0.186317
O O8 0.425802 0.986249 0.209263
O O9 0.261824 0.250000 0.616148
O O10 0.263347 0.065314 0.695612
O O11 0.387627 0.048652 0.597577
O O12 0.201439 0.980397 0.599476
O O13 0.118798 0.750000 0.552839
O O14 0.154420 0.250000 0.748157
O O15 0.196446 0.494848 0.798000
O O16 0.246064 0.750000 0.835848
O O17 0.052846 0.750000 0.031665
O O18 0.000000 0.500000 0.000000
#
# Coordination Sequence:
#
# PCOD9464642 Si02
#       7
#     8   8   8   8   8   8   8
#     4   9  19  35  52  73 107 144 174 214 274 326
#     4   9  19  36  57  80 106 141 182 222 271 328
#     4   8  16  32  51  70  98 136 172 210 264 318
#     4   9  16  28  51  80 105 129 168 215 258 313
#     4  10  20  36  57  79 106 140 181 231 277 320
#     4  10  21  38  57  77 109 148 184 225 271 328
#     4   9  17  31  50  73 101 134 172 214 261 318
#
# _framework density 18.904073
#
# number of rings (size 3 to 8) (size 9 to 14) (size 15 to 20)
#    0.000    2.857    0.000    1.714    0.000    5.143 
#    2.571    0.000    0.000    0.000    0.000    0.000 
#    0.000    0.000    0.000    0.000    0.000    0.000 
#
# Total GULP energy -312054.293650 kJ/mol
# GULP energy per Si atom -5572.398101 kJ/mol
# Density = 1.886105 g / cm^3
# Si number density = 18.904073 Si / 1000 Ang^3
#
#
#
# Elastic Constant Matrix: (Units=GPa)
#
#
# Indices 1 2 3 4 5 6 
#
# 1 13.3752 12.1062 -0.7483 0.0000 0.0000 0.0000
# 2 12.1062 50.6324 39.8562 0.0000 0.0000 0.0000
# 3 -0.7483 39.8562 96.6866 0.0000 0.0000 0.0000
# 4 0.0000 0.0000 0.0000 32.9763 0.0000 0.0000
# 5 0.0000 0.0000 0.0000 0.0000 28.4132 0.0000
# 6 0.0000 0.0000 0.0000 0.0000 0.0000 14.4759
#
#
#
# Elastic Compliance Matrix: (Units=1/GPa)
#
#
# Indices 1 2 3 4 5 6 
#
# 1 0.112825 -0.040952 0.017755 0.000000 0.000000 0.000000
# 2 -0.040952 0.044102 -0.018497 0.000000 0.000000 0.000000
# 3 0.017755 -0.018497 0.018105 0.000000 0.000000 0.000000
# 4 0.000000 0.000000 0.000000 0.030325 0.000000 0.000000
# 5 0.000000 0.000000 0.000000 0.000000 0.035195 0.000000
# 6 0.000000 0.000000 0.000000 0.000000 0.000000 0.069081
#
#
# Mechanical properties :
#
#
# Convention : Reuss Voigt Hill
#
# Bulk Modulus (GPa) = 10.91189 29.23582 20.07386
# Shear Modulus (GPa) = 11.80445 22.47174 17.13810
#
# Velocity S-wave (km/s) = 2.50159 3.45153 3.01422
# Velocity P-wave (km/s) = 3.75882 5.60205 4.77031
#
# Compressibility (1/GPa) = 0.09164315
#
# Stress axis : x y z
#
# Youngs Moduli (GPa) = 8.86325 22.67476 55.23402
#
# Poissons Ratio (x) = 0.92859 -0.98066
# Poissons Ratio (y) = 0.36297 1.02164
# Poissons Ratio (z) = -0.15736 0.41941
#
# Static dielectric constant tensor:
#      x y z
#    x 1.658950 0.000000 0.000000 
#    y 0.000000 1.631120 0.000000 
#    z 0.000000 0.000000 1.692870 
# 
# From -- ./inp_files/27281.got.cif
#   From: 2010.05.17/outbox.cif.g08.bks.cpg/sg62_14_cif.got.tgz:27281.got - 2010.06.03 15:25:27.
