data_PCOD9464604
_publ_section_title
;
Structure prediction by ZEFSAII (Michael W. Deem and Ramdas Pophale) SiO2 
 PCOD9464604
Probable space group: P N M A
;
_chemical_formula_sum "Si O2"
_cell_formula_units_Z 64
_cell_length_a 12.816521
_cell_length_b 7.539514
_cell_length_c 29.441614
_cell_angle_alpha 90.000000
_cell_angle_beta 90.000000
_cell_angle_gamma 90.000000
_cell_volume 2844.953157
_symmetry_space_group_name_H-M "P N M A"
_symmetry_group_IT_number 62
_symmetry_cell_setting 'orthorhombic'
loop_
_space_group_symop_operation_xyz
x,y,z
1/2-x,-y,1/2+z
1/2+x,1/2-y,1/2-z
-x,1/2+y,-z
-x,-y,-z
1/2+x,y,1/2-z
1/2-x,1/2+y,1/2+z
x,1/2-y,z
loop_
_atom_site_type_symbol
_atom_site_label
_atom_site_fract_x
_atom_site_fract_y
_atom_site_fract_z
Si Si1 0.884671 0.037279 0.018478
Si Si2 0.636486 0.542426 0.128958
Si Si3 0.745186 0.463823 0.935596
Si Si4 0.989898 0.967765 0.797841
Si Si5 0.987068 0.962168 0.447312
Si Si6 0.549696 0.535115 0.802652
Si Si7 0.774565 0.960417 0.835197
Si Si8 0.867364 0.045856 0.120639
O O1 0.869449 0.250000 0.020304
O O2 0.803162 0.969518 0.980669
O O3 0.871798 0.967336 0.069777
O O4 0.000000 0.000000 0.000000
O O5 0.658639 0.750000 0.122790
O O6 0.581096 0.468528 0.083460
O O7 0.549425 0.521969 0.167645
O O8 0.747975 0.456466 0.137267
O O9 0.741872 0.250000 0.938382
O O10 0.626348 0.530814 0.932752
O O11 0.799325 0.510221 0.888236
O O12 0.991387 0.750000 0.797955
O O13 0.870803 0.026847 0.805323
O O14 0.035099 0.021951 0.749329
O O15 0.058887 0.030961 0.840376
O O16 0.986233 0.750000 0.440570
O O17 0.000000 0.000000 0.500000
O O18 0.550505 0.750000 0.803989
O O19 0.659733 0.468720 0.822976
O O20 0.769317 0.750000 0.827666
O O21 0.901782 0.250000 0.115422
#
# Coordination Sequence:
#
# PCOD9464604 Si02
#       8
#     8   8   8   8   8   8   8   8
#     4  10  21  36  58  86 117 156 198 239 288 346
#     4  11  23  39  58  84 119 154 190 239 294 350
#     4  10  20  36  55  79 115 154 187 229 288 346
#     4   9  20  37  61  90 116 146 193 249 293 338
#     4  10  21  36  55  79 110 146 187 233 282 336
#     4  10  21  37  61  88 113 149 194 242 296 349
#     4  10  20  36  60  89 115 145 195 244 287 345
#     4  10  21  39  62  87 119 158 198 242 290 345
#
# _framework density 22.495975999999999
#
# number of rings (size 3 to 8) (size 9 to 14) (size 15 to 20)
#    0.000    2.000    1.250    1.875    1.750    4.500 
#    0.000    1.875    0.000    0.000    0.000    0.000 
#    0.000    0.000    0.000    0.000    0.000    0.000 
#
# Total GULP energy -357703.667073 kJ/mol
# GULP energy per Si atom -5589.119798 kJ/mol
# Density = 2.244477 g / cm^3
# Si number density = 22.495976 Si / 1000 Ang^3
#
#
#
# Elastic Constant Matrix: (Units=GPa)
#
#
# Indices 1 2 3 4 5 6 
#
# 1 108.7414 -8.1584 49.3281 0.0000 0.0000 0.0000
# 2 -8.1584 56.7755 -6.4086 0.0000 0.0000 0.0000
# 3 49.3281 -6.4086 144.1838 0.0000 0.0000 0.0000
# 4 0.0000 0.0000 0.0000 15.4478 0.0000 0.0000
# 5 0.0000 0.0000 0.0000 0.0000 39.1658 0.0000
# 6 0.0000 0.0000 0.0000 0.0000 0.0000 12.4791
#
#
#
# Elastic Compliance Matrix: (Units=1/GPa)
#
#
# Indices 1 2 3 4 5 6 
#
# 1 0.010961 0.001158 -0.003698 0.000000 0.000000 0.000000
# 2 0.001158 0.017824 0.000396 0.000000 0.000000 0.000000
# 3 -0.003698 0.000396 0.008219 0.000000 0.000000 0.000000
# 4 0.000000 0.000000 0.000000 0.064734 0.000000 0.000000
# 5 0.000000 0.000000 0.000000 0.000000 0.025532 0.000000
# 6 0.000000 0.000000 0.000000 0.000000 0.000000 0.080134
#
#
# Mechanical properties :
#
#
# Convention : Reuss Voigt Hill
#
# Bulk Modulus (GPa) = 30.56778 42.13587 36.35183
# Shear Modulus (GPa) = 22.46203 31.74786 27.10494
#
# Velocity S-wave (km/s) = 3.16332 3.76076 3.47490
# Velocity P-wave (km/s) = 5.19228 6.13423 5.68281
#
# Compressibility (1/GPa) = 0.03271418
#
# Stress axis : x y z
#
# Youngs Moduli (GPa) = 91.23519 56.10325 121.67668
#
# Poissons Ratio (x) = -0.06494 0.45001
# Poissons Ratio (y) = -0.10561 -0.04821
# Poissons Ratio (z) = 0.33743 -0.02223
#
# Static dielectric constant tensor:
#      x y z
#    x 1.840990 0.000000 0.000000 
#    y 0.000000 1.826490 0.000000 
#    z 0.000000 0.000000 1.798900 
# 
# From -- ./inp_files/32490.got.cif
#   From: 2010.05.17/outbox.cif.g08.bks.cpg/sg62_17_cif.got.tgz:32490.got - 2010.06.03 15:25:27.
