data_PCOD9464161
_publ_section_title
;
Structure prediction by ZEFSAII (Michael W. Deem and Ramdas Pophale) SiO2 
 PCOD9464161
Probable space group: P N M A
;
_chemical_formula_sum "Si O2"
_cell_formula_units_Z 48
_cell_length_a 9.714515
_cell_length_b 8.794974
_cell_length_c 28.127895
_cell_angle_alpha 90.000000
_cell_angle_beta 90.000000
_cell_angle_gamma 90.000000
_cell_volume 2403.216601
_symmetry_space_group_name_H-M "P N M A"
_symmetry_group_IT_number 62
_symmetry_cell_setting 'orthorhombic'
loop_
_space_group_symop_operation_xyz
x,y,z
1/2-x,-y,1/2+z
1/2+x,1/2-y,1/2-z
-x,1/2+y,-z
-x,-y,-z
1/2+x,y,1/2-z
1/2-x,1/2+y,1/2+z
x,1/2-y,z
loop_
_atom_site_type_symbol
_atom_site_label
_atom_site_fract_x
_atom_site_fract_y
_atom_site_fract_z
Si Si1 0.443227 0.070032 0.548968
Si Si2 0.701601 0.573415 0.899542
Si Si3 0.857721 0.064099 0.295453
Si Si4 0.680822 0.565097 0.605958
Si Si5 0.322994 0.564808 0.794830
Si Si6 0.071365 0.075138 0.455435
O O1 0.452359 0.250000 0.545758
O O2 0.500000 0.000000 0.500000
O O3 0.289464 0.018895 0.562341
O O4 0.535833 0.005376 0.592098
O O5 0.746830 0.750000 0.901942
O O6 0.709843 0.516943 0.845505
O O7 0.541037 0.570752 0.913394
O O8 0.859362 0.250000 0.296222
O O9 0.766404 0.016128 0.250638
O O10 0.017570 0.014894 0.292773
O O11 0.672697 0.750000 0.604685
O O12 0.744969 0.521145 0.656640
O O13 0.787364 0.511402 0.565124
O O14 0.325960 0.750000 0.794611
O O15 0.097529 0.250000 0.467714
O O16 0.000000 0.000000 0.500000
#
# Coordination Sequence:
#
# PCOD9464161 Si02
#       6
#     8   8   8   8   8   8
#     4  12  26  42  59  84 116 154 201 244 293 352
#     4  10  20  37  59  86 120 153 189 240 292 343
#     4   9  17  30  53  89 123 150 187 236 288 340
#     4  10  20  37  59  86 120 153 189 240 292 343
#     4   9  17  30  53  89 123 150 187 236 288 340
#     4  10  20  34  55  82 112 144 185 232 285 344
#
# _framework density 19.973229
#
# number of rings (size 3 to 8) (size 9 to 14) (size 15 to 20)
#    0.000    2.000    1.667    2.500    2.333    4.000 
#    0.000    0.000    0.000    1.000    0.000    0.000 
#    0.000    0.000    0.000    0.000    0.000    0.000 
#
# Total GULP energy -267982.200196 kJ/mol
# GULP energy per Si atom -5582.962504 kJ/mol
# Density = 1.992777 g / cm^3
# Si number density = 19.973229 Si / 1000 Ang^3
#
#
#
# Elastic Constant Matrix: (Units=GPa)
#
#
# Indices 1 2 3 4 5 6 
#
# 1 65.9364 11.7018 7.3402 0.0000 0.0000 0.0000
# 2 11.7018 32.3055 15.6207 0.0000 0.0000 0.0000
# 3 7.3402 15.6207 95.0238 0.0000 0.0000 0.0000
# 4 0.0000 0.0000 0.0000 11.2757 0.0000 0.0000
# 5 0.0000 0.0000 0.0000 0.0000 35.2591 0.0000
# 6 0.0000 0.0000 0.0000 0.0000 0.0000 18.9638
#
#
#
# Elastic Compliance Matrix: (Units=1/GPa)
#
#
# Indices 1 2 3 4 5 6 
#
# 1 0.016217 -0.005723 -0.000312 0.000000 0.000000 0.000000
# 2 -0.005723 0.035647 -0.005418 0.000000 0.000000 0.000000
# 3 -0.000312 -0.005418 0.011438 0.000000 0.000000 0.000000
# 4 0.000000 0.000000 0.000000 0.088686 0.000000 0.000000
# 5 0.000000 0.000000 0.000000 0.000000 0.028361 0.000000
# 6 0.000000 0.000000 0.000000 0.000000 0.000000 0.052732
#
#
# Mechanical properties :
#
#
# Convention : Reuss Voigt Hill
#
# Bulk Modulus (GPa) = 24.75471 29.17679 26.96575
# Shear Modulus (GPa) = 18.55609 23.67326 21.11468
#
# Velocity S-wave (km/s) = 3.05134 3.44648 3.25491
# Velocity P-wave (km/s) = 4.98348 5.52062 5.25891
#
# Compressibility (1/GPa) = 0.04039636
#
# Stress axis : x y z
#
# Youngs Moduli (GPa) = 61.66543 28.05269 87.42489
#
# Poissons Ratio (x) = 0.16055 0.02726
# Poissons Ratio (y) = 0.35292 0.47365
# Poissons Ratio (z) = 0.01923 0.15199
#
# Static dielectric constant tensor:
#      x y z
#    x 1.699070 0.000000 0.000000 
#    y 0.000000 1.686080 0.000000 
#    z 0.000000 0.000000 1.717470 
# 
# From -- ./inp_files/32018.got.cif
#   From: 2010.05.17/outbox.cif.g08.bks.cpg/sg62_17_cif.got.tgz:32018.got - 2010.06.03 15:25:27.
