data_PCOD9464479
_publ_section_title
;
Structure prediction by ZEFSAII (Michael W. Deem and Ramdas Pophale) SiO2 
 PCOD9464479
Probable space group: P N M A
;
_chemical_formula_sum "Si O2"
_cell_formula_units_Z 64
_cell_length_a 30.152930
_cell_length_b 7.843168
_cell_length_c 12.905548
_cell_angle_alpha 90.000000
_cell_angle_beta 90.000000
_cell_angle_gamma 90.000000
_cell_volume 3052.091066
_symmetry_space_group_name_H-M "P N M A"
_symmetry_group_IT_number 62
_symmetry_cell_setting 'orthorhombic'
loop_
_space_group_symop_operation_xyz
x,y,z
1/2-x,-y,1/2+z
1/2+x,1/2-y,1/2-z
-x,1/2+y,-z
-x,-y,-z
1/2+x,y,1/2-z
1/2-x,1/2+y,1/2+z
x,1/2-y,z
loop_
_atom_site_type_symbol
_atom_site_label
_atom_site_fract_x
_atom_site_fract_y
_atom_site_fract_z
Si Si1 0.736164 0.053748 0.601805
Si Si2 0.178857 0.949069 0.306804
Si Si3 0.827873 0.956658 0.276115
Si Si4 0.052054 0.544399 0.004177
Si Si5 0.757264 0.052016 0.891093
Si Si6 0.915183 0.455069 0.768804
Si Si7 0.574422 0.951857 0.725766
Si Si8 0.502876 0.453954 0.122114
O O1 0.740577 0.250000 0.636566
O O2 0.785870 0.977301 0.610608
O O3 0.698032 0.979770 0.673523
O O4 0.722226 0.048685 0.484613
O O5 0.170084 0.750000 0.334678
O O6 0.210461 0.958237 0.206335
O O7 0.131446 0.023861 0.276350
O O8 0.830496 0.750000 0.276693
O O9 0.792367 0.007169 0.363465
O O10 0.877311 0.022667 0.274724
O O11 0.056765 0.750000 0.005861
O O12 0.072059 0.481640 0.114757
O O13 0.071839 0.481147 0.893346
O O14 0.000000 0.500000 0.000000
O O15 0.755220 0.250000 0.920655
O O16 0.910704 0.250000 0.779280
O O17 0.953140 0.489988 0.684050
O O18 0.565954 0.750000 0.716800
O O19 0.537648 0.021411 0.805840
O O20 0.501495 0.250000 0.124792
O O21 0.500000 0.500000 0.000000
#
# Coordination Sequence:
#
# PCOD9464479 Si02
#       8
#     8   8   8   8   8   8   8   8
#     4   9  18  34  53  76 108 143 178 220 268 316
#     4   8  17  34  54  76 106 142 177 214 262 323
#     4   9  20  36  53  79 112 145 182 224 273 326
#     4  10  20  35  57  85 115 144 182 229 281 336
#     4   9  18  34  55  77 106 144 183 222 266 319
#     4  10  20  36  60  86 110 145 188 226 277 337
#     4  10  22  38  57  84 113 145 187 231 276 332
#     4  11  24  42  60  81 113 147 186 233 278 331
#
# _framework density 20.969228999999999
#
# number of rings (size 3 to 8) (size 9 to 14) (size 15 to 20)
#    0.000    2.500    1.250    1.875    1.750    3.500 
#    0.000    6.875    0.000    0.000    0.000    0.000 
#    0.000    0.000    0.000    0.000    0.000    0.000 
#
# Total GULP energy -356440.709708 kJ/mol
# GULP energy per Si atom -5569.386089 kJ/mol
# Density = 2.092150 g / cm^3
# Si number density = 20.969229 Si / 1000 Ang^3
#
#
#
# Elastic Constant Matrix: (Units=GPa)
#
#
# Indices 1 2 3 4 5 6 
#
# 1 108.9629 -2.2576 3.8644 0.0000 0.0000 0.0000
# 2 -2.2576 18.9746 7.5323 0.0000 0.0000 0.0000
# 3 3.8644 7.5323 80.4836 0.0000 0.0000 0.0000
# 4 0.0000 0.0000 0.0000 21.5519 0.0000 0.0000
# 5 0.0000 0.0000 0.0000 0.0000 6.7992 0.0000
# 6 0.0000 0.0000 0.0000 0.0000 0.0000 22.1456
#
#
#
# Elastic Compliance Matrix: (Units=1/GPa)
#
#
# Indices 1 2 3 4 5 6 
#
# 1 0.009225 0.001323 -0.000567 0.000000 0.000000 0.000000
# 2 0.001323 0.054925 -0.005204 0.000000 0.000000 0.000000
# 3 -0.000567 -0.005204 0.012939 0.000000 0.000000 0.000000
# 4 0.000000 0.000000 0.000000 0.046400 0.000000 0.000000
# 5 0.000000 0.000000 0.000000 0.000000 0.147077 0.000000
# 6 0.000000 0.000000 0.000000 0.000000 0.000000 0.045156
#
#
# Mechanical properties :
#
#
# Convention : Reuss Voigt Hill
#
# Bulk Modulus (GPa) = 14.66420 25.18879 19.92650
# Shear Modulus (GPa) = 14.39476 23.38480 18.88978
#
# Velocity S-wave (km/s) = 2.62290 3.34308 3.00464
# Velocity P-wave (km/s) = 4.02259 5.19037 4.64333
#
# Compressibility (1/GPa) = 0.06819327
#
# Stress axis : x y z
#
# Youngs Moduli (GPa) = 108.40179 18.20660 77.28509
#
# Poissons Ratio (x) = -0.02408 0.04380
# Poissons Ratio (y) = -0.14337 0.40218
# Poissons Ratio (z) = 0.06143 0.09474
#
# Static dielectric constant tensor:
#      x y z
#    x 1.763920 0.000000 0.000000 
#    y 0.000000 1.774210 0.000000 
#    z 0.000000 0.000000 1.779900 
# 
# From -- ./inp_files/15875.got.cif
#   From: 2010.05.17/outbox.cif.g08.bks.cpg/sg62_8_cif.got.tgz:15875.got - 2010.06.03 15:25:27.
