data_PCOD9464417
_publ_section_title
;
Structure prediction by ZEFSAII (Michael W. Deem and Ramdas Pophale) SiO2 
 PCOD9464417
Probable space group: P N M A
;
_chemical_formula_sum "Si O2"
_cell_formula_units_Z 64
_cell_length_a 20.679111
_cell_length_b 7.811619
_cell_length_c 17.615285
_cell_angle_alpha 90.000000
_cell_angle_beta 90.000000
_cell_angle_gamma 90.000000
_cell_volume 2845.526219
_symmetry_space_group_name_H-M "P N M A"
_symmetry_group_IT_number 62
_symmetry_cell_setting 'orthorhombic'
loop_
_space_group_symop_operation_xyz
x,y,z
1/2-x,-y,1/2+z
1/2+x,1/2-y,1/2-z
-x,1/2+y,-z
-x,-y,-z
1/2+x,y,1/2-z
1/2-x,1/2+y,1/2+z
x,1/2-y,z
loop_
_atom_site_type_symbol
_atom_site_label
_atom_site_fract_x
_atom_site_fract_y
_atom_site_fract_z
Si Si1 0.664476 0.546030 0.932742
Si Si2 0.380516 0.949519 0.230417
Si Si3 0.709331 0.046517 0.639738
Si Si4 0.598319 0.553263 0.528236
Si Si5 0.143313 0.956715 0.402156
Si Si6 0.615661 0.948386 0.257161
Si Si7 0.990689 0.447815 0.158052
Si Si8 0.812336 0.458526 0.897036
O O1 0.659304 0.750000 0.933504
O O2 0.628205 0.482847 0.857866
O O3 0.741017 0.505174 0.925515
O O4 0.635926 0.476562 0.012267
O O5 0.395391 0.750000 0.241742
O O6 0.313334 0.985901 0.274404
O O7 0.435310 0.046630 0.277262
O O8 0.700956 0.250000 0.625192
O O9 0.782595 0.006478 0.621125
O O10 0.659465 0.950817 0.585552
O O11 0.581078 0.750000 0.512206
O O12 0.540219 0.479346 0.579824
O O13 0.630197 0.476565 0.452705
O O14 0.134116 0.750000 0.408118
O O15 0.105409 0.020555 0.327511
O O16 0.634028 0.750000 0.245169
O O17 0.670956 0.021538 0.312328
O O18 0.551213 0.956734 0.306773
O O19 0.008071 0.250000 0.145023
O O20 0.815192 0.250000 0.897640
#
# Coordination Sequence:
#
# PCOD9464417 Si02
#       8
#     8   8   8   8   8   8   8   8
#     4  11  21  34  55  84 115 142 175 225 281 328
#     4  10  20  35  58  82 106 142 186 226 270 329
#     4   9  16  31  54  78 104 138 177 216 265 327
#     4   9  18  32  52  80 113 145 174 220 274 320
#     4   9  18  33  53  77 107 141 177 222 273 322
#     4  10  21  38  57  77 106 148 192 229 268 324
#     4  10  21  38  56  79 112 145 186 233 277 324
#     4  10  20  35  56  83 115 147 182 223 271 331
#
# _framework density 22.491447000000001
#
# number of rings (size 3 to 8) (size 9 to 14) (size 15 to 20)
#    0.000    2.250    1.250    1.875    0.000    4.000 
#    0.000    2.500    0.000    0.000    0.000    0.000 
#    0.000    0.000    0.000    0.000    0.000    0.000 
#
# Total GULP energy -357131.045384 kJ/mol
# GULP energy per Si atom -5580.172584 kJ/mol
# Density = 2.244026 g / cm^3
# Si number density = 22.491447 Si / 1000 Ang^3
#
#
#
# Elastic Constant Matrix: (Units=GPa)
#
#
# Indices 1 2 3 4 5 6 
#
# 1 30.9452 -2.1723 16.5946 0.0000 0.0000 0.0000
# 2 -2.1723 29.2041 -1.9467 0.0000 0.0000 0.0000
# 3 16.5946 -1.9467 129.3982 0.0000 0.0000 0.0000
# 4 0.0000 0.0000 0.0000 12.0114 0.0000 0.0000
# 5 0.0000 0.0000 0.0000 0.0000 31.0814 0.0000
# 6 0.0000 0.0000 0.0000 0.0000 0.0000 22.0255
#
#
#
# Elastic Compliance Matrix: (Units=1/GPa)
#
#
# Indices 1 2 3 4 5 6 
#
# 1 0.034855 0.002297 -0.004435 0.000000 0.000000 0.000000
# 2 0.002297 0.034428 0.000223 0.000000 0.000000 0.000000
# 3 -0.004435 0.000223 0.008300 0.000000 0.000000 0.000000
# 4 0.000000 0.000000 0.000000 0.083255 0.000000 0.000000
# 5 0.000000 0.000000 0.000000 0.000000 0.032174 0.000000
# 6 0.000000 0.000000 0.000000 0.000000 0.000000 0.045402
#
#
# Mechanical properties :
#
#
# Convention : Reuss Voigt Hill
#
# Bulk Modulus (GPa) = 13.55883 23.83318 18.69600
# Shear Modulus (GPa) = 18.73872 24.82844 21.78358
#
# Velocity S-wave (km/s) = 2.88956 3.32611 3.11549
# Velocity P-wave (km/s) = 4.14419 5.03689 4.61219
#
# Compressibility (1/GPa) = 0.07375269
#
# Stress axis : x y z
#
# Youngs Moduli (GPa) = 28.69031 29.04649 120.47823
#
# Poissons Ratio (x) = -0.06672 0.53437
# Poissons Ratio (y) = -0.06590 -0.02691
# Poissons Ratio (z) = 0.12725 -0.00649
#
# Static dielectric constant tensor:
#      x y z
#    x 1.821160 0.000000 0.000000 
#    y 0.000000 1.788040 0.000000 
#    z 0.000000 0.000000 1.899770 
# 
# From -- ./inp_files/20980.got.cif
#   From: 2010.05.17/outbox.cif.g08.bks.cpg/sg62_11_cif.got.tgz:20980.got - 2010.06.03 15:25:27.
