data_PCOD9464238
_publ_section_title
;
Structure prediction by ZEFSAII (Michael W. Deem and Ramdas Pophale) SiO2 
 PCOD9464238
Probable space group: P N M A
;
_chemical_formula_sum "Si O2"
_cell_formula_units_Z 40
_cell_length_a 21.521541
_cell_length_b 19.654181
_cell_length_c 4.961521
_cell_angle_alpha 90.000000
_cell_angle_beta 90.000000
_cell_angle_gamma 90.000000
_cell_volume 2098.665146
_symmetry_space_group_name_H-M "P N M A"
_symmetry_group_IT_number 62
_symmetry_cell_setting 'orthorhombic'
loop_
_space_group_symop_operation_xyz
x,y,z
1/2-x,-y,1/2+z
1/2+x,1/2-y,1/2-z
-x,1/2+y,-z
-x,-y,-z
1/2+x,y,1/2-z
1/2-x,1/2+y,1/2+z
x,1/2-y,z
loop_
_atom_site_type_symbol
_atom_site_label
_atom_site_fract_x
_atom_site_fract_y
_atom_site_fract_z
Si Si1 0.079916 0.169819 0.479494
Si Si2 0.140067 0.105913 0.989013
Si Si3 0.966527 0.426546 0.507135
Si Si4 0.257973 0.046828 0.732888
Si Si5 0.112044 0.945891 0.994542
O O1 0.073480 0.250000 0.451021
O O2 0.099709 0.148434 0.778810
O O3 0.016165 0.129798 0.423089
O O4 0.131970 0.140728 0.276437
O O5 0.208949 0.097841 0.866322
O O6 0.115165 0.028341 0.008589
O O7 0.940521 0.418323 0.806663
O O8 0.000000 0.500000 0.500000
O O9 0.908185 0.427360 0.305126
O O10 0.320635 0.076250 0.603873
O O11 0.227458 0.005156 0.481459
#
# Coordination Sequence:
#
# PCOD9464238 Si02
#       5
#     8   8   8   8   8
#     4  12  25  38  57  84 119 162 198 239 295 360
#     4  11  20  38  59  84 120 148 193 246 298 352
#     4  12  21  36  59  86 121 152 194 246 298 354
#     4  10  20  34  57  89 118 144 182 242 305 353
#     4  11  20  35  60  90 114 149 189 250 304 342
#
# _framework density 19.059736999999998
#
# number of rings (size 3 to 8) (size 9 to 14) (size 15 to 20)
#    0.000    0.800    4.000    7.200    0.000    0.000 
#    0.000    0.000    0.000    7.200    0.000    0.000 
#    0.000    0.000    0.000    0.000    0.000    0.000 
#
# Total GULP energy -223466.641254 kJ/mol
# GULP energy per Si atom -5586.666031 kJ/mol
# Density = 1.901636 g / cm^3
# Si number density = 19.059737 Si / 1000 Ang^3
#
#
#
# Elastic Constant Matrix: (Units=GPa)
#
#
# Indices 1 2 3 4 5 6 
#
# 1 85.5780 28.9621 -0.2893 0.0000 0.0000 0.0000
# 2 28.9621 91.2278 3.8170 0.0000 0.0000 0.0000
# 3 -0.2893 3.8170 76.9622 0.0000 0.0000 0.0000
# 4 0.0000 0.0000 0.0000 4.6223 0.0000 0.0000
# 5 0.0000 0.0000 0.0000 0.0000 39.5460 0.0000
# 6 0.0000 0.0000 0.0000 0.0000 0.0000 12.8882
#
#
#
# Elastic Compliance Matrix: (Units=1/GPa)
#
#
# Indices 1 2 3 4 5 6 
#
# 1 0.013097 -0.004169 0.000256 0.000000 0.000000 0.000000
# 2 -0.004169 0.012311 -0.000626 0.000000 0.000000 0.000000
# 3 0.000256 -0.000626 0.013025 0.000000 0.000000 0.000000
# 4 0.000000 0.000000 0.000000 0.216344 0.000000 0.000000
# 5 0.000000 0.000000 0.000000 0.000000 0.025287 0.000000
# 6 0.000000 0.000000 0.000000 0.000000 0.000000 0.077590
#
#
# Mechanical properties :
#
#
# Convention : Reuss Voigt Hill
#
# Bulk Modulus (GPa) = 34.06486 35.41639 34.74063
# Shear Modulus (GPa) = 13.27957 26.16318 19.72138
#
# Velocity S-wave (km/s) = 2.64244 3.70901 3.22019
# Velocity P-wave (km/s) = 5.21742 6.07984 5.66506
#
# Compressibility (1/GPa) = 0.02935577
#
# Stress axis : x y z
#
# Youngs Moduli (GPa) = 76.35402 81.22704 76.77301
#
# Poissons Ratio (x) = 0.33860 -0.01965
# Poissons Ratio (y) = 0.31829 0.04808
# Poissons Ratio (z) = -0.01955 0.05087
#
# Static dielectric constant tensor:
#      x y z
#    x 1.702390 0.000000 0.000000 
#    y 0.000000 1.620090 0.000000 
#    z 0.000000 0.000000 1.670230 
# 
# From -- ./inp_files/2135.got.cif
#   From: 2010.05.17/outbox.cif.g08.bks.cpg/sg62_2_cif.got.tgz:2135.got - 2010.06.03 15:25:27.
