data_PCOD9464948
_publ_section_title
;
Structure prediction by ZEFSAII (Michael W. Deem and Ramdas Pophale) SiO2 
 PCOD9464948
Probable space group: P N M A
;
_chemical_formula_sum "Si O2"
_cell_formula_units_Z 40
_cell_length_a 24.841165
_cell_length_b 11.094269
_cell_length_c 7.607648
_cell_angle_alpha 90.000000
_cell_angle_beta 90.000000
_cell_angle_gamma 90.000000
_cell_volume 2096.626455
_symmetry_space_group_name_H-M "P N M A"
_symmetry_group_IT_number 62
_symmetry_cell_setting 'orthorhombic'
loop_
_space_group_symop_operation_xyz
x,y,z
1/2-x,-y,1/2+z
1/2+x,1/2-y,1/2-z
-x,1/2+y,-z
-x,-y,-z
1/2+x,y,1/2-z
1/2-x,1/2+y,1/2+z
x,1/2-y,z
loop_
_atom_site_type_symbol
_atom_site_label
_atom_site_fract_x
_atom_site_fract_y
_atom_site_fract_z
Si Si1 0.307680 0.616952 0.024589
Si Si2 0.205121 0.887133 0.779019
Si Si3 0.581927 0.460380 0.123750
Si Si4 0.963375 0.112249 0.298439
Si Si5 0.602533 0.890493 0.470309
O O1 0.299436 0.750000 0.110354
O O2 0.301746 0.499395 0.147755
O O3 0.262849 0.606512 0.873029
O O4 0.367129 0.613933 0.942260
O O5 0.199208 0.750000 0.703114
O O6 0.159331 0.899116 0.928817
O O7 0.527526 0.393383 0.182484
O O8 0.600510 0.538201 0.290100
O O9 0.563190 0.540929 0.958462
O O10 0.944829 0.250000 0.308739
O O11 0.941737 0.064739 0.111839
O O12 0.591706 0.750000 0.432133
#
# Coordination Sequence:
#
# PCOD9464948 Si02
#       5
#     8   8   8   8   8
#     4  11  23  40  61  91 126 158 203 256 307 361
#     4  10  22  40  62  88 123 162 204 251 301 368
#     4  11  21  36  61  85 123 162 199 251 313 353
#     4  10  21  37  57  86 121 160 208 252 297 364
#     4  10  20  37  60  88 117 157 211 252 297 367
#
# _framework density 19.078267
#
# number of rings (size 3 to 8) (size 9 to 14) (size 15 to 20)
#    0.000    1.600    2.000    3.000    0.000    1.600 
#    0.000    2.000    0.000    0.000    0.000    0.000 
#    0.000    0.000    0.000    0.000    0.000    0.000 
#
# Total GULP energy -223190.635093 kJ/mol
# GULP energy per Si atom -5579.765877 kJ/mol
# Density = 1.903484 g / cm^3
# Si number density = 19.078267 Si / 1000 Ang^3
#
#
#
# Elastic Constant Matrix: (Units=GPa)
#
#
# Indices 1 2 3 4 5 6 
#
# 1 121.3619 31.1379 15.9478 0.0000 0.0000 0.0000
# 2 31.1379 128.6255 63.8845 0.0000 0.0000 0.0000
# 3 15.9478 63.8845 70.2471 0.0000 0.0000 0.0000
# 4 0.0000 0.0000 0.0000 41.7177 0.0000 0.0000
# 5 0.0000 0.0000 0.0000 0.0000 27.9006 0.0000
# 6 0.0000 0.0000 0.0000 0.0000 0.0000 23.0501
#
#
#
# Elastic Compliance Matrix: (Units=1/GPa)
#
#
# Indices 1 2 3 4 5 6 
#
# 1 0.008786 -0.002072 -0.000110 0.000000 0.000000 0.000000
# 2 -0.002072 0.014668 -0.012869 0.000000 0.000000 0.000000
# 3 -0.000110 -0.012869 0.025964 0.000000 0.000000 0.000000
# 4 0.000000 0.000000 0.000000 0.023971 0.000000 0.000000
# 5 0.000000 0.000000 0.000000 0.000000 0.035842 0.000000
# 6 0.000000 0.000000 0.000000 0.000000 0.000000 0.043384
#
#
# Mechanical properties :
#
#
# Convention : Reuss Voigt Hill
#
# Bulk Modulus (GPa) = 51.77280 60.24166 56.00723
# Shear Modulus (GPa) = 26.43353 32.48462 29.45907
#
# Velocity S-wave (km/s) = 3.72631 4.13086 3.93379
# Velocity P-wave (km/s) = 6.76090 7.37541 7.07483
#
# Compressibility (1/GPa) = 0.01931516
#
# Stress axis : x y z
#
# Youngs Moduli (GPa) = 113.81797 68.17708 38.51543
#
# Poissons Ratio (x) = 0.14128 0.00424
# Poissons Ratio (y) = 0.23586 0.49564
# Poissons Ratio (z) = 0.01253 0.87735
#
# Static dielectric constant tensor:
#      x y z
#    x 1.671020 0.000000 0.000000 
#    y 0.000000 1.665150 0.000000 
#    z 0.000000 0.000000 1.626650 
# 
# From -- ./inp_files/3044.got.cif
#   From: 2010.05.17/outbox.cif.g08.bks.cpg/sg62_2_cif.got.tgz:3044.got - 2010.06.03 15:25:27.
