data_PCOD9464520
_publ_section_title
;
Structure prediction by ZEFSAII (Michael W. Deem and Ramdas Pophale) SiO2 
 PCOD9464520
Probable space group: P N M A
;
_chemical_formula_sum "Si O2"
_cell_formula_units_Z 40
_cell_length_a 19.767005
_cell_length_b 8.601522
_cell_length_c 11.103575
_cell_angle_alpha 90.000000
_cell_angle_beta 90.000000
_cell_angle_gamma 90.000000
_cell_volume 1887.900089
_symmetry_space_group_name_H-M "P N M A"
_symmetry_group_IT_number 62
_symmetry_cell_setting 'orthorhombic'
loop_
_space_group_symop_operation_xyz
x,y,z
1/2-x,-y,1/2+z
1/2+x,1/2-y,1/2-z
-x,1/2+y,-z
-x,-y,-z
1/2+x,y,1/2-z
1/2-x,1/2+y,1/2+z
x,1/2-y,z
loop_
_atom_site_type_symbol
_atom_site_label
_atom_site_fract_x
_atom_site_fract_y
_atom_site_fract_z
Si Si1 0.596534 0.932286 0.044013
Si Si2 0.735461 0.436637 0.144095
Si Si3 0.305106 0.062365 0.607853
Si Si4 0.023377 0.575849 0.682410
Si Si5 0.958214 0.072387 0.893764
O O1 0.581715 0.750000 0.074271
O O2 0.667495 0.980494 0.097082
O O3 0.541050 0.051376 0.095302
O O4 0.588990 0.943648 0.899958
O O5 0.729000 0.250000 0.146168
O O6 0.741067 0.492169 0.283894
O O7 0.786738 0.473309 0.032438
O O8 0.300989 0.250000 0.621204
O O9 0.382858 0.006684 0.629409
O O10 0.023007 0.750000 0.733922
O O11 0.007692 0.450195 0.781548
O O12 0.946008 0.250000 0.921644
O O13 0.000000 0.000000 0.000000
#
# Coordination Sequence:
#
# PCOD9464520 Si02
#       5
#     8   8   8   8   8
#     4  10  20  35  58  88 121 155 193 247 304 356
#     4  11  23  40  65  93 124 165 213 258 309 378
#     4  10  24  44  63  90 126 164 208 260 313 368
#     4  10  20  35  58  88 119 154 199 243 296 362
#     4  11  23  40  62  87 123 162 202 254 312 369
#
# _framework density 21.187562
#
# number of rings (size 3 to 8) (size 9 to 14) (size 15 to 20)
#    0.000    1.600    2.000    2.400    0.000    6.400 
#    0.000    6.000    0.000    0.000    0.000    0.000 
#    0.000    0.000    0.000    0.000    0.000    0.000 
#
# Total GULP energy -222879.217361 kJ/mol
# GULP energy per Si atom -5571.980434 kJ/mol
# Density = 2.113934 g / cm^3
# Si number density = 21.187562 Si / 1000 Ang^3
#
#
#
# Elastic Constant Matrix: (Units=GPa)
#
#
# Indices 1 2 3 4 5 6 
#
# 1 26.6548 16.2847 24.0597 0.0000 0.0000 0.0000
# 2 16.2847 49.9499 32.8459 0.0000 0.0000 0.0000
# 3 24.0597 32.8459 110.8467 0.0000 0.0000 0.0000
# 4 0.0000 0.0000 0.0000 38.4613 0.0000 0.0000
# 5 0.0000 0.0000 0.0000 0.0000 28.3330 0.0000
# 6 0.0000 0.0000 0.0000 0.0000 0.0000 19.3601
#
#
#
# Elastic Compliance Matrix: (Units=1/GPa)
#
#
# Indices 1 2 3 4 5 6 
#
# 1 0.051684 -0.011766 -0.007732 0.000000 0.000000 0.000000
# 2 -0.011766 0.027544 -0.005608 0.000000 0.000000 0.000000
# 3 -0.007732 -0.005608 0.012361 0.000000 0.000000 0.000000
# 4 0.000000 0.000000 0.000000 0.026000 0.000000 0.000000
# 5 0.000000 0.000000 0.000000 0.000000 0.035295 0.000000
# 6 0.000000 0.000000 0.000000 0.000000 0.000000 0.051653
#
#
# Mechanical properties :
#
#
# Convention : Reuss Voigt Hill
#
# Bulk Modulus (GPa) = 24.16738 37.09242 30.62990
# Shear Modulus (GPa) = 18.61922 24.84828 21.73375
#
# Velocity S-wave (km/s) = 2.96764 3.42830 3.20625
# Velocity P-wave (km/s) = 4.81390 5.76330 5.30987
#
# Compressibility (1/GPa) = 0.04137809
#
# Stress axis : x y z
#
# Youngs Moduli (GPa) = 19.34836 36.30620 80.89715
#
# Poissons Ratio (x) = 0.42717 0.62548
# Poissons Ratio (y) = 0.22765 0.45366
# Poissons Ratio (z) = 0.14960 0.20360
#
# Static dielectric constant tensor:
#      x y z
#    x 1.794780 0.000000 0.000000 
#    y 0.000000 1.739360 0.000000 
#    z 0.000000 0.000000 5.459490 
# 
# From -- ./inp_files/14615.got.cif
#   From: 2010.05.17/outbox.cif.g08.bks.cpg/sg62_8_cif.got.tgz:14615.got - 2010.06.03 15:25:27.
