data_PCOD9464830
_publ_section_title
;
Structure prediction by ZEFSAII (Michael W. Deem and Ramdas Pophale) SiO2 
 PCOD9464830
Probable space group: P N M A
;
_chemical_formula_sum "Si O2"
_cell_formula_units_Z 64
_cell_length_a 13.581527
_cell_length_b 11.970905
_cell_length_c 19.713993
_cell_angle_alpha 90.000000
_cell_angle_beta 90.000000
_cell_angle_gamma 90.000000
_cell_volume 3205.163465
_symmetry_space_group_name_H-M "P N M A"
_symmetry_group_IT_number 62
_symmetry_cell_setting 'orthorhombic'
loop_
_space_group_symop_operation_xyz
x,y,z
1/2-x,-y,1/2+z
1/2+x,1/2-y,1/2-z
-x,1/2+y,-z
-x,-y,-z
1/2+x,y,1/2-z
1/2-x,1/2+y,1/2+z
x,1/2-y,z
loop_
_atom_site_type_symbol
_atom_site_label
_atom_site_fract_x
_atom_site_fract_y
_atom_site_fract_z
Si Si1 0.540962 0.617692 0.034564
Si Si2 0.755814 0.460283 0.492784
Si Si3 0.865131 0.479509 0.794542
Si Si4 0.936173 0.879446 0.920125
Si Si5 0.973294 0.549505 0.316798
Si Si6 0.329690 0.382208 0.247199
Si Si7 0.654842 0.619588 0.592321
Si Si8 0.786787 0.633662 0.374038
O O1 0.505383 0.750000 0.023837
O O2 0.523985 0.583036 0.112558
O O3 0.500000 0.500000 0.000000
O O4 0.654862 0.618508 0.012773
O O5 0.653102 0.403553 0.471264
O O6 0.733170 0.542409 0.555194
O O7 0.789594 0.533334 0.427603
O O8 0.917870 0.549251 0.853129
O O9 0.773639 0.555301 0.767873
O O10 0.812646 0.377905 0.832330
O O11 0.943137 0.441890 0.739310
O O12 0.932703 0.750000 0.901013
O O13 0.048324 0.900825 0.942574
O O14 0.917558 0.431513 0.299961
O O15 0.875974 0.625822 0.320952
O O16 0.319418 0.250000 0.235776
O O17 0.352904 0.401507 0.326930
O O18 0.679707 0.750000 0.584202
O O19 0.790804 0.750000 0.412174
#
# Coordination Sequence:
#
# PCOD9464830 Si02
#       8
#     8   8   8   8   8   8   8   8
#     4  12  27  46  68  98 134 177 227 277 332 400
#     4  11  22  40  64  92 128 173 219 273 329 394
#     4  10  21  37  61  88 124 168 216 265 331 396
#     4  10  20  37  61  91 128 168 212 273 332 395
#     4  11  22  41  64  89 127 171 211 272 330 392
#     4  10  21  37  60  95 129 166 219 272 329 397
#     4  10  20  36  62  94 131 169 215 274 332 395
#     4  10  22  39  60  89 124 168 218 269 325 395
#
# _framework density 19.967780000000001
#
# number of rings (size 3 to 8) (size 9 to 14) (size 15 to 20)
#    0.000    1.500    2.500    2.625    0.000    2.500 
#    0.000    0.000    0.000    3.000    0.000    0.000 
#    0.000    0.000    0.000    0.000    0.000    0.000 
#
# Total GULP energy -356384.094042 kJ/mol
# GULP energy per Si atom -5568.501469 kJ/mol
# Density = 1.992233 g / cm^3
# Si number density = 19.967780 Si / 1000 Ang^3
#
#
#
# Elastic Constant Matrix: (Units=GPa)
#
#
# Indices 1 2 3 4 5 6 
#
# 1 70.4229 36.9438 15.3743 0.0000 0.0000 0.0000
# 2 36.9438 102.3759 39.5129 0.0000 0.0000 0.0000
# 3 15.3743 39.5129 53.7168 0.0000 0.0000 0.0000
# 4 0.0000 0.0000 0.0000 13.5403 0.0000 0.0000
# 5 0.0000 0.0000 0.0000 0.0000 43.0558 0.0000
# 6 0.0000 0.0000 0.0000 0.0000 0.0000 5.1332
#
#
#
# Elastic Compliance Matrix: (Units=1/GPa)
#
#
# Indices 1 2 3 4 5 6 
#
# 1 0.017526 -0.006128 -0.000508 0.000000 0.000000 0.000000
# 2 -0.006128 0.015783 -0.009856 0.000000 0.000000 0.000000
# 3 -0.000508 -0.009856 0.026011 0.000000 0.000000 0.000000
# 4 0.000000 0.000000 0.000000 0.073853 0.000000 0.000000
# 5 0.000000 0.000000 0.000000 0.000000 0.023226 0.000000
# 6 0.000000 0.000000 0.000000 0.000000 0.000000 0.194811
#
#
# Mechanical properties :
#
#
# Convention : Reuss Voigt Hill
#
# Bulk Modulus (GPa) = 37.97128 45.57529 41.77328
# Shear Modulus (GPa) = 12.72349 21.32484 17.02417
#
# Velocity S-wave (km/s) = 2.52702 3.27151 2.92307
# Velocity P-wave (km/s) = 5.25091 6.09462 5.68843
#
# Compressibility (1/GPa) = 0.02633569
#
# Stress axis : x y z
#
# Youngs Moduli (GPa) = 57.05886 63.35775 38.44461
#
# Poissons Ratio (x) = 0.38827 0.01954
# Poissons Ratio (y) = 0.34967 0.37891
# Poissons Ratio (z) = 0.02900 0.62445
#
# Static dielectric constant tensor:
#      x y z
#    x 1.737710 0.000000 0.000000 
#    y 0.000000 1.787560 0.000000 
#    z 0.000000 0.000000 1.697740 
# 
# From -- ./inp_files/24058.got.cif
#   From: 2010.05.17/outbox.cif.g08.bks.cpg/sg62_13_cif.got.tgz:24058.got - 2010.06.03 15:25:27.
