data_PCOD9464522
_publ_section_title
;
Structure prediction by ZEFSAII (Michael W. Deem and Ramdas Pophale) SiO2 
 PCOD9464522
Probable space group: P N M A
;
_chemical_formula_sum "Si O2"
_cell_formula_units_Z 64
_cell_length_a 7.363954
_cell_length_b 23.615020
_cell_length_c 13.826035
_cell_angle_alpha 90.000000
_cell_angle_beta 90.000000
_cell_angle_gamma 90.000000
_cell_volume 2404.346394
_symmetry_space_group_name_H-M "P N M A"
_symmetry_group_IT_number 62
_symmetry_cell_setting 'orthorhombic'
loop_
_space_group_symop_operation_xyz
x,y,z
1/2-x,-y,1/2+z
1/2+x,1/2-y,1/2-z
-x,1/2+y,-z
-x,-y,-z
1/2+x,y,1/2-z
1/2-x,1/2+y,1/2+z
x,1/2-y,z
loop_
_atom_site_type_symbol
_atom_site_label
_atom_site_fract_x
_atom_site_fract_y
_atom_site_fract_z
Si Si1 0.276367 0.432931 0.875399
Si Si2 0.142464 0.427720 0.091622
Si Si3 0.035689 0.686898 0.337263
Si Si4 0.354125 0.976442 0.177167
Si Si5 0.608583 0.688827 0.384743
Si Si6 0.940317 0.811527 0.831698
Si Si7 0.795044 0.407296 0.005084
Si Si8 0.864245 0.813002 0.612457
O O1 0.354613 0.368429 0.869592
O O2 0.438410 0.477321 0.855021
O O3 0.152818 0.444274 0.780330
O O4 0.210941 0.442428 0.984199
O O5 0.246186 0.465202 0.170448
O O6 0.167269 0.362742 0.121512
O O7 0.923033 0.437332 0.084132
O O8 0.113212 0.750000 0.359736
O O9 0.827164 0.686528 0.371485
O O10 0.027441 0.683464 0.220937
O O11 0.263599 0.942117 0.088048
O O12 0.559021 0.750000 0.425300
O O13 0.566746 0.638198 0.455210
O O14 0.856061 0.750000 0.849596
O O15 0.952078 0.819566 0.716586
O O16 0.147408 0.810777 0.867480
O O17 0.630015 0.370769 0.050421
O O18 0.914219 0.750000 0.572598
#
# Coordination Sequence:
#
# PCOD9464522 Si02
#       8
#     8   8   8   8   8   8   8   8
#     4  12  24  45  67  91 132 169 213 270 323 382
#     4  11  27  42  66  96 123 167 217 264 322 388
#     4  10  20  36  60  91 125 168 208 251 314 378
#     4  12  26  44  65  93 126 172 214 264 321 380
#     4  10  20  35  58  92 130 167 210 252 309 380
#     4   9  20  41  64  91 126 160 208 263 322 377
#     4  11  21  39  62  90 128 163 214 258 316 372
#     4   9  19  36  61  89 121 165 204 256 314 371
#
# _framework density 26.618459999999999
#
# number of rings (size 3 to 8) (size 9 to 14) (size 15 to 20)
#    0.000    1.500    2.500    1.875    1.750    5.000 
#    0.000    0.000    0.000    0.000    0.000    0.000 
#    0.000    0.000    0.000    0.000    0.000    0.000 
#
# Total GULP energy -358403.035857 kJ/mol
# GULP energy per Si atom -5600.047435 kJ/mol
# Density = 2.655787 g / cm^3
# Si number density = 26.618460 Si / 1000 Ang^3
#
#
#
# Elastic Constant Matrix: (Units=GPa)
#
#
# Indices 1 2 3 4 5 6 
#
# 1 55.9034 6.2962 17.5632 0.0000 0.0000 0.0000
# 2 6.2962 128.9796 34.9167 0.0000 0.0000 0.0000
# 3 17.5632 34.9167 119.1631 0.0000 0.0000 0.0000
# 4 0.0000 0.0000 0.0000 37.5393 0.0000 0.0000
# 5 0.0000 0.0000 0.0000 0.0000 37.8215 0.0000
# 6 0.0000 0.0000 0.0000 0.0000 0.0000 12.1969
#
#
#
# Elastic Compliance Matrix: (Units=1/GPa)
#
#
# Indices 1 2 3 4 5 6 
#
# 1 0.018760 -0.000182 -0.002712 0.000000 0.000000 0.000000
# 2 -0.000182 0.008423 -0.002441 0.000000 0.000000 0.000000
# 3 -0.002712 -0.002441 0.009507 0.000000 0.000000 0.000000
# 4 0.000000 0.000000 0.000000 0.026639 0.000000 0.000000
# 5 0.000000 0.000000 0.000000 0.000000 0.026440 0.000000
# 6 0.000000 0.000000 0.000000 0.000000 0.000000 0.081988
#
#
# Mechanical properties :
#
#
# Convention : Reuss Voigt Hill
#
# Bulk Modulus (GPa) = 38.43093 46.84425 42.63759
# Shear Modulus (GPa) = 26.16434 33.86289 30.01362
#
# Velocity S-wave (km/s) = 3.13859 3.57060 3.36154
# Velocity P-wave (km/s) = 5.25389 5.88520 5.57848
#
# Compressibility (1/GPa) = 0.02602071
#
# Stress axis : x y z
#
# Youngs Moduli (GPa) = 53.30365 118.72368 105.18697
#
# Poissons Ratio (x) = 0.02157 0.28525
# Poissons Ratio (y) = 0.00968 0.25679
# Poissons Ratio (z) = 0.14455 0.28984
#
# Static dielectric constant tensor:
#      x y z
#    x 2.110720 0.000000 0.000000 
#    y 0.000000 2.189940 0.000000 
#    z 0.000000 0.000000 2.106710 
# 
# From -- ./inp_files/17336.got.cif
#   From: 2010.05.17/outbox.cif.g08.bks.cpg/sg62_9_cif.got.tgz:17336.got - 2010.06.03 15:25:27.
