data_PCOD9464358
_publ_section_title
;
Structure prediction by ZEFSAII (Michael W. Deem and Ramdas Pophale) SiO2 
 PCOD9464358
Probable space group: P N M A
;
_chemical_formula_sum "Si O2"
_cell_formula_units_Z 56
_cell_length_a 24.128033
_cell_length_b 8.090574
_cell_length_c 13.758770
_cell_angle_alpha 90.000000
_cell_angle_beta 90.000000
_cell_angle_gamma 90.000000
_cell_volume 2685.844490
_symmetry_space_group_name_H-M "P N M A"
_symmetry_group_IT_number 62
_symmetry_cell_setting 'orthorhombic'
loop_
_space_group_symop_operation_xyz
x,y,z
1/2-x,-y,1/2+z
1/2+x,1/2-y,1/2-z
-x,1/2+y,-z
-x,-y,-z
1/2+x,y,1/2-z
1/2-x,1/2+y,1/2+z
x,1/2-y,z
loop_
_atom_site_type_symbol
_atom_site_label
_atom_site_fract_x
_atom_site_fract_y
_atom_site_fract_z
Si Si1 0.622967 0.446469 0.281742
Si Si2 0.528042 0.947672 0.400113
Si Si3 0.340674 0.059023 0.212544
Si Si4 0.233409 0.450965 0.310967
Si Si5 0.034494 0.053351 0.706901
Si Si6 0.328712 0.943488 0.006490
Si Si7 0.437332 0.058388 0.911298
O O1 0.618313 0.250000 0.260938
O O2 0.589922 0.485746 0.379700
O O3 0.687325 0.492303 0.270704
O O4 0.591634 0.543866 0.195527
O O5 0.529856 0.750000 0.397092
O O6 0.491639 0.009797 0.308132
O O7 0.500000 0.000000 0.500000
O O8 0.349617 0.250000 0.237153
O O9 0.294211 0.986601 0.284260
O O10 0.400638 0.977553 0.209037
O O11 0.316974 0.042536 0.103787
O O12 0.236620 0.250000 0.312904
O O13 0.207258 0.501196 0.414075
O O14 0.025437 0.250000 0.703562
O O15 0.998649 0.989393 0.614376
O O16 0.318053 0.750000 0.023033
O O17 0.393753 0.963863 0.978665
O O18 0.438780 0.250000 0.941657
#
# Coordination Sequence:
#
# PCOD9464358 Si02
#       7
#     8   8   8   8   8   8   8
#     4   9  16  31  55  78 105 141 180 225 278 327
#     4  10  20  35  55  81 113 146 188 234 280 336
#     4  11  22  37  57  82 113 147 187 232 277 332
#     4   8  18  37  57  77 107 144 183 229 277 328
#     4   9  20  37  54  78 113 147 179 226 281 331
#     4  10  20  37  59  81 108 144 186 230 283 337
#     4   9  17  32  55  81 109 138 178 223 267 330
#
# _framework density 20.850052000000002
#
# number of rings (size 3 to 8) (size 9 to 14) (size 15 to 20)
#    0.000    2.571    0.000    3.857    0.000    4.000 
#    2.571    8.571    0.000    0.000    0.000    0.000 
#    0.000    0.000    0.000    0.000    0.000    0.000 
#
# Total GULP energy -312346.819298 kJ/mol
# GULP energy per Si atom -5577.621773 kJ/mol
# Density = 2.080260 g / cm^3
# Si number density = 20.850052 Si / 1000 Ang^3
#
#
#
# Elastic Constant Matrix: (Units=GPa)
#
#
# Indices 1 2 3 4 5 6 
#
# 1 102.2635 -1.8394 14.1268 0.0000 0.0000 0.0000
# 2 -1.8394 37.6038 -6.9192 0.0000 0.0000 0.0000
# 3 14.1268 -6.9192 48.6531 0.0000 0.0000 0.0000
# 4 0.0000 0.0000 0.0000 25.3749 0.0000 0.0000
# 5 0.0000 0.0000 0.0000 0.0000 28.1733 0.0000
# 6 0.0000 0.0000 0.0000 0.0000 0.0000 16.6498
#
#
#
# Elastic Compliance Matrix: (Units=1/GPa)
#
#
# Indices 1 2 3 4 5 6 
#
# 1 0.010187 -0.000047 -0.002965 0.000000 0.000000 0.000000
# 2 -0.000047 0.027308 0.003897 0.000000 0.000000 0.000000
# 3 -0.002965 0.003897 0.021969 0.000000 0.000000 0.000000
# 4 0.000000 0.000000 0.000000 0.039409 0.000000 0.000000
# 5 0.000000 0.000000 0.000000 0.000000 0.035495 0.000000
# 6 0.000000 0.000000 0.000000 0.000000 0.000000 0.060061
#
#
# Mechanical properties :
#
#
# Convention : Reuss Voigt Hill
#
# Bulk Modulus (GPa) = 16.33056 22.13963 19.23510
# Shear Modulus (GPa) = 23.46654 26.24974 24.85814
#
# Velocity S-wave (km/s) = 3.35847 3.55206 3.45662
# Velocity P-wave (km/s) = 4.78419 5.24064 5.01761
#
# Compressibility (1/GPa) = 0.06123487
#
# Stress axis : x y z
#
# Youngs Moduli (GPa) = 98.16096 36.61947 45.51920
#
# Poissons Ratio (x) = 0.00173 0.13495
# Poissons Ratio (y) = 0.00463 -0.17740
# Poissons Ratio (z) = 0.29102 -0.14272
#
# Static dielectric constant tensor:
#      x y z
#    x 1.793330 0.000000 0.000000 
#    y 0.000000 1.724840 0.000000 
#    z 0.000000 0.000000 1.777570 
# 
# From -- ./inp_files/20438.got.cif
#   From: 2010.05.17/outbox.cif.g08.bks.cpg/sg62_11_cif.got.tgz:20438.got - 2010.06.03 15:25:27.
