data_PCOD9464999
_publ_section_title
;
Structure prediction by ZEFSAII (Michael W. Deem and Ramdas Pophale) SiO2 
 PCOD9464999
Probable space group: P N M A
;
_chemical_formula_sum "Si O2"
_cell_formula_units_Z 52
_cell_length_a 8.513705
_cell_length_b 10.672985
_cell_length_c 22.725879
_cell_angle_alpha 90.000000
_cell_angle_beta 90.000000
_cell_angle_gamma 90.000000
_cell_volume 2065.024397
_symmetry_space_group_name_H-M "P N M A"
_symmetry_group_IT_number 62
_symmetry_cell_setting 'orthorhombic'
loop_
_space_group_symop_operation_xyz
x,y,z
1/2-x,-y,1/2+z
1/2+x,1/2-y,1/2-z
-x,1/2+y,-z
-x,-y,-z
1/2+x,y,1/2-z
1/2-x,1/2+y,1/2+z
x,1/2-y,z
loop_
_atom_site_type_symbol
_atom_site_label
_atom_site_fract_x
_atom_site_fract_y
_atom_site_fract_z
Si Si1 0.701530 0.250000 0.708430
Si Si2 0.422244 0.603452 0.042698
Si Si3 0.304129 0.524003 0.661424
Si Si4 0.137917 0.250000 0.075899
Si Si5 0.154917 0.750000 0.167666
Si Si6 0.843348 0.386125 0.043788
Si Si7 0.522251 0.894313 0.762279
Si Si8 0.152091 0.519358 0.359570
O O1 0.519726 0.250000 0.692935
O O2 0.727265 0.250000 0.777593
O O3 0.786213 0.132037 0.679396
O O4 0.473236 0.750000 0.034272
O O5 0.495367 0.561674 0.104889
O O6 0.500000 0.500000 0.000000
O O7 0.245319 0.598836 0.017503
O O8 0.282174 0.637754 0.615890
O O9 0.319683 0.383337 0.637116
O O10 0.168487 0.533099 0.710481
O O11 0.459851 0.554165 0.700312
O O12 0.028227 0.359235 0.042101
O O13 0.784441 0.250000 0.068225
O O14 0.781274 0.484184 0.091345
O O15 0.562500 0.750000 0.754108
O O16 0.392501 0.910699 0.813815
#
# Coordination Sequence:
#
# PCOD9464999 Si02
#       8
#     4   8   8   4   4   8   8   8
#     4  12  24  37  58  82 120 170 194 247 300 375
#     4   9  17  34  56  92 122 153 197 258 312 371
#     4  12  25  41  62  87 125 166 208 259 304 372
#     4  10  20  37  62  85 115 163 207 250 306 362
#     4  12  26  42  56  85 127 159 209 249 310 359
#     4   8  18  33  61  88 116 151 196 256 310 356
#     4  12  25  40  61  89 123 168 214 259 304 361
#     4  11  21  34  59  89 124 157 207 252 313 367
#
# _framework density 25.1813
#
# number of rings (size 3 to 8) (size 9 to 14) (size 15 to 20)
#    0.462    0.923    3.846    2.308    2.154    0.615 
#    0.000    0.000    0.000    0.923    0.000    0.000 
#    0.000    0.000    0.000    0.000    0.000    0.000 
#
# Total GULP energy -289675.042075 kJ/mol
# GULP energy per Si atom -5570.673886 kJ/mol
# Density = 2.512399 g / cm^3
# Si number density = 25.181300 Si / 1000 Ang^3
#
#
#
# Elastic Constant Matrix: (Units=GPa)
#
#
# Indices 1 2 3 4 5 6 
#
# 1 53.8233 10.4481 7.8342 0.0000 0.0000 0.0000
# 2 10.4481 187.1416 45.7812 0.0000 0.0000 0.0000
# 3 7.8342 45.7812 75.8202 0.0000 0.0000 0.0000
# 4 0.0000 0.0000 0.0000 -58.2937 0.0000 0.0000
# 5 0.0000 0.0000 0.0000 0.0000 38.2363 0.0000
# 6 0.0000 0.0000 0.0000 0.0000 0.0000 32.8446
#
#
#
# Elastic Compliance Matrix: (Units=1/GPa)
#
#
# Indices 1 2 3 4 5 6 
#
# 1 0.018936 -0.000679 -0.001547 0.000000 0.000000 0.000000
# 2 -0.000679 0.006294 -0.003730 0.000000 0.000000 0.000000
# 3 -0.001547 -0.003730 0.015601 0.000000 0.000000 0.000000
# 4 0.000000 0.000000 0.000000 -0.017155 0.000000 0.000000
# 5 0.000000 0.000000 0.000000 0.000000 0.026153 0.000000
# 6 0.000000 0.000000 0.000000 0.000000 0.000000 0.030446
#
#
# Mechanical properties :
#
#
# Convention : Reuss Voigt Hill
#
# Bulk Modulus (GPa) = 34.57826 49.43466 42.00646
# Shear Modulus (GPa) = 49.10236 19.40555 34.25395
#
# Velocity S-wave (km/s) = 4.42062 2.77904 3.69222
# Velocity P-wave (km/s) = 6.31010 5.47463 5.90715
#
# Compressibility (1/GPa) = 0.02891990
#
# Stress axis : x y z
#
# Youngs Moduli (GPa) = 52.80884 158.88164 64.09724
#
# Poissons Ratio (x) = 0.10785 0.09914
# Poissons Ratio (y) = 0.03585 0.23910
# Poissons Ratio (z) = 0.08168 0.59267
#
# Static dielectric constant tensor:
#      x y z
#    x 2.105570 0.000000 0.000000 
#    y 0.000000 1.966350 0.000000 
#    z 0.000000 0.000000 2.040880 
# 
# From -- ./inp_files/30852.got.cif
#   From: 2010.05.17/outbox.cif.g08.bks.cpg/sg62_16_cif.got.tgz:30852.got - 2010.06.03 15:25:27.
