data_PCOD9464993
_publ_section_title
;
Structure prediction by ZEFSAII (Michael W. Deem and Ramdas Pophale) SiO2 
 PCOD9464993
Probable space group: P N M A
;
_chemical_formula_sum "Si O2"
_cell_formula_units_Z 56
_cell_length_a 21.851825
_cell_length_b 15.607434
_cell_length_c 8.148161
_cell_angle_alpha 90.000000
_cell_angle_beta 90.000000
_cell_angle_gamma 90.000000
_cell_volume 2778.937777
_symmetry_space_group_name_H-M "P N M A"
_symmetry_group_IT_number 62
_symmetry_cell_setting 'orthorhombic'
loop_
_space_group_symop_operation_xyz
x,y,z
1/2-x,-y,1/2+z
1/2+x,1/2-y,1/2-z
-x,1/2+y,-z
-x,-y,-z
1/2+x,y,1/2-z
1/2-x,1/2+y,1/2+z
x,1/2-y,z
loop_
_atom_site_type_symbol
_atom_site_label
_atom_site_fract_x
_atom_site_fract_y
_atom_site_fract_z
Si Si1 0.175391 0.023556 0.099933
Si Si2 0.724202 0.655623 0.862533
Si Si3 0.594380 0.905953 0.914896
Si Si4 0.734528 0.651734 0.468620
Si Si5 0.478594 0.653381 0.117622
Si Si6 0.443425 0.508789 0.377251
Si Si7 0.135024 0.410497 0.453280
O O1 0.234707 0.081379 0.056523
O O2 0.151119 0.067356 0.266243
O O3 0.120556 0.024293 0.970010
O O4 0.197883 0.925078 0.118892
O O5 0.750886 0.750000 0.894148
O O6 0.654009 0.652199 0.915831
O O7 0.722118 0.642775 0.664840
O O8 0.565443 0.924536 0.736228
O O9 0.541961 0.875695 0.036768
O O10 0.619948 0.998413 0.966988
O O11 0.720637 0.750000 0.419615
O O12 0.807021 0.632848 0.458444
O O13 0.482709 0.750000 0.177445
O O14 0.459973 0.588033 0.259814
O O15 0.425413 0.645164 0.980647
O O16 0.500000 0.500000 0.500000
#
# Coordination Sequence:
#
# PCOD9464993 Si02
#       7
#     8   8   8   8   8   8   8
#     4  11  21  39  66  92 131 168 210 269 325 385
#     4  10  21  37  61  93 126 166 212 258 320 389
#     4  11  20  40  65  86 127 172 210 262 317 387
#     4  10  20  37  61  92 126 163 209 264 317 378
#     4  11  24  41  63  93 128 170 219 268 317 388
#     4  11  23  42  65  95 123 171 217 267 329 387
#     4  10  21  38  64  89 126 168 212 254 319 389
#
# _framework density 20.151585000000001
#
# number of rings (size 3 to 8) (size 9 to 14) (size 15 to 20)
#    0.000    1.429    2.857    4.286    0.000    1.143 
#    0.000    6.429    0.000    0.000    0.000    0.000 
#    0.000    0.000    0.000    0.000    0.000    0.000 
#
# Total GULP energy -312718.062426 kJ/mol
# GULP energy per Si atom -5584.251115 kJ/mol
# Density = 2.010572 g / cm^3
# Si number density = 20.151585 Si / 1000 Ang^3
#
#
#
# Elastic Constant Matrix: (Units=GPa)
#
#
# Indices 1 2 3 4 5 6 
#
# 1 131.2630 46.8513 40.1260 0.0000 0.0000 0.0000
# 2 46.8513 123.7779 26.0472 0.0000 0.0000 0.0000
# 3 40.1260 26.0472 46.8869 0.0000 0.0000 0.0000
# 4 0.0000 0.0000 0.0000 13.8012 0.0000 0.0000
# 5 0.0000 0.0000 0.0000 0.0000 19.6262 0.0000
# 6 0.0000 0.0000 0.0000 0.0000 0.0000 19.1258
#
#
#
# Elastic Compliance Matrix: (Units=1/GPa)
#
#
# Indices 1 2 3 4 5 6 
#
# 1 0.010940 -0.002458 -0.007997 0.000000 0.000000 0.000000
# 2 -0.002458 0.009701 -0.003285 0.000000 0.000000 0.000000
# 3 -0.007997 -0.003285 0.029997 0.000000 0.000000 0.000000
# 4 0.000000 0.000000 0.000000 0.072457 0.000000 0.000000
# 5 0.000000 0.000000 0.000000 0.000000 0.050952 0.000000
# 6 0.000000 0.000000 0.000000 0.000000 0.000000 0.052285
#
#
# Mechanical properties :
#
#
# Convention : Reuss Voigt Hill
#
# Bulk Modulus (GPa) = 43.18404 58.66409 50.92406
# Shear Modulus (GPa) = 19.11800 23.10421 21.11110
#
# Velocity S-wave (km/s) = 3.08345 3.38970 3.24020
# Velocity P-wave (km/s) = 5.84406 6.67044 6.27088
#
# Compressibility (1/GPa) = 0.02315670
#
# Stress axis : x y z
#
# Youngs Moduli (GPa) = 91.40484 103.08444 33.33657
#
# Poissons Ratio (x) = 0.25340 0.26660
# Poissons Ratio (y) = 0.22469 0.10952
# Poissons Ratio (z) = 0.73098 0.33868
#
# Static dielectric constant tensor:
#      x y z
#    x 1.716100 0.000000 0.000000 
#    y 0.000000 1.727170 0.000000 
#    z 0.000000 0.000000 1.713480 
# 
# From -- ./inp_files/8740.got.cif
#   From: 2010.05.17/outbox.cif.g08.bks.cpg/sg62_5_cif.got.tgz:8740.got - 2010.06.03 15:25:27.
