data_PCOD9464112
_publ_section_title
;
Structure prediction by ZEFSAII (Michael W. Deem and Ramdas Pophale) SiO2 
 PCOD9464112
Probable space group: P N M A
;
_chemical_formula_sum "Si O2"
_cell_formula_units_Z 64
_cell_length_a 20.094583
_cell_length_b 8.691818
_cell_length_c 20.835297
_cell_angle_alpha 90.000000
_cell_angle_beta 90.000000
_cell_angle_gamma 90.000000
_cell_volume 3639.060851
_symmetry_space_group_name_H-M "P N M A"
_symmetry_group_IT_number 62
_symmetry_cell_setting 'orthorhombic'
loop_
_space_group_symop_operation_xyz
x,y,z
1/2-x,-y,1/2+z
1/2+x,1/2-y,1/2-z
-x,1/2+y,-z
-x,-y,-z
1/2+x,y,1/2-z
1/2-x,1/2+y,1/2+z
x,1/2-y,z
loop_
_atom_site_type_symbol
_atom_site_label
_atom_site_fract_x
_atom_site_fract_y
_atom_site_fract_z
Si Si1 0.174336 0.563488 0.929397
Si Si2 0.677050 0.564956 0.424991
Si Si3 0.577941 0.066149 0.822172
Si Si4 0.175712 0.933492 0.571349
Si Si5 0.327678 0.565068 0.931262
Si Si6 0.921036 0.934161 0.818341
Si Si7 0.423985 0.064073 0.317468
Si Si8 0.077857 0.565861 0.321536
O O1 0.172292 0.750000 0.928505
O O2 0.250973 0.519255 0.916812
O O3 0.123567 0.510097 0.874968
O O4 0.157496 0.516637 0.002291
O O5 0.679466 0.750000 0.423008
O O6 0.751110 0.500650 0.413668
O O7 0.626004 0.503184 0.372673
O O8 0.585063 0.250000 0.825558
O O9 0.500002 0.027178 0.832669
O O10 0.624038 0.988393 0.875107
O O11 0.595203 0.008037 0.750775
O O12 0.178802 0.750000 0.569110
O O13 0.156026 0.998350 0.501395
O O14 0.330497 0.750000 0.934023
O O15 0.376564 0.503054 0.877076
O O16 0.915189 0.750000 0.817838
O O17 0.998659 0.974457 0.830257
O O18 0.903461 0.998841 0.748071
O O19 0.419489 0.250000 0.312367
O O20 0.083947 0.750000 0.320311
#
# Coordination Sequence:
#
# PCOD9464112 Si02
#       8
#     8   8   8   8   8   8   8   8
#     4   8  17  34  55  78 105 139 175 216 265 314
#     4  10  20  36  56  78 108 143 179 221 269 320
#     4  10  21  37  55  78 108 141 179 222 270 320
#     4  11  22  37  57  80 107 139 178 221 268 324
#     4  10  20  36  57  80 109 141 176 221 271 322
#     4  10  20  34  54  80 109 142 180 223 269 317
#     4   9  18  35  56  78 107 142 181 222 266 318
#     4  10  21  37  56  78 107 143 182 223 266 318
#
# _framework density 17.586955
#
# number of rings (size 3 to 8) (size 9 to 14) (size 15 to 20)
#    0.000    2.250    0.000    3.750    0.000    4.000 
#    0.000    7.500    0.000    0.000    0.000    0.000 
#    0.000    0.000    0.000    0.000    0.000    0.000 
#
# Total GULP energy -357263.190749 kJ/mol
# GULP energy per Si atom -5582.237355 kJ/mol
# Density = 1.754693 g / cm^3
# Si number density = 17.586955 Si / 1000 Ang^3
#
#
#
# Elastic Constant Matrix: (Units=GPa)
#
#
# Indices 1 2 3 4 5 6 
#
# 1 104.9065 52.5159 129.9252 0.0000 0.0000 0.0000
# 2 52.5159 69.8190 67.7021 0.0000 0.0000 0.0000
# 3 129.9252 67.7021 191.1683 0.0000 0.0000 0.0000
# 4 0.0000 0.0000 0.0000 27.4622 0.0000 0.0000
# 5 0.0000 0.0000 0.0000 0.0000 43.7779 0.0000
# 6 0.0000 0.0000 0.0000 0.0000 0.0000 24.9557
#
#
#
# Elastic Compliance Matrix: (Units=1/GPa)
#
#
# Indices 1 2 3 4 5 6 
#
# 1 0.063768 -0.009046 -0.040135 0.000000 0.000000 0.000000
# 2 -0.009046 0.023097 -0.002032 0.000000 0.000000 0.000000
# 3 -0.040135 -0.002032 0.033228 0.000000 0.000000 0.000000
# 4 0.000000 0.000000 0.000000 0.036414 0.000000 0.000000
# 5 0.000000 0.000000 0.000000 0.000000 0.022843 0.000000
# 6 0.000000 0.000000 0.000000 0.000000 0.000000 0.040071
#
#
# Mechanical properties :
#
#
# Convention : Reuss Voigt Hill
#
# Bulk Modulus (GPa) = 56.60372 96.24225 76.42299
# Shear Modulus (GPa) = 15.25620 26.95585 21.10602
#
# Velocity S-wave (km/s) = 2.94848 3.91924 3.46800
# Velocity P-wave (km/s) = 6.62166 8.67889 7.71911
#
# Compressibility (1/GPa) = 0.01766668
#
# Stress axis : x y z
#
# Youngs Moduli (GPa) = 15.68190 43.29549 30.09491
#
# Poissons Ratio (x) = 0.39164 1.20787
# Poissons Ratio (y) = 0.14185 0.06115
# Poissons Ratio (z) = 0.62940 0.08798
#
# Static dielectric constant tensor:
#      x y z
#    x 1.582970 0.000000 0.000000 
#    y 0.000000 1.588950 0.000000 
#    z 0.000000 0.000000 1.570490 
# 
# From -- ./inp_files/24696.got.cif
#   From: 2010.05.17/outbox.cif.g08.bks.cpg/sg62_13_cif.got.tgz:24696.got - 2010.06.03 15:25:27.
