data_PCOD9464145
_publ_section_title
;
Structure prediction by ZEFSAII (Michael W. Deem and Ramdas Pophale) SiO2 
 PCOD9464145
Probable space group: P N M A
;
_chemical_formula_sum "Si O2"
_cell_formula_units_Z 48
_cell_length_a 9.293776
_cell_length_b 12.814134
_cell_length_c 17.597713
_cell_angle_alpha 90.000000
_cell_angle_beta 90.000000
_cell_angle_gamma 90.000000
_cell_volume 2095.741399
_symmetry_space_group_name_H-M "P N M A"
_symmetry_group_IT_number 62
_symmetry_cell_setting 'orthorhombic'
loop_
_space_group_symop_operation_xyz
x,y,z
1/2-x,-y,1/2+z
1/2+x,1/2-y,1/2-z
-x,1/2+y,-z
-x,-y,-z
1/2+x,y,1/2-z
1/2-x,1/2+y,1/2+z
x,1/2-y,z
loop_
_atom_site_type_symbol
_atom_site_label
_atom_site_fract_x
_atom_site_fract_y
_atom_site_fract_z
Si Si1 0.556643 0.525560 0.775687
Si Si2 0.140226 0.940773 0.393394
Si Si3 0.944489 0.044911 0.887332
Si Si4 0.676269 0.374581 0.488194
Si Si5 0.696021 0.250000 0.689277
Si Si6 0.792652 0.866807 0.691522
Si Si7 0.149988 0.750000 0.154336
O O1 0.510470 0.456905 0.848586
O O2 0.503295 0.469975 0.698264
O O3 0.459177 0.628380 0.786576
O O4 0.712645 0.567692 0.757170
O O5 0.165656 0.906527 0.479885
O O6 0.224078 0.850127 0.347146
O O7 0.214127 0.054696 0.380260
O O8 0.834250 0.141383 0.888565
O O9 0.066325 0.082405 0.947069
O O10 0.872561 0.938265 0.915123
O O11 0.665380 0.250000 0.481463
O O12 0.523435 0.250000 0.676692
O O13 0.741253 0.250000 0.776237
O O14 0.740348 0.750000 0.680092
#
# Coordination Sequence:
#
# PCOD9464145 Si02
#       7
#     8   8   8   8   4   8   4
#     4  10  20  35  57  85 115 151 196 244 297 352
#     4  10  20  35  56  83 113 151 198 247 289 355
#     4  11  20  35  53  86 119 154 194 240 303 349
#     4  11  21  36  55  82 124 159 195 245 301 360
#     4  12  20  34  64  86 124 153 199 255 301 340
#     4  10  20  34  54  83 116 149 193 239 296 355
#     4  12  20  38  60  96 124 151 199 253 295 362
#
# _framework density 22.903587999999999
#
# number of rings (size 3 to 8) (size 9 to 14) (size 15 to 20)
#    1.000    0.333    6.667    0.500    0.000    1.333 
#    1.500    0.000    0.000    1.000    0.000    0.000 
#    0.000    0.000    0.000    0.000    0.000    0.000 
#
# Total GULP energy -267373.461991 kJ/mol
# GULP energy per Si atom -5570.280458 kJ/mol
# Density = 2.285146 g / cm^3
# Si number density = 22.903588 Si / 1000 Ang^3
#
#
#
# Elastic Constant Matrix: (Units=GPa)
#
#
# Indices 1 2 3 4 5 6 
#
# 1 40.1667 2.3901 -8.0225 0.0000 0.0000 0.0000
# 2 2.3901 149.6679 4.1969 0.0000 0.0000 0.0000
# 3 -8.0225 4.1969 28.0471 0.0000 0.0000 0.0000
# 4 0.0000 0.0000 0.0000 29.6921 0.0000 0.0000
# 5 0.0000 0.0000 0.0000 0.0000 19.3711 0.0000
# 6 0.0000 0.0000 0.0000 0.0000 0.0000 21.0272
#
#
#
# Elastic Compliance Matrix: (Units=1/GPa)
#
#
# Indices 1 2 3 4 5 6 
#
# 1 0.026465 -0.000638 0.007665 0.000000 0.000000 0.000000
# 2 -0.000638 0.006725 -0.001189 0.000000 0.000000 0.000000
# 3 0.007665 -0.001189 0.038025 0.000000 0.000000 0.000000
# 4 0.000000 0.000000 0.000000 0.033679 0.000000 0.000000
# 5 0.000000 0.000000 0.000000 0.000000 0.051623 0.000000
# 6 0.000000 0.000000 0.000000 0.000000 0.000000 0.047557
#
#
# Mechanical properties :
#
#
# Convention : Reuss Voigt Hill
#
# Bulk Modulus (GPa) = 12.06372 23.89009 17.97690
# Shear Modulus (GPa) = 22.72444 28.63922 25.68183
#
# Velocity S-wave (km/s) = 3.15330 3.53997 3.35222
# Velocity P-wave (km/s) = 4.30539 5.21171 4.78008
#
# Compressibility (1/GPa) = 0.08289316
#
# Stress axis : x y z
#
# Youngs Moduli (GPa) = 37.78547 148.69949 26.29869
#
# Poissons Ratio (x) = 0.09481 -0.20159
# Poissons Ratio (y) = 0.02409 0.03126
# Poissons Ratio (z) = -0.28964 0.17676
#
# Static dielectric constant tensor:
#      x y z
#    x 1.963380 0.000000 0.000000 
#    y 0.000000 1.864910 0.000000 
#    z 0.000000 0.000000 1.906820 
# 
# From -- ./inp_files/26569.got.cif
#   From: 2010.05.17/outbox.cif.g08.bks.cpg/sg62_14_cif.got.tgz:26569.got - 2010.06.03 15:25:27.
