data_PCOD9464270
_publ_section_title
;
Structure prediction by ZEFSAII (Michael W. Deem and Ramdas Pophale) SiO2 
 PCOD9464270
Probable space group: P N M A
;
_chemical_formula_sum "Si O2"
_cell_formula_units_Z 64
_cell_length_a 15.712297
_cell_length_b 17.941878
_cell_length_c 10.578952
_cell_angle_alpha 90.000000
_cell_angle_beta 90.000000
_cell_angle_gamma 90.000000
_cell_volume 2982.292426
_symmetry_space_group_name_H-M "P N M A"
_symmetry_group_IT_number 62
_symmetry_cell_setting 'orthorhombic'
loop_
_space_group_symop_operation_xyz
x,y,z
1/2-x,-y,1/2+z
1/2+x,1/2-y,1/2-z
-x,1/2+y,-z
-x,-y,-z
1/2+x,y,1/2-z
1/2-x,1/2+y,1/2+z
x,1/2-y,z
loop_
_atom_site_type_symbol
_atom_site_label
_atom_site_fract_x
_atom_site_fract_y
_atom_site_fract_z
Si Si1 0.503002 0.664966 0.778916
Si Si2 0.897593 0.495431 0.000000
Si Si3 0.843094 0.932612 0.266550
Si Si4 0.569418 0.832087 0.500000
Si Si5 0.343094 0.567388 0.766549
Si Si6 0.817859 0.095292 0.358841
Si Si7 0.996998 0.335034 0.721085
Si Si8 0.682141 0.904708 0.141160
O O1 0.494140 0.750000 0.821254
O O2 0.512712 0.664454 0.626327
O O3 0.421982 0.615514 0.813516
O O4 0.591434 0.630774 0.827115
O O5 0.865979 0.534010 0.872471
O O6 0.865979 0.534010 0.127529
O O7 0.875339 0.407421 0.000000
O O8 0.000000 0.500000 0.000000
O O9 0.756534 0.887033 0.241283
O O10 0.921982 0.884486 0.313516
O O11 0.827728 0.005659 0.350202
O O12 0.612027 0.750000 0.500000
O O13 0.512712 0.835547 0.373673
O O14 0.256534 0.612967 0.741282
O O15 0.327728 0.494341 0.850201
O O16 0.792953 0.117966 0.500000
O O17 0.005860 0.250000 0.678747
O O18 0.908565 0.369226 0.672885
#
# Coordination Sequence:
#
# PCOD9464270 Si02
#       8
#     8   8   8   8   8   8   8   8
#     4  11  23  40  62  90 126 165 204 257 318 373
#     4  12  16  34  66  92 118 153 208 265 308 356
#     4  11  22  39  64  94 122 163 210 261 311 376
#     4  10  20  34  60  92 121 154 200 256 317 367
#     4  11  22  39  64  94 122 163 210 261 311 376
#     4  11  24  40  63  94 127 160 209 260 314 374
#     4  11  23  40  62  90 126 165 204 257 318 373
#     4  11  24  40  63  94 127 160 209 260 314 374
#
# _framework density 21.460000999999998
#
# number of rings (size 3 to 8) (size 9 to 14) (size 15 to 20)
#    0.000    1.000    6.250    0.750    0.000    3.500 
#    0.000    0.000    0.000    0.000    0.000    0.000 
#    0.000    0.000    0.000    0.000    0.000    0.000 
#
# Total GULP energy -357700.209957 kJ/mol
# GULP energy per Si atom -5589.065781 kJ/mol
# Density = 2.141116 g / cm^3
# Si number density = 21.460001 Si / 1000 Ang^3
#
#
#
# Elastic Constant Matrix: (Units=GPa)
#
#
# Indices 1 2 3 4 5 6 
#
# 1 119.3353 36.7080 -15.7606 0.0000 0.0000 0.0000
# 2 36.7080 89.4765 -17.0782 0.0000 0.0000 0.0000
# 3 -15.7606 -17.0782 34.0671 0.0000 0.0000 0.0000
# 4 0.0000 0.0000 0.0000 16.1259 0.0000 0.0000
# 5 0.0000 0.0000 0.0000 0.0000 16.5370 0.0000
# 6 0.0000 0.0000 0.0000 0.0000 0.0000 5.1908
#
#
#
# Elastic Compliance Matrix: (Units=1/GPa)
#
#
# Indices 1 2 3 4 5 6 
#
# 1 0.009824 -0.003498 0.002792 0.000000 0.000000 0.000000
# 2 -0.003498 0.013604 0.005202 0.000000 0.000000 0.000000
# 3 0.002792 0.005202 0.033253 0.000000 0.000000 0.000000
# 4 0.000000 0.000000 0.000000 0.062012 0.000000 0.000000
# 5 0.000000 0.000000 0.000000 0.000000 0.060470 0.000000
# 6 0.000000 0.000000 0.000000 0.000000 0.000000 0.192648
#
#
# Mechanical properties :
#
#
# Convention : Reuss Voigt Hill
#
# Bulk Modulus (GPa) = 15.22706 27.84636 21.53671
# Shear Modulus (GPa) = 12.99678 23.50473 18.25075
#
# Velocity S-wave (km/s) = 2.46362 3.31309 2.91942
# Velocity P-wave (km/s) = 3.89917 5.25733 4.62834
#
# Compressibility (1/GPa) = 0.06567255
#
# Stress axis : x y z
#
# Youngs Moduli (GPa) = 101.78816 73.50857 30.07250
#
# Poissons Ratio (x) = 0.25710 -0.08395
# Poissons Ratio (y) = 0.35602 -0.15643
# Poissons Ratio (z) = -0.28416 -0.38236
#
# Static dielectric constant tensor:
#      x y z
#    x 1.793820 0.000000 0.000000 
#    y 0.000000 1.780080 0.000000 
#    z 0.000000 0.000000 1.781960 
# 
# From -- ./inp_files/13574.got.cif
#   From: 2010.05.17/outbox.cif.g08.bks.cpg/sg62_7_cif.got.tgz:13574.got - 2010.06.03 15:25:27.
