data_PCOD9464176
_publ_section_title
;
Structure prediction by ZEFSAII (Michael W. Deem and Ramdas Pophale) SiO2 
 PCOD9464176
Probable space group: P N M A
;
_chemical_formula_sum "Si O2"
_cell_formula_units_Z 56
_cell_length_a 14.212751
_cell_length_b 9.151253
_cell_length_c 21.074772
_cell_angle_alpha 90.000000
_cell_angle_beta 90.000000
_cell_angle_gamma 90.000000
_cell_volume 2741.079266
_symmetry_space_group_name_H-M "P N M A"
_symmetry_group_IT_number 62
_symmetry_cell_setting 'orthorhombic'
loop_
_space_group_symop_operation_xyz
x,y,z
1/2-x,-y,1/2+z
1/2+x,1/2-y,1/2-z
-x,1/2+y,-z
-x,-y,-z
1/2+x,y,1/2-z
1/2-x,1/2+y,1/2+z
x,1/2-y,z
loop_
_atom_site_type_symbol
_atom_site_label
_atom_site_fract_x
_atom_site_fract_y
_atom_site_fract_z
Si Si1 0.364671 0.424810 0.679154
Si Si2 0.851253 0.082713 0.503931
Si Si3 0.219917 0.919250 0.757943
Si Si4 0.499550 0.075043 0.567919
Si Si5 0.002869 0.919512 0.723894
Si Si6 0.209030 0.425098 0.887235
Si Si7 0.965224 0.916093 0.405321
O O1 0.357457 0.250000 0.680554
O O2 0.267265 0.498643 0.698861
O O3 0.412549 0.469708 0.612729
O O4 0.435291 0.481823 0.733617
O O5 0.833312 0.250000 0.482720
O O6 0.766528 0.033599 0.549478
O O7 0.944014 0.086040 0.548532
O O8 0.878250 0.980093 0.445501
O O9 0.247673 0.750000 0.757921
O O10 0.107963 0.927862 0.751432
O O11 0.246121 0.995097 0.824521
O O12 0.495349 0.250000 0.560090
O O13 0.598903 0.042598 0.602280
O O14 0.500000 0.000000 0.500000
O O15 0.973227 0.750000 0.724726
O O16 0.009458 0.981245 0.653151
O O17 0.220593 0.250000 0.879075
O O18 0.947054 0.750000 0.384192
#
# Coordination Sequence:
#
# PCOD9464176 Si02
#       7
#     8   8   8   8   8   8   8
#     4  11  23  41  64  91 124 162 207 257 312 372
#     4   9  19  35  56  82 114 153 196 245 302 361
#     4  11  24  39  61  92 122 159 204 253 311 368
#     4  10  23  41  63  89 120 161 206 257 314 369
#     4  11  23  39  60  87 121 158 198 250 304 359
#     4  10  20  39  63  87 117 158 209 258 308 370
#     4  10  20  34  55  85 119 156 196 244 303 363
#
# _framework density 20.429908999999999
#
# number of rings (size 3 to 8) (size 9 to 14) (size 15 to 20)
#    0.000    1.714    1.429    2.571    0.000    6.857 
#    0.000    4.286    0.000    0.000    0.000    0.000 
#    0.000    0.000    0.000    0.000    0.000    0.000 
#
# Total GULP energy -313015.186380 kJ/mol
# GULP energy per Si atom -5589.556900 kJ/mol
# Density = 2.038341 g / cm^3
# Si number density = 20.429909 Si / 1000 Ang^3
#
#
#
# Elastic Constant Matrix: (Units=GPa)
#
#
# Indices 1 2 3 4 5 6 
#
# 1 31.9374 13.3478 -7.3127 0.0000 0.0000 0.0000
# 2 13.3478 53.9396 27.0191 0.0000 0.0000 0.0000
# 3 -7.3127 27.0191 78.8319 0.0000 0.0000 0.0000
# 4 0.0000 0.0000 0.0000 36.8539 0.0000 0.0000
# 5 0.0000 0.0000 0.0000 0.0000 31.6797 0.0000
# 6 0.0000 0.0000 0.0000 0.0000 0.0000 27.5739
#
#
#
# Elastic Compliance Matrix: (Units=1/GPa)
#
#
# Indices 1 2 3 4 5 6 
#
# 1 0.039012 -0.013843 0.008364 0.000000 0.000000 0.000000
# 2 -0.013843 0.027294 -0.010639 0.000000 0.000000 0.000000
# 3 0.008364 -0.010639 0.017107 0.000000 0.000000 0.000000
# 4 0.000000 0.000000 0.000000 0.027134 0.000000 0.000000
# 5 0.000000 0.000000 0.000000 0.000000 0.031566 0.000000
# 6 0.000000 0.000000 0.000000 0.000000 0.000000 0.036266
#
#
# Mechanical properties :
#
#
# Convention : Reuss Voigt Hill
#
# Bulk Modulus (GPa) = 19.54039 25.64635 22.59337
# Shear Modulus (GPa) = 21.96107 27.99848 24.97978
#
# Velocity S-wave (km/s) = 3.28220 3.70600 3.50052
# Velocity P-wave (km/s) = 4.89378 5.55816 5.23652
#
# Compressibility (1/GPa) = 0.05117605
#
# Stress axis : x y z
#
# Youngs Moduli (GPa) = 25.63329 36.63800 58.45397
#
# Poissons Ratio (x) = 0.50719 -0.48888
# Poissons Ratio (y) = 0.35485 0.62189
# Poissons Ratio (z) = -0.21438 0.38979
#
# Static dielectric constant tensor:
#      x y z
#    x 1.751940 0.000000 0.000000 
#    y 0.000000 1.696640 0.000000 
#    z 0.000000 0.000000 1.701200 
# 
# From -- ./inp_files/27301.got.cif
#   From: 2010.05.17/outbox.cif.g08.bks.cpg/sg62_14_cif.got.tgz:27301.got - 2010.06.03 15:25:27.
