data_PCOD9464242
_publ_section_title
;
Structure prediction by ZEFSAII (Michael W. Deem and Ramdas Pophale) SiO2 
 PCOD9464242
Probable space group: P N M A
;
_chemical_formula_sum "Si O2"
_cell_formula_units_Z 56
_cell_length_a 19.419176
_cell_length_b 18.728205
_cell_length_c 5.840634
_cell_angle_alpha 90.000000
_cell_angle_beta 90.000000
_cell_angle_gamma 90.000000
_cell_volume 2124.158622
_symmetry_space_group_name_H-M "P N M A"
_symmetry_group_IT_number 62
_symmetry_cell_setting 'orthorhombic'
loop_
_space_group_symop_operation_xyz
x,y,z
1/2-x,-y,1/2+z
1/2+x,1/2-y,1/2-z
-x,1/2+y,-z
-x,-y,-z
1/2+x,y,1/2-z
1/2-x,1/2+y,1/2+z
x,1/2-y,z
loop_
_atom_site_type_symbol
_atom_site_label
_atom_site_fract_x
_atom_site_fract_y
_atom_site_fract_z
Si Si1 0.916404 0.990535 0.620709
Si Si2 0.531471 0.250000 0.171622
Si Si3 0.012025 0.898945 0.863116
Si Si4 0.165443 0.624382 0.508561
Si Si5 0.662631 0.866754 0.493642
Si Si6 0.109441 0.250000 0.831893
Si Si7 0.792776 0.516203 0.970462
Si Si8 0.109568 0.102973 0.768588
O O1 0.919550 0.918570 0.471513
O O2 0.987678 0.975209 0.754993
O O3 0.899741 0.068130 0.511751
O O4 0.847716 0.975408 0.768245
O O5 0.490149 0.176135 0.219650
O O6 0.583502 0.250000 0.399229
O O7 0.558820 0.250000 0.902799
O O8 0.085913 0.901327 0.986120
O O9 0.952486 0.888005 0.054171
O O10 0.168468 0.665771 0.751160
O O11 0.230463 0.570471 0.525543
O O12 0.165821 0.664574 0.263216
O O13 0.717524 0.931725 0.485680
O O14 0.149683 0.177029 0.790782
O O15 0.839839 0.538439 0.182303
#
# Coordination Sequence:
#
# PCOD9464242 Si02
#       8
#     8   4   8   8   8   4   8   8
#     4  10  20  34  58  83 120 149 190 237 286 350
#     4  10  20  38  58  80 115 153 184 244 279 358
#     4  10  23  37  57  88 118 149 198 232 307 339
#     4  11  24  38  57  84 117 160 195 230 288 345
#     4  11  23  37  58  85 116 157 189 237 283 355
#     4  10  20  36  60  84 113 147 198 234 295 328
#     4  10  22  38  55  85 118 159 195 236 289 348
#     4  10  20  36  59  86 115 155 187 247 282 352
#
# _framework density 26.363378999999998
#
# number of rings (size 3 to 8) (size 9 to 14) (size 15 to 20)
#    0.000    1.714    2.857    1.714    4.000    5.714 
#    0.000    0.000    0.000    1.714    0.000    0.000 
#    0.000    0.000    0.000    0.000    0.000    0.000 
#
# Total GULP energy -311841.450776 kJ/mol
# GULP energy per Si atom -5568.597335 kJ/mol
# Density = 2.630337 g / cm^3
# Si number density = 26.363379 Si / 1000 Ang^3
#
#
#
# Elastic Constant Matrix: (Units=GPa)
#
#
# Indices 1 2 3 4 5 6 
#
# 1 74.2055 1.5092 8.9461 0.0000 0.0000 0.0000
# 2 1.5092 104.6860 21.4778 0.0000 0.0000 0.0000
# 3 8.9461 21.4778 153.4707 0.0000 0.0000 0.0000
# 4 0.0000 0.0000 0.0000 2.8042 0.0000 0.0000
# 5 0.0000 0.0000 0.0000 0.0000 36.4753 0.0000
# 6 0.0000 0.0000 0.0000 0.0000 0.0000 9.8923
#
#
#
# Elastic Compliance Matrix: (Units=1/GPa)
#
#
# Indices 1 2 3 4 5 6 
#
# 1 0.013572 -0.000034 -0.000786 0.000000 0.000000 0.000000
# 2 -0.000034 0.009835 -0.001374 0.000000 0.000000 0.000000
# 3 -0.000786 -0.001374 0.006754 0.000000 0.000000 0.000000
# 4 0.000000 0.000000 0.000000 0.356607 0.000000 0.000000
# 5 0.000000 0.000000 0.000000 0.000000 0.027416 0.000000
# 6 0.000000 0.000000 0.000000 0.000000 0.000000 0.101089
#
#
# Mechanical properties :
#
#
# Convention : Reuss Voigt Hill
#
# Bulk Modulus (GPa) = 38.80405 44.02537 41.41471
# Shear Modulus (GPa) = 9.46518 29.86297 19.66408
#
# Velocity S-wave (km/s) = 1.89686 3.36928 2.73405
# Velocity P-wave (km/s) = 4.42135 5.64551 5.07051
#
# Compressibility (1/GPa) = 0.02577050
#
# Stress axis : x y z
#
# Youngs Moduli (GPa) = 73.68339 101.67932 148.05875
#
# Poissons Ratio (x) = 0.00349 0.11642
# Poissons Ratio (y) = 0.00253 0.20349
# Poissons Ratio (z) = 0.05794 0.13974
#
# Static dielectric constant tensor:
#      x y z
#    x 2.053180 0.000000 0.000000 
#    y 0.000000 2.030330 0.000000 
#    z 0.000000 0.000000 2.345640 
# 
# From -- ./inp_files/2312.got.cif
#   From: 2010.05.17/outbox.cif.g08.bks.cpg/sg62_2_cif.got.tgz:2312.got - 2010.06.03 15:25:27.
