data_PCOD9464995
_publ_section_title
;
Structure prediction by ZEFSAII (Michael W. Deem and Ramdas Pophale) SiO2 
 PCOD9464995
Probable space group: P N M A
;
_chemical_formula_sum "Si O2"
_cell_formula_units_Z 48
_cell_length_a 8.000987
_cell_length_b 24.063049
_cell_length_c 12.399199
_cell_angle_alpha 90.000000
_cell_angle_beta 90.000000
_cell_angle_gamma 90.000000
_cell_volume 2387.194749
_symmetry_space_group_name_H-M "P N M A"
_symmetry_group_IT_number 62
_symmetry_cell_setting 'orthorhombic'
loop_
_space_group_symop_operation_xyz
x,y,z
1/2-x,-y,1/2+z
1/2+x,1/2-y,1/2-z
-x,1/2+y,-z
-x,-y,-z
1/2+x,y,1/2-z
1/2-x,1/2+y,1/2+z
x,1/2-y,z
loop_
_atom_site_type_symbol
_atom_site_label
_atom_site_fract_x
_atom_site_fract_y
_atom_site_fract_z
Si Si1 0.390456 0.042510 0.929892
Si Si2 0.923357 0.641199 0.509436
Si Si3 0.769859 0.750000 0.399604
Si Si4 0.277044 0.688827 0.538553
Si Si5 0.238171 0.555816 0.828377
Si Si6 0.379946 0.750000 0.344927
Si Si7 0.874746 0.578893 0.896889
O O1 0.502114 0.097890 0.919713
O O2 0.226772 0.057348 0.000212
O O3 0.500000 0.000000 0.000000
O O4 0.329090 0.004124 0.833121
O O5 0.091123 0.667361 0.560980
O O6 0.823304 0.693480 0.461401
O O7 0.827107 0.601914 0.594803
O O8 0.572827 0.750000 0.377968
O O9 0.855912 0.750000 0.281723
O O10 0.304567 0.750000 0.584766
O O11 0.295827 0.698373 0.409212
O O12 0.405656 0.643886 0.580736
O O13 0.253005 0.574506 0.705573
O O14 0.049108 0.550644 0.869420
#
# Coordination Sequence:
#
# PCOD9464995 Si02
#       7
#     8   8   4   8   8   4   8
#     4   9  20  39  60  85 118 155 196 246 291 350
#     4  10  20  37  62  84 120 150 196 243 302 347
#     4  12  20  38  57  88 113 156 190 246 296 360
#     4   9  19  39  57  85 117 155 193 245 293 357
#     4  11  22  39  59  90 117 161 199 243 299 350
#     4  10  22  36  59  80 121 152 196 236 294 360
#     4  11  21  39  63  86 123 157 197 250 293 352
#
# _framework density 20.107284
#
# number of rings (size 3 to 8) (size 9 to 14) (size 15 to 20)
#    0.500    1.333    0.833    5.500    0.000    0.000 
#    1.500   16.667    0.000    0.000    0.000    0.000 
#    0.000    0.000    0.000    0.000    0.000    0.000 
#
# Total GULP energy -267439.047070 kJ/mol
# GULP energy per Si atom -5571.646814 kJ/mol
# Density = 2.006152 g / cm^3
# Si number density = 20.107284 Si / 1000 Ang^3
#
#
#
# Elastic Constant Matrix: (Units=GPa)
#
#
# Indices 1 2 3 4 5 6 
#
# 1 67.3465 13.6893 -5.8488 0.0000 0.0000 0.0000
# 2 13.6893 115.7362 18.5632 0.0000 0.0000 0.0000
# 3 -5.8488 18.5632 58.3196 0.0000 0.0000 0.0000
# 4 0.0000 0.0000 0.0000 25.2459 0.0000 0.0000
# 5 0.0000 0.0000 0.0000 0.0000 23.0674 0.0000
# 6 0.0000 0.0000 0.0000 0.0000 0.0000 29.1387
#
#
#
# Elastic Compliance Matrix: (Units=1/GPa)
#
#
# Indices 1 2 3 4 5 6 
#
# 1 0.015490 -0.002193 0.002252 0.000000 0.000000 0.000000
# 2 -0.002193 0.009416 -0.003217 0.000000 0.000000 0.000000
# 3 0.002252 -0.003217 0.018397 0.000000 0.000000 0.000000
# 4 0.000000 0.000000 0.000000 0.039610 0.000000 0.000000
# 5 0.000000 0.000000 0.000000 0.000000 0.043351 0.000000
# 6 0.000000 0.000000 0.000000 0.000000 0.000000 0.034319
#
#
# Mechanical properties :
#
#
# Convention : Reuss Voigt Hill
#
# Bulk Modulus (GPa) = 27.03804 32.68998 29.86401
# Shear Modulus (GPa) = 27.89738 29.82365 28.86052
#
# Velocity S-wave (km/s) = 3.72886 3.85545 3.79268
# Velocity P-wave (km/s) = 5.65820 6.00936 5.83642
#
# Compressibility (1/GPa) = 0.03698493
#
# Stress axis : x y z
#
# Youngs Moduli (GPa) = 64.55803 106.20511 54.35766
#
# Poissons Ratio (x) = 0.23294 -0.12239
# Poissons Ratio (y) = 0.14159 0.17487
# Poissons Ratio (z) = -0.14536 0.34166
#
# Static dielectric constant tensor:
#      x y z
#    x 1.726370 0.000000 0.000000 
#    y 0.000000 1.750460 0.000000 
#    z 0.000000 0.000000 1.696010 
# 
# From -- ./inp_files/11345.got.cif
#   From: 2010.05.17/outbox.cif.g08.bks.cpg/sg62_6_cif.got.tgz:11345.got - 2010.06.03 15:25:27.
