data_PCOD9464798
_publ_section_title
;
Structure prediction by ZEFSAII (Michael W. Deem and Ramdas Pophale) SiO2 
 PCOD9464798
Probable space group: P N M A
;
_chemical_formula_sum "Si O2"
_cell_formula_units_Z 48
_cell_length_a 13.956151
_cell_length_b 27.885730
_cell_length_c 5.096335
_cell_angle_alpha 90.000000
_cell_angle_beta 90.000000
_cell_angle_gamma 90.000000
_cell_volume 1983.378704
_symmetry_space_group_name_H-M "P N M A"
_symmetry_group_IT_number 62
_symmetry_cell_setting 'orthorhombic'
loop_
_space_group_symop_operation_xyz
x,y,z
1/2-x,-y,1/2+z
1/2+x,1/2-y,1/2-z
-x,1/2+y,-z
-x,-y,-z
1/2+x,y,1/2-z
1/2-x,1/2+y,1/2+z
x,1/2-y,z
loop_
_atom_site_type_symbol
_atom_site_label
_atom_site_fract_x
_atom_site_fract_y
_atom_site_fract_z
Si Si1 0.240617 0.694470 0.882956
Si Si2 0.499352 0.613378 0.183706
Si Si3 0.628200 0.195512 0.621637
Si Si4 0.980201 0.559579 0.814253
Si Si5 0.794111 0.978831 0.731368
Si Si6 0.165843 0.898768 0.647922
O O1 0.204093 0.750000 0.871061
O O2 0.324817 0.690997 0.664049
O O3 0.169887 0.651426 0.801485
O O4 0.287367 0.686290 0.166729
O O5 0.458966 0.661270 0.307863
O O6 0.466743 0.573032 0.385789
O O7 0.613187 0.611675 0.127296
O O8 0.456105 0.601588 0.897995
O O9 0.596777 0.250000 0.658055
O O10 0.909081 0.517171 0.741158
O O11 0.094082 0.560917 0.769570
O O12 0.756292 0.986100 0.438460
O O13 0.766141 0.925907 0.841775
#
# Coordination Sequence:
#
# PCOD9464798 Si02
#       6
#     8   8   8   8   8   8
#     4  10  22  39  65  95 128 169 215 263 316 383
#     4  10  21  39  61  91 123 170 203 261 316 377
#     4  10  20  36  60  90 126 167 214 261 311 375
#     4  10  24  43  64  94 124 164 207 265 318 379
#     4  12  27  44  68  96 128 171 216 268 326 387
#     4  10  26  41  69  93 134 167 217 267 322 386
#
# _framework density 24.201128000000001
#
# number of rings (size 3 to 8) (size 9 to 14) (size 15 to 20)
#    1.000    0.667    0.000    4.000    4.667    2.000 
#    0.000    0.833    0.000    0.000    0.000    0.000 
#    0.000    0.000    0.000    0.000    0.000    0.000 
#
# Total GULP energy -267931.203444 kJ/mol
# GULP energy per Si atom -5581.900072 kJ/mol
# Density = 2.414604 g / cm^3
# Si number density = 24.201128 Si / 1000 Ang^3
#
#
#
# Elastic Constant Matrix: (Units=GPa)
#
#
# Indices 1 2 3 4 5 6 
#
# 1 72.5825 33.6326 15.7566 0.0000 0.0000 0.0000
# 2 33.6326 69.5090 2.6925 0.0000 0.0000 0.0000
# 3 15.7566 2.6925 76.7257 0.0000 0.0000 0.0000
# 4 0.0000 0.0000 0.0000 29.6007 0.0000 0.0000
# 5 0.0000 0.0000 0.0000 0.0000 24.4735 0.0000
# 6 0.0000 0.0000 0.0000 0.0000 0.0000 40.0948
#
#
#
# Elastic Compliance Matrix: (Units=1/GPa)
#
#
# Indices 1 2 3 4 5 6 
#
# 1 0.018663 -0.008894 -0.003521 0.000000 0.000000 0.000000
# 2 -0.008894 0.018645 0.001172 0.000000 0.000000 0.000000
# 3 -0.003521 0.001172 0.013715 0.000000 0.000000 0.000000
# 4 0.000000 0.000000 0.000000 0.033783 0.000000 0.000000
# 5 0.000000 0.000000 0.000000 0.000000 0.040861 0.000000
# 6 0.000000 0.000000 0.000000 0.000000 0.000000 0.024941
#
#
# Mechanical properties :
#
#
# Convention : Reuss Voigt Hill
#
# Bulk Modulus (GPa) = 35.04059 35.88672 35.46365
# Shear Modulus (GPa) = 27.38162 29.94949 28.66555
#
# Velocity S-wave (km/s) = 3.36731 3.52166 3.44535
# Velocity P-wave (km/s) = 5.44322 5.60329 5.52384
#
# Compressibility (1/GPa) = 0.02853834
#
# Stress axis : x y z
#
# Youngs Moduli (GPa) = 53.58245 53.63490 72.91126
#
# Poissons Ratio (x) = 0.47702 0.25669
# Poissons Ratio (y) = 0.47655 -0.08546
# Poissons Ratio (z) = 0.18864 -0.06287
#
# Static dielectric constant tensor:
#      x y z
#    x 1.949990 0.000000 0.000000 
#    y 0.000000 1.942480 0.000000 
#    z 0.000000 0.000000 1.876170 
# 
# From -- ./inp_files/1125.got.cif
#   From: 2010.05.17/outbox.cif.g08.bks.cpg/sg62_1_cif.got.tgz:1125.got - 2010.06.03 15:25:27.
