data_PCOD9464769
_publ_section_title
;
Structure prediction by ZEFSAII (Michael W. Deem and Ramdas Pophale) SiO2 
 PCOD9464769
Probable space group: P N M A
;
_chemical_formula_sum "Si O2"
_cell_formula_units_Z 60
_cell_length_a 15.200950
_cell_length_b 9.427653
_cell_length_c 22.531985
_cell_angle_alpha 90.000000
_cell_angle_beta 90.000000
_cell_angle_gamma 90.000000
_cell_volume 3229.042589
_symmetry_space_group_name_H-M "P N M A"
_symmetry_group_IT_number 62
_symmetry_cell_setting 'orthorhombic'
loop_
_space_group_symop_operation_xyz
x,y,z
1/2-x,-y,1/2+z
1/2+x,1/2-y,1/2-z
-x,1/2+y,-z
-x,-y,-z
1/2+x,y,1/2-z
1/2-x,1/2+y,1/2+z
x,1/2-y,z
loop_
_atom_site_type_symbol
_atom_site_label
_atom_site_fract_x
_atom_site_fract_y
_atom_site_fract_z
Si Si1 0.205336 0.918404 0.773647
Si Si2 0.022047 0.918369 0.714932
Si Si3 0.632552 0.415144 0.309122
Si Si4 0.735827 0.585518 0.109507
Si Si5 0.045913 0.584175 0.087133
Si Si6 0.621147 0.583694 0.545656
Si Si7 0.965627 0.750000 0.504092
Si Si8 0.967844 0.021921 0.589266
O O1 0.207267 0.750000 0.789351
O O2 0.107797 0.957904 0.752866
O O3 0.271606 0.937466 0.718581
O O4 0.238377 0.009969 0.828874
O O5 0.029664 0.750000 0.701982
O O6 0.936506 0.938044 0.755775
O O7 0.011621 0.000140 0.653513
O O8 0.624570 0.250000 0.328099
O O9 0.606811 0.517357 0.362486
O O10 0.762835 0.750000 0.109131
O O11 0.789198 0.497952 0.059788
O O12 0.631866 0.576231 0.098767
O O13 0.026935 0.750000 0.097900
O O14 0.956357 0.493259 0.082454
O O15 0.093397 0.573051 0.023147
O O16 0.627218 0.750000 0.561242
O O17 0.960615 0.873407 0.555433
O O18 0.978645 0.627477 0.452425
#
# Coordination Sequence:
#
# PCOD9464769 Si02
#       8
#     8   8   8   8   8   8   4   8
#     4  10  22  39  62  93 120 163 216 255 312 383
#     4  10  20  39  65  89 123 165 207 262 316 381
#     4  10  20  36  59  89 122 165 206 248 312 378
#     4  12  24  40  63  96 125 161 214 271 315 376
#     4  10  21  40  60  89 125 161 201 259 318 369
#     4  10  22  39  63  89 121 164 208 250 313 383
#     4  10  24  42  66  90 120 166 214 258 318 370
#     4  11  22  44  64  92 125 166 211 265 317 384
#
# _framework density 18.581358000000002
#
# number of rings (size 3 to 8) (size 9 to 14) (size 15 to 20)
#    0.000    1.600    2.667    2.000    1.867    3.200 
#    7.200    0.000    0.000    0.000    0.000    0.000 
#    0.000    0.000    0.000    0.000    0.000    0.000 
#
# Total GULP energy -334082.522810 kJ/mol
# GULP energy per Si atom -5568.042047 kJ/mol
# Density = 1.853907 g / cm^3
# Si number density = 18.581358 Si / 1000 Ang^3
#
#
#
# Elastic Constant Matrix: (Units=GPa)
#
#
# Indices 1 2 3 4 5 6 
#
# 1 21.5459 -0.4433 -3.5387 0.0000 0.0000 0.0000
# 2 -0.4433 117.5841 35.5462 0.0000 0.0000 0.0000
# 3 -3.5387 35.5462 50.5608 0.0000 0.0000 0.0000
# 4 0.0000 0.0000 0.0000 20.9890 0.0000 0.0000
# 5 0.0000 0.0000 0.0000 0.0000 17.3214 0.0000
# 6 0.0000 0.0000 0.0000 0.0000 0.0000 6.5814
#
#
#
# Elastic Compliance Matrix: (Units=1/GPa)
#
#
# Indices 1 2 3 4 5 6 
#
# 1 0.047052 -0.001039 0.004024 0.000000 0.000000 0.000000
# 2 -0.001039 0.010823 -0.007682 0.000000 0.000000 0.000000
# 3 0.004024 -0.007682 0.025460 0.000000 0.000000 0.000000
# 4 0.000000 0.000000 0.000000 0.047644 0.000000 0.000000
# 5 0.000000 0.000000 0.000000 0.000000 0.057732 0.000000
# 6 0.000000 0.000000 0.000000 0.000000 0.000000 0.151944
#
#
# Mechanical properties :
#
#
# Convention : Reuss Voigt Hill
#
# Bulk Modulus (GPa) = 13.52424 28.09100 20.80762
# Shear Modulus (GPa) = 13.34416 19.52014 16.43215
#
# Velocity S-wave (km/s) = 2.68273 3.24469 2.97700
# Velocity P-wave (km/s) = 4.10978 5.40260 4.79991
#
# Compressibility (1/GPa) = 0.07394129
#
# Stress axis : x y z
#
# Youngs Moduli (GPa) = 21.25303 92.39750 39.27697
#
# Poissons Ratio (x) = 0.09600 -0.15804
# Poissons Ratio (y) = 0.02208 0.30171
# Poissons Ratio (z) = -0.08551 0.70976
#
# Static dielectric constant tensor:
#      x y z
#    x 1.638500 0.000000 0.000000 
#    y 0.000000 1.629350 0.000000 
#    z 0.000000 0.000000 1.619520 
# 
# From -- ./inp_files/29676.got.cif
#   From: 2010.05.17/outbox.cif.g08.bks.cpg/sg62_15_cif.got.tgz:29676.got - 2010.06.03 15:25:27.
