data_PCOD9464980
_publ_section_title
;
Structure prediction by ZEFSAII (Michael W. Deem and Ramdas Pophale) SiO2 
 PCOD9464980
Probable space group: P N M A
;
_chemical_formula_sum "Si O2"
_cell_formula_units_Z 56
_cell_length_a 10.258272
_cell_length_b 14.364664
_cell_length_c 19.759099
_cell_angle_alpha 90.000000
_cell_angle_beta 90.000000
_cell_angle_gamma 90.000000
_cell_volume 2911.634250
_symmetry_space_group_name_H-M "P N M A"
_symmetry_group_IT_number 62
_symmetry_cell_setting 'orthorhombic'
loop_
_space_group_symop_operation_xyz
x,y,z
1/2-x,-y,1/2+z
1/2+x,1/2-y,1/2-z
-x,1/2+y,-z
-x,-y,-z
1/2+x,y,1/2-z
1/2-x,1/2+y,1/2+z
x,1/2-y,z
loop_
_atom_site_type_symbol
_atom_site_label
_atom_site_fract_x
_atom_site_fract_y
_atom_site_fract_z
Si Si1 0.294840 0.361892 0.275718
Si Si2 0.155943 0.357918 0.604858
Si Si3 0.680048 0.022048 0.623253
Si Si4 0.592484 0.860596 0.189338
Si Si5 0.936118 0.361188 0.848393
Si Si6 0.984238 0.639338 0.677032
Si Si7 0.611780 0.439831 0.034432
O O1 0.311584 0.250000 0.286242
O O2 0.343893 0.424410 0.338261
O O3 0.381007 0.391165 0.211328
O O4 0.139458 0.380116 0.273741
O O5 0.158161 0.250000 0.625300
O O6 0.293373 0.396520 0.630018
O O7 0.147281 0.367290 0.524247
O O8 0.026733 0.394813 0.642186
O O9 0.778754 0.082931 0.669722
O O10 0.549472 0.080771 0.616095
O O11 0.761396 0.998776 0.555913
O O12 0.615736 0.750000 0.177903
O O13 0.553859 0.872563 0.267340
O O14 0.947650 0.250000 0.862935
O O15 0.992843 0.750000 0.669863
O O16 0.945153 0.601095 0.603937
O O17 0.500000 0.500000 0.000000
#
# Coordination Sequence:
#
# PCOD9464980 Si02
#       7
#     8   8   8   8   8   8   8
#     4   9  20  37  58  87 118 150 192 245 299 343
#     4  10  21  39  61  82 118 161 196 241 293 352
#     4  11  22  35  61  88 119 156 194 248 294 346
#     4  10  20  37  61  90 119 154 197 240 294 355
#     4  10  22  38  59  90 122 153 193 245 301 353
#     4   9  19  38  61  83 111 148 193 242 290 346
#     4  11  22  37  55  86 115 155 203 236 281 356
#
# _framework density 19.233184999999999
#
# number of rings (size 3 to 8) (size 9 to 14) (size 15 to 20)
#    0.000    2.000    1.429    1.714    4.000    4.571 
#    0.000    0.000    0.000    0.000    0.000    0.000 
#    0.000    0.000    0.000    0.000    0.000    0.000 
#
# Total GULP energy -312436.155107 kJ/mol
# GULP energy per Si atom -5579.217055 kJ/mol
# Density = 1.918941 g / cm^3
# Si number density = 19.233185 Si / 1000 Ang^3
#
#
#
# Elastic Constant Matrix: (Units=GPa)
#
#
# Indices 1 2 3 4 5 6 
#
# 1 109.0369 19.6641 49.6961 0.0000 0.0000 0.0000
# 2 19.6641 38.8997 6.9384 0.0000 0.0000 0.0000
# 3 49.6961 6.9384 86.9683 0.0000 0.0000 0.0000
# 4 0.0000 0.0000 0.0000 16.7493 0.0000 0.0000
# 5 0.0000 0.0000 0.0000 0.0000 22.5609 0.0000
# 6 0.0000 0.0000 0.0000 0.0000 0.0000 26.4162
#
#
#
# Elastic Compliance Matrix: (Units=1/GPa)
#
#
# Indices 1 2 3 4 5 6 
#
# 1 0.013475 -0.005517 -0.007260 0.000000 0.000000 0.000000
# 2 -0.005517 0.028337 0.000892 0.000000 0.000000 0.000000
# 3 -0.007260 0.000892 0.015576 0.000000 0.000000 0.000000
# 4 0.000000 0.000000 0.000000 0.059704 0.000000 0.000000
# 5 0.000000 0.000000 0.000000 0.000000 0.044324 0.000000
# 6 0.000000 0.000000 0.000000 0.000000 0.000000 0.037856
#
#
# Mechanical properties :
#
#
# Convention : Reuss Voigt Hill
#
# Bulk Modulus (GPa) = 29.74616 43.05576 36.40096
# Shear Modulus (GPa) = 21.34496 23.71903 22.53200
#
# Velocity S-wave (km/s) = 3.33498 3.51555 3.42646
# Velocity P-wave (km/s) = 5.50718 6.23808 5.88399
#
# Compressibility (1/GPa) = 0.03361779
#
# Stress axis : x y z
#
# Youngs Moduli (GPa) = 74.21174 35.28973 64.20225
#
# Poissons Ratio (x) = 0.19469 0.46610
# Poissons Ratio (y) = 0.40941 -0.05725
# Poissons Ratio (z) = 0.53876 -0.03147
#
# Static dielectric constant tensor:
#      x y z
#    x 1.688030 0.000000 0.000000 
#    y 0.000000 1.709840 0.000000 
#    z 0.000000 0.000000 1.650820 
# 
# From -- ./inp_files/25984.got.cif
#   From: 2010.05.17/outbox.cif.g08.bks.cpg/sg62_13_cif.got.tgz:25984.got - 2010.06.03 15:25:27.
