data_PCOD9464807
_publ_section_title
;
Structure prediction by ZEFSAII (Michael W. Deem and Ramdas Pophale) SiO2 
 PCOD9464807
Probable space group: P N M A
;
_chemical_formula_sum "Si O2"
_cell_formula_units_Z 64
_cell_length_a 15.434687
_cell_length_b 7.670179
_cell_length_c 24.312110
_cell_angle_alpha 90.000000
_cell_angle_beta 90.000000
_cell_angle_gamma 90.000000
_cell_volume 2878.233198
_symmetry_space_group_name_H-M "P N M A"
_symmetry_group_IT_number 62
_symmetry_cell_setting 'orthorhombic'
loop_
_space_group_symop_operation_xyz
x,y,z
1/2-x,-y,1/2+z
1/2+x,1/2-y,1/2-z
-x,1/2+y,-z
-x,-y,-z
1/2+x,y,1/2-z
1/2-x,1/2+y,1/2+z
x,1/2-y,z
loop_
_atom_site_type_symbol
_atom_site_label
_atom_site_fract_x
_atom_site_fract_y
_atom_site_fract_z
Si Si1 0.918596 0.462814 0.251844
Si Si2 0.276628 0.950383 0.759776
Si Si3 0.263759 0.949731 0.032720
Si Si4 0.819954 0.045300 0.860313
Si Si5 0.512884 0.958876 0.632961
Si Si6 0.565536 0.035706 0.164903
Si Si7 0.419586 0.959660 0.960875
Si Si8 0.593244 0.449560 0.524353
O O1 0.915409 0.250000 0.254917
O O2 0.819765 0.527329 0.246848
O O3 0.965580 0.510462 0.195036
O O4 0.978614 0.520195 0.302627
O O5 0.263927 0.750000 0.777783
O O6 0.348981 0.023584 0.801205
O O7 0.314675 0.953850 0.698276
O O8 0.290752 0.750000 0.043258
O O9 0.335317 0.029893 0.992929
O O10 0.172813 0.947092 0.000777
O O11 0.244481 0.026913 0.092983
O O12 0.802630 0.250000 0.851771
O O13 0.917728 0.026177 0.881937
O O14 0.511812 0.750000 0.629656
O O15 0.582799 0.025789 0.589535
O O16 0.565563 0.250000 0.166316
O O17 0.568785 0.977419 0.101664
O O18 0.410622 0.750000 0.955944
O O19 0.500000 0.000000 0.000000
O O20 0.500000 0.500000 0.500000
O O21 0.610008 0.250000 0.510329
#
# Coordination Sequence:
#
# PCOD9464807 Si02
#       8
#     8   8   8   8   8   8   8   8
#     4   9  19  34  59  90 113 147 196 246 296 356
#     4  10  20  36  61  88 115 150 197 248 301 359
#     4  10  23  41  60  85 120 165 208 248 305 367
#     4  11  22  37  57  84 122 159 199 248 302 368
#     4  11  21  37  61  87 120 157 198 246 302 363
#     4   9  18  36  59  88 118 148 198 252 295 352
#     4  10  23  42  65  88 119 162 209 262 310 357
#     4  12  24  38  58  88 124 160 200 244 300 366
#
# _framework density 22.235865
#
# number of rings (size 3 to 8) (size 9 to 14) (size 15 to 20)
#    0.000    1.750    2.500    1.875    3.500    1.000 
#    0.000    1.875    0.000    0.000    0.000    0.000 
#    0.000    0.000    0.000    0.000    0.000    0.000 
#
# Total GULP energy -357508.529398 kJ/mol
# GULP energy per Si atom -5586.070772 kJ/mol
# Density = 2.218526 g / cm^3
# Si number density = 22.235865 Si / 1000 Ang^3
#
#
#
# Elastic Constant Matrix: (Units=GPa)
#
#
# Indices 1 2 3 4 5 6 
#
# 1 141.7352 -10.0255 69.8703 0.0000 0.0000 0.0000
# 2 -10.0255 51.5167 -8.0126 0.0000 0.0000 0.0000
# 3 69.8703 -8.0126 167.6802 0.0000 0.0000 0.0000
# 4 0.0000 0.0000 0.0000 15.0240 0.0000 0.0000
# 5 0.0000 0.0000 0.0000 0.0000 27.2131 0.0000
# 6 0.0000 0.0000 0.0000 0.0000 0.0000 3.7342
#
#
#
# Elastic Compliance Matrix: (Units=1/GPa)
#
#
# Indices 1 2 3 4 5 6 
#
# 1 0.008949 0.001170 -0.003673 0.000000 0.000000 0.000000
# 2 0.001170 0.019710 0.000454 0.000000 0.000000 0.000000
# 3 -0.003673 0.000454 0.007516 0.000000 0.000000 0.000000
# 4 0.000000 0.000000 0.000000 0.066560 0.000000 0.000000
# 5 0.000000 0.000000 0.000000 0.000000 0.036747 0.000000
# 6 0.000000 0.000000 0.000000 0.000000 0.000000 0.267792
#
#
# Mechanical properties :
#
#
# Convention : Reuss Voigt Hill
#
# Bulk Modulus (GPa) = 31.17474 51.62184 41.39829
# Shear Modulus (GPa) = 11.84657 29.80095 20.82376
#
# Velocity S-wave (km/s) = 2.31068 3.66487 3.06354
# Velocity P-wave (km/s) = 4.60103 6.41673 5.58318
#
# Compressibility (1/GPa) = 0.03207725
#
# Stress axis : x y z
#
# Youngs Moduli (GPa) = 111.74672 50.73683 133.05117
#
# Poissons Ratio (x) = -0.05937 0.48869
# Poissons Ratio (y) = -0.13077 -0.06043
# Poissons Ratio (z) = 0.41044 -0.02304
#
# Static dielectric constant tensor:
#      x y z
#    x 1.855440 0.000000 0.000000 
#    y 0.000000 1.827330 0.000000 
#    z 0.000000 0.000000 1.829550 
# 
# From -- ./inp_files/29920.got.cif
#   From: 2010.05.17/outbox.cif.g08.bks.cpg/sg62_15_cif.got.tgz:29920.got - 2010.06.03 15:25:27.
