data_PCOD9464666
_publ_section_title
;
Structure prediction by ZEFSAII (Michael W. Deem and Ramdas Pophale) SiO2 
 PCOD9464666
Probable space group: P N M A
;
_chemical_formula_sum "Si O2"
_cell_formula_units_Z 48
_cell_length_a 31.819471
_cell_length_b 8.452068
_cell_length_c 9.192819
_cell_angle_alpha 90.000000
_cell_angle_beta 90.000000
_cell_angle_gamma 90.000000
_cell_volume 2472.319800
_symmetry_space_group_name_H-M "P N M A"
_symmetry_group_IT_number 62
_symmetry_cell_setting 'orthorhombic'
loop_
_space_group_symop_operation_xyz
x,y,z
1/2-x,-y,1/2+z
1/2+x,1/2-y,1/2-z
-x,1/2+y,-z
-x,-y,-z
1/2+x,y,1/2-z
1/2-x,1/2+y,1/2+z
x,1/2-y,z
loop_
_atom_site_type_symbol
_atom_site_label
_atom_site_fract_x
_atom_site_fract_y
_atom_site_fract_z
Si Si1 0.040744 0.061728 0.414674
Si Si2 0.708432 0.941273 0.082805
Si Si3 0.123207 0.941758 0.579754
Si Si4 0.708975 0.558657 0.418563
Si Si5 0.124681 0.943005 0.916148
Si Si6 0.959203 0.060056 0.914930
O O1 0.039537 0.250000 0.411732
O O2 0.082522 0.004511 0.496858
O O3 0.040613 0.998340 0.250317
O O4 0.000000 0.000000 0.500000
O O5 0.709016 0.750000 0.081636
O O6 0.708432 0.994023 0.250694
O O7 0.665918 0.991989 0.001061
O O8 0.749436 0.001229 0.999674
O O9 0.121696 0.750000 0.576975
O O10 0.123634 0.992972 0.748089
O O11 0.708809 0.750000 0.419111
O O12 0.667094 0.504918 0.502948
O O13 0.124890 0.750000 0.916714
O O14 0.083105 0.993961 0.002389
O O15 0.959415 0.250000 0.915205
O O16 0.000000 0.000000 0.000000
#
# Coordination Sequence:
#
# PCOD9464666 Si02
#       6
#     8   8   8   8   8   8
#     4  12  25  41  61  87 118 154 196 241 294 351
#     4  10  21  36  57  85 116 152 192 238 293 348
#     4  10  20  38  62  86 114 149 191 238 292 351
#     4  10  20  36  57  82 113 151 195 238 285 345
#     4   9  19  36  60  85 111 148 190 236 291 348
#     4  11  22  39  62  89 121 156 197 243 294 351
#
# _framework density 19.414964000000001
#
# number of rings (size 3 to 8) (size 9 to 14) (size 15 to 20)
#    0.000    1.667    0.000    5.000    0.000    6.667 
#    0.000    5.000    0.000    0.000    0.000    0.000 
#    0.000    0.000    0.000    0.000    0.000    0.000 
#
# Total GULP energy -268385.006615 kJ/mol
# GULP energy per Si atom -5591.354304 kJ/mol
# Density = 1.937077 g / cm^3
# Si number density = 19.414964 Si / 1000 Ang^3
#
#
#
# Elastic Constant Matrix: (Units=GPa)
#
#
# Indices 1 2 3 4 5 6 
#
# 1 246.0220 40.1360 153.0522 0.0000 0.0000 0.0000
# 2 40.1360 35.9162 41.1496 0.0000 0.0000 0.0000
# 3 153.0522 41.1496 248.0277 0.0000 0.0000 0.0000
# 4 0.0000 0.0000 0.0000 28.5052 0.0000 0.0000
# 5 0.0000 0.0000 0.0000 0.0000 47.0844 0.0000
# 6 0.0000 0.0000 0.0000 0.0000 0.0000 35.5291
#
#
#
# Elastic Compliance Matrix: (Units=1/GPa)
#
#
# Indices 1 2 3 4 5 6 
#
# 1 0.006939 -0.003517 -0.003699 0.000000 0.000000 0.000000
# 2 -0.003517 0.036160 -0.003829 0.000000 0.000000 0.000000
# 3 -0.003699 -0.003829 0.006949 0.000000 0.000000 0.000000
# 4 0.000000 0.000000 0.000000 0.035081 0.000000 0.000000
# 5 0.000000 0.000000 0.000000 0.000000 0.021238 0.000000
# 6 0.000000 0.000000 0.000000 0.000000 0.000000 0.028146
#
#
# Mechanical properties :
#
#
# Convention : Reuss Voigt Hill
#
# Bulk Modulus (GPa) = 35.76631 110.96017 73.36324
# Shear Modulus (GPa) = 30.13444 41.93227 36.03335
#
# Velocity S-wave (km/s) = 3.94397 4.65240 4.31276
# Velocity P-wave (km/s) = 6.26115 9.28093 7.91636
#
# Compressibility (1/GPa) = 0.02795928
#
# Stress axis : x y z
#
# Youngs Moduli (GPa) = 144.10445 27.65514 143.89786
#
# Poissons Ratio (x) = 0.09727 0.53223
# Poissons Ratio (y) = 0.50684 0.55096
# Poissons Ratio (z) = 0.53299 0.10589
#
# Static dielectric constant tensor:
#      x y z
#    x 1.636650 0.000000 0.000000 
#    y 0.000000 1.675450 0.000000 
#    z 0.000000 0.000000 1.647790 
# 
# From -- ./inp_files/10225.got.cif
#   From: 2010.05.17/outbox.cif.g08.bks.cpg/sg62_6_cif.got.tgz:10225.got - 2010.06.03 15:25:27.
