data_PCOD9464670
_publ_section_title
;
Structure prediction by ZEFSAII (Michael W. Deem and Ramdas Pophale) SiO2 
 PCOD9464670
Probable space group: P N M A
;
_chemical_formula_sum "Si O2"
_cell_formula_units_Z 48
_cell_length_a 14.778939
_cell_length_b 20.483432
_cell_length_c 7.813214
_cell_angle_alpha 90.000000
_cell_angle_beta 90.000000
_cell_angle_gamma 90.000000
_cell_volume 2365.242645
_symmetry_space_group_name_H-M "P N M A"
_symmetry_group_IT_number 62
_symmetry_cell_setting 'orthorhombic'
loop_
_space_group_symop_operation_xyz
x,y,z
1/2-x,-y,1/2+z
1/2+x,1/2-y,1/2-z
-x,1/2+y,-z
-x,-y,-z
1/2+x,y,1/2-z
1/2-x,1/2+y,1/2+z
x,1/2-y,z
loop_
_atom_site_type_symbol
_atom_site_label
_atom_site_fract_x
_atom_site_fract_y
_atom_site_fract_z
Si Si1 0.095531 0.462729 0.479118
Si Si2 0.149805 0.176770 0.397977
Si Si3 0.305636 0.178619 0.688556
Si Si4 0.175185 0.177331 0.001678
Si Si5 0.104777 0.455034 0.856068
Si Si6 0.389005 0.459421 0.660652
O O1 0.086769 0.386433 0.427190
O O2 0.142318 0.462276 0.664666
O O3 0.144588 0.501678 0.327663
O O4 0.000000 0.500000 0.500000
O O5 0.108187 0.250000 0.408734
O O6 0.226109 0.174542 0.545610
O O7 0.189790 0.170565 0.205380
O O8 0.349200 0.250000 0.667697
O O9 0.367218 0.116234 0.666322
O O10 0.262320 0.175522 0.878346
O O11 0.134526 0.250000 0.974926
O O12 0.117347 0.116982 0.933046
O O13 0.997552 0.466983 0.841856
O O14 0.145316 0.506221 0.989068
#
# Coordination Sequence:
#
# PCOD9464670 Si02
#       6
#     8   8   8   8   8   8
#     4  10  20  36  57  83 113 144 184 235 281 337
#     4  10  20  37  59  82 113 150 192 237 284 339
#     4  10  22  39  57  82 113 151 193 236 286 341
#     4  10  20  36  59  82 109 145 191 235 278 338
#     4  10  20  37  57  83 114 149 185 228 283 338
#     4  10  22  37  56  82 119 146 185 238 282 337
#
# _framework density 20.293899
#
# number of rings (size 3 to 8) (size 9 to 14) (size 15 to 20)
#    0.000    2.000    3.333    0.000    0.000    3.333 
#    0.000    2.500    0.000    0.000    0.000    0.000 
#    0.000    0.000    0.000    0.000    0.000    0.000 
#
# Total GULP energy -267564.346270 kJ/mol
# GULP energy per Si atom -5574.257214 kJ/mol
# Density = 2.024771 g / cm^3
# Si number density = 20.293899 Si / 1000 Ang^3
#
#
#
# Elastic Constant Matrix: (Units=GPa)
#
#
# Indices 1 2 3 4 5 6 
#
# 1 18.6543 17.0674 23.8445 0.0000 0.0000 0.0000
# 2 17.0674 168.3470 87.0047 0.0000 0.0000 0.0000
# 3 23.8445 87.0047 153.9575 0.0000 0.0000 0.0000
# 4 0.0000 0.0000 0.0000 13.4694 0.0000 0.0000
# 5 0.0000 0.0000 0.0000 0.0000 8.8943 0.0000
# 6 0.0000 0.0000 0.0000 0.0000 0.0000 35.5554
#
#
#
# Elastic Compliance Matrix: (Units=1/GPa)
#
#
# Indices 1 2 3 4 5 6 
#
# 1 0.067326 -0.002029 -0.009280 0.000000 0.000000 0.000000
# 2 -0.002029 0.008452 -0.004462 0.000000 0.000000 0.000000
# 3 -0.009280 -0.004462 0.010454 0.000000 0.000000 0.000000
# 4 0.000000 0.000000 0.000000 0.074242 0.000000 0.000000
# 5 0.000000 0.000000 0.000000 0.000000 0.112432 0.000000
# 6 0.000000 0.000000 0.000000 0.000000 0.000000 0.028125
#
#
# Mechanical properties :
#
#
# Convention : Reuss Voigt Hill
#
# Bulk Modulus (GPa) = 18.28532 66.31023 42.29778
# Shear Modulus (GPa) = 14.25291 25.78662 20.01976
#
# Velocity S-wave (km/s) = 2.65302 3.56850 3.14425
# Velocity P-wave (km/s) = 4.29121 7.05158 5.83692
#
# Compressibility (1/GPa) = 0.05468869
#
# Stress axis : x y z
#
# Youngs Moduli (GPa) = 14.85302 118.31617 95.65492
#
# Poissons Ratio (x) = 0.24011 0.88772
# Poissons Ratio (y) = 0.03014 0.42682
# Poissons Ratio (z) = 0.13784 0.52793
#
# Static dielectric constant tensor:
#      x y z
#    x 1.713330 0.000000 0.000000 
#    y 0.000000 1.729650 0.000000 
#    z 0.000000 0.000000 1.774700 
# 
# From -- ./inp_files/7780.got.cif
#   From: 2010.05.17/outbox.cif.g08.bks.cpg/sg62_4_cif.got.tgz:7780.got - 2010.06.03 15:25:27.
