data_PCOD9464392
_publ_section_title
;
Structure prediction by ZEFSAII (Michael W. Deem and Ramdas Pophale) SiO2 
 PCOD9464392
Probable space group: P N M A
;
_chemical_formula_sum "Si O2"
_cell_formula_units_Z 64
_cell_length_a 11.713494
_cell_length_b 8.912262
_cell_length_c 33.829024
_cell_angle_alpha 90.000000
_cell_angle_beta 90.000000
_cell_angle_gamma 90.000000
_cell_volume 3531.537912
_symmetry_space_group_name_H-M "P N M A"
_symmetry_group_IT_number 62
_symmetry_cell_setting 'orthorhombic'
loop_
_space_group_symop_operation_xyz
x,y,z
1/2-x,-y,1/2+z
1/2+x,1/2-y,1/2-z
-x,1/2+y,-z
-x,-y,-z
1/2+x,y,1/2-z
1/2-x,1/2+y,1/2+z
x,1/2-y,z
loop_
_atom_site_type_symbol
_atom_site_label
_atom_site_fract_x
_atom_site_fract_y
_atom_site_fract_z
Si Si1 0.189617 0.428297 0.328899
Si Si2 0.956575 0.428829 0.865526
Si Si3 0.915149 0.069581 0.445563
Si Si4 0.046029 0.070593 0.697490
Si Si5 0.099134 0.429426 0.787194
Si Si6 0.167545 0.569901 0.907637
Si Si7 0.708889 0.929995 0.864950
Si Si8 0.334706 0.930830 0.975341
O O1 0.174177 0.250000 0.325889
O O2 0.284611 0.485809 0.298130
O O3 0.242782 0.460932 0.372099
O O4 0.070500 0.508265 0.320953
O O5 0.942965 0.250000 0.868838
O O6 0.836460 0.510073 0.870386
O O7 0.009011 0.462769 0.822033
O O8 0.051058 0.487446 0.896402
O O9 0.909816 0.250000 0.448014
O O10 0.867081 0.025220 0.403024
O O11 0.046886 0.025644 0.453282
O O12 0.842097 0.000654 0.481302
O O13 0.048980 0.250000 0.694190
O O14 0.054338 0.031068 0.743856
O O15 0.151115 0.000629 0.673604
O O16 0.120863 0.250000 0.788252
O O17 0.148654 0.750000 0.907968
O O18 0.227657 0.524327 0.948440
O O19 0.708372 0.750000 0.862119
O O20 0.334057 0.750000 0.978285
#
# Coordination Sequence:
#
# PCOD9464392 Si02
#       8
#     8   8   8   8   8   8   8   8
#     4  10  20  35  56  82 110 138 178 227 271 323
#     4  10  21  38  58  80 108 146 188 230 277 333
#     4   9  19  35  54  81 116 147 177 224 281 329
#     4  11  23  37  56  80 109 146 183 225 278 330
#     4   9  21  39  56  76 107 144 181 224 275 324
#     4   9  18  35  57  81 110 145 182 228 279 326
#     4  11  23  39  57  80 112 148 185 228 279 333
#     4   9  17  32  57  84 111 143 181 225 276 330
#
# _framework density 18.122415
#
# number of rings (size 3 to 8) (size 9 to 14) (size 15 to 20)
#    0.000    2.250    0.000    2.250    1.750    5.500 
#    0.000    3.125    0.000    0.000    0.000    0.000 
#    0.000    0.000    0.000    0.000    0.000    0.000 
#
# Total GULP energy -357326.762282 kJ/mol
# GULP energy per Si atom -5583.230661 kJ/mol
# Density = 1.808117 g / cm^3
# Si number density = 18.122415 Si / 1000 Ang^3
#
#
#
# Elastic Constant Matrix: (Units=GPa)
#
#
# Indices 1 2 3 4 5 6 
#
# 1 41.3667 12.2428 0.3474 0.0000 0.0000 0.0000
# 2 12.2428 21.0481 11.9262 0.0000 0.0000 0.0000
# 3 0.3474 11.9262 49.8120 0.0000 0.0000 0.0000
# 4 0.0000 0.0000 0.0000 27.2659 0.0000 0.0000
# 5 0.0000 0.0000 0.0000 0.0000 12.0604 0.0000
# 6 0.0000 0.0000 0.0000 0.0000 0.0000 34.6295
#
#
#
# Elastic Compliance Matrix: (Units=1/GPa)
#
#
# Indices 1 2 3 4 5 6 
#
# 1 0.030087 -0.020110 0.004605 0.000000 0.000000 0.000000
# 2 -0.020110 0.068408 -0.016238 0.000000 0.000000 0.000000
# 3 0.004605 -0.016238 0.023931 0.000000 0.000000 0.000000
# 4 0.000000 0.000000 0.000000 0.036676 0.000000 0.000000
# 5 0.000000 0.000000 0.000000 0.000000 0.082916 0.000000
# 6 0.000000 0.000000 0.000000 0.000000 0.000000 0.028877
#
#
# Mechanical properties :
#
#
# Convention : Reuss Voigt Hill
#
# Bulk Modulus (GPa) = 16.96632 17.91773 17.44202
# Shear Modulus (GPa) = 14.12318 20.63851 17.38085
#
# Velocity S-wave (km/s) = 2.79466 3.37833 3.10026
# Velocity P-wave (km/s) = 4.44926 5.01258 4.73930
#
# Compressibility (1/GPa) = 0.05894031
#
# Stress axis : x y z
#
# Youngs Moduli (GPa) = 33.23696 14.61816 41.78646
#
# Poissons Ratio (x) = 0.29396 -0.19242
# Poissons Ratio (y) = 0.66838 0.67854
# Poissons Ratio (z) = -0.15305 0.23737
#
# Static dielectric constant tensor:
#      x y z
#    x 1.598000 0.000000 0.000000 
#    y 0.000000 1.603730 0.000000 
#    z 0.000000 0.000000 1.615320 
# 
# From -- ./inp_files/32452.got.cif
#   From: 2010.05.17/outbox.cif.g08.bks.cpg/sg62_17_cif.got.tgz:32452.got - 2010.06.03 15:25:27.
