data_PCOD9464071
_publ_section_title
;
Structure prediction by ZEFSAII (Michael W. Deem and Ramdas Pophale) SiO2 
 PCOD9464071
Probable space group: P N M A
;
_chemical_formula_sum "Si O2"
_cell_formula_units_Z 64
_cell_length_a 13.948808
_cell_length_b 8.989962
_cell_length_c 23.106916
_cell_angle_alpha 90.000000
_cell_angle_beta 90.000000
_cell_angle_gamma 90.000000
_cell_volume 2897.590026
_symmetry_space_group_name_H-M "P N M A"
_symmetry_group_IT_number 62
_symmetry_cell_setting 'orthorhombic'
loop_
_space_group_symop_operation_xyz
x,y,z
1/2-x,-y,1/2+z
1/2+x,1/2-y,1/2-z
-x,1/2+y,-z
-x,-y,-z
1/2+x,y,1/2-z
1/2-x,1/2+y,1/2+z
x,1/2-y,z
loop_
_atom_site_type_symbol
_atom_site_label
_atom_site_fract_x
_atom_site_fract_y
_atom_site_fract_z
Si Si1 0.678829 0.076465 0.270893
Si Si2 0.381541 0.078253 0.101235
Si Si3 0.482559 0.072704 0.665626
Si Si4 0.805881 0.422750 0.652981
Si Si5 0.742716 0.915605 0.474741
Si Si6 0.870233 0.070070 0.085378
Si Si7 0.417188 0.913841 0.935580
Si Si8 0.091572 0.924946 0.726859
O O1 0.653118 0.250000 0.272563
O O2 0.793338 0.065128 0.271148
O O3 0.622769 0.990028 0.320872
O O4 0.653369 0.000104 0.210038
O O5 0.358725 0.250000 0.112348
O O6 0.469275 0.073633 0.055478
O O7 0.426329 0.020566 0.161353
O O8 0.284351 0.005540 0.078865
O O9 0.484501 0.250000 0.661525
O O10 0.531984 0.998901 0.609517
O O11 0.543451 0.016929 0.721776
O O12 0.784452 0.250000 0.662925
O O13 0.711983 0.508147 0.628736
O O14 0.882412 0.449257 0.602644
O O15 0.713296 0.750000 0.456822
O O16 0.663310 0.973905 0.520277
O O17 0.839435 0.904799 0.513872
O O18 0.871019 0.250000 0.087956
O O19 0.406493 0.750000 0.904918
O O20 0.064919 0.750000 0.733594
#
# Coordination Sequence:
#
# PCOD9464071 Si02
#       8
#     8   8   8   8   8   8   8   8
#     4  11  22  37  57  78 112 157 193 227 282 353
#     4  10  20  34  53  78 108 145 190 234 279 335
#     4  12  24  37  59  89 116 143 187 245 292 331
#     4  11  20  31  51  81 111 141 185 235 279 322
#     4   9  19  33  52  78 108 148 189 227 279 340
#     4  10  20  37  57  78 109 148 186 222 275 345
#     4   9  18  32  50  75 111 152 188 224 278 346
#     4  10  22  39  59  83 115 157 195 227 281 352
#
# _framework density 22.087319999999998
#
# number of rings (size 3 to 8) (size 9 to 14) (size 15 to 20)
#    0.000    1.750    1.250    4.875    0.000    5.000 
#    0.000    0.000    0.000    0.750    0.000    0.000 
#    0.000    0.000    0.000    0.000    0.000    0.000 
#
# Total GULP energy -357183.393399 kJ/mol
# GULP energy per Si atom -5580.990522 kJ/mol
# Density = 2.203705 g / cm^3
# Si number density = 22.087320 Si / 1000 Ang^3
#
#
#
# Elastic Constant Matrix: (Units=GPa)
#
#
# Indices 1 2 3 4 5 6 
#
# 1 57.4273 8.4374 4.3224 0.0000 0.0000 0.0000
# 2 8.4374 88.1349 10.2476 0.0000 0.0000 0.0000
# 3 4.3224 10.2476 34.3668 0.0000 0.0000 0.0000
# 4 0.0000 0.0000 0.0000 21.8075 0.0000 0.0000
# 5 0.0000 0.0000 0.0000 0.0000 33.3296 0.0000
# 6 0.0000 0.0000 0.0000 0.0000 0.0000 17.1026
#
#
#
# Elastic Compliance Matrix: (Units=1/GPa)
#
#
# Indices 1 2 3 4 5 6 
#
# 1 0.017767 -0.001493 -0.001790 0.000000 0.000000 0.000000
# 2 -0.001493 0.011879 -0.003354 0.000000 0.000000 0.000000
# 3 -0.001790 -0.003354 0.030323 0.000000 0.000000 0.000000
# 4 0.000000 0.000000 0.000000 0.045856 0.000000 0.000000
# 5 0.000000 0.000000 0.000000 0.000000 0.030003 0.000000
# 6 0.000000 0.000000 0.000000 0.000000 0.000000 0.058471
#
#
# Mechanical properties :
#
#
# Convention : Reuss Voigt Hill
#
# Bulk Modulus (GPa) = 21.41505 25.10487 23.25996
# Shear Modulus (GPa) = 22.40761 24.90939 23.65850
#
# Velocity S-wave (km/s) = 3.18858 3.36187 3.27637
# Velocity P-wave (km/s) = 4.82418 5.14397 4.98664
#
# Compressibility (1/GPa) = 0.04669613
#
# Stress axis : x y z
#
# Youngs Moduli (GPa) = 56.28305 84.18096 32.97809
#
# Poissons Ratio (x) = 0.12567 0.05902
# Poissons Ratio (y) = 0.08402 0.11062
# Poissons Ratio (z) = 0.10072 0.28238
#
# Static dielectric constant tensor:
#      x y z
#    x 1.853220 0.000000 0.000000 
#    y 0.000000 1.786050 0.000000 
#    z 0.000000 0.000000 1.893580 
# 
# From -- ./inp_files/29818.got.cif
#   From: 2010.05.17/outbox.cif.g08.bks.cpg/sg62_15_cif.got.tgz:29818.got - 2010.06.03 15:25:27.
