data_PCOD9464698
_publ_section_title
;
Structure prediction by ZEFSAII (Michael W. Deem and Ramdas Pophale) SiO2 
 PCOD9464698
Probable space group: P N M A
;
_chemical_formula_sum "Si O2"
_cell_formula_units_Z 40
_cell_length_a 14.740265
_cell_length_b 7.461265
_cell_length_c 13.942714
_cell_angle_alpha 90.000000
_cell_angle_beta 90.000000
_cell_angle_gamma 90.000000
_cell_volume 1533.433954
_symmetry_space_group_name_H-M "P N M A"
_symmetry_group_IT_number 62
_symmetry_cell_setting 'orthorhombic'
loop_
_space_group_symop_operation_xyz
x,y,z
1/2-x,-y,1/2+z
1/2+x,1/2-y,1/2-z
-x,1/2+y,-z
-x,-y,-z
1/2+x,y,1/2-z
1/2-x,1/2+y,1/2+z
x,1/2-y,z
loop_
_atom_site_type_symbol
_atom_site_label
_atom_site_fract_x
_atom_site_fract_y
_atom_site_fract_z
Si Si1 0.732532 0.969395 0.216400
Si Si2 0.278090 0.462733 0.991865
Si Si3 0.111593 0.965015 0.106223
Si Si4 0.446960 0.037163 0.098428
Si Si5 0.563633 0.045043 0.694870
O O1 0.732658 0.750000 0.220694
O O2 0.673694 0.032764 0.305503
O O3 0.836881 0.033832 0.212248
O O4 0.694140 0.026505 0.113178
O O5 0.290879 0.250000 0.992109
O O6 0.172767 0.496093 0.014025
O O7 0.345391 0.533992 0.073346
O O8 0.105302 0.750000 0.113587
O O9 0.010041 0.035736 0.122231
O O10 0.446686 0.250000 0.113959
O O11 0.480178 0.954404 0.198093
O O12 0.500000 0.000000 0.000000
O O13 0.579570 0.250000 0.664598
#
# Coordination Sequence:
#
# PCOD9464698 Si02
#       5
#     8   8   8   8   8
#     4   9  18  35  56  78 112 151 185 230 287 339
#     4  10  21  37  57  82 114 152 190 235 287 341
#     4  10  20  36  58  83 111 149 192 235 286 345
#     4  11  22  36  57  85 116 149 193 242 289 338
#     4  10  20  36  59  82 110 151 195 232 283 349
#
# _framework density 26.085242999999998
#
# number of rings (size 3 to 8) (size 9 to 14) (size 15 to 20)
#    0.000    2.000    2.000    1.800    0.000    5.600 
#    0.000    2.000    0.000    0.000    0.000    0.000 
#    0.000    0.000    0.000    0.000    0.000    0.000 
#
# Total GULP energy -223709.216260 kJ/mol
# GULP energy per Si atom -5592.730407 kJ/mol
# Density = 2.602587 g / cm^3
# Si number density = 26.085243 Si / 1000 Ang^3
#
#
#
# Elastic Constant Matrix: (Units=GPa)
#
#
# Indices 1 2 3 4 5 6 
#
# 1 84.5356 -3.2294 -8.8371 0.0000 0.0000 0.0000
# 2 -3.2294 97.0071 -8.7754 0.0000 0.0000 0.0000
# 3 -8.8371 -8.7754 65.9748 0.0000 0.0000 0.0000
# 4 0.0000 0.0000 0.0000 18.2550 0.0000 0.0000
# 5 0.0000 0.0000 0.0000 0.0000 46.0599 0.0000
# 6 0.0000 0.0000 0.0000 0.0000 0.0000 5.2560
#
#
#
# Elastic Compliance Matrix: (Units=1/GPa)
#
#
# Indices 1 2 3 4 5 6 
#
# 1 0.012027 0.000553 0.001684 0.000000 0.000000 0.000000
# 2 0.000553 0.010459 0.001465 0.000000 0.000000 0.000000
# 3 0.001684 0.001465 0.015578 0.000000 0.000000 0.000000
# 4 0.000000 0.000000 0.000000 0.054780 0.000000 0.000000
# 5 0.000000 0.000000 0.000000 0.000000 0.021711 0.000000
# 6 0.000000 0.000000 0.000000 0.000000 0.000000 0.190259
#
#
# Mechanical properties :
#
#
# Convention : Reuss Voigt Hill
#
# Bulk Modulus (GPa) = 21.99314 22.87042 22.43178
# Shear Modulus (GPa) = 15.99671 31.80482 23.90076
#
# Velocity S-wave (km/s) = 2.47907 3.49559 3.03026
# Velocity P-wave (km/s) = 4.07970 5.00787 4.56742
#
# Compressibility (1/GPa) = 0.04546872
#
# Stress axis : x y z
#
# Youngs Moduli (GPa) = 83.14947 95.60713 64.19382
#
# Poissons Ratio (x) = -0.05285 -0.10813
# Poissons Ratio (y) = -0.04596 -0.09406
# Poissons Ratio (z) = -0.14006 -0.14009
#
# Static dielectric constant tensor:
#      x y z
#    x 2.131370 0.000000 0.000000 
#    y 0.000000 1.956960 0.000000 
#    z 0.000000 0.000000 2.037230 
# 
# From -- ./inp_files/18592.got.cif
#   From: 2010.05.17/outbox.cif.g08.bks.cpg/sg62_10_cif.got.tgz:18592.got - 2010.06.03 15:25:27.
