data_PCOD9464675
_publ_section_title
;
Structure prediction by ZEFSAII (Michael W. Deem and Ramdas Pophale) SiO2 
 PCOD9464675
Probable space group: P N M A
;
_chemical_formula_sum "Si O2"
_cell_formula_units_Z 56
_cell_length_a 21.332041
_cell_length_b 9.045045
_cell_length_c 14.867813
_cell_angle_alpha 90.000000
_cell_angle_beta 90.000000
_cell_angle_gamma 90.000000
_cell_volume 2868.733677
_symmetry_space_group_name_H-M "P N M A"
_symmetry_group_IT_number 62
_symmetry_cell_setting 'orthorhombic'
loop_
_space_group_symop_operation_xyz
x,y,z
1/2-x,-y,1/2+z
1/2+x,1/2-y,1/2-z
-x,1/2+y,-z
-x,-y,-z
1/2+x,y,1/2-z
1/2-x,1/2+y,1/2+z
x,1/2-y,z
loop_
_atom_site_type_symbol
_atom_site_label
_atom_site_fract_x
_atom_site_fract_y
_atom_site_fract_z
Si Si1 0.153971 0.571701 0.839114
Si Si2 0.349948 0.086489 0.939526
Si Si3 0.761200 0.926691 0.806041
Si Si4 0.458324 0.079550 0.074779
Si Si5 0.739221 0.922254 0.497459
Si Si6 0.108300 0.578156 0.244308
Si Si7 0.469266 0.927870 0.266683
O O1 0.147390 0.750000 0.831377
O O2 0.205787 0.525627 0.763253
O O3 0.181229 0.538408 0.938135
O O4 0.087512 0.494694 0.823662
O O5 0.319537 0.250000 0.932077
O O6 0.394754 0.073444 0.853224
O O7 0.299525 0.958077 0.941393
O O8 0.389738 0.082353 0.030213
O O9 0.761730 0.750000 0.804743
O O10 0.829669 0.988370 0.779597
O O11 0.751930 0.985338 0.907093
O O12 0.478317 0.250000 0.088608
O O13 0.458777 0.991458 0.166890
O O14 0.500000 0.000000 0.000000
O O15 0.735678 0.750000 0.474990
O O16 0.118073 0.750000 0.218422
O O17 0.040798 0.529129 0.206931
O O18 0.466953 0.750000 0.265880
#
# Coordination Sequence:
#
# PCOD9464675 Si02
#       7
#     8   8   8   8   8   8   8
#     4  10  23  42  61  88 125 160 199 251 304 362
#     4  10  20  36  57  83 119 156 194 246 300 353
#     4  11  23  41  64  92 122 158 207 253 303 360
#     4  11  21  34  53  82 120 158 195 240 297 359
#     4  11  23  40  62  90 121 156 203 252 304 362
#     4  10  21  39  60  86 121 157 198 247 299 354
#     4  11  23  39  59  88 122 160 204 249 304 365
#
# _framework density 19.520807000000001
#
# number of rings (size 3 to 8) (size 9 to 14) (size 15 to 20)
#    0.000    1.429    2.857    2.571    0.000    8.000 
#    0.000    0.714    0.000    0.000    0.000    0.000 
#    0.000    0.000    0.000    0.000    0.000    0.000 
#
# Total GULP energy -312599.961172 kJ/mol
# GULP energy per Si atom -5582.142164 kJ/mol
# Density = 1.947638 g / cm^3
# Si number density = 19.520807 Si / 1000 Ang^3
#
#
#
# Elastic Constant Matrix: (Units=GPa)
#
#
# Indices 1 2 3 4 5 6 
#
# 1 99.5163 28.7483 9.4526 0.0000 0.0000 0.0000
# 2 28.7483 36.7072 12.2938 0.0000 0.0000 0.0000
# 3 9.4526 12.2938 33.5632 0.0000 0.0000 0.0000
# 4 0.0000 0.0000 0.0000 29.3613 0.0000 0.0000
# 5 0.0000 0.0000 0.0000 0.0000 28.2244 0.0000
# 6 0.0000 0.0000 0.0000 0.0000 0.0000 34.9321
#
#
#
# Elastic Compliance Matrix: (Units=1/GPa)
#
#
# Indices 1 2 3 4 5 6 
#
# 1 0.012987 -0.010197 0.000077 0.000000 0.000000 0.000000
# 2 -0.010197 0.039058 -0.011435 0.000000 0.000000 0.000000
# 3 0.000077 -0.011435 0.033961 0.000000 0.000000 0.000000
# 4 0.000000 0.000000 0.000000 0.034058 0.000000 0.000000
# 5 0.000000 0.000000 0.000000 0.000000 0.035430 0.000000
# 6 0.000000 0.000000 0.000000 0.000000 0.000000 0.028627
#
#
# Mechanical properties :
#
#
# Convention : Reuss Voigt Hill
#
# Bulk Modulus (GPa) = 23.31122 30.08622 26.69872
# Shear Modulus (GPa) = 20.70132 26.45636 23.57884
#
# Velocity S-wave (km/s) = 3.26003 3.68542 3.47923
# Velocity P-wave (km/s) = 5.11253 5.79272 5.46322
#
# Compressibility (1/GPa) = 0.04289780
#
# Stress axis : x y z
#
# Youngs Moduli (GPa) = 77.00018 25.60263 29.44540
#
# Poissons Ratio (x) = 0.26107 -0.00228
# Poissons Ratio (y) = 0.78518 0.33670
# Poissons Ratio (z) = -0.00597 0.29276
#
# Static dielectric constant tensor:
#      x y z
#    x 1.718510 0.000000 0.000000 
#    y 0.000000 1.664920 0.000000 
#    z 0.000000 0.000000 1.703920 
# 
# From -- ./inp_files/20258.got.cif
#   From: 2010.05.17/outbox.cif.g08.bks.cpg/sg62_11_cif.got.tgz:20258.got - 2010.06.03 15:25:27.
