data_PCOD9464181
_publ_section_title
;
Structure prediction by ZEFSAII (Michael W. Deem and Ramdas Pophale) SiO2 
 PCOD9464181
Probable space group: P N M A
;
_chemical_formula_sum "Si O2"
_cell_formula_units_Z 40
_cell_length_a 25.497849
_cell_length_b 8.735840
_cell_length_c 7.486364
_cell_angle_alpha 90.000000
_cell_angle_beta 90.000000
_cell_angle_gamma 90.000000
_cell_volume 1667.551116
_symmetry_space_group_name_H-M "P N M A"
_symmetry_group_IT_number 62
_symmetry_cell_setting 'orthorhombic'
loop_
_space_group_symop_operation_xyz
x,y,z
1/2-x,-y,1/2+z
1/2+x,1/2-y,1/2-z
-x,1/2+y,-z
-x,-y,-z
1/2+x,y,1/2-z
1/2-x,1/2+y,1/2+z
x,1/2-y,z
loop_
_atom_site_type_symbol
_atom_site_label
_atom_site_fract_x
_atom_site_fract_y
_atom_site_fract_z
Si Si1 0.221697 0.573239 0.180047
Si Si2 0.540628 0.070855 0.859775
Si Si3 0.616148 0.569902 0.121578
Si Si4 0.429207 0.427354 0.491897
Si Si5 0.171758 0.078623 0.865681
O O1 0.214469 0.750000 0.113323
O O2 0.177843 0.558198 0.335410
O O3 0.282613 0.557379 0.223680
O O4 0.205503 0.441357 0.045471
O O5 0.533472 0.250000 0.855933
O O6 0.535019 0.011033 0.656291
O O7 0.500000 0.000000 0.000000
O O8 0.595733 0.027459 0.955416
O O9 0.604369 0.750000 0.089952
O O10 0.584688 0.523060 0.304583
O O11 0.443316 0.250000 0.497737
O O12 0.372802 0.453559 0.395118
O O13 0.148551 0.250000 0.854034
#
# Coordination Sequence:
#
# PCOD9464181 Si02
#       5
#     8   8   8   8   8
#     4   9  20  36  54  83 120 160 202 244 299 358
#     4  12  26  43  66  95 123 159 206 258 312 374
#     4   9  20  41  64  88 123 164 205 254 309 365
#     4  10  22  42  65  89 124 165 203 254 311 365
#     4  10  20  34  55  87 120 158 205 248 297 359
#
# _framework density 23.987269999999999
#
# number of rings (size 3 to 8) (size 9 to 14) (size 15 to 20)
#    0.000    2.000    0.000    4.200    2.800    6.400 
#    0.000    0.000    0.000    0.000    0.000    0.000 
#    0.000    0.000    0.000    0.000    0.000    0.000 
#
# Total GULP energy -223342.679248 kJ/mol
# GULP energy per Si atom -5583.566981 kJ/mol
# Density = 2.393267 g / cm^3
# Si number density = 23.987270 Si / 1000 Ang^3
#
#
#
# Elastic Constant Matrix: (Units=GPa)
#
#
# Indices 1 2 3 4 5 6 
#
# 1 41.3852 -10.0649 -4.3777 0.0000 0.0000 0.0000
# 2 -10.0649 58.1773 50.7156 0.0000 0.0000 0.0000
# 3 -4.3777 50.7156 136.8641 0.0000 0.0000 0.0000
# 4 0.0000 0.0000 0.0000 37.2130 0.0000 0.0000
# 5 0.0000 0.0000 0.0000 0.0000 37.8499 0.0000
# 6 0.0000 0.0000 0.0000 0.0000 0.0000 27.9638
#
#
#
# Elastic Compliance Matrix: (Units=1/GPa)
#
#
# Indices 1 2 3 4 5 6 
#
# 1 0.025358 0.005436 -0.001203 0.000000 0.000000 0.000000
# 2 0.005436 0.026556 -0.009667 0.000000 0.000000 0.000000
# 3 -0.001203 -0.009667 0.010850 0.000000 0.000000 0.000000
# 4 0.000000 0.000000 0.000000 0.026872 0.000000 0.000000
# 5 0.000000 0.000000 0.000000 0.000000 0.026420 0.000000
# 6 0.000000 0.000000 0.000000 0.000000 0.000000 0.035760
#
#
# Mechanical properties :
#
#
# Convention : Reuss Voigt Hill
#
# Bulk Modulus (GPa) = 19.26919 34.33028 26.79974
# Shear Modulus (GPa) = 27.78032 33.94893 30.86462
#
# Velocity S-wave (km/s) = 3.40682 3.76611 3.59096
# Velocity P-wave (km/s) = 4.85034 5.76667 5.32824
#
# Compressibility (1/GPa) = 0.05189632
#
# Stress axis : x y z
#
# Youngs Moduli (GPa) = 39.43532 37.65623 92.16562
#
# Poissons Ratio (x) = -0.20470 0.11089
# Poissons Ratio (y) = -0.21437 0.89093
# Poissons Ratio (z) = 0.04745 0.36401
#
# Static dielectric constant tensor:
#      x y z
#    x 2.116530 0.000000 0.000000 
#    y 0.000000 1.853280 0.000000 
#    z 0.000000 0.000000 1.977920 
# 
# From -- ./inp_files/9727.got.cif
#   From: 2010.05.17/outbox.cif.g08.bks.cpg/sg62_5_cif.got.tgz:9727.got - 2010.06.03 15:25:27.
