data_PCOD9464833
_publ_section_title
;
Structure prediction by ZEFSAII (Michael W. Deem and Ramdas Pophale) SiO2 
 PCOD9464833
Probable space group: P N M A
;
_chemical_formula_sum "Si O2"
_cell_formula_units_Z 28
_cell_length_a 5.599965
_cell_length_b 19.126003
_cell_length_c 10.576598
_cell_angle_alpha 90.000000
_cell_angle_beta 90.000000
_cell_angle_gamma 90.000000
_cell_volume 1132.805972
_symmetry_space_group_name_H-M "P N M A"
_symmetry_group_IT_number 62
_symmetry_cell_setting 'orthorhombic'
loop_
_space_group_symop_operation_xyz
x,y,z
1/2-x,-y,1/2+z
1/2+x,1/2-y,1/2-z
-x,1/2+y,-z
-x,-y,-z
1/2+x,y,1/2-z
1/2-x,1/2+y,1/2+z
x,1/2-y,z
loop_
_atom_site_type_symbol
_atom_site_label
_atom_site_fract_x
_atom_site_fract_y
_atom_site_fract_z
Si Si1 0.316377 0.141523 0.291164
Si Si2 0.366956 0.750000 0.320068
Si Si3 0.302133 0.016144 0.105851
Si Si4 0.558478 0.887405 0.448192
O O1 0.580225 0.173435 0.271763
O O2 0.361970 0.065146 0.224840
O O3 0.265501 0.138526 0.440383
O O4 0.088666 0.750000 0.280816
O O5 0.424010 0.821626 0.392689
O O6 0.194622 0.940671 0.144731
O O7 0.119095 0.063365 0.026218
O O8 0.500000 0.000000 0.000000
#
# Coordination Sequence:
#
# PCOD9464833 Si02
#       4
#     8   4   8   8
#     4  10  20  36  63 101 135 170 220 284 351 410
#     4  12  32  52  72 100 146 202 252 296 370 442
#     4  10  20  39  72 107 142 179 237 301 361 423
#     4  10  24  44  67 103 145 186 244 297 361 433
#
# _framework density 24.717383000000002
#
# number of rings (size 3 to 8) (size 9 to 14) (size 15 to 20)
#    0.000    1.714    2.857    0.000    4.000    6.857 
#    0.000    5.714    0.000    0.000    0.000    0.000 
#    0.000    0.000    0.000    0.000    0.000    0.000 
#
# Total GULP energy -156269.176396 kJ/mol
# GULP energy per Si atom -5581.042014 kJ/mol
# Density = 2.466113 g / cm^3
# Si number density = 24.717383 Si / 1000 Ang^3
#
#
#
# Elastic Constant Matrix: (Units=GPa)
#
#
# Indices 1 2 3 4 5 6 
#
# 1 85.7514 3.1354 -2.1313 0.0000 0.0000 0.0000
# 2 3.1354 112.4460 19.1696 0.0000 0.0000 0.0000
# 3 -2.1313 19.1696 48.0171 0.0000 0.0000 0.0000
# 4 0.0000 0.0000 0.0000 28.4036 0.0000 0.0000
# 5 0.0000 0.0000 0.0000 0.0000 42.5374 0.0000
# 6 0.0000 0.0000 0.0000 0.0000 0.0000 -11.4598
#
#
#
# Elastic Compliance Matrix: (Units=1/GPa)
#
#
# Indices 1 2 3 4 5 6 
#
# 1 0.011695 -0.000445 0.000697 0.000000 0.000000 0.000000
# 2 -0.000445 0.009560 -0.003836 0.000000 0.000000 0.000000
# 3 0.000697 -0.003836 0.022388 0.000000 0.000000 0.000000
# 4 0.000000 0.000000 0.000000 0.035207 0.000000 0.000000
# 5 0.000000 0.000000 0.000000 0.000000 0.023509 0.000000
# 6 0.000000 0.000000 0.000000 0.000000 0.000000 -0.087262
#
#
# Mechanical properties :
#
#
# Convention : Reuss Voigt Hill
#
# Bulk Modulus (GPa) = 27.41648 31.84022 29.62835
# Shear Modulus (GPa) = 145.24934 26.96563 86.10749
#
# Velocity S-wave (km/s) = 7.67409 3.30655 5.90868
# Velocity P-wave (km/s) = 9.46775 5.24284 7.65263
#
# Compressibility (1/GPa) = 0.03647441
#
# Stress axis : x y z
#
# Youngs Moduli (GPa) = 85.50516 104.60746 44.66617
#
# Poissons Ratio (x) = 0.04654 -0.03112
# Poissons Ratio (y) = 0.03804 0.17135
# Poissons Ratio (z) = -0.05957 0.40129
#
# Static dielectric constant tensor:
#      x y z
#    x 2.055460 0.000000 0.000000 
#    y 0.000000 1.971670 0.000000 
#    z 0.000000 0.000000 2.028820 
# 
# From -- ./inp_files/10622.got.cif
#   From: 2010.05.17/outbox.cif.g08.bks.cpg/sg62_6_cif.got.tgz:10622.got - 2010.06.03 15:25:27.
