data_PCOD9464091
_publ_section_title
;
Structure prediction by ZEFSAII (Michael W. Deem and Ramdas Pophale) SiO2 
 PCOD9464091
Probable space group: P N M A
;
_chemical_formula_sum "Si O2"
_cell_formula_units_Z 40
_cell_length_a 7.126067
_cell_length_b 13.506629
_cell_length_c 17.199554
_cell_angle_alpha 90.000000
_cell_angle_beta 90.000000
_cell_angle_gamma 90.000000
_cell_volume 1655.442336
_symmetry_space_group_name_H-M "P N M A"
_symmetry_group_IT_number 62
_symmetry_cell_setting 'orthorhombic'
loop_
_space_group_symop_operation_xyz
x,y,z
1/2-x,-y,1/2+z
1/2+x,1/2-y,1/2-z
-x,1/2+y,-z
-x,-y,-z
1/2+x,y,1/2-z
1/2-x,1/2+y,1/2+z
x,1/2-y,z
loop_
_atom_site_type_symbol
_atom_site_label
_atom_site_fract_x
_atom_site_fract_y
_atom_site_fract_z
Si Si1 0.620787 0.250000 0.683110
Si Si2 0.071366 0.645218 0.811789
Si Si3 0.859034 0.354610 0.364445
Si Si4 0.661731 0.455456 0.607761
Si Si5 0.275910 0.954586 0.055935
Si Si6 0.684945 0.250000 0.867717
O O1 0.712619 0.350434 0.647327
O O2 0.609109 0.250000 0.777860
O O3 0.408428 0.250000 0.650859
O O4 0.162195 0.750000 0.836675
O O5 0.050016 0.648009 0.719895
O O6 0.176492 0.545359 0.832003
O O7 0.866536 0.645039 0.850371
O O8 0.902902 0.250000 0.405868
O O9 0.891730 0.459840 0.401450
O O10 0.754697 0.499111 0.529912
O O11 0.439977 0.447845 0.585818
O O12 0.356886 0.847721 0.080380
#
# Coordination Sequence:
#
# PCOD9464091 Si02
#       6
#     4   8   8   8   8   4
#     4  10  20  34  54  76 101 134 168 206 249 298
#     4   9  17  29  47  69  93 122 154 192 235 282
#     4   9  17  29  47  69  93 122 154 192 235 282
#     4   9  18  30  48  74  99 124 161 205 244 282
#     4   9  18  30  48  74  99 124 161 205 244 282
#     4  10  20  34  54  76 101 134 168 206 249 298
#
# _framework density 24.162727
#
# number of rings (size 3 to 8) (size 9 to 14) (size 15 to 20)
#    0.000    2.800    0.000    1.200    2.800    0.000 
#    0.000    0.000    0.000    4.800    0.000    0.000 
#    0.000    0.000    0.000    0.000    0.000    0.000 
#
# Total GULP energy -223147.042761 kJ/mol
# GULP energy per Si atom -5578.676069 kJ/mol
# Density = 2.410773 g / cm^3
# Si number density = 24.162727 Si / 1000 Ang^3
#
#
#
# Elastic Constant Matrix: (Units=GPa)
#
#
# Indices 1 2 3 4 5 6 
#
# 1 30.4633 41.1974 21.0725 0.0000 0.0000 0.0000
# 2 41.1974 302.3872 92.9229 0.0000 0.0000 0.0000
# 3 21.0725 92.9229 74.6886 0.0000 0.0000 0.0000
# 4 0.0000 0.0000 0.0000 35.6289 0.0000 0.0000
# 5 0.0000 0.0000 0.0000 0.0000 69.5546 0.0000
# 6 0.0000 0.0000 0.0000 0.0000 0.0000 -40.2713
#
#
#
# Elastic Compliance Matrix: (Units=1/GPa)
#
#
# Indices 1 2 3 4 5 6 
#
# 1 0.042888 -0.003440 -0.007821 0.000000 0.000000 0.000000
# 2 -0.003440 0.005630 -0.006034 0.000000 0.000000 0.000000
# 3 -0.007821 -0.006034 0.023102 0.000000 0.000000 0.000000
# 4 0.000000 0.000000 0.000000 0.028067 0.000000 0.000000
# 5 0.000000 0.000000 0.000000 0.000000 0.014377 0.000000
# 6 0.000000 0.000000 0.000000 0.000000 0.000000 -0.024832
#
#
# Mechanical properties :
#
#
# Convention : Reuss Voigt Hill
#
# Bulk Modulus (GPa) = 27.00403 79.76941 53.38672
# Shear Modulus (GPa) = 36.72001 29.80553 33.26277
#
# Velocity S-wave (km/s) = 3.90256 3.51598 3.71430
# Velocity P-wave (km/s) = 5.61309 7.04045 6.36689
#
# Compressibility (1/GPa) = 0.03703151
#
# Stress axis : x y z
#
# Youngs Moduli (GPa) = 23.31649 177.62554 43.28572
#
# Poissons Ratio (x) = 0.61099 0.33853
# Poissons Ratio (y) = 0.08020 0.26118
# Poissons Ratio (z) = 0.18235 1.07175
#
# Static dielectric constant tensor:
#      x y z
#    x 1.991300 0.000000 0.000000 
#    y 0.000000 1.971670 0.000000 
#    z 0.000000 0.000000 1.994420 
# 
# From -- ./inp_files/17792.got.cif
#   From: 2010.05.17/outbox.cif.g08.bks.cpg/sg62_9_cif.got.tgz:17792.got - 2010.06.03 15:25:27.
