data_PCOD9464736
_publ_section_title
;
Structure prediction by ZEFSAII (Michael W. Deem and Ramdas Pophale) SiO2 
 PCOD9464736
Probable space group: P N M A
;
_chemical_formula_sum "Si O2"
_cell_formula_units_Z 48
_cell_length_a 18.382214
_cell_length_b 8.805711
_cell_length_c 16.789688
_cell_angle_alpha 90.000000
_cell_angle_beta 90.000000
_cell_angle_gamma 90.000000
_cell_volume 2717.721008
_symmetry_space_group_name_H-M "P N M A"
_symmetry_group_IT_number 62
_symmetry_cell_setting 'orthorhombic'
loop_
_space_group_symop_operation_xyz
x,y,z
1/2-x,-y,1/2+z
1/2+x,1/2-y,1/2-z
-x,1/2+y,-z
-x,-y,-z
1/2+x,y,1/2-z
1/2-x,1/2+y,1/2+z
x,1/2-y,z
loop_
_atom_site_type_symbol
_atom_site_label
_atom_site_fract_x
_atom_site_fract_y
_atom_site_fract_z
Si Si1 0.046142 0.068431 0.752291
Si Si2 0.174399 0.068407 0.639808
Si Si3 0.593273 0.429946 0.169583
Si Si4 0.974154 0.068501 0.916924
Si Si5 0.418895 0.069188 0.996021
Si Si6 0.332559 0.931093 0.663827
O O1 0.033731 0.250000 0.742207
O O2 0.125684 0.034195 0.718222
O O3 0.029484 0.031012 0.844137
O O4 0.986498 0.981262 0.699543
O O5 0.179119 0.250000 0.631817
O O6 0.129956 0.000898 0.565617
O O7 0.254034 0.998076 0.645091
O O8 0.593405 0.250000 0.153468
O O9 0.645707 0.462292 0.244230
O O10 0.611695 0.520833 0.090100
O O11 0.969985 0.250000 0.923011
O O12 0.896198 0.003724 0.889607
O O13 0.000000 0.000000 0.000000
O O14 0.422732 0.250000 0.003620
O O15 0.500000 0.000000 0.000000
O O16 0.333143 0.750000 0.652586
#
# Coordination Sequence:
#
# PCOD9464736 Si02
#       6
#     8   8   8   8   8   8
#     4   9  19  35  58  83 111 148 191 235 284 344
#     4  11  22  38  59  86 118 153 193 241 294 347
#     4  10  20  36  59  84 113 151 193 233 280 342
#     4  10  20  38  62  87 114 152 199 245 290 344
#     4  12  23  36  58  88 120 155 194 238 287 344
#     4  10  22  40  60  85 117 154 193 240 294 346
#
# _framework density 17.661857000000001
#
# number of rings (size 3 to 8) (size 9 to 14) (size 15 to 20)
#    0.000    1.667    1.667    3.500    0.000    3.333 
#    3.000    0.000    0.000    0.000    0.000    0.000 
#    0.000    0.000    0.000    0.000    0.000    0.000 
#
# Total GULP energy -268110.762742 kJ/mol
# GULP energy per Si atom -5585.640890 kJ/mol
# Density = 1.762166 g / cm^3
# Si number density = 17.661857 Si / 1000 Ang^3
#
#
#
# Elastic Constant Matrix: (Units=GPa)
#
#
# Indices 1 2 3 4 5 6 
#
# 1 143.9154 65.2185 90.6504 0.0000 0.0000 0.0000
# 2 65.2185 83.0204 69.8476 0.0000 0.0000 0.0000
# 3 90.6504 69.8476 142.7916 0.0000 0.0000 0.0000
# 4 0.0000 0.0000 0.0000 32.0323 0.0000 0.0000
# 5 0.0000 0.0000 0.0000 0.0000 22.2463 0.0000
# 6 0.0000 0.0000 0.0000 0.0000 0.0000 30.1809
#
#
#
# Elastic Compliance Matrix: (Units=1/GPa)
#
#
# Indices 1 2 3 4 5 6 
#
# 1 0.012912 -0.005518 -0.005498 0.000000 0.000000 0.000000
# 2 -0.005518 0.022827 -0.007663 0.000000 0.000000 0.000000
# 3 -0.005498 -0.007663 0.014242 0.000000 0.000000 0.000000
# 4 0.000000 0.000000 0.000000 0.031218 0.000000 0.000000
# 5 0.000000 0.000000 0.000000 0.000000 0.044951 0.000000
# 6 0.000000 0.000000 0.000000 0.000000 0.000000 0.033134
#
#
# Mechanical properties :
#
#
# Convention : Reuss Voigt Hill
#
# Bulk Modulus (GPa) = 79.21826 91.24005 85.22916
# Shear Modulus (GPa) = 24.89413 26.49265 25.69339
#
# Velocity S-wave (km/s) = 3.75838 3.87717 3.81824
# Velocity P-wave (km/s) = 7.98649 8.47436 8.23404
#
# Compressibility (1/GPa) = 0.01262335
#
# Stress axis : x y z
#
# Youngs Moduli (GPa) = 77.44575 43.80783 70.21363
#
# Poissons Ratio (x) = 0.24172 0.38605
# Poissons Ratio (y) = 0.42732 0.53806
# Poissons Ratio (z) = 0.42582 0.33571
#
# Static dielectric constant tensor:
#      x y z
#    x 1.568570 0.000000 0.000000 
#    y 0.000000 1.583450 0.000000 
#    z 0.000000 0.000000 1.606590 
# 
# From -- ./inp_files/19619.got.cif
#   From: 2010.05.17/outbox.cif.g08.bks.cpg/sg62_10_cif.got.tgz:19619.got - 2010.06.03 15:25:27.
