data_PCOD9464742
_publ_section_title
;
Structure prediction by ZEFSAII (Michael W. Deem and Ramdas Pophale) SiO2 
 PCOD9464742
Probable space group: P N M A
;
_chemical_formula_sum "Si O2"
_cell_formula_units_Z 48
_cell_length_a 27.860856
_cell_length_b 13.653791
_cell_length_c 6.955974
_cell_angle_alpha 90.000000
_cell_angle_beta 90.000000
_cell_angle_gamma 90.000000
_cell_volume 2646.096366
_symmetry_space_group_name_H-M "P N M A"
_symmetry_group_IT_number 62
_symmetry_cell_setting 'orthorhombic'
loop_
_space_group_symop_operation_xyz
x,y,z
1/2-x,-y,1/2+z
1/2+x,1/2-y,1/2-z
-x,1/2+y,-z
-x,-y,-z
1/2+x,y,1/2-z
1/2-x,1/2+y,1/2+z
x,1/2-y,z
loop_
_atom_site_type_symbol
_atom_site_label
_atom_site_fract_x
_atom_site_fract_y
_atom_site_fract_z
Si Si1 0.140877 0.363147 0.019079
Si Si2 0.971789 0.024533 0.307017
Si Si3 0.471827 0.859173 0.512064
Si Si4 0.788234 0.133672 0.028213
Si Si5 0.141612 0.974098 0.706444
Si Si6 0.699540 0.493434 0.182509
O O1 0.155545 0.250000 0.002173
O O2 0.084271 0.366721 0.066063
O O3 0.168974 0.420237 0.184004
O O4 0.147785 0.423288 0.821820
O O5 0.914904 0.039208 0.332724
O O6 0.995783 0.114327 0.193930
O O7 0.000000 0.000000 0.500000
O O8 0.979527 0.934380 0.160440
O O9 0.481545 0.750000 0.444296
O O10 0.778860 0.250000 0.031397
O O11 0.791550 0.089409 0.813047
O O12 0.836233 0.106830 0.149034
O O13 0.747202 0.066614 0.126863
O O14 0.171168 0.978532 0.509853
#
# Coordination Sequence:
#
# PCOD9464742 Si02
#       6
#     8   8   8   8   8   8
#     4   9  19  35  60  88 114 147 191 246 298 345
#     4  10  20  36  59  85 115 158 194 243 296 350
#     4   9  19  36  56  84 117 147 189 243 294 347
#     4  11  24  41  61  85 118 159 198 248 304 356
#     4  10  22  39  57  84 122 152 198 246 296 360
#     4  11  21  41  59  87 116 152 198 249 290 359
#
# _framework density 18.13993
#
# number of rings (size 3 to 8) (size 9 to 14) (size 15 to 20)
#    0.000    2.000    1.667    1.500    0.000    4.667 
#    0.000    3.333    0.000    0.000    0.000    0.000 
#    0.000    0.000    0.000    0.000    0.000    0.000 
#
# Total GULP energy -267839.789015 kJ/mol
# GULP energy per Si atom -5579.995604 kJ/mol
# Density = 1.809864 g / cm^3
# Si number density = 18.139930 Si / 1000 Ang^3
#
#
#
# Elastic Constant Matrix: (Units=GPa)
#
#
# Indices 1 2 3 4 5 6 
#
# 1 82.0225 33.3508 61.8469 0.0000 0.0000 0.0000
# 2 33.3508 82.6612 24.3024 0.0000 0.0000 0.0000
# 3 61.8469 24.3024 102.4947 0.0000 0.0000 0.0000
# 4 0.0000 0.0000 0.0000 11.2405 0.0000 0.0000
# 5 0.0000 0.0000 0.0000 0.0000 40.0473 0.0000
# 6 0.0000 0.0000 0.0000 0.0000 0.0000 21.7804
#
#
#
# Elastic Compliance Matrix: (Units=1/GPa)
#
#
# Indices 1 2 3 4 5 6 
#
# 1 0.024899 -0.006050 -0.013590 0.000000 0.000000 0.000000
# 2 -0.006050 0.014474 0.000219 0.000000 0.000000 0.000000
# 3 -0.013590 0.000219 0.017905 0.000000 0.000000 0.000000
# 4 0.000000 0.000000 0.000000 0.088964 0.000000 0.000000
# 5 0.000000 0.000000 0.000000 0.000000 0.024970 0.000000
# 6 0.000000 0.000000 0.000000 0.000000 0.000000 0.045913
#
#
# Mechanical properties :
#
#
# Convention : Reuss Voigt Hill
#
# Bulk Modulus (GPa) = 54.24264 56.24205 55.24235
# Shear Modulus (GPa) = 19.07571 24.45886 21.76729
#
# Velocity S-wave (km/s) = 3.24634 3.67596 3.46781
# Velocity P-wave (km/s) = 6.63467 7.00634 6.82304
#
# Compressibility (1/GPa) = 0.01843568
#
# Stress axis : x y z
#
# Youngs Moduli (GPa) = 40.16241 69.08778 55.85040
#
# Poissons Ratio (x) = 0.41801 0.75899
# Poissons Ratio (y) = 0.24300 -0.01223
# Poissons Ratio (z) = 0.54580 -0.01513
#
# Static dielectric constant tensor:
#      x y z
#    x 1.644400 0.000000 0.000000 
#    y 0.000000 1.613900 0.000000 
#    z 0.000000 0.000000 1.600970 
# 
# From -- ./inp_files/3204.got.cif
#   From: 2010.05.17/outbox.cif.g08.bks.cpg/sg62_2_cif.got.tgz:3204.got - 2010.06.03 15:25:27.
