data_PCOD9464941
_publ_section_title
;
Structure prediction by ZEFSAII (Michael W. Deem and Ramdas Pophale) SiO2 
 PCOD9464941
Probable space group: P N M A
;
_chemical_formula_sum "Si O2"
_cell_formula_units_Z 56
_cell_length_a 17.611870
_cell_length_b 8.527344
_cell_length_c 19.160675
_cell_angle_alpha 90.000000
_cell_angle_beta 90.000000
_cell_angle_gamma 90.000000
_cell_volume 2877.597574
_symmetry_space_group_name_H-M "P N M A"
_symmetry_group_IT_number 62
_symmetry_cell_setting 'orthorhombic'
loop_
_space_group_symop_operation_xyz
x,y,z
1/2-x,-y,1/2+z
1/2+x,1/2-y,1/2-z
-x,1/2+y,-z
-x,-y,-z
1/2+x,y,1/2-z
1/2-x,1/2+y,1/2+z
x,1/2-y,z
loop_
_atom_site_type_symbol
_atom_site_label
_atom_site_fract_x
_atom_site_fract_y
_atom_site_fract_z
Si Si1 0.681257 0.939708 0.546282
Si Si2 0.545723 0.561060 0.649091
Si Si3 0.383848 0.060840 0.603487
Si Si4 0.401032 0.439543 0.199617
Si Si5 0.767726 0.439480 0.776304
Si Si6 0.987479 0.937849 0.577782
Si Si7 0.175731 0.937753 0.376727
O O1 0.686857 0.750000 0.547332
O O2 0.618796 0.988001 0.603879
O O3 0.651064 0.989039 0.470521
O O4 0.762067 0.009773 0.566810
O O5 0.543469 0.750000 0.647948
O O6 0.468517 0.499113 0.615903
O O7 0.556585 0.509591 0.729163
O O8 0.385855 0.250000 0.603449
O O9 0.329435 0.009246 0.666581
O O10 0.399644 0.250000 0.199491
O O11 0.315196 0.498958 0.204094
O O12 0.447201 0.492829 0.131596
O O13 0.765301 0.250000 0.776362
O O14 0.793496 0.490932 0.699126
O O15 0.989512 0.750000 0.576195
O O16 0.906078 0.992036 0.606361
O O17 0.000000 0.000000 0.500000
O O18 0.169904 0.750000 0.376096
#
# Coordination Sequence:
#
# PCOD9464941 Si02
#       7
#     8   8   8   8   8   8   8
#     4  10  21  38  60  87 122 158 194 244 299 356
#     4  10  20  37  60  87 118 155 195 238 294 356
#     4  10  22  37  57  87 119 152 193 240 298 356
#     4  10  22  40  62  88 119 156 203 249 298 359
#     4  10  22  39  60  89 122 158 202 251 300 354
#     4  11  25  43  64  91 124 164 208 259 313 365
#     4  11  23  40  62  89 121 161 207 250 302 362
#
# _framework density 19.46068
#
# number of rings (size 3 to 8) (size 9 to 14) (size 15 to 20)
#    0.000    1.714    1.429    2.143    2.000    4.000 
#    0.000    0.000    0.000    0.000    0.000    0.000 
#    0.000    0.000    0.000    0.000    0.000    0.000 
#
# Total GULP energy -313012.681056 kJ/mol
# GULP energy per Si atom -5589.512162 kJ/mol
# Density = 1.941639 g / cm^3
# Si number density = 19.460680 Si / 1000 Ang^3
#
#
#
# Elastic Constant Matrix: (Units=GPa)
#
#
# Indices 1 2 3 4 5 6 
#
# 1 137.8528 19.6763 47.7300 0.0000 0.0000 0.0000
# 2 19.6763 13.7775 15.0994 0.0000 0.0000 0.0000
# 3 47.7300 15.0994 72.0084 0.0000 0.0000 0.0000
# 4 0.0000 0.0000 0.0000 19.0238 0.0000 0.0000
# 5 0.0000 0.0000 0.0000 0.0000 11.4824 0.0000
# 6 0.0000 0.0000 0.0000 0.0000 0.0000 36.5261
#
#
#
# Elastic Compliance Matrix: (Units=1/GPa)
#
#
# Indices 1 2 3 4 5 6 
#
# 1 0.010266 -0.009353 -0.004844 0.000000 0.000000 0.000000
# 2 -0.009353 0.102761 -0.015348 0.000000 0.000000 0.000000
# 3 -0.004844 -0.015348 0.020316 0.000000 0.000000 0.000000
# 4 0.000000 0.000000 0.000000 0.052566 0.000000 0.000000
# 5 0.000000 0.000000 0.000000 0.000000 0.087090 0.000000
# 6 0.000000 0.000000 0.000000 0.000000 0.000000 0.027378
#
#
# Mechanical properties :
#
#
# Convention : Reuss Voigt Hill
#
# Bulk Modulus (GPa) = 13.46742 43.18334 28.32538
# Shear Modulus (GPa) = 13.01346 22.81533 17.91440
#
# Velocity S-wave (km/s) = 2.58874 3.42772 3.03734
# Velocity P-wave (km/s) = 3.98381 6.15661 5.18530
#
# Compressibility (1/GPa) = 0.07425329
#
# Stress axis : x y z
#
# Youngs Moduli (GPa) = 97.40724 9.73132 49.22212
#
# Poissons Ratio (x) = 0.09102 0.23841
# Poissons Ratio (y) = 0.91109 0.75546
# Poissons Ratio (z) = 0.47179 0.14936
#
# Static dielectric constant tensor:
#      x y z
#    x 1.632140 0.000000 0.000000 
#    y 0.000000 1.666730 0.000000 
#    z 0.000000 0.000000 1.682080 
# 
# From -- ./inp_files/27162.got.cif
#   From: 2010.05.17/outbox.cif.g08.bks.cpg/sg62_14_cif.got.tgz:27162.got - 2010.06.03 15:25:27.
