data_PCOD9464075
_publ_section_title
;
Structure prediction by ZEFSAII (Michael W. Deem and Ramdas Pophale) SiO2 
 PCOD9464075
Probable space group: P N M A
;
_chemical_formula_sum "Si O2"
_cell_formula_units_Z 64
_cell_length_a 21.144420
_cell_length_b 8.511126
_cell_length_c 18.934088
_cell_angle_alpha 90.000000
_cell_angle_beta 90.000000
_cell_angle_gamma 90.000000
_cell_volume 3407.431924
_symmetry_space_group_name_H-M "P N M A"
_symmetry_group_IT_number 62
_symmetry_cell_setting 'orthorhombic'
loop_
_space_group_symop_operation_xyz
x,y,z
1/2-x,-y,1/2+z
1/2+x,1/2-y,1/2-z
-x,1/2+y,-z
-x,-y,-z
1/2+x,y,1/2-z
1/2-x,1/2+y,1/2+z
x,1/2-y,z
loop_
_atom_site_type_symbol
_atom_site_label
_atom_site_fract_x
_atom_site_fract_y
_atom_site_fract_z
Si Si1 0.060423 0.059911 0.542555
Si Si2 0.679806 0.439751 0.705398
Si Si3 0.936566 0.060204 0.793854
Si Si4 0.441462 0.941882 0.205048
Si Si5 0.816643 0.939812 0.544649
Si Si6 0.059532 0.562021 0.044015
Si Si7 0.178522 0.437909 0.958523
Si Si8 0.682278 0.062285 0.208309
O O1 0.059549 0.250000 0.541967
O O2 0.058008 0.006995 0.623822
O O3 0.125005 0.009527 0.503864
O O4 0.000000 0.000000 0.500000
O O5 0.682875 0.250000 0.707257
O O6 0.621849 0.491645 0.754123
O O7 0.668788 0.486168 0.623607
O O8 0.747591 0.505527 0.728315
O O9 0.937451 0.250000 0.794256
O O10 0.942394 0.006114 0.874763
O O11 0.996321 0.006175 0.747311
O O12 0.871936 0.005858 0.757774
O O13 0.441574 0.750000 0.205337
O O14 0.812809 0.750000 0.542877
O O15 0.827915 0.987594 0.626362
O O16 0.749013 0.007249 0.521693
O O17 0.056533 0.750000 0.044667
O O18 0.124217 0.509217 0.006939
O O19 0.000000 0.500000 0.000000
O O20 0.174735 0.250000 0.961834
O O21 0.679868 0.250000 0.210681
#
# Coordination Sequence:
#
# PCOD9464075 Si02
#       8
#     8   8   8   8   8   8   8   8
#     4  10  20  34  54  78 105 138 175 217 263 312
#     4   9  18  35  57  79 106 141 180 219 260 313
#     4  10  21  37  56  78 105 139 179 222 268 320
#     4   9  18  34  56  78 100 132 177 220 256 305
#     4   9  19  35  53  78 113 147 178 216 267 321
#     4  11  23  38  57  80 108 141 178 224 276 330
#     4  10  20  35  57  82 108 141 181 223 266 317
#     4  10  20  34  53  79 111 143 176 217 263 314
#
# _framework density 18.782471999999999
#
# number of rings (size 3 to 8) (size 9 to 14) (size 15 to 20)
#    0.000    2.250    0.000    2.625    0.000    5.500 
#    0.000    3.750    0.000    0.000    0.000    0.000 
#    0.000    0.000    0.000    0.000    0.000    0.000 
#
# Total GULP energy -357412.225927 kJ/mol
# GULP energy per Si atom -5584.566030 kJ/mol
# Density = 1.873972 g / cm^3
# Si number density = 18.782472 Si / 1000 Ang^3
#
#
#
# Elastic Constant Matrix: (Units=GPa)
#
#
# Indices 1 2 3 4 5 6 
#
# 1 179.4477 24.4791 121.7741 0.0000 0.0000 0.0000
# 2 24.4791 12.4905 24.1759 0.0000 0.0000 0.0000
# 3 121.7741 24.1759 145.1695 0.0000 0.0000 0.0000
# 4 0.0000 0.0000 0.0000 22.0341 0.0000 0.0000
# 5 0.0000 0.0000 0.0000 0.0000 42.4299 0.0000
# 6 0.0000 0.0000 0.0000 0.0000 0.0000 28.2655
#
#
#
# Elastic Compliance Matrix: (Units=1/GPa)
#
#
# Indices 1 2 3 4 5 6 
#
# 1 0.013295 -0.006596 -0.010054 0.000000 0.000000 0.000000
# 2 -0.006596 0.121415 -0.014687 0.000000 0.000000 0.000000
# 3 -0.010054 -0.014687 0.017768 0.000000 0.000000 0.000000
# 4 0.000000 0.000000 0.000000 0.045384 0.000000 0.000000
# 5 0.000000 0.000000 0.000000 0.000000 0.023568 0.000000
# 6 0.000000 0.000000 0.000000 0.000000 0.000000 0.035379
#
#
# Mechanical properties :
#
#
# Convention : Reuss Voigt Hill
#
# Bulk Modulus (GPa) = 11.13530 75.32955 43.23243
# Shear Modulus (GPa) = 14.30947 29.65780 21.98364
#
# Velocity S-wave (km/s) = 2.76316 3.97799 3.42487
# Velocity P-wave (km/s) = 4.01516 7.82896 6.22150
#
# Compressibility (1/GPa) = 0.08980450
#
# Stress axis : x y z
#
# Youngs Moduli (GPa) = 75.21523 8.23619 56.28054
#
# Poissons Ratio (x) = 0.05433 0.56585
# Poissons Ratio (y) = 0.49613 0.82659
# Poissons Ratio (z) = 0.75622 0.12096
#
# Static dielectric constant tensor:
#      x y z
#    x 1.610300 0.000000 0.000000 
#    y 0.000000 1.643100 0.000000 
#    z 0.000000 0.000000 1.643580 
# 
# From -- ./inp_files/24795.got.cif
#   From: 2010.05.17/outbox.cif.g08.bks.cpg/sg62_13_cif.got.tgz:24795.got - 2010.06.03 15:25:27.
