data_PCOD9464862
_publ_section_title
;
Structure prediction by ZEFSAII (Michael W. Deem and Ramdas Pophale) SiO2 
 PCOD9464862
Probable space group: P N M A
;
_chemical_formula_sum "Si O2"
_cell_formula_units_Z 48
_cell_length_a 17.129730
_cell_length_b 8.499879
_cell_length_c 18.469529
_cell_angle_alpha 90.000000
_cell_angle_beta 90.000000
_cell_angle_gamma 90.000000
_cell_volume 2689.175101
_symmetry_space_group_name_H-M "P N M A"
_symmetry_group_IT_number 62
_symmetry_cell_setting 'orthorhombic'
loop_
_space_group_symop_operation_xyz
x,y,z
1/2-x,-y,1/2+z
1/2+x,1/2-y,1/2-z
-x,1/2+y,-z
-x,-y,-z
1/2+x,y,1/2-z
1/2-x,1/2+y,1/2+z
x,1/2-y,z
loop_
_atom_site_type_symbol
_atom_site_label
_atom_site_fract_x
_atom_site_fract_y
_atom_site_fract_z
Si Si1 0.006885 0.438844 0.418056
Si Si2 0.085152 0.561845 0.980720
Si Si3 0.139282 0.440525 0.672794
Si Si4 0.740881 0.940582 0.445017
Si Si5 0.836262 0.562391 0.163991
Si Si6 0.817984 0.560605 0.597874
O O1 0.003409 0.250000 0.419312
O O2 0.092758 0.485286 0.389356
O O3 0.000000 0.500000 0.500000
O O4 0.937421 0.504677 0.369412
O O5 0.084251 0.750000 0.983803
O O6 0.113302 0.511595 0.900808
O O7 0.153511 0.504406 0.035782
O O8 0.000000 0.500000 0.000000
O O9 0.140480 0.250000 0.672690
O O10 0.214860 0.495792 0.626758
O O11 0.140907 0.493383 0.755896
O O12 0.737781 0.750000 0.441401
O O13 0.793803 0.979639 0.515123
O O14 0.845546 0.750000 0.160501
O O15 0.746397 0.518445 0.148243
O O16 0.810960 0.750000 0.604487
#
# Coordination Sequence:
#
# PCOD9464862 Si02
#       6
#     8   8   8   8   8   8
#     4  11  21  34  56  85 115 148 185 229 276 330
#     4  10  20  37  60  81 109 145 189 235 277 330
#     4  10  20  37  56  80 113 146 183 229 280 334
#     4   8  15  32  56  76 101 140 178 219 270 319
#     4  10  21  36  57  82 111 145 184 231 282 333
#     4   9  18  35  56  76 107 146 180 220 271 324
#
# _framework density 17.849339000000001
#
# number of rings (size 3 to 8) (size 9 to 14) (size 15 to 20)
#    0.000    2.333    1.667    2.500    0.000    2.667 
#    3.000    0.833    0.000    0.000    0.000    0.000 
#    0.000    0.000    0.000    0.000    0.000    0.000 
#
# Total GULP energy -267723.713385 kJ/mol
# GULP energy per Si atom -5577.577362 kJ/mol
# Density = 1.780871 g / cm^3
# Si number density = 17.849339 Si / 1000 Ang^3
#
#
#
# Elastic Constant Matrix: (Units=GPa)
#
#
# Indices 1 2 3 4 5 6 
#
# 1 169.4035 25.7005 85.8036 0.0000 0.0000 0.0000
# 2 25.7005 23.2617 22.7672 0.0000 0.0000 0.0000
# 3 85.8036 22.7672 118.1504 0.0000 0.0000 0.0000
# 4 0.0000 0.0000 0.0000 23.0066 0.0000 0.0000
# 5 0.0000 0.0000 0.0000 0.0000 23.4847 0.0000
# 6 0.0000 0.0000 0.0000 0.0000 0.0000 31.3015
#
#
#
# Elastic Compliance Matrix: (Units=1/GPa)
#
#
# Indices 1 2 3 4 5 6 
#
# 1 0.009743 -0.004732 -0.006164 0.000000 0.000000 0.000000
# 2 -0.004732 0.055279 -0.007216 0.000000 0.000000 0.000000
# 3 -0.006164 -0.007216 0.014331 0.000000 0.000000 0.000000
# 4 0.000000 0.000000 0.000000 0.043466 0.000000 0.000000
# 5 0.000000 0.000000 0.000000 0.000000 0.042581 0.000000
# 6 0.000000 0.000000 0.000000 0.000000 0.000000 0.031947
#
#
# Mechanical properties :
#
#
# Convention : Reuss Voigt Hill
#
# Bulk Modulus (GPa) = 23.18559 64.37310 43.77934
# Shear Modulus (GPa) = 20.16566 27.32817 23.74692
#
# Velocity S-wave (km/s) = 3.36485 3.91710 3.65143
# Velocity P-wave (km/s) = 5.30227 7.52338 6.50828
#
# Compressibility (1/GPa) = 0.04313024
#
# Stress axis : x y z
#
# Youngs Moduli (GPa) = 102.63920 18.08991 69.78112
#
# Poissons Ratio (x) = 0.08559 0.43011
# Poissons Ratio (y) = 0.48565 0.50354
# Poissons Ratio (z) = 0.63264 0.13054
#
# Static dielectric constant tensor:
#      x y z
#    x 1.610030 0.000000 0.000000 
#    y 0.000000 1.614030 0.000000 
#    z 0.000000 0.000000 1.595390 
# 
# From -- ./inp_files/24229.got.cif
#   From: 2010.05.17/outbox.cif.g08.bks.cpg/sg62_13_cif.got.tgz:24229.got - 2010.06.03 15:25:27.
