data_PCOD9464723
_publ_section_title
;
Structure prediction by ZEFSAII (Michael W. Deem and Ramdas Pophale) SiO2 
 PCOD9464723
Probable space group: P N M A
;
_chemical_formula_sum "Si O2"
_cell_formula_units_Z 64
_cell_length_a 20.710482
_cell_length_b 15.318517
_cell_length_c 9.086578
_cell_angle_alpha 90.000000
_cell_angle_beta 90.000000
_cell_angle_gamma 90.000000
_cell_volume 2882.752041
_symmetry_space_group_name_H-M "P N M A"
_symmetry_group_IT_number 62
_symmetry_cell_setting 'orthorhombic'
loop_
_space_group_symop_operation_xyz
x,y,z
1/2-x,-y,1/2+z
1/2+x,1/2-y,1/2-z
-x,1/2+y,-z
-x,-y,-z
1/2+x,y,1/2-z
1/2-x,1/2+y,1/2+z
x,1/2-y,z
loop_
_atom_site_type_symbol
_atom_site_label
_atom_site_fract_x
_atom_site_fract_y
_atom_site_fract_z
Si Si1 0.515153 0.594026 0.571600
Si Si2 0.763345 0.407165 0.965687
Si Si3 0.389951 0.150150 0.642354
Si Si4 0.577146 0.028178 0.210234
Si Si5 0.416039 0.842258 0.345107
Si Si6 0.313198 0.598561 0.566414
Si Si7 0.811141 0.154087 0.275593
Si Si8 0.124940 0.024780 0.618366
O O1 0.500000 0.500000 0.500000
O O2 0.586134 0.625803 0.525218
O O3 0.485670 0.581875 0.733376
O O4 0.470812 0.654735 0.469424
O O5 0.813123 0.364008 0.851375
O O6 0.789141 0.505189 0.992169
O O7 0.691253 0.419801 0.907317
O O8 0.775805 0.358291 0.117983
O O9 0.405928 0.250000 0.677079
O O10 0.421949 0.073406 0.737934
O O11 0.636849 0.073554 0.300802
O O12 0.589723 0.026168 0.038066
O O13 0.418426 0.750000 0.264685
O O14 0.351486 0.853041 0.439857
O O15 0.417280 0.924178 0.237619
O O16 0.250348 0.648962 0.616471
O O17 0.842297 0.250000 0.283235
O O18 0.854811 0.071081 0.323130
#
# Coordination Sequence:
#
# PCOD9464723 Si02
#       8
#     8   8   8   8   8   8   8   8
#     4   9  20  40  66  87 111 154 209 255 299 355
#     4  10  20  36  58  87 127 162 196 248 316 369
#     4  10  20  36  63  91 117 153 208 257 295 362
#     4   9  19  38  61  85 117 161 199 244 310 362
#     4  11  22  38  62  89 119 161 209 257 310 365
#     4   9  18  36  55  81 115 160 205 249 294 360
#     4  11  21  33  56  86 124 168 205 247 308 376
#     4  11  23  39  59  92 134 160 196 258 315 374
#
# _framework density 22.201007000000001
#
# number of rings (size 3 to 8) (size 9 to 14) (size 15 to 20)
#    0.000    2.000    2.500    1.875    0.000    1.500 
#    0.000    3.750    0.000    0.000    0.000    0.000 
#    0.000    0.000    0.000    0.000    0.000    0.000 
#
# Total GULP energy -357268.470582 kJ/mol
# GULP energy per Si atom -5582.319853 kJ/mol
# Density = 2.215048 g / cm^3
# Si number density = 22.201007 Si / 1000 Ang^3
#
#
#
# Elastic Constant Matrix: (Units=GPa)
#
#
# Indices 1 2 3 4 5 6 
#
# 1 70.7706 19.1688 18.3641 0.0000 0.0000 0.0000
# 2 19.1688 140.8998 37.0615 0.0000 0.0000 0.0000
# 3 18.3641 37.0615 96.8838 0.0000 0.0000 0.0000
# 4 0.0000 0.0000 0.0000 15.2004 0.0000 0.0000
# 5 0.0000 0.0000 0.0000 0.0000 21.2870 0.0000
# 6 0.0000 0.0000 0.0000 0.0000 0.0000 13.2346
#
#
#
# Elastic Compliance Matrix: (Units=1/GPa)
#
#
# Indices 1 2 3 4 5 6 
#
# 1 0.015123 -0.001449 -0.002312 0.000000 0.000000 0.000000
# 2 -0.001449 0.008030 -0.002797 0.000000 0.000000 0.000000
# 3 -0.002312 -0.002797 0.011830 0.000000 0.000000 0.000000
# 4 0.000000 0.000000 0.000000 0.065788 0.000000 0.000000
# 5 0.000000 0.000000 0.000000 0.000000 0.046977 0.000000
# 6 0.000000 0.000000 0.000000 0.000000 0.000000 0.075559
#
#
# Mechanical properties :
#
#
# Convention : Reuss Voigt Hill
#
# Bulk Modulus (GPa) = 45.73341 50.86032 48.29686
# Shear Modulus (GPa) = 20.51597 25.54171 23.02884
#
# Velocity S-wave (km/s) = 3.04320 3.39555 3.22419
# Velocity P-wave (km/s) = 5.74391 6.19126 5.97178
#
# Compressibility (1/GPa) = 0.02186585
#
# Stress axis : x y z
#
# Youngs Moduli (GPa) = 66.12593 124.53082 84.53163
#
# Poissons Ratio (x) = 0.18047 0.19544
# Poissons Ratio (y) = 0.09583 0.23645
# Poissons Ratio (z) = 0.15289 0.34833
#
# Static dielectric constant tensor:
#      x y z
#    x 1.885320 0.000000 0.000000 
#    y 0.000000 1.816420 0.000000 
#    z 0.000000 0.000000 1.820900 
# 
# From -- ./inp_files/9512.got.cif
#   From: 2010.05.17/outbox.cif.g08.bks.cpg/sg62_5_cif.got.tgz:9512.got - 2010.06.03 15:25:27.
