data_PCOD9464094
_publ_section_title
;
Structure prediction by ZEFSAII (Michael W. Deem and Ramdas Pophale) SiO2 
 PCOD9464094
Probable space group: P N M A
;
_chemical_formula_sum "Si O2"
_cell_formula_units_Z 40
_cell_length_a 16.092753
_cell_length_b 8.982007
_cell_length_c 16.142272
_cell_angle_alpha 90.000000
_cell_angle_beta 90.000000
_cell_angle_gamma 90.000000
_cell_volume 2333.288259
_symmetry_space_group_name_H-M "P N M A"
_symmetry_group_IT_number 62
_symmetry_cell_setting 'orthorhombic'
loop_
_space_group_symop_operation_xyz
x,y,z
1/2-x,-y,1/2+z
1/2+x,1/2-y,1/2-z
-x,1/2+y,-z
-x,-y,-z
1/2+x,y,1/2-z
1/2-x,1/2+y,1/2+z
x,1/2-y,z
loop_
_atom_site_type_symbol
_atom_site_label
_atom_site_fract_x
_atom_site_fract_y
_atom_site_fract_z
Si Si1 0.534916 0.428733 0.123218
Si Si2 0.437986 0.928121 0.432802
Si Si3 0.197510 0.428466 0.058580
Si Si4 0.053966 0.428912 0.189043
Si Si5 0.624901 0.427864 0.954865
O O1 0.523652 0.250000 0.120335
O O2 0.565440 0.467909 0.215015
O O3 0.447410 0.505329 0.102581
O O4 0.597797 0.468836 0.049060
O O5 0.447238 0.750000 0.432209
O O6 0.347491 0.962635 0.470530
O O7 0.500000 0.000000 0.500000
O O8 0.470532 0.996324 0.347358
O O9 0.208060 0.250000 0.063395
O O10 0.132198 0.471925 0.131077
O O11 0.285305 0.507248 0.065524
O O12 0.045451 0.250000 0.181517
O O13 0.625506 0.250000 0.948200
#
# Coordination Sequence:
#
# PCOD9464094 Si02
#       5
#     8   8   8   8   8
#     4   9  19  37  56  73  99 137 176 213 257 309
#     4   9  17  30  50  75 105 137 168 205 254 306
#     4   9  18  33  52  75 106 137 167 207 255 307
#     4   9  18  34  55  77 102 135 175 214 258 309
#     4  10  20  34  54  77 102 135 176 214 254 307
#
# _framework density 17.143187999999999
#
# number of rings (size 3 to 8) (size 9 to 14) (size 15 to 20)
#    0.000    2.800    0.000    2.400    0.000    5.600 
#    3.600    0.000    0.000    0.000    0.000    0.000 
#    0.000    0.000    0.000    0.000    0.000    0.000 
#
# Total GULP energy -222830.132397 kJ/mol
# GULP energy per Si atom -5570.753310 kJ/mol
# Density = 1.710417 g / cm^3
# Si number density = 17.143188 Si / 1000 Ang^3
#
#
#
# Elastic Constant Matrix: (Units=GPa)
#
#
# Indices 1 2 3 4 5 6 
#
# 1 114.7681 34.8992 53.0553 0.0000 0.0000 0.0000
# 2 34.8992 20.1816 27.9502 0.0000 0.0000 0.0000
# 3 53.0553 27.9502 105.0411 0.0000 0.0000 0.0000
# 4 0.0000 0.0000 0.0000 24.5271 0.0000 0.0000
# 5 0.0000 0.0000 0.0000 0.0000 10.6035 0.0000
# 6 0.0000 0.0000 0.0000 0.0000 0.0000 30.2574
#
#
#
# Elastic Compliance Matrix: (Units=1/GPa)
#
#
# Indices 1 2 3 4 5 6 
#
# 1 0.018490 -0.030152 -0.001316 0.000000 0.000000 0.000000
# 2 -0.030152 0.127633 -0.018732 0.000000 0.000000 0.000000
# 3 -0.001316 -0.018732 0.015169 0.000000 0.000000 0.000000
# 4 0.000000 0.000000 0.000000 0.040771 0.000000 0.000000
# 5 0.000000 0.000000 0.000000 0.000000 0.094309 0.000000
# 6 0.000000 0.000000 0.000000 0.000000 0.000000 0.033050
#
#
# Mechanical properties :
#
#
# Convention : Reuss Voigt Hill
#
# Bulk Modulus (GPa) = 16.42243 52.42227 34.42235
# Shear Modulus (GPa) = 11.10812 21.35000 16.22906
#
# Velocity S-wave (km/s) = 2.54827 3.53284 3.08015
# Velocity P-wave (km/s) = 4.27301 6.87654 5.72474
#
# Compressibility (1/GPa) = 0.06089231
#
# Stress axis : x y z
#
# Youngs Moduli (GPa) = 54.08207 7.83494 65.92209
#
# Poissons Ratio (x) = 0.23624 0.08677
# Poissons Ratio (y) = 1.63067 1.23488
# Poissons Ratio (z) = 0.07119 0.14677
#
# Static dielectric constant tensor:
#      x y z
#    x 1.561760 0.000000 0.000000 
#    y 0.000000 1.571080 0.000000 
#    z 0.000000 0.000000 1.616970 
# 
# From -- ./inp_files/18612.got.cif
#   From: 2010.05.17/outbox.cif.g08.bks.cpg/sg62_10_cif.got.tgz:18612.got - 2010.06.03 15:25:27.
