data_PCOD9464776
_publ_section_title
;
Structure prediction by ZEFSAII (Michael W. Deem and Ramdas Pophale) SiO2 
 PCOD9464776
Probable space group: P N M A
;
_chemical_formula_sum "Si O2"
_cell_formula_units_Z 32
_cell_length_a 13.838368
_cell_length_b 15.036314
_cell_length_c 7.129833
_cell_angle_alpha 90.000000
_cell_angle_beta 90.000000
_cell_angle_gamma 90.000000
_cell_volume 1483.561722
_symmetry_space_group_name_H-M "P N M A"
_symmetry_group_IT_number 62
_symmetry_cell_setting 'orthorhombic'
loop_
_space_group_symop_operation_xyz
x,y,z
1/2-x,-y,1/2+z
1/2+x,1/2-y,1/2-z
-x,1/2+y,-z
-x,-y,-z
1/2+x,y,1/2-z
1/2-x,1/2+y,1/2+z
x,1/2-y,z
loop_
_atom_site_type_symbol
_atom_site_label
_atom_site_fract_x
_atom_site_fract_y
_atom_site_fract_z
Si Si1 0.940811 0.646359 0.415348
Si Si2 0.378539 0.524646 0.418483
Si Si3 0.913793 0.350053 0.257003
Si Si4 0.710229 0.414355 0.214418
O O1 0.948310 0.750000 0.366856
O O2 0.929290 0.586659 0.232860
O O3 0.030258 0.623607 0.553224
O O4 0.846073 0.628926 0.542526
O O5 0.425356 0.426347 0.400497
O O6 0.364525 0.563928 0.622639
O O7 0.267962 0.502821 0.349821
O O8 0.944602 0.250000 0.205797
O O9 0.798155 0.353444 0.287602
#
# Coordination Sequence:
#
# PCOD9464776 Si02
#       4
#     8   8   8   8
#     4  11  22  38  59  86 118 154 194 240 290 345
#     4  10  20  37  59  84 116 153 191 233 293 340
#     4   9  20  38  59  84 120 153 188 244 293 338
#     4  10  20  36  60  85 115 153 192 235 286 346
#
# _framework density 21.569711999999999
#
# number of rings (size 3 to 8) (size 9 to 14) (size 15 to 20)
#    1.500    0.500    2.500    1.500    0.000    3.000 
#    0.000    2.500    0.000   10.500    0.000    0.000 
#    0.000    0.000    0.000    0.000    0.000    0.000 
#
# Total GULP energy -178501.630153 kJ/mol
# GULP energy per Si atom -5578.175942 kJ/mol
# Density = 2.152062 g / cm^3
# Si number density = 21.569712 Si / 1000 Ang^3
#
#
#
# Elastic Constant Matrix: (Units=GPa)
#
#
# Indices 1 2 3 4 5 6 
#
# 1 98.6588 -8.2370 13.5622 0.0000 0.0000 0.0000
# 2 -8.2370 77.0138 22.2704 0.0000 0.0000 0.0000
# 3 13.5622 22.2704 51.7483 0.0000 0.0000 0.0000
# 4 0.0000 0.0000 0.0000 5.9375 0.0000 0.0000
# 5 0.0000 0.0000 0.0000 0.0000 29.9504 0.0000
# 6 0.0000 0.0000 0.0000 0.0000 0.0000 25.3962
#
#
#
# Elastic Compliance Matrix: (Units=1/GPa)
#
#
# Indices 1 2 3 4 5 6 
#
# 1 0.010850 0.002265 -0.003818 0.000000 0.000000 0.000000
# 2 0.002265 0.015303 -0.007179 0.000000 0.000000 0.000000
# 3 -0.003818 -0.007179 0.023415 0.000000 0.000000 0.000000
# 4 0.000000 0.000000 0.000000 0.168422 0.000000 0.000000
# 5 0.000000 0.000000 0.000000 0.000000 0.033389 0.000000
# 6 0.000000 0.000000 0.000000 0.000000 0.000000 0.039376
#
#
# Mechanical properties :
#
#
# Convention : Reuss Voigt Hill
#
# Bulk Modulus (GPa) = 31.15092 31.40135 31.27613
# Shear Modulus (GPa) = 15.67791 25.57849 20.62820
#
# Velocity S-wave (km/s) = 2.69894 3.44736 3.09585
# Velocity P-wave (km/s) = 4.91789 5.51683 5.22595
#
# Compressibility (1/GPa) = 0.03210178
#
# Stress axis : x y z
#
# Youngs Moduli (GPa) = 92.16700 65.34686 42.70835
#
# Poissons Ratio (x) = -0.14798 0.16306
# Poissons Ratio (y) = -0.20872 0.30662
# Poissons Ratio (z) = 0.35190 0.46914
#
# Static dielectric constant tensor:
#      x y z
#    x 1.858460 0.000000 0.000000 
#    y 0.000000 1.782260 0.000000 
#    z 0.000000 0.000000 1.732200 
# 
# From -- ./inp_files/889.got.cif
#   From: 2010.05.17/outbox.cif.g08.bks.cpg/sg62_1_cif.got.tgz:889.got - 2010.06.03 15:25:27.
