data_PCOD9464649
_publ_section_title
;
Structure prediction by ZEFSAII (Michael W. Deem and Ramdas Pophale) SiO2 
 PCOD9464649
Probable space group: P N M A
;
_chemical_formula_sum "Si O2"
_cell_formula_units_Z 40
_cell_length_a 23.914896
_cell_length_b 7.626530
_cell_length_c 10.523258
_cell_angle_alpha 90.000000
_cell_angle_beta 90.000000
_cell_angle_gamma 90.000000
_cell_volume 1919.312526
_symmetry_space_group_name_H-M "P N M A"
_symmetry_group_IT_number 62
_symmetry_cell_setting 'orthorhombic'
loop_
_space_group_symop_operation_xyz
x,y,z
1/2-x,-y,1/2+z
1/2+x,1/2-y,1/2-z
-x,1/2+y,-z
-x,-y,-z
1/2+x,y,1/2-z
1/2-x,1/2+y,1/2+z
x,1/2-y,z
loop_
_atom_site_type_symbol
_atom_site_label
_atom_site_fract_x
_atom_site_fract_y
_atom_site_fract_z
Si Si1 0.379309 0.461309 0.730349
Si Si2 0.821061 0.540142 0.503829
Si Si3 0.306382 0.462064 0.490525
Si Si4 0.618240 0.459184 0.752641
Si Si5 0.499581 0.539066 0.350155
O O1 0.380853 0.250000 0.721526
O O2 0.340567 0.524293 0.614007
O O3 0.442642 0.526207 0.710957
O O4 0.352779 0.506786 0.865014
O O5 0.816822 0.750000 0.487638
O O6 0.757386 0.473024 0.509047
O O7 0.855214 0.470274 0.382670
O O8 0.305303 0.250000 0.494761
O O9 0.339372 0.512211 0.363616
O O10 0.611730 0.250000 0.768634
O O11 0.557279 0.529875 0.713542
O O12 0.500000 0.500000 0.500000
O O13 0.499129 0.750000 0.337564
#
# Coordination Sequence:
#
# PCOD9464649 Si02
#       5
#     8   8   8   8   8
#     4  10  21  37  57  82 112 145 183 229 276 324
#     4  10  22  37  53  80 115 147 182 224 273 328
#     4  10  20  36  57  80 110 147 185 225 270 325
#     4  10  21  37  58  83 111 144 183 228 275 326
#     4  10  20  36  59  83 108 141 185 229 274 329
#
# _framework density 20.840796999999998
#
# number of rings (size 3 to 8) (size 9 to 14) (size 15 to 20)
#    0.000    2.000    2.000    1.200    0.000    5.600 
#    0.000    0.000    0.000    0.000    0.000    0.000 
#    0.000    0.000    0.000    0.000    0.000    0.000 
#
# Total GULP energy -223518.060598 kJ/mol
# GULP energy per Si atom -5587.951515 kJ/mol
# Density = 2.079336 g / cm^3
# Si number density = 20.840797 Si / 1000 Ang^3
#
#
#
# Elastic Constant Matrix: (Units=GPa)
#
#
# Indices 1 2 3 4 5 6 
#
# 1 237.6500 2.7301 115.6892 0.0000 0.0000 0.0000
# 2 2.7301 39.3130 -12.8696 0.0000 0.0000 0.0000
# 3 115.6892 -12.8696 180.2623 0.0000 0.0000 0.0000
# 4 0.0000 0.0000 0.0000 68.7114 0.0000 0.0000
# 5 0.0000 0.0000 0.0000 0.0000 -47.0995 0.0000
# 6 0.0000 0.0000 0.0000 0.0000 0.0000 16.9856
#
#
#
# Elastic Compliance Matrix: (Units=1/GPa)
#
#
# Indices 1 2 3 4 5 6 
#
# 1 0.006240 -0.001786 -0.004132 0.000000 0.000000 0.000000
# 2 -0.001786 0.026557 0.003042 0.000000 0.000000 0.000000
# 3 -0.004132 0.003042 0.008417 0.000000 0.000000 0.000000
# 4 0.000000 0.000000 0.000000 0.014554 0.000000 0.000000
# 5 0.000000 0.000000 0.000000 0.000000 -0.021232 0.000000
# 6 0.000000 0.000000 0.000000 0.000000 0.000000 0.058873
#
#
# Mechanical properties :
#
#
# Convention : Reuss Voigt Hill
#
# Bulk Modulus (GPa) = 28.19963 74.25829 51.22896
# Shear Modulus (GPa) = 45.05255 31.16452 38.10853
#
# Velocity S-wave (km/s) = 4.65450 3.87119 4.28080
# Velocity P-wave (km/s) = 6.51508 7.46257 7.00486
#
# Compressibility (1/GPa) = 0.03546145
#
# Stress axis : x y z
#
# Youngs Moduli (GPa) = 160.25708 37.65504 118.81199
#
# Poissons Ratio (x) = 0.06725 0.49096
# Poissons Ratio (y) = 0.28623 -0.36146
# Poissons Ratio (z) = 0.66222 -0.11456
#
# Static dielectric constant tensor:
#      x y z
#    x 1.746920 0.000000 0.000000 
#    y 0.000000 1.790030 0.000000 
#    z 0.000000 0.000000 1.685020 
# 
# From -- ./inp_files/8455.got.cif
#   From: 2010.05.17/outbox.cif.g08.bks.cpg/sg62_5_cif.got.tgz:8455.got - 2010.06.03 15:25:27.
