data_PCOD9464503
_publ_section_title
;
Structure prediction by ZEFSAII (Michael W. Deem and Ramdas Pophale) SiO2 
 PCOD9464503
Probable space group: P N M A
;
_chemical_formula_sum "Si O2"
_cell_formula_units_Z 56
_cell_length_a 9.172976
_cell_length_b 19.077647
_cell_length_c 16.312565
_cell_angle_alpha 90.000000
_cell_angle_beta 90.000000
_cell_angle_gamma 90.000000
_cell_volume 2854.679268
_symmetry_space_group_name_H-M "P N M A"
_symmetry_group_IT_number 62
_symmetry_cell_setting 'orthorhombic'
loop_
_space_group_symop_operation_xyz
x,y,z
1/2-x,-y,1/2+z
1/2+x,1/2-y,1/2-z
-x,1/2+y,-z
-x,-y,-z
1/2+x,y,1/2-z
1/2-x,1/2+y,1/2+z
x,1/2-y,z
loop_
_atom_site_type_symbol
_atom_site_label
_atom_site_fract_x
_atom_site_fract_y
_atom_site_fract_z
Si Si1 0.284533 0.417727 0.252443
Si Si2 0.150619 0.333986 0.978281
Si Si3 0.470866 0.164026 0.680083
Si Si4 0.034860 0.470903 0.363901
Si Si5 0.855251 0.832226 0.337333
Si Si6 0.975141 0.107855 0.521856
Si Si7 0.964414 0.665999 0.844286
O O1 0.178376 0.465120 0.308179
O O2 0.391390 0.460435 0.191922
O O3 0.392593 0.370725 0.307689
O O4 0.175299 0.367603 0.201466
O O5 0.166811 0.250000 0.972941
O O6 0.310547 0.365810 0.985759
O O7 0.070960 0.358340 0.895711
O O8 0.056720 0.349051 0.059245
O O9 0.467845 0.250000 0.678730
O O10 0.538482 0.140212 0.766154
O O11 0.306640 0.137564 0.669104
O O12 0.026016 0.539740 0.419435
O O13 0.035006 0.409081 0.431957
O O14 0.841039 0.750000 0.319290
O O15 0.924147 0.840252 0.426446
O O16 0.968498 0.750000 0.832631
#
# Coordination Sequence:
#
# PCOD9464503 Si02
#       7
#     8   8   8   8   8   8   8
#     4  10  21  42  61  84 117 157 200 243 287 349
#     4  10  20  36  59  88 122 152 187 243 300 349
#     4   9  19  34  53  84 119 148 182 231 290 354
#     4  10  24  41  61  80 119 157 198 243 287 341
#     4  10  20  35  58  85 116 151 191 242 296 349
#     4  11  22  40  58  87 116 155 198 241 289 353
#     4  10  20  36  62  91 119 151 192 247 302 346
#
# _framework density 19.616914999999999
#
# number of rings (size 3 to 8) (size 9 to 14) (size 15 to 20)
#    0.000    2.000    1.429    1.714    2.000    4.571 
#    0.000    3.571    0.000    0.000    0.000    0.000 
#    0.000    0.000    0.000    0.000    0.000    0.000 
#
# Total GULP energy -312658.491536 kJ/mol
# GULP energy per Si atom -5583.187349 kJ/mol
# Density = 1.957227 g / cm^3
# Si number density = 19.616915 Si / 1000 Ang^3
#
#
#
# Elastic Constant Matrix: (Units=GPa)
#
#
# Indices 1 2 3 4 5 6 
#
# 1 91.0005 5.5080 32.2435 0.0000 0.0000 0.0000
# 2 5.5080 14.8723 5.5073 0.0000 0.0000 0.0000
# 3 32.2435 5.5073 100.4133 0.0000 0.0000 0.0000
# 4 0.0000 0.0000 0.0000 31.7849 0.0000 0.0000
# 5 0.0000 0.0000 0.0000 0.0000 37.0193 0.0000
# 6 0.0000 0.0000 0.0000 0.0000 0.0000 8.1297
#
#
#
# Elastic Compliance Matrix: (Units=1/GPa)
#
#
# Indices 1 2 3 4 5 6 
#
# 1 0.012549 -0.003221 -0.003853 0.000000 0.000000 0.000000
# 2 -0.003221 0.069460 -0.002775 0.000000 0.000000 0.000000
# 3 -0.003853 -0.002775 0.011348 0.000000 0.000000 0.000000
# 4 0.000000 0.000000 0.000000 0.031461 0.000000 0.000000
# 5 0.000000 0.000000 0.000000 0.000000 0.027013 0.000000
# 6 0.000000 0.000000 0.000000 0.000000 0.000000 0.123006
#
#
# Mechanical properties :
#
#
# Convention : Reuss Voigt Hill
#
# Bulk Modulus (GPa) = 13.57616 32.53376 23.05496
# Shear Modulus (GPa) = 15.66962 26.25527 20.96244
#
# Velocity S-wave (km/s) = 2.82934 3.66238 3.27248
# Velocity P-wave (km/s) = 4.19633 5.87406 5.10460
#
# Compressibility (1/GPa) = 0.07365851
#
# Stress axis : x y z
#
# Youngs Moduli (GPa) = 79.68710 14.39688 88.11909
#
# Poissons Ratio (x) = 0.04637 0.33952
# Poissons Ratio (y) = 0.25666 0.24457
# Poissons Ratio (z) = 0.30703 0.03996
#
# Static dielectric constant tensor:
#      x y z
#    x 1.652270 0.000000 0.000000 
#    y 0.000000 1.717850 0.000000 
#    z 0.000000 0.000000 1.675120 
# 
# From -- ./inp_files/17206.got.cif
#   From: 2010.05.17/outbox.cif.g08.bks.cpg/sg62_9_cif.got.tgz:17206.got - 2010.06.03 15:25:27.
