data_PCOD9464831
_publ_section_title
;
Structure prediction by ZEFSAII (Michael W. Deem and Ramdas Pophale) SiO2 
 PCOD9464831
Probable space group: P N M A
;
_chemical_formula_sum "Si O2"
_cell_formula_units_Z 44
_cell_length_a 4.913323
_cell_length_b 12.918522
_cell_length_c 33.897504
_cell_angle_alpha 90.000000
_cell_angle_beta 90.000000
_cell_angle_gamma 90.000000
_cell_volume 2151.571908
_symmetry_space_group_name_H-M "P N M A"
_symmetry_group_IT_number 62
_symmetry_cell_setting 'orthorhombic'
loop_
_space_group_symop_operation_xyz
x,y,z
1/2-x,-y,1/2+z
1/2+x,1/2-y,1/2-z
-x,1/2+y,-z
-x,-y,-z
1/2+x,y,1/2-z
1/2-x,1/2+y,1/2+z
x,1/2-y,z
loop_
_atom_site_type_symbol
_atom_site_label
_atom_site_fract_x
_atom_site_fract_y
_atom_site_fract_z
Si Si1 0.695342 0.961541 0.895139
Si Si2 0.881713 0.125794 0.724704
Si Si3 0.153708 0.580163 0.028169
Si Si4 0.206017 0.057942 0.860870
Si Si5 0.437807 0.750000 0.977229
Si Si6 0.430720 0.750000 0.576472
Si Si7 0.330744 0.750000 0.418891
O O1 0.834614 0.851039 0.900382
O O2 0.696259 0.014743 0.938076
O O3 0.394128 0.966654 0.878175
O O4 0.891033 0.030691 0.867536
O O5 0.682166 0.098726 0.760875
O O6 0.866387 0.250000 0.719416
O O7 0.784222 0.076690 0.684140
O O8 0.955654 0.659036 0.051494
O O9 0.360300 0.650514 0.003177
O O10 0.000000 0.500000 0.000000
O O11 0.265953 0.159195 0.887352
O O12 0.746804 0.750000 0.963388
O O13 0.239831 0.750000 0.938937
#
# Coordination Sequence:
#
# PCOD9464831 Si02
#       7
#     8   8   8   8   4   4   4
#     4  11  25  39  62  84 119 160 212 252 314 355
#     4  10  20  36  62  97 129 160 188 230 291 369
#     4  10  21  40  58  83 114 162 213 261 314 357
#     4  11  22  42  61  92 127 163 193 243 300 386
#     4  11  24  38  60  78 115 151 204 276 309 357
#     4  12  24  42  58  86 110 155 208 266 307 349
#     4   9  22  36  58  86 121 160 202 248 308 346
#
# _framework density 20.450165999999999
#
# number of rings (size 3 to 8) (size 9 to 14) (size 15 to 20)
#    0.000    1.455    2.727    2.182    2.545    8.727 
#    0.000    0.000    0.000    0.000    0.000   12.727 
#    0.000    0.000    0.000    0.000    0.000    0.000 
#
# Total GULP energy -245166.530263 kJ/mol
# GULP energy per Si atom -5571.966597 kJ/mol
# Density = 2.040362 g / cm^3
# Si number density = 20.450166 Si / 1000 Ang^3
#
#
#
# Elastic Constant Matrix: (Units=GPa)
#
#
# Indices 1 2 3 4 5 6 
#
# 1 52.9758 -5.0656 2.6849 0.0000 0.0000 0.0000
# 2 -5.0656 81.4218 18.6408 0.0000 0.0000 0.0000
# 3 2.6849 18.6408 87.2921 0.0000 0.0000 0.0000
# 4 0.0000 0.0000 0.0000 16.1004 0.0000 0.0000
# 5 0.0000 0.0000 0.0000 0.0000 26.3134 0.0000
# 6 0.0000 0.0000 0.0000 0.0000 0.0000 18.1259
#
#
#
# Elastic Compliance Matrix: (Units=1/GPa)
#
#
# Indices 1 2 3 4 5 6 
#
# 1 0.019054 0.001387 -0.000882 0.000000 0.000000 0.000000
# 2 0.001387 0.013014 -0.002822 0.000000 0.000000 0.000000
# 3 -0.000882 -0.002822 0.012085 0.000000 0.000000 0.000000
# 4 0.000000 0.000000 0.000000 0.062110 0.000000 0.000000
# 5 0.000000 0.000000 0.000000 0.000000 0.038003 0.000000
# 6 0.000000 0.000000 0.000000 0.000000 0.000000 0.055170
#
#
# Mechanical properties :
#
#
# Convention : Reuss Voigt Hill
#
# Bulk Modulus (GPa) = 25.30357 28.24556 26.77456
# Shear Modulus (GPa) = 23.01564 25.80325 24.40944
#
# Velocity S-wave (km/s) = 3.35841 3.55598 3.45861
# Velocity P-wave (km/s) = 5.23820 5.54093 5.39169
#
# Compressibility (1/GPa) = 0.03952012
#
# Stress axis : x y z
#
# Youngs Moduli (GPa) = 52.48264 76.84005 82.74383
#
# Poissons Ratio (x) = -0.10661 0.07301
# Poissons Ratio (y) = -0.07282 0.23348
# Poissons Ratio (z) = 0.04631 0.21682
#
# Static dielectric constant tensor:
#      x y z
#    x 1.746290 0.000000 0.000000 
#    y 0.000000 1.732660 0.000000 
#    z 0.000000 0.000000 1.708270 
# 
# From -- ./inp_files/30383.got.cif
#   From: 2010.05.17/outbox.cif.g08.bks.cpg/sg62_16_cif.got.tgz:30383.got - 2010.06.03 15:25:27.
