data_PCOD9464323
_publ_section_title
;
Structure prediction by ZEFSAII (Michael W. Deem and Ramdas Pophale) SiO2 
 PCOD9464323
Probable space group: P N M A
;
_chemical_formula_sum "Si O2"
_cell_formula_units_Z 40
_cell_length_a 11.746420
_cell_length_b 13.697988
_cell_length_c 12.687054
_cell_angle_alpha 90.000000
_cell_angle_beta 90.000000
_cell_angle_gamma 90.000000
_cell_volume 2041.376425
_symmetry_space_group_name_H-M "P N M A"
_symmetry_group_IT_number 62
_symmetry_cell_setting 'orthorhombic'
loop_
_space_group_symop_operation_xyz
x,y,z
1/2-x,-y,1/2+z
1/2+x,1/2-y,1/2-z
-x,1/2+y,-z
-x,-y,-z
1/2+x,y,1/2-z
1/2-x,1/2+y,1/2+z
x,1/2-y,z
loop_
_atom_site_type_symbol
_atom_site_label
_atom_site_fract_x
_atom_site_fract_y
_atom_site_fract_z
Si Si1 0.260166 0.141101 0.710903
Si Si2 0.595145 0.532581 0.857065
Si Si3 0.115520 0.938954 0.873999
Si Si4 0.991335 0.358362 0.924099
Si Si5 0.341802 0.035505 0.914369
O O1 0.213811 0.250000 0.705204
O O2 0.169437 0.063891 0.668193
O O3 0.374095 0.135609 0.640946
O O4 0.300277 0.113114 0.828330
O O5 0.604948 0.591173 0.747774
O O6 0.464494 0.504763 0.878861
O O7 0.645547 0.573786 0.966270
O O8 0.246812 0.950059 0.908482
O O9 0.065820 0.049455 0.888247
O O10 0.043520 0.874397 0.954363
O O11 0.040765 0.250000 0.908416
#
# Coordination Sequence:
#
# PCOD9464323 Si02
#       5
#     8   8   8   8   8
#     4  10  20  35  55  81 110 145 187 233 279 334
#     4  10  20  35  56  82 112 146 185 230 289 342
#     4  10  20  35  60  82 111 155 187 228 287 338
#     4  10  20  36  56  83 110 145 193 233 272 336
#     4  10  20  35  54  83 111 144 182 233 284 341
#
# _framework density 19.594622999999999
#
# number of rings (size 3 to 8) (size 9 to 14) (size 15 to 20)
#    0.000    2.000    4.000    0.000    0.000    4.000 
#    0.000    1.000    0.000    4.800    0.000    0.000 
#    0.000    0.000    0.000    0.000    0.000    0.000 
#
# Total GULP energy -223131.377608 kJ/mol
# GULP energy per Si atom -5578.284440 kJ/mol
# Density = 1.955003 g / cm^3
# Si number density = 19.594623 Si / 1000 Ang^3
#
#
#
# Elastic Constant Matrix: (Units=GPa)
#
#
# Indices 1 2 3 4 5 6 
#
# 1 82.2737 8.6127 21.5616 0.0000 0.0000 0.0000
# 2 8.6127 44.1776 -4.4372 0.0000 0.0000 0.0000
# 3 21.5616 -4.4372 156.3244 0.0000 0.0000 0.0000
# 4 0.0000 0.0000 0.0000 -80.7857 0.0000 0.0000
# 5 0.0000 0.0000 0.0000 0.0000 32.8666 0.0000
# 6 0.0000 0.0000 0.0000 0.0000 0.0000 6.2145
#
#
#
# Elastic Compliance Matrix: (Units=1/GPa)
#
#
# Indices 1 2 3 4 5 6 
#
# 1 0.012925 -0.002707 -0.001860 0.000000 0.000000 0.000000
# 2 -0.002707 0.023267 0.001034 0.000000 0.000000 0.000000
# 3 -0.001860 0.001034 0.006683 0.000000 0.000000 0.000000
# 4 0.000000 0.000000 0.000000 -0.012378 0.000000 0.000000
# 5 0.000000 0.000000 0.000000 0.000000 0.030426 0.000000
# 6 0.000000 0.000000 0.000000 0.000000 0.000000 0.160915
#
#
# Mechanical properties :
#
#
# Convention : Reuss Voigt Hill
#
# Bulk Modulus (GPa) = 27.92475 37.13887 32.53181
# Shear Modulus (GPa) = 20.76068 8.79497 14.77782
#
# Velocity S-wave (km/s) = 3.25854 2.12090 2.74921
# Velocity P-wave (km/s) = 5.33288 4.99924 5.16875
#
# Compressibility (1/GPa) = 0.03581052
#
# Stress axis : x y z
#
# Youngs Moduli (GPa) = 77.36803 42.97856 149.63816
#
# Poissons Ratio (x) = 0.11633 0.27826
# Poissons Ratio (y) = 0.20941 -0.15469
# Poissons Ratio (z) = 0.14387 -0.04443
#
# Static dielectric constant tensor:
#      x y z
#    x 1.682370 0.000000 0.000000 
#    y 0.000000 1.655210 0.000000 
#    z 0.000000 0.000000 1.728400 
# 
# From -- ./inp_files/12041.got.cif
#   From: 2010.05.17/outbox.cif.g08.bks.cpg/sg62_7_cif.got.tgz:12041.got - 2010.06.03 15:25:27.
