data_PCOD9465343
_publ_section_title
;
Structure prediction by ZEFSAII (Michael W. Deem and Ramdas Pophale) SiO2 
 PCOD9465343
Probable space group: P N M A
;
_chemical_formula_sum "Si O2"
_cell_formula_units_Z 56
_cell_length_a 16.088547
_cell_length_b 19.885445
_cell_length_c 9.148661
_cell_angle_alpha 90.000000
_cell_angle_beta 90.000000
_cell_angle_gamma 90.000000
_cell_volume 2926.912052
_symmetry_space_group_name_H-M "P N M A"
_symmetry_group_IT_number 62
_symmetry_cell_setting 'orthorhombic'
loop_
_space_group_symop_operation_xyz
x,y,z
1/2-x,-y,1/2+z
1/2+x,1/2-y,1/2-z
-x,1/2+y,-z
-x,-y,-z
1/2+x,y,1/2-z
1/2-x,1/2+y,1/2+z
x,1/2-y,z
loop_
_atom_site_type_symbol
_atom_site_label
_atom_site_fract_x
_atom_site_fract_y
_atom_site_fract_z
Si Si1 0.499429 0.066717 0.401789
Si Si2 0.574769 0.966194 0.905698
Si Si3 0.478422 0.828572 0.350450
Si Si4 0.162695 0.478438 0.202846
Si Si5 0.773558 0.943606 0.499553
Si Si6 0.876296 0.121263 0.649067
Si Si7 0.794548 0.829662 0.273275
O O1 0.443076 0.050662 0.262043
O O2 0.488847 0.128404 0.511710
O O3 0.590603 0.073022 0.331589
O O4 0.500000 0.000000 0.500000
O O5 0.646801 0.020244 0.927892
O O6 0.601373 0.897058 0.984059
O O7 0.500000 0.000000 0.000000
O O8 0.473638 0.750000 0.386558
O O9 0.548026 0.840001 0.225463
O O10 0.385151 0.849346 0.294986
O O11 0.201697 0.506711 0.055132
O O12 0.221059 0.446296 0.326300
O O13 0.128256 0.547119 0.276018
O O14 0.773176 0.871758 0.420329
O O15 0.785382 0.153452 0.671324
O O16 0.797733 0.750000 0.300213
#
# Coordination Sequence:
#
# PCOD9465343 Si02
#       7
#     8   8   8   8   8   8   8
#     4  12  22  37  61  88 124 155 202 257 313 364
#     4  11  20  36  59  92 118 154 199 262 310 370
#     4  11  24  40  61  88 124 168 204 252 313 374
#     4  10  22  34  58  91 117 153 193 255 306 360
#     4  10  21  36  57  90 119 148 200 247 312 358
#     4  10  20  40  62  89 118 160 207 254 303 370
#     4  10  22  39  62  87 122 166 210 248 302 381
#
# _framework density 19.132791999999998
#
# number of rings (size 3 to 8) (size 9 to 14) (size 15 to 20)
#    0.000    1.429    4.286    2.143    8.000    0.000 
#    0.000    2.143    0.000    0.000    0.000    0.000 
#    0.000    0.000    0.000    0.000    0.000    0.000 
#
# Total GULP energy -312213.939891 kJ/mol
# GULP energy per Si atom -5575.248927 kJ/mol
# Density = 1.908924 g / cm^3
# Si number density = 19.132792 Si / 1000 Ang^3
#
#
#
# Elastic Constant Matrix: (Units=GPa)
#
#
# Indices 1 2 3 4 5 6 
#
# 1 79.0601 1.4630 7.6599 0.0000 0.0000 0.0000
# 2 1.4630 65.1511 16.1437 0.0000 0.0000 0.0000
# 3 7.6599 16.1437 94.4533 0.0000 0.0000 0.0000
# 4 0.0000 0.0000 0.0000 20.3888 0.0000 0.0000
# 5 0.0000 0.0000 0.0000 0.0000 34.7429 0.0000
# 6 0.0000 0.0000 0.0000 0.0000 0.0000 24.4469
#
#
#
# Elastic Compliance Matrix: (Units=1/GPa)
#
#
# Indices 1 2 3 4 5 6 
#
# 1 0.012749 -0.000031 -0.001029 0.000000 0.000000 0.000000
# 2 -0.000031 0.016028 -0.002737 0.000000 0.000000 0.000000
# 3 -0.001029 -0.002737 0.011138 0.000000 0.000000 0.000000
# 4 0.000000 0.000000 0.000000 0.049047 0.000000 0.000000
# 5 0.000000 0.000000 0.000000 0.000000 0.028783 0.000000
# 6 0.000000 0.000000 0.000000 0.000000 0.000000 0.040905
#
#
# Mechanical properties :
#
#
# Convention : Reuss Voigt Hill
#
# Bulk Modulus (GPa) = 30.93924 32.13308 31.53616
# Shear Modulus (GPa) = 28.24588 30.14225 29.19407
#
# Velocity S-wave (km/s) = 3.84644 3.97347 3.91047
# Velocity P-wave (km/s) = 5.99439 6.15487 6.07516
#
# Compressibility (1/GPa) = 0.03232142
#
# Stress axis : x y z
#
# Youngs Moduli (GPa) = 78.43856 62.39157 89.77918
#
# Poissons Ratio (x) = 0.00196 0.09234
# Poissons Ratio (y) = 0.00246 0.24572
# Poissons Ratio (z) = 0.08068 0.17076
#
# Static dielectric constant tensor:
#      x y z
#    x 1.946240 0.000000 0.000000 
#    y 0.000000 1.641240 0.000000 
#    z 0.000000 0.000000 1.717490 
# 
# From -- ./inp_files/6792.got.cif
#   From: 2010.05.17/outbox.cif.g08.bks.cpg/sg62_4_cif.got.tgz:6792.got - 2010.06.03 15:25:27.
