data_PCOD9465053
_publ_section_title
;
Structure prediction by ZEFSAII (Michael W. Deem and Ramdas Pophale) SiO2 
 PCOD9465053
Probable space group: P N M A
;
_chemical_formula_sum "Si O2"
_cell_formula_units_Z 40
_cell_length_a 21.681834
_cell_length_b 9.826591
_cell_length_c 7.657363
_cell_angle_alpha 90.000000
_cell_angle_beta 90.000000
_cell_angle_gamma 90.000000
_cell_volume 1631.466388
_symmetry_space_group_name_H-M "P N M A"
_symmetry_group_IT_number 62
_symmetry_cell_setting 'orthorhombic'
loop_
_space_group_symop_operation_xyz
x,y,z
1/2-x,-y,1/2+z
1/2+x,1/2-y,1/2-z
-x,1/2+y,-z
-x,-y,-z
1/2+x,y,1/2-z
1/2-x,1/2+y,1/2+z
x,1/2-y,z
loop_
_atom_site_type_symbol
_atom_site_label
_atom_site_fract_x
_atom_site_fract_y
_atom_site_fract_z
Si Si1 0.213055 0.250000 0.506162
Si Si2 0.499904 0.250000 0.288833
Si Si3 0.402163 0.250000 0.881648
Si Si4 0.293604 0.514720 0.449099
Si Si5 0.861082 0.750000 0.841320
Si Si6 0.536129 0.250000 0.878140
Si Si7 0.727882 0.750000 0.204650
Si Si8 0.595797 0.961991 0.803376
O O1 0.259680 0.377695 0.508398
O O2 0.161968 0.250000 0.361127
O O3 0.201042 0.250000 0.711206
O O4 0.566132 0.250000 0.379858
O O5 0.455611 0.380080 0.308475
O O6 0.520171 0.250000 0.084216
O O7 0.468417 0.250000 0.790023
O O8 0.344763 0.250000 0.751133
O O9 0.399258 0.379316 0.014131
O O10 0.331877 0.611084 0.580863
O O11 0.236368 0.611164 0.400815
O O12 0.339672 0.466854 0.297000
O O13 0.571731 0.387123 0.835897
#
# Coordination Sequence:
#
# PCOD9465053 Si02
#       8
#     4   4   4   8   4   4   4   8
#     4  12  26  44  67  96 138 180 228 284 342 411
#     4  10  22  42  66  98 136 184 218 284 352 406
#     4  10  22  41  69  97 136 176 226 285 337 419
#     4  11  26  44  66 100 132 184 225 279 350 405
#     4  11  27  45  67 101 142 178 239 281 338 426
#     4  10  20  37  66 105 131 171 234 275 347 403
#     4  11  27  43  67  99 131 181 227 281 344 403
#     4  10  22  41  69  97 135 179 222 288 342 407
#
# _framework density 24.517821000000001
#
# number of rings (size 3 to 8) (size 9 to 14) (size 15 to 20)
#    0.000    1.600    0.000    6.000   11.200    5.600 
#    0.000    2.000    0.000    0.000    0.000    0.000 
#    0.000    0.000    0.000    0.000    0.000    0.000 
#
# Total GULP energy -223337.881849 kJ/mol
# GULP energy per Si atom -5583.447046 kJ/mol
# Density = 2.446202 g / cm^3
# Si number density = 24.517821 Si / 1000 Ang^3
#
#
#
# Elastic Constant Matrix: (Units=GPa)
#
#
# Indices 1 2 3 4 5 6 
#
# 1 129.4964 17.6828 1.8727 0.0000 0.0000 0.0000
# 2 17.6828 132.1216 -5.5246 0.0000 0.0000 0.0000
# 3 1.8727 -5.5246 21.1368 0.0000 0.0000 0.0000
# 4 0.0000 0.0000 0.0000 14.1708 0.0000 0.0000
# 5 0.0000 0.0000 0.0000 0.0000 -3.9878 0.0000
# 6 0.0000 0.0000 0.0000 0.0000 0.0000 59.9870
#
#
#
# Elastic Compliance Matrix: (Units=1/GPa)
#
#
# Indices 1 2 3 4 5 6 
#
# 1 0.007886 -0.001097 -0.000985 0.000000 0.000000 0.000000
# 2 -0.001097 0.007805 0.002137 0.000000 0.000000 0.000000
# 3 -0.000985 0.002137 0.047957 0.000000 0.000000 0.000000
# 4 0.000000 0.000000 0.000000 0.070568 0.000000 0.000000
# 5 0.000000 0.000000 0.000000 0.000000 -0.250762 0.000000
# 6 0.000000 0.000000 0.000000 0.000000 0.000000 0.016670
#
#
# Mechanical properties :
#
#
# Convention : Reuss Voigt Hill
#
# Bulk Modulus (GPa) = 15.68426 34.53517 25.10972
# Shear Modulus (GPa) = -63.50509 31.94892 -15.77808
#
# Velocity S-wave (km/s) = -5.09488 3.61375 -2.53955
# Velocity P-wave (km/s) = 5.31032 5.61503 1.29017
#
# Compressibility (1/GPa) = 0.06375820
#
# Stress axis : x y z
#
# Youngs Moduli (GPa) = 126.80338 128.12422 20.85212
#
# Poissons Ratio (x) = 0.14051 0.02055
# Poissons Ratio (y) = 0.13906 -0.04456
# Poissons Ratio (z) = 0.12495 -0.27382
#
# Static dielectric constant tensor:
#      x y z
#    x 2.005710 0.000000 0.000000 
#    y 0.000000 2.121300 0.000000 
#    z 0.000000 0.000000 2.084770 
# 
# From -- ./inp_files/9171.got.cif
#   From: 2010.05.17/outbox.cif.g08.bks.cpg/sg62_5_cif.got.tgz:9171.got - 2010.06.03 15:25:27.
