data_PCOD9465645
_publ_section_title
;
Structure prediction by ZEFSAII (Michael W. Deem and Ramdas Pophale) SiO2 
 PCOD9465645
Probable space group: P N M A
;
_chemical_formula_sum "Si O2"
_cell_formula_units_Z 60
_cell_length_a 11.835109
_cell_length_b 7.703426
_cell_length_c 29.946330
_cell_angle_alpha 90.000000
_cell_angle_beta 90.000000
_cell_angle_gamma 90.000000
_cell_volume 2730.233450
_symmetry_space_group_name_H-M "P N M A"
_symmetry_group_IT_number 62
_symmetry_cell_setting 'orthorhombic'
loop_
_space_group_symop_operation_xyz
x,y,z
1/2-x,-y,1/2+z
1/2+x,1/2-y,1/2-z
-x,1/2+y,-z
-x,-y,-z
1/2+x,y,1/2-z
1/2-x,1/2+y,1/2+z
x,1/2-y,z
loop_
_atom_site_type_symbol
_atom_site_label
_atom_site_fract_x
_atom_site_fract_y
_atom_site_fract_z
Si Si1 0.204632 0.053654 0.324289
Si Si2 0.297179 0.041898 0.094917
Si Si3 0.367057 0.457307 0.997680
Si Si4 0.060703 0.250000 0.890551
Si Si5 0.575880 0.449634 0.346120
Si Si6 0.953183 0.950319 0.326532
Si Si7 0.241369 0.550546 0.226657
Si Si8 0.200819 0.547490 0.919465
O O1 0.245919 0.250000 0.319817
O O2 0.247500 0.985645 0.371659
O O3 0.240184 0.957387 0.279596
O O4 0.069544 0.049788 0.325784
O O5 0.313609 0.250000 0.096516
O O6 0.177498 0.007739 0.118680
O O7 0.394567 0.959423 0.125211
O O8 0.309069 0.984446 0.044049
O O9 0.356767 0.250000 0.994510
O O10 0.299855 0.534165 0.955947
O O11 0.500000 0.500000 0.000000
O O12 0.103208 0.405891 0.925535
O O13 0.015770 0.404469 0.855775
O O14 0.539554 0.250000 0.352630
O O15 0.635046 0.462642 0.297528
O O16 0.978592 0.750000 0.314794
O O17 0.857942 0.022425 0.293142
O O18 0.237218 0.750000 0.211466
O O19 0.166625 0.750000 0.917433
#
# Coordination Sequence:
#
# PCOD9465645 Si02
#       8
#     8   8   8   4   8   8   8   8
#     4  11  24  40  60  88 129 172 212 258 328 388
#     4   9  20  38  65  94 129 162 213 269 322 387
#     4  11  22  40  66  99 134 172 213 270 337 397
#     4  12  24  44  68  90 130 172 216 274 322 394
#     4  10  21  42  69  95 126 171 219 271 328 379
#     4  10  21  36  61  93 125 162 206 263 321 383
#     4  10  21  39  62  94 128 164 216 269 313 385
#     4  11  26  45  64  94 134 173 219 270 329 403
#
# _framework density 21.976141999999999
#
# number of rings (size 3 to 8) (size 9 to 14) (size 15 to 20)
#    0.000    1.600    1.333    2.800    2.800    6.933 
#    2.400    2.000    0.000    0.000    0.000    0.000 
#    0.000    0.000    0.000    0.000    0.000    0.000 
#
# Total GULP energy -334287.823830 kJ/mol
# GULP energy per Si atom -5571.463731 kJ/mol
# Density = 2.192612 g / cm^3
# Si number density = 21.976142 Si / 1000 Ang^3
#
#
#
# Elastic Constant Matrix: (Units=GPa)
#
#
# Indices 1 2 3 4 5 6 
#
# 1 33.4690 5.6436 23.5701 0.0000 0.0000 0.0000
# 2 5.6436 98.1264 13.5938 0.0000 0.0000 0.0000
# 3 23.5701 13.5938 128.2352 0.0000 0.0000 0.0000
# 4 0.0000 0.0000 0.0000 29.3276 0.0000 0.0000
# 5 0.0000 0.0000 0.0000 0.0000 17.0411 0.0000
# 6 0.0000 0.0000 0.0000 0.0000 0.0000 -16.7150
#
#
#
# Elastic Compliance Matrix: (Units=1/GPa)
#
#
# Indices 1 2 3 4 5 6 
#
# 1 0.034442 -0.001120 -0.006212 0.000000 0.000000 0.000000
# 2 -0.001120 0.010379 -0.000894 0.000000 0.000000 0.000000
# 3 -0.006212 -0.000894 0.009035 0.000000 0.000000 0.000000
# 4 0.000000 0.000000 0.000000 0.034098 0.000000 0.000000
# 5 0.000000 0.000000 0.000000 0.000000 0.058682 0.000000
# 6 0.000000 0.000000 0.000000 0.000000 0.000000 -0.059827
#
#
# Mechanical properties :
#
#
# Convention : Reuss Voigt Hill
#
# Bulk Modulus (GPa) = 26.73587 38.38283 32.55935
# Shear Modulus (GPa) = 43.20440 20.39895 31.80168
#
# Velocity S-wave (km/s) = 4.43873 3.05000 3.80820
# Velocity P-wave (km/s) = 6.20178 5.46872 5.84675
#
# Compressibility (1/GPa) = 0.03740293
#
# Stress axis : x y z
#
# Youngs Moduli (GPa) = 29.03443 96.34585 110.68403
#
# Poissons Ratio (x) = 0.10794 0.68754
# Poissons Ratio (y) = 0.03253 0.09899
# Poissons Ratio (z) = 0.18036 0.08617
#
# Static dielectric constant tensor:
#      x y z
#    x 1.832660 0.000000 0.000000 
#    y 0.000000 1.810890 0.000000 
#    z 0.000000 0.000000 1.801660 
# 
# From -- ./inp_files/31160.got.cif
#   From: 2010.05.17/outbox.cif.g08.bks.cpg/sg62_16_cif.got.tgz:31160.got - 2010.06.03 15:25:27.
