data_PCOD9465205
_publ_section_title
;
Structure prediction by ZEFSAII (Michael W. Deem and Ramdas Pophale) SiO2 
 PCOD9465205
Probable space group: P N M A
;
_chemical_formula_sum "Si O2"
_cell_formula_units_Z 40
_cell_length_a 8.696417
_cell_length_b 13.433304
_cell_length_c 14.292743
_cell_angle_alpha 90.000000
_cell_angle_beta 90.000000
_cell_angle_gamma 90.000000
_cell_volume 1669.701295
_symmetry_space_group_name_H-M "P N M A"
_symmetry_group_IT_number 62
_symmetry_cell_setting 'orthorhombic'
loop_
_space_group_symop_operation_xyz
x,y,z
1/2-x,-y,1/2+z
1/2+x,1/2-y,1/2-z
-x,1/2+y,-z
-x,-y,-z
1/2+x,y,1/2-z
1/2-x,1/2+y,1/2+z
x,1/2-y,z
loop_
_atom_site_type_symbol
_atom_site_label
_atom_site_fract_x
_atom_site_fract_y
_atom_site_fract_z
Si Si1 0.891865 0.637132 0.906953
Si Si2 0.456228 0.369875 0.038675
Si Si3 0.890670 0.131445 0.665172
Si Si4 0.694354 0.140142 0.197649
Si Si5 0.422464 0.525320 0.327909
O O1 0.925121 0.750000 0.946656
O O2 0.719664 0.605717 0.936087
O O3 0.891086 0.651305 0.794937
O O4 0.002410 0.540779 0.910728
O O5 0.458214 0.250000 0.043923
O O6 0.586630 0.397708 0.113516
O O7 0.482931 0.396452 0.930179
O O8 0.904591 0.250000 0.678399
O O9 0.711023 0.104657 0.647329
O O10 0.958285 0.076364 0.756626
O O11 0.755337 0.250000 0.171689
O O12 0.821747 0.059942 0.220747
#
# Coordination Sequence:
#
# PCOD9465205 Si02
#       5
#     8   8   8   8   8
#     4  10  20  38  66 101 135 164 204 270 340 400
#     4   9  21  43  69  95 132 174 217 268 328 389
#     4  11  26  47  67  90 128 184 233 272 309 374
#     4  10  20  38  65 100 134 164 202 264 340 406
#     4  12  23  40  66  98 129 172 223 266 332 385
#
# _framework density 23.956381
#
# number of rings (size 3 to 8) (size 9 to 14) (size 15 to 20)
#    0.000    1.600    2.000    2.400    0.000    4.800 
#    0.000    2.000    0.000    4.800    0.000    1.400 
#    0.000    0.000    0.000    0.000    0.000    0.000 
#
# Total GULP energy -223071.992574 kJ/mol
# GULP energy per Si atom -5576.799814 kJ/mol
# Density = 2.390186 g / cm^3
# Si number density = 23.956381 Si / 1000 Ang^3
#
#
#
# Elastic Constant Matrix: (Units=GPa)
#
#
# Indices 1 2 3 4 5 6 
#
# 1 76.5345 41.2114 21.8859 0.0000 0.0000 0.0000
# 2 41.2114 131.8781 54.3871 0.0000 0.0000 0.0000
# 3 21.8859 54.3871 68.7298 0.0000 0.0000 0.0000
# 4 0.0000 0.0000 0.0000 0.0741 0.0000 0.0000
# 5 0.0000 0.0000 0.0000 0.0000 19.1200 0.0000
# 6 0.0000 0.0000 0.0000 0.0000 0.0000 39.5131
#
#
#
# Elastic Compliance Matrix: (Units=1/GPa)
#
#
# Indices 1 2 3 4 5 6 
#
# 1 0.015838 -0.004259 -0.001673 0.000000 0.000000 0.000000
# 2 -0.004259 0.012402 -0.008457 0.000000 0.000000 0.000000
# 3 -0.001673 -0.008457 0.021775 0.000000 0.000000 0.000000
# 4 0.000000 0.000000 0.000000 13.489489 0.000000 0.000000
# 5 0.000000 0.000000 0.000000 0.000000 0.052301 0.000000
# 6 0.000000 0.000000 0.000000 0.000000 0.000000 0.025308
#
#
# Mechanical properties :
#
#
# Convention : Reuss Voigt Hill
#
# Bulk Modulus (GPa) = 47.09121 56.90124 51.99622
# Shear Modulus (GPa) = 0.36622 22.38532 11.37577
#
# Velocity S-wave (km/s) = 0.39141 3.06014 2.18148
# Velocity P-wave (km/s) = 4.46139 6.02408 5.30064
#
# Compressibility (1/GPa) = 0.02123539
#
# Stress axis : x y z
#
# Youngs Moduli (GPa) = 63.13960 80.63445 45.92464
#
# Poissons Ratio (x) = 0.34346 0.07682
# Poissons Ratio (y) = 0.26894 0.38840
# Poissons Ratio (z) = 0.10562 0.68195
#
# Static dielectric constant tensor:
#      x y z
#    x 1.957310 0.000000 0.000000 
#    y 0.000000 2.049330 0.000000 
#    z 0.000000 0.000000 1.920070 
# 
# From -- ./inp_files/16686.got.cif
#   From: 2010.05.17/outbox.cif.g08.bks.cpg/sg62_9_cif.got.tgz:16686.got - 2010.06.03 15:25:27.
