data_PCOD9465391
_publ_section_title
;
Structure prediction by ZEFSAII (Michael W. Deem and Ramdas Pophale) SiO2 
 PCOD9465391
Probable space group: P N M A
;
_chemical_formula_sum "Si O2"
_cell_formula_units_Z 36
_cell_length_a 8.099458
_cell_length_b 9.816242
_cell_length_c 18.741884
_cell_angle_alpha 90.000000
_cell_angle_beta 90.000000
_cell_angle_gamma 90.000000
_cell_volume 1490.096724
_symmetry_space_group_name_H-M "P N M A"
_symmetry_group_IT_number 62
_symmetry_cell_setting 'orthorhombic'
loop_
_space_group_symop_operation_xyz
x,y,z
1/2-x,-y,1/2+z
1/2+x,1/2-y,1/2-z
-x,1/2+y,-z
-x,-y,-z
1/2+x,y,1/2-z
1/2-x,1/2+y,1/2+z
x,1/2-y,z
loop_
_atom_site_type_symbol
_atom_site_label
_atom_site_fract_x
_atom_site_fract_y
_atom_site_fract_z
Si Si1 0.134770 0.407771 0.960771
Si Si2 0.176137 0.022254 0.332485
Si Si3 0.962472 0.250000 0.739208
Si Si4 0.834422 0.454215 0.407990
Si Si5 0.760848 0.250000 0.861136
Si Si6 0.219139 0.250000 0.209854
O O1 0.083505 0.250000 0.957275
O O2 0.296951 0.410819 0.011633
O O3 0.180963 0.477613 0.886269
O O4 0.000000 0.500000 0.000000
O O5 0.224124 0.131913 0.273169
O O6 0.019070 0.072449 0.379198
O O7 0.112039 0.886975 0.293811
O O8 0.938021 0.250000 0.823504
O O9 0.147559 0.250000 0.710140
O O10 0.786511 0.613079 0.401659
O O11 0.723426 0.368384 0.352706
#
# Coordination Sequence:
#
# PCOD9465391 Si02
#       6
#     8   8   4   8   4   4
#     4  12  29  49  71 103 150 196 253 309 380 444
#     4  11  25  46  73 102 143 193 245 302 373 443
#     4  10  20  41  63  94 127 177 222 279 342 425
#     4  11  25  47  73 104 143 193 246 308 367 452
#     4  10  22  39  67  96 131 171 226 279 360 413
#     4  12  24  42  76 114 144 182 248 312 372 440
#
# _framework density 24.159503999999998
#
# number of rings (size 3 to 8) (size 9 to 14) (size 15 to 20)
#    0.000    0.889    4.444    1.333    3.111    5.333 
#    0.000    0.000    0.000    0.000    0.000    0.000 
#    0.000    0.000    0.000    0.000    0.000    0.000 
#
# Total GULP energy -200586.441067 kJ/mol
# GULP energy per Si atom -5571.845585 kJ/mol
# Density = 2.410452 g / cm^3
# Si number density = 24.159504 Si / 1000 Ang^3
#
#
#
# Elastic Constant Matrix: (Units=GPa)
#
#
# Indices 1 2 3 4 5 6 
#
# 1 27.6342 17.9671 16.5861 0.0000 0.0000 0.0000
# 2 17.9671 182.6869 35.0520 0.0000 0.0000 0.0000
# 3 16.5861 35.0520 88.1065 0.0000 0.0000 0.0000
# 4 0.0000 0.0000 0.0000 15.4180 0.0000 0.0000
# 5 0.0000 0.0000 0.0000 0.0000 36.1605 0.0000
# 6 0.0000 0.0000 0.0000 0.0000 0.0000 -7.1512
#
#
#
# Elastic Compliance Matrix: (Units=1/GPa)
#
#
# Indices 1 2 3 4 5 6 
#
# 1 0.042113 -0.002837 -0.006799 0.000000 0.000000 0.000000
# 2 -0.002837 0.006117 -0.001900 0.000000 0.000000 0.000000
# 3 -0.006799 -0.001900 0.013386 0.000000 0.000000 0.000000
# 4 0.000000 0.000000 0.000000 0.064859 0.000000 0.000000
# 5 0.000000 0.000000 0.000000 0.000000 0.027654 0.000000
# 6 0.000000 0.000000 0.000000 0.000000 0.000000 -0.139836
#
#
# Mechanical properties :
#
#
# Convention : Reuss Voigt Hill
#
# Bulk Modulus (GPa) = 25.94444 48.62642 37.28543
# Shear Modulus (GPa) = 99.57695 24.14027 61.85861
#
# Velocity S-wave (km/s) = 6.42697 3.16445 5.06555
# Velocity P-wave (km/s) = 8.11398 5.78987 7.04838
#
# Compressibility (1/GPa) = 0.03854390
#
# Stress axis : x y z
#
# Youngs Moduli (GPa) = 23.74590 163.46915 74.70751
#
# Poissons Ratio (x) = 0.46380 0.50793
# Poissons Ratio (y) = 0.06737 0.14191
# Poissons Ratio (z) = 0.16145 0.31053
#
# Static dielectric constant tensor:
#      x y z
#    x 2.087640 0.000000 0.000000 
#    y 0.000000 1.850520 0.000000 
#    z 0.000000 0.000000 1.882210 
# 
# From -- ./inp_files/25639.got.cif
#   From: 2010.05.17/outbox.cif.g08.bks.cpg/sg62_13_cif.got.tgz:25639.got - 2010.06.03 15:25:27.
