data_PCOD9465266
_publ_section_title
;
Structure prediction by ZEFSAII (Michael W. Deem and Ramdas Pophale) SiO2 
 PCOD9465266
Probable space group: P N M A
;
_chemical_formula_sum "Si O2"
_cell_formula_units_Z 48
_cell_length_a 7.978252
_cell_length_b 14.517701
_cell_length_c 17.099965
_cell_angle_alpha 90.000000
_cell_angle_beta 90.000000
_cell_angle_gamma 90.000000
_cell_volume 1980.618443
_symmetry_space_group_name_H-M "P N M A"
_symmetry_group_IT_number 62
_symmetry_cell_setting 'orthorhombic'
loop_
_space_group_symop_operation_xyz
x,y,z
1/2-x,-y,1/2+z
1/2+x,1/2-y,1/2-z
-x,1/2+y,-z
-x,-y,-z
1/2+x,y,1/2-z
1/2-x,1/2+y,1/2+z
x,1/2-y,z
loop_
_atom_site_type_symbol
_atom_site_label
_atom_site_fract_x
_atom_site_fract_y
_atom_site_fract_z
Si Si1 0.957688 0.108574 0.998305
Si Si2 0.245086 0.958663 0.130451
Si Si3 0.791898 0.351260 0.591026
Si Si4 0.579991 0.860147 0.930953
Si Si5 0.726635 0.647838 0.655314
Si Si6 0.391228 0.531911 0.281375
O O1 0.120061 0.153688 0.960775
O O2 0.800808 0.110972 0.939041
O O3 0.903435 0.141992 0.082966
O O4 0.000000 0.000000 0.000000
O O5 0.296554 0.060030 0.100111
O O6 0.380765 0.928341 0.194502
O O7 0.072618 0.963515 0.180037
O O8 0.832362 0.250000 0.621510
O O9 0.925189 0.379509 0.524715
O O10 0.737447 0.418475 0.659714
O O11 0.623504 0.750000 0.922899
O O12 0.405666 0.872670 0.884875
O O13 0.730203 0.750000 0.688650
O O14 0.669773 0.573652 0.718255
#
# Coordination Sequence:
#
# PCOD9465266 Si02
#       6
#     8   8   8   8   8   8
#     4  11  19  39  62  91 113 155 206 242 299 353
#     4  11  22  38  59  84 119 158 197 251 297 360
#     4  10  20  39  62  84 117 156 198 247 295 357
#     4  10  21  36  59  90 116 152 201 247 299 355
#     4  11  22  37  60  89 123 155 196 248 298 356
#     4  11  23  39  57  86 118 158 200 238 309 360
#
# _framework density 24.234853999999999
#
# number of rings (size 3 to 8) (size 9 to 14) (size 15 to 20)
#    0.000    1.333    5.000    1.500    0.000    6.667 
#    0.000    4.167    0.000    0.000    0.000    0.000 
#    0.000    0.000    0.000    0.000    0.000    0.000 
#
# Total GULP energy -268473.474629 kJ/mol
# GULP energy per Si atom -5593.197388 kJ/mol
# Density = 2.417969 g / cm^3
# Si number density = 24.234854 Si / 1000 Ang^3
#
#
#
# Elastic Constant Matrix: (Units=GPa)
#
#
# Indices 1 2 3 4 5 6 
#
# 1 80.6418 -17.6277 -17.3122 0.0000 0.0000 0.0000
# 2 -17.6277 37.2101 -21.1591 0.0000 0.0000 0.0000
# 3 -17.3122 -21.1591 60.3603 0.0000 0.0000 0.0000
# 4 0.0000 0.0000 0.0000 -0.2264 0.0000 0.0000
# 5 0.0000 0.0000 0.0000 0.0000 39.0348 0.0000
# 6 0.0000 0.0000 0.0000 0.0000 0.0000 23.0569
#
#
#
# Elastic Compliance Matrix: (Units=1/GPa)
#
#
# Indices 1 2 3 4 5 6 
#
# 1 0.017597 0.013996 0.009953 0.000000 0.000000 0.000000
# 2 0.013996 0.044697 0.019683 0.000000 0.000000 0.000000
# 3 0.009953 0.019683 0.026322 0.000000 0.000000 0.000000
# 4 0.000000 0.000000 0.000000 -4.417129 0.000000 0.000000
# 5 0.000000 0.000000 0.000000 0.000000 0.025618 0.000000
# 6 0.000000 0.000000 0.000000 0.000000 0.000000 0.043371
#
#
# Mechanical properties :
#
#
# Convention : Reuss Voigt Hill
#
# Bulk Modulus (GPa) = 5.68576 7.33493 6.51035
# Shear Modulus (GPa) = -1.16600 27.99379 13.41389
#
# Velocity S-wave (km/s) = -0.69438 3.40237 2.35520
# Velocity P-wave (km/s) = 1.30702 4.29744 3.17619
#
# Compressibility (1/GPa) = 0.17587810
#
# Stress axis : x y z
#
# Youngs Moduli (GPa) = 56.82905 22.37291 37.99171
#
# Poissons Ratio (x) = -0.31313 -0.37814
# Poissons Ratio (y) = -0.79537 -0.74777
# Poissons Ratio (z) = -0.56563 -0.44036
#
# Static dielectric constant tensor:
#      x y z
#    x 1.986220 0.000000 0.000000 
#    y 0.000000 1.908010 0.000000 
#    z 0.000000 0.000000 1.943340 
# 
# From -- ./inp_files/22204.got.cif
#   From: 2010.05.17/outbox.cif.g08.bks.cpg/sg62_12_cif.got.tgz:22204.got - 2010.06.03 15:25:27.
