data_PCOD9465317
_publ_section_title
;
Structure prediction by ZEFSAII (Michael W. Deem and Ramdas Pophale) SiO2 
 PCOD9465317
Probable space group: P N M A
;
_chemical_formula_sum "Si O2"
_cell_formula_units_Z 48
_cell_length_a 9.673454
_cell_length_b 8.685132
_cell_length_c 28.861003
_cell_angle_alpha 90.000000
_cell_angle_beta 90.000000
_cell_angle_gamma 90.000000
_cell_volume 2424.763657
_symmetry_space_group_name_H-M "P N M A"
_symmetry_group_IT_number 62
_symmetry_cell_setting 'orthorhombic'
loop_
_space_group_symop_operation_xyz
x,y,z
1/2-x,-y,1/2+z
1/2+x,1/2-y,1/2-z
-x,1/2+y,-z
-x,-y,-z
1/2+x,y,1/2-z
1/2-x,1/2+y,1/2+z
x,1/2-y,z
loop_
_atom_site_type_symbol
_atom_site_label
_atom_site_fract_x
_atom_site_fract_y
_atom_site_fract_z
Si Si1 0.310076 0.436606 0.717181
Si Si2 0.305444 0.434690 0.885144
Si Si3 0.515441 0.933925 0.639825
Si Si4 0.147168 0.432857 0.486887
Si Si5 0.003735 0.562853 0.303684
Si Si6 0.396400 0.566718 0.538038
O O1 0.309102 0.250000 0.715979
O O2 0.410855 0.498504 0.677369
O O3 0.382762 0.483978 0.765339
O O4 0.151427 0.489210 0.709301
O O5 0.304949 0.250000 0.888862
O O6 0.166096 0.488823 0.859461
O O7 0.308420 0.504957 0.936435
O O8 0.437254 0.483014 0.853946
O O9 0.528891 0.750000 0.645289
O O10 0.452308 0.965914 0.589064
O O11 0.145327 0.250000 0.485127
O O12 0.251973 0.489249 0.526190
O O13 0.000000 0.500000 0.500000
O O14 0.000158 0.750000 0.303278
O O15 0.500000 0.500000 0.500000
O O16 0.385999 0.750000 0.532502
#
# Coordination Sequence:
#
# PCOD9465317 Si02
#       6
#     8   8   8   8   8   8
#     4  10  20  39  65  92 122 159 203 253 306 370
#     4  11  22  40  65  93 124 163 210 259 314 373
#     4  11  24  40  60  91 126 162 206 255 312 372
#     4  12  26  43  63  91 128 168 213 261 315 375
#     4   9  20  38  64  95 122 155 204 255 308 371
#     4  11  23  41  64  91 125 166 213 259 308 368
#
# _framework density 19.795743999999999
#
# number of rings (size 3 to 8) (size 9 to 14) (size 15 to 20)
#    0.000    1.333    1.667    4.000    2.333    4.667 
#    0.000    5.000    0.000    0.000    0.000    0.000 
#    0.000    0.000    0.000    0.000    0.000    0.000 
#
# Total GULP energy -268326.852912 kJ/mol
# GULP energy per Si atom -5590.142769 kJ/mol
# Density = 1.975069 g / cm^3
# Si number density = 19.795744 Si / 1000 Ang^3
#
#
#
# Elastic Constant Matrix: (Units=GPa)
#
#
# Indices 1 2 3 4 5 6 
#
# 1 117.2182 12.4849 9.2906 0.0000 0.0000 0.0000
# 2 12.4849 32.8702 27.4932 0.0000 0.0000 0.0000
# 3 9.2906 27.4932 61.9923 0.0000 0.0000 0.0000
# 4 0.0000 0.0000 0.0000 25.6576 0.0000 0.0000
# 5 0.0000 0.0000 0.0000 0.0000 39.1654 0.0000
# 6 0.0000 0.0000 0.0000 0.0000 0.0000 25.4608
#
#
#
# Elastic Compliance Matrix: (Units=1/GPa)
#
#
# Indices 1 2 3 4 5 6 
#
# 1 0.008893 -0.003598 0.000263 0.000000 0.000000 0.000000
# 2 -0.003598 0.049818 -0.021555 0.000000 0.000000 0.000000
# 3 0.000263 -0.021555 0.025651 0.000000 0.000000 0.000000
# 4 0.000000 0.000000 0.000000 0.038975 0.000000 0.000000
# 5 0.000000 0.000000 0.000000 0.000000 0.025533 0.000000
# 6 0.000000 0.000000 0.000000 0.000000 0.000000 0.039276
#
#
# Mechanical properties :
#
#
# Convention : Reuss Voigt Hill
#
# Bulk Modulus (GPa) = 28.91594 34.51312 31.71453
# Shear Modulus (GPa) = 20.04385 28.91092 24.47738
#
# Velocity S-wave (km/s) = 3.18548 3.82574 3.52020
# Velocity P-wave (km/s) = 5.30741 6.08174 5.70772
#
# Compressibility (1/GPa) = 0.03458300
#
# Stress axis : x y z
#
# Youngs Moduli (GPa) = 112.44212 20.07309 38.98474
#
# Poissons Ratio (x) = 0.07222 -0.01024
# Poissons Ratio (y) = 0.40453 0.84031
# Poissons Ratio (z) = -0.02954 0.43267
#
# Static dielectric constant tensor:
#      x y z
#    x 1.761250 0.000000 0.000000 
#    y 0.000000 1.662230 0.000000 
#    z 0.000000 0.000000 1.690350 
# 
# From -- ./inp_files/31906.got.cif
#   From: 2010.05.17/outbox.cif.g08.bks.cpg/sg62_16_cif.got.tgz:31906.got - 2010.06.03 15:25:27.
