data_PCOD9465702
_publ_section_title
;
Structure prediction by ZEFSAII (Michael W. Deem and Ramdas Pophale) SiO2 
 PCOD9465702
Probable space group: P N M A
;
_chemical_formula_sum "Si O2"
_cell_formula_units_Z 64
_cell_length_a 15.785819
_cell_length_b 7.931195
_cell_length_c 24.607026
_cell_angle_alpha 90.000000
_cell_angle_beta 90.000000
_cell_angle_gamma 90.000000
_cell_volume 3080.809713
_symmetry_space_group_name_H-M "P N M A"
_symmetry_group_IT_number 62
_symmetry_cell_setting 'orthorhombic'
loop_
_space_group_symop_operation_xyz
x,y,z
1/2-x,-y,1/2+z
1/2+x,1/2-y,1/2-z
-x,1/2+y,-z
-x,-y,-z
1/2+x,y,1/2-z
1/2-x,1/2+y,1/2+z
x,1/2-y,z
loop_
_atom_site_type_symbol
_atom_site_label
_atom_site_fract_x
_atom_site_fract_y
_atom_site_fract_z
Si Si1 0.834310 0.552948 0.243606
Si Si2 0.909102 0.053720 0.627774
Si Si3 0.590400 0.451863 0.361685
Si Si4 0.252872 0.456381 0.070728
Si Si5 0.354812 0.553902 0.754223
Si Si6 0.402889 0.953350 0.372740
Si Si7 0.253720 0.043404 0.945926
Si Si8 0.906209 0.053308 0.353240
O O1 0.813433 0.750000 0.236094
O O2 0.745935 0.460369 0.255272
O O3 0.875586 0.489589 0.187734
O O4 0.895747 0.533850 0.294880
O O5 0.921242 0.250000 0.615233
O O6 0.835392 0.986902 0.588454
O O7 0.877572 0.036007 0.689794
O O8 0.000096 0.967964 0.623582
O O9 0.600125 0.250000 0.357945
O O10 0.667480 0.513480 0.398962
O O11 0.600337 0.516410 0.299809
O O12 0.498026 0.490493 0.384366
O O13 0.252797 0.250000 0.070114
O O14 0.334300 0.510472 0.105553
O O15 0.256307 0.511082 0.008303
O O16 0.378646 0.750000 0.761221
O O17 0.402492 0.750000 0.372508
O O18 0.331809 0.010797 0.415245
O O19 0.254095 0.250000 0.944842
O O20 0.889624 0.250000 0.343553
#
# Coordination Sequence:
#
# PCOD9465702 Si02
#       8
#     8   8   8   8   8   8   8   8
#     4  11  21  36  59  87 118 153 189 233 288 348
#     4  11  22  38  59  87 117 152 194 237 289 348
#     4  10  21  37  57  85 114 148 189 228 281 340
#     4   9  19  38  60  80 111 154 195 237 287 341
#     4  11  21  36  59  87 118 153 189 233 288 348
#     4  10  21  37  57  85 114 148 189 228 281 340
#     4   9  19  38  60  80 111 154 195 237 287 341
#     4  11  22  38  59  87 117 152 194 237 289 348
#
# _framework density 20.773758999999998
#
# number of rings (size 3 to 8) (size 9 to 14) (size 15 to 20)
#    0.000    1.750    2.500    2.250    0.000    5.000 
#    0.000    0.000    0.000    5.250    0.000    0.000 
#    0.000    0.000    0.000    0.000    0.000    0.000 
#
# Total GULP energy -357699.541067 kJ/mol
# GULP energy per Si atom -5589.055329 kJ/mol
# Density = 2.072648 g / cm^3
# Si number density = 20.773759 Si / 1000 Ang^3
#
#
#
# Elastic Constant Matrix: (Units=GPa)
#
#
# Indices 1 2 3 4 5 6 
#
# 1 118.4415 -1.1665 45.8556 0.0000 0.0000 0.0000
# 2 -1.1665 21.2160 7.4426 0.0000 0.0000 0.0000
# 3 45.8556 7.4426 133.6725 0.0000 0.0000 0.0000
# 4 0.0000 0.0000 0.0000 12.8195 0.0000 0.0000
# 5 0.0000 0.0000 0.0000 0.0000 5.4482 0.0000
# 6 0.0000 0.0000 0.0000 0.0000 0.0000 41.1711
#
#
#
# Elastic Compliance Matrix: (Units=1/GPa)
#
#
# Indices 1 2 3 4 5 6 
#
# 1 0.009800 0.001752 -0.003459 0.000000 0.000000 0.000000
# 2 0.001752 0.048387 -0.003295 0.000000 0.000000 0.000000
# 3 -0.003459 -0.003295 0.008851 0.000000 0.000000 0.000000
# 4 0.000000 0.000000 0.000000 0.078006 0.000000 0.000000
# 5 0.000000 0.000000 0.000000 0.000000 0.183548 0.000000
# 6 0.000000 0.000000 0.000000 0.000000 0.000000 0.024289
#
#
# Mechanical properties :
#
#
# Convention : Reuss Voigt Hill
#
# Bulk Modulus (GPa) = 17.53370 41.95481 29.74425
# Shear Modulus (GPa) = 13.09260 26.63430 19.86345
#
# Velocity S-wave (km/s) = 2.51320 3.58454 3.09557
# Velocity P-wave (km/s) = 4.10855 6.11325 5.20826
#
# Compressibility (1/GPa) = 0.05703303
#
# Stress axis : x y z
#
# Youngs Moduli (GPa) = 102.04582 20.66687 112.98016
#
# Poissons Ratio (x) = -0.03622 0.39082
# Poissons Ratio (y) = -0.17882 0.37229
# Poissons Ratio (z) = 0.35300 0.06810
#
# Static dielectric constant tensor:
#      x y z
#    x 1.719190 0.000000 0.000000 
#    y 0.000000 1.752660 0.000000 
#    z 0.000000 0.000000 1.717820 
# 
# From -- ./inp_files/29871.got.cif
#   From: 2010.05.17/outbox.cif.g08.bks.cpg/sg62_15_cif.got.tgz:29871.got - 2010.06.03 15:25:27.
