data_PCOD9465853
_publ_section_title
;
Structure prediction by ZEFSAII (Michael W. Deem and Ramdas Pophale) SiO2 
 PCOD9465853
Probable space group: P N M A
;
_chemical_formula_sum "Si O2"
_cell_formula_units_Z 64
_cell_length_a 5.416057
_cell_length_b 22.638321
_cell_length_c 22.385034
_cell_angle_alpha 90.000000
_cell_angle_beta 90.000000
_cell_angle_gamma 90.000000
_cell_volume 2744.638799
_symmetry_space_group_name_H-M "P N M A"
_symmetry_group_IT_number 62
_symmetry_cell_setting 'orthorhombic'
loop_
_space_group_symop_operation_xyz
x,y,z
1/2-x,-y,1/2+z
1/2+x,1/2-y,1/2-z
-x,1/2+y,-z
-x,-y,-z
1/2+x,y,1/2-z
1/2-x,1/2+y,1/2+z
x,1/2-y,z
loop_
_atom_site_type_symbol
_atom_site_label
_atom_site_fract_x
_atom_site_fract_y
_atom_site_fract_z
Si Si1 0.902417 0.994266 0.903736
Si Si2 0.895536 0.980376 0.769712
Si Si3 0.863780 0.180396 0.403843
Si Si4 0.652563 0.382512 0.912988
Si Si5 0.113019 0.178492 0.714703
Si Si6 0.351903 0.181139 0.476766
Si Si7 0.716145 0.152577 0.271964
Si Si8 0.694546 0.552213 0.012362
O O1 0.722147 0.050348 0.896557
O O2 0.802971 0.942062 0.945799
O O3 0.972239 0.975180 0.838317
O O4 0.119307 0.021884 0.942287
O O5 0.126192 0.009933 0.736748
O O6 0.835225 0.914014 0.747650
O O7 0.905631 0.250000 0.390054
O O8 0.616433 0.179162 0.444513
O O9 0.802931 0.150826 0.340386
O O10 0.122051 0.159856 0.434688
O O11 0.620664 0.346414 0.852599
O O12 0.842356 0.354674 0.960906
O O13 0.412019 0.391447 0.954182
O O14 0.361817 0.160633 0.750608
O O15 0.112835 0.250000 0.711634
O O16 0.298740 0.250000 0.490903
O O17 0.444264 0.180199 0.264464
O O18 0.500000 0.500000 0.000000
#
# Coordination Sequence:
#
# PCOD9465853 Si02
#       8
#     8   8   8   8   8   8   8   8
#     4  10  23  41  62  90 130 164 218 269 324 387
#     4  10  24  41  62  87 122 166 209 256 316 369
#     4  10  22  39  60  90 122 159 203 253 312 366
#     4  11  24  39  67  95 124 167 218 260 322 388
#     4  10  24  45  68  97 135 176 217 270 330 392
#     4  10  23  40  61  92 127 160 200 256 315 374
#     4  10  21  38  58  87 116 160 208 247 303 368
#     4   9  22  41  59  93 124 164 213 262 330 382
#
# _framework density 23.318186000000001
#
# number of rings (size 3 to 8) (size 9 to 14) (size 15 to 20)
#    0.000    2.000    0.000    1.125    8.750    3.500 
#    0.000    3.750    0.000    0.000    0.000    0.000 
#    0.000    0.000    0.000    0.000    0.000    0.000 
#
# Total GULP energy -357322.600874 kJ/mol
# GULP energy per Si atom -5583.165639 kJ/mol
# Density = 2.326511 g / cm^3
# Si number density = 23.318186 Si / 1000 Ang^3
#
#
#
# Elastic Constant Matrix: (Units=GPa)
#
#
# Indices 1 2 3 4 5 6 
#
# 1 131.3751 9.6026 47.6726 0.0000 0.0000 0.0000
# 2 9.6026 46.7686 22.4509 0.0000 0.0000 0.0000
# 3 47.6726 22.4509 156.8704 0.0000 0.0000 0.0000
# 4 0.0000 0.0000 0.0000 38.5158 0.0000 0.0000
# 5 0.0000 0.0000 0.0000 0.0000 29.1271 0.0000
# 6 0.0000 0.0000 0.0000 0.0000 0.0000 13.2099
#
#
#
# Elastic Compliance Matrix: (Units=1/GPa)
#
#
# Indices 1 2 3 4 5 6 
#
# 1 0.008568 -0.000547 -0.002526 0.000000 0.000000 0.000000
# 2 -0.000547 0.022994 -0.003125 0.000000 0.000000 0.000000
# 3 -0.002526 -0.003125 0.007589 0.000000 0.000000 0.000000
# 4 0.000000 0.000000 0.000000 0.025963 0.000000 0.000000
# 5 0.000000 0.000000 0.000000 0.000000 0.034332 0.000000
# 6 0.000000 0.000000 0.000000 0.000000 0.000000 0.075701
#
#
# Mechanical properties :
#
#
# Convention : Reuss Voigt Hill
#
# Bulk Modulus (GPa) = 37.37268 54.94071 46.15669
# Shear Modulus (GPa) = 25.45026 33.18976 29.32001
#
# Velocity S-wave (km/s) = 3.30727 3.77681 3.54981
# Velocity P-wave (km/s) = 5.53589 6.52928 6.05300
#
# Compressibility (1/GPa) = 0.02675752
#
# Stress axis : x y z
#
# Youngs Moduli (GPa) = 116.71007 43.48935 131.76247
#
# Poissons Ratio (x) = 0.02378 0.33278
# Poissons Ratio (y) = 0.06382 0.41172
# Poissons Ratio (z) = 0.29476 0.13589
#
# Static dielectric constant tensor:
#      x y z
#    x 2.015640 0.000000 0.000000 
#    y 0.000000 1.967870 0.000000 
#    z 0.000000 0.000000 1.859290 
# 
# From -- ./inp_files/25474.got.cif
#   From: 2010.05.17/outbox.cif.g08.bks.cpg/sg62_13_cif.got.tgz:25474.got - 2010.06.03 15:25:27.
