data_PCOD9465301
_publ_section_title
;
Structure prediction by ZEFSAII (Michael W. Deem and Ramdas Pophale) SiO2 
 PCOD9465301
Probable space group: P N M A
;
_chemical_formula_sum "Si O2"
_cell_formula_units_Z 56
_cell_length_a 19.504132
_cell_length_b 8.665307
_cell_length_c 14.237216
_cell_angle_alpha 90.000000
_cell_angle_beta 90.000000
_cell_angle_gamma 90.000000
_cell_volume 2406.221790
_symmetry_space_group_name_H-M "P N M A"
_symmetry_group_IT_number 62
_symmetry_cell_setting 'orthorhombic'
loop_
_space_group_symop_operation_xyz
x,y,z
1/2-x,-y,1/2+z
1/2+x,1/2-y,1/2-z
-x,1/2+y,-z
-x,-y,-z
1/2+x,y,1/2-z
1/2-x,1/2+y,1/2+z
x,1/2-y,z
loop_
_atom_site_type_symbol
_atom_site_label
_atom_site_fract_x
_atom_site_fract_y
_atom_site_fract_z
Si Si1 0.489819 0.071067 0.714231
Si Si2 0.421479 0.571384 0.879912
Si Si3 0.287329 0.428809 0.554652
Si Si4 0.857204 0.070245 0.447587
Si Si5 0.858073 0.933389 0.241664
Si Si6 0.430596 0.570723 0.541631
Si Si7 0.709248 0.930362 0.217103
O O1 0.471920 0.250000 0.694941
O O2 0.569623 0.046381 0.690772
O O3 0.475234 0.031991 0.822316
O O4 0.443399 0.959119 0.652384
O O5 0.439669 0.750000 0.871923
O O6 0.348655 0.533598 0.829557
O O7 0.408988 0.523110 0.986808
O O8 0.275673 0.250000 0.531197
O O9 0.221217 0.526955 0.525391
O O10 0.359889 0.487469 0.516654
O O11 0.292004 0.439710 0.669059
O O12 0.869137 0.250000 0.460926
O O13 0.862902 0.024040 0.339098
O O14 0.852072 0.750000 0.263426
O O15 0.787228 0.975368 0.191053
O O16 0.500000 0.500000 0.500000
O O17 0.425593 0.750000 0.519277
O O18 0.696556 0.750000 0.192203
#
# Coordination Sequence:
#
# PCOD9465301 Si02
#       7
#     8   8   8   8   8   8   8
#     4  11  23  42  65  91 125 166 209 259 319 377
#     4  12  24  38  60  90 125 165 213 258 309 376
#     4  10  20  39  64  88 120 156 199 254 310 367
#     4  11  23  39  62  91 124 162 208 259 313 369
#     4   9  21  41  64  89 123 163 206 257 315 374
#     4  12  25  41  63  92 127 167 210 256 313 375
#     4   9  18  36  62  87 116 155 201 255 313 369
#
# _framework density 23.272998999999999
#
# number of rings (size 3 to 8) (size 9 to 14) (size 15 to 20)
#    0.000    1.429    1.429    5.571    0.000    5.143 
#    0.000    4.286    0.000    0.000    0.000    0.000 
#    0.000    0.000    0.000    0.000    0.000    0.000 
#
# Total GULP energy -313530.949838 kJ/mol
# GULP energy per Si atom -5598.766961 kJ/mol
# Density = 2.322003 g / cm^3
# Si number density = 23.272999 Si / 1000 Ang^3
#
#
#
# Elastic Constant Matrix: (Units=GPa)
#
#
# Indices 1 2 3 4 5 6 
#
# 1 97.2849 6.6291 -4.1038 0.0000 0.0000 0.0000
# 2 6.6291 68.0936 -0.5726 0.0000 0.0000 0.0000
# 3 -4.1038 -0.5726 49.7342 0.0000 0.0000 0.0000
# 4 0.0000 0.0000 0.0000 27.4665 0.0000 0.0000
# 5 0.0000 0.0000 0.0000 0.0000 35.0076 0.0000
# 6 0.0000 0.0000 0.0000 0.0000 0.0000 28.5630
#
#
#
# Elastic Compliance Matrix: (Units=1/GPa)
#
#
# Indices 1 2 3 4 5 6 
#
# 1 0.010383 -0.001004 0.000845 0.000000 0.000000 0.000000
# 2 -0.001004 0.014784 0.000087 0.000000 0.000000 0.000000
# 3 0.000845 0.000087 0.020178 0.000000 0.000000 0.000000
# 4 0.000000 0.000000 0.000000 0.036408 0.000000 0.000000
# 5 0.000000 0.000000 0.000000 0.000000 0.028565 0.000000
# 6 0.000000 0.000000 0.000000 0.000000 0.000000 0.035010
#
#
# Mechanical properties :
#
#
# Convention : Reuss Voigt Hill
#
# Bulk Modulus (GPa) = 22.12260 24.33535 23.22897
# Shear Modulus (GPa) = 31.14523 32.41809 31.78166
#
# Velocity S-wave (km/s) = 3.66219 3.73627 3.69941
# Velocity P-wave (km/s) = 5.23531 5.39371 5.31510
#
# Compressibility (1/GPa) = 0.04520265
#
# Stress axis : x y z
#
# Youngs Moduli (GPa) = 96.31002 67.64017 49.55978
#
# Poissons Ratio (x) = 0.06789 -0.04189
# Poissons Ratio (y) = 0.09667 -0.00433
# Poissons Ratio (z) = -0.08140 -0.00591
#
# Static dielectric constant tensor:
#      x y z
#    x 1.891780 0.000000 0.000000 
#    y 0.000000 1.791770 0.000000 
#    z 0.000000 0.000000 1.956000 
# 
# From -- ./inp_files/20200.got.cif
#   From: 2010.05.17/outbox.cif.g08.bks.cpg/sg62_11_cif.got.tgz:20200.got - 2010.06.03 15:25:27.
