data_PCOD9465042
_publ_section_title
;
Structure prediction by ZEFSAII (Michael W. Deem and Ramdas Pophale) SiO2 
 PCOD9465042
Probable space group: P N M A
;
_chemical_formula_sum "Si O2"
_cell_formula_units_Z 32
_cell_length_a 7.780994
_cell_length_b 7.973741
_cell_length_c 21.920280
_cell_angle_alpha 90.000000
_cell_angle_beta 90.000000
_cell_angle_gamma 90.000000
_cell_volume 1360.013761
_symmetry_space_group_name_H-M "P N M A"
_symmetry_group_IT_number 62
_symmetry_cell_setting 'orthorhombic'
loop_
_space_group_symop_operation_xyz
x,y,z
1/2-x,-y,1/2+z
1/2+x,1/2-y,1/2-z
-x,1/2+y,-z
-x,-y,-z
1/2+x,y,1/2-z
1/2-x,1/2+y,1/2+z
x,1/2-y,z
loop_
_atom_site_type_symbol
_atom_site_label
_atom_site_fract_x
_atom_site_fract_y
_atom_site_fract_z
Si Si1 0.817337 0.947381 0.028029
Si Si2 0.489816 0.941054 0.347049
Si Si3 0.138749 0.750000 0.775932
Si Si4 0.503906 0.250000 0.151145
Si Si5 0.638824 0.064165 0.914448
O O1 0.790509 0.750000 0.017576
O O2 0.682911 0.043976 0.985973
O O3 0.849755 0.973639 0.099458
O O4 0.000000 0.000000 0.000000
O O5 0.467706 0.750000 0.324487
O O6 0.677438 0.948760 0.378927
O O7 0.460781 0.082721 0.297320
O O8 0.143559 0.750000 0.703238
O O9 0.320063 0.750000 0.810854
O O10 0.476035 0.414588 0.110572
O O11 0.566866 0.250000 0.903270
#
# Coordination Sequence:
#
# PCOD9465042 Si02
#       5
#     8   8   4   4   8
#     4   9  16  29  57  94 126 156 199 244 292 357
#     4   9  20  37  62  95 122 157 202 248 299 358
#     4  12  26  42  66  82 122 166 203 260 305 366
#     4  12  26  44  60  90 116 164 211 252 309 364
#     4  10  20  37  64  93 124 159 202 254 300 358
#
# _framework density 23.529173
#
# number of rings (size 3 to 8) (size 9 to 14) (size 15 to 20)
#    0.000    2.000    1.250    4.500    7.000    2.000 
#    0.000    1.250    0.000    0.000    0.000    0.000 
#    0.000    0.000    0.000    0.000    0.000    0.000 
#
# Total GULP energy -179047.091938 kJ/mol
# GULP energy per Si atom -5595.221623 kJ/mol
# Density = 2.347562 g / cm^3
# Si number density = 23.529173 Si / 1000 Ang^3
#
#
#
# Elastic Constant Matrix: (Units=GPa)
#
#
# Indices 1 2 3 4 5 6 
#
# 1 109.4744 34.7897 6.5025 0.0000 0.0000 0.0000
# 2 34.7897 146.1901 59.4012 0.0000 0.0000 0.0000
# 3 6.5025 59.4012 63.2140 0.0000 0.0000 0.0000
# 4 0.0000 0.0000 0.0000 31.0348 0.0000 0.0000
# 5 0.0000 0.0000 0.0000 0.0000 34.6857 0.0000
# 6 0.0000 0.0000 0.0000 0.0000 0.0000 8.5493
#
#
#
# Elastic Compliance Matrix: (Units=1/GPa)
#
#
# Indices 1 2 3 4 5 6 
#
# 1 0.010030 -0.003183 0.001959 0.000000 0.000000 0.000000
# 2 -0.003183 0.012075 -0.011020 0.000000 0.000000 0.000000
# 3 0.001959 -0.011020 0.025973 0.000000 0.000000 0.000000
# 4 0.000000 0.000000 0.000000 0.032222 0.000000 0.000000
# 5 0.000000 0.000000 0.000000 0.000000 0.028830 0.000000
# 6 0.000000 0.000000 0.000000 0.000000 0.000000 0.116968
#
#
# Mechanical properties :
#
#
# Convention : Reuss Voigt Hill
#
# Bulk Modulus (GPa) = 42.38881 57.80728 50.09805
# Shear Modulus (GPa) = 19.34617 29.39965 24.37291
#
# Velocity S-wave (km/s) = 2.87055 3.53866 3.22197
# Velocity P-wave (km/s) = 5.38900 6.42789 5.93124
#
# Compressibility (1/GPa) = 0.02359113
#
# Stress axis : x y z
#
# Youngs Moduli (GPa) = 99.70416 82.81236 38.50179
#
# Poissons Ratio (x) = 0.26358 -0.07543
# Poissons Ratio (y) = 0.31735 0.42428
# Poissons Ratio (z) = -0.19534 0.91257
#
# Static dielectric constant tensor:
#      x y z
#    x 1.945550 0.000000 0.000000 
#    y 0.000000 1.832870 0.000000 
#    z 0.000000 0.000000 1.839700 
# 
# From -- ./inp_files/25565.got.cif
#   From: 2010.05.17/outbox.cif.g08.bks.cpg/sg62_13_cif.got.tgz:25565.got - 2010.06.03 15:25:27.
