data_PCOD9465997
_publ_section_title
;
Structure prediction by ZEFSAII (Michael W. Deem and Ramdas Pophale) SiO2 
 PCOD9465997
Probable space group: P N M A
;
_chemical_formula_sum "Si O2"
_cell_formula_units_Z 48
_cell_length_a 16.766208
_cell_length_b 16.154983
_cell_length_c 8.183772
_cell_angle_alpha 90.000000
_cell_angle_beta 90.000000
_cell_angle_gamma 90.000000
_cell_volume 2216.638522
_symmetry_space_group_name_H-M "P N M A"
_symmetry_group_IT_number 62
_symmetry_cell_setting 'orthorhombic'
loop_
_space_group_symop_operation_xyz
x,y,z
1/2-x,-y,1/2+z
1/2+x,1/2-y,1/2-z
-x,1/2+y,-z
-x,-y,-z
1/2+x,y,1/2-z
1/2-x,1/2+y,1/2+z
x,1/2-y,z
loop_
_atom_site_type_symbol
_atom_site_label
_atom_site_fract_x
_atom_site_fract_y
_atom_site_fract_z
Si Si1 0.220200 0.657226 0.436891
Si Si2 0.622827 0.659617 0.731426
Si Si3 0.515121 0.999481 0.801760
Si Si4 0.661921 0.995953 0.273473
Si Si5 0.624478 0.342928 0.734352
Si Si6 0.743869 0.397627 0.012464
O O1 0.204517 0.750000 0.370415
O O2 0.183481 0.656131 0.615950
O O3 0.176372 0.587665 0.332060
O O4 0.315667 0.646447 0.419255
O O5 0.582616 0.750000 0.733188
O O6 0.565658 0.581415 0.753768
O O7 0.678940 0.651021 0.573474
O O8 0.431868 0.996610 0.705378
O O9 0.562826 0.082596 0.754294
O O10 0.500000 0.000000 0.000000
O O11 0.719350 0.979259 0.425825
O O12 0.692707 0.071312 0.164754
O O13 0.590228 0.250000 0.732613
O O14 0.685907 0.352325 0.886770
#
# Coordination Sequence:
#
# PCOD9465997 Si02
#       6
#     8   8   8   8   8   8
#     4   9  18  35  60  87 117 160 207 255 303 360
#     4  11  23  41  64  92 127 166 214 265 313 374
#     4  12  23  39  61  96 131 168 208 255 328 375
#     4  11  22  39  63  90 123 164 211 259 312 382
#     4  10  21  38  64  95 128 165 211 258 308 375
#     4  11  22  40  65  87 122 165 218 262 311 372
#
# _framework density 21.654409999999999
#
# number of rings (size 3 to 8) (size 9 to 14) (size 15 to 20)
#    0.000    1.333    3.333    3.500    0.000    2.667 
#    0.000    0.000    0.000    5.000    0.000    0.000 
#    0.000    0.000    0.000    0.000    0.000    0.000 
#
# Total GULP energy -268256.950982 kJ/mol
# GULP energy per Si atom -5588.686479 kJ/mol
# Density = 2.160512 g / cm^3
# Si number density = 21.654410 Si / 1000 Ang^3
#
#
#
# Elastic Constant Matrix: (Units=GPa)
#
#
# Indices 1 2 3 4 5 6 
#
# 1 110.0404 46.0781 11.8867 0.0000 0.0000 0.0000
# 2 46.0781 134.8204 2.2849 0.0000 0.0000 0.0000
# 3 11.8867 2.2849 23.3589 0.0000 0.0000 0.0000
# 4 0.0000 0.0000 0.0000 20.8123 0.0000 0.0000
# 5 0.0000 0.0000 0.0000 0.0000 24.4569 0.0000
# 6 0.0000 0.0000 0.0000 0.0000 0.0000 19.2256
#
#
#
# Elastic Compliance Matrix: (Units=1/GPa)
#
#
# Indices 1 2 3 4 5 6 
#
# 1 0.011236 -0.003749 -0.005351 0.000000 0.000000 0.000000
# 2 -0.003749 0.008681 0.001059 0.000000 0.000000 0.000000
# 3 -0.005351 0.001059 0.045429 0.000000 0.000000 0.000000
# 4 0.000000 0.000000 0.000000 0.048048 0.000000 0.000000
# 5 0.000000 0.000000 0.000000 0.000000 0.040888 0.000000
# 6 0.000000 0.000000 0.000000 0.000000 0.000000 0.052014
#
#
# Mechanical properties :
#
#
# Convention : Reuss Voigt Hill
#
# Bulk Modulus (GPa) = 20.29910 43.19101 31.74505
# Shear Modulus (GPa) = 20.93802 26.76364 23.85083
#
# Velocity S-wave (km/s) = 3.11290 3.51941 3.32238
# Velocity P-wave (km/s) = 4.72384 6.04185 5.42303
#
# Compressibility (1/GPa) = 0.04926327
#
# Stress axis : x y z
#
# Youngs Moduli (GPa) = 89.00325 115.19743 22.01217
#
# Poissons Ratio (x) = 0.43191 0.11778
# Poissons Ratio (y) = 0.33370 -0.02331
# Poissons Ratio (z) = 0.47623 -0.12197
#
# Static dielectric constant tensor:
#      x y z
#    x 1.752470 0.000000 0.000000 
#    y 0.000000 1.806530 0.000000 
#    z 0.000000 0.000000 1.837100 
# 
# From -- ./inp_files/7635.got.cif
#   From: 2010.05.17/outbox.cif.g08.bks.cpg/sg62_4_cif.got.tgz:7635.got - 2010.06.03 15:25:27.
