data_PCOD9465566
_publ_section_title
;
Structure prediction by ZEFSAII (Michael W. Deem and Ramdas Pophale) SiO2 
 PCOD9465566
Probable space group: P N M A
;
_chemical_formula_sum "Si O2"
_cell_formula_units_Z 56
_cell_length_a 14.772223
_cell_length_b 9.025617
_cell_length_c 21.393939
_cell_angle_alpha 90.000000
_cell_angle_beta 90.000000
_cell_angle_gamma 90.000000
_cell_volume 2852.420235
_symmetry_space_group_name_H-M "P N M A"
_symmetry_group_IT_number 62
_symmetry_cell_setting 'orthorhombic'
loop_
_space_group_symop_operation_xyz
x,y,z
1/2-x,-y,1/2+z
1/2+x,1/2-y,1/2-z
-x,1/2+y,-z
-x,-y,-z
1/2+x,y,1/2-z
1/2-x,1/2+y,1/2+z
x,1/2-y,z
loop_
_atom_site_type_symbol
_atom_site_label
_atom_site_fract_x
_atom_site_fract_y
_atom_site_fract_z
Si Si1 0.347838 0.428547 0.345092
Si Si2 0.753121 0.075222 0.395841
Si Si3 0.498469 0.923239 0.267799
Si Si4 0.808144 0.571083 0.755158
Si Si5 0.928447 0.917395 0.366382
Si Si6 0.230415 0.926929 0.978328
Si Si7 0.422609 0.423093 0.958970
O O1 0.353761 0.250000 0.340467
O O2 0.441615 0.498750 0.322161
O O3 0.264564 0.473928 0.298456
O O4 0.327446 0.468001 0.417089
O O5 0.741716 0.250000 0.402679
O O6 0.723343 0.031775 0.325841
O O7 0.859093 0.030801 0.396989
O O8 0.705622 0.994844 0.454174
O O9 0.513844 0.750000 0.280702
O O10 0.433712 0.935289 0.207312
O O11 0.592774 0.000537 0.250644
O O12 0.814820 0.750000 0.751698
O O13 0.897525 0.750000 0.382661
O O14 0.030548 0.930122 0.391173
O O15 0.232275 0.750000 0.983091
O O16 0.330324 0.988774 0.963419
O O17 0.409595 0.250000 0.975106
O O18 0.500000 0.500000 0.000000
#
# Coordination Sequence:
#
# PCOD9465566 Si02
#       7
#     8   8   8   8   8   8   8
#     4  10  22  42  64  88 121 163 204 249 303 361
#     4  11  22  37  61  87 116 157 200 244 295 354
#     4  11  23  38  62  93 121 155 198 255 309 355
#     4  10  22  41  64  90 119 159 206 249 299 363
#     4  10  21  36  55  83 119 154 191 240 299 357
#     4  11  23  38  58  85 121 160 199 249 306 359
#     4  11  21  33  52  81 118 156 195 236 291 360
#
# _framework density 19.632449999999999
#
# number of rings (size 3 to 8) (size 9 to 14) (size 15 to 20)
#    0.000    1.429    2.857    2.571    0.000    4.000 
#    0.000    0.714    0.000    0.000    0.000    0.000 
#    0.000    0.000    0.000    0.000    0.000    0.000 
#
# Total GULP energy -312577.409426 kJ/mol
# GULP energy per Si atom -5581.739454 kJ/mol
# Density = 1.958777 g / cm^3
# Si number density = 19.632450 Si / 1000 Ang^3
#
#
#
# Elastic Constant Matrix: (Units=GPa)
#
#
# Indices 1 2 3 4 5 6 
#
# 1 40.0464 7.8710 1.4300 0.0000 0.0000 0.0000
# 2 7.8710 32.3758 35.3847 0.0000 0.0000 0.0000
# 3 1.4300 35.3847 95.9114 0.0000 0.0000 0.0000
# 4 0.0000 0.0000 0.0000 29.2305 0.0000 0.0000
# 5 0.0000 0.0000 0.0000 0.0000 30.6625 0.0000
# 6 0.0000 0.0000 0.0000 0.0000 0.0000 23.3184
#
#
#
# Elastic Compliance Matrix: (Units=1/GPa)
#
#
# Indices 1 2 3 4 5 6 
#
# 1 0.026857 -0.010208 0.003365 0.000000 0.000000 0.000000
# 2 -0.010208 0.055636 -0.020374 0.000000 0.000000 0.000000
# 3 0.003365 -0.020374 0.017893 0.000000 0.000000 0.000000
# 4 0.000000 0.000000 0.000000 0.034211 0.000000 0.000000
# 5 0.000000 0.000000 0.000000 0.000000 0.032613 0.000000
# 6 0.000000 0.000000 0.000000 0.000000 0.000000 0.042885
#
#
# Mechanical properties :
#
#
# Convention : Reuss Voigt Hill
#
# Bulk Modulus (GPa) = 21.76080 28.63389 25.19735
# Shear Modulus (GPa) = 17.86711 24.88547 21.37629
#
# Velocity S-wave (km/s) = 3.02003 3.56415 3.30331
# Velocity P-wave (km/s) = 4.82379 5.61732 5.23561
#
# Compressibility (1/GPa) = 0.04595419
#
# Stress axis : x y z
#
# Youngs Moduli (GPa) = 37.23407 17.97399 55.88906
#
# Poissons Ratio (x) = 0.18347 -0.18809
# Poissons Ratio (y) = 0.38007 1.13866
# Poissons Ratio (z) = -0.12531 0.36620
#
# Static dielectric constant tensor:
#      x y z
#    x 1.668810 0.000000 0.000000 
#    y 0.000000 1.665290 0.000000 
#    z 0.000000 0.000000 1.768710 
# 
# From -- ./inp_files/27074.got.cif
#   From: 2010.05.17/outbox.cif.g08.bks.cpg/sg62_14_cif.got.tgz:27074.got - 2010.06.03 15:25:27.
