data_PCOD9465621
_publ_section_title
;
Structure prediction by ZEFSAII (Michael W. Deem and Ramdas Pophale) SiO2 
 PCOD9465621
Probable space group: P N M A
;
_chemical_formula_sum "Si O2"
_cell_formula_units_Z 40
_cell_length_a 14.468432
_cell_length_b 9.899926
_cell_length_c 11.446182
_cell_angle_alpha 90.000000
_cell_angle_beta 90.000000
_cell_angle_gamma 90.000000
_cell_volume 1639.509974
_symmetry_space_group_name_H-M "P N M A"
_symmetry_group_IT_number 62
_symmetry_cell_setting 'orthorhombic'
loop_
_space_group_symop_operation_xyz
x,y,z
1/2-x,-y,1/2+z
1/2+x,1/2-y,1/2-z
-x,1/2+y,-z
-x,-y,-z
1/2+x,y,1/2-z
1/2-x,1/2+y,1/2+z
x,1/2-y,z
loop_
_atom_site_type_symbol
_atom_site_label
_atom_site_fract_x
_atom_site_fract_y
_atom_site_fract_z
Si Si1 0.854143 0.250000 0.873112
Si Si2 0.360749 0.250000 0.243905
Si Si3 0.357267 0.457696 0.836899
Si Si4 0.354143 0.750000 0.126887
Si Si5 0.960043 0.750000 0.002111
Si Si6 0.360749 0.750000 0.743905
Si Si7 0.539957 0.750000 0.002111
Si Si8 0.642733 0.042304 0.663102
O O1 0.865699 0.122807 0.785821
O O2 0.750000 0.250000 0.921018
O O3 0.932406 0.250000 0.968593
O O4 0.250000 0.250000 0.214830
O O5 0.379355 0.387890 0.312633
O O6 0.422067 0.250000 0.127825
O O7 0.379355 0.612110 0.812634
O O8 0.418372 0.380677 0.930974
O O9 0.250000 0.445461 0.873400
O O10 0.432406 0.750000 0.031406
O O11 0.365698 0.622807 0.214179
O O12 0.918372 0.880677 0.069026
O O13 0.922067 0.750000 0.872175
#
# Coordination Sequence:
#
# PCOD9465621 Si02
#       8
#     4   4   8   4   4   4   4   8
#     4   9  19  37  59  83 118 160 201 256 307 344
#     4  10  21  36  58  90 125 158 193 242 302 362
#     4   9  18  35  58  87 122 154 194 247 297 359
#     4   9  19  37  59  83 118 160 201 256 307 344
#     4  11  20  37  64  85 115 166 206 238 302 368
#     4  10  21  36  58  90 125 158 193 242 302 362
#     4  11  20  37  64  85 115 166 206 238 302 368
#     4   9  18  35  58  87 122 154 194 247 297 359
#
# _framework density 24.397532999999999
#
# number of rings (size 3 to 8) (size 9 to 14) (size 15 to 20)
#    0.000    2.400    0.000    5.400    0.000    1.600 
#    0.000    8.000    0.000   14.400    0.000    0.000 
#    0.000    0.000    0.000    0.000    0.000    0.000 
#
# Total GULP energy -224501.583275 kJ/mol
# GULP energy per Si atom -5612.539582 kJ/mol
# Density = 2.434200 g / cm^3
# Si number density = 24.397533 Si / 1000 Ang^3
#
#
#
# Elastic Constant Matrix: (Units=GPa)
#
#
# Indices 1 2 3 4 5 6 
#
# 1 122.4316 72.6976 88.4830 0.0000 0.0000 0.0000
# 2 72.6976 208.2389 62.2655 0.0000 0.0000 0.0000
# 3 88.4830 62.2655 97.5687 0.0000 0.0000 0.0000
# 4 0.0000 0.0000 0.0000 -1.6759 0.0000 0.0000
# 5 0.0000 0.0000 0.0000 0.0000 465.0412 0.0000
# 6 0.0000 0.0000 0.0000 0.0000 0.0000 4.6798
#
#
#
# Elastic Compliance Matrix: (Units=1/GPa)
#
#
# Indices 1 2 3 4 5 6 
#
# 1 0.024615 -0.002371 -0.020810 0.000000 0.000000 0.000000
# 2 -0.002371 0.006163 -0.001783 0.000000 0.000000 0.000000
# 3 -0.020810 -0.001783 0.030259 0.000000 0.000000 0.000000
# 4 0.000000 0.000000 0.000000 -0.596684 0.000000 0.000000
# 5 0.000000 0.000000 0.000000 0.000000 0.002150 0.000000
# 6 0.000000 0.000000 0.000000 0.000000 0.000000 0.213684
#
#
# Mechanical properties :
#
#
# Convention : Reuss Voigt Hill
#
# Bulk Modulus (GPa) = 90.01122 97.23683 93.62402
# Shear Modulus (GPa) = -18.78422 107.26188 44.23883
#
# Velocity S-wave (km/s) = -2.77776 6.63775 4.26285
# Velocity P-wave (km/s) = 5.16582 9.93418 7.91750
#
# Compressibility (1/GPa) = 0.01110973
#
# Stress axis : x y z
#
# Youngs Moduli (GPa) = 40.62500 162.25878 33.04784
#
# Poissons Ratio (x) = 0.38471 0.68773
# Poissons Ratio (y) = 0.09632 0.05892
# Poissons Ratio (z) = 0.84541 0.28928
#
# Static dielectric constant tensor:
#      x y z
#    x 1.941450 0.000000 0.000000 
#    y 0.000000 1.918740 0.000000 
#    z 0.000000 0.000000 1.863040 
# 
# From -- ./inp_files/18720.got.cif
#   From: 2010.05.17/outbox.cif.g08.bks.cpg/sg62_10_cif.got.tgz:18720.got - 2010.06.03 15:25:27.
