data_PCOD9465465
_publ_section_title
;
Structure prediction by ZEFSAII (Michael W. Deem and Ramdas Pophale) SiO2 
 PCOD9465465
Probable space group: P N M A
;
_chemical_formula_sum "Si O2"
_cell_formula_units_Z 64
_cell_length_a 9.219911
_cell_length_b 24.452286
_cell_length_c 13.748460
_cell_angle_alpha 90.000000
_cell_angle_beta 90.000000
_cell_angle_gamma 90.000000
_cell_volume 3099.561444
_symmetry_space_group_name_H-M "P N M A"
_symmetry_group_IT_number 62
_symmetry_cell_setting 'orthorhombic'
loop_
_space_group_symop_operation_xyz
x,y,z
1/2-x,-y,1/2+z
1/2+x,1/2-y,1/2-z
-x,1/2+y,-z
-x,-y,-z
1/2+x,y,1/2-z
1/2-x,1/2+y,1/2+z
x,1/2-y,z
loop_
_atom_site_type_symbol
_atom_site_label
_atom_site_fract_x
_atom_site_fract_y
_atom_site_fract_z
Si Si1 0.517636 0.122450 0.900663
Si Si2 0.502469 0.498340 0.829613
Si Si3 0.980366 0.112178 0.089901
Si Si4 0.726196 0.509520 0.557661
Si Si5 0.710762 0.814071 0.477184
Si Si6 0.800903 0.608442 0.087268
Si Si7 0.012909 0.314136 0.796700
Si Si8 0.311424 0.534071 0.662089
O O1 0.554467 0.061993 0.860836
O O2 0.647040 0.149041 0.961018
O O3 0.361748 0.116059 0.951940
O O4 0.482591 0.160884 0.808348
O O5 0.393496 0.520288 0.914032
O O6 0.401729 0.495878 0.734452
O O7 0.642501 0.535663 0.811709
O O8 0.872501 0.060711 0.081252
O O9 0.100548 0.091599 0.167628
O O10 0.879036 0.164800 0.071797
O O11 0.083569 0.115878 0.996624
O O12 0.688465 0.454762 0.618952
O O13 0.693783 0.490920 0.447045
O O14 0.745101 0.750000 0.485319
O O15 0.613951 0.820862 0.377890
O O16 0.848116 0.651665 0.167145
O O17 0.044779 0.250000 0.789930
#
# Coordination Sequence:
#
# PCOD9465465 Si02
#       8
#     8   8   8   8   8   8   8   8
#     4  11  22  31  53  80 121 158 208 255 306 363
#     4  11  25  35  58  93 125 165 212 261 314 397
#     4  10  21  37  61  76 111 156 199 262 317 370
#     4  10  21  39  59  85 122 165 214 261 323 372
#     4  10  22  39  56  82 113 160 215 262 310 372
#     4   9  20  34  51  78 107 158 209 253 301 364
#     4  10  21  34  50  74 113 165 215 257 299 354
#     4  11  22  37  57  85 124 160 206 259 316 378
#
# _framework density 20.648083
#
# number of rings (size 3 to 8) (size 9 to 14) (size 15 to 20)
#    0.000    1.750    0.000    4.500   10.500    4.000 
#    0.000    0.000    0.000    0.000    0.000    3.500 
#    0.000    0.000    0.000    0.000    0.000    0.000 
#
# Total GULP energy -356971.832040 kJ/mol
# GULP energy per Si atom -5577.684876 kJ/mol
# Density = 2.060109 g / cm^3
# Si number density = 20.648083 Si / 1000 Ang^3
#
#
#
# Elastic Constant Matrix: (Units=GPa)
#
#
# Indices 1 2 3 4 5 6 
#
# 1 136.8215 46.7581 26.9277 0.0000 0.0000 0.0000
# 2 46.7581 79.7570 27.3066 0.0000 0.0000 0.0000
# 3 26.9277 27.3066 47.1590 0.0000 0.0000 0.0000
# 4 0.0000 0.0000 0.0000 24.5020 0.0000 0.0000
# 5 0.0000 0.0000 0.0000 0.0000 31.0468 0.0000
# 6 0.0000 0.0000 0.0000 0.0000 0.0000 25.8190
#
#
#
# Elastic Compliance Matrix: (Units=1/GPa)
#
#
# Indices 1 2 3 4 5 6 
#
# 1 0.009411 -0.004587 -0.002718 0.000000 0.000000 0.000000
# 2 -0.004587 0.017874 -0.007730 0.000000 0.000000 0.000000
# 3 -0.002718 -0.007730 0.027233 0.000000 0.000000 0.000000
# 4 0.000000 0.000000 0.000000 0.040813 0.000000 0.000000
# 5 0.000000 0.000000 0.000000 0.000000 0.032209 0.000000
# 6 0.000000 0.000000 0.000000 0.000000 0.000000 0.038731
#
#
# Mechanical properties :
#
#
# Convention : Reuss Voigt Hill
#
# Bulk Modulus (GPa) = 40.90370 51.74692 46.32531
# Shear Modulus (GPa) = 24.45092 27.12321 25.78706
#
# Velocity S-wave (km/s) = 3.44492 3.62829 3.53779
# Velocity P-wave (km/s) = 5.97295 6.53210 6.25878
#
# Compressibility (1/GPa) = 0.02444767
#
# Stress axis : x y z
#
# Youngs Moduli (GPa) = 106.25591 55.94756 36.72031
#
# Poissons Ratio (x) = 0.25663 0.09980
# Poissons Ratio (y) = 0.48738 0.28386
# Poissons Ratio (z) = 0.28879 0.43250
#
# Static dielectric constant tensor:
#      x y z
#    x 1.809470 0.000000 0.000000 
#    y 0.000000 1.745130 0.000000 
#    z 0.000000 0.000000 1.812560 
# 
# From -- ./inp_files/17341.got.cif
#   From: 2010.05.17/outbox.cif.g08.bks.cpg/sg62_9_cif.got.tgz:17341.got - 2010.06.03 15:25:27.
