data_PCOD9465870
_publ_section_title
;
Structure prediction by ZEFSAII (Michael W. Deem and Ramdas Pophale) SiO2 
 PCOD9465870
Probable space group: P N M A
;
_chemical_formula_sum "Si O2"
_cell_formula_units_Z 48
_cell_length_a 29.790323
_cell_length_b 8.774881
_cell_length_c 10.391383
_cell_angle_alpha 90.000000
_cell_angle_beta 90.000000
_cell_angle_gamma 90.000000
_cell_volume 2716.375468
_symmetry_space_group_name_H-M "P N M A"
_symmetry_group_IT_number 62
_symmetry_cell_setting 'orthorhombic'
loop_
_space_group_symop_operation_xyz
x,y,z
1/2-x,-y,1/2+z
1/2+x,1/2-y,1/2-z
-x,1/2+y,-z
-x,-y,-z
1/2+x,y,1/2-z
1/2-x,1/2+y,1/2+z
x,1/2-y,z
loop_
_atom_site_type_symbol
_atom_site_label
_atom_site_fract_x
_atom_site_fract_y
_atom_site_fract_z
Si Si1 0.213959 0.067821 0.515505
Si Si2 0.113988 0.068337 0.242380
Si Si3 0.883547 0.069219 0.477263
Si Si4 0.027371 0.431885 0.620431
Si Si5 0.783375 0.932227 0.783652
Si Si6 0.479953 0.931985 0.629290
O O1 0.208228 0.250000 0.518323
O O2 0.225166 0.026471 0.366529
O O3 0.166563 0.990073 0.549676
O O4 0.251560 0.015916 0.615798
O O5 0.113058 0.250000 0.273618
O O6 0.163914 0.034281 0.192376
O O7 0.073172 0.036283 0.146807
O O8 0.106924 0.977835 0.374667
O O9 0.886306 0.250000 0.462181
O O10 0.921499 0.987979 0.393012
O O11 0.025218 0.250000 0.616007
O O12 0.000000 0.500000 0.500000
O O13 0.004996 0.494967 0.749325
O O14 0.776847 0.750000 0.796256
O O15 0.485786 0.750000 0.631933
O O16 0.500000 0.000000 0.500000
#
# Coordination Sequence:
#
# PCOD9465870 Si02
#       6
#     8   8   8   8   8   8
#     4  10  21  38  59  85 117 152 189 238 291 345
#     4   9  19  37  60  83 115 155 195 238 287 345
#     4  11  21  35  60  89 115 149 194 243 291 345
#     4  12  23  38  61  89 118 152 195 242 290 344
#     4   9  19  37  59  84 113 148 191 238 286 343
#     4  11  23  40  60  85 121 161 197 241 292 347
#
# _framework density 17.670605999999999
#
# number of rings (size 3 to 8) (size 9 to 14) (size 15 to 20)
#    0.000    1.667    1.667    5.000    0.000    4.000 
#    3.000    0.000    0.000    0.000    0.000    0.000 
#    0.000    0.000    0.000    0.000    0.000    0.000 
#
# Total GULP energy -268112.905884 kJ/mol
# GULP energy per Si atom -5585.685539 kJ/mol
# Density = 1.763039 g / cm^3
# Si number density = 17.670606 Si / 1000 Ang^3
#
#
#
# Elastic Constant Matrix: (Units=GPa)
#
#
# Indices 1 2 3 4 5 6 
#
# 1 136.1957 66.7873 88.1661 0.0000 0.0000 0.0000
# 2 66.7873 99.4524 58.9919 0.0000 0.0000 0.0000
# 3 88.1661 58.9919 121.8341 0.0000 0.0000 0.0000
# 4 0.0000 0.0000 0.0000 32.8235 0.0000 0.0000
# 5 0.0000 0.0000 0.0000 0.0000 34.1304 0.0000
# 6 0.0000 0.0000 0.0000 0.0000 0.0000 33.3447
#
#
#
# Elastic Compliance Matrix: (Units=1/GPa)
#
#
# Indices 1 2 3 4 5 6 
#
# 1 0.015576 -0.005295 -0.008708 0.000000 0.000000 0.000000
# 2 -0.005295 0.015906 -0.003870 0.000000 0.000000 0.000000
# 3 -0.008708 -0.003870 0.016383 0.000000 0.000000 0.000000
# 4 0.000000 0.000000 0.000000 0.030466 0.000000 0.000000
# 5 0.000000 0.000000 0.000000 0.000000 0.029299 0.000000
# 6 0.000000 0.000000 0.000000 0.000000 0.000000 0.029990
#
#
# Mechanical properties :
#
#
# Convention : Reuss Voigt Hill
#
# Bulk Modulus (GPa) = 82.50912 87.26364 84.88638
# Shear Modulus (GPa) = 28.18385 29.62884 28.90635
#
# Velocity S-wave (km/s) = 3.99802 4.09923 4.04894
# Velocity P-wave (km/s) = 8.25267 8.47913 8.36666
#
# Compressibility (1/GPa) = 0.01211987
#
# Stress axis : x y z
#
# Youngs Moduli (GPa) = 64.20217 62.86742 61.03746
#
# Poissons Ratio (x) = 0.33287 0.53150
# Poissons Ratio (y) = 0.33993 0.23624
# Poissons Ratio (z) = 0.55906 0.24332
#
# Static dielectric constant tensor:
#      x y z
#    x 1.608070 0.000000 0.000000 
#    y 0.000000 1.590000 0.000000 
#    z 0.000000 0.000000 1.568220 
# 
# From -- ./inp_files/10133.got.cif
#   From: 2010.05.17/outbox.cif.g08.bks.cpg/sg62_6_cif.got.tgz:10133.got - 2010.06.03 15:25:27.
