data_PCOD9465256
_publ_section_title
;
Structure prediction by ZEFSAII (Michael W. Deem and Ramdas Pophale) SiO2 
 PCOD9465256
Probable space group: P N M A
;
_chemical_formula_sum "Si O2"
_cell_formula_units_Z 56
_cell_length_a 5.530289
_cell_length_b 14.917739
_cell_length_c 29.541679
_cell_angle_alpha 90.000000
_cell_angle_beta 90.000000
_cell_angle_gamma 90.000000
_cell_volume 2437.171026
_symmetry_space_group_name_H-M "P N M A"
_symmetry_group_IT_number 62
_symmetry_cell_setting 'orthorhombic'
loop_
_space_group_symop_operation_xyz
x,y,z
1/2-x,-y,1/2+z
1/2+x,1/2-y,1/2-z
-x,1/2+y,-z
-x,-y,-z
1/2+x,y,1/2-z
1/2-x,1/2+y,1/2+z
x,1/2-y,z
loop_
_atom_site_type_symbol
_atom_site_label
_atom_site_fract_x
_atom_site_fract_y
_atom_site_fract_z
Si Si1 0.579867 0.852570 0.704756
Si Si2 0.351986 0.434402 0.645283
Si Si3 0.374299 0.353207 0.499776
Si Si4 0.370058 0.856742 0.276155
Si Si5 0.349480 0.988128 0.435407
Si Si6 0.479580 0.655073 0.083668
Si Si7 0.578340 0.918371 0.805865
O O1 0.627063 0.750000 0.717971
O O2 0.560997 0.909483 0.751230
O O3 0.317558 0.860048 0.682105
O O4 0.815461 0.886076 0.678020
O O5 0.572864 0.407635 0.677439
O O6 0.444493 0.491756 0.602640
O O7 0.159091 0.487116 0.675195
O O8 0.222590 0.349948 0.622544
O O9 0.448407 0.250000 0.489943
O O10 0.570627 0.415122 0.526076
O O11 0.303596 0.415603 0.457390
O O12 0.155106 0.347344 0.535471
O O13 0.109856 0.876822 0.254208
O O14 0.373512 0.750000 0.284244
O O15 0.127744 0.936073 0.413090
O O16 0.616804 0.750000 0.087519
#
# Coordination Sequence:
#
# PCOD9465256 Si02
#       7
#     8   8   8   8   8   8   8
#     4  10  20  39  61  83 110 155 220 276 321 387
#     4  11  25  37  59  89 131 161 217 269 339 394
#     4   9  19  39  64  96 129 166 210 261 326 401
#     4  10  24  42  62  88 124 172 222 276 332 390
#     4  10  21  38  64  95 128 171 211 269 320 414
#     4  10  21  38  64  92 125 169 217 265 327 398
#     4  10  21  33  60  86 114 156 205 264 328 376
#
# _framework density 22.977461999999999
#
# number of rings (size 3 to 8) (size 9 to 14) (size 15 to 20)
#    0.000    2.000    0.000    3.429    8.000    1.714 
#    0.000    2.143    0.000    0.000    0.000    0.000 
#    0.000    0.000    0.000    0.000    0.000    0.000 
#
# Total GULP energy -312652.230880 kJ/mol
# GULP energy per Si atom -5583.075551 kJ/mol
# Density = 2.292516 g / cm^3
# Si number density = 22.977462 Si / 1000 Ang^3
#
#
#
# Elastic Constant Matrix: (Units=GPa)
#
#
# Indices 1 2 3 4 5 6 
#
# 1 102.5717 31.4007 6.9392 0.0000 0.0000 0.0000
# 2 31.4007 137.4888 65.8705 0.0000 0.0000 0.0000
# 3 6.9392 65.8705 63.7991 0.0000 0.0000 0.0000
# 4 0.0000 0.0000 0.0000 -41.2403 0.0000 0.0000
# 5 0.0000 0.0000 0.0000 0.0000 16.9777 0.0000
# 6 0.0000 0.0000 0.0000 0.0000 0.0000 34.2051
#
#
#
# Elastic Compliance Matrix: (Units=1/GPa)
#
#
# Indices 1 2 3 4 5 6 
#
# 1 0.010711 -0.003736 0.002693 0.000000 0.000000 0.000000
# 2 -0.003736 0.015696 -0.015799 0.000000 0.000000 0.000000
# 3 0.002693 -0.015799 0.031694 0.000000 0.000000 0.000000
# 4 0.000000 0.000000 0.000000 -0.024248 0.000000 0.000000
# 5 0.000000 0.000000 0.000000 0.000000 0.058901 0.000000
# 6 0.000000 0.000000 0.000000 0.000000 0.000000 0.029235
#
#
# Mechanical properties :
#
#
# Convention : Reuss Voigt Hill
#
# Bulk Modulus (GPa) = 40.95905 56.92004 48.93954
# Shear Modulus (GPa) = 30.52264 15.29842 22.91053
#
# Velocity S-wave (km/s) = 3.64864 2.58311 3.16109
# Velocity P-wave (km/s) = 5.96779 5.80711 5.88800
#
# Compressibility (1/GPa) = 0.02441463
#
# Stress axis : x y z
#
# Youngs Moduli (GPa) = 93.36274 63.71042 31.55211
#
# Poissons Ratio (x) = 0.23804 -0.08496
# Poissons Ratio (y) = 0.34882 0.49850
# Poissons Ratio (z) = -0.25138 1.00658
#
# Static dielectric constant tensor:
#      x y z
#    x 1.942720 0.000000 0.000000 
#    y 0.000000 1.891880 0.000000 
#    z 0.000000 0.000000 1.846550 
# 
# From -- ./inp_files/31612.got.cif
#   From: 2010.05.17/outbox.cif.g08.bks.cpg/sg62_16_cif.got.tgz:31612.got - 2010.06.03 15:25:27.
