data_PCOD9465925
_publ_section_title
;
Structure prediction by ZEFSAII (Michael W. Deem and Ramdas Pophale) SiO2 
 PCOD9465925
Probable space group: P N M A
;
_chemical_formula_sum "Si O2"
_cell_formula_units_Z 64
_cell_length_a 23.787455
_cell_length_b 7.698613
_cell_length_c 15.894257
_cell_angle_alpha 90.000000
_cell_angle_beta 90.000000
_cell_angle_gamma 90.000000
_cell_volume 2910.721806
_symmetry_space_group_name_H-M "P N M A"
_symmetry_group_IT_number 62
_symmetry_cell_setting 'orthorhombic'
loop_
_space_group_symop_operation_xyz
x,y,z
1/2-x,-y,1/2+z
1/2+x,1/2-y,1/2-z
-x,1/2+y,-z
-x,-y,-z
1/2+x,y,1/2-z
1/2-x,1/2+y,1/2+z
x,1/2-y,z
loop_
_atom_site_type_symbol
_atom_site_label
_atom_site_fract_x
_atom_site_fract_y
_atom_site_fract_z
Si Si1 0.541180 0.549846 0.732806
Si Si2 0.616577 0.450970 0.886385
Si Si3 0.859980 0.952930 0.565026
Si Si4 0.752777 0.037956 0.146702
Si Si5 0.242345 0.958521 0.659992
Si Si6 0.583437 0.550392 0.234608
Si Si7 0.623259 0.963055 0.587404
Si Si8 0.139423 0.956404 0.096771
O O1 0.527004 0.750000 0.714788
O O2 0.581531 0.543258 0.813841
O O3 0.482988 0.456796 0.751606
O O4 0.576501 0.478776 0.653737
O O5 0.598212 0.250000 0.884024
O O6 0.682673 0.463946 0.865405
O O7 0.611839 0.525956 0.980782
O O8 0.850878 0.750000 0.544934
O O9 0.798754 0.026151 0.589703
O O10 0.897757 0.963874 0.647984
O O11 0.751694 0.250000 0.144485
O O12 0.743926 0.987996 0.243948
O O13 0.814516 0.983215 0.117438
O O14 0.237398 0.750000 0.657988
O O15 0.293773 0.014685 0.601435
O O16 0.397977 0.250000 0.773069
O O17 0.612764 0.471168 0.317549
O O18 0.623062 0.750000 0.589054
O O19 0.615397 0.022287 0.491536
O O20 0.128673 0.750000 0.097547
#
# Coordination Sequence:
#
# PCOD9465925 Si02
#       8
#     8   8   8   8   8   8   8   8
#     4  11  23  41  64  85 112 157 203 242 288 352
#     4  11  23  39  62  90 120 152 192 245 297 342
#     4  10  21  39  63  87 115 158 198 234 288 356
#     4   9  16  31  58  87 115 148 190 231 274 341
#     4  11  20  34  60  91 122 156 194 234 284 352
#     4  11  24  40  59  87 120 152 193 252 301 339
#     4   9  18  36  61  87 115 154 195 232 286 352
#     4  10  21  38  61  88 119 154 194 242 295 343
#
# _framework density 21.987673999999998
#
# number of rings (size 3 to 8) (size 9 to 14) (size 15 to 20)
#    0.000    1.750    2.500    2.250    0.000    4.500 
#    0.000    1.250    0.000    0.000    0.000    0.000 
#    0.000    0.000    0.000    0.000    0.000    0.000 
#
# Total GULP energy -357718.566016 kJ/mol
# GULP energy per Si atom -5589.352594 kJ/mol
# Density = 2.193763 g / cm^3
# Si number density = 21.987674 Si / 1000 Ang^3
#
#
#
# Elastic Constant Matrix: (Units=GPa)
#
#
# Indices 1 2 3 4 5 6 
#
# 1 83.9345 -17.3569 21.6423 0.0000 0.0000 0.0000
# 2 -17.3569 40.6921 -1.2107 0.0000 0.0000 0.0000
# 3 21.6423 -1.2107 116.5562 0.0000 0.0000 0.0000
# 4 0.0000 0.0000 0.0000 5.0410 0.0000 0.0000
# 5 0.0000 0.0000 0.0000 0.0000 2.2509 0.0000
# 6 0.0000 0.0000 0.0000 0.0000 0.0000 -29.4755
#
#
#
# Elastic Compliance Matrix: (Units=1/GPa)
#
#
# Indices 1 2 3 4 5 6 
#
# 1 0.013755 0.005793 -0.002494 0.000000 0.000000 0.000000
# 2 0.005793 0.027022 -0.000795 0.000000 0.000000 0.000000
# 3 -0.002494 -0.000795 0.009034 0.000000 0.000000 0.000000
# 4 0.000000 0.000000 0.000000 0.198373 0.000000 0.000000
# 5 0.000000 0.000000 0.000000 0.000000 0.444270 0.000000
# 6 0.000000 0.000000 0.000000 0.000000 0.000000 -0.033927
#
#
# Mechanical properties :
#
#
# Convention : Reuss Voigt Hill
#
# Bulk Modulus (GPa) = 18.24166 27.48136 22.86151
# Shear Modulus (GPa) = 7.44277 11.43716 9.43997
#
# Velocity S-wave (km/s) = 1.84183 2.28318 2.07428
# Velocity P-wave (km/s) = 3.58293 4.41319 4.01955
#
# Compressibility (1/GPa) = 0.05481956
#
# Stress axis : x y z
#
# Youngs Moduli (GPa) = 72.70079 37.00680 110.68858
#
# Poissons Ratio (x) = -0.21438 0.27604
# Poissons Ratio (y) = -0.42115 0.08799
# Poissons Ratio (z) = 0.18131 0.02942
#
# Static dielectric constant tensor:
#      x y z
#    x 1.757430 0.000000 0.000000 
#    y 0.000000 1.801330 0.000000 
#    z 0.000000 0.000000 1.827440 
# 
# From -- ./inp_files/20758.got.cif
#   From: 2010.05.17/outbox.cif.g08.bks.cpg/sg62_11_cif.got.tgz:20758.got - 2010.06.03 15:25:27.
