data_PCOD9465280
_publ_section_title
;
Structure prediction by ZEFSAII (Michael W. Deem and Ramdas Pophale) SiO2 
 PCOD9465280
Probable space group: P N M A
;
_chemical_formula_sum "Si O2"
_cell_formula_units_Z 48
_cell_length_a 10.827799
_cell_length_b 13.015015
_cell_length_c 17.630398
_cell_angle_alpha 90.000000
_cell_angle_beta 90.000000
_cell_angle_gamma 90.000000
_cell_volume 2484.545615
_symmetry_space_group_name_H-M "P N M A"
_symmetry_group_IT_number 62
_symmetry_cell_setting 'orthorhombic'
loop_
_space_group_symop_operation_xyz
x,y,z
1/2-x,-y,1/2+z
1/2+x,1/2-y,1/2-z
-x,1/2+y,-z
-x,-y,-z
1/2+x,y,1/2-z
1/2-x,1/2+y,1/2+z
x,1/2-y,z
loop_
_atom_site_type_symbol
_atom_site_label
_atom_site_fract_x
_atom_site_fract_y
_atom_site_fract_z
Si Si1 0.952502 0.456038 0.579929
Si Si2 0.078205 0.629742 0.659792
Si Si3 0.833264 0.937685 0.077664
Si Si4 0.674494 0.250000 0.688225
Si Si5 0.481405 0.250000 0.830023
Si Si6 0.420631 0.365336 0.337097
Si Si7 0.332128 0.630403 0.582281
O O1 0.812050 0.427946 0.566054
O O2 0.000000 0.500000 0.500000
O O3 0.971721 0.550739 0.637590
O O4 0.004496 0.352296 0.618988
O O5 0.050687 0.750000 0.642802
O O6 0.106560 0.622979 0.748667
O O7 0.199952 0.595899 0.613412
O O8 0.863818 0.849082 0.138102
O O9 0.860099 0.047156 0.113392
O O10 0.883720 0.923161 0.992913
O O11 0.585004 0.250000 0.762614
O O12 0.830186 0.250000 0.695027
O O13 0.384996 0.250000 0.360955
O O14 0.567357 0.375750 0.351386
O O15 0.317388 0.750000 0.561306
#
# Coordination Sequence:
#
# PCOD9465280 Si02
#       7
#     8   8   8   4   4   8   8
#     4  11  23  39  63  92 124 163 207 257 310 369
#     4  10  22  39  62  88 121 160 205 250 309 369
#     4  11  21  39  65  87 124 160 206 255 313 372
#     4  10  22  44  68  92 123 173 211 267 314 376
#     4  10  24  44  66  96 131 167 225 259 322 384
#     4  10  23  39  59  91 125 158 199 253 308 369
#     4  10  20  39  63  85 118 166 206 243 307 377
#
# _framework density 19.319427999999998
#
# number of rings (size 3 to 8) (size 9 to 14) (size 15 to 20)
#    0.000    1.667    2.500    1.500    3.500    0.667 
#    3.000    0.000    0.000    0.000    0.000    0.000 
#    0.000    0.000    0.000    0.000    0.000    0.000 
#
# Total GULP energy -267446.337580 kJ/mol
# GULP energy per Si atom -5571.798700 kJ/mol
# Density = 1.927546 g / cm^3
# Si number density = 19.319428 Si / 1000 Ang^3
#
#
#
# Elastic Constant Matrix: (Units=GPa)
#
#
# Indices 1 2 3 4 5 6 
#
# 1 32.4106 14.9630 34.3370 0.0000 0.0000 0.0000
# 2 14.9630 93.3003 61.8851 0.0000 0.0000 0.0000
# 3 34.3370 61.8851 107.7597 0.0000 0.0000 0.0000
# 4 0.0000 0.0000 0.0000 29.4672 0.0000 0.0000
# 5 0.0000 0.0000 0.0000 0.0000 28.8339 0.0000
# 6 0.0000 0.0000 0.0000 0.0000 0.0000 27.3827
#
#
#
# Elastic Compliance Matrix: (Units=1/GPa)
#
#
# Indices 1 2 3 4 5 6 
#
# 1 0.047444 0.003907 -0.017361 0.000000 0.000000 0.000000
# 2 0.003907 0.017635 -0.011372 0.000000 0.000000 0.000000
# 3 -0.017361 -0.011372 0.021343 0.000000 0.000000 0.000000
# 4 0.000000 0.000000 0.000000 0.033936 0.000000 0.000000
# 5 0.000000 0.000000 0.000000 0.000000 0.034681 0.000000
# 6 0.000000 0.000000 0.000000 0.000000 0.000000 0.036519
#
#
# Mechanical properties :
#
#
# Convention : Reuss Voigt Hill
#
# Bulk Modulus (GPa) = 27.19771 50.64897 38.92334
# Shear Modulus (GPa) = 19.72641 25.28912 22.50777
#
# Velocity S-wave (km/s) = 3.19888 3.62193 3.41696
# Velocity P-wave (km/s) = 5.26804 6.61549 5.97984
#
# Compressibility (1/GPa) = 0.03676780
#
# Stress axis : x y z
#
# Youngs Moduli (GPa) = 21.07761 56.70680 46.85402
#
# Poissons Ratio (x) = -0.22154 0.81345
# Poissons Ratio (y) = -0.08235 0.53283
# Poissons Ratio (z) = 0.36593 0.64488
#
# Static dielectric constant tensor:
#      x y z
#    x 1.704400 0.000000 0.000000 
#    y 0.000000 1.691330 0.000000 
#    z 0.000000 0.000000 1.702670 
# 
# From -- ./inp_files/23056.got.cif
#   From: 2010.05.17/outbox.cif.g08.bks.cpg/sg62_12_cif.got.tgz:23056.got - 2010.06.03 15:25:27.
