data_PCOD9465070
_publ_section_title
;
Structure prediction by ZEFSAII (Michael W. Deem and Ramdas Pophale) SiO2 
 PCOD9465070
Probable space group: P N M A
;
_chemical_formula_sum "Si O2"
_cell_formula_units_Z 64
_cell_length_a 19.696207
_cell_length_b 17.370153
_cell_length_c 9.934132
_cell_angle_alpha 90.000000
_cell_angle_beta 90.000000
_cell_angle_gamma 90.000000
_cell_volume 3398.726127
_symmetry_space_group_name_H-M "P N M A"
_symmetry_group_IT_number 62
_symmetry_cell_setting 'orthorhombic'
loop_
_space_group_symop_operation_xyz
x,y,z
1/2-x,-y,1/2+z
1/2+x,1/2-y,1/2-z
-x,1/2+y,-z
-x,-y,-z
1/2+x,y,1/2-z
1/2-x,1/2+y,1/2+z
x,1/2-y,z
loop_
_atom_site_type_symbol
_atom_site_label
_atom_site_fract_x
_atom_site_fract_y
_atom_site_fract_z
Si Si1 0.021812 0.840070 0.625944
Si Si2 0.099039 0.899087 0.873214
Si Si3 0.252660 0.085850 0.285104
Si Si4 0.258579 0.436093 0.966508
Si Si5 0.895507 0.924725 0.037261
Si Si6 0.886706 0.661443 0.762236
Si Si7 0.025635 0.661269 0.123874
Si Si8 0.112039 0.841592 0.370817
O O1 0.037411 0.750000 0.658585
O O2 0.058267 0.893589 0.734604
O O3 0.053684 0.855061 0.481569
O O4 0.941433 0.849227 0.644189
O O5 0.176651 0.879239 0.837513
O O6 0.098001 0.984270 0.937974
O O7 0.061154 0.845118 0.978987
O O8 0.189567 0.143611 0.281979
O O9 0.235695 0.015955 0.385811
O O10 0.261660 0.057250 0.129641
O O11 0.183045 0.404385 0.931736
O O12 0.319437 0.382571 0.916831
O O13 0.954913 0.883946 0.120472
O O14 0.904939 0.896356 0.883739
O O15 0.892390 0.750000 0.810694
O O16 0.011780 0.750000 0.157421
O O17 0.080566 0.630520 0.230488
O O18 0.124656 0.750000 0.362329
#
# Coordination Sequence:
#
# PCOD9465070 Si02
#       8
#     8   8   8   8   8   8   8   8
#     4  10  20  38  59  86 120 152 197 248 293 352
#     4  11  21  38  61  89 116 155 203 244 299 351
#     4  10  23  39  61  89 119 158 195 253 297 360
#     4  10  22  41  61  85 121 155 198 245 300 351
#     4  10  22  37  60  89 119 152 196 250 295 356
#     4  10  21  38  62  90 117 156 199 248 301 349
#     4  11  23  39  60  88 122 159 198 249 299 356
#     4  10  23  40  60  87 122 162 199 243 301 356
#
# _framework density 18.830584000000002
#
# number of rings (size 3 to 8) (size 9 to 14) (size 15 to 20)
#    0.000    1.750    2.500    1.125    5.250    3.500 
#    4.500    1.250    0.000    0.000    0.000    0.000 
#    0.000    0.000    0.000    0.000    0.000    0.000 
#
# Total GULP energy -357060.087456 kJ/mol
# GULP energy per Si atom -5579.063866 kJ/mol
# Density = 1.878772 g / cm^3
# Si number density = 18.830584 Si / 1000 Ang^3
#
#
#
# Elastic Constant Matrix: (Units=GPa)
#
#
# Indices 1 2 3 4 5 6 
#
# 1 87.8230 19.5542 4.5168 0.0000 0.0000 0.0000
# 2 19.5542 23.2620 -1.4147 0.0000 0.0000 0.0000
# 3 4.5168 -1.4147 38.1040 0.0000 0.0000 0.0000
# 4 0.0000 0.0000 0.0000 21.3902 0.0000 0.0000
# 5 0.0000 0.0000 0.0000 0.0000 23.1438 0.0000
# 6 0.0000 0.0000 0.0000 0.0000 0.0000 32.1219
#
#
#
# Elastic Compliance Matrix: (Units=1/GPa)
#
#
# Indices 1 2 3 4 5 6 
#
# 1 0.014179 -0.012048 -0.002128 0.000000 0.000000 0.000000
# 2 -0.012048 0.053323 0.003408 0.000000 0.000000 0.000000
# 3 -0.002128 0.003408 0.026623 0.000000 0.000000 0.000000
# 4 0.000000 0.000000 0.000000 0.046750 0.000000 0.000000
# 5 0.000000 0.000000 0.000000 0.000000 0.043208 0.000000
# 6 0.000000 0.000000 0.000000 0.000000 0.000000 0.031131
#
#
# Mechanical properties :
#
#
# Convention : Reuss Voigt Hill
#
# Bulk Modulus (GPa) = 13.77628 21.61128 17.69378
# Shear Modulus (GPa) = 19.16099 23.76671 21.46385
#
# Velocity S-wave (km/s) = 3.19336 3.55651 3.37981
# Velocity P-wave (km/s) = 4.57477 5.32603 4.96463
#
# Compressibility (1/GPa) = 0.07258855
#
# Stress axis : x y z
#
# Youngs Moduli (GPa) = 70.52924 18.75346 37.56187
#
# Poissons Ratio (x) = 0.22594 0.07993
# Poissons Ratio (y) = 0.84973 -0.12801
# Poissons Ratio (z) = 0.15009 -0.06391
#
# Static dielectric constant tensor:
#      x y z
#    x 1.657480 0.000000 0.000000 
#    y 0.000000 1.644010 0.000000 
#    z 0.000000 0.000000 1.638380 
# 
# From -- ./inp_files/8869.got.cif
#   From: 2010.05.17/outbox.cif.g08.bks.cpg/sg62_5_cif.got.tgz:8869.got - 2010.06.03 15:25:27.
