data_PCOD9465157
_publ_section_title
;
Structure prediction by ZEFSAII (Michael W. Deem and Ramdas Pophale) SiO2 
 PCOD9465157
Probable space group: P N M A
;
_chemical_formula_sum "Si O2"
_cell_formula_units_Z 48
_cell_length_a 17.066692
_cell_length_b 27.253051
_cell_length_c 5.300539
_cell_angle_alpha 90.000000
_cell_angle_beta 90.000000
_cell_angle_gamma 90.000000
_cell_volume 2465.383665
_symmetry_space_group_name_H-M "P N M A"
_symmetry_group_IT_number 62
_symmetry_cell_setting 'orthorhombic'
loop_
_space_group_symop_operation_xyz
x,y,z
1/2-x,-y,1/2+z
1/2+x,1/2-y,1/2-z
-x,1/2+y,-z
-x,-y,-z
1/2+x,y,1/2-z
1/2-x,1/2+y,1/2+z
x,1/2-y,z
loop_
_atom_site_type_symbol
_atom_site_label
_atom_site_fract_x
_atom_site_fract_y
_atom_site_fract_z
Si Si1 0.304860 0.441408 0.343694
Si Si2 0.952338 0.603660 0.121471
Si Si3 0.654012 0.038435 0.917022
Si Si4 0.927604 0.141214 0.227701
Si Si5 0.938952 0.477415 0.795219
Si Si6 0.972776 0.192397 0.733491
O O1 0.217072 0.430352 0.428995
O O2 0.303287 0.488101 0.160760
O O3 0.355664 0.396154 0.241478
O O4 0.358434 0.461672 0.572565
O O5 0.877760 0.570470 0.182567
O O6 0.949425 0.658638 0.228185
O O7 0.020919 0.574247 0.273003
O O8 0.992068 0.610883 0.846195
O O9 0.582823 0.016263 0.082175
O O10 0.938136 0.175699 0.466733
O O11 0.920483 0.173458 0.970386
O O12 0.000000 0.500000 0.000000
O O13 0.985770 0.250000 0.745806
#
# Coordination Sequence:
#
# PCOD9465157 Si02
#       6
#     8   8   8   8   8   8
#     4  11  23  35  54  87 127 165 200 232 296 370
#     4   9  22  32  57  85 114 150 195 247 290 347
#     4  12  22  36  54  86 125 165 194 239 293 369
#     4   9  22  37  59  89 114 153 196 252 295 354
#     4  11  21  34  54  83 120 159 203 236 284 356
#     4  10  20  38  63  88 109 144 204 262 310 350
#
# _framework density 19.469586
#
# number of rings (size 3 to 8) (size 9 to 14) (size 15 to 20)
#    1.000    0.667    3.333    2.000    4.667    0.000 
#    0.000    0.000    0.000    2.000    0.000    0.000 
#    0.000    0.000    0.000    0.000    0.000    0.000 
#
# Total GULP energy -267241.588341 kJ/mol
# GULP energy per Si atom -5567.533090 kJ/mol
# Density = 1.942527 g / cm^3
# Si number density = 19.469586 Si / 1000 Ang^3
#
#
#
# Elastic Constant Matrix: (Units=GPa)
#
#
# Indices 1 2 3 4 5 6 
#
# 1 54.0385 16.7074 -0.3799 0.0000 0.0000 0.0000
# 2 16.7074 123.5557 17.4341 0.0000 0.0000 0.0000
# 3 -0.3799 17.4341 66.9926 0.0000 0.0000 0.0000
# 4 0.0000 0.0000 0.0000 28.7159 0.0000 0.0000
# 5 0.0000 0.0000 0.0000 0.0000 20.3289 0.0000
# 6 0.0000 0.0000 0.0000 0.0000 0.0000 12.0292
#
#
#
# Elastic Compliance Matrix: (Units=1/GPa)
#
#
# Indices 1 2 3 4 5 6 
#
# 1 0.019356 -0.002733 0.000821 0.000000 0.000000 0.000000
# 2 -0.002733 0.008788 -0.002302 0.000000 0.000000 0.000000
# 3 0.000821 -0.002302 0.015531 0.000000 0.000000 0.000000
# 4 0.000000 0.000000 0.000000 0.034824 0.000000 0.000000
# 5 0.000000 0.000000 0.000000 0.000000 0.049191 0.000000
# 6 0.000000 0.000000 0.000000 0.000000 0.000000 0.083131
#
#
# Mechanical properties :
#
#
# Convention : Reuss Voigt Hill
#
# Bulk Modulus (GPa) = 28.37224 34.67890 31.52557
# Shear Modulus (GPa) = 21.64515 26.26983 23.95749
#
# Velocity S-wave (km/s) = 3.33790 3.67723 3.51167
# Velocity P-wave (km/s) = 5.42767 5.98998 5.71575
#
# Compressibility (1/GPa) = 0.03524572
#
# Stress axis : x y z
#
# Youngs Moduli (GPa) = 51.66319 113.79162 64.38788
#
# Poissons Ratio (x) = 0.31102 -0.05287
# Poissons Ratio (y) = 0.14121 0.14825
# Poissons Ratio (z) = -0.04242 0.26200
#
# Static dielectric constant tensor:
#      x y z
#    x 1.710900 0.000000 0.000000 
#    y 0.000000 1.707060 0.000000 
#    z 0.000000 0.000000 1.796740 
# 
# From -- ./inp_files/1227.got.cif
#   From: 2010.05.17/outbox.cif.g08.bks.cpg/sg62_1_cif.got.tgz:1227.got - 2010.06.03 15:25:27.
