data_PCOD9465100
_publ_section_title
;
Structure prediction by ZEFSAII (Michael W. Deem and Ramdas Pophale) SiO2 
 PCOD9465100
Probable space group: P N M A
;
_chemical_formula_sum "Si O2"
_cell_formula_units_Z 64
_cell_length_a 25.633292
_cell_length_b 8.385003
_cell_length_c 14.891422
_cell_angle_alpha 90.000000
_cell_angle_beta 90.000000
_cell_angle_gamma 90.000000
_cell_volume 3200.691217
_symmetry_space_group_name_H-M "P N M A"
_symmetry_group_IT_number 62
_symmetry_cell_setting 'orthorhombic'
loop_
_space_group_symop_operation_xyz
x,y,z
1/2-x,-y,1/2+z
1/2+x,1/2-y,1/2-z
-x,1/2+y,-z
-x,-y,-z
1/2+x,y,1/2-z
1/2-x,1/2+y,1/2+z
x,1/2-y,z
loop_
_atom_site_type_symbol
_atom_site_label
_atom_site_fract_x
_atom_site_fract_y
_atom_site_fract_z
Si Si1 0.758147 0.942103 0.552609
Si Si2 0.370847 0.438935 0.902315
Si Si3 0.118088 0.944501 0.201790
Si Si4 0.984472 0.056765 0.901158
Si Si5 0.948479 0.560270 0.450796
Si Si6 0.566611 0.440931 0.748682
Si Si7 0.180449 0.939223 0.795976
Si Si8 0.735640 0.942778 0.346955
O O1 0.764591 0.750000 0.559719
O O2 0.707685 0.986909 0.610632
O O3 0.750386 0.982968 0.448882
O O4 0.809647 0.022871 0.592177
O O5 0.379193 0.250000 0.907337
O O6 0.391803 0.494653 0.805048
O O7 0.399737 0.515625 0.986684
O O8 0.118004 0.750000 0.201838
O O9 0.072612 0.995685 0.134075
O O10 0.176420 0.994149 0.174365
O O11 0.984547 0.250000 0.902123
O O12 0.026433 0.000471 0.826868
O O13 0.000000 0.000000 0.000000
O O14 0.951195 0.750000 0.444997
O O15 0.943873 0.495961 0.349265
O O16 0.000000 0.500000 0.500000
O O17 0.560063 0.250000 0.752240
O O18 0.625689 0.478257 0.721970
O O19 0.171829 0.750000 0.796926
O O20 0.222609 0.982198 0.719996
O O21 0.737853 0.750000 0.337342
#
# Coordination Sequence:
#
# PCOD9465100 Si02
#       8
#     8   8   8   8   8   8   8   8
#     4  10  22  37  56  85 119 155 197 246 299 353
#     4  11  21  37  62  90 119 156 198 242 296 358
#     4   9  19  37  62  85 113 156 200 237 287 364
#     4  10  22  41  63  87 116 154 202 249 293 347
#     4  11  23  40  63  90 120 156 197 243 295 356
#     4  10  23  42  61  84 121 164 201 238 293 368
#     4  11  23  38  59  90 123 153 196 255 300 339
#     4  10  20  38  61  84 115 162 202 234 294 369
#
# _framework density 19.995681000000001
#
# number of rings (size 3 to 8) (size 9 to 14) (size 15 to 20)
#    0.000    1.750    1.250    2.625    1.750    7.500 
#    0.000    3.125    0.000    0.000    0.000    0.000 
#    0.000    0.000    0.000    0.000    0.000    0.000 
#
# Total GULP energy -357636.073008 kJ/mol
# GULP energy per Si atom -5588.063641 kJ/mol
# Density = 1.995017 g / cm^3
# Si number density = 19.995681 Si / 1000 Ang^3
#
#
#
# Elastic Constant Matrix: (Units=GPa)
#
#
# Indices 1 2 3 4 5 6 
#
# 1 80.6932 -1.9489 0.9362 0.0000 0.0000 0.0000
# 2 -1.9489 9.2037 7.6633 0.0000 0.0000 0.0000
# 3 0.9362 7.6633 67.3190 0.0000 0.0000 0.0000
# 4 0.0000 0.0000 0.0000 25.6647 0.0000 0.0000
# 5 0.0000 0.0000 0.0000 0.0000 37.7919 0.0000
# 6 0.0000 0.0000 0.0000 0.0000 0.0000 14.0566
#
#
#
# Elastic Compliance Matrix: (Units=1/GPa)
#
#
# Indices 1 2 3 4 5 6 
#
# 1 0.012473 0.003077 -0.000524 0.000000 0.000000 0.000000
# 2 0.003077 0.120787 -0.013793 0.000000 0.000000 0.000000
# 3 -0.000524 -0.013793 0.016432 0.000000 0.000000 0.000000
# 4 0.000000 0.000000 0.000000 0.038964 0.000000 0.000000
# 5 0.000000 0.000000 0.000000 0.000000 0.026461 0.000000
# 6 0.000000 0.000000 0.000000 0.000000 0.000000 0.071141
#
#
# Mechanical properties :
#
#
# Convention : Reuss Voigt Hill
#
# Bulk Modulus (GPa) = 7.86078 18.94637 13.40358
# Shear Modulus (GPa) = 14.23929 25.54034 19.88981
#
# Velocity S-wave (km/s) = 2.67145 3.57780 3.15732
# Velocity P-wave (km/s) = 3.66815 5.15396 4.47318
#
# Compressibility (1/GPa) = 0.12721384
#
# Stress axis : x y z
#
# Youngs Moduli (GPa) = 80.17306 8.27901 60.85670
#
# Poissons Ratio (x) = -0.02548 0.03187
# Poissons Ratio (y) = -0.24671 0.83938
# Poissons Ratio (z) = 0.04199 0.11419
#
# Static dielectric constant tensor:
#      x y z
#    x 1.688730 0.000000 0.000000 
#    y 0.000000 1.696660 0.000000 
#    z 0.000000 0.000000 1.680400 
# 
# From -- ./inp_files/20826.got.cif
#   From: 2010.05.17/outbox.cif.g08.bks.cpg/sg62_11_cif.got.tgz:20826.got - 2010.06.03 15:25:27.
