data_PCOD9465262
_publ_section_title
;
Structure prediction by ZEFSAII (Michael W. Deem and Ramdas Pophale) SiO2 
 PCOD9465262
Probable space group: P N M A
;
_chemical_formula_sum "Si O2"
_cell_formula_units_Z 64
_cell_length_a 15.769832
_cell_length_b 29.164399
_cell_length_c 5.536551
_cell_angle_alpha 90.000000
_cell_angle_beta 90.000000
_cell_angle_gamma 90.000000
_cell_volume 2546.357650
_symmetry_space_group_name_H-M "P N M A"
_symmetry_group_IT_number 62
_symmetry_cell_setting 'orthorhombic'
loop_
_space_group_symop_operation_xyz
x,y,z
1/2-x,-y,1/2+z
1/2+x,1/2-y,1/2-z
-x,1/2+y,-z
-x,-y,-z
1/2+x,y,1/2-z
1/2-x,1/2+y,1/2+z
x,1/2-y,z
loop_
_atom_site_type_symbol
_atom_site_label
_atom_site_fract_x
_atom_site_fract_y
_atom_site_fract_z
Si Si1 0.034443 0.657774 0.273235
Si Si2 0.566429 0.082367 0.938776
Si Si3 0.636394 0.603845 0.613969
Si Si4 0.617388 0.800932 0.836632
Si Si5 0.344401 0.606149 0.576632
Si Si6 0.572078 0.199994 0.400418
Si Si7 0.230958 0.551501 0.276466
Si Si8 0.611681 0.988486 0.887580
O O1 0.108702 0.688973 0.378143
O O2 0.003023 0.621616 0.471543
O O3 0.962121 0.690732 0.171884
O O4 0.064896 0.623213 0.067575
O O5 0.616144 0.080639 0.192272
O O6 0.613022 0.099055 0.690842
O O7 0.544966 0.030008 0.878797
O O8 0.659956 0.652837 0.736170
O O9 0.712039 0.584492 0.446728
O O10 0.598497 0.558650 0.744915
O O11 0.651206 0.750000 0.783971
O O12 0.518020 0.800483 0.745216
O O13 0.362460 0.658941 0.644319
O O14 0.254944 0.582812 0.509546
O O15 0.610083 0.250000 0.370268
O O16 0.145229 0.525757 0.348570
O O17 0.304436 0.514702 0.224712
#
# Coordination Sequence:
#
# PCOD9465262 Si02
#       8
#     8   8   8   8   8   8   8   8
#     4  10  20  39  61  94 136 168 215 278 340 403
#     4  10  22  38  65  94 132 171 216 266 339 396
#     4  11  24  39  59  98 126 171 225 279 323 411
#     4  10  20  39  65  90 128 172 215 269 334 402
#     4  10  21  38  62  95 129 169 218 277 322 390
#     4   9  18  35  63  95 124 163 217 269 334 395
#     4  11  22  39  63  86 126 172 226 268 325 394
#     4  11  22  39  64  89 124 172 227 265 330 396
#
# _framework density 25.133939000000002
#
# number of rings (size 3 to 8) (size 9 to 14) (size 15 to 20)
#    0.000    1.750    2.500    1.875    3.500    1.000 
#    0.000    3.125    0.000    0.750    0.000    0.000 
#    0.000    0.000    0.000    0.000    0.000    0.000 
#
# Total GULP energy -356971.312530 kJ/mol
# GULP energy per Si atom -5577.676758 kJ/mol
# Density = 2.507673 g / cm^3
# Si number density = 25.133939 Si / 1000 Ang^3
#
#
#
# Elastic Constant Matrix: (Units=GPa)
#
#
# Indices 1 2 3 4 5 6 
#
# 1 27.8686 30.6680 -3.9369 0.0000 0.0000 0.0000
# 2 30.6680 246.6910 49.6459 0.0000 0.0000 0.0000
# 3 -3.9369 49.6459 75.8275 0.0000 0.0000 0.0000
# 4 0.0000 0.0000 0.0000 27.0439 0.0000 0.0000
# 5 0.0000 0.0000 0.0000 0.0000 31.1937 0.0000
# 6 0.0000 0.0000 0.0000 0.0000 0.0000 35.1527
#
#
#
# Elastic Compliance Matrix: (Units=1/GPa)
#
#
# Indices 1 2 3 4 5 6 
#
# 1 0.044437 -0.006897 0.006823 0.000000 0.000000 0.000000
# 2 -0.006897 0.005739 -0.004116 0.000000 0.000000 0.000000
# 3 0.006823 -0.004116 0.016237 0.000000 0.000000 0.000000
# 4 0.000000 0.000000 0.000000 0.036977 0.000000 0.000000
# 5 0.000000 0.000000 0.000000 0.000000 0.032058 0.000000
# 6 0.000000 0.000000 0.000000 0.000000 0.000000 0.028447
#
#
# Mechanical properties :
#
#
# Convention : Reuss Voigt Hill
#
# Bulk Modulus (GPa) = 17.23172 55.90455 36.56814
# Shear Modulus (GPa) = 26.09339 36.94542 31.51941
#
# Velocity S-wave (km/s) = 3.22557 3.83814 3.54511
# Velocity P-wave (km/s) = 4.55447 6.47555 5.59803
#
# Compressibility (1/GPa) = 0.05803250
#
# Stress axis : x y z
#
# Youngs Moduli (GPa) = 22.50392 174.23386 61.58856
#
# Poissons Ratio (x) = 1.20175 -0.42022
# Poissons Ratio (y) = 0.15522 0.25349
# Poissons Ratio (z) = -0.15354 0.71712
#
# Static dielectric constant tensor:
#      x y z
#    x 2.140950 0.000000 0.000000 
#    y 0.000000 1.956470 0.000000 
#    z 0.000000 0.000000 2.114910 
# 
# From -- ./inp_files/2389.got.cif
#   From: 2010.05.17/outbox.cif.g08.bks.cpg/sg62_2_cif.got.tgz:2389.got - 2010.06.03 15:25:27.
