data_PCOD9465784
_publ_section_title
;
Structure prediction by ZEFSAII (Michael W. Deem and Ramdas Pophale) SiO2 
 PCOD9465784
Probable space group: P N M A
;
_chemical_formula_sum "Si O2"
_cell_formula_units_Z 56
_cell_length_a 9.496813
_cell_length_b 13.900725
_cell_length_c 19.842143
_cell_angle_alpha 90.000000
_cell_angle_beta 90.000000
_cell_angle_gamma 90.000000
_cell_volume 2619.412607
_symmetry_space_group_name_H-M "P N M A"
_symmetry_group_IT_number 62
_symmetry_cell_setting 'orthorhombic'
loop_
_space_group_symop_operation_xyz
x,y,z
1/2-x,-y,1/2+z
1/2+x,1/2-y,1/2-z
-x,1/2+y,-z
-x,-y,-z
1/2+x,y,1/2-z
1/2-x,1/2+y,1/2+z
x,1/2-y,z
loop_
_atom_site_type_symbol
_atom_site_label
_atom_site_fract_x
_atom_site_fract_y
_atom_site_fract_z
Si Si1 0.159161 0.512688 0.021410
Si Si2 0.609867 0.136410 0.024813
Si Si3 0.151123 0.634488 0.438281
Si Si4 0.126225 0.635381 0.743740
Si Si5 0.857815 0.634535 0.668337
Si Si6 0.741525 0.961611 0.323102
Si Si7 0.951948 0.134223 0.708476
O O1 0.185386 0.531667 0.100609
O O2 0.232154 0.605673 0.988700
O O3 0.242909 0.424269 0.985841
O O4 0.000000 0.500000 0.000000
O O5 0.597492 0.250000 0.025851
O O6 0.577822 0.097048 0.099229
O O7 0.501778 0.105380 0.967931
O O8 0.171280 0.750000 0.445974
O O9 0.144197 0.614886 0.358249
O O10 0.144578 0.750000 0.734203
O O11 0.198297 0.606769 0.814402
O O12 0.215035 0.571319 0.692894
O O13 0.964996 0.612950 0.728653
O O14 0.856262 0.750000 0.662648
O O15 0.625365 0.915098 0.272448
O O16 0.889569 0.904095 0.308321
O O17 0.959084 0.250000 0.717738
#
# Coordination Sequence:
#
# PCOD9465784 Si02
#       7
#     8   8   8   8   8   8   8
#     4  12  28  43  66 103 145 184 233 303 366 439
#     4  10  21  41  70  95 126 176 233 286 347 423
#     4  10  23  46  74 100 134 191 247 298 360 437
#     4  10  21  37  60  95 134 171 215 271 342 424
#     4   9  19  35  59  90 126 169 212 265 327 406
#     4  12  26  43  70 104 138 187 237 301 369 437
#     4  11  26  47  73 104 140 189 252 313 369 433
#
# _framework density 21.378837000000001
#
# number of rings (size 3 to 8) (size 9 to 14) (size 15 to 20)
#    0.000    1.429    1.429    2.571    6.000    4.000 
#    0.000    1.429    0.000    0.000    0.000    0.000 
#    0.000    0.000    0.000    0.000    0.000    0.000 
#
# Total GULP energy -312211.266411 kJ/mol
# GULP energy per Si atom -5575.201186 kJ/mol
# Density = 2.133018 g / cm^3
# Si number density = 21.378837 Si / 1000 Ang^3
#
#
#
# Elastic Constant Matrix: (Units=GPa)
#
#
# Indices 1 2 3 4 5 6 
#
# 1 132.9962 24.8469 73.8523 0.0000 0.0000 0.0000
# 2 24.8469 87.4263 40.7742 0.0000 0.0000 0.0000
# 3 73.8523 40.7742 151.8451 0.0000 0.0000 0.0000
# 4 0.0000 0.0000 0.0000 28.8367 0.0000 0.0000
# 5 0.0000 0.0000 0.0000 0.0000 29.7823 0.0000
# 6 0.0000 0.0000 0.0000 0.0000 0.0000 20.5970
#
#
#
# Elastic Compliance Matrix: (Units=1/GPa)
#
#
# Indices 1 2 3 4 5 6 
#
# 1 0.010336 -0.000678 -0.004845 0.000000 0.000000 0.000000
# 2 -0.000678 0.013120 -0.003193 0.000000 0.000000 0.000000
# 3 -0.004845 -0.003193 0.009800 0.000000 0.000000 0.000000
# 4 0.000000 0.000000 0.000000 0.034678 0.000000 0.000000
# 5 0.000000 0.000000 0.000000 0.000000 0.033577 0.000000
# 6 0.000000 0.000000 0.000000 0.000000 0.000000 0.048551
#
#
# Mechanical properties :
#
#
# Convention : Reuss Voigt Hill
#
# Bulk Modulus (GPa) = 63.19830 72.35714 67.77772
# Shear Modulus (GPa) = 28.94036 31.36281 30.15158
#
# Velocity S-wave (km/s) = 3.68325 3.83430 3.75953
# Velocity P-wave (km/s) = 6.90751 7.31582 7.11460
#
# Compressibility (1/GPa) = 0.01582321
#
# Stress axis : x y z
#
# Youngs Moduli (GPa) = 96.74804 76.21825 102.04437
#
# Poissons Ratio (x) = 0.05167 0.49442
# Poissons Ratio (y) = 0.06558 0.32587
# Poissons Ratio (z) = 0.46875 0.24340
#
# Static dielectric constant tensor:
#      x y z
#    x 1.771120 0.000000 0.000000 
#    y 0.000000 1.808750 0.000000 
#    z 0.000000 0.000000 1.857930 
# 
# From -- ./inp_files/25962.got.cif
#   From: 2010.05.17/outbox.cif.g08.bks.cpg/sg62_13_cif.got.tgz:25962.got - 2010.06.03 15:25:27.
