data_PCOD9465482
_publ_section_title
;
Structure prediction by ZEFSAII (Michael W. Deem and Ramdas Pophale) SiO2 
 PCOD9465482
Probable space group: P N M A
;
_chemical_formula_sum "Si O2"
_cell_formula_units_Z 32
_cell_length_a 8.267303
_cell_length_b 5.462540
_cell_length_c 27.191288
_cell_angle_alpha 90.000000
_cell_angle_beta 90.000000
_cell_angle_gamma 90.000000
_cell_volume 1227.971437
_symmetry_space_group_name_H-M "P N M A"
_symmetry_group_IT_number 62
_symmetry_cell_setting 'orthorhombic'
loop_
_space_group_symop_operation_xyz
x,y,z
1/2-x,-y,1/2+z
1/2+x,1/2-y,1/2-z
-x,1/2+y,-z
-x,-y,-z
1/2+x,y,1/2-z
1/2-x,1/2+y,1/2+z
x,1/2-y,z
loop_
_atom_site_type_symbol
_atom_site_label
_atom_site_fract_x
_atom_site_fract_y
_atom_site_fract_z
Si Si1 0.509179 0.750000 0.905212
Si Si2 0.665793 0.750000 0.543423
Si Si3 0.305314 0.750000 0.753102
Si Si4 0.134223 0.250000 0.641144
Si Si5 0.463185 0.250000 0.327681
Si Si6 0.966277 0.250000 0.734486
Si Si7 0.000705 0.250000 0.851787
Si Si8 0.194752 0.250000 0.019869
O O1 0.324216 0.750000 0.922036
O O2 0.548864 0.497057 0.876862
O O3 0.640093 0.750000 0.949365
O O4 0.469987 0.750000 0.552326
O O5 0.688813 0.497883 0.512153
O O6 0.350953 0.750000 0.694390
O O7 0.371610 0.498884 0.775946
O O8 0.124471 0.750000 0.774401
O O9 0.321724 0.250000 0.626075
O O10 0.123932 0.250000 0.700606
O O11 0.422312 0.487930 0.359327
O O12 0.994682 0.250000 0.792300
#
# Coordination Sequence:
#
# PCOD9465482 Si02
#       8
#     4   4   4   4   4   4   4   4
#     4  12  24  43  70 104 144 182 220 274 348 409
#     4  10  21  41  73 109 145 184 223 263 312 402
#     4  10  21  34  58  84 105 139 191 273 340 395
#     4  12  26  43  62  94 130 184 218 294 352 399
#     4  10  21  34  58  84 105 139 191 273 340 395
#     4  10  23  38  63  79 117 158 227 276 335 394
#     4  10  23  38  63  79 117 158 227 276 335 394
#     4  10  21  41  73 109 145 184 223 263 312 402
#
# _framework density 26.059237
#
# number of rings (size 3 to 8) (size 9 to 14) (size 15 to 20)
#    0.000    1.500    0.000    4.500   14.000    0.000 
#    0.000    7.500    0.000    0.000    0.000    0.000 
#    0.000    0.000    0.000    0.000    0.000    0.000 
#
# Total GULP energy -179017.759592 kJ/mol
# GULP energy per Si atom -5594.304987 kJ/mol
# Density = 2.599993 g / cm^3
# Si number density = 26.059237 Si / 1000 Ang^3
#
#
#
# Elastic Constant Matrix: (Units=GPa)
#
#
# Indices 1 2 3 4 5 6 
#
# 1 163.4344 54.0337 41.0794 0.0000 0.0000 0.0000
# 2 54.0337 257.3459 12.8724 0.0000 0.0000 0.0000
# 3 41.0794 12.8724 15.7835 0.0000 0.0000 0.0000
# 4 0.0000 0.0000 0.0000 13.8937 0.0000 0.0000
# 5 0.0000 0.0000 0.0000 0.0000 30.6103 0.0000
# 6 0.0000 0.0000 0.0000 0.0000 0.0000 37.3042
#
#
#
# Elastic Compliance Matrix: (Units=1/GPa)
#
#
# Indices 1 2 3 4 5 6 
#
# 1 0.018245 -0.001517 -0.046248 0.000000 0.000000 0.000000
# 2 -0.001517 0.004177 0.000543 0.000000 0.000000 0.000000
# 3 -0.046248 0.000543 0.183282 0.000000 0.000000 0.000000
# 4 0.000000 0.000000 0.000000 0.071975 0.000000 0.000000
# 5 0.000000 0.000000 0.000000 0.000000 0.032669 0.000000
# 6 0.000000 0.000000 0.000000 0.000000 0.000000 0.026807
#
#
# Mechanical properties :
#
#
# Convention : Reuss Voigt Hill
#
# Bulk Modulus (GPa) = 8.98801 72.50387 40.74594
# Shear Modulus (GPa) = 10.66813 38.26685 24.46749
#
# Velocity S-wave (km/s) = 2.02551 3.83620 3.06750
# Velocity P-wave (km/s) = 2.98778 6.89239 5.31187
#
# Compressibility (1/GPa) = 0.11125935
#
# Stress axis : x y z
#
# Youngs Moduli (GPa) = 54.81029 239.38949 5.45607
#
# Poissons Ratio (x) = 0.36327 0.25233
# Poissons Ratio (y) = 0.08317 -0.00296
# Poissons Ratio (z) = 2.53484 -0.12990
#
# Static dielectric constant tensor:
#      x y z
#    x 2.095460 0.000000 0.000000 
#    y 0.000000 2.233430 0.000000 
#    z 0.000000 0.000000 2.061540 
# 
# From -- ./inp_files/30617.got.cif
#   From: 2010.05.17/outbox.cif.g08.bks.cpg/sg62_16_cif.got.tgz:30617.got - 2010.06.03 15:25:27.
