data_PCOD9465613
_publ_section_title
;
Structure prediction by ZEFSAII (Michael W. Deem and Ramdas Pophale) SiO2 
 PCOD9465613
Probable space group: P N M A
;
_chemical_formula_sum "Si O2"
_cell_formula_units_Z 32
_cell_length_a 7.923957
_cell_length_b 10.528946
_cell_length_c 16.332843
_cell_angle_alpha 90.000000
_cell_angle_beta 90.000000
_cell_angle_gamma 90.000000
_cell_volume 1362.664042
_symmetry_space_group_name_H-M "P N M A"
_symmetry_group_IT_number 62
_symmetry_cell_setting 'orthorhombic'
loop_
_space_group_symop_operation_xyz
x,y,z
1/2-x,-y,1/2+z
1/2+x,1/2-y,1/2-z
-x,1/2+y,-z
-x,-y,-z
1/2+x,y,1/2-z
1/2-x,1/2+y,1/2+z
x,1/2-y,z
loop_
_atom_site_type_symbol
_atom_site_label
_atom_site_fract_x
_atom_site_fract_y
_atom_site_fract_z
Si Si1 0.412392 0.000858 0.369081
Si Si2 0.730393 0.490508 0.963437
Si Si3 0.733141 0.250000 0.710074
Si Si4 0.976856 0.750000 0.778409
Si Si5 0.092087 0.250000 0.621077
Si Si6 0.132716 0.750000 0.616893
O O1 0.591011 0.982220 0.414969
O O2 0.361847 0.876775 0.318911
O O3 0.276372 0.019191 0.441312
O O4 0.432270 0.122980 0.311452
O O5 0.618642 0.374987 0.932179
O O6 0.651428 0.624790 0.937534
O O7 0.733569 0.250000 0.807755
O O8 0.915086 0.250000 0.667883
O O9 0.977952 0.750000 0.680113
O O10 0.794440 0.750000 0.821489
#
# Coordination Sequence:
#
# PCOD9465613 Si02
#       6
#     8   8   4   4   4   4
#     4  10  21  40  64  88 116 153 197 244 297 355
#     4  10  21  40  64  88 116 153 197 244 297 355
#     4  12  25  40  60  88 122 160 203 248 295 350
#     4  10  21  36  58  86 114 148 189 236 290 348
#     4  12  25  40  60  88 122 160 203 248 295 350
#     4  10  21  36  58  86 114 148 189 236 290 348
#
# _framework density 23.483409000000002
#
# number of rings (size 3 to 8) (size 9 to 14) (size 15 to 20)
#    0.000    1.500    0.000    5.250    0.000   11.000 
#    0.000    2.500    0.000    0.000    0.000    0.000 
#    0.000    0.000    0.000    0.000    0.000    0.000 
#
# Total GULP energy -179460.316763 kJ/mol
# GULP energy per Si atom -5608.134899 kJ/mol
# Density = 2.342996 g / cm^3
# Si number density = 23.483409 Si / 1000 Ang^3
#
#
#
# Elastic Constant Matrix: (Units=GPa)
#
#
# Indices 1 2 3 4 5 6 
#
# 1 89.4044 43.1999 29.0507 0.0000 0.0000 0.0000
# 2 43.1999 170.7137 28.6252 0.0000 0.0000 0.0000
# 3 29.0507 28.6252 86.1368 0.0000 0.0000 0.0000
# 4 0.0000 0.0000 0.0000 39.5677 0.0000 0.0000
# 5 0.0000 0.0000 0.0000 0.0000 51.3027 0.0000
# 6 0.0000 0.0000 0.0000 0.0000 0.0000 82.2869
#
#
#
# Elastic Compliance Matrix: (Units=1/GPa)
#
#
# Indices 1 2 3 4 5 6 
#
# 1 0.013769 -0.002865 -0.003692 0.000000 0.000000 0.000000
# 2 -0.002865 0.006800 -0.001293 0.000000 0.000000 0.000000
# 3 -0.003692 -0.001293 0.013284 0.000000 0.000000 0.000000
# 4 0.000000 0.000000 0.000000 0.025273 0.000000 0.000000
# 5 0.000000 0.000000 0.000000 0.000000 0.019492 0.000000
# 6 0.000000 0.000000 0.000000 0.000000 0.000000 0.012153
#
#
# Mechanical properties :
#
#
# Convention : Reuss Voigt Hill
#
# Bulk Modulus (GPa) = 55.08847 60.88962 57.98905
# Shear Modulus (GPa) = 44.43553 50.99006 47.71280
#
# Velocity S-wave (km/s) = 4.35467 4.66480 4.51240
# Velocity P-wave (km/s) = 6.98524 7.41612 7.20391
#
# Compressibility (1/GPa) = 0.01815262
#
# Stress axis : x y z
#
# Youngs Moduli (GPa) = 72.62583 147.06498 75.27689
#
# Poissons Ratio (x) = 0.42139 0.27789
# Poissons Ratio (y) = 0.20810 0.09736
# Poissons Ratio (z) = 0.26811 0.19020
#
# Static dielectric constant tensor:
#      x y z
#    x 1.927260 0.000000 0.000000 
#    y 0.000000 1.767950 0.000000 
#    z 0.000000 0.000000 1.848190 
# 
# From -- ./inp_files/16499.got.cif
#   From: 2010.05.17/outbox.cif.g08.bks.cpg/sg62_9_cif.got.tgz:16499.got - 2010.06.03 15:25:27.
