data_PCOD9465990
_publ_section_title
;
Structure prediction by ZEFSAII (Michael W. Deem and Ramdas Pophale) SiO2 
 PCOD9465990
Probable space group: P N M A
;
_chemical_formula_sum "Si O2"
_cell_formula_units_Z 56
_cell_length_a 13.421063
_cell_length_b 14.603498
_cell_length_c 14.006869
_cell_angle_alpha 90.000000
_cell_angle_beta 90.000000
_cell_angle_gamma 90.000000
_cell_volume 2745.268819
_symmetry_space_group_name_H-M "P N M A"
_symmetry_group_IT_number 62
_symmetry_cell_setting 'orthorhombic'
loop_
_space_group_symop_operation_xyz
x,y,z
1/2-x,-y,1/2+z
1/2+x,1/2-y,1/2-z
-x,1/2+y,-z
-x,-y,-z
1/2+x,y,1/2-z
1/2-x,1/2+y,1/2+z
x,1/2-y,z
loop_
_atom_site_type_symbol
_atom_site_label
_atom_site_fract_x
_atom_site_fract_y
_atom_site_fract_z
Si Si1 0.543690 0.539536 0.810062
Si Si2 0.755129 0.596538 0.896388
Si Si3 0.556334 0.856173 0.230893
Si Si4 0.348560 0.448915 0.376922
Si Si5 0.583209 0.941723 0.438273
Si Si6 0.237323 0.148326 0.888555
Si Si7 0.655662 0.352977 0.199615
O O1 0.645229 0.565382 0.863253
O O2 0.514971 0.432558 0.816561
O O3 0.565985 0.564589 0.700040
O O4 0.446632 0.599011 0.830954
O O5 0.827385 0.510008 0.911176
O O6 0.814601 0.648368 0.812341
O O7 0.740865 0.645844 0.997839
O O8 0.526184 0.750000 0.221709
O O9 0.560150 0.885523 0.343134
O O10 0.664496 0.864451 0.177984
O O11 0.372069 0.390036 0.470924
O O12 0.333507 0.559860 0.378612
O O13 0.243473 0.413723 0.341681
O O14 0.500000 0.000000 0.500000
O O15 0.195946 0.250000 0.865673
O O16 0.656632 0.250000 0.164178
#
# Coordination Sequence:
#
# PCOD9465990 Si02
#       7
#     8   8   8   8   8   8   8
#     4  11  21  41  63  91 132 167 207 271 334 379
#     4  10  22  39  67  93 125 171 218 264 324 384
#     4  11  22  39  64  95 130 170 213 261 329 395
#     4  10  21  38  64  90 125 164 214 271 325 385
#     4  11  20  42  67  91 127 169 209 268 321 384
#     4  10  21  39  63  93 128 168 215 264 318 394
#     4  11  22  39  62  91 125 167 219 268 327 388
#
# _framework density 20.398731999999999
#
# number of rings (size 3 to 8) (size 9 to 14) (size 15 to 20)
#    0.000    1.429    4.286    1.286    0.000    4.571 
#    0.000    2.857    0.000    0.000    0.000    0.000 
#    0.000    0.000    0.000    0.000    0.000    0.000 
#
# Total GULP energy -311782.204733 kJ/mol
# GULP energy per Si atom -5567.539370 kJ/mol
# Density = 2.035230 g / cm^3
# Si number density = 20.398732 Si / 1000 Ang^3
#
#
#
# Elastic Constant Matrix: (Units=GPa)
#
#
# Indices 1 2 3 4 5 6 
#
# 1 73.9642 23.6969 1.5175 0.0000 0.0000 0.0000
# 2 23.6969 97.3937 -2.3646 0.0000 0.0000 0.0000
# 3 1.5175 -2.3646 51.2813 0.0000 0.0000 0.0000
# 4 0.0000 0.0000 0.0000 16.5442 0.0000 0.0000
# 5 0.0000 0.0000 0.0000 0.0000 17.3211 0.0000
# 6 0.0000 0.0000 0.0000 0.0000 0.0000 -3.3199
#
#
#
# Elastic Compliance Matrix: (Units=1/GPa)
#
#
# Indices 1 2 3 4 5 6 
#
# 1 0.014681 -0.003587 -0.000600 0.000000 0.000000 0.000000
# 2 -0.003587 0.011155 0.000621 0.000000 0.000000 0.000000
# 3 -0.000600 0.000621 0.019547 0.000000 0.000000 0.000000
# 4 0.000000 0.000000 0.000000 0.060444 0.000000 0.000000
# 5 0.000000 0.000000 0.000000 0.000000 0.057733 0.000000
# 6 0.000000 0.000000 0.000000 0.000000 0.000000 -0.301217
#
#
# Mechanical properties :
#
#
# Convention : Reuss Voigt Hill
#
# Bulk Modulus (GPa) = 26.14282 29.81542 27.97912
# Shear Modulus (GPa) = -42.45442 19.42837 -11.51302
#
# Velocity S-wave (km/s) = -4.56700 3.08950 -2.37829
# Velocity P-wave (km/s) = 3.86862 5.23208 2.49083
#
# Compressibility (1/GPa) = 0.03825142
#
# Stress axis : x y z
#
# Youngs Moduli (GPa) = 68.11300 89.64300 51.15963
#
# Poissons Ratio (x) = 0.32152 0.03069
# Poissons Ratio (y) = 0.24430 -0.03174
# Poissons Ratio (z) = 0.04086 -0.05562
#
# Static dielectric constant tensor:
#      x y z
#    x 1.753960 0.000000 0.000000 
#    y 0.000000 1.825510 0.000000 
#    z 0.000000 0.000000 1.847810 
# 
# From -- ./inp_files/18091.got.cif
#   From: 2010.05.17/outbox.cif.g08.bks.cpg/sg62_10_cif.got.tgz:18091.got - 2010.06.03 15:25:27.
