data_PCOD9465439
_publ_section_title
;
Structure prediction by ZEFSAII (Michael W. Deem and Ramdas Pophale) SiO2 
 PCOD9465439
Probable space group: P N M A
;
_chemical_formula_sum "Si O2"
_cell_formula_units_Z 36
_cell_length_a 13.698253
_cell_length_b 12.749603
_cell_length_c 7.612622
_cell_angle_alpha 90.000000
_cell_angle_beta 90.000000
_cell_angle_gamma 90.000000
_cell_volume 1329.523783
_symmetry_space_group_name_H-M "P N M A"
_symmetry_group_IT_number 62
_symmetry_cell_setting 'orthorhombic'
loop_
_space_group_symop_operation_xyz
x,y,z
1/2-x,-y,1/2+z
1/2+x,1/2-y,1/2-z
-x,1/2+y,-z
-x,-y,-z
1/2+x,y,1/2-z
1/2-x,1/2+y,1/2+z
x,1/2-y,z
loop_
_atom_site_type_symbol
_atom_site_label
_atom_site_fract_x
_atom_site_fract_y
_atom_site_fract_z
Si Si1 0.129299 0.250000 0.029407
Si Si2 0.817652 0.587385 0.213797
Si Si3 0.564399 0.095937 0.219218
Si Si4 0.720752 0.865894 0.575865
Si Si5 0.470350 0.363298 0.857724
O O1 0.053101 0.343096 0.100419
O O2 0.204249 0.157370 0.955124
O O3 0.829271 0.466031 0.164528
O O4 0.745070 0.606691 0.374319
O O5 0.920030 0.635693 0.279236
O O6 0.670620 0.139072 0.161143
O O7 0.572775 0.970986 0.214086
O O8 0.487326 0.124517 0.067154
O O9 0.677712 0.750000 0.595459
O O10 0.426800 0.250000 0.816829
#
# Coordination Sequence:
#
# PCOD9465439 Si02
#       5
#     4   8   8   8   8
#     4  12  20  40  62  94 122 178 202 272 320 404
#     4  11  23  41  68  90 137 170 227 268 349 379
#     4  10  21  38  71  92 135 173 223 263 351 381
#     4  11  22  44  63  99 127 178 218 291 323 418
#     4  10  20  44  63  99 132 179 216 283 319 419
#
# _framework density 27.077362999999998
#
# number of rings (size 3 to 8) (size 9 to 14) (size 15 to 20)
#    0.000    1.333    4.444    2.667    0.000    0.889 
#    4.000    3.333    0.000    0.000    0.000    0.000 
#    0.000    0.000    0.000    0.000    0.000    0.000 
#
# Total GULP energy -200582.655914 kJ/mol
# GULP energy per Si atom -5571.740442 kJ/mol
# Density = 2.701573 g / cm^3
# Si number density = 27.077363 Si / 1000 Ang^3
#
#
#
# Elastic Constant Matrix: (Units=GPa)
#
#
# Indices 1 2 3 4 5 6 
#
# 1 45.1021 22.1351 9.1678 0.0000 0.0000 0.0000
# 2 22.1351 341.0460 53.6178 0.0000 0.0000 0.0000
# 3 9.1678 53.6178 78.5981 0.0000 0.0000 0.0000
# 4 0.0000 0.0000 0.0000 70.7516 0.0000 0.0000
# 5 0.0000 0.0000 0.0000 0.0000 32.3412 0.0000
# 6 0.0000 0.0000 0.0000 0.0000 0.0000 46.9671
#
#
#
# Elastic Compliance Matrix: (Units=1/GPa)
#
#
# Indices 1 2 3 4 5 6 
#
# 1 0.023146 -0.001207 -0.001876 0.000000 0.000000 0.000000
# 2 -0.001207 0.003347 -0.002143 0.000000 0.000000 0.000000
# 3 -0.001876 -0.002143 0.014403 0.000000 0.000000 0.000000
# 4 0.000000 0.000000 0.000000 0.014134 0.000000 0.000000
# 5 0.000000 0.000000 0.000000 0.000000 0.030920 0.000000
# 6 0.000000 0.000000 0.000000 0.000000 0.000000 0.021291
#
#
# Mechanical properties :
#
#
# Convention : Reuss Voigt Hill
#
# Bulk Modulus (GPa) = 32.84682 70.50974 51.67828
# Shear Modulus (GPa) = 39.11053 55.33368 47.22211
#
# Velocity S-wave (km/s) = 3.80465 4.52546 4.18062
# Velocity P-wave (km/s) = 5.60870 7.30774 6.51385
#
# Compressibility (1/GPa) = 0.03044435
#
# Stress axis : x y z
#
# Youngs Moduli (GPa) = 43.20441 298.74148 69.42767
#
# Poissons Ratio (x) = 0.36066 0.13026
# Poissons Ratio (y) = 0.05216 0.14876
# Poissons Ratio (z) = 0.08106 0.64011
#
# Static dielectric constant tensor:
#      x y z
#    x 2.119230 0.000000 0.000000 
#    y 0.000000 2.138960 0.000000 
#    z 0.000000 0.000000 2.522720 
# 
# From -- ./inp_files/8421.got.cif
#   From: 2010.05.17/outbox.cif.g08.bks.cpg/sg62_5_cif.got.tgz:8421.got - 2010.06.03 15:25:27.
