data_PCOD9465372
_publ_section_title
;
Structure prediction by ZEFSAII (Michael W. Deem and Ramdas Pophale) SiO2 
 PCOD9465372
Probable space group: P N M A
;
_chemical_formula_sum "Si O2"
_cell_formula_units_Z 40
_cell_length_a 9.319683
_cell_length_b 14.305131
_cell_length_c 11.437257
_cell_angle_alpha 90.000000
_cell_angle_beta 90.000000
_cell_angle_gamma 90.000000
_cell_volume 1524.806939
_symmetry_space_group_name_H-M "P N M A"
_symmetry_group_IT_number 62
_symmetry_cell_setting 'orthorhombic'
loop_
_space_group_symop_operation_xyz
x,y,z
1/2-x,-y,1/2+z
1/2+x,1/2-y,1/2-z
-x,1/2+y,-z
-x,-y,-z
1/2+x,y,1/2-z
1/2-x,1/2+y,1/2+z
x,1/2-y,z
loop_
_atom_site_type_symbol
_atom_site_label
_atom_site_fract_x
_atom_site_fract_y
_atom_site_fract_z
Si Si1 0.092039 0.403681 0.731427
Si Si2 0.428697 0.250000 0.094775
Si Si3 0.322018 0.109064 0.905552
Si Si4 0.683250 0.250000 0.234382
Si Si5 0.283095 0.434334 0.519830
Si Si6 0.988946 0.918469 0.845553
O O1 0.167740 0.367737 0.848998
O O2 0.191307 0.385887 0.619346
O O3 0.072661 0.515302 0.753493
O O4 0.936353 0.369224 0.695522
O O5 0.600861 0.250000 0.109467
O O6 0.346430 0.250000 0.219811
O O7 0.370592 0.163772 0.019265
O O8 0.317570 0.999524 0.938423
O O9 0.612194 0.158295 0.291384
O O10 0.385939 0.508920 0.586187
O O11 0.390590 0.379861 0.434650
#
# Coordination Sequence:
#
# PCOD9465372 Si02
#       6
#     8   4   8   4   8   8
#     4  11  22  41  70  95 132 179 222 278 330 391
#     4  12  28  46  64 100 134 176 224 276 342 408
#     4  11  24  42  67  98 134 172 229 275 331 408
#     4  12  26  44  68  94 140 172 212 286 344 390
#     4  10  20  40  66  98 129 174 228 268 320 405
#     4  10  22  39  66 100 131 174 223 272 338 388
#
# _framework density 26.232828999999999
#
# number of rings (size 3 to 8) (size 9 to 14) (size 15 to 20)
#    0.000    1.200    4.000    1.800    0.000    2.400 
#    0.000    1.000    0.000    0.000    0.000    0.000 
#    0.000    0.000    0.000    0.000    0.000    0.000 
#
# Total GULP energy -223908.034936 kJ/mol
# GULP energy per Si atom -5597.700873 kJ/mol
# Density = 2.617312 g / cm^3
# Si number density = 26.232829 Si / 1000 Ang^3
#
#
#
# Elastic Constant Matrix: (Units=GPa)
#
#
# Indices 1 2 3 4 5 6 
#
# 1 115.5310 -6.1197 38.2621 0.0000 0.0000 0.0000
# 2 -6.1197 37.2956 7.7063 0.0000 0.0000 0.0000
# 3 38.2621 7.7063 102.9759 0.0000 0.0000 0.0000
# 4 0.0000 0.0000 0.0000 28.2724 0.0000 0.0000
# 5 0.0000 0.0000 0.0000 0.0000 66.6690 0.0000
# 6 0.0000 0.0000 0.0000 0.0000 0.0000 -1.2212
#
#
#
# Elastic Compliance Matrix: (Units=1/GPa)
#
#
# Indices 1 2 3 4 5 6 
#
# 1 0.010089 0.002468 -0.003933 0.000000 0.000000 0.000000
# 2 0.002468 0.027838 -0.003000 0.000000 0.000000 0.000000
# 3 -0.003933 -0.003000 0.011397 0.000000 0.000000 0.000000
# 4 0.000000 0.000000 0.000000 0.035370 0.000000 0.000000
# 5 0.000000 0.000000 0.000000 0.000000 0.014999 0.000000
# 6 0.000000 0.000000 0.000000 0.000000 0.000000 -0.818886
#
#
# Mechanical properties :
#
#
# Convention : Reuss Voigt Hill
#
# Bulk Modulus (GPa) = 24.75691 37.27777 31.01734
# Shear Modulus (GPa) = -7.17569 33.14095 12.98263
#
# Velocity S-wave (km/s) = -1.65569 3.55820 2.22705
# Velocity P-wave (km/s) = 2.40889 5.57874 4.29680
#
# Compressibility (1/GPa) = 0.04039277
#
# Stress axis : x y z
#
# Youngs Moduli (GPa) = 99.11656 35.92245 87.74176
#
# Poissons Ratio (x) = -0.08866 0.34513
# Poissons Ratio (y) = -0.24464 0.26326
# Poissons Ratio (z) = 0.38987 0.10778
#
# Static dielectric constant tensor:
#      x y z
#    x 2.074330 0.000000 0.000000 
#    y 0.000000 2.086700 0.000000 
#    z 0.000000 0.000000 2.095650 
# 
# From -- ./inp_files/11101.got.cif
#   From: 2010.05.17/outbox.cif.g08.bks.cpg/sg62_6_cif.got.tgz:11101.got - 2010.06.03 15:25:27.
