data_PCOD9465193
_publ_section_title
;
Structure prediction by ZEFSAII (Michael W. Deem and Ramdas Pophale) SiO2 
 PCOD9465193
Probable space group: P N M A
;
_chemical_formula_sum "Si O2"
_cell_formula_units_Z 56
_cell_length_a 14.729468
_cell_length_b 14.539107
_cell_length_c 11.133622
_cell_angle_alpha 90.000000
_cell_angle_beta 90.000000
_cell_angle_gamma 90.000000
_cell_volume 2384.302018
_symmetry_space_group_name_H-M "P N M A"
_symmetry_group_IT_number 62
_symmetry_cell_setting 'orthorhombic'
loop_
_space_group_symop_operation_xyz
x,y,z
1/2-x,-y,1/2+z
1/2+x,1/2-y,1/2-z
-x,1/2+y,-z
-x,-y,-z
1/2+x,y,1/2-z
1/2-x,1/2+y,1/2+z
x,1/2-y,z
loop_
_atom_site_type_symbol
_atom_site_label
_atom_site_fract_x
_atom_site_fract_y
_atom_site_fract_z
Si Si1 0.875882 0.350166 0.133077
Si Si2 0.389294 0.051075 0.605312
Si Si3 0.926121 0.649122 0.926580
Si Si4 0.977794 0.941343 0.322359
Si Si5 0.782154 0.970115 0.223785
Si Si6 0.267610 0.149239 0.008876
Si Si7 0.472749 0.357281 0.070171
O O1 0.842549 0.250000 0.165256
O O2 0.813962 0.428659 0.186258
O O3 0.985136 0.353392 0.159333
O O4 0.876789 0.369489 0.990995
O O5 0.421003 0.958072 0.534395
O O6 0.297382 0.033947 0.679046
O O7 0.462854 0.076412 0.704816
O O8 0.939799 0.750000 0.990096
O O9 0.818163 0.654171 0.900705
O O10 0.999332 0.873991 0.431886
O O11 0.873572 0.930381 0.283032
O O12 0.002969 0.046072 0.366928
O O13 0.750687 0.920144 0.100833
O O14 0.273864 0.250000 0.950734
O O15 0.363161 0.134302 0.072526
O O16 0.496758 0.250000 0.102603
#
# Coordination Sequence:
#
# PCOD9465193 Si02
#       7
#     8   8   8   8   8   8   8
#     4  11  25  43  65  96 134 171 214 275 330 384
#     4  12  23  40  67  95 130 168 216 270 321 385
#     4  10  20  38  64  91 123 165 213 266 322 374
#     4  11  24  40  67  98 127 174 217 265 327 388
#     4  12  24  40  68  95 133 169 220 270 324 388
#     4  10  20  38  64  91 123 168 217 262 318 381
#     4  10  23  44  65  93 136 174 215 269 324 393
#
# _framework density 23.486955999999999
#
# number of rings (size 3 to 8) (size 9 to 14) (size 15 to 20)
#    0.000    1.143    4.286    2.143    0.000    3.429 
#    0.000    1.429    0.000    0.000    0.000    0.000 
#    0.000    0.000    0.000    0.000    0.000    0.000 
#
# Total GULP energy -312035.780629 kJ/mol
# GULP energy per Si atom -5572.067511 kJ/mol
# Density = 2.343350 g / cm^3
# Si number density = 23.486956 Si / 1000 Ang^3
#
#
#
# Elastic Constant Matrix: (Units=GPa)
#
#
# Indices 1 2 3 4 5 6 
#
# 1 77.2857 28.9451 2.7932 0.0000 0.0000 0.0000
# 2 28.9451 87.9242 28.9657 0.0000 0.0000 0.0000
# 3 2.7932 28.9657 87.6884 0.0000 0.0000 0.0000
# 4 0.0000 0.0000 0.0000 22.4862 0.0000 0.0000
# 5 0.0000 0.0000 0.0000 0.0000 24.2988 0.0000
# 6 0.0000 0.0000 0.0000 0.0000 0.0000 15.2876
#
#
#
# Elastic Compliance Matrix: (Units=1/GPa)
#
#
# Indices 1 2 3 4 5 6 
#
# 1 0.014886 -0.005324 0.001284 0.000000 0.000000 0.000000
# 2 -0.005324 0.014666 -0.004675 0.000000 0.000000 0.000000
# 3 0.001284 -0.004675 0.012907 0.000000 0.000000 0.000000
# 4 0.000000 0.000000 0.000000 0.044472 0.000000 0.000000
# 5 0.000000 0.000000 0.000000 0.000000 0.041154 0.000000
# 6 0.000000 0.000000 0.000000 0.000000 0.000000 0.065412
#
#
# Mechanical properties :
#
#
# Convention : Reuss Voigt Hill
#
# Bulk Modulus (GPa) = 39.95024 41.58959 40.76992
# Shear Modulus (GPa) = 22.80282 25.22748 24.01515
#
# Velocity S-wave (km/s) = 3.11926 3.28091 3.20111
# Velocity P-wave (km/s) = 5.47901 5.66555 5.57306
#
# Compressibility (1/GPa) = 0.02503114
#
# Stress axis : x y z
#
# Youngs Moduli (GPa) = 67.17506 68.18393 77.47498
#
# Poissons Ratio (x) = 0.36300 -0.09951
# Poissons Ratio (y) = 0.35763 0.36220
# Poissons Ratio (z) = -0.08628 0.31876
#
# Static dielectric constant tensor:
#      x y z
#    x 1.903190 0.000000 0.000000 
#    y 0.000000 1.917920 0.000000 
#    z 0.000000 0.000000 1.925020 
# 
# From -- ./inp_files/13378.got.cif
#   From: 2010.05.17/outbox.cif.g08.bks.cpg/sg62_7_cif.got.tgz:13378.got - 2010.06.03 15:25:27.
