data_PCOD9465346
_publ_section_title
;
Structure prediction by ZEFSAII (Michael W. Deem and Ramdas Pophale) SiO2 
 PCOD9465346
Probable space group: P N M A
;
_chemical_formula_sum "Si O2"
_cell_formula_units_Z 52
_cell_length_a 16.619880
_cell_length_b 16.205651
_cell_length_c 7.679146
_cell_angle_alpha 90.000000
_cell_angle_beta 90.000000
_cell_angle_gamma 90.000000
_cell_volume 2068.270275
_symmetry_space_group_name_H-M "P N M A"
_symmetry_group_IT_number 62
_symmetry_cell_setting 'orthorhombic'
loop_
_space_group_symop_operation_xyz
x,y,z
1/2-x,-y,1/2+z
1/2+x,1/2-y,1/2-z
-x,1/2+y,-z
-x,-y,-z
1/2+x,y,1/2-z
1/2-x,1/2+y,1/2+z
x,1/2-y,z
loop_
_atom_site_type_symbol
_atom_site_label
_atom_site_fract_x
_atom_site_fract_y
_atom_site_fract_z
Si Si1 0.266793 0.346273 0.919006
Si Si2 0.633419 0.520768 0.996199
Si Si3 0.581588 0.250000 0.806923
Si Si4 0.392524 0.750000 0.624340
Si Si5 0.208913 0.580140 0.036081
Si Si6 0.513762 0.075540 0.779381
Si Si7 0.400485 0.918703 0.552747
Si Si8 0.237132 0.250000 0.421754
O O1 0.278774 0.250000 0.900711
O O2 0.330604 0.390122 0.043339
O O3 0.278920 0.390709 0.734654
O O4 0.178634 0.370957 0.979085
O O5 0.710090 0.463650 0.038152
O O6 0.563935 0.532542 0.139630
O O7 0.589592 0.478724 0.837039
O O8 0.590038 0.250000 0.591633
O O9 0.531568 0.167440 0.848135
O O10 0.665447 0.250000 0.922807
O O11 0.425162 0.842440 0.684211
O O12 0.308769 0.750000 0.737185
O O13 0.140491 0.510070 0.049616
O O14 0.208413 0.668324 0.940843
O O15 0.523352 0.078882 0.574089
#
# Coordination Sequence:
#
# PCOD9465346 Si02
#       8
#     8   8   4   4   8   8   8   4
#     4  11  21  38  58  90 126 166 217 273 328 392
#     4  10  22  35  64  95 119 166 227 268 330 404
#     4  10  20  40  64  88 131 177 209 270 330 404
#     4  10  22  36  61  95 123 165 225 260 325 402
#     4  11  22  37  62  89 128 170 217 273 338 391
#     4  10  20  40  62  92 128 171 224 266 338 402
#     4  10  21  37  59  86 125 169 208 274 323 390
#     4  12  22  38  63  97 124 170 224 272 325 410
#
# _framework density 25.141783
#
# number of rings (size 3 to 8) (size 9 to 14) (size 15 to 20)
#    0.000    1.538    4.615    0.923    5.385    0.000 
#    0.000    0.769    0.000    0.000    0.000    0.000 
#    0.000    0.000    0.000    0.000    0.000    0.000 
#
# Total GULP energy -289582.970296 kJ/mol
# GULP energy per Si atom -5568.903275 kJ/mol
# Density = 2.508456 g / cm^3
# Si number density = 25.141783 Si / 1000 Ang^3
#
#
#
# Elastic Constant Matrix: (Units=GPa)
#
#
# Indices 1 2 3 4 5 6 
#
# 1 72.4670 59.0591 0.9496 0.0000 0.0000 0.0000
# 2 59.0591 239.5169 41.9534 0.0000 0.0000 0.0000
# 3 0.9496 41.9534 61.2964 0.0000 0.0000 0.0000
# 4 0.0000 0.0000 0.0000 34.8225 0.0000 0.0000
# 5 0.0000 0.0000 0.0000 0.0000 36.6161 0.0000
# 6 0.0000 0.0000 0.0000 0.0000 0.0000 20.0674
#
#
#
# Elastic Compliance Matrix: (Units=1/GPa)
#
#
# Indices 1 2 3 4 5 6 
#
# 1 0.017772 -0.004924 0.003095 0.000000 0.000000 0.000000
# 2 -0.004924 0.006108 -0.004104 0.000000 0.000000 0.000000
# 3 0.003095 -0.004104 0.019075 0.000000 0.000000 0.000000
# 4 0.000000 0.000000 0.000000 0.028717 0.000000 0.000000
# 5 0.000000 0.000000 0.000000 0.000000 0.027310 0.000000
# 6 0.000000 0.000000 0.000000 0.000000 0.000000 0.049832
#
#
# Mechanical properties :
#
#
# Convention : Reuss Voigt Hill
#
# Bulk Modulus (GPa) = 32.16639 64.13385 48.15012
# Shear Modulus (GPa) = 29.23203 36.38907 32.81055
#
# Velocity S-wave (km/s) = 3.41352 3.80854 3.61643
# Velocity P-wave (km/s) = 5.32522 6.70106 6.05236
#
# Compressibility (1/GPa) = 0.03108835
#
# Stress axis : x y z
#
# Youngs Moduli (GPa) = 56.26829 163.71451 52.42349
#
# Poissons Ratio (x) = 0.80617 -0.16225
# Poissons Ratio (y) = 0.27708 0.21517
# Poissons Ratio (z) = -0.17415 0.67195
#
# Static dielectric constant tensor:
#      x y z
#    x 1.990060 0.000000 0.000000 
#    y 0.000000 2.399120 0.000000 
#    z 0.000000 0.000000 2.248270 
# 
# From -- ./inp_files/8695.got.cif
#   From: 2010.05.17/outbox.cif.g08.bks.cpg/sg62_5_cif.got.tgz:8695.got - 2010.06.03 15:25:27.
