data_PCOD9465980
_publ_section_title
;
Structure prediction by ZEFSAII (Michael W. Deem and Ramdas Pophale) SiO2 
 PCOD9465980
Probable space group: P N M A
;
_chemical_formula_sum "Si O2"
_cell_formula_units_Z 60
_cell_length_a 23.162121
_cell_length_b 19.314181
_cell_length_c 5.064010
_cell_angle_alpha 90.000000
_cell_angle_beta 90.000000
_cell_angle_gamma 90.000000
_cell_volume 2265.422334
_symmetry_space_group_name_H-M "P N M A"
_symmetry_group_IT_number 62
_symmetry_cell_setting 'orthorhombic'
loop_
_space_group_symop_operation_xyz
x,y,z
1/2-x,-y,1/2+z
1/2+x,1/2-y,1/2-z
-x,1/2+y,-z
-x,-y,-z
1/2+x,y,1/2-z
1/2-x,1/2+y,1/2+z
x,1/2-y,z
loop_
_atom_site_type_symbol
_atom_site_label
_atom_site_fract_x
_atom_site_fract_y
_atom_site_fract_z
Si Si1 0.709816 0.673419 0.517794
Si Si2 0.981490 0.250000 0.306000
Si Si3 0.577125 0.522641 0.301249
Si Si4 0.501929 0.349858 0.697778
Si Si5 0.178000 0.321597 0.113855
Si Si6 0.649827 0.561657 0.799224
Si Si7 0.287097 0.934266 0.223182
Si Si8 0.099240 0.113628 0.456759
O O1 0.694520 0.750000 0.410894
O O2 0.766976 0.682344 0.693691
O O3 0.661040 0.639578 0.701135
O O4 0.729724 0.611276 0.323670
O O5 0.988453 0.190261 0.070650
O O6 0.977663 0.190212 0.543468
O O7 0.523370 0.573176 0.316961
O O8 0.619748 0.556219 0.080499
O O9 0.564488 0.445914 0.194110
O O10 0.609180 0.524779 0.582272
O O11 0.568643 0.358396 0.784002
O O12 0.180382 0.250000 0.946652
O O13 0.118169 0.323851 0.271040
O O14 0.186039 0.393357 0.967336
O O15 0.710587 0.517543 0.776772
O O16 0.338421 0.919954 0.015345
#
# Coordination Sequence:
#
# PCOD9465980 Si02
#       8
#     8   4   8   8   8   8   8   8
#     4  10  24  43  63  98 134 180 234 281 352 408
#     4  10  26  44  64 104 130 178 234 268 340 410
#     4  11  24  47  67 101 133 180 236 282 328 401
#     4  11  24  45  72  95 143 179 226 280 337 400
#     4  10  21  38  63  93 137 170 219 280 349 413
#     4  11  25  43  71  99 137 180 237 285 340 405
#     4  10  22  39  65  98 137 176 225 283 347 416
#     4  10  23  39  65 104 131 175 222 276 345 410
#
# _framework density 26.485126999999999
#
# number of rings (size 3 to 8) (size 9 to 14) (size 15 to 20)
#    0.000    1.600    1.333    1.600    7.467    0.533 
#    7.200    3.333    0.000    0.000    0.000    0.000 
#    0.000    0.000    0.000    0.000    0.000    0.000 
#
# Total GULP energy -334526.426543 kJ/mol
# GULP energy per Si atom -5575.440442 kJ/mol
# Density = 2.642485 g / cm^3
# Si number density = 26.485127 Si / 1000 Ang^3
#
#
#
# Elastic Constant Matrix: (Units=GPa)
#
#
# Indices 1 2 3 4 5 6 
#
# 1 36.4729 6.0948 14.3980 0.0000 0.0000 0.0000
# 2 6.0948 132.5487 7.2614 0.0000 0.0000 0.0000
# 3 14.3980 7.2614 131.9679 0.0000 0.0000 0.0000
# 4 0.0000 0.0000 0.0000 47.4254 0.0000 0.0000
# 5 0.0000 0.0000 0.0000 0.0000 33.0808 0.0000
# 6 0.0000 0.0000 0.0000 0.0000 0.0000 -88.8015
#
#
#
# Elastic Compliance Matrix: (Units=1/GPa)
#
#
# Indices 1 2 3 4 5 6 
#
# 1 0.028827 -0.001157 -0.003081 0.000000 0.000000 0.000000
# 2 -0.001157 0.007614 -0.000293 0.000000 0.000000 0.000000
# 3 -0.003081 -0.000293 0.007930 0.000000 0.000000 0.000000
# 4 0.000000 0.000000 0.000000 0.021086 0.000000 0.000000
# 5 0.000000 0.000000 0.000000 0.000000 0.030229 0.000000
# 6 0.000000 0.000000 0.000000 0.000000 0.000000 -0.011261
#
#
# Mechanical properties :
#
#
# Convention : Reuss Voigt Hill
#
# Bulk Modulus (GPa) = 28.32140 39.61089 33.96615
# Shear Modulus (GPa) = 47.50322 16.55663 32.02993
#
# Velocity S-wave (km/s) = 4.23966 2.50297 3.48135
# Velocity P-wave (km/s) = 5.88922 4.83131 5.38630
#
# Compressibility (1/GPa) = 0.03530899
#
# Stress axis : x y z
#
# Youngs Moduli (GPa) = 34.68931 131.34352 126.10495
#
# Poissons Ratio (x) = 0.15193 0.38859
# Poissons Ratio (y) = 0.04013 0.03692
# Poissons Ratio (z) = 0.10689 0.03845
#
# Static dielectric constant tensor:
#      x y z
#    x 2.126680 0.000000 0.000000 
#    y 0.000000 2.124040 0.000000 
#    z 0.000000 0.000000 2.121250 
# 
# From -- ./inp_files/3279.got.cif
#   From: 2010.05.17/outbox.cif.g08.bks.cpg/sg62_2_cif.got.tgz:3279.got - 2010.06.03 15:25:27.
