data_PCOD9465767
_publ_section_title
;
Structure prediction by ZEFSAII (Michael W. Deem and Ramdas Pophale) SiO2 
 PCOD9465767
Probable space group: P N M A
;
_chemical_formula_sum "Si O2"
_cell_formula_units_Z 48
_cell_length_a 9.367467
_cell_length_b 24.218018
_cell_length_c 10.333260
_cell_angle_alpha 90.000000
_cell_angle_beta 90.000000
_cell_angle_gamma 90.000000
_cell_volume 2344.218703
_symmetry_space_group_name_H-M "P N M A"
_symmetry_group_IT_number 62
_symmetry_cell_setting 'orthorhombic'
loop_
_space_group_symop_operation_xyz
x,y,z
1/2-x,-y,1/2+z
1/2+x,1/2-y,1/2-z
-x,1/2+y,-z
-x,-y,-z
1/2+x,y,1/2-z
1/2-x,1/2+y,1/2+z
x,1/2-y,z
loop_
_atom_site_type_symbol
_atom_site_label
_atom_site_fract_x
_atom_site_fract_y
_atom_site_fract_z
Si Si1 0.164166 0.628619 0.146994
Si Si2 0.944423 0.110253 0.426902
Si Si3 0.472501 0.935574 0.517201
Si Si4 0.794072 0.579988 0.726582
Si Si5 0.205911 0.543751 0.366047
Si Si6 0.025954 0.314933 0.647407
O O1 0.158291 0.573293 0.235223
O O2 0.322096 0.653569 0.145136
O O3 0.099693 0.606616 0.012214
O O4 0.059467 0.670574 0.221482
O O5 0.106182 0.110740 0.376192
O O6 0.932707 0.160537 0.528009
O O7 0.837250 0.107580 0.304334
O O8 0.905596 0.056863 0.517744
O O9 0.405021 0.930029 0.656777
O O10 0.347284 0.924614 0.413507
O O11 0.500000 0.000000 0.500000
O O12 0.761632 0.519922 0.664431
O O13 0.047508 0.250000 0.634868
#
# Coordination Sequence:
#
# PCOD9465767 Si02
#       6
#     8   8   8   8   8   8
#     4  11  22  41  66  94 127 159 212 266 321 383
#     4  10  25  39  63  93 129 172 222 260 312 384
#     4  11  21  34  58  94 133 168 202 245 313 396
#     4  11  22  38  60  93 137 173 202 248 320 388
#     4  10  21  37  59  95 130 171 204 250 307 391
#     4  11  25  46  69  90 119 165 226 285 324 358
#
# _framework density 20.475905000000001
#
# number of rings (size 3 to 8) (size 9 to 14) (size 15 to 20)
#    0.000    1.333    3.333    2.000    4.667    0.000 
#    0.000    0.833    0.000    0.000    0.000    0.000 
#    0.000    0.000    0.000    0.000    0.000    0.000 
#
# Total GULP energy -267846.501781 kJ/mol
# GULP energy per Si atom -5580.135454 kJ/mol
# Density = 2.042930 g / cm^3
# Si number density = 20.475905 Si / 1000 Ang^3
#
#
#
# Elastic Constant Matrix: (Units=GPa)
#
#
# Indices 1 2 3 4 5 6 
#
# 1 108.5641 19.8378 34.8671 0.0000 0.0000 0.0000
# 2 19.8378 65.0596 23.6668 0.0000 0.0000 0.0000
# 3 34.8671 23.6668 75.7429 0.0000 0.0000 0.0000
# 4 0.0000 0.0000 0.0000 14.7877 0.0000 0.0000
# 5 0.0000 0.0000 0.0000 0.0000 47.6520 0.0000
# 6 0.0000 0.0000 0.0000 0.0000 0.0000 15.4075
#
#
#
# Elastic Compliance Matrix: (Units=1/GPa)
#
#
# Indices 1 2 3 4 5 6 
#
# 1 0.010974 -0.001702 -0.004520 0.000000 0.000000 0.000000
# 2 -0.001702 0.017606 -0.004718 0.000000 0.000000 0.000000
# 3 -0.004520 -0.004718 0.016757 0.000000 0.000000 0.000000
# 4 0.000000 0.000000 0.000000 0.067624 0.000000 0.000000
# 5 0.000000 0.000000 0.000000 0.000000 0.020985 0.000000
# 6 0.000000 0.000000 0.000000 0.000000 0.000000 0.064904
#
#
# Mechanical properties :
#
#
# Convention : Reuss Voigt Hill
#
# Bulk Modulus (GPa) = 42.62959 45.12335 43.87647
# Shear Modulus (GPa) = 21.87729 26.96910 24.42319
#
# Velocity S-wave (km/s) = 3.27225 3.63314 3.45741
# Velocity P-wave (km/s) = 5.92802 6.29959 6.11662
#
# Compressibility (1/GPa) = 0.02345789
#
# Stress axis : x y z
#
# Youngs Moduli (GPa) = 91.12655 56.80010 59.67554
#
# Poissons Ratio (x) = 0.09667 0.26972
# Poissons Ratio (y) = 0.15509 0.28153
# Poissons Ratio (z) = 0.41188 0.26796
#
# Static dielectric constant tensor:
#      x y z
#    x 1.833450 0.000000 0.000000 
#    y 0.000000 1.673590 0.000000 
#    z 0.000000 0.000000 1.770850 
# 
# From -- ./inp_files/11328.got.cif
#   From: 2010.05.17/outbox.cif.g08.bks.cpg/sg62_6_cif.got.tgz:11328.got - 2010.06.03 15:25:27.
