data_PCOD9465406
_publ_section_title
;
Structure prediction by ZEFSAII (Michael W. Deem and Ramdas Pophale) SiO2 
 PCOD9465406
Probable space group: P N M A
;
_chemical_formula_sum "Si O2"
_cell_formula_units_Z 64
_cell_length_a 12.056327
_cell_length_b 8.380376
_cell_length_c 31.052356
_cell_angle_alpha 90.000000
_cell_angle_beta 90.000000
_cell_angle_gamma 90.000000
_cell_volume 3137.423026
_symmetry_space_group_name_H-M "P N M A"
_symmetry_group_IT_number 62
_symmetry_cell_setting 'orthorhombic'
loop_
_space_group_symop_operation_xyz
x,y,z
1/2-x,-y,1/2+z
1/2+x,1/2-y,1/2-z
-x,1/2+y,-z
-x,-y,-z
1/2+x,y,1/2-z
1/2-x,1/2+y,1/2+z
x,1/2-y,z
loop_
_atom_site_type_symbol
_atom_site_label
_atom_site_fract_x
_atom_site_fract_y
_atom_site_fract_z
Si Si1 0.251306 0.936797 0.804695
Si Si2 0.503414 0.558231 0.668992
Si Si3 0.258080 0.940723 0.948360
Si Si4 0.507715 0.557224 0.569174
Si Si5 0.273894 0.943460 0.539399
Si Si6 0.161640 0.562577 0.629590
Si Si7 0.288396 0.434213 0.712104
Si Si8 0.417192 0.435570 0.873419
O O1 0.264219 0.750000 0.815456
O O2 0.129231 0.986620 0.820270
O O3 0.259132 0.962918 0.753855
O O4 0.345003 0.029951 0.830833
O O5 0.492409 0.750000 0.674819
O O6 0.481386 0.522293 0.618999
O O7 0.414083 0.471806 0.698288
O O8 0.259775 0.750000 0.942267
O O9 0.131518 0.000749 0.940697
O O10 0.340864 0.016154 0.913921
O O11 0.284096 0.984803 0.997540
O O12 0.510918 0.750000 0.564995
O O13 0.402747 0.500780 0.541522
O O14 0.271891 0.750000 0.536525
O O15 0.216125 0.989202 0.584314
O O16 0.187241 0.750000 0.634621
O O17 0.213732 0.475682 0.670729
O O18 0.030546 0.534393 0.627502
O O19 0.274751 0.250000 0.723534
O O20 0.445913 0.250000 0.875888
#
# Coordination Sequence:
#
# PCOD9465406 Si02
#       8
#     8   8   8   8   8   8   8   8
#     4  11  24  44  70  95 126 171 219 258 313 384
#     4  10  20  41  69  94 124 167 216 260 309 377
#     4  11  22  39  64  94 128 167 210 255 315 388
#     4   9  17  36  63  93 126 160 205 258 308 368
#     4  10  21  39  64  93 125 163 209 263 317 371
#     4  11  24  45  69  90 123 172 219 261 316 383
#     4  12  26  42  64  98 136 166 209 266 320 372
#     4  12  26  44  65  93 129 164 210 271 326 376
#
# _framework density 20.398906
#
# number of rings (size 3 to 8) (size 9 to 14) (size 15 to 20)
#    0.000    1.250    2.500    3.750    1.750    2.500 
#    0.000    0.625    0.000    0.000    0.000    0.000 
#    0.000    0.000    0.000    0.000    0.000    0.000 
#
# Total GULP energy -357921.219092 kJ/mol
# GULP energy per Si atom -5592.519048 kJ/mol
# Density = 2.035248 g / cm^3
# Si number density = 20.398906 Si / 1000 Ang^3
#
#
#
# Elastic Constant Matrix: (Units=GPa)
#
#
# Indices 1 2 3 4 5 6 
#
# 1 71.4300 -6.1803 9.7503 0.0000 0.0000 0.0000
# 2 -6.1803 17.9895 -10.0035 0.0000 0.0000 0.0000
# 3 9.7503 -10.0035 77.1254 0.0000 0.0000 0.0000
# 4 0.0000 0.0000 0.0000 22.9248 0.0000 0.0000
# 5 0.0000 0.0000 0.0000 0.0000 13.3739 0.0000
# 6 0.0000 0.0000 0.0000 0.0000 0.0000 11.2382
#
#
#
# Elastic Compliance Matrix: (Units=1/GPa)
#
#
# Indices 1 2 3 4 5 6 
#
# 1 0.014546 0.004284 -0.001283 0.000000 0.000000 0.000000
# 2 0.004284 0.061171 0.007393 0.000000 0.000000 0.000000
# 3 -0.001283 0.007393 0.014087 0.000000 0.000000 0.000000
# 4 0.000000 0.000000 0.000000 0.043621 0.000000 0.000000
# 5 0.000000 0.000000 0.000000 0.000000 0.074773 0.000000
# 6 0.000000 0.000000 0.000000 0.000000 0.000000 0.088982
#
#
# Mechanical properties :
#
#
# Convention : Reuss Voigt Hill
#
# Bulk Modulus (GPa) = 9.04250 17.07530 13.05890
# Shear Modulus (GPa) = 15.96140 21.03929 18.50034
#
# Velocity S-wave (km/s) = 2.80029 3.21501 3.01479
# Velocity P-wave (km/s) = 3.85979 4.70857 4.30515
#
# Compressibility (1/GPa) = 0.11058888
#
# Stress axis : x y z
#
# Youngs Moduli (GPa) = 68.74973 16.34773 70.98758
#
# Poissons Ratio (x) = -0.07003 0.09110
# Poissons Ratio (y) = -0.29449 -0.52478
# Poissons Ratio (z) = 0.08822 -0.12085
#
# Static dielectric constant tensor:
#      x y z
#    x 1.709380 0.000000 0.000000 
#    y 0.000000 1.696890 0.000000 
#    z 0.000000 0.000000 1.705920 
# 
# From -- ./inp_files/32596.got.cif
#   From: 2010.05.17/outbox.cif.g08.bks.cpg/sg62_17_cif.got.tgz:32596.got - 2010.06.03 15:25:27.
