data_PCOD9465160
_publ_section_title
;
Structure prediction by ZEFSAII (Michael W. Deem and Ramdas Pophale) SiO2 
 PCOD9465160
Probable space group: P N M A
;
_chemical_formula_sum "Si O2"
_cell_formula_units_Z 56
_cell_length_a 19.512888
_cell_length_b 8.900181
_cell_length_c 14.220447
_cell_angle_alpha 90.000000
_cell_angle_beta 90.000000
_cell_angle_gamma 90.000000
_cell_volume 2469.639932
_symmetry_space_group_name_H-M "P N M A"
_symmetry_group_IT_number 62
_symmetry_cell_setting 'orthorhombic'
loop_
_space_group_symop_operation_xyz
x,y,z
1/2-x,-y,1/2+z
1/2+x,1/2-y,1/2-z
-x,1/2+y,-z
-x,-y,-z
1/2+x,y,1/2-z
1/2-x,1/2+y,1/2+z
x,1/2-y,z
loop_
_atom_site_type_symbol
_atom_site_label
_atom_site_fract_x
_atom_site_fract_y
_atom_site_fract_z
Si Si1 0.854569 0.574300 0.777180
Si Si2 0.932546 0.924181 0.041442
Si Si3 0.358167 0.923752 0.949226
Si Si4 0.992960 0.076361 0.768604
Si Si5 0.917180 0.427237 0.383189
Si Si6 0.787406 0.929041 0.278880
Si Si7 0.795407 0.428988 0.071732
O O1 0.845621 0.750000 0.798848
O O2 0.859682 0.559505 0.663093
O O3 0.788476 0.481781 0.809419
O O4 0.927448 0.511124 0.808930
O O5 0.927781 0.750000 0.013991
O O6 0.946936 0.930206 0.153882
O O7 0.862423 0.010259 0.019812
O O8 0.000000 0.000000 0.000000
O O9 0.373626 0.750000 0.971880
O O10 0.408674 0.026587 0.008463
O O11 0.278476 0.953760 0.975634
O O12 0.974325 0.250000 0.754306
O O13 0.021162 0.003763 0.673481
O O14 0.922623 0.250000 0.372232
O O15 0.847763 0.489545 0.335084
O O16 0.794626 0.750000 0.286315
O O17 0.792685 0.983729 0.170805
O O18 0.801315 0.250000 0.088854
#
# Coordination Sequence:
#
# PCOD9465160 Si02
#       7
#     8   8   8   8   8   8   8
#     4  10  22  41  64  91 124 163 207 257 310 368
#     4  11  24  40  62  90 123 164 205 254 313 371
#     4   9  21  40  61  89 123 159 202 255 310 362
#     4  11  24  42  63  90 125 166 206 253 315 374
#     4  12  24  38  62  92 122 163 212 256 306 368
#     4  11  21  37  62  88 119 160 203 253 310 368
#     4  10  20  38  63  88 118 155 200 251 305 366
#
# _framework density 22.675369
#
# number of rings (size 3 to 8) (size 9 to 14) (size 15 to 20)
#    0.000    1.429    1.429    5.143    0.000    6.857 
#    0.000    1.429    0.000    0.000    0.000    0.000 
#    0.000    0.000    0.000    0.000    0.000    0.000 
#
# Total GULP energy -313511.170441 kJ/mol
# GULP energy per Si atom -5598.413758 kJ/mol
# Density = 2.262376 g / cm^3
# Si number density = 22.675369 Si / 1000 Ang^3
#
#
#
# Elastic Constant Matrix: (Units=GPa)
#
#
# Indices 1 2 3 4 5 6 
#
# 1 88.9765 6.3661 2.9604 0.0000 0.0000 0.0000
# 2 6.3661 92.0756 15.0815 0.0000 0.0000 0.0000
# 3 2.9604 15.0815 52.3709 0.0000 0.0000 0.0000
# 4 0.0000 0.0000 0.0000 24.0185 0.0000 0.0000
# 5 0.0000 0.0000 0.0000 0.0000 35.9449 0.0000
# 6 0.0000 0.0000 0.0000 0.0000 0.0000 38.7755
#
#
#
# Elastic Compliance Matrix: (Units=1/GPa)
#
#
# Indices 1 2 3 4 5 6 
#
# 1 0.011304 -0.000710 -0.000434 0.000000 0.000000 0.000000
# 2 -0.000710 0.011443 -0.003255 0.000000 0.000000 0.000000
# 3 -0.000434 -0.003255 0.020057 0.000000 0.000000 0.000000
# 4 0.000000 0.000000 0.000000 0.041635 0.000000 0.000000
# 5 0.000000 0.000000 0.000000 0.000000 0.027820 0.000000
# 6 0.000000 0.000000 0.000000 0.000000 0.000000 0.025790
#
#
# Mechanical properties :
#
#
# Convention : Reuss Voigt Hill
#
# Bulk Modulus (GPa) = 29.40852 31.35989 30.38420
# Shear Modulus (GPa) = 31.60905 33.68210 32.64558
#
# Velocity S-wave (km/s) = 3.73766 3.85828 3.79845
# Velocity P-wave (km/s) = 5.62355 5.80589 5.71545
#
# Compressibility (1/GPa) = 0.03400375
#
# Stress axis : x y z
#
# Youngs Moduli (GPa) = 88.46266 87.39018 49.85912
#
# Poissons Ratio (x) = 0.06208 0.02166
# Poissons Ratio (y) = 0.06285 0.16230
# Poissons Ratio (z) = 0.03843 0.28446
#
# Static dielectric constant tensor:
#      x y z
#    x 1.831280 0.000000 0.000000 
#    y 0.000000 1.754540 0.000000 
#    z 0.000000 0.000000 1.931920 
# 
# From -- ./inp_files/20242.got.cif
#   From: 2010.05.17/outbox.cif.g08.bks.cpg/sg62_11_cif.got.tgz:20242.got - 2010.06.03 15:25:27.
