data_PCOD9465472
_publ_section_title
;
Structure prediction by ZEFSAII (Michael W. Deem and Ramdas Pophale) SiO2 
 PCOD9465472
Probable space group: P N M A
;
_chemical_formula_sum "Si O2"
_cell_formula_units_Z 52
_cell_length_a 5.198778
_cell_length_b 15.458263
_cell_length_c 30.158628
_cell_angle_alpha 90.000000
_cell_angle_beta 90.000000
_cell_angle_gamma 90.000000
_cell_volume 2423.670321
_symmetry_space_group_name_H-M "P N M A"
_symmetry_group_IT_number 62
_symmetry_cell_setting 'orthorhombic'
loop_
_space_group_symop_operation_xyz
x,y,z
1/2-x,-y,1/2+z
1/2+x,1/2-y,1/2-z
-x,1/2+y,-z
-x,-y,-z
1/2+x,y,1/2-z
1/2-x,1/2+y,1/2+z
x,1/2-y,z
loop_
_atom_site_type_symbol
_atom_site_label
_atom_site_fract_x
_atom_site_fract_y
_atom_site_fract_z
Si Si1 0.198210 0.420572 0.995920
Si Si2 0.796793 0.448418 0.650282
Si Si3 0.033654 0.654625 0.085262
Si Si4 0.387296 0.650289 0.220472
Si Si5 0.911628 0.003889 0.426701
Si Si6 0.991797 0.060676 0.219096
Si Si7 0.598089 0.750000 0.721529
O O1 0.422724 0.453359 0.963640
O O2 0.067530 0.347834 0.965770
O O3 0.299147 0.414339 0.046361
O O4 0.000000 0.500000 0.000000
O O5 0.684466 0.369133 0.621246
O O6 0.020844 0.410872 0.681264
O O7 0.586077 0.493908 0.681089
O O8 0.909822 0.517923 0.615565
O O9 0.143076 0.750000 0.094236
O O10 0.209160 0.569172 0.088058
O O11 0.106431 0.638663 0.241601
O O12 0.403695 0.750000 0.205796
O O13 0.768404 0.052658 0.257092
O O14 0.963437 0.158011 0.199821
O O15 0.395096 0.750000 0.762939
#
# Coordination Sequence:
#
# PCOD9465472 Si02
#       7
#     8   8   8   8   8   8   4
#     4   8  16  36  57  78 104 140 184 232 290 350
#     4  11  22  33  53  83 115 152 201 244 289 351
#     4  10  21  34  54  85 117 151 193 240 288 347
#     4  10  22  37  51  70 110 163 207 249 290 332
#     4   9  19  33  56  81 107 145 186 242 294 348
#     4  10  21  36  60  85 117 159 205 251 305 358
#     4   8  16  34  56  84 106 140 192 250 302 352
#
# _framework density 21.455062999999999
#
# number of rings (size 3 to 8) (size 9 to 14) (size 15 to 20)
#    0.000    2.462    0.000    1.385    4.308    3.077 
#    0.000    0.000    1.692    0.000   42.000    0.000 
#    0.000    0.000    0.000    0.000    0.000    0.000 
#
# Total GULP energy -289880.659350 kJ/mol
# GULP energy per Si atom -5574.628064 kJ/mol
# Density = 2.140623 g / cm^3
# Si number density = 21.455063 Si / 1000 Ang^3
#
#
#
# Elastic Constant Matrix: (Units=GPa)
#
#
# Indices 1 2 3 4 5 6 
#
# 1 83.9342 1.8407 26.7717 0.0000 0.0000 0.0000
# 2 1.8407 75.3926 35.1039 0.0000 0.0000 0.0000
# 3 26.7717 35.1039 99.8463 0.0000 0.0000 0.0000
# 4 0.0000 0.0000 0.0000 13.0949 0.0000 0.0000
# 5 0.0000 0.0000 0.0000 0.0000 35.3466 0.0000
# 6 0.0000 0.0000 0.0000 0.0000 0.0000 17.8177
#
#
#
# Elastic Compliance Matrix: (Units=1/GPa)
#
#
# Indices 1 2 3 4 5 6 
#
# 1 0.013184 0.001583 -0.004092 0.000000 0.000000 0.000000
# 2 0.001583 0.016050 -0.006068 0.000000 0.000000 0.000000
# 3 -0.004092 -0.006068 0.013246 0.000000 0.000000 0.000000
# 4 0.000000 0.000000 0.000000 0.076365 0.000000 0.000000
# 5 0.000000 0.000000 0.000000 0.000000 0.028291 0.000000
# 6 0.000000 0.000000 0.000000 0.000000 0.000000 0.056124
#
#
# Mechanical properties :
#
#
# Convention : Reuss Voigt Hill
#
# Bulk Modulus (GPa) = 39.48110 42.95619 41.21864
# Shear Modulus (GPa) = 21.84779 26.28230 24.06504
#
# Velocity S-wave (km/s) = 3.19455 3.50379 3.35274
# Velocity P-wave (km/s) = 5.66115 6.03603 5.85159
#
# Compressibility (1/GPa) = 0.02532858
#
# Stress axis : x y z
#
# Youngs Moduli (GPa) = 75.84667 62.30389 75.49600
#
# Poissons Ratio (x) = -0.09865 0.30891
# Poissons Ratio (y) = -0.12009 0.45807
# Poissons Ratio (z) = 0.31035 0.37803
#
# Static dielectric constant tensor:
#      x y z
#    x 1.622680 0.000000 0.000000 
#    y 0.000000 1.819750 0.000000 
#    z 0.000000 0.000000 1.649850 
# 
# From -- ./inp_files/30485.got.cif
#   From: 2010.05.17/outbox.cif.g08.bks.cpg/sg62_16_cif.got.tgz:30485.got - 2010.06.03 15:25:27.
