data_PCOD9465075
_publ_section_title
;
Structure prediction by ZEFSAII (Michael W. Deem and Ramdas Pophale) SiO2 
 PCOD9465075
Probable space group: P N M A
;
_chemical_formula_sum "Si O2"
_cell_formula_units_Z 64
_cell_length_a 25.119381
_cell_length_b 7.495475
_cell_length_c 14.331328
_cell_angle_alpha 90.000000
_cell_angle_beta 90.000000
_cell_angle_gamma 90.000000
_cell_volume 2698.326689
_symmetry_space_group_name_H-M "P N M A"
_symmetry_group_IT_number 62
_symmetry_cell_setting 'orthorhombic'
loop_
_space_group_symop_operation_xyz
x,y,z
1/2-x,-y,1/2+z
1/2+x,1/2-y,1/2-z
-x,1/2+y,-z
-x,-y,-z
1/2+x,y,1/2-z
1/2-x,1/2+y,1/2+z
x,1/2-y,z
loop_
_atom_site_type_symbol
_atom_site_label
_atom_site_fract_x
_atom_site_fract_y
_atom_site_fract_z
Si Si1 0.760815 0.956966 0.613444
Si Si2 0.396227 0.967717 0.208760
Si Si3 0.860838 0.534053 0.085371
Si Si4 0.051935 0.461841 0.060757
Si Si5 0.589074 0.545579 0.246613
Si Si6 0.201602 0.031250 0.578172
Si Si7 0.700403 0.951098 0.308147
Si Si8 0.503959 0.535853 0.109465
O O1 0.772644 0.750000 0.631594
O O2 0.798700 0.021216 0.529878
O O3 0.699803 0.971975 0.581455
O O4 0.768920 0.056650 0.709791
O O5 0.396316 0.750000 0.208737
O O6 0.385752 0.023443 0.315224
O O7 0.347614 0.024656 0.141880
O O8 0.451718 0.028764 0.164445
O O9 0.860634 0.750000 0.084604
O O10 0.897233 0.474475 0.999253
O O11 0.056190 0.250000 0.073200
O O12 0.050776 0.544806 0.163337
O O13 0.000000 0.500000 0.000000
O O14 0.603059 0.750000 0.221723
O O15 0.643920 0.461860 0.283831
O O16 0.557279 0.465838 0.159798
O O17 0.202748 0.250000 0.580515
O O18 0.257289 0.965498 0.621731
O O19 0.689674 0.750000 0.342904
O O20 0.505057 0.750000 0.121352
O O21 0.500000 0.500000 0.000000
#
# Coordination Sequence:
#
# PCOD9465075 Si02
#       8
#     8   8   8   8   8   8   8   8
#     4  11  22  34  55  88 117 145 190 245 292 343
#     4   9  17  34  59  79 105 149 194 229 270 345
#     4  10  20  38  62  85 114 155 196 231 285 357
#     4  11  23  38  62  93 122 155 195 245 300 360
#     4  10  22  40  60  85 119 159 201 247 299 358
#     4   9  18  33  55  80 107 150 194 225 279 348
#     4  10  20  38  60  80 114 159 195 234 290 357
#     4  10  22  39  60  85 114 152 198 244 292 344
#
# _framework density 23.718402999999999
#
# number of rings (size 3 to 8) (size 9 to 14) (size 15 to 20)
#    0.000    2.000    1.250    2.250    1.750    5.000 
#    0.000    1.875    0.000    0.000    0.000    0.000 
#    0.000    0.000    0.000    0.000    0.000    0.000 
#
# Total GULP energy -357906.173379 kJ/mol
# GULP energy per Si atom -5592.283959 kJ/mol
# Density = 2.366442 g / cm^3
# Si number density = 23.718403 Si / 1000 Ang^3
#
#
#
# Elastic Constant Matrix: (Units=GPa)
#
#
# Indices 1 2 3 4 5 6 
#
# 1 75.2169 -1.0889 -8.5945 0.0000 0.0000 0.0000
# 2 -1.0889 75.9880 -0.8740 0.0000 0.0000 0.0000
# 3 -8.5945 -0.8740 86.7758 0.0000 0.0000 0.0000
# 4 0.0000 0.0000 0.0000 3.1606 0.0000 0.0000
# 5 0.0000 0.0000 0.0000 0.0000 43.5126 0.0000
# 6 0.0000 0.0000 0.0000 0.0000 0.0000 2.1247
#
#
#
# Elastic Compliance Matrix: (Units=1/GPa)
#
#
# Indices 1 2 3 4 5 6 
#
# 1 0.013450 0.000208 0.001334 0.000000 0.000000 0.000000
# 2 0.000208 0.013165 0.000153 0.000000 0.000000 0.000000
# 3 0.001334 0.000153 0.011658 0.000000 0.000000 0.000000
# 4 0.000000 0.000000 0.000000 0.316393 0.000000 0.000000
# 5 0.000000 0.000000 0.000000 0.000000 0.022982 0.000000
# 6 0.000000 0.000000 0.000000 0.000000 0.000000 0.470657
#
#
# Mechanical properties :
#
#
# Convention : Reuss Voigt Hill
#
# Bulk Modulus (GPa) = 24.00166 24.09622 24.04894
# Shear Modulus (GPa) = 5.82207 26.32879 16.07543
#
# Velocity S-wave (km/s) = 1.56844 3.33537 2.60621
# Velocity P-wave (km/s) = 3.66352 5.00142 4.38381
#
# Compressibility (1/GPa) = 0.04166379
#
# Stress axis : x y z
#
# Youngs Moduli (GPa) = 74.34752 75.96059 85.78068
#
# Poissons Ratio (x) = -0.01581 -0.11445
# Poissons Ratio (y) = -0.01547 -0.01314
# Poissons Ratio (z) = -0.09920 -0.01164
#
# Static dielectric constant tensor:
#      x y z
#    x 1.908610 0.000000 0.000000 
#    y 0.000000 1.891210 0.000000 
#    z 0.000000 0.000000 1.859280 
# 
# From -- ./inp_files/20953.got.cif
#   From: 2010.05.17/outbox.cif.g08.bks.cpg/sg62_11_cif.got.tgz:20953.got - 2010.06.03 15:25:27.
