data_PCOD9465307
_publ_section_title
;
Structure prediction by ZEFSAII (Michael W. Deem and Ramdas Pophale) SiO2 
 PCOD9465307
Probable space group: P N M A
;
_chemical_formula_sum "Si O2"
_cell_formula_units_Z 40
_cell_length_a 16.884332
_cell_length_b 12.005974
_cell_length_c 8.261724
_cell_angle_alpha 90.000000
_cell_angle_beta 90.000000
_cell_angle_gamma 90.000000
_cell_volume 1674.757626
_symmetry_space_group_name_H-M "P N M A"
_symmetry_group_IT_number 62
_symmetry_cell_setting 'orthorhombic'
loop_
_space_group_symop_operation_xyz
x,y,z
1/2-x,-y,1/2+z
1/2+x,1/2-y,1/2-z
-x,1/2+y,-z
-x,-y,-z
1/2+x,y,1/2-z
1/2-x,1/2+y,1/2+z
x,1/2-y,z
loop_
_atom_site_type_symbol
_atom_site_label
_atom_site_fract_x
_atom_site_fract_y
_atom_site_fract_z
Si Si1 0.847382 0.490305 0.289690
Si Si2 0.039064 0.625618 0.503957
Si Si3 0.399947 0.086575 0.653977
Si Si4 0.067988 0.125732 0.995094
Si Si5 0.258817 0.876042 0.952380
O O1 0.902026 0.388354 0.344805
O O2 0.891744 0.568643 0.161412
O O3 0.825319 0.560858 0.446860
O O4 0.769195 0.443878 0.203760
O O5 0.999070 0.750000 0.514488
O O6 0.086351 0.627877 0.334129
O O7 0.000000 0.500000 0.500000
O O8 0.474633 0.124894 0.544146
O O9 0.319046 0.122325 0.569485
O O10 0.409797 0.952846 0.643974
O O11 0.096584 0.250000 0.016165
O O12 0.280069 0.750000 0.915105
#
# Coordination Sequence:
#
# PCOD9465307 Si02
#       5
#     8   8   8   8   8
#     4  11  24  42  65  98 132 176 227 273 337 399
#     4  12  25  43  67  99 135 176 223 279 338 400
#     4  10  22  39  62  96 131 174 219 273 337 395
#     4  10  20  39  64  94 131 173 224 276 332 398
#     4  11  23  42  67  94 134 178 222 276 336 401
#
# _framework density 23.884055
#
# number of rings (size 3 to 8) (size 9 to 14) (size 15 to 20)
#    0.000    1.200    2.000    4.200    0.000    1.600 
#    0.000   13.000    0.000    0.000    0.000    0.000 
#    0.000    0.000    0.000    0.000    0.000    0.000 
#
# Total GULP energy -223694.798225 kJ/mol
# GULP energy per Si atom -5592.369956 kJ/mol
# Density = 2.382969 g / cm^3
# Si number density = 23.884055 Si / 1000 Ang^3
#
#
#
# Elastic Constant Matrix: (Units=GPa)
#
#
# Indices 1 2 3 4 5 6 
#
# 1 61.0329 19.9807 1.8258 0.0000 0.0000 0.0000
# 2 19.9807 208.3647 38.6923 0.0000 0.0000 0.0000
# 3 1.8258 38.6923 68.3342 0.0000 0.0000 0.0000
# 4 0.0000 0.0000 0.0000 10.5090 0.0000 0.0000
# 5 0.0000 0.0000 0.0000 0.0000 38.6005 0.0000
# 6 0.0000 0.0000 0.0000 0.0000 0.0000 13.8863
#
#
#
# Elastic Compliance Matrix: (Units=1/GPa)
#
#
# Indices 1 2 3 4 5 6 
#
# 1 0.016932 -0.001721 0.000522 0.000000 0.000000 0.000000
# 2 -0.001721 0.005538 -0.003090 0.000000 0.000000 0.000000
# 3 0.000522 -0.003090 0.016370 0.000000 0.000000 0.000000
# 4 0.000000 0.000000 0.000000 0.095156 0.000000 0.000000
# 5 0.000000 0.000000 0.000000 0.000000 0.025906 0.000000
# 6 0.000000 0.000000 0.000000 0.000000 0.000000 0.072014
#
#
# Mechanical properties :
#
#
# Convention : Reuss Voigt Hill
#
# Bulk Modulus (GPa) = 33.04395 50.96993 42.00694
# Shear Modulus (GPa) = 19.95365 31.08137 25.51751
#
# Velocity S-wave (km/s) = 2.89353 3.61133 3.27217
# Velocity P-wave (km/s) = 5.00285 6.22702 5.64820
#
# Compressibility (1/GPa) = 0.03026272
#
# Stress axis : x y z
#
# Youngs Moduli (GPa) = 59.05885 180.56981 61.08919
#
# Poissons Ratio (x) = 0.31069 -0.03188
# Poissons Ratio (y) = 0.10162 0.18875
# Poissons Ratio (z) = -0.03082 0.55792
#
# Static dielectric constant tensor:
#      x y z
#    x 1.936710 0.000000 0.000000 
#    y 0.000000 1.937440 0.000000 
#    z 0.000000 0.000000 2.020140 
# 
# From -- ./inp_files/7303.got.cif
#   From: 2010.05.17/outbox.cif.g08.bks.cpg/sg62_4_cif.got.tgz:7303.got - 2010.06.03 15:25:27.
