data_PCOD9465894
_publ_section_title
;
Structure prediction by ZEFSAII (Michael W. Deem and Ramdas Pophale) SiO2 
 PCOD9465894
Probable space group: P N M A
;
_chemical_formula_sum "Si O2"
_cell_formula_units_Z 48
_cell_length_a 15.761547
_cell_length_b 8.771099
_cell_length_c 18.221961
_cell_angle_alpha 90.000000
_cell_angle_beta 90.000000
_cell_angle_gamma 90.000000
_cell_volume 2519.114845
_symmetry_space_group_name_H-M "P N M A"
_symmetry_group_IT_number 62
_symmetry_cell_setting 'orthorhombic'
loop_
_space_group_symop_operation_xyz
x,y,z
1/2-x,-y,1/2+z
1/2+x,1/2-y,1/2-z
-x,1/2+y,-z
-x,-y,-z
1/2+x,y,1/2-z
1/2-x,1/2+y,1/2+z
x,1/2-y,z
loop_
_atom_site_type_symbol
_atom_site_label
_atom_site_fract_x
_atom_site_fract_y
_atom_site_fract_z
Si Si1 0.417717 0.068231 0.539830
Si Si2 0.080149 0.566382 0.542645
Si Si3 0.753670 0.566392 0.039208
Si Si4 0.758593 0.067651 0.711409
Si Si5 0.408111 0.433803 0.212855
Si Si6 0.918053 0.567360 0.797289
O O1 0.422610 0.250000 0.539565
O O2 0.500000 0.000000 0.500000
O O3 0.334263 0.012983 0.497051
O O4 0.414279 0.007223 0.622777
O O5 0.074723 0.750000 0.540415
O O6 0.167642 0.521900 0.502891
O O7 0.081900 0.519977 0.627893
O O8 0.000000 0.500000 0.500000
O O9 0.763656 0.750000 0.032492
O O10 0.746153 0.529108 0.125160
O O11 0.765767 0.250000 0.718117
O O12 0.673522 0.010700 0.751058
O O13 0.839701 0.990710 0.748917
O O14 0.397034 0.250000 0.214960
O O15 0.493336 0.471507 0.257520
O O16 0.913370 0.750000 0.804655
#
# Coordination Sequence:
#
# PCOD9465894 Si02
#       6
#     8   8   8   8   8   8
#     4  12  25  41  63  90 120 157 202 250 304 364
#     4  10  21  38  60  86 117 152 192 239 292 349
#     4  10  22  40  61  88 123 160 198 246 301 356
#     4  11  23  38  60  90 121 157 200 246 298 355
#     4  10  22  39  60  86 116 156 200 242 294 354
#     4  11  23  40  62  88 121 160 203 251 301 356
#
# _framework density 19.054313
#
# number of rings (size 3 to 8) (size 9 to 14) (size 15 to 20)
#    0.000    1.333    0.000    5.500    0.000    8.000 
#    0.000    0.000    0.000    0.000    0.000    0.000 
#    0.000    0.000    0.000    0.000    0.000    0.000 
#
# Total GULP energy -268562.219170 kJ/mol
# GULP energy per Si atom -5595.046233 kJ/mol
# Density = 1.901094 g / cm^3
# Si number density = 19.054313 Si / 1000 Ang^3
#
#
#
# Elastic Constant Matrix: (Units=GPa)
#
#
# Indices 1 2 3 4 5 6 
#
# 1 141.4252 49.7032 53.4603 0.0000 0.0000 0.0000
# 2 49.7032 50.6718 47.1961 0.0000 0.0000 0.0000
# 3 53.4603 47.1961 135.9407 0.0000 0.0000 0.0000
# 4 0.0000 0.0000 0.0000 22.3790 0.0000 0.0000
# 5 0.0000 0.0000 0.0000 0.0000 43.0518 0.0000
# 6 0.0000 0.0000 0.0000 0.0000 0.0000 31.5398
#
#
#
# Elastic Compliance Matrix: (Units=1/GPa)
#
#
# Indices 1 2 3 4 5 6 
#
# 1 0.010856 -0.009861 -0.000846 0.000000 0.000000 0.000000
# 2 -0.009861 0.038123 -0.009358 0.000000 0.000000 0.000000
# 3 -0.000846 -0.009358 0.010938 0.000000 0.000000 0.000000
# 4 0.000000 0.000000 0.000000 0.044685 0.000000 0.000000
# 5 0.000000 0.000000 0.000000 0.000000 0.023228 0.000000
# 6 0.000000 0.000000 0.000000 0.000000 0.000000 0.031706
#
#
# Mechanical properties :
#
#
# Convention : Reuss Voigt Hill
#
# Bulk Modulus (GPa) = 50.53557 69.86188 60.19873
# Shear Modulus (GPa) = 24.24126 31.23933 27.74030
#
# Velocity S-wave (km/s) = 3.57069 4.05345 3.81970
# Velocity P-wave (km/s) = 6.60145 7.65843 7.14950
#
# Compressibility (1/GPa) = 0.01978804
#
# Stress axis : x y z
#
# Youngs Moduli (GPa) = 92.11386 26.23091 91.42779
#
# Poissons Ratio (x) = 0.25866 0.07733
# Poissons Ratio (y) = 0.90832 0.85555
# Poissons Ratio (z) = 0.07791 0.24546
#
# Static dielectric constant tensor:
#      x y z
#    x 1.614840 0.000000 0.000000 
#    y 0.000000 1.637890 0.000000 
#    z 0.000000 0.000000 1.632320 
# 
# From -- ./inp_files/23661.got.cif
#   From: 2010.05.17/outbox.cif.g08.bks.cpg/sg62_12_cif.got.tgz:23661.got - 2010.06.03 15:25:27.
