data_PCOD9465084
_publ_section_title
;
Structure prediction by ZEFSAII (Michael W. Deem and Ramdas Pophale) SiO2 
 PCOD9465084
Probable space group: P N M A
;
_chemical_formula_sum "Si O2"
_cell_formula_units_Z 40
_cell_length_a 14.625966
_cell_length_b 13.894927
_cell_length_c 9.243066
_cell_angle_alpha 90.000000
_cell_angle_beta 90.000000
_cell_angle_gamma 90.000000
_cell_volume 1878.438077
_symmetry_space_group_name_H-M "P N M A"
_symmetry_group_IT_number 62
_symmetry_cell_setting 'orthorhombic'
loop_
_space_group_symop_operation_xyz
x,y,z
1/2-x,-y,1/2+z
1/2+x,1/2-y,1/2-z
-x,1/2+y,-z
-x,-y,-z
1/2+x,y,1/2-z
1/2-x,1/2+y,1/2+z
x,1/2-y,z
loop_
_atom_site_type_symbol
_atom_site_label
_atom_site_fract_x
_atom_site_fract_y
_atom_site_fract_z
Si Si1 0.093480 0.141217 0.844509
Si Si2 0.974177 0.643096 0.852341
Si Si3 0.024314 0.533367 0.342243
Si Si4 0.271608 0.473707 0.923348
Si Si5 0.757970 0.638656 0.781040
O O1 0.123562 0.250000 0.861214
O O2 0.183825 0.079322 0.858847
O O3 0.036155 0.123585 0.701383
O O4 0.023780 0.122361 0.977311
O O5 0.011953 0.750000 0.822025
O O6 0.008993 0.553030 0.762643
O O7 0.866268 0.645957 0.814511
O O8 0.133045 0.549893 0.342133
O O9 0.000000 0.500000 0.500000
O O10 0.252286 0.585070 0.875364
O O11 0.278399 0.432020 0.088622
O O12 0.723457 0.750000 0.785358
#
# Coordination Sequence:
#
# PCOD9465084 Si02
#       5
#     8   8   8   8   8
#     4  10  21  38  59  82 112 157 205 242 288 357
#     4   8  17  36  58  77 105 148 193 236 286 352
#     4  11  22  35  57  89 119 148 189 246 304 354
#     4  10  20  38  60  84 120 158 195 244 300 356
#     4   9  18  35  59  84 114 155 197 240 294 353
#
# _framework density 21.294288000000002
#
# number of rings (size 3 to 8) (size 9 to 14) (size 15 to 20)
#    0.000    2.400    0.000    3.600    0.000    2.400 
#    0.000    9.000    0.000    7.200    0.000    0.000 
#    0.000    0.000    0.000    0.000    0.000    0.000 
#
# Total GULP energy -222845.851917 kJ/mol
# GULP energy per Si atom -5571.146298 kJ/mol
# Density = 2.124582 g / cm^3
# Si number density = 21.294288 Si / 1000 Ang^3
#
#
#
# Elastic Constant Matrix: (Units=GPa)
#
#
# Indices 1 2 3 4 5 6 
#
# 1 65.0867 4.1586 10.9039 0.0000 0.0000 0.0000
# 2 4.1586 108.2838 46.6867 0.0000 0.0000 0.0000
# 3 10.9039 46.6867 59.1914 0.0000 0.0000 0.0000
# 4 0.0000 0.0000 0.0000 22.7266 0.0000 0.0000
# 5 0.0000 0.0000 0.0000 0.0000 22.3918 0.0000
# 6 0.0000 0.0000 0.0000 0.0000 0.0000 13.5519
#
#
#
# Elastic Compliance Matrix: (Units=1/GPa)
#
#
# Indices 1 2 3 4 5 6 
#
# 1 0.015923 0.000990 -0.003714 0.000000 0.000000 0.000000
# 2 0.000990 0.014055 -0.011268 0.000000 0.000000 0.000000
# 3 -0.003714 -0.011268 0.026466 0.000000 0.000000 0.000000
# 4 0.000000 0.000000 0.000000 0.044001 0.000000 0.000000
# 5 0.000000 0.000000 0.000000 0.000000 0.044659 0.000000
# 6 0.000000 0.000000 0.000000 0.000000 0.000000 0.073790
#
#
# Mechanical properties :
#
#
# Convention : Reuss Voigt Hill
#
# Bulk Modulus (GPa) = 35.13743 39.56227 37.34985
# Shear Modulus (GPa) = 19.50328 23.12157 21.31242
#
# Velocity S-wave (km/s) = 3.02965 3.29874 3.16706
# Velocity P-wave (km/s) = 5.36424 5.75570 5.56341
#
# Compressibility (1/GPa) = 0.02845968
#
# Stress axis : x y z
#
# Youngs Moduli (GPa) = 62.80201 71.14723 37.78386
#
# Poissons Ratio (x) = -0.07042 0.14032
# Poissons Ratio (y) = -0.06216 0.42576
# Poissons Ratio (z) = 0.23324 0.80171
#
# Static dielectric constant tensor:
#      x y z
#    x 1.779830 0.000000 0.000000 
#    y 0.000000 1.766650 0.000000 
#    z 0.000000 0.000000 1.811650 
# 
# From -- ./inp_files/7280.got.cif
#   From: 2010.05.17/outbox.cif.g08.bks.cpg/sg62_4_cif.got.tgz:7280.got - 2010.06.03 15:25:27.
