data_PCOD9465576
_publ_section_title
;
Structure prediction by ZEFSAII (Michael W. Deem and Ramdas Pophale) SiO2 
 PCOD9465576
Probable space group: P N M A
;
_chemical_formula_sum "Si O2"
_cell_formula_units_Z 48
_cell_length_a 15.422267
_cell_length_b 8.607420
_cell_length_c 18.914957
_cell_angle_alpha 90.000000
_cell_angle_beta 90.000000
_cell_angle_gamma 90.000000
_cell_volume 2510.883547
_symmetry_space_group_name_H-M "P N M A"
_symmetry_group_IT_number 62
_symmetry_cell_setting 'orthorhombic'
loop_
_space_group_symop_operation_xyz
x,y,z
1/2-x,-y,1/2+z
1/2+x,1/2-y,1/2-z
-x,1/2+y,-z
-x,-y,-z
1/2+x,y,1/2-z
1/2-x,1/2+y,1/2+z
x,1/2-y,z
loop_
_atom_site_type_symbol
_atom_site_label
_atom_site_fract_x
_atom_site_fract_y
_atom_site_fract_z
Si Si1 0.403198 0.061810 0.695229
Si Si2 0.269070 0.063938 0.576717
Si Si3 0.269179 0.562345 0.425234
Si Si4 0.901308 0.434475 0.356816
Si Si5 0.091182 0.562181 0.357209
Si Si6 0.898745 0.937744 0.199757
O O1 0.398549 0.250000 0.694763
O O2 0.334341 0.005496 0.637976
O O3 0.386734 0.013955 0.776302
O O4 0.502736 0.020199 0.678567
O O5 0.268267 0.250000 0.578624
O O6 0.297084 0.007150 0.499677
O O7 0.173362 0.002282 0.593766
O O8 0.271706 0.750000 0.429378
O O9 0.170570 0.515630 0.406860
O O10 0.330969 0.515746 0.360259
O O11 0.900298 0.250000 0.360047
O O12 0.882087 0.490795 0.276654
O O13 0.997315 0.495222 0.375464
O O14 0.084932 0.750000 0.357670
O O15 0.894570 0.750000 0.207610
#
# Coordination Sequence:
#
# PCOD9465576 Si02
#       6
#     8   8   8   8   8   8
#     4   8  16  33  58  82 102 136 182 218 256 315
#     4  11  22  36  54  78 112 150 182 216 265 321
#     4  10  21  36  56  82 111 144 180 220 267 320
#     4  11  22  36  56  82 108 136 179 229 272 316
#     4   9  18  36  59  79 103 138 180 222 268 321
#     4   9  18  37  61  81 106 141 179 218 266 322
#
# _framework density 19.116778
#
# number of rings (size 3 to 8) (size 9 to 14) (size 15 to 20)
#    0.000    2.333    0.000    4.000    0.000    5.333 
#    0.000   10.000    0.000    0.000    0.000    0.000 
#    0.000    0.000    0.000    0.000    0.000    0.000 
#
# Total GULP energy -267992.209570 kJ/mol
# GULP energy per Si atom -5583.171033 kJ/mol
# Density = 1.907327 g / cm^3
# Si number density = 19.116778 Si / 1000 Ang^3
#
#
#
# Elastic Constant Matrix: (Units=GPa)
#
#
# Indices 1 2 3 4 5 6 
#
# 1 41.0394 10.2494 10.0633 0.0000 0.0000 0.0000
# 2 10.2494 28.4477 7.2821 0.0000 0.0000 0.0000
# 3 10.0633 7.2821 19.7710 0.0000 0.0000 0.0000
# 4 0.0000 0.0000 0.0000 29.6789 0.0000 0.0000
# 5 0.0000 0.0000 0.0000 0.0000 2.1649 0.0000
# 6 0.0000 0.0000 0.0000 0.0000 0.0000 11.5879
#
#
#
# Elastic Compliance Matrix: (Units=1/GPa)
#
#
# Indices 1 2 3 4 5 6 
#
# 1 0.029192 -0.007413 -0.012128 0.000000 0.000000 0.000000
# 2 -0.007413 0.040694 -0.011215 0.000000 0.000000 0.000000
# 3 -0.012128 -0.011215 0.060883 0.000000 0.000000 0.000000
# 4 0.000000 0.000000 0.000000 0.033694 0.000000 0.000000
# 5 0.000000 0.000000 0.000000 0.000000 0.461910 0.000000
# 6 0.000000 0.000000 0.000000 0.000000 0.000000 0.086297
#
#
# Mechanical properties :
#
#
# Convention : Reuss Voigt Hill
#
# Bulk Modulus (GPa) = 14.43915 16.04973 15.24444
# Shear Modulus (GPa) = 6.27142 12.79724 9.53433
#
# Velocity S-wave (km/s) = 1.81320 2.59013 2.23567
# Velocity P-wave (km/s) = 3.45733 4.16640 3.82832
#
# Compressibility (1/GPa) = 0.06925617
#
# Stress axis : x y z
#
# Youngs Moduli (GPa) = 34.25578 24.57368 16.42492
#
# Poissons Ratio (x) = 0.18216 0.19920
# Poissons Ratio (y) = 0.25394 0.18421
# Poissons Ratio (z) = 0.41546 0.27560
#
# Static dielectric constant tensor:
#      x y z
#    x 1.662340 0.000000 0.000000 
#    y 0.000000 1.651170 0.000000 
#    z 0.000000 0.000000 1.649650 
# 
# From -- ./inp_files/23637.got.cif
#   From: 2010.05.17/outbox.cif.g08.bks.cpg/sg62_12_cif.got.tgz:23637.got - 2010.06.03 15:25:27.
