data_PCOD9465785
_publ_section_title
;
Structure prediction by ZEFSAII (Michael W. Deem and Ramdas Pophale) SiO2 
 PCOD9465785
Probable space group: P N M A
;
_chemical_formula_sum "Si O2"
_cell_formula_units_Z 48
_cell_length_a 8.125978
_cell_length_b 19.352462
_cell_length_c 11.835142
_cell_angle_alpha 90.000000
_cell_angle_beta 90.000000
_cell_angle_gamma 90.000000
_cell_volume 1861.166979
_symmetry_space_group_name_H-M "P N M A"
_symmetry_group_IT_number 62
_symmetry_cell_setting 'orthorhombic'
loop_
_space_group_symop_operation_xyz
x,y,z
1/2-x,-y,1/2+z
1/2+x,1/2-y,1/2-z
-x,1/2+y,-z
-x,-y,-z
1/2+x,y,1/2-z
1/2-x,1/2+y,1/2+z
x,1/2-y,z
loop_
_atom_site_type_symbol
_atom_site_label
_atom_site_fract_x
_atom_site_fract_y
_atom_site_fract_z
Si Si1 0.182706 0.630242 0.928999
Si Si2 0.985075 0.089411 0.779038
Si Si3 0.174091 0.030732 0.581789
Si Si4 0.822138 0.899332 0.005773
Si Si5 0.255758 0.250000 0.065681
Si Si6 0.418018 0.250000 0.282133
Si Si7 0.696959 0.250000 0.909959
Si Si8 0.577645 0.750000 0.220896
O O1 0.309322 0.570164 0.961168
O O2 0.223377 0.685573 0.027736
O O3 0.177183 0.679791 0.820611
O O4 0.000094 0.599323 0.943085
O O5 0.024593 0.054214 0.659747
O O6 0.968414 0.171665 0.761110
O O7 0.831393 0.056725 0.844849
O O8 0.136355 0.079618 0.866534
O O9 0.200145 0.950611 0.557223
O O10 0.766435 0.820408 0.002165
O O11 0.413560 0.250000 0.147748
O O12 0.091166 0.250000 0.150501
O O13 0.500997 0.250000 0.904386
O O14 0.740950 0.250000 0.776783
#
# Coordination Sequence:
#
# PCOD9465785 Si02
#       8
#     8   8   8   8   4   4   4   4
#     4   9  17  35  54  85 107 150 186 224 271 346
#     4  11  21  37  58  87 116 152 191 235 287 343
#     4  11  22  36  58  86 116 150 191 236 288 343
#     4  10  21  37  61  78 114 154 198 228 286 350
#     4  10  21  40  58  84 102 154 193 240 280 341
#     4   9  20  35  63  78 114 139 195 236 272 337
#     4  11  18  29  58  85 117 144 190 227 284 333
#     4  12  17  32  57  85 119 149 180 239 274 343
#
# _framework density 25.790268000000001
#
# number of rings (size 3 to 8) (size 9 to 14) (size 15 to 20)
#    0.000    1.667    5.000    3.000    0.000    4.000 
#    0.000    2.500    3.667    0.000    0.000    0.000 
#    0.000    0.000    0.000    0.000    0.000    0.000 
#
# Total GULP energy -268251.969057 kJ/mol
# GULP energy per Si atom -5588.582689 kJ/mol
# Density = 2.573157 g / cm^3
# Si number density = 25.790268 Si / 1000 Ang^3
#
#
#
# Elastic Constant Matrix: (Units=GPa)
#
#
# Indices 1 2 3 4 5 6 
#
# 1 84.9916 37.0175 16.3269 0.0000 0.0000 0.0000
# 2 37.0175 133.5803 35.9838 0.0000 0.0000 0.0000
# 3 16.3269 35.9838 73.2590 0.0000 0.0000 0.0000
# 4 0.0000 0.0000 0.0000 15.8098 0.0000 0.0000
# 5 0.0000 0.0000 0.0000 0.0000 45.0507 0.0000
# 6 0.0000 0.0000 0.0000 0.0000 0.0000 6.5908
#
#
#
# Elastic Compliance Matrix: (Units=1/GPa)
#
#
# Indices 1 2 3 4 5 6 
#
# 1 0.013496 -0.003376 -0.001349 0.000000 0.000000 0.000000
# 2 -0.003376 0.009472 -0.003900 0.000000 0.000000 0.000000
# 3 -0.001349 -0.003900 0.015867 0.000000 0.000000 0.000000
# 4 0.000000 0.000000 0.000000 0.063252 0.000000 0.000000
# 5 0.000000 0.000000 0.000000 0.000000 0.022197 0.000000
# 6 0.000000 0.000000 0.000000 0.000000 0.000000 0.151726
#
#
# Mechanical properties :
#
#
# Convention : Reuss Voigt Hill
#
# Bulk Modulus (GPa) = 46.33304 52.27638 49.30471
# Shear Modulus (GPa) = 16.64133 26.99043 21.81588
#
# Velocity S-wave (km/s) = 2.54295 3.23853 2.91158
# Velocity P-wave (km/s) = 5.16008 5.85644 5.51925
#
# Compressibility (1/GPa) = 0.02158287
#
# Stress axis : x y z
#
# Youngs Moduli (GPa) = 74.09802 105.56937 63.02527
#
# Poissons Ratio (x) = 0.35645 0.08504
# Poissons Ratio (y) = 0.25019 0.24581
# Poissons Ratio (z) = 0.09998 0.41175
#
# Static dielectric constant tensor:
#      x y z
#    x 2.089170 0.000000 0.000000 
#    y 0.000000 1.982080 0.000000 
#    z 0.000000 0.000000 2.018830 
# 
# From -- ./inp_files/12323.got.cif
#   From: 2010.05.17/outbox.cif.g08.bks.cpg/sg62_7_cif.got.tgz:12323.got - 2010.06.03 15:25:27.
