data_PCOD9465142
_publ_section_title
;
Structure prediction by ZEFSAII (Michael W. Deem and Ramdas Pophale) SiO2 
 PCOD9465142
Probable space group: P N M A
;
_chemical_formula_sum "Si O2"
_cell_formula_units_Z 48
_cell_length_a 9.906740
_cell_length_b 8.014276
_cell_length_c 28.084490
_cell_angle_alpha 90.000000
_cell_angle_beta 90.000000
_cell_angle_gamma 90.000000
_cell_volume 2229.777874
_symmetry_space_group_name_H-M "P N M A"
_symmetry_group_IT_number 62
_symmetry_cell_setting 'orthorhombic'
loop_
_space_group_symop_operation_xyz
x,y,z
1/2-x,-y,1/2+z
1/2+x,1/2-y,1/2-z
-x,1/2+y,-z
-x,-y,-z
1/2+x,y,1/2-z
1/2-x,1/2+y,1/2+z
x,1/2-y,z
loop_
_atom_site_type_symbol
_atom_site_label
_atom_site_fract_x
_atom_site_fract_y
_atom_site_fract_z
Si Si1 0.433641 0.949361 0.950455
Si Si2 0.936149 0.558819 0.950600
Si Si3 0.134815 0.050303 0.712089
Si Si4 0.811464 0.047904 0.391790
Si Si5 0.814122 0.555224 0.103852
Si Si6 0.674472 0.954547 0.201936
O O1 0.416019 0.750000 0.948931
O O2 0.541031 0.002346 0.910253
O O3 0.291877 0.033555 0.939141
O O4 0.500000 0.000000 0.000000
O O5 0.903009 0.750000 0.958970
O O6 0.800524 0.480412 0.928646
O O7 0.050752 0.539122 0.910457
O O8 0.000000 0.500000 0.000000
O O9 0.126329 0.250000 0.717195
O O10 0.225906 0.989630 0.755862
O O11 0.979785 0.987447 0.709736
O O12 0.205479 0.011260 0.661947
O O13 0.806705 0.250000 0.391854
O O14 0.847306 0.750000 0.109756
O O15 0.738736 0.494117 0.151410
O O16 0.671048 0.750000 0.201547
#
# Coordination Sequence:
#
# PCOD9465142 Si02
#       6
#     8   8   8   8   8   8
#     4  11  22  38  62  89 119 157 201 252 306 364
#     4  11  24  42  62  89 123 162 206 253 305 362
#     4  10  20  38  62  89 119 156 201 249 299 358
#     4  10  23  41  59  86 123 157 197 251 303 360
#     4  11  22  39  61  90 124 160 202 250 302 363
#     4   9  20  36  60  91 120 152 199 251 299 355
#
# _framework density 21.526807999999999
#
# number of rings (size 3 to 8) (size 9 to 14) (size 15 to 20)
#    0.000    1.667    1.667    2.500    2.333    3.333 
#    0.000    2.500    0.000    0.000    0.000    0.000 
#    0.000    0.000    0.000    0.000    0.000    0.000 
#
# Total GULP energy -268233.635300 kJ/mol
# GULP energy per Si atom -5588.200735 kJ/mol
# Density = 2.147781 g / cm^3
# Si number density = 21.526808 Si / 1000 Ang^3
#
#
#
# Elastic Constant Matrix: (Units=GPa)
#
#
# Indices 1 2 3 4 5 6 
#
# 1 79.9069 -2.5860 9.7345 0.0000 0.0000 0.0000
# 2 -2.5860 15.2205 -2.2649 0.0000 0.0000 0.0000
# 3 9.7345 -2.2649 90.3177 0.0000 0.0000 0.0000
# 4 0.0000 0.0000 0.0000 24.5514 0.0000 0.0000
# 5 0.0000 0.0000 0.0000 0.0000 39.9296 0.0000
# 6 0.0000 0.0000 0.0000 0.0000 0.0000 20.2163
#
#
#
# Elastic Compliance Matrix: (Units=1/GPa)
#
#
# Indices 1 2 3 4 5 6 
#
# 1 0.012740 0.001968 -0.001324 0.000000 0.000000 0.000000
# 2 0.001968 0.066251 0.001449 0.000000 0.000000 0.000000
# 3 -0.001324 0.001449 0.011251 0.000000 0.000000 0.000000
# 4 0.000000 0.000000 0.000000 0.040731 0.000000 0.000000
# 5 0.000000 0.000000 0.000000 0.000000 0.025044 0.000000
# 6 0.000000 0.000000 0.000000 0.000000 0.000000 0.049465
#
#
# Mechanical properties :
#
#
# Convention : Reuss Voigt Hill
#
# Bulk Modulus (GPa) = 10.59011 21.69026 16.14018
# Shear Modulus (GPa) = 21.48031 28.97688 25.22859
#
# Velocity S-wave (km/s) = 3.16229 3.67288 3.42711
# Velocity P-wave (km/s) = 4.27359 5.29949 4.81395
#
# Compressibility (1/GPa) = 0.09442772
#
# Stress axis : x y z
#
# Youngs Moduli (GPa) = 78.49597 15.09412 88.88067
#
# Poissons Ratio (x) = -0.02970 0.11765
# Poissons Ratio (y) = -0.15444 -0.12882
# Poissons Ratio (z) = 0.10391 -0.02188
#
# Static dielectric constant tensor:
#      x y z
#    x 1.785930 0.000000 0.000000 
#    y 0.000000 1.775030 0.000000 
#    z 0.000000 0.000000 1.785420 
# 
# From -- ./inp_files/32013.got.cif
#   From: 2010.05.17/outbox.cif.g08.bks.cpg/sg62_17_cif.got.tgz:32013.got - 2010.06.03 15:25:27.
