data_PCOD9465107
_publ_section_title
;
Structure prediction by ZEFSAII (Michael W. Deem and Ramdas Pophale) SiO2 
 PCOD9465107
Probable space group: P N M A
;
_chemical_formula_sum "Si O2"
_cell_formula_units_Z 52
_cell_length_a 13.630599
_cell_length_b 7.555352
_cell_length_c 19.105443
_cell_angle_alpha 90.000000
_cell_angle_beta 90.000000
_cell_angle_gamma 90.000000
_cell_volume 1967.554434
_symmetry_space_group_name_H-M "P N M A"
_symmetry_group_IT_number 62
_symmetry_cell_setting 'orthorhombic'
loop_
_space_group_symop_operation_xyz
x,y,z
1/2-x,-y,1/2+z
1/2+x,1/2-y,1/2-z
-x,1/2+y,-z
-x,-y,-z
1/2+x,y,1/2-z
1/2-x,1/2+y,1/2+z
x,1/2-y,z
loop_
_atom_site_type_symbol
_atom_site_label
_atom_site_fract_x
_atom_site_fract_y
_atom_site_fract_z
Si Si1 0.842107 0.442615 0.767340
Si Si2 0.770898 0.953919 0.481408
Si Si3 0.865943 0.448480 0.255948
Si Si4 0.091785 0.750000 0.371212
Si Si5 0.642567 0.968027 0.600839
Si Si6 0.428780 0.541340 0.595409
Si Si7 0.459794 0.453265 0.103101
O O1 0.809757 0.250000 0.794533
O O2 0.747985 0.562581 0.776344
O O3 0.924587 0.507661 0.820621
O O4 0.872760 0.403674 0.687865
O O5 0.799624 0.750000 0.491384
O O6 0.733779 0.034120 0.555308
O O7 0.668143 0.958776 0.438233
O O8 0.858905 0.043446 0.440637
O O9 0.905050 0.250000 0.247112
O O10 0.858682 0.534880 0.180054
O O11 0.924835 0.528511 0.320177
O O12 0.040902 0.592740 0.419558
O O13 0.647644 0.750000 0.600720
O O14 0.536237 0.020832 0.571208
O O15 0.422392 0.750000 0.583343
O O16 0.493282 0.250000 0.108365
#
# Coordination Sequence:
#
# PCOD9465107 Si02
#       7
#     8   8   8   4   8   8   8
#     4  10  22  36  54  89 120 155 202 250 320 356
#     4  11  21  37  60  87 127 169 205 251 312 377
#     4  10  20  38  61  87 119 160 210 259 314 369
#     4  10  24  38  60  92 120 156 210 262 310 358
#     4   9  21  37  58  89 121 164 205 258 310 370
#     4  11  20  36  57  86 130 167 209 246 300 379
#     4  11  22  39  64  91 124 163 211 257 311 375
#
# _framework density 26.428749
#
# number of rings (size 3 to 8) (size 9 to 14) (size 15 to 20)
#    0.462    1.231    2.308    2.769    1.077    2.462 
#    0.000    3.846    0.000    0.923    0.000    0.000 
#    0.000    0.000    0.000    0.000    0.000    0.000 
#
# Total GULP energy -289843.251092 kJ/mol
# GULP energy per Si atom -5573.908675 kJ/mol
# Density = 2.636860 g / cm^3
# Si number density = 26.428749 Si / 1000 Ang^3
#
#
#
# Elastic Constant Matrix: (Units=GPa)
#
#
# Indices 1 2 3 4 5 6 
#
# 1 90.7671 -2.9244 31.5998 0.0000 0.0000 0.0000
# 2 -2.9244 125.9209 -4.0000 0.0000 0.0000 0.0000
# 3 31.5998 -4.0000 121.5033 0.0000 0.0000 0.0000
# 4 0.0000 0.0000 0.0000 10.8681 0.0000 0.0000
# 5 0.0000 0.0000 0.0000 0.0000 49.4130 0.0000
# 6 0.0000 0.0000 0.0000 0.0000 0.0000 95.0418
#
#
#
# Elastic Compliance Matrix: (Units=1/GPa)
#
#
# Indices 1 2 3 4 5 6 
#
# 1 0.012118 0.000182 -0.003146 0.000000 0.000000 0.000000
# 2 0.000182 0.007953 0.000215 0.000000 0.000000 0.000000
# 3 -0.003146 0.000215 0.009055 0.000000 0.000000 0.000000
# 4 0.000000 0.000000 0.000000 0.092013 0.000000 0.000000
# 5 0.000000 0.000000 0.000000 0.000000 0.020238 0.000000
# 6 0.000000 0.000000 0.000000 0.000000 0.000000 0.010522
#
#
# Mechanical properties :
#
#
# Convention : Reuss Voigt Hill
#
# Bulk Modulus (GPa) = 42.32440 43.06023 42.69231
# Shear Modulus (GPa) = 30.25302 51.96564 41.10933
#
# Velocity S-wave (km/s) = 3.38701 4.43906 3.94823
# Velocity P-wave (km/s) = 5.59867 6.52702 6.08059
#
# Compressibility (1/GPa) = 0.02362704
#
# Stress axis : x y z
#
# Youngs Moduli (GPa) = 82.52062 125.74621 110.43144
#
# Poissons Ratio (x) = -0.02282 0.34738
# Poissons Ratio (y) = -0.01498 -0.02370
# Poissons Ratio (z) = 0.25958 -0.02698
#
# Static dielectric constant tensor:
#      x y z
#    x 2.106390 0.000000 0.000000 
#    y 0.000000 2.043000 0.000000 
#    z 0.000000 0.000000 2.214030 
# 
# From -- ./inp_files/27001.got.cif
#   From: 2010.05.17/outbox.cif.g08.bks.cpg/sg62_14_cif.got.tgz:27001.got - 2010.06.03 15:25:27.
