data_PCOD9465722
_publ_section_title
;
Structure prediction by ZEFSAII (Michael W. Deem and Ramdas Pophale) SiO2 
 PCOD9465722
Probable space group: P N M A
;
_chemical_formula_sum "Si O2"
_cell_formula_units_Z 48
_cell_length_a 29.967408
_cell_length_b 8.886339
_cell_length_c 10.325252
_cell_angle_alpha 90.000000
_cell_angle_beta 90.000000
_cell_angle_gamma 90.000000
_cell_volume 2749.620250
_symmetry_space_group_name_H-M "P N M A"
_symmetry_group_IT_number 62
_symmetry_cell_setting 'orthorhombic'
loop_
_space_group_symop_operation_xyz
x,y,z
1/2-x,-y,1/2+z
1/2+x,1/2-y,1/2-z
-x,1/2+y,-z
-x,-y,-z
1/2+x,y,1/2-z
1/2-x,1/2+y,1/2+z
x,1/2-y,z
loop_
_atom_site_type_symbol
_atom_site_label
_atom_site_fract_x
_atom_site_fract_y
_atom_site_fract_z
Si Si1 0.786664 0.570165 0.789047
Si Si2 0.381560 0.071741 0.717491
Si Si3 0.216858 0.070282 0.511581
Si Si4 0.877826 0.071991 0.476982
Si Si5 0.473809 0.431328 0.121712
Si Si6 0.521001 0.568732 0.371681
O O1 0.784118 0.750000 0.794093
O O2 0.836993 0.516727 0.818669
O O3 0.776856 0.522814 0.639456
O O4 0.752537 0.500560 0.891357
O O5 0.373628 0.250000 0.698624
O O6 0.389468 0.048160 0.871268
O O7 0.426632 0.028937 0.643613
O O8 0.220003 0.250000 0.516376
O O9 0.167125 0.018233 0.550599
O O10 0.868835 0.250000 0.460308
O O11 0.921388 0.031777 0.394783
O O12 0.477974 0.250000 0.120831
O O13 0.494821 0.501049 0.249800
O O14 0.500000 0.500000 0.000000
O O15 0.500000 0.500000 0.500000
O O16 0.517957 0.750000 0.370622
#
# Coordination Sequence:
#
# PCOD9465722 Si02
#       6
#     8   8   8   8   8   8
#     4  10  21  37  59  86 112 144 186 231 280 336
#     4   9  18  36  59  81 111 150 188 228 279 338
#     4  10  21  37  58  85 113 145 185 231 281 334
#     4   9  18  35  58  84 112 146 186 231 282 332
#     4  11  21  36  60  88 116 151 191 237 283 334
#     4  11  23  40  58  84 118 155 194 237 289 343
#
# _framework density 17.456956000000002
#
# number of rings (size 3 to 8) (size 9 to 14) (size 15 to 20)
#    0.000    2.000    1.667    2.000    0.000    4.667 
#    3.000    0.000    0.000    0.000    0.000    0.000 
#    0.000    0.000    0.000    0.000    0.000    0.000 
#
# Total GULP energy -267955.486202 kJ/mol
# GULP energy per Si atom -5582.405963 kJ/mol
# Density = 1.741722 g / cm^3
# Si number density = 17.456956 Si / 1000 Ang^3
#
#
#
# Elastic Constant Matrix: (Units=GPa)
#
#
# Indices 1 2 3 4 5 6 
#
# 1 164.8856 73.2022 97.4015 0.0000 0.0000 0.0000
# 2 73.2022 62.6668 55.5237 0.0000 0.0000 0.0000
# 3 97.4015 55.5237 123.1410 0.0000 0.0000 0.0000
# 4 0.0000 0.0000 0.0000 31.6862 0.0000 0.0000
# 5 0.0000 0.0000 0.0000 0.0000 36.9636 0.0000
# 6 0.0000 0.0000 0.0000 0.0000 0.0000 37.8886
#
#
#
# Elastic Compliance Matrix: (Units=1/GPa)
#
#
# Indices 1 2 3 4 5 6 
#
# 1 0.015372 -0.011962 -0.006765 0.000000 0.000000 0.000000
# 2 -0.011962 0.035882 -0.006718 0.000000 0.000000 0.000000
# 3 -0.006765 -0.006718 0.016501 0.000000 0.000000 0.000000
# 4 0.000000 0.000000 0.000000 0.031560 0.000000 0.000000
# 5 0.000000 0.000000 0.000000 0.000000 0.027054 0.000000
# 6 0.000000 0.000000 0.000000 0.000000 0.000000 0.026393
#
#
# Mechanical properties :
#
#
# Convention : Reuss Voigt Hill
#
# Bulk Modulus (GPa) = 59.29250 89.21645 74.25448
# Shear Modulus (GPa) = 23.89238 29.61208 26.75223
#
# Velocity S-wave (km/s) = 3.70353 4.12307 3.91892
# Velocity P-wave (km/s) = 7.23373 8.59557 7.94389
#
# Compressibility (1/GPa) = 0.01686554
#
# Stress axis : x y z
#
# Youngs Moduli (GPa) = 65.05475 27.86886 60.60392
#
# Poissons Ratio (x) = 0.33337 0.40998
# Poissons Ratio (y) = 0.77819 0.40711
# Poissons Ratio (z) = 0.44009 0.18721
#
# Static dielectric constant tensor:
#      x y z
#    x 1.576100 0.000000 0.000000 
#    y 0.000000 1.583650 0.000000 
#    z 0.000000 0.000000 1.610480 
# 
# From -- ./inp_files/10236.got.cif
#   From: 2010.05.17/outbox.cif.g08.bks.cpg/sg62_6_cif.got.tgz:10236.got - 2010.06.03 15:25:27.
