data_PCOD9465973
_publ_section_title
;
Structure prediction by ZEFSAII (Michael W. Deem and Ramdas Pophale) SiO2 
 PCOD9465973
Probable space group: P N M A
;
_chemical_formula_sum "Si O2"
_cell_formula_units_Z 48
_cell_length_a 9.942492
_cell_length_b 17.011413
_cell_length_c 16.092146
_cell_angle_alpha 90.000000
_cell_angle_beta 90.000000
_cell_angle_gamma 90.000000
_cell_volume 2721.758593
_symmetry_space_group_name_H-M "P N M A"
_symmetry_group_IT_number 62
_symmetry_cell_setting 'orthorhombic'
loop_
_space_group_symop_operation_xyz
x,y,z
1/2-x,-y,1/2+z
1/2+x,1/2-y,1/2-z
-x,1/2+y,-z
-x,-y,-z
1/2+x,y,1/2-z
1/2-x,1/2+y,1/2+z
x,1/2-y,z
loop_
_atom_site_type_symbol
_atom_site_label
_atom_site_fract_x
_atom_site_fract_y
_atom_site_fract_z
Si Si1 0.292542 0.589367 0.679926
Si Si2 0.598795 0.479743 0.074944
Si Si3 0.506210 0.157232 0.187205
Si Si4 0.099788 0.156982 0.834901
Si Si5 0.134054 0.449019 0.993186
Si Si6 0.142265 0.575229 0.262736
O O1 0.406306 0.635951 0.731356
O O2 0.146650 0.626675 0.696244
O O3 0.323145 0.585098 0.582246
O O4 0.298948 0.500233 0.714166
O O5 0.570753 0.393843 0.112393
O O6 0.748711 0.494728 0.042294
O O7 0.580221 0.539378 0.152346
O O8 0.500000 0.500000 0.000000
O O9 0.508195 0.250000 0.172011
O O10 0.085193 0.250000 0.837202
O O11 0.113157 0.119614 0.926264
O O12 0.235428 0.132019 0.786560
O O13 0.972706 0.117035 0.790016
O O14 0.000000 0.500000 0.000000
#
# Coordination Sequence:
#
# PCOD9465973 Si02
#       6
#     8   8   8   8   8   8
#     4  11  22  41  67  88 124 168 211 251 306 383
#     4  10  21  40  63  86 118 162 209 245 297 377
#     4  11  24  40  63  95 126 161 206 266 319 362
#     4  11  23  39  60  92 124 156 200 259 311 355
#     4  11  23  40  65  91 121 163 211 250 304 371
#     4  10  21  38  63  85 118 162 206 243 296 372
#
# _framework density 17.635656000000001
#
# number of rings (size 3 to 8) (size 9 to 14) (size 15 to 20)
#    0.000    1.333    3.333    3.000    4.667    1.333 
#    0.000    1.667    0.000    0.000    0.000    0.000 
#    0.000    0.000    0.000    0.000    0.000    0.000 
#
# Total GULP energy -268170.949558 kJ/mol
# GULP energy per Si atom -5586.894782 kJ/mol
# Density = 1.759552 g / cm^3
# Si number density = 17.635656 Si / 1000 Ang^3
#
#
#
# Elastic Constant Matrix: (Units=GPa)
#
#
# Indices 1 2 3 4 5 6 
#
# 1 138.5187 91.1565 78.3271 0.0000 0.0000 0.0000
# 2 91.1565 162.1260 71.2116 0.0000 0.0000 0.0000
# 3 78.3271 71.2116 146.4255 0.0000 0.0000 0.0000
# 4 0.0000 0.0000 0.0000 10.8572 0.0000 0.0000
# 5 0.0000 0.0000 0.0000 0.0000 29.4768 0.0000
# 6 0.0000 0.0000 0.0000 0.0000 0.0000 25.1299
#
#
#
# Elastic Compliance Matrix: (Units=1/GPa)
#
#
# Indices 1 2 3 4 5 6 
#
# 1 0.013417 -0.005584 -0.004461 0.000000 0.000000 0.000000
# 2 -0.005584 0.010168 -0.001958 0.000000 0.000000 0.000000
# 3 -0.004461 -0.001958 0.010168 0.000000 0.000000 0.000000
# 4 0.000000 0.000000 0.000000 0.092105 0.000000 0.000000
# 5 0.000000 0.000000 0.000000 0.000000 0.033925 0.000000
# 6 0.000000 0.000000 0.000000 0.000000 0.000000 0.039793
#
#
# Mechanical properties :
#
#
# Convention : Reuss Voigt Hill
#
# Bulk Modulus (GPa) = 102.60496 103.16228 102.88362
# Shear Modulus (GPa) = 22.04289 26.85112 24.44700
#
# Velocity S-wave (km/s) = 3.53923 3.90622 3.72724
# Velocity P-wave (km/s) = 8.66073 8.88640 8.77429
#
# Compressibility (1/GPa) = 0.00974612
#
# Stress axis : x y z
#
# Youngs Moduli (GPa) = 74.53405 98.35090 98.34792
#
# Poissons Ratio (x) = 0.54920 0.43875
# Poissons Ratio (y) = 0.41621 0.19254
# Poissons Ratio (z) = 0.33251 0.19255
#
# Static dielectric constant tensor:
#      x y z
#    x 1.597900 0.000000 0.000000 
#    y 0.000000 1.568070 0.000000 
#    z 0.000000 0.000000 1.596080 
# 
# From -- ./inp_files/16931.got.cif
#   From: 2010.05.17/outbox.cif.g08.bks.cpg/sg62_9_cif.got.tgz:16931.got - 2010.06.03 15:25:27.
