data_PCOD9465183
_publ_section_title
;
Structure prediction by ZEFSAII (Michael W. Deem and Ramdas Pophale) SiO2 
 PCOD9465183
Probable space group: P N M A
;
_chemical_formula_sum "Si O2"
_cell_formula_units_Z 48
_cell_length_a 11.775147
_cell_length_b 23.075201
_cell_length_c 8.122129
_cell_angle_alpha 90.000000
_cell_angle_beta 90.000000
_cell_angle_gamma 90.000000
_cell_volume 2206.895216
_symmetry_space_group_name_H-M "P N M A"
_symmetry_group_IT_number 62
_symmetry_cell_setting 'orthorhombic'
loop_
_space_group_symop_operation_xyz
x,y,z
1/2-x,-y,1/2+z
1/2+x,1/2-y,1/2-z
-x,1/2+y,-z
-x,-y,-z
1/2+x,y,1/2-z
1/2-x,1/2+y,1/2+z
x,1/2-y,z
loop_
_atom_site_type_symbol
_atom_site_label
_atom_site_fract_x
_atom_site_fract_y
_atom_site_fract_z
Si Si1 0.057779 0.935660 0.702713
Si Si2 0.272136 0.250000 0.899808
Si Si3 0.756660 0.847150 0.828647
Si Si4 0.385262 0.543484 0.544842
Si Si5 0.379770 0.644196 0.984700
Si Si6 0.030413 0.250000 0.692936
Si Si7 0.796996 0.961091 0.325374
O O1 0.012106 0.956637 0.881313
O O2 0.964119 0.902814 0.596225
O O3 0.153487 0.887584 0.727697
O O4 0.113315 0.990395 0.609782
O O5 0.143359 0.250000 0.818068
O O6 0.389012 0.250000 0.785794
O O7 0.277071 0.303978 0.026685
O O8 0.846950 0.892277 0.899556
O O9 0.812523 0.823428 0.661411
O O10 0.335133 0.543198 0.362507
O O11 0.321090 0.493889 0.649537
O O12 0.445461 0.691346 0.091313
O O13 0.300539 0.601836 0.093177
#
# Coordination Sequence:
#
# PCOD9465183 Si02
#       7
#     8   4   8   8   8   4   8
#     4  10  20  38  63  95 134 185 227 284 352 414
#     4  12  25  52  74 104 144 183 240 296 362 423
#     4  10  22  43  69  93 136 185 229 296 352 421
#     4  10  21  37  60  97 135 180 233 281 351 421
#     4  11  23  43  66  98 134 183 236 286 360 414
#     4  12  27  50  72 106 140 185 232 300 354 425
#     4  11  21  37  61  96 138 180 230 289 342 429
#
# _framework density 21.750014
#
# number of rings (size 3 to 8) (size 9 to 14) (size 15 to 20)
#    0.000    1.333    1.667    5.500    0.000    1.333 
#   12.000    0.000    0.000    0.000    0.000    0.000 
#    0.000    0.000    0.000    0.000    0.000    0.000 
#
# Total GULP energy -267326.390821 kJ/mol
# GULP energy per Si atom -5569.299809 kJ/mol
# Density = 2.170051 g / cm^3
# Si number density = 21.750014 Si / 1000 Ang^3
#
#
#
# Elastic Constant Matrix: (Units=GPa)
#
#
# Indices 1 2 3 4 5 6 
#
# 1 71.5141 8.9165 32.1204 0.0000 0.0000 0.0000
# 2 8.9165 68.5185 21.1894 0.0000 0.0000 0.0000
# 3 32.1204 21.1894 79.6451 0.0000 0.0000 0.0000
# 4 0.0000 0.0000 0.0000 -775.1550 0.0000 0.0000
# 5 0.0000 0.0000 0.0000 0.0000 2.5806 0.0000
# 6 0.0000 0.0000 0.0000 0.0000 0.0000 81.7424
#
#
#
# Elastic Compliance Matrix: (Units=1/GPa)
#
#
# Indices 1 2 3 4 5 6 
#
# 1 0.017077 -0.000101 -0.006860 0.000000 0.000000 0.000000
# 2 -0.000101 0.015904 -0.004190 0.000000 0.000000 0.000000
# 3 -0.006860 -0.004190 0.016437 0.000000 0.000000 0.000000
# 4 0.000000 0.000000 0.000000 -0.001290 0.000000 0.000000
# 5 0.000000 0.000000 0.000000 0.000000 0.387508 0.000000
# 6 0.000000 0.000000 0.000000 0.000000 0.000000 0.012234
#
#
# Mechanical properties :
#
#
# Convention : Reuss Voigt Hill
#
# Bulk Modulus (GPa) = 36.88000 38.23670 37.55835
# Shear Modulus (GPa) = 10.43383 -127.66965 -58.61791
#
# Velocity S-wave (km/s) = 2.19262 -7.66982 -5.19704
# Velocity P-wave (km/s) = 4.83769 7.79850 4.32512
#
# Compressibility (1/GPa) = 0.02711496
#
# Stress axis : x y z
#
# Youngs Moduli (GPa) = 58.55791 62.87873 60.83730
#
# Poissons Ratio (x) = 0.00633 0.41736
# Poissons Ratio (y) = 0.00590 0.25494
# Poissons Ratio (z) = 0.40172 0.26349
#
# Static dielectric constant tensor:
#      x y z
#    x 1.870910 0.000000 0.000000 
#    y 0.000000 1.767030 0.000000 
#    z 0.000000 0.000000 1.858830 
# 
# From -- ./inp_files/5335.got.cif
#   From: 2010.05.17/outbox.cif.g08.bks.cpg/sg62_3_cif.got.tgz:5335.got - 2010.06.03 15:25:27.
