data_PCOD9465856
_publ_section_title
;
Structure prediction by ZEFSAII (Michael W. Deem and Ramdas Pophale) SiO2 
 PCOD9465856
Probable space group: P N M A
;
_chemical_formula_sum "Si O2"
_cell_formula_units_Z 40
_cell_length_a 12.838533
_cell_length_b 7.562375
_cell_length_c 19.174117
_cell_angle_alpha 90.000000
_cell_angle_beta 90.000000
_cell_angle_gamma 90.000000
_cell_volume 1861.611204
_symmetry_space_group_name_H-M "P N M A"
_symmetry_group_IT_number 62
_symmetry_cell_setting 'orthorhombic'
loop_
_space_group_symop_operation_xyz
x,y,z
1/2-x,-y,1/2+z
1/2+x,1/2-y,1/2-z
-x,1/2+y,-z
-x,-y,-z
1/2+x,y,1/2-z
1/2-x,1/2+y,1/2+z
x,1/2-y,z
loop_
_atom_site_type_symbol
_atom_site_label
_atom_site_fract_x
_atom_site_fract_y
_atom_site_fract_z
Si Si1 0.318109 0.532657 0.892836
Si Si2 0.953240 0.460774 0.923757
Si Si3 0.279342 0.536355 0.051812
Si Si4 0.459072 0.459458 0.161563
Si Si5 0.380241 0.044577 0.307980
O O1 0.316685 0.750000 0.893828
O O2 0.429576 0.471665 0.864398
O O3 0.223333 0.470288 0.844180
O O4 0.299430 0.476607 0.972598
O O5 0.952866 0.250000 0.914334
O O6 0.834081 0.525387 0.922432
O O7 0.027281 0.537027 0.864277
O O8 0.000000 0.500000 0.000000
O O9 0.275994 0.750000 0.050566
O O10 0.371869 0.482681 0.102757
O O11 0.475639 0.250000 0.172297
O O12 0.417856 0.534714 0.234857
O O13 0.355335 0.250000 0.293885
#
# Coordination Sequence:
#
# PCOD9465856 Si02
#       5
#     8   8   8   8   8
#     4   9  18  37  57  81 117 151 186 234 292 339
#     4  11  22  38  60  86 115 153 195 238 288 343
#     4  10  21  38  59  81 117 155 186 238 295 339
#     4  10  22  36  60  88 113 152 196 236 285 348
#     4  10  21  38  59  85 119 153 188 240 293 340
#
# _framework density 21.486764000000001
#
# number of rings (size 3 to 8) (size 9 to 14) (size 15 to 20)
#    0.000    2.000    2.000    1.200    2.800    2.400 
#    0.000    1.000    0.000    0.000    0.000    0.000 
#    0.000    0.000    0.000    0.000    0.000    0.000 
#
# Total GULP energy -223551.078315 kJ/mol
# GULP energy per Si atom -5588.776958 kJ/mol
# Density = 2.143786 g / cm^3
# Si number density = 21.486764 Si / 1000 Ang^3
#
#
#
# Elastic Constant Matrix: (Units=GPa)
#
#
# Indices 1 2 3 4 5 6 
#
# 1 217.3075 -13.9741 98.0983 0.0000 0.0000 0.0000
# 2 -13.9741 44.1566 -9.9594 0.0000 0.0000 0.0000
# 3 98.0983 -9.9594 120.2793 0.0000 0.0000 0.0000
# 4 0.0000 0.0000 0.0000 15.7823 0.0000 0.0000
# 5 0.0000 0.0000 0.0000 0.0000 12.5533 0.0000
# 6 0.0000 0.0000 0.0000 0.0000 0.0000 -26.4642
#
#
#
# Elastic Compliance Matrix: (Units=1/GPa)
#
#
# Indices 1 2 3 4 5 6 
#
# 1 0.007325 0.000989 -0.005893 0.000000 0.000000 0.000000
# 2 0.000989 0.023211 0.001115 0.000000 0.000000 0.000000
# 3 -0.005893 0.001115 0.013212 0.000000 0.000000 0.000000
# 4 0.000000 0.000000 0.000000 0.063362 0.000000 0.000000
# 5 0.000000 0.000000 0.000000 0.000000 0.079660 0.000000
# 6 0.000000 0.000000 0.000000 0.000000 0.000000 -0.037787
#
#
# Mechanical properties :
#
#
# Convention : Reuss Voigt Hill
#
# Bulk Modulus (GPa) = 27.64536 58.89700 43.27118
# Shear Modulus (GPa) = 29.65277 20.87953 25.26615
#
# Velocity S-wave (km/s) = 3.71893 3.12065 3.43285
# Velocity P-wave (km/s) = 5.59774 6.36042 5.99123
#
# Compressibility (1/GPa) = 0.03617244
#
# Stress axis : x y z
#
# Youngs Moduli (GPa) = 136.50952 43.08258 75.68692
#
# Poissons Ratio (x) = -0.04262 0.44600
# Poissons Ratio (y) = -0.13503 -0.08440
# Poissons Ratio (z) = 0.80441 -0.04804
#
# Static dielectric constant tensor:
#      x y z
#    x 1.736340 0.000000 0.000000 
#    y 0.000000 1.838220 0.000000 
#    z 0.000000 0.000000 1.733360 
# 
# From -- ./inp_files/22762.got.cif
#   From: 2010.05.17/outbox.cif.g08.bks.cpg/sg62_12_cif.got.tgz:22762.got - 2010.06.03 15:25:27.
