data_PCOD9465329
_publ_section_title
;
Structure prediction by ZEFSAII (Michael W. Deem and Ramdas Pophale) SiO2 
 PCOD9465329
Probable space group: P N M A
;
_chemical_formula_sum "Si O2"
_cell_formula_units_Z 40
_cell_length_a 17.992840
_cell_length_b 18.923551
_cell_length_c 5.173524
_cell_angle_alpha 90.000000
_cell_angle_beta 90.000000
_cell_angle_gamma 90.000000
_cell_volume 1761.525040
_symmetry_space_group_name_H-M "P N M A"
_symmetry_group_IT_number 62
_symmetry_cell_setting 'orthorhombic'
loop_
_space_group_symop_operation_xyz
x,y,z
1/2-x,-y,1/2+z
1/2+x,1/2-y,1/2-z
-x,1/2+y,-z
-x,-y,-z
1/2+x,y,1/2-z
1/2-x,1/2+y,1/2+z
x,1/2-y,z
loop_
_atom_site_type_symbol
_atom_site_label
_atom_site_fract_x
_atom_site_fract_y
_atom_site_fract_z
Si Si1 0.418233 0.831271 0.051696
Si Si2 0.245994 0.664709 0.942117
Si Si3 0.547894 0.822752 0.700385
Si Si4 0.658575 0.616808 0.049254
Si Si5 0.031665 0.561650 0.178627
O O1 0.423350 0.750000 0.160137
O O2 0.463501 0.892550 0.202086
O O3 0.333114 0.847199 0.994781
O O4 0.462949 0.828022 0.782126
O O5 0.236255 0.750000 0.895115
O O6 0.214529 0.620277 0.696767
O O7 0.205294 0.641071 0.204774
O O8 0.562812 0.750000 0.562084
O O9 0.569242 0.887104 0.527869
O O10 0.596084 0.826980 0.959280
O O11 0.600558 0.551614 0.118500
O O12 0.000000 0.500000 0.000000
#
# Coordination Sequence:
#
# PCOD9465329 Si02
#       5
#     8   8   8   8   8
#     4   9  22  39  66 103 137 179 236 297 357 420
#     4  11  22  39  66 103 141 174 220 294 365 415
#     4  10  20  39  67  96 128 171 234 294 340 413
#     4  11  23  39  66 101 133 177 230 285 353 417
#     4  11  24  43  70  97 141 190 239 283 352 432
#
# _framework density 22.707598999999998
#
# number of rings (size 3 to 8) (size 9 to 14) (size 15 to 20)
#    0.000    1.600    2.000    2.400    2.800    6.400 
#    0.000    0.000    8.800    0.000    0.000    0.000 
#    0.000    0.000    0.000    0.000    0.000    0.000 
#
# Total GULP energy -222747.308888 kJ/mol
# GULP energy per Si atom -5568.682722 kJ/mol
# Density = 2.265592 g / cm^3
# Si number density = 22.707599 Si / 1000 Ang^3
#
#
#
# Elastic Constant Matrix: (Units=GPa)
#
#
# Indices 1 2 3 4 5 6 
#
# 1 203.3210 13.6513 55.8956 0.0000 0.0000 0.0000
# 2 13.6513 47.2122 20.3123 0.0000 0.0000 0.0000
# 3 55.8956 20.3123 120.4080 0.0000 0.0000 0.0000
# 4 0.0000 0.0000 0.0000 32.2954 0.0000 0.0000
# 5 0.0000 0.0000 0.0000 0.0000 35.0389 0.0000
# 6 0.0000 0.0000 0.0000 0.0000 0.0000 11.3945
#
#
#
# Elastic Compliance Matrix: (Units=1/GPa)
#
#
# Indices 1 2 3 4 5 6 
#
# 1 0.005651 -0.000545 -0.002531 0.000000 0.000000 0.000000
# 2 -0.000545 0.022891 -0.003609 0.000000 0.000000 0.000000
# 3 -0.002531 -0.003609 0.010089 0.000000 0.000000 0.000000
# 4 0.000000 0.000000 0.000000 0.030964 0.000000 0.000000
# 5 0.000000 0.000000 0.000000 0.000000 0.028540 0.000000
# 6 0.000000 0.000000 0.000000 0.000000 0.000000 0.087762
#
#
# Mechanical properties :
#
#
# Convention : Reuss Voigt Hill
#
# Bulk Modulus (GPa) = 39.58649 61.18441 50.38545
# Shear Modulus (GPa) = 24.07474 34.48456 29.27965
#
# Velocity S-wave (km/s) = 3.25961 3.90119 3.59475
# Velocity P-wave (km/s) = 5.62475 6.87716 6.28224
#
# Compressibility (1/GPa) = 0.02526114
#
# Stress axis : x y z
#
# Youngs Moduli (GPa) = 176.96620 43.68508 99.11853
#
# Poissons Ratio (x) = 0.02380 0.25090
# Poissons Ratio (y) = 0.09642 0.35769
# Poissons Ratio (z) = 0.44795 0.15765
#
# Static dielectric constant tensor:
#      x y z
#    x 1.879850 0.000000 0.000000 
#    y 0.000000 1.918280 0.000000 
#    z 0.000000 0.000000 1.945730 
# 
# From -- ./inp_files/1646.got.cif
#   From: 2010.05.17/outbox.cif.g08.bks.cpg/sg62_1_cif.got.tgz:1646.got - 2010.06.03 15:25:27.
