data_PCOD9465443
_publ_section_title
;
Structure prediction by ZEFSAII (Michael W. Deem and Ramdas Pophale) SiO2 
 PCOD9465443
Probable space group: P N M A
;
_chemical_formula_sum "Si O2"
_cell_formula_units_Z 60
_cell_length_a 9.355202
_cell_length_b 27.291701
_cell_length_c 10.921020
_cell_angle_alpha 90.000000
_cell_angle_beta 90.000000
_cell_angle_gamma 90.000000
_cell_volume 2788.348009
_symmetry_space_group_name_H-M "P N M A"
_symmetry_group_IT_number 62
_symmetry_cell_setting 'orthorhombic'
loop_
_space_group_symop_operation_xyz
x,y,z
1/2-x,-y,1/2+z
1/2+x,1/2-y,1/2-z
-x,1/2+y,-z
-x,-y,-z
1/2+x,y,1/2-z
1/2-x,1/2+y,1/2+z
x,1/2-y,z
loop_
_atom_site_type_symbol
_atom_site_label
_atom_site_fract_x
_atom_site_fract_y
_atom_site_fract_z
Si Si1 0.471791 0.750000 0.575707
Si Si2 0.320076 0.841127 0.711734
Si Si3 0.552258 0.420757 0.476151
Si Si4 0.657147 0.692562 0.126471
Si Si5 0.166179 0.996465 0.857225
Si Si6 0.497175 0.828400 0.378680
Si Si7 0.037143 0.636970 0.606944
Si Si8 0.491622 0.977133 0.867516
O O1 0.383900 0.792872 0.650714
O O2 0.543321 0.792554 0.487269
O O3 0.371101 0.887144 0.626442
O O4 0.381776 0.847100 0.847100
O O5 0.149835 0.840778 0.704065
O O6 0.656049 0.458307 0.548120
O O7 0.427388 0.452795 0.416008
O O8 0.488681 0.383840 0.576455
O O9 0.643534 0.750000 0.091328
O O10 0.826474 0.681969 0.136232
O O11 0.579517 0.683038 0.254444
O O12 0.587369 0.658371 0.022407
O O13 0.326180 0.980125 0.829655
O O14 0.086724 0.006513 0.729595
O O15 0.041879 0.578740 0.620050
O O16 0.500000 0.000000 0.000000
#
# Coordination Sequence:
#
# PCOD9465443 Si02
#       8
#     4   8   8   8   8   8   8   8
#     4  10  20  44  68  94 128 184 208 274 338 392
#     4  11  23  43  69  92 135 172 221 273 336 388
#     4  10  23  44  71  93 134 179 219 272 338 391
#     4  12  24  45  68 100 134 175 220 276 332 399
#     4  11  26  45  70  97 138 176 227 279 334 398
#     4  11  23  43  72  92 138 173 222 271 337 391
#     4  12  25  43  66  96 134 173 221 275 326 396
#     4  12  28  44  70 100 137 177 229 274 340 399
#
# _framework density 21.518117
#
# number of rings (size 3 to 8) (size 9 to 14) (size 15 to 20)
#    0.000    0.800    5.333    1.600    6.533    1.067 
#    2.400    0.000    0.000    0.000    0.000    0.000 
#    0.000    0.000    0.000    0.000    0.000    0.000 
#
# Total GULP energy -334676.515040 kJ/mol
# GULP energy per Si atom -5577.941917 kJ/mol
# Density = 2.146914 g / cm^3
# Si number density = 21.518117 Si / 1000 Ang^3
#
#
#
# Elastic Constant Matrix: (Units=GPa)
#
#
# Indices 1 2 3 4 5 6 
#
# 1 51.0313 -1.7288 20.2686 0.0000 0.0000 0.0000
# 2 -1.7288 91.3662 14.9872 0.0000 0.0000 0.0000
# 3 20.2686 14.9872 60.9409 0.0000 0.0000 0.0000
# 4 0.0000 0.0000 0.0000 19.2562 0.0000 0.0000
# 5 0.0000 0.0000 0.0000 0.0000 34.9583 0.0000
# 6 0.0000 0.0000 0.0000 0.0000 0.0000 7.0721
#
#
#
# Elastic Compliance Matrix: (Units=1/GPa)
#
#
# Indices 1 2 3 4 5 6 
#
# 1 0.022844 0.001749 -0.008028 0.000000 0.000000 0.000000
# 2 0.001749 0.011539 -0.003420 0.000000 0.000000 0.000000
# 3 -0.008028 -0.003420 0.019920 0.000000 0.000000 0.000000
# 4 0.000000 0.000000 0.000000 0.051931 0.000000 0.000000
# 5 0.000000 0.000000 0.000000 0.000000 0.028605 0.000000
# 6 0.000000 0.000000 0.000000 0.000000 0.000000 0.141401
#
#
# Mechanical properties :
#
#
# Convention : Reuss Voigt Hill
#
# Bulk Modulus (GPa) = 28.64807 30.04360 29.34584
# Shear Modulus (GPa) = 16.27220 23.57809 19.92514
#
# Velocity S-wave (km/s) = 2.75291 3.31378 3.04628
# Velocity P-wave (km/s) = 4.84222 5.35105 5.10298
#
# Compressibility (1/GPa) = 0.03490636
#
# Stress axis : x y z
#
# Youngs Moduli (GPa) = 43.77606 86.66280 50.20006
#
# Poissons Ratio (x) = -0.15158 0.40299
# Poissons Ratio (y) = -0.07657 0.17166
# Poissons Ratio (z) = 0.35142 0.29634
#
# Static dielectric constant tensor:
#      x y z
#    x 1.774720 0.000000 0.000000 
#    y 0.000000 1.763730 0.000000 
#    z 0.000000 0.000000 1.792390 
# 
# From -- ./inp_files/11436.got.cif
#   From: 2010.05.17/outbox.cif.g08.bks.cpg/sg62_6_cif.got.tgz:11436.got - 2010.06.03 15:25:27.
