data_PCOD9465029
_publ_section_title
;
Structure prediction by ZEFSAII (Michael W. Deem and Ramdas Pophale) SiO2 
 PCOD9465029
Probable space group: P N M A
;
_chemical_formula_sum "Si O2"
_cell_formula_units_Z 40
_cell_length_a 15.620259
_cell_length_b 13.984462
_cell_length_c 9.649678
_cell_angle_alpha 90.000000
_cell_angle_beta 90.000000
_cell_angle_gamma 90.000000
_cell_volume 2107.884525
_symmetry_space_group_name_H-M "P N M A"
_symmetry_group_IT_number 62
_symmetry_cell_setting 'orthorhombic'
loop_
_space_group_symop_operation_xyz
x,y,z
1/2-x,-y,1/2+z
1/2+x,1/2-y,1/2-z
-x,1/2+y,-z
-x,-y,-z
1/2+x,y,1/2-z
1/2-x,1/2+y,1/2+z
x,1/2-y,z
loop_
_atom_site_type_symbol
_atom_site_label
_atom_site_fract_x
_atom_site_fract_y
_atom_site_fract_z
Si Si1 0.482420 0.638268 0.075002
Si Si2 0.760640 0.636155 0.035985
Si Si3 0.388218 0.451583 0.138428
Si Si4 0.362140 0.362101 0.711517
Si Si5 0.902291 0.011117 0.043094
O O1 0.458099 0.750000 0.072098
O O2 0.407095 0.561555 0.093807
O O3 0.549318 0.622941 0.202359
O O4 0.537283 0.609446 0.938928
O O5 0.761460 0.750000 0.018786
O O6 0.713090 0.613404 0.180999
O O7 0.853393 0.589733 0.038781
O O8 0.700768 0.588331 0.919535
O O9 0.394341 0.446785 0.303175
O O10 0.356787 0.250000 0.680470
O O11 0.359927 0.422367 0.573055
O O12 0.000000 0.000000 0.000000
#
# Coordination Sequence:
#
# PCOD9465029 Si02
#       5
#     8   8   8   8   8
#     4   9  18  36  62  89 120 162 201 240 297 363
#     4  10  23  43  63  83 119 169 206 245 307 372
#     4  10  20  37  63  89 124 159 206 248 299 359
#     4   9  19  38  61  86 120 159 200 246 302 362
#     4  12  23  37  62  94 124 153 199 264 310 353
#
# _framework density 18.976371
#
# number of rings (size 3 to 8) (size 9 to 14) (size 15 to 20)
#    0.000    2.000    2.000    3.000    0.000    3.200 
#    0.000    1.000    0.000    0.000    0.000    0.000 
#    0.000    0.000    0.000    0.000    0.000    0.000 
#
# Total GULP energy -223424.019655 kJ/mol
# GULP energy per Si atom -5585.600491 kJ/mol
# Density = 1.893318 g / cm^3
# Si number density = 18.976371 Si / 1000 Ang^3
#
#
#
# Elastic Constant Matrix: (Units=GPa)
#
#
# Indices 1 2 3 4 5 6 
#
# 1 90.2200 35.0645 43.3547 0.0000 0.0000 0.0000
# 2 35.0645 92.8718 66.7802 0.0000 0.0000 0.0000
# 3 43.3547 66.7802 152.0329 0.0000 0.0000 0.0000
# 4 0.0000 0.0000 0.0000 20.8976 0.0000 0.0000
# 5 0.0000 0.0000 0.0000 0.0000 4.0209 0.0000
# 6 0.0000 0.0000 0.0000 0.0000 0.0000 27.8078
#
#
#
# Elastic Compliance Matrix: (Units=1/GPa)
#
#
# Indices 1 2 3 4 5 6 
#
# 1 0.013547 -0.003416 -0.002363 0.000000 0.000000 0.000000
# 2 -0.003416 0.016600 -0.006317 0.000000 0.000000 0.000000
# 3 -0.002363 -0.006317 0.010026 0.000000 0.000000 0.000000
# 4 0.000000 0.000000 0.000000 0.047852 0.000000 0.000000
# 5 0.000000 0.000000 0.000000 0.000000 0.248698 0.000000
# 6 0.000000 0.000000 0.000000 0.000000 0.000000 0.035961
#
#
# Mechanical properties :
#
#
# Convention : Reuss Voigt Hill
#
# Bulk Modulus (GPa) = 62.57389 69.50258 66.03824
# Shear Modulus (GPa) = 12.43153 23.20696 17.81925
#
# Velocity S-wave (km/s) = 2.56228 3.50085 3.06767
# Velocity P-wave (km/s) = 6.46529 7.28331 6.88646
#
# Compressibility (1/GPa) = 0.01598111
#
# Stress axis : x y z
#
# Youngs Moduli (GPa) = 73.81706 60.24197 99.73898
#
# Poissons Ratio (x) = 0.20578 0.23566
# Poissons Ratio (y) = 0.25215 0.63008
# Poissons Ratio (z) = 0.17441 0.38057
#
# Static dielectric constant tensor:
#      x y z
#    x 1.681260 0.000000 0.000000 
#    y 0.000000 1.640760 0.000000 
#    z 0.000000 0.000000 1.647350 
# 
# From -- ./inp_files/6098.got.cif
#   From: 2010.05.17/outbox.cif.g08.bks.cpg/sg62_4_cif.got.tgz:6098.got - 2010.06.03 15:25:27.
