data_PCOD9465600
_publ_section_title
;
Structure prediction by ZEFSAII (Michael W. Deem and Ramdas Pophale) SiO2 
 PCOD9465600
Probable space group: P N M A
;
_chemical_formula_sum "Si O2"
_cell_formula_units_Z 64
_cell_length_a 24.844930
_cell_length_b 8.919920
_cell_length_c 14.497097
_cell_angle_alpha 90.000000
_cell_angle_beta 90.000000
_cell_angle_gamma 90.000000
_cell_volume 3212.771078
_symmetry_space_group_name_H-M "P N M A"
_symmetry_group_IT_number 62
_symmetry_cell_setting 'orthorhombic'
loop_
_space_group_symop_operation_xyz
x,y,z
1/2-x,-y,1/2+z
1/2+x,1/2-y,1/2-z
-x,1/2+y,-z
-x,-y,-z
1/2+x,y,1/2-z
1/2-x,1/2+y,1/2+z
x,1/2-y,z
loop_
_atom_site_type_symbol
_atom_site_label
_atom_site_fract_x
_atom_site_fract_y
_atom_site_fract_z
Si Si1 0.807805 0.569703 0.781881
Si Si2 0.831125 0.929005 0.992790
Si Si3 0.942452 0.928869 0.471250
Si Si4 0.587626 0.927482 0.776011
Si Si5 0.301849 0.429415 0.323099
Si Si6 0.392901 0.073706 0.858700
Si Si7 0.513026 0.581149 0.280565
Si Si8 0.443725 0.076776 0.523798
O O1 0.816687 0.750000 0.778390
O O2 0.748463 0.537757 0.742751
O O3 0.849715 0.491878 0.712664
O O4 0.814172 0.523665 0.889084
O O5 0.829883 0.750000 0.996238
O O6 0.796797 0.995081 0.076895
O O7 0.891708 0.988373 0.008750
O O8 0.947527 0.750000 0.471336
O O9 0.924081 0.987845 0.371500
O O10 0.898852 0.983657 0.546610
O O11 0.000000 0.000000 0.500000
O O12 0.590440 0.750000 0.793096
O O13 0.642538 0.975861 0.726440
O O14 0.535679 0.965959 0.713721
O O15 0.304472 0.250000 0.336590
O O16 0.382990 0.250000 0.875106
O O17 0.451177 0.059525 0.809589
O O18 0.490097 0.750000 0.280968
O O19 0.554266 0.572655 0.365034
O O20 0.441685 0.250000 0.493650
O O21 0.500000 0.000000 0.500000
#
# Coordination Sequence:
#
# PCOD9465600 Si02
#       8
#     8   8   8   8   8   8   8   8
#     4  10  23  44  67  92 126 166 211 262 312 370
#     4  11  23  40  65  95 126 164 211 261 314 375
#     4  12  24  39  61  91 128 169 212 260 317 379
#     4  11  23  39  62  91 126 169 213 261 316 375
#     4  10  24  45  66  92 128 168 211 260 314 370
#     4  11  22  39  63  92 123 160 208 260 312 370
#     4  10  21  36  57  85 122 161 203 255 311 373
#     4  11  22  37  58  89 126 165 207 255 314 378
#
# _framework density 19.920497999999998
#
# number of rings (size 3 to 8) (size 9 to 14) (size 15 to 20)
#    0.000    1.250    2.500    3.375    0.000    6.500 
#    0.000    1.250    0.000    0.000    0.000    0.000 
#    0.000    0.000    0.000    0.000    0.000    0.000 
#
# Total GULP energy -357701.296766 kJ/mol
# GULP energy per Si atom -5589.082762 kJ/mol
# Density = 1.987516 g / cm^3
# Si number density = 19.920498 Si / 1000 Ang^3
#
#
#
# Elastic Constant Matrix: (Units=GPa)
#
#
# Indices 1 2 3 4 5 6 
#
# 1 85.2072 44.1593 43.2163 0.0000 0.0000 0.0000
# 2 44.1593 76.2237 45.6321 0.0000 0.0000 0.0000
# 3 43.2163 45.6321 116.0669 0.0000 0.0000 0.0000
# 4 0.0000 0.0000 0.0000 35.6180 0.0000 0.0000
# 5 0.0000 0.0000 0.0000 0.0000 28.7088 0.0000
# 6 0.0000 0.0000 0.0000 0.0000 0.0000 23.8651
#
#
#
# Elastic Compliance Matrix: (Units=1/GPa)
#
#
# Indices 1 2 3 4 5 6 
#
# 1 0.017714 -0.008258 -0.003349 0.000000 0.000000 0.000000
# 2 -0.008258 0.021007 -0.005184 0.000000 0.000000 0.000000
# 3 -0.003349 -0.005184 0.011901 0.000000 0.000000 0.000000
# 4 0.000000 0.000000 0.000000 0.028076 0.000000 0.000000
# 5 0.000000 0.000000 0.000000 0.000000 0.034833 0.000000
# 6 0.000000 0.000000 0.000000 0.000000 0.000000 0.041902
#
#
# Mechanical properties :
#
#
# Convention : Reuss Voigt Hill
#
# Bulk Modulus (GPa) = 58.68552 60.39035 59.53793
# Shear Modulus (GPa) = 25.68124 27.27107 26.47616
#
# Velocity S-wave (km/s) = 3.59442 3.70401 3.64963
# Velocity P-wave (km/s) = 6.83742 6.97670 6.90741
#
# Compressibility (1/GPa) = 0.01703998
#
# Stress axis : x y z
#
# Youngs Moduli (GPa) = 56.45146 47.60365 84.02647
#
# Poissons Ratio (x) = 0.39309 0.28143
# Poissons Ratio (y) = 0.46615 0.43562
# Poissons Ratio (z) = 0.18907 0.24679
#
# Static dielectric constant tensor:
#      x y z
#    x 1.684880 0.000000 0.000000 
#    y 0.000000 1.680190 0.000000 
#    z 0.000000 0.000000 1.748630 
# 
# From -- ./inp_files/21001.got.cif
#   From: 2010.05.17/outbox.cif.g08.bks.cpg/sg62_11_cif.got.tgz:21001.got - 2010.06.03 15:25:27.
