data_PCOD9465540
_publ_section_title
;
Structure prediction by ZEFSAII (Michael W. Deem and Ramdas Pophale) SiO2 
 PCOD9465540
Probable space group: P N M A
;
_chemical_formula_sum "Si O2"
_cell_formula_units_Z 48
_cell_length_a 10.526857
_cell_length_b 7.644401
_cell_length_c 30.606778
_cell_angle_alpha 90.000000
_cell_angle_beta 90.000000
_cell_angle_gamma 90.000000
_cell_volume 2462.973831
_symmetry_space_group_name_H-M "P N M A"
_symmetry_group_IT_number 62
_symmetry_cell_setting 'orthorhombic'
loop_
_space_group_symop_operation_xyz
x,y,z
1/2-x,-y,1/2+z
1/2+x,1/2-y,1/2-z
-x,1/2+y,-z
-x,-y,-z
1/2+x,y,1/2-z
1/2-x,1/2+y,1/2+z
x,1/2-y,z
loop_
_atom_site_type_symbol
_atom_site_label
_atom_site_fract_x
_atom_site_fract_y
_atom_site_fract_z
Si Si1 0.724633 0.536415 0.384795
Si Si2 0.513646 0.963910 0.215853
Si Si3 0.873736 0.543501 0.527201
Si Si4 0.629928 0.960463 0.475806
Si Si5 0.485636 0.458793 0.882165
Si Si6 0.720812 0.536363 0.285998
O O1 0.722875 0.750000 0.384229
O O2 0.641170 0.476777 0.425698
O O3 0.870883 0.480716 0.392855
O O4 0.690018 0.481036 0.335732
O O5 0.515217 0.750000 0.216624
O O6 0.548122 0.021496 0.166475
O O7 0.366752 0.015720 0.224029
O O8 0.616073 0.023619 0.251337
O O9 0.860744 0.750000 0.525658
O O10 0.749428 0.468928 0.503552
O O11 0.000000 0.500000 0.500000
O O12 0.893971 0.496291 0.577673
O O13 0.640978 0.750000 0.473712
O O14 0.500000 0.000000 0.500000
O O15 0.494069 0.250000 0.878895
O O16 0.720189 0.750000 0.285526
#
# Coordination Sequence:
#
# PCOD9465540 Si02
#       6
#     8   8   8   8   8   8
#     4   8  14  28  47  65  96 133 157 191 244 294
#     4   8  14  24  41  65  95 125 154 194 240 289
#     4  11  21  34  54  76  99 128 167 210 249 292
#     4  10  21  36  50  70 101 133 164 202 248 296
#     4   9  16  30  50  73 100 128 161 202 247 293
#     4   8  13  23  40  63  92 123 152 188 239 286
#
# _framework density 19.488636
#
# number of rings (size 3 to 8) (size 9 to 14) (size 15 to 20)
#    0.000    3.000    1.667    2.500    0.000    1.333 
#    3.000    0.000    0.000    0.000    0.000    5.833 
#    0.000    0.000    0.000    0.000    0.000    0.000 
#
# Total GULP energy -267549.935097 kJ/mol
# GULP energy per Si atom -5573.956981 kJ/mol
# Density = 1.944428 g / cm^3
# Si number density = 19.488636 Si / 1000 Ang^3
#
#
#
# Elastic Constant Matrix: (Units=GPa)
#
#
# Indices 1 2 3 4 5 6 
#
# 1 134.3319 0.5151 121.5985 0.0000 0.0000 0.0000
# 2 0.5151 30.5381 8.6790 0.0000 0.0000 0.0000
# 3 121.5985 8.6790 204.0163 0.0000 0.0000 0.0000
# 4 0.0000 0.0000 0.0000 14.3699 0.0000 0.0000
# 5 0.0000 0.0000 0.0000 0.0000 39.8343 0.0000
# 6 0.0000 0.0000 0.0000 0.0000 0.0000 11.0626
#
#
#
# Elastic Compliance Matrix: (Units=1/GPa)
#
#
# Indices 1 2 3 4 5 6 
#
# 1 0.016357 0.002525 -0.009856 0.000000 0.000000 0.000000
# 2 0.002525 0.033537 -0.002932 0.000000 0.000000 0.000000
# 3 -0.009856 -0.002932 0.010901 0.000000 0.000000 0.000000
# 4 0.000000 0.000000 0.000000 0.069590 0.000000 0.000000
# 5 0.000000 0.000000 0.000000 0.000000 0.025104 0.000000
# 6 0.000000 0.000000 0.000000 0.000000 0.000000 0.090395
#
#
# Mechanical properties :
#
#
# Convention : Reuss Voigt Hill
#
# Bulk Modulus (GPa) = 24.83338 70.05240 47.44289
# Shear Modulus (GPa) = 17.86793 28.92629 23.39711
#
# Velocity S-wave (km/s) = 3.03122 3.85680 3.46866
# Velocity P-wave (km/s) = 5.00212 7.47372 6.35915
#
# Compressibility (1/GPa) = 0.04026839
#
# Stress axis : x y z
#
# Youngs Moduli (GPa) = 61.13723 29.81817 91.73538
#
# Poissons Ratio (x) = -0.07530 0.90418
# Poissons Ratio (y) = -0.15439 0.26895
# Poissons Ratio (z) = 0.60259 0.08742
#
# Static dielectric constant tensor:
#      x y z
#    x 1.661290 0.000000 0.000000 
#    y 0.000000 1.751140 0.000000 
#    z 0.000000 0.000000 1.693020 
# 
# From -- ./inp_files/31979.got.cif
#   From: 2010.05.17/outbox.cif.g08.bks.cpg/sg62_16_cif.got.tgz:31979.got - 2010.06.03 15:25:27.
