data_PCOD9465409
_publ_section_title
;
Structure prediction by ZEFSAII (Michael W. Deem and Ramdas Pophale) SiO2 
 PCOD9465409
Probable space group: P N M A
;
_chemical_formula_sum "Si O2"
_cell_formula_units_Z 56
_cell_length_a 13.335879
_cell_length_b 31.442816
_cell_length_c 5.538638
_cell_angle_alpha 90.000000
_cell_angle_beta 90.000000
_cell_angle_gamma 90.000000
_cell_volume 2322.448336
_symmetry_space_group_name_H-M "P N M A"
_symmetry_group_IT_number 62
_symmetry_cell_setting 'orthorhombic'
loop_
_space_group_symop_operation_xyz
x,y,z
1/2-x,-y,1/2+z
1/2+x,1/2-y,1/2-z
-x,1/2+y,-z
-x,-y,-z
1/2+x,y,1/2-z
1/2-x,1/2+y,1/2+z
x,1/2-y,z
loop_
_atom_site_type_symbol
_atom_site_label
_atom_site_fract_x
_atom_site_fract_y
_atom_site_fract_z
Si Si1 0.058784 0.750000 0.337155
Si Si2 0.995447 0.162376 0.846241
Si Si3 0.435970 0.400323 0.029791
Si Si4 0.119951 0.110804 0.155691
Si Si5 0.295672 0.155689 0.334165
Si Si6 0.642097 0.473736 0.609958
Si Si7 0.815257 0.250000 0.166062
Si Si8 0.131337 0.507149 0.390663
O O1 0.998531 0.706416 0.296110
O O2 0.107376 0.750000 0.604339
O O3 0.134093 0.750000 0.102409
O O4 0.999645 0.121797 0.676403
O O5 0.885540 0.158173 0.971211
O O6 0.085555 0.154904 0.031775
O O7 0.514723 0.406756 0.244368
O O8 0.353978 0.364887 0.105902
O O9 0.388020 0.444029 0.951580
O O10 0.202571 0.123470 0.355620
O O11 0.158687 0.074872 0.973004
O O12 0.261454 0.204536 0.308404
O O13 0.748450 0.498180 0.633212
O O14 0.596557 0.479489 0.877736
O O15 0.592467 0.494673 0.372997
#
# Coordination Sequence:
#
# PCOD9465409 Si02
#       8
#     4   8   8   8   8   8   4   8
#     4  10  20  43  69  96 137 176 224 276 332 407
#     4  10  24  41  68 100 132 183 223 278 347 403
#     4  11  23  41  66  97 131 178 222 277 343 401
#     4  11  25  41  65 102 135 173 228 283 336 404
#     4  10  22  43  67  94 137 176 226 279 332 411
#     4  10  23  42  64  96 130 174 226 281 337 405
#     4  10  20  41  71  98 127 184 226 262 344 393
#     4  10  23  41  67  92 129 179 224 277 343 403
#
# _framework density 24.112486000000001
#
# number of rings (size 3 to 8) (size 9 to 14) (size 15 to 20)
#    0.000    1.714    2.857    0.000    6.000    4.000 
#    0.000    1.429    0.000    0.000    0.000    0.000 
#    0.000    0.000    0.000    0.000    0.000    0.000 
#
# Total GULP energy -312561.186855 kJ/mol
# GULP energy per Si atom -5581.449765 kJ/mol
# Density = 2.405760 g / cm^3
# Si number density = 24.112486 Si / 1000 Ang^3
#
#
#
# Elastic Constant Matrix: (Units=GPa)
#
#
# Indices 1 2 3 4 5 6 
#
# 1 50.0974 6.2095 15.2733 0.0000 0.0000 0.0000
# 2 6.2095 117.9458 20.9922 0.0000 0.0000 0.0000
# 3 15.2733 20.9922 93.1171 0.0000 0.0000 0.0000
# 4 0.0000 0.0000 0.0000 33.2938 0.0000 0.0000
# 5 0.0000 0.0000 0.0000 0.0000 22.2845 0.0000
# 6 0.0000 0.0000 0.0000 0.0000 0.0000 15.1034
#
#
#
# Elastic Compliance Matrix: (Units=1/GPa)
#
#
# Indices 1 2 3 4 5 6 
#
# 1 0.021042 -0.000514 -0.003335 0.000000 0.000000 0.000000
# 2 -0.000514 0.008845 -0.001910 0.000000 0.000000 0.000000
# 3 -0.003335 -0.001910 0.011717 0.000000 0.000000 0.000000
# 4 0.000000 0.000000 0.000000 0.030036 0.000000 0.000000
# 5 0.000000 0.000000 0.000000 0.000000 0.044874 0.000000
# 6 0.000000 0.000000 0.000000 0.000000 0.000000 0.066210
#
#
# Mechanical properties :
#
#
# Convention : Reuss Voigt Hill
#
# Bulk Modulus (GPa) = 33.23884 38.45670 35.84777
# Shear Modulus (GPa) = 24.47727 28.71537 26.59632
#
# Velocity S-wave (km/s) = 3.18956 3.45467 3.32476
# Velocity P-wave (km/s) = 5.23252 5.64770 5.44407
#
# Compressibility (1/GPa) = 0.03008528
#
# Stress axis : x y z
#
# Youngs Moduli (GPa) = 47.52468 113.05250 85.34767
#
# Poissons Ratio (x) = 0.05813 0.28467
# Poissons Ratio (y) = 0.02443 0.16299
# Poissons Ratio (z) = 0.15851 0.21590
#
# Static dielectric constant tensor:
#      x y z
#    x 1.936530 0.000000 0.000000 
#    y 0.000000 1.899050 0.000000 
#    z 0.000000 0.000000 2.023370 
# 
# From -- ./inp_files/1305.got.cif
#   From: 2010.05.17/outbox.cif.g08.bks.cpg/sg62_1_cif.got.tgz:1305.got - 2010.06.03 15:25:27.
