data_PCOD9465845
_publ_section_title
;
Structure prediction by ZEFSAII (Michael W. Deem and Ramdas Pophale) SiO2 
 PCOD9465845
Probable space group: P N M A
;
_chemical_formula_sum "Si O2"
_cell_formula_units_Z 64
_cell_length_a 30.071909
_cell_length_b 7.502701
_cell_length_c 11.570086
_cell_angle_alpha 90.000000
_cell_angle_beta 90.000000
_cell_angle_gamma 90.000000
_cell_volume 2610.449071
_symmetry_space_group_name_H-M "P N M A"
_symmetry_group_IT_number 62
_symmetry_cell_setting 'orthorhombic'
loop_
_space_group_symop_operation_xyz
x,y,z
1/2-x,-y,1/2+z
1/2+x,1/2-y,1/2-z
-x,1/2+y,-z
-x,-y,-z
1/2+x,y,1/2-z
1/2-x,1/2+y,1/2+z
x,1/2-y,z
loop_
_atom_site_type_symbol
_atom_site_label
_atom_site_fract_x
_atom_site_fract_y
_atom_site_fract_z
Si Si1 0.562173 0.532750 0.317114
Si Si2 0.681351 0.957769 0.823051
Si Si3 0.220832 0.031341 0.147855
Si Si4 0.097901 0.044373 0.532658
Si Si5 0.147798 0.043434 0.312049
Si Si6 0.339142 0.535939 0.433488
Si Si7 0.557964 0.545471 0.571370
Si Si8 0.019299 0.454351 0.684374
O O1 0.562685 0.750000 0.318220
O O2 0.611415 0.466036 0.290297
O O3 0.545099 0.475440 0.443788
O O4 0.528922 0.468801 0.215963
O O5 0.677783 0.750000 0.853913
O O6 0.728607 0.028757 0.866603
O O7 0.636778 0.044890 0.871525
O O8 0.682646 0.978821 0.686114
O O9 0.221674 0.250000 0.152081
O O10 0.194044 0.970467 0.262483
O O11 0.191052 0.977363 0.039653
O O12 0.087296 0.250000 0.504100
O O13 0.121881 0.960705 0.420934
O O14 0.053406 0.965144 0.591249
O O15 0.156255 0.250000 0.342017
O O16 0.342844 0.750000 0.436849
O O17 0.388642 0.460193 0.434457
O O18 0.543852 0.750000 0.581955
O O19 0.542745 0.452777 0.689075
O O20 0.011764 0.250000 0.649576
#
# Coordination Sequence:
#
# PCOD9465845 Si02
#       8
#     8   8   8   8   8   8   8   8
#     4  10  22  38  57  85 119 152 191 244 296 340
#     4  11  23  39  60  88 120 151 192 245 290 338
#     4   9  21  39  59  84 116 152 189 236 292 340
#     4  10  22  39  60  84 114 155 199 236 286 351
#     4  10  21  40  61  82 112 154 198 239 285 349
#     4  11  21  38  62  86 116 154 191 232 291 350
#     4  11  21  35  57  88 118 148 194 243 289 341
#     4  10  21  38  58  83 119 157 192 237 293 351
#
# _framework density 24.516856000000001
#
# number of rings (size 3 to 8) (size 9 to 14) (size 15 to 20)
#    0.000    1.750    2.500    1.500    1.750    2.000 
#    0.000    3.125    0.000    0.000    0.000    0.000 
#    0.000    0.000    0.000    0.000    0.000    0.000 
#
# Total GULP energy -357793.612450 kJ/mol
# GULP energy per Si atom -5590.525195 kJ/mol
# Density = 2.446105 g / cm^3
# Si number density = 24.516856 Si / 1000 Ang^3
#
#
#
# Elastic Constant Matrix: (Units=GPa)
#
#
# Indices 1 2 3 4 5 6 
#
# 1 78.9041 1.2182 -18.0241 0.0000 0.0000 0.0000
# 2 1.2182 81.0119 -8.1193 0.0000 0.0000 0.0000
# 3 -18.0241 -8.1193 60.4760 0.0000 0.0000 0.0000
# 4 0.0000 0.0000 0.0000 54.5269 0.0000 0.0000
# 5 0.0000 0.0000 0.0000 0.0000 32.2689 0.0000
# 6 0.0000 0.0000 0.0000 0.0000 0.0000 4.8138
#
#
#
# Elastic Compliance Matrix: (Units=1/GPa)
#
#
# Indices 1 2 3 4 5 6 
#
# 1 0.013603 0.000205 0.004082 0.000000 0.000000 0.000000
# 2 0.000205 0.012515 0.001741 0.000000 0.000000 0.000000
# 3 0.004082 0.001741 0.017986 0.000000 0.000000 0.000000
# 4 0.000000 0.000000 0.000000 0.018340 0.000000 0.000000
# 5 0.000000 0.000000 0.000000 0.000000 0.030990 0.000000
# 6 0.000000 0.000000 0.000000 0.000000 0.000000 0.207736
#
#
# Mechanical properties :
#
#
# Convention : Reuss Voigt Hill
#
# Bulk Modulus (GPa) = 17.80672 18.94905 18.37788
# Shear Modulus (GPa) = 16.24252 34.67641 25.45947
#
# Velocity S-wave (km/s) = 2.57671 3.76492 3.22599
# Velocity P-wave (km/s) = 4.01639 5.16190 4.62475
#
# Compressibility (1/GPa) = 0.05615858
#
# Stress axis : x y z
#
# Youngs Moduli (GPa) = 73.51417 79.90220 55.59964
#
# Poissons Ratio (x) = -0.01634 -0.22694
# Poissons Ratio (y) = -0.01504 -0.09681
# Poissons Ratio (z) = -0.30006 -0.13913
#
# Static dielectric constant tensor:
#      x y z
#    x 1.938150 0.000000 0.000000 
#    y 0.000000 1.940620 0.000000 
#    z 0.000000 0.000000 1.968180 
# 
# From -- ./inp_files/15871.got.cif
#   From: 2010.05.17/outbox.cif.g08.bks.cpg/sg62_8_cif.got.tgz:15871.got - 2010.06.03 15:25:27.
