data_PCOD9465895
_publ_section_title
;
Structure prediction by ZEFSAII (Michael W. Deem and Ramdas Pophale) SiO2 
 PCOD9465895
Probable space group: P N M A
;
_chemical_formula_sum "Si O2"
_cell_formula_units_Z 48
_cell_length_a 9.442867
_cell_length_b 8.833529
_cell_length_c 31.264799
_cell_angle_alpha 90.000000
_cell_angle_beta 90.000000
_cell_angle_gamma 90.000000
_cell_volume 2607.916925
_symmetry_space_group_name_H-M "P N M A"
_symmetry_group_IT_number 62
_symmetry_cell_setting 'orthorhombic'
loop_
_space_group_symop_operation_xyz
x,y,z
1/2-x,-y,1/2+z
1/2+x,1/2-y,1/2-z
-x,1/2+y,-z
-x,-y,-z
1/2+x,y,1/2-z
1/2-x,1/2+y,1/2+z
x,1/2-y,z
loop_
_atom_site_type_symbol
_atom_site_label
_atom_site_fract_x
_atom_site_fract_y
_atom_site_fract_z
Si Si1 0.095680 0.068465 0.712870
Si Si2 0.902133 0.930643 0.036349
Si Si3 0.916909 0.569800 0.134343
Si Si4 0.414671 0.069104 0.871627
Si Si5 0.590608 0.069660 0.289232
Si Si6 0.590206 0.069824 0.038255
O O1 0.101957 0.250000 0.718281
O O2 0.015207 0.036056 0.668296
O O3 0.253094 0.001613 0.712654
O O4 0.004064 0.997276 0.750927
O O5 0.888429 0.750000 0.031140
O O6 0.956298 0.957472 0.084785
O O7 0.749005 0.007019 0.033787
O O8 0.000000 0.000000 0.000000
O O9 0.931037 0.750000 0.142971
O O10 0.749677 0.530689 0.138769
O O11 0.012961 0.478780 0.167028
O O12 0.416784 0.250000 0.879800
O O13 0.459340 0.985431 0.914920
O O14 0.599290 0.250000 0.285760
O O15 0.587977 0.250000 0.036038
O O16 0.500000 0.000000 0.000000
#
# Coordination Sequence:
#
# PCOD9465895 Si02
#       6
#     8   8   8   8   8   8
#     4  11  23  41  64  86 115 156 195 232 285 351
#     4  10  21  38  60  86 117 153 195 240 287 342
#     4   9  19  38  61  84 114 153 193 234 287 348
#     4   9  20  39  62  86 112 147 194 242 287 341
#     4  12  25  39  59  89 121 150 190 243 288 333
#     4  11  22  37  59  85 117 155 194 239 290 343
#
# _framework density 18.405494999999998
#
# number of rings (size 3 to 8) (size 9 to 14) (size 15 to 20)
#    0.000    1.667    0.000    6.000    0.000    7.333 
#    0.000    1.667    0.000    0.000    0.000    0.000 
#    0.000    0.000    0.000    0.000    0.000    0.000 
#
# Total GULP energy -268294.831155 kJ/mol
# GULP energy per Si atom -5589.475649 kJ/mol
# Density = 1.836360 g / cm^3
# Si number density = 18.405495 Si / 1000 Ang^3
#
#
#
# Elastic Constant Matrix: (Units=GPa)
#
#
# Indices 1 2 3 4 5 6 
#
# 1 117.6391 76.5673 102.2449 0.0000 0.0000 0.0000
# 2 76.5673 127.0316 108.3003 0.0000 0.0000 0.0000
# 3 102.2449 108.3003 160.1908 0.0000 0.0000 0.0000
# 4 0.0000 0.0000 0.0000 37.8344 0.0000 0.0000
# 5 0.0000 0.0000 0.0000 0.0000 37.5466 0.0000
# 6 0.0000 0.0000 0.0000 0.0000 0.0000 30.8015
#
#
#
# Elastic Compliance Matrix: (Units=1/GPa)
#
#
# Indices 1 2 3 4 5 6 
#
# 1 0.019474 -0.002693 -0.010609 0.000000 0.000000 0.000000
# 2 -0.002693 0.018955 -0.011096 0.000000 0.000000 0.000000
# 3 -0.010609 -0.011096 0.020516 0.000000 0.000000 0.000000
# 4 0.000000 0.000000 0.000000 0.026431 0.000000 0.000000
# 5 0.000000 0.000000 0.000000 0.000000 0.026634 0.000000
# 6 0.000000 0.000000 0.000000 0.000000 0.000000 0.032466
#
#
# Mechanical properties :
#
#
# Convention : Reuss Voigt Hill
#
# Bulk Modulus (GPa) = 98.53632 108.78738 103.66185
# Shear Modulus (GPa) = 25.42520 29.08643 27.25581
#
# Velocity S-wave (km/s) = 3.72074 3.97963 3.85236
# Velocity P-wave (km/s) = 8.49183 8.96386 8.73103
#
# Compressibility (1/GPa) = 0.01014854
#
# Stress axis : x y z
#
# Youngs Moduli (GPa) = 51.35001 52.75542 48.74326
#
# Poissons Ratio (x) = 0.14209 0.51711
# Poissons Ratio (y) = 0.13830 0.54086
# Poissons Ratio (z) = 0.54477 0.58538
#
# Static dielectric constant tensor:
#      x y z
#    x 1.597310 0.000000 0.000000 
#    y 0.000000 1.611680 0.000000 
#    z 0.000000 0.000000 1.623920 
# 
# From -- ./inp_files/31999.got.cif
#   From: 2010.05.17/outbox.cif.g08.bks.cpg/sg62_16_cif.got.tgz:31999.got - 2010.06.03 15:25:27.
