data_PCOD9465596
_publ_section_title
;
Structure prediction by ZEFSAII (Michael W. Deem and Ramdas Pophale) SiO2 
 PCOD9465596
Probable space group: P N M A
;
_chemical_formula_sum "Si O2"
_cell_formula_units_Z 32
_cell_length_a 16.540467
_cell_length_b 11.191367
_cell_length_c 8.960212
_cell_angle_alpha 90.000000
_cell_angle_beta 90.000000
_cell_angle_gamma 90.000000
_cell_volume 1658.628755
_symmetry_space_group_name_H-M "P N M A"
_symmetry_group_IT_number 62
_symmetry_cell_setting 'orthorhombic'
loop_
_space_group_symop_operation_xyz
x,y,z
1/2-x,-y,1/2+z
1/2+x,1/2-y,1/2-z
-x,1/2+y,-z
-x,-y,-z
1/2+x,y,1/2-z
1/2-x,1/2+y,1/2+z
x,1/2-y,z
loop_
_atom_site_type_symbol
_atom_site_label
_atom_site_fract_x
_atom_site_fract_y
_atom_site_fract_z
Si Si1 0.904431 0.615711 0.699634
Si Si2 0.058184 0.941526 0.876070
Si Si3 0.636572 0.386056 0.862379
Si Si4 0.828900 0.383063 0.862743
O O1 0.867149 0.750000 0.722555
O O2 0.903742 0.592148 0.522935
O O3 0.861143 0.500509 0.775159
O O4 0.994014 0.622536 0.768829
O O5 0.103692 0.032619 0.768507
O O6 0.126001 0.880206 0.977715
O O7 0.000000 0.000000 0.000000
O O8 0.618755 0.250000 0.819746
O O9 0.732991 0.397972 0.881178
O O10 0.843385 0.250000 0.792660
#
# Coordination Sequence:
#
# PCOD9465596 Si02
#       4
#     8   8   8   8
#     4  10  21  38  60  88 120 157 198 243 293 348
#     4  10  21  36  57  84 115 152 191 235 287 345
#     4  10  21  38  60  86 119 156 198 245 294 347
#     4  10  21  38  60  88 119 155 198 245 294 348
#
# _framework density 19.293044999999999
#
# number of rings (size 3 to 8) (size 9 to 14) (size 15 to 20)
#    0.000    2.000    0.000    3.000    0.000    8.000 
#    0.000    5.000    0.000    0.000    0.000    0.000 
#    0.000    0.000    0.000    0.000    0.000    0.000 
#
# Total GULP energy -178197.883712 kJ/mol
# GULP energy per Si atom -5568.683866 kJ/mol
# Density = 1.924913 g / cm^3
# Si number density = 19.293045 Si / 1000 Ang^3
#
#
#
# Elastic Constant Matrix: (Units=GPa)
#
#
# Indices 1 2 3 4 5 6 
#
# 1 80.9153 49.0644 46.5804 0.0000 0.0000 0.0000
# 2 49.0644 143.8815 77.2657 0.0000 0.0000 0.0000
# 3 46.5804 77.2657 92.4718 0.0000 0.0000 0.0000
# 4 0.0000 0.0000 0.0000 22.2835 0.0000 0.0000
# 5 0.0000 0.0000 0.0000 0.0000 6.8285 0.0000
# 6 0.0000 0.0000 0.0000 0.0000 0.0000 28.8073
#
#
#
# Elastic Compliance Matrix: (Units=1/GPa)
#
#
# Indices 1 2 3 4 5 6 
#
# 1 0.017808 -0.002277 -0.007068 0.000000 0.000000 0.000000
# 2 -0.002277 0.012898 -0.009630 0.000000 0.000000 0.000000
# 3 -0.007068 -0.009630 0.022421 0.000000 0.000000 0.000000
# 4 0.000000 0.000000 0.000000 0.044876 0.000000 0.000000
# 5 0.000000 0.000000 0.000000 0.000000 0.146445 0.000000
# 6 0.000000 0.000000 0.000000 0.000000 0.000000 0.034713
#
#
# Mechanical properties :
#
#
# Convention : Reuss Voigt Hill
#
# Bulk Modulus (GPa) = 65.88869 73.67662 69.78266
# Shear Modulus (GPa) = 15.51976 21.20775 18.36375
#
# Velocity S-wave (km/s) = 2.83931 3.31908 3.08853
# Velocity P-wave (km/s) = 6.70631 7.27733 6.99764
#
# Compressibility (1/GPa) = 0.01517711
#
# Stress axis : x y z
#
# Youngs Moduli (GPa) = 56.15442 77.53040 44.60172
#
# Poissons Ratio (x) = 0.17656 0.31522
# Poissons Ratio (y) = 0.12788 0.42952
# Poissons Ratio (z) = 0.39687 0.74662
#
# Static dielectric constant tensor:
#      x y z
#    x 1.688040 0.000000 0.000000 
#    y 0.000000 1.729820 0.000000 
#    z 0.000000 0.000000 1.605600 
# 
# From -- ./inp_files/5745.got.cif
#   From: 2010.05.17/outbox.cif.g08.bks.cpg/sg62_3_cif.got.tgz:5745.got - 2010.06.03 15:25:27.
