data_PCOD9465991
_publ_section_title
;
Structure prediction by ZEFSAII (Michael W. Deem and Ramdas Pophale) SiO2 
 PCOD9465991
Probable space group: P N M A
;
_chemical_formula_sum "Si O2"
_cell_formula_units_Z 48
_cell_length_a 10.079211
_cell_length_b 14.570347
_cell_length_c 16.709177
_cell_angle_alpha 90.000000
_cell_angle_beta 90.000000
_cell_angle_gamma 90.000000
_cell_volume 2453.869662
_symmetry_space_group_name_H-M "P N M A"
_symmetry_group_IT_number 62
_symmetry_cell_setting 'orthorhombic'
loop_
_space_group_symop_operation_xyz
x,y,z
1/2-x,-y,1/2+z
1/2+x,1/2-y,1/2-z
-x,1/2+y,-z
-x,-y,-z
1/2+x,y,1/2-z
1/2-x,1/2+y,1/2+z
x,1/2-y,z
loop_
_atom_site_type_symbol
_atom_site_label
_atom_site_fract_x
_atom_site_fract_y
_atom_site_fract_z
Si Si1 0.742294 0.040465 0.381823
Si Si2 0.359461 0.035489 0.774748
Si Si3 0.905483 0.858949 0.184574
Si Si4 0.243954 0.351880 0.528487
Si Si5 0.042754 0.357020 0.002938
Si Si6 0.474897 0.569008 0.926432
O O1 0.630300 0.080436 0.439954
O O2 0.878998 0.095249 0.395681
O O3 0.693270 0.036302 0.291310
O O4 0.768561 0.934118 0.407796
O O5 0.484119 0.088477 0.736301
O O6 0.239625 0.104607 0.793312
O O7 0.403409 0.984561 0.854993
O O8 0.916431 0.750000 0.196831
O O9 0.930892 0.878070 0.090467
O O10 0.248480 0.250000 0.565742
O O11 0.385087 0.367095 0.485127
O O12 0.124665 0.358193 0.465281
O O13 0.077137 0.250000 0.015933
O O14 0.500000 0.500000 0.000000
#
# Coordination Sequence:
#
# PCOD9465991 Si02
#       6
#     8   8   8   8   8   8
#     4  11  22  39  64  92 130 166 210 265 321 385
#     4  12  23  39  61  93 125 171 212 262 324 378
#     4  11  23  39  60  92 130 161 207 265 325 387
#     4  10  21  38  64  91 121 163 213 259 313 382
#     4  10  22  40  65  96 125 167 214 263 323 384
#     4  10  23  41  58  90 125 169 216 254 319 383
#
# _framework density 19.560939999999999
#
# number of rings (size 3 to 8) (size 9 to 14) (size 15 to 20)
#    0.000    1.333    3.333    3.000    2.333    1.333 
#    0.000    3.333    0.000    0.000    0.000    0.000 
#    0.000    0.000    0.000    0.000    0.000    0.000 
#
# Total GULP energy -268183.370629 kJ/mol
# GULP energy per Si atom -5587.153555 kJ/mol
# Density = 1.951642 g / cm^3
# Si number density = 19.560940 Si / 1000 Ang^3
#
#
#
# Elastic Constant Matrix: (Units=GPa)
#
#
# Indices 1 2 3 4 5 6 
#
# 1 100.4452 17.1825 25.3149 0.0000 0.0000 0.0000
# 2 17.1825 50.4249 24.8906 0.0000 0.0000 0.0000
# 3 25.3149 24.8906 95.2188 0.0000 0.0000 0.0000
# 4 0.0000 0.0000 0.0000 16.5470 0.0000 0.0000
# 5 0.0000 0.0000 0.0000 0.0000 29.3163 0.0000
# 6 0.0000 0.0000 0.0000 0.0000 0.0000 7.1309
#
#
#
# Elastic Compliance Matrix: (Units=1/GPa)
#
#
# Indices 1 2 3 4 5 6 
#
# 1 0.010968 -0.002639 -0.002226 0.000000 0.000000 0.000000
# 2 -0.002639 0.023404 -0.005416 0.000000 0.000000 0.000000
# 3 -0.002226 -0.005416 0.012510 0.000000 0.000000 0.000000
# 4 0.000000 0.000000 0.000000 0.060434 0.000000 0.000000
# 5 0.000000 0.000000 0.000000 0.000000 0.034111 0.000000
# 6 0.000000 0.000000 0.000000 0.000000 0.000000 0.140235
#
#
# Mechanical properties :
#
#
# Convention : Reuss Voigt Hill
#
# Bulk Modulus (GPa) = 37.99434 42.31831 40.15633
# Shear Modulus (GPa) = 16.07728 22.51223 19.29476
#
# Velocity S-wave (km/s) = 2.87000 3.39614 3.14410
# Velocity P-wave (km/s) = 5.51800 6.08764 5.80981
#
# Compressibility (1/GPa) = 0.02631971
#
# Stress axis : x y z
#
# Youngs Moduli (GPa) = 91.17337 42.72735 79.93667
#
# Poissons Ratio (x) = 0.11274 0.17796
# Poissons Ratio (y) = 0.24056 0.43298
# Poissons Ratio (z) = 0.20298 0.23143
#
# Static dielectric constant tensor:
#      x y z
#    x 1.711910 0.000000 0.000000 
#    y 0.000000 1.659490 0.000000 
#    z 0.000000 0.000000 1.638960 
# 
# From -- ./inp_files/22226.got.cif
#   From: 2010.05.17/outbox.cif.g08.bks.cpg/sg62_12_cif.got.tgz:22226.got - 2010.06.03 15:25:27.
