data_PCOD9465610
_publ_section_title
;
Structure prediction by ZEFSAII (Michael W. Deem and Ramdas Pophale) SiO2 
 PCOD9465610
Probable space group: P N M A
;
_chemical_formula_sum "Si O2"
_cell_formula_units_Z 64
_cell_length_a 33.400058
_cell_length_b 8.546396
_cell_length_c 10.923677
_cell_angle_alpha 90.000000
_cell_angle_beta 90.000000
_cell_angle_gamma 90.000000
_cell_volume 3118.164933
_symmetry_space_group_name_H-M "P N M A"
_symmetry_group_IT_number 62
_symmetry_cell_setting 'orthorhombic'
loop_
_space_group_symop_operation_xyz
x,y,z
1/2-x,-y,1/2+z
1/2+x,1/2-y,1/2-z
-x,1/2+y,-z
-x,-y,-z
1/2+x,y,1/2-z
1/2-x,1/2+y,1/2+z
x,1/2-y,z
loop_
_atom_site_type_symbol
_atom_site_label
_atom_site_fract_x
_atom_site_fract_y
_atom_site_fract_z
Si Si1 0.588760 0.930304 0.343688
Si Si2 0.634997 0.439693 0.576287
Si Si3 0.285564 0.929045 0.531266
Si Si4 0.617208 0.060573 0.851653
Si Si5 0.470400 0.561857 0.106373
Si Si6 0.495566 0.567937 0.638828
Si Si7 0.338590 0.569528 0.775638
Si Si8 0.301213 0.936924 0.027791
O O1 0.576048 0.750000 0.342366
O O2 0.609986 0.974610 0.471720
O O3 0.550978 0.041554 0.329222
O O4 0.622569 0.964674 0.243131
O O5 0.633803 0.250000 0.554650
O O6 0.681913 0.488579 0.568002
O O7 0.616507 0.472446 0.707491
O O8 0.276631 0.750000 0.498987
O O9 0.311863 0.934672 0.654289
O O10 0.243448 0.008885 0.554458
O O11 0.618010 0.250000 0.865282
O O12 0.575796 0.007910 0.913310
O O13 0.659907 0.000811 0.900342
O O14 0.471668 0.750000 0.102383
O O15 0.481959 0.510805 0.245490
O O16 0.500000 0.500000 0.000000
O O17 0.500000 0.500000 0.500000
O O18 0.506326 0.750000 0.634429
O O19 0.351745 0.750000 0.794299
O O20 0.311092 0.523319 0.887821
O O21 0.301183 0.750000 0.042791
#
# Coordination Sequence:
#
# PCOD9465610 Si02
#       8
#     8   8   8   8   8   8   8   8
#     4  11  22  37  61  93 122 153 200 250 303 364
#     4   9  18  37  61  85 121 163 201 245 304 363
#     4   9  19  34  53  82 117 155 193 245 303 350
#     4   9  20  38  61  86 114 156 204 247 295 362
#     4  11  24  43  66  96 131 169 218 268 326 389
#     4  12  25  43  68  97 129 166 210 265 324 384
#     4   9  20  38  57  80 117 157 198 241 298 362
#     4  10  21  36  58  84 111 153 202 241 289 361
#
# _framework density 20.524892000000001
#
# number of rings (size 3 to 8) (size 9 to 14) (size 15 to 20)
#    0.000    2.000    0.000    4.125    3.500    3.500 
#    0.000    2.500    0.000    0.000    0.000    0.000 
#    0.000    0.000    0.000    0.000    0.000    0.000 
#
# Total GULP energy -357049.803449 kJ/mol
# GULP energy per Si atom -5578.903179 kJ/mol
# Density = 2.047818 g / cm^3
# Si number density = 20.524892 Si / 1000 Ang^3
#
#
#
# Elastic Constant Matrix: (Units=GPa)
#
#
# Indices 1 2 3 4 5 6 
#
# 1 115.1381 5.0987 11.7776 0.0000 0.0000 0.0000
# 2 5.0987 37.8940 15.0928 0.0000 0.0000 0.0000
# 3 11.7776 15.0928 42.5340 0.0000 0.0000 0.0000
# 4 0.0000 0.0000 0.0000 23.9888 0.0000 0.0000
# 5 0.0000 0.0000 0.0000 0.0000 19.0647 0.0000
# 6 0.0000 0.0000 0.0000 0.0000 0.0000 32.8728
#
#
#
# Elastic Compliance Matrix: (Units=1/GPa)
#
#
# Indices 1 2 3 4 5 6 
#
# 1 0.008940 -0.000253 -0.002386 0.000000 0.000000 0.000000
# 2 -0.000253 0.030740 -0.010838 0.000000 0.000000 0.000000
# 3 -0.002386 -0.010838 0.028017 0.000000 0.000000 0.000000
# 4 0.000000 0.000000 0.000000 0.041686 0.000000 0.000000
# 5 0.000000 0.000000 0.000000 0.000000 0.052453 0.000000
# 6 0.000000 0.000000 0.000000 0.000000 0.000000 0.030420
#
#
# Mechanical properties :
#
#
# Convention : Reuss Voigt Hill
#
# Bulk Modulus (GPa) = 24.54318 28.83383 26.68850
# Shear Modulus (GPa) = 21.47847 26.09173 23.78510
#
# Velocity S-wave (km/s) = 3.23841 3.56929 3.40787
# Velocity P-wave (km/s) = 5.09576 5.57361 5.34004
#
# Compressibility (1/GPa) = 0.04074452
#
# Stress axis : x y z
#
# Youngs Moduli (GPa) = 111.85093 32.53090 35.69263
#
# Poissons Ratio (x) = 0.00822 0.08516
# Poissons Ratio (y) = 0.02826 0.38683
# Poissons Ratio (z) = 0.26687 0.35257
#
# Static dielectric constant tensor:
#      x y z
#    x 1.742600 0.000000 0.000000 
#    y 0.000000 1.719300 0.000000 
#    z 0.000000 0.000000 1.761200 
# 
# From -- ./inp_files/15783.got.cif
#   From: 2010.05.17/outbox.cif.g08.bks.cpg/sg62_8_cif.got.tgz:15783.got - 2010.06.03 15:25:27.
