data_PCOD9465703
_publ_section_title
;
Structure prediction by ZEFSAII (Michael W. Deem and Ramdas Pophale) SiO2 
 PCOD9465703
Probable space group: P N M A
;
_chemical_formula_sum "Si O2"
_cell_formula_units_Z 64
_cell_length_a 14.912229
_cell_length_b 7.889946
_cell_length_c 25.273284
_cell_angle_alpha 90.000000
_cell_angle_beta 90.000000
_cell_angle_gamma 90.000000
_cell_volume 2973.570727
_symmetry_space_group_name_H-M "P N M A"
_symmetry_group_IT_number 62
_symmetry_cell_setting 'orthorhombic'
loop_
_space_group_symop_operation_xyz
x,y,z
1/2-x,-y,1/2+z
1/2+x,1/2-y,1/2-z
-x,1/2+y,-z
-x,-y,-z
1/2+x,y,1/2-z
1/2-x,1/2+y,1/2+z
x,1/2-y,z
loop_
_atom_site_type_symbol
_atom_site_label
_atom_site_fract_x
_atom_site_fract_y
_atom_site_fract_z
Si Si1 0.322144 0.949939 0.703374
Si Si2 0.950715 0.452064 0.053538
Si Si3 0.848868 0.044735 0.602905
Si Si4 0.530624 0.454106 0.940319
Si Si5 0.230031 0.445719 0.989237
Si Si6 0.487472 0.042839 0.330234
Si Si7 0.725152 0.446018 0.902310
Si Si8 0.286481 0.046792 0.303135
O O1 0.331439 0.750000 0.714524
O O2 0.423784 0.019318 0.699924
O O3 0.260084 0.021853 0.749957
O O4 0.272915 0.967786 0.647056
O O5 0.937714 0.250000 0.055253
O O6 0.854813 0.538930 0.048743
O O7 0.998019 0.502178 0.107845
O O8 0.000000 0.500000 0.000000
O O9 0.844924 0.250000 0.602664
O O10 0.810240 0.984674 0.546284
O O11 0.952698 0.992695 0.601003
O O12 0.783336 0.985622 0.649202
O O13 0.535091 0.250000 0.939782
O O14 0.628023 0.516590 0.921069
O O15 0.500000 0.500000 0.000000
O O16 0.245526 0.250000 0.002412
O O17 0.216639 0.540017 0.044191
O O18 0.487593 0.250000 0.327252
O O19 0.388299 0.983572 0.312685
O O20 0.713968 0.250000 0.887810
O O21 0.295937 0.250000 0.298795
#
# Coordination Sequence:
#
# PCOD9465703 Si02
#       8
#     8   8   8   8   8   8   8   8
#     4  10  22  40  62  86 117 156 197 244 296 353
#     4  11  21  34  55  83 120 158 198 245 299 359
#     4  10  21  37  58  85 117 152 193 243 297 352
#     4  10  21  37  57  85 120 158 196 241 299 360
#     4  11  21  35  57  84 117 154 196 243 297 356
#     4   9  19  37  58  83 116 151 189 239 291 344
#     4  11  23  38  59  87 121 157 197 245 299 359
#     4  10  21  39  63  87 114 153 202 247 291 350
#
# _framework density 21.522945
#
# number of rings (size 3 to 8) (size 9 to 14) (size 15 to 20)
#    0.000    1.750    2.500    1.875    0.000    4.000 
#    0.000    2.500    0.000    0.000    0.000    0.000 
#    0.000    0.000    0.000    0.000    0.000    0.000 
#
# Total GULP energy -357228.563898 kJ/mol
# GULP energy per Si atom -5581.696311 kJ/mol
# Density = 2.147396 g / cm^3
# Si number density = 21.522945 Si / 1000 Ang^3
#
#
#
# Elastic Constant Matrix: (Units=GPa)
#
#
# Indices 1 2 3 4 5 6 
#
# 1 136.2383 7.2201 53.8610 0.0000 0.0000 0.0000
# 2 7.2201 24.4096 1.1418 0.0000 0.0000 0.0000
# 3 53.8610 1.1418 116.1953 0.0000 0.0000 0.0000
# 4 0.0000 0.0000 0.0000 20.2960 0.0000 0.0000
# 5 0.0000 0.0000 0.0000 0.0000 31.5324 0.0000
# 6 0.0000 0.0000 0.0000 0.0000 0.0000 16.4983
#
#
#
# Elastic Compliance Matrix: (Units=1/GPa)
#
#
# Indices 1 2 3 4 5 6 
#
# 1 0.009138 -0.002506 -0.004211 0.000000 0.000000 0.000000
# 2 -0.002506 0.041673 0.000752 0.000000 0.000000 0.000000
# 3 -0.004211 0.000752 0.010551 0.000000 0.000000 0.000000
# 4 0.000000 0.000000 0.000000 0.049271 0.000000 0.000000
# 5 0.000000 0.000000 0.000000 0.000000 0.031713 0.000000
# 6 0.000000 0.000000 0.000000 0.000000 0.000000 0.060612
#
#
# Mechanical properties :
#
#
# Convention : Reuss Voigt Hill
#
# Bulk Modulus (GPa) = 20.22972 44.58767 32.40870
# Shear Modulus (GPa) = 21.61083 27.97337 24.79210
#
# Velocity S-wave (km/s) = 3.17217 3.60905 3.39763
# Velocity P-wave (km/s) = 4.77874 6.17481 5.52108
#
# Compressibility (1/GPa) = 0.04943222
#
# Stress axis : x y z
#
# Youngs Moduli (GPa) = 109.43677 23.99610 94.77959
#
# Poissons Ratio (x) = 0.06013 0.39912
# Poissons Ratio (y) = 0.27423 -0.07128
# Poissons Ratio (z) = 0.46084 -0.01805
#
# Static dielectric constant tensor:
#      x y z
#    x 1.833270 0.000000 0.000000 
#    y 0.000000 1.805990 0.000000 
#    z 0.000000 0.000000 1.754660 
# 
# From -- ./inp_files/29766.got.cif
#   From: 2010.05.17/outbox.cif.g08.bks.cpg/sg62_15_cif.got.tgz:29766.got - 2010.06.03 15:25:27.
