data_PCOD9465760
_publ_section_title
;
Structure prediction by ZEFSAII (Michael W. Deem and Ramdas Pophale) SiO2 
 PCOD9465760
Probable space group: P N M A
;
_chemical_formula_sum "Si O2"
_cell_formula_units_Z 56
_cell_length_a 19.803773
_cell_length_b 22.422595
_cell_length_c 6.265772
_cell_angle_alpha 90.000000
_cell_angle_beta 90.000000
_cell_angle_gamma 90.000000
_cell_volume 2782.328472
_symmetry_space_group_name_H-M "P N M A"
_symmetry_group_IT_number 62
_symmetry_cell_setting 'orthorhombic'
loop_
_space_group_symop_operation_xyz
x,y,z
1/2-x,-y,1/2+z
1/2+x,1/2-y,1/2-z
-x,1/2+y,-z
-x,-y,-z
1/2+x,y,1/2-z
1/2-x,1/2+y,1/2+z
x,1/2-y,z
loop_
_atom_site_type_symbol
_atom_site_label
_atom_site_fract_x
_atom_site_fract_y
_atom_site_fract_z
Si Si1 0.436580 0.081211 0.087759
Si Si2 0.834602 0.036935 0.760120
Si Si3 0.087419 0.471115 0.854865
Si Si4 0.491584 0.862170 0.565813
Si Si5 0.702712 0.426596 0.970885
Si Si6 0.488601 0.686077 0.134245
Si Si7 0.369451 0.683891 0.865801
O O1 0.441179 0.121328 0.302383
O O2 0.449824 0.015738 0.188026
O O3 0.375667 0.071517 0.924048
O O4 0.488154 0.122048 0.955428
O O5 0.775704 0.075529 0.864577
O O6 0.800530 0.981501 0.636106
O O7 0.880568 0.009330 0.949742
O O8 0.146971 0.440989 0.713312
O O9 0.039235 0.422258 0.960991
O O10 0.506758 0.816852 0.379392
O O11 0.430271 0.835758 0.708018
O O12 0.684023 0.367916 0.104099
O O13 0.513742 0.750000 0.040315
O O14 0.408810 0.687126 0.092164
O O15 0.344922 0.750000 0.809843
#
# Coordination Sequence:
#
# PCOD9465760 Si02
#       7
#     8   8   8   8   8   8   8
#     4  10  24  36  57  91 122 157 199 249 302 371
#     4  11  22  38  59  88 120 159 202 253 304 368
#     4  11  21  35  58  89 122 158 194 253 312 365
#     4  11  20  36  60  90 123 156 197 251 311 364
#     4  11  21  38  60  86 119 156 204 249 308 364
#     4  10  21  39  60  84 120 162 199 244 299 363
#     4  10  21  37  59  89 119 151 201 252 298 358
#
# _framework density 20.127026999999998
#
# number of rings (size 3 to 8) (size 9 to 14) (size 15 to 20)
#    0.000    1.429    4.286    1.714    0.000    1.714 
#    0.000    0.714    0.000    0.857    0.000    0.000 
#    0.000    0.000    0.000    0.000    0.000    0.000 
#
# Total GULP energy -311835.317027 kJ/mol
# GULP energy per Si atom -5568.487804 kJ/mol
# Density = 2.008122 g / cm^3
# Si number density = 20.127027 Si / 1000 Ang^3
#
#
#
# Elastic Constant Matrix: (Units=GPa)
#
#
# Indices 1 2 3 4 5 6 
#
# 1 32.8659 25.6945 4.0335 0.0000 0.0000 0.0000
# 2 25.6945 81.3796 2.0200 0.0000 0.0000 0.0000
# 3 4.0335 2.0200 65.8537 0.0000 0.0000 0.0000
# 4 0.0000 0.0000 0.0000 22.0166 0.0000 0.0000
# 5 0.0000 0.0000 0.0000 0.0000 28.5486 0.0000
# 6 0.0000 0.0000 0.0000 0.0000 0.0000 12.2554
#
#
#
# Elastic Compliance Matrix: (Units=1/GPa)
#
#
# Indices 1 2 3 4 5 6 
#
# 1 0.040687 -0.012794 -0.002100 0.000000 0.000000 0.000000
# 2 -0.012794 0.016321 0.000283 0.000000 0.000000 0.000000
# 3 -0.002100 0.000283 0.015305 0.000000 0.000000 0.000000
# 4 0.000000 0.000000 0.000000 0.045420 0.000000 0.000000
# 5 0.000000 0.000000 0.000000 0.000000 0.035028 0.000000
# 6 0.000000 0.000000 0.000000 0.000000 0.000000 0.081596
#
#
# Mechanical properties :
#
#
# Convention : Reuss Voigt Hill
#
# Bulk Modulus (GPa) = 23.20670 27.06614 25.13642
# Shear Modulus (GPa) = 17.98934 22.45422 20.22178
#
# Velocity S-wave (km/s) = 2.99288 3.34372 3.17315
# Velocity P-wave (km/s) = 4.84750 5.32768 5.09325
#
# Compressibility (1/GPa) = 0.04309100
#
# Stress axis : x y z
#
# Youngs Moduli (GPa) = 24.57802 61.27209 65.33771
#
# Poissons Ratio (x) = 0.78392 0.13718
# Poissons Ratio (y) = 0.31446 -0.01849
# Poissons Ratio (z) = 0.05160 -0.01734
#
# Static dielectric constant tensor:
#      x y z
#    x 1.712090 0.000000 0.000000 
#    y 0.000000 1.732330 0.000000 
#    z 0.000000 0.000000 1.818900 
# 
# From -- ./inp_files/2827.got.cif
#   From: 2010.05.17/outbox.cif.g08.bks.cpg/sg62_2_cif.got.tgz:2827.got - 2010.06.03 15:25:27.
