data_PCOD9465412
_publ_section_title
;
Structure prediction by ZEFSAII (Michael W. Deem and Ramdas Pophale) SiO2 
 PCOD9465412
Probable space group: P N M A
;
_chemical_formula_sum "Si O2"
_cell_formula_units_Z 60
_cell_length_a 7.911968
_cell_length_b 25.009595
_cell_length_c 12.159307
_cell_angle_alpha 90.000000
_cell_angle_beta 90.000000
_cell_angle_gamma 90.000000
_cell_volume 2406.024275
_symmetry_space_group_name_H-M "P N M A"
_symmetry_group_IT_number 62
_symmetry_cell_setting 'orthorhombic'
loop_
_space_group_symop_operation_xyz
x,y,z
1/2-x,-y,1/2+z
1/2+x,1/2-y,1/2-z
-x,1/2+y,-z
-x,-y,-z
1/2+x,y,1/2-z
1/2-x,1/2+y,1/2+z
x,1/2-y,z
loop_
_atom_site_type_symbol
_atom_site_label
_atom_site_fract_x
_atom_site_fract_y
_atom_site_fract_z
Si Si1 0.014900 0.687643 0.095193
Si Si2 0.530471 0.583228 0.297085
Si Si3 0.143596 0.159109 0.461803
Si Si4 0.331202 0.507966 0.425787
Si Si5 0.689787 0.147207 0.389136
Si Si6 0.119774 0.750000 0.615703
Si Si7 0.382718 0.552453 0.085693
Si Si8 0.146270 0.596867 0.787222
O O1 0.984288 0.750000 0.119663
O O2 0.021982 0.647651 0.199632
O O3 0.870349 0.665992 0.010748
O O4 0.194268 0.681606 0.030503
O O5 0.372077 0.564275 0.371636
O O6 0.511991 0.549561 0.185816
O O7 0.702737 0.566841 0.356099
O O8 0.004880 0.203129 0.435156
O O9 0.072963 0.107953 0.526462
O O10 0.218684 0.133315 0.351486
O O11 0.500000 0.500000 0.500000
O O12 0.172645 0.494864 0.503585
O O13 0.331502 0.462974 0.330908
O O14 0.827997 0.104899 0.342509
O O15 0.524969 0.119650 0.337753
O O16 0.751584 0.203187 0.339217
#
# Coordination Sequence:
#
# PCOD9465412 Si02
#       8
#     8   8   8   8   8   4   8   8
#     4  10  20  42  59  88 126 171 209 258 318 374
#     4  10  21  38  68  93 126 165 214 265 316 387
#     4   9  20  39  62  80 123 165 207 254 309 368
#     4   9  19  40  66  89 124 168 209 258 323 380
#     4  11  23  37  57  90 126 166 208 255 311 375
#     4  12  22  36  58  86 120 164 210 250 302 370
#     4   9  20  40  61  95 123 161 209 264 320 373
#     4  10  22  38  58  89 127 167 204 257 314 376
#
# _framework density 24.937404000000001
#
# number of rings (size 3 to 8) (size 9 to 14) (size 15 to 20)
#    0.000    2.133    1.333    3.200    0.000    6.400 
#    1.200    0.667    0.000    0.000    0.000    2.800 
#    0.000    0.000    0.000    0.000    0.000    0.000 
#
# Total GULP energy -334045.695838 kJ/mol
# GULP energy per Si atom -5567.428264 kJ/mol
# Density = 2.488065 g / cm^3
# Si number density = 24.937404 Si / 1000 Ang^3
#
#
#
# Elastic Constant Matrix: (Units=GPa)
#
#
# Indices 1 2 3 4 5 6 
#
# 1 82.3082 11.9984 3.6007 0.0000 0.0000 0.0000
# 2 11.9984 116.9764 23.4655 0.0000 0.0000 0.0000
# 3 3.6007 23.4655 56.8643 0.0000 0.0000 0.0000
# 4 0.0000 0.0000 0.0000 29.5092 0.0000 0.0000
# 5 0.0000 0.0000 0.0000 0.0000 29.4435 0.0000
# 6 0.0000 0.0000 0.0000 0.0000 0.0000 37.0983
#
#
#
# Elastic Compliance Matrix: (Units=1/GPa)
#
#
# Indices 1 2 3 4 5 6 
#
# 1 0.012338 -0.001209 -0.000282 0.000000 0.000000 0.000000
# 2 -0.001209 0.009439 -0.003818 0.000000 0.000000 0.000000
# 3 -0.000282 -0.003818 0.019179 0.000000 0.000000 0.000000
# 4 0.000000 0.000000 0.000000 0.033888 0.000000 0.000000
# 5 0.000000 0.000000 0.000000 0.000000 0.033963 0.000000
# 6 0.000000 0.000000 0.000000 0.000000 0.000000 0.026955
#
#
# Mechanical properties :
#
#
# Convention : Reuss Voigt Hill
#
# Bulk Modulus (GPa) = 32.96341 37.14202 35.05271
# Shear Modulus (GPa) = 31.95007 33.68248 32.81628
#
# Velocity S-wave (km/s) = 3.58328 3.67915 3.63153
# Velocity P-wave (km/s) = 5.51063 5.74235 5.62768
#
# Compressibility (1/GPa) = 0.03033667
#
# Stress axis : x y z
#
# Youngs Moduli (GPa) = 81.05019 105.94676 52.13948
#
# Poissons Ratio (x) = 0.12808 0.01472
# Poissons Ratio (y) = 0.09798 0.19909
# Poissons Ratio (z) = 0.02289 0.40455
#
# Static dielectric constant tensor:
#      x y z
#    x 2.126000 0.000000 0.000000 
#    y 0.000000 1.895480 0.000000 
#    z 0.000000 0.000000 2.077880 
# 
# From -- ./inp_files/11438.got.cif
#   From: 2010.05.17/outbox.cif.g08.bks.cpg/sg62_6_cif.got.tgz:11438.got - 2010.06.03 15:25:27.
