data_PCOD9465328
_publ_section_title
;
Structure prediction by ZEFSAII (Michael W. Deem and Ramdas Pophale) SiO2 
 PCOD9465328
Probable space group: P N M A
;
_chemical_formula_sum "Si O2"
_cell_formula_units_Z 48
_cell_length_a 10.174719
_cell_length_b 14.079770
_cell_length_c 16.061164
_cell_angle_alpha 90.000000
_cell_angle_beta 90.000000
_cell_angle_gamma 90.000000
_cell_volume 2300.885468
_symmetry_space_group_name_H-M "P N M A"
_symmetry_group_IT_number 62
_symmetry_cell_setting 'orthorhombic'
loop_
_space_group_symop_operation_xyz
x,y,z
1/2-x,-y,1/2+z
1/2+x,1/2-y,1/2-z
-x,1/2+y,-z
-x,-y,-z
1/2+x,y,1/2-z
1/2-x,1/2+y,1/2+z
x,1/2-y,z
loop_
_atom_site_type_symbol
_atom_site_label
_atom_site_fract_x
_atom_site_fract_y
_atom_site_fract_z
Si Si1 0.605449 0.543770 0.563004
Si Si2 0.923612 0.250000 0.141604
Si Si3 0.470275 0.093415 0.119197
Si Si4 0.135219 0.250000 0.289156
Si Si5 0.359430 0.968979 0.250803
Si Si6 0.357148 0.427700 0.955363
Si Si7 0.884298 0.144935 0.718108
O O1 0.500000 0.500000 0.500000
O O2 0.586407 0.655581 0.583468
O O3 0.606962 0.497661 0.655079
O O4 0.743003 0.504178 0.526457
O O5 0.793332 0.250000 0.201985
O O6 0.055165 0.250000 0.200794
O O7 0.580697 0.159683 0.158718
O O8 0.376967 0.060962 0.193479
O O9 0.531404 0.996142 0.083545
O O10 0.395736 0.129320 0.037771
O O11 0.466270 0.889329 0.226724
O O12 0.213164 0.930091 0.239895
O O13 0.334576 0.358623 0.877635
O O14 0.869008 0.250000 0.752399
#
# Coordination Sequence:
#
# PCOD9465328 Si02
#       7
#     8   4   8   4   8   8   8
#     4  11  24  44  64  94 140 171 219 280 337 411
#     4  12  26  46  70 110 131 181 228 284 355 409
#     4  10  20  39  66  94 124 172 210 270 332 393
#     4  12  24  40  76 102 139 163 236 288 329 421
#     4  10  22  39  65  88 127 167 211 269 333 385
#     4   9  21  39  62  91 130 168 213 266 334 387
#     4  10  21  39  60  89 125 166 220 265 315 400
#
# _framework density 20.861533000000001
#
# number of rings (size 3 to 8) (size 9 to 14) (size 15 to 20)
#    0.000    1.667    3.333    0.500    3.500    1.333 
#    7.500    0.000    0.000    0.000    0.000    0.000 
#    0.000    0.000    0.000    0.000    0.000    0.000 
#
# Total GULP energy -267480.739786 kJ/mol
# GULP energy per Si atom -5572.515412 kJ/mol
# Density = 2.081405 g / cm^3
# Si number density = 20.861533 Si / 1000 Ang^3
#
#
#
# Elastic Constant Matrix: (Units=GPa)
#
#
# Indices 1 2 3 4 5 6 
#
# 1 53.7774 -5.9144 4.0532 0.0000 0.0000 0.0000
# 2 -5.9144 82.0610 5.4641 0.0000 0.0000 0.0000
# 3 4.0532 5.4641 42.9938 0.0000 0.0000 0.0000
# 4 0.0000 0.0000 0.0000 16.8690 0.0000 0.0000
# 5 0.0000 0.0000 0.0000 0.0000 29.5327 0.0000
# 6 0.0000 0.0000 0.0000 0.0000 0.0000 23.6446
#
#
#
# Elastic Compliance Matrix: (Units=1/GPa)
#
#
# Indices 1 2 3 4 5 6 
#
# 1 0.018908 0.001494 -0.001972 0.000000 0.000000 0.000000
# 2 0.001494 0.012408 -0.001718 0.000000 0.000000 0.000000
# 3 -0.001972 -0.001718 0.023663 0.000000 0.000000 0.000000
# 4 0.000000 0.000000 0.000000 0.059280 0.000000 0.000000
# 5 0.000000 0.000000 0.000000 0.000000 0.033861 0.000000
# 6 0.000000 0.000000 0.000000 0.000000 0.000000 0.042293
#
#
# Mechanical properties :
#
#
# Convention : Reuss Voigt Hill
#
# Bulk Modulus (GPa) = 19.76774 20.67087 20.21930
# Shear Modulus (GPa) = 23.62185 25.69122 24.65654
#
# Velocity S-wave (km/s) = 3.36864 3.51310 3.44163
# Velocity P-wave (km/s) = 4.96252 5.13672 5.05037
#
# Compressibility (1/GPa) = 0.05058748
#
# Stress axis : x y z
#
# Youngs Moduli (GPa) = 52.88726 80.59237 42.25934
#
# Poissons Ratio (x) = -0.12041 0.08335
# Poissons Ratio (y) = -0.07902 0.07259
# Poissons Ratio (z) = 0.10432 0.13844
#
# Static dielectric constant tensor:
#      x y z
#    x 1.799320 0.000000 0.000000 
#    y 0.000000 1.784970 0.000000 
#    z 0.000000 0.000000 1.811110 
# 
# From -- ./inp_files/18026.got.cif
#   From: 2010.05.17/outbox.cif.g08.bks.cpg/sg62_10_cif.got.tgz:18026.got - 2010.06.03 15:25:27.
