data_PCOD9465730
_publ_section_title
;
Structure prediction by ZEFSAII (Michael W. Deem and Ramdas Pophale) SiO2 
 PCOD9465730
Probable space group: P N M A
;
_chemical_formula_sum "Si O2"
_cell_formula_units_Z 56
_cell_length_a 23.506047
_cell_length_b 13.575790
_cell_length_c 9.596826
_cell_angle_alpha 90.000000
_cell_angle_beta 90.000000
_cell_angle_gamma 90.000000
_cell_volume 3062.473450
_symmetry_space_group_name_H-M "P N M A"
_symmetry_group_IT_number 62
_symmetry_cell_setting 'orthorhombic'
loop_
_space_group_symop_operation_xyz
x,y,z
1/2-x,-y,1/2+z
1/2+x,1/2-y,1/2-z
-x,1/2+y,-z
-x,-y,-z
1/2+x,y,1/2-z
1/2-x,1/2+y,1/2+z
x,1/2-y,z
loop_
_atom_site_type_symbol
_atom_site_label
_atom_site_fract_x
_atom_site_fract_y
_atom_site_fract_z
Si Si1 0.186636 0.862798 0.799979
Si Si2 0.234356 0.951349 0.329982
Si Si3 0.579403 0.363618 0.793571
Si Si4 0.369601 0.041462 0.042582
Si Si5 0.851969 0.431551 0.900905
Si Si6 0.842698 0.860729 0.025591
Si Si7 0.447100 0.132604 0.809528
O O1 0.205917 0.750000 0.793406
O O2 0.236358 0.944554 0.792810
O O3 0.145142 0.887120 0.671380
O O4 0.155883 0.884252 0.947449
O O5 0.186344 0.965803 0.446892
O O6 0.202230 0.906954 0.196496
O O7 0.283959 0.883283 0.392487
O O8 0.583561 0.250000 0.840049
O O9 0.613289 0.437180 0.892700
O O10 0.607783 0.368830 0.641227
O O11 0.513174 0.392437 0.790068
O O12 0.419540 0.081857 0.944512
O O13 0.908373 0.398428 0.821492
O O14 0.851002 0.549890 0.919219
O O15 0.841985 0.750000 0.968179
O O16 0.442510 0.250000 0.825339
#
# Coordination Sequence:
#
# PCOD9465730 Si02
#       7
#     8   8   8   8   8   8   8
#     4  11  21  34  55  84 116 147 187 236 287 339
#     4  10  22  36  55  82 116 152 186 233 286 347
#     4  10  21  39  62  85 113 154 195 235 287 342
#     4  11  21  39  58  85 117 149 193 238 286 334
#     4  10  21  38  57  84 115 148 196 237 283 343
#     4  10  21  37  58  85 117 153 190 235 290 341
#     4  10  22  39  61  85 114 153 194 235 289 344
#
# _framework density 18.285872999999999
#
# number of rings (size 3 to 8) (size 9 to 14) (size 15 to 20)
#    0.000    1.714    2.857    3.000    0.000    6.286 
#    0.000    2.143    0.000    0.857    0.000    0.000 
#    0.000    0.000    0.000    0.000    0.000    0.000 
#
# Total GULP energy -312697.542883 kJ/mol
# GULP energy per Si atom -5583.884694 kJ/mol
# Density = 1.824425 g / cm^3
# Si number density = 18.285873 Si / 1000 Ang^3
#
#
#
# Elastic Constant Matrix: (Units=GPa)
#
#
# Indices 1 2 3 4 5 6 
#
# 1 40.0297 -4.8852 14.0598 0.0000 0.0000 0.0000
# 2 -4.8852 39.2000 -16.9930 0.0000 0.0000 0.0000
# 3 14.0598 -16.9930 51.3925 0.0000 0.0000 0.0000
# 4 0.0000 0.0000 0.0000 13.6417 0.0000 0.0000
# 5 0.0000 0.0000 0.0000 0.0000 14.7204 0.0000
# 6 0.0000 0.0000 0.0000 0.0000 0.0000 -12.3770
#
#
#
# Elastic Compliance Matrix: (Units=1/GPa)
#
#
# Indices 1 2 3 4 5 6 
#
# 1 0.027638 0.000195 -0.007497 0.000000 0.000000 0.000000
# 2 0.000195 0.029780 0.009794 0.000000 0.000000 0.000000
# 3 -0.007497 0.009794 0.024747 0.000000 0.000000 0.000000
# 4 0.000000 0.000000 0.000000 0.073305 0.000000 0.000000
# 5 0.000000 0.000000 0.000000 0.000000 0.067933 0.000000
# 6 0.000000 0.000000 0.000000 0.000000 0.000000 -0.080795
#
#
# Mechanical properties :
#
#
# Convention : Reuss Voigt Hill
#
# Bulk Modulus (GPa) = 11.47476 12.77616 12.12546
# Shear Modulus (GPa) = 29.99851 12.42640 21.21245
#
# Velocity S-wave (km/s) = 4.05474 2.60967 3.40964
# Velocity P-wave (km/s) = 5.31131 4.01031 4.70599
#
# Compressibility (1/GPa) = 0.08714779
#
# Stress axis : x y z
#
# Youngs Moduli (GPa) = 36.18165 33.57975 40.40848
#
# Poissons Ratio (x) = -0.00653 0.30294
# Poissons Ratio (y) = -0.00704 -0.39574
# Poissons Ratio (z) = 0.27125 -0.32886
#
# Static dielectric constant tensor:
#      x y z
#    x 1.614110 0.000000 0.000000 
#    y 0.000000 1.621660 0.000000 
#    z 0.000000 0.000000 1.622320 
# 
# From -- ./inp_files/8699.got.cif
#   From: 2010.05.17/outbox.cif.g08.bks.cpg/sg62_5_cif.got.tgz:8699.got - 2010.06.03 15:25:27.
