data_PCOD9465558
_publ_section_title
;
Structure prediction by ZEFSAII (Michael W. Deem and Ramdas Pophale) SiO2 
 PCOD9465558
Probable space group: P N M A
;
_chemical_formula_sum "Si O2"
_cell_formula_units_Z 48
_cell_length_a 15.516274
_cell_length_b 8.936845
_cell_length_c 19.400397
_cell_angle_alpha 90.000000
_cell_angle_beta 90.000000
_cell_angle_gamma 90.000000
_cell_volume 2690.185843
_symmetry_space_group_name_H-M "P N M A"
_symmetry_group_IT_number 62
_symmetry_cell_setting 'orthorhombic'
loop_
_space_group_symop_operation_xyz
x,y,z
1/2-x,-y,1/2+z
1/2+x,1/2-y,1/2-z
-x,1/2+y,-z
-x,-y,-z
1/2+x,y,1/2-z
1/2-x,1/2+y,1/2+z
x,1/2-y,z
loop_
_atom_site_type_symbol
_atom_site_label
_atom_site_fract_x
_atom_site_fract_y
_atom_site_fract_z
Si Si1 0.840934 0.430042 0.328327
Si Si2 0.997828 0.929193 0.075558
Si Si3 0.999919 0.069684 0.424790
Si Si4 0.344330 0.070889 0.674469
Si Si5 0.148232 0.928932 0.830926
Si Si6 0.847774 0.929858 0.677152
O O1 0.829793 0.250000 0.330324
O O2 0.915203 0.473572 0.381404
O O3 0.749589 0.505852 0.343406
O O4 0.867766 0.466891 0.249592
O O5 0.995445 0.750000 0.070171
O O6 0.083107 0.971708 0.119141
O O7 0.915798 0.986804 0.118556
O O8 0.000000 0.000000 0.000000
O O9 0.000369 0.250000 0.430104
O O10 0.083790 0.025476 0.380557
O O11 0.000000 0.000000 0.500000
O O12 0.340060 0.250000 0.678059
O O13 0.366982 0.005941 0.749731
O O14 0.136614 0.750000 0.839042
O O15 0.249102 0.964140 0.843174
O O16 0.853071 0.750000 0.686844
#
# Coordination Sequence:
#
# PCOD9465558 Si02
#       6
#     8   8   8   8   8   8
#     4   9  19  36  58  82 107 140 179 216 262 319
#     4  11  24  38  53  77 109 144 179 218 267 318
#     4  10  21  36  54  79 111 145 179 215 260 315
#     4  10  21  36  56  82 107 134 176 226 268 309
#     4   9  18  35  59  82 104 135 177 221 263 313
#     4   9  19  37  59  80 106 142 178 214 263 320
#
# _framework density 17.842634
#
# number of rings (size 3 to 8) (size 9 to 14) (size 15 to 20)
#    0.000    2.333    0.000    3.000    0.000    9.333 
#    0.000    5.000    0.000    0.000    0.000    0.000 
#    0.000    0.000    0.000    0.000    0.000    0.000 
#
# Total GULP energy -267994.121856 kJ/mol
# GULP energy per Si atom -5583.210872 kJ/mol
# Density = 1.780202 g / cm^3
# Si number density = 17.842634 Si / 1000 Ang^3
#
#
#
# Elastic Constant Matrix: (Units=GPa)
#
#
# Indices 1 2 3 4 5 6 
#
# 1 146.3748 56.5816 139.8847 0.0000 0.0000 0.0000
# 2 56.5816 33.8355 60.1371 0.0000 0.0000 0.0000
# 3 139.8847 60.1371 177.5511 0.0000 0.0000 0.0000
# 4 0.0000 0.0000 0.0000 35.6359 0.0000 0.0000
# 5 0.0000 0.0000 0.0000 0.0000 -4.5799 0.0000
# 6 0.0000 0.0000 0.0000 0.0000 0.0000 29.9840
#
#
#
# Elastic Compliance Matrix: (Units=1/GPa)
#
#
# Indices 1 2 3 4 5 6 
#
# 1 0.033470 -0.022871 -0.018623 0.000000 0.000000 0.000000
# 2 -0.022871 0.089884 -0.012425 0.000000 0.000000 0.000000
# 3 -0.018623 -0.012425 0.024513 0.000000 0.000000 0.000000
# 4 0.000000 0.000000 0.000000 0.028062 0.000000 0.000000
# 5 0.000000 0.000000 0.000000 0.000000 -0.218346 0.000000
# 6 0.000000 0.000000 0.000000 0.000000 0.000000 0.033351
#
#
# Mechanical properties :
#
#
# Convention : Reuss Voigt Hill
#
# Bulk Modulus (GPa) = 24.98186 96.77422 60.87804
# Shear Modulus (GPa) = 44.59729 18.95188 31.77458
#
# Velocity S-wave (km/s) = 5.00490 3.26263 4.22456
# Velocity P-wave (km/s) = 6.88697 8.27939 7.61507
#
# Compressibility (1/GPa) = 0.04002905
#
# Stress axis : x y z
#
# Youngs Moduli (GPa) = 29.87774 11.12543 40.79484
#
# Poissons Ratio (x) = 0.25445 0.75972
# Poissons Ratio (y) = 0.68332 0.50689
# Poissons Ratio (z) = 0.55641 0.13824
#
# Static dielectric constant tensor:
#      x y z
#    x 1.602400 0.000000 0.000000 
#    y 0.000000 1.599610 0.000000 
#    z 0.000000 0.000000 1.575530 
# 
# From -- ./inp_files/23715.got.cif
#   From: 2010.05.17/outbox.cif.g08.bks.cpg/sg62_12_cif.got.tgz:23715.got - 2010.06.03 15:25:27.
