data_PCOD9465344
_publ_section_title
;
Structure prediction by ZEFSAII (Michael W. Deem and Ramdas Pophale) SiO2 
 PCOD9465344
Probable space group: P N M A
;
_chemical_formula_sum "Si O2"
_cell_formula_units_Z 48
_cell_length_a 10.099304
_cell_length_b 12.226059
_cell_length_c 17.196081
_cell_angle_alpha 90.000000
_cell_angle_beta 90.000000
_cell_angle_gamma 90.000000
_cell_volume 2123.280712
_symmetry_space_group_name_H-M "P N M A"
_symmetry_group_IT_number 62
_symmetry_cell_setting 'orthorhombic'
loop_
_space_group_symop_operation_xyz
x,y,z
1/2-x,-y,1/2+z
1/2+x,1/2-y,1/2-z
-x,1/2+y,-z
-x,-y,-z
1/2+x,y,1/2-z
1/2-x,1/2+y,1/2+z
x,1/2-y,z
loop_
_atom_site_type_symbol
_atom_site_label
_atom_site_fract_x
_atom_site_fract_y
_atom_site_fract_z
Si Si1 0.154716 0.019287 0.399453
Si Si2 0.769289 0.250000 0.154571
Si Si3 0.802090 0.877653 0.222457
Si Si4 0.480849 0.750000 0.741841
Si Si5 0.681665 0.073670 0.459154
Si Si6 0.980247 0.365702 0.913134
Si Si7 0.616816 0.561796 0.841338
O O1 0.223799 0.137776 0.386501
O O2 0.217140 0.965371 0.474749
O O3 0.998271 0.031347 0.401541
O O4 0.188979 0.940952 0.326072
O O5 0.929566 0.250000 0.163475
O O6 0.675013 0.250000 0.233792
O O7 0.771873 0.750000 0.239121
O O8 0.925898 0.877859 0.162059
O O9 0.834963 0.954470 0.295415
O O10 0.542407 0.642661 0.782611
O O11 0.611567 0.968741 0.422083
O O12 0.571845 0.134871 0.509578
O O13 0.765214 0.120604 0.387934
O O14 0.908177 0.250000 0.907961
#
# Coordination Sequence:
#
# PCOD9465344 Si02
#       7
#     8   4   8   4   8   8   8
#     4  10  22  41  61  89 124 159 205 256 309 366
#     4  10  20  40  62  90 126 159 205 258 316 369
#     4  10  22  40  63  88 124 165 208 250 305 367
#     4  10  22  38  62  94 120 163 205 260 314 371
#     4  10  22  39  63  91 120 161 202 248 308 366
#     4   9  21  41  61  89 125 162 203 250 300 368
#     4  11  23  39  63  91 123 160 205 258 308 367
#
# _framework density 22.606525999999999
#
# number of rings (size 3 to 8) (size 9 to 14) (size 15 to 20)
#    0.000    2.000    1.667    0.500    4.667    1.333 
#    3.000    0.000    0.000    0.000    0.000    0.000 
#    0.000    0.000    0.000    0.000    0.000    0.000 
#
# Total GULP energy -267965.806247 kJ/mol
# GULP energy per Si atom -5582.620963 kJ/mol
# Density = 2.255507 g / cm^3
# Si number density = 22.606526 Si / 1000 Ang^3
#
#
#
# Elastic Constant Matrix: (Units=GPa)
#
#
# Indices 1 2 3 4 5 6 
#
# 1 32.9261 -4.2029 -2.3279 0.0000 0.0000 0.0000
# 2 -4.2029 114.9884 17.5580 0.0000 0.0000 0.0000
# 3 -2.3279 17.5580 50.1900 0.0000 0.0000 0.0000
# 4 0.0000 0.0000 0.0000-1045.5096 0.0000 0.0000
# 5 0.0000 0.0000 0.0000 0.0000 5.9826 0.0000
# 6 0.0000 0.0000 0.0000 0.0000 0.0000 -10.9087
#
#
#
# Elastic Compliance Matrix: (Units=1/GPa)
#
#
# Indices 1 2 3 4 5 6 
#
# 1 0.030569 0.000952 0.001085 0.000000 0.000000 0.000000
# 2 0.000952 0.009217 -0.003180 0.000000 0.000000 0.000000
# 3 0.001085 -0.003180 0.021087 0.000000 0.000000 0.000000
# 4 0.000000 0.000000 0.000000 -0.000956 0.000000 0.000000
# 5 0.000000 0.000000 0.000000 0.000000 0.167153 0.000000
# 6 0.000000 0.000000 0.000000 0.000000 0.000000 -0.091670
#
#
# Mechanical properties :
#
#
# Convention : Reuss Voigt Hill
#
# Bulk Modulus (GPa) = 17.06891 24.46209 20.76550
# Shear Modulus (GPa) = 31.80349 -197.61533 -82.90592
#
# Velocity S-wave (km/s) = 3.75484 -9.35975 -6.06243
# Velocity P-wave (km/s) = 5.13471 10.29380 6.30861
#
# Compressibility (1/GPa) = 0.05858603
#
# Stress axis : x y z
#
# Youngs Moduli (GPa) = 32.71266 108.49626 47.42226
#
# Poissons Ratio (x) = -0.10325 -0.05145
# Poissons Ratio (y) = -0.03113 0.15081
# Poissons Ratio (z) = -0.03549 0.34504
#
# Static dielectric constant tensor:
#      x y z
#    x 1.863920 0.000000 0.000000 
#    y 0.000000 1.801550 0.000000 
#    z 0.000000 0.000000 1.865660 
# 
# From -- ./inp_files/23054.got.cif
#   From: 2010.05.17/outbox.cif.g08.bks.cpg/sg62_12_cif.got.tgz:23054.got - 2010.06.03 15:25:27.
