data_PCOD9465368
_publ_section_title
;
Structure prediction by ZEFSAII (Michael W. Deem and Ramdas Pophale) SiO2 
 PCOD9465368
Probable space group: P N M A
;
_chemical_formula_sum "Si O2"
_cell_formula_units_Z 48
_cell_length_a 9.589477
_cell_length_b 8.761464
_cell_length_c 28.884935
_cell_angle_alpha 90.000000
_cell_angle_beta 90.000000
_cell_angle_gamma 90.000000
_cell_volume 2426.850353
_symmetry_space_group_name_H-M "P N M A"
_symmetry_group_IT_number 62
_symmetry_cell_setting 'orthorhombic'
loop_
_space_group_symop_operation_xyz
x,y,z
1/2-x,-y,1/2+z
1/2+x,1/2-y,1/2-z
-x,1/2+y,-z
-x,-y,-z
1/2+x,y,1/2-z
1/2-x,1/2+y,1/2+z
x,1/2-y,z
loop_
_atom_site_type_symbol
_atom_site_label
_atom_site_fract_x
_atom_site_fract_y
_atom_site_fract_z
Si Si1 0.993090 0.067355 0.637312
Si Si2 0.516952 0.064970 0.694204
Si Si3 0.702627 0.435463 0.780840
Si Si4 0.642201 0.071437 0.517531
Si Si5 0.911194 0.071128 0.458439
Si Si6 0.801869 0.431463 0.116907
O O1 0.976856 0.250000 0.639372
O O2 0.097951 0.019231 0.677974
O O3 0.840549 0.993476 0.639735
O O4 0.058233 0.017787 0.588458
O O5 0.517244 0.250000 0.691514
O O6 0.361549 0.015635 0.709665
O O7 0.630445 0.017238 0.732892
O O8 0.568014 0.997874 0.645630
O O9 0.706076 0.250000 0.780159
O O10 0.625894 0.250000 0.528537
O O11 0.753769 0.058438 0.476343
O O12 0.500000 0.000000 0.500000
O O13 0.694125 0.989161 0.564043
O O14 0.946303 0.250000 0.452305
O O15 0.000000 0.000000 0.500000
O O16 0.804024 0.250000 0.117828
#
# Coordination Sequence:
#
# PCOD9465368 Si02
#       6
#     8   8   8   8   8   8
#     4  11  22  39  64  94 125 163 209 258 310 367
#     4  10  20  40  66  93 123 159 204 255 309 371
#     4   9  20  38  66  97 123 157 203 253 308 373
#     4  11  25  43  64  91 126 166 209 257 310 367
#     4  11  23  40  63  92 125 166 211 255 306 365
#     4  12  25  41  61  90 125 166 210 257 312 370
#
# _framework density 19.778721999999998
#
# number of rings (size 3 to 8) (size 9 to 14) (size 15 to 20)
#    0.000    1.333    1.667    4.000    2.333    4.667 
#    0.000    5.000    0.000    0.000    0.000    0.000 
#    0.000    0.000    0.000    0.000    0.000    0.000 
#
# Total GULP energy -268365.874581 kJ/mol
# GULP energy per Si atom -5590.955720 kJ/mol
# Density = 1.973371 g / cm^3
# Si number density = 19.778722 Si / 1000 Ang^3
#
#
#
# Elastic Constant Matrix: (Units=GPa)
#
#
# Indices 1 2 3 4 5 6 
#
# 1 111.9841 36.4925 12.1444 0.0000 0.0000 0.0000
# 2 36.4925 70.1095 6.7323 0.0000 0.0000 0.0000
# 3 12.1444 6.7323 64.4472 0.0000 0.0000 0.0000
# 4 0.0000 0.0000 0.0000 23.1139 0.0000 0.0000
# 5 0.0000 0.0000 0.0000 0.0000 34.6753 0.0000
# 6 0.0000 0.0000 0.0000 0.0000 0.0000 25.5308
#
#
#
# Elastic Compliance Matrix: (Units=1/GPa)
#
#
# Indices 1 2 3 4 5 6 
#
# 1 0.010891 -0.005527 -0.001475 0.000000 0.000000 0.000000
# 2 -0.005527 0.017213 -0.000757 0.000000 0.000000 0.000000
# 3 -0.001475 -0.000757 0.015874 0.000000 0.000000 0.000000
# 4 0.000000 0.000000 0.000000 0.043264 0.000000 0.000000
# 5 0.000000 0.000000 0.000000 0.000000 0.028839 0.000000
# 6 0.000000 0.000000 0.000000 0.000000 0.000000 0.039168
#
#
# Mechanical properties :
#
#
# Convention : Reuss Voigt Hill
#
# Bulk Modulus (GPa) = 35.13683 39.69769 37.41726
# Shear Modulus (GPa) = 27.73883 29.40879 28.57381
#
# Velocity S-wave (km/s) = 3.74900 3.86021 3.80501
# Velocity P-wave (km/s) = 6.04513 6.32319 6.18572
#
# Compressibility (1/GPa) = 0.02846017
#
# Stress axis : x y z
#
# Youngs Moduli (GPa) = 91.81935 58.09559 62.99794
#
# Poissons Ratio (x) = 0.32111 0.09292
# Poissons Ratio (y) = 0.50750 0.04766
# Poissons Ratio (z) = 0.13542 0.04395
#
# Static dielectric constant tensor:
#      x y z
#    x 1.697640 0.000000 0.000000 
#    y 0.000000 1.675280 0.000000 
#    z 0.000000 0.000000 1.669550 
# 
# From -- ./inp_files/31972.got.cif
#   From: 2010.05.17/outbox.cif.g08.bks.cpg/sg62_16_cif.got.tgz:31972.got - 2010.06.03 15:25:27.
