data_PCOD9465072
_publ_section_title
;
Structure prediction by ZEFSAII (Michael W. Deem and Ramdas Pophale) SiO2 
 PCOD9465072
Probable space group: P N M A
;
_chemical_formula_sum "Si O2"
_cell_formula_units_Z 64
_cell_length_a 15.154783
_cell_length_b 18.257003
_cell_length_c 12.120029
_cell_angle_alpha 90.000000
_cell_angle_beta 90.000000
_cell_angle_gamma 90.000000
_cell_volume 3353.380758
_symmetry_space_group_name_H-M "P N M A"
_symmetry_group_IT_number 62
_symmetry_cell_setting 'orthorhombic'
loop_
_space_group_symop_operation_xyz
x,y,z
1/2-x,-y,1/2+z
1/2+x,1/2-y,1/2-z
-x,1/2+y,-z
-x,-y,-z
1/2+x,y,1/2-z
1/2-x,1/2+y,1/2+z
x,1/2-y,z
loop_
_atom_site_type_symbol
_atom_site_label
_atom_site_fract_x
_atom_site_fract_y
_atom_site_fract_z
Si Si1 0.823855 0.895187 0.959638
Si Si2 0.165487 0.581734 0.386798
Si Si3 0.839275 0.919919 0.526450
Si Si4 0.818644 0.831119 0.734491
Si Si5 0.523659 0.837000 0.982734
Si Si6 0.519782 0.913587 0.517986
Si Si7 0.821063 0.063002 0.873655
Si Si8 0.967843 0.165628 0.239015
O O1 0.787565 0.847864 0.857755
O O2 0.924112 0.875376 0.993032
O O3 0.827700 0.977428 0.909078
O O4 0.758626 0.894061 0.061848
O O5 0.142808 0.504597 0.446056
O O6 0.090564 0.638138 0.423464
O O7 0.172596 0.570608 0.256733
O O8 0.795474 0.887196 0.638229
O O9 0.770878 0.911573 0.426849
O O10 0.930479 0.878063 0.505583
O O11 0.792776 0.750000 0.699934
O O12 0.925419 0.834604 0.746700
O O13 0.508889 0.750000 0.981826
O O14 0.563787 0.855907 0.861264
O O15 0.596713 0.896388 0.431865
O O16 0.552419 0.890246 0.640327
O O17 0.500000 0.000000 0.500000
O O18 0.941870 0.250000 0.213639
#
# Coordination Sequence:
#
# PCOD9465072 Si02
#       8
#     8   8   8   8   8   8   8   8
#     4   9  19  36  54  83 116 149 190 244 292 341
#     4  11  22  37  58  84 121 156 195 240 292 357
#     4  10  20  38  59  87 118 154 193 244 298 350
#     4   9  16  32  61  85 111 147 192 245 293 337
#     4  10  22  40  60  86 116 153 202 251 294 344
#     4   9  18  34  56  82 114 147 187 239 289 344
#     4  10  21  36  55  85 117 154 197 234 284 358
#     4   8  16  33  56  82 110 140 188 244 288 337
#
# _framework density 19.085218000000001
#
# number of rings (size 3 to 8) (size 9 to 14) (size 15 to 20)
#    0.000    2.500    1.250    1.500    1.750    2.500 
#    6.750    4.375    0.000    3.000    0.000    0.000 
#    0.000    0.000    0.000    0.000    0.000    0.000 
#
# Total GULP energy -356866.775190 kJ/mol
# GULP energy per Si atom -5576.043362 kJ/mol
# Density = 1.904178 g / cm^3
# Si number density = 19.085218 Si / 1000 Ang^3
#
#
#
# Elastic Constant Matrix: (Units=GPa)
#
#
# Indices 1 2 3 4 5 6 
#
# 1 81.3512 1.1842 51.3897 0.0000 0.0000 0.0000
# 2 1.1842 30.8597 3.7881 0.0000 0.0000 0.0000
# 3 51.3897 3.7881 113.9092 0.0000 0.0000 0.0000
# 4 0.0000 0.0000 0.0000 28.6385 0.0000 0.0000
# 5 0.0000 0.0000 0.0000 0.0000 29.2862 0.0000
# 6 0.0000 0.0000 0.0000 0.0000 0.0000 6.6852
#
#
#
# Elastic Compliance Matrix: (Units=1/GPa)
#
#
# Indices 1 2 3 4 5 6 
#
# 1 0.017195 0.000294 -0.007767 0.000000 0.000000 0.000000
# 2 0.000294 0.032543 -0.001215 0.000000 0.000000 0.000000
# 3 -0.007767 -0.001215 0.012323 0.000000 0.000000 0.000000
# 4 0.000000 0.000000 0.000000 0.034918 0.000000 0.000000
# 5 0.000000 0.000000 0.000000 0.000000 0.034146 0.000000
# 6 0.000000 0.000000 0.000000 0.000000 0.000000 0.149583
#
#
# Mechanical properties :
#
#
# Convention : Reuss Voigt Hill
#
# Bulk Modulus (GPa) = 22.37921 37.64936 30.01429
# Shear Modulus (GPa) = 15.97554 24.23920 20.10737
#
# Velocity S-wave (km/s) = 2.89634 3.56764 3.24938
# Velocity P-wave (km/s) = 4.78920 6.06140 5.46246
#
# Compressibility (1/GPa) = 0.04468432
#
# Stress axis : x y z
#
# Youngs Moduli (GPa) = 58.15798 30.72895 81.14662
#
# Poissons Ratio (x) = -0.00902 0.63027
# Poissons Ratio (y) = -0.01707 0.09857
# Poissons Ratio (z) = 0.45171 0.03733
#
# Static dielectric constant tensor:
#      x y z
#    x 1.696210 0.000000 0.000000 
#    y 0.000000 1.710990 0.000000 
#    z 0.000000 0.000000 1.660010 
# 
# From -- ./inp_files/13579.got.cif
#   From: 2010.05.17/outbox.cif.g08.bks.cpg/sg62_7_cif.got.tgz:13579.got - 2010.06.03 15:25:27.
