data_PCOD9465679
_publ_section_title
;
Structure prediction by ZEFSAII (Michael W. Deem and Ramdas Pophale) SiO2 
 PCOD9465679
Probable space group: P N M A
;
_chemical_formula_sum "Si O2"
_cell_formula_units_Z 40
_cell_length_a 9.505565
_cell_length_b 27.406904
_cell_length_c 5.531284
_cell_angle_alpha 90.000000
_cell_angle_beta 90.000000
_cell_angle_gamma 90.000000
_cell_volume 1440.999639
_symmetry_space_group_name_H-M "P N M A"
_symmetry_group_IT_number 62
_symmetry_cell_setting 'orthorhombic'
loop_
_space_group_symop_operation_xyz
x,y,z
1/2-x,-y,1/2+z
1/2+x,1/2-y,1/2-z
-x,1/2+y,-z
-x,-y,-z
1/2+x,y,1/2-z
1/2-x,1/2+y,1/2+z
x,1/2-y,z
loop_
_atom_site_type_symbol
_atom_site_label
_atom_site_fract_x
_atom_site_fract_y
_atom_site_fract_z
Si Si1 0.012636 0.593172 0.203012
Si Si2 0.223236 0.399436 0.476715
Si Si3 0.868864 0.305406 0.561867
Si Si4 0.622480 0.196927 0.251242
Si Si5 0.833889 0.505060 0.705484
O O1 0.110421 0.592525 0.966089
O O2 0.073920 0.644755 0.314497
O O3 0.055778 0.539163 0.305899
O O4 0.847245 0.593767 0.257492
O O5 0.188337 0.345806 0.400309
O O6 0.138825 0.437016 0.307845
O O7 0.895998 0.250000 0.665470
O O8 0.701274 0.308081 0.508130
O O9 0.956854 0.305231 0.306350
O O10 0.667001 0.250000 0.162464
O O11 0.759125 0.499573 0.963794
#
# Coordination Sequence:
#
# PCOD9465679 Si02
#       5
#     8   8   8   8   8
#     4  10  21  37  56  83 117 156 201 252 308 367
#     4  10  21  37  56  83 117 156 201 252 308 367
#     4   9  18  33  53  78 110 149 196 250 307 367
#     4   9  18  33  53  78 110 149 196 250 307 367
#     4  10  21  40  65  94 125 162 207 256 309 366
#
# _framework density 27.758507999999999
#
# number of rings (size 3 to 8) (size 9 to 14) (size 15 to 20)
#    0.000    2.400    0.000    1.800    0.000    2.400 
#    0.000   29.000    0.000    0.000    0.000    0.000 
#    0.000    0.000    0.000    0.000    0.000    4.000 
#
# Total GULP energy -222811.033037 kJ/mol
# GULP energy per Si atom -5570.275826 kJ/mol
# Density = 2.769533 g / cm^3
# Si number density = 27.758508 Si / 1000 Ang^3
#
#
#
# Elastic Constant Matrix: (Units=GPa)
#
#
# Indices 1 2 3 4 5 6 
#
# 1 107.5699 45.2740 38.7047 0.0000 0.0000 0.0000
# 2 45.2740 196.4619 47.4552 0.0000 0.0000 0.0000
# 3 38.7047 47.4552 52.7226 0.0000 0.0000 0.0000
# 4 0.0000 0.0000 0.0000 38.8392 0.0000 0.0000
# 5 0.0000 0.0000 0.0000 0.0000 36.1459 0.0000
# 6 0.0000 0.0000 0.0000 0.0000 0.0000 34.3382
#
#
#
# Elastic Compliance Matrix: (Units=1/GPa)
#
#
# Indices 1 2 3 4 5 6 
#
# 1 0.012747 -0.000865 -0.008579 0.000000 0.000000 0.000000
# 2 -0.000865 0.006563 -0.005272 0.000000 0.000000 0.000000
# 3 -0.008579 -0.005272 0.030011 0.000000 0.000000 0.000000
# 4 0.000000 0.000000 0.000000 0.025747 0.000000 0.000000
# 5 0.000000 0.000000 0.000000 0.000000 0.027666 0.000000
# 6 0.000000 0.000000 0.000000 0.000000 0.000000 0.029122
#
#
# Mechanical properties :
#
#
# Convention : Reuss Voigt Hill
#
# Bulk Modulus (GPa) = 50.28191 68.84691 59.56441
# Shear Modulus (GPa) = 29.77642 36.88603 33.33123
#
# Velocity S-wave (km/s) = 3.27876 3.64925 3.46895
# Velocity P-wave (km/s) = 5.69974 6.52779 6.12777
#
# Compressibility (1/GPa) = 0.01988787
#
# Stress axis : x y z
#
# Youngs Moduli (GPa) = 78.44770 152.37184 33.32151
#
# Poissons Ratio (x) = 0.13184 0.28587
# Poissons Ratio (y) = 0.06788 0.17567
# Poissons Ratio (z) = 0.67302 0.80330
#
# Static dielectric constant tensor:
#      x y z
#    x 2.144130 0.000000 0.000000 
#    y 0.000000 2.233480 0.000000 
#    z 0.000000 0.000000 2.240600 
# 
# From -- ./inp_files/590.got.cif
#   From: 2010.05.17/outbox.cif.g08.bks.cpg/sg62_1_cif.got.tgz:590.got - 2010.06.03 15:25:27.
