data_PCOD9465083
_publ_section_title
;
Structure prediction by ZEFSAII (Michael W. Deem and Ramdas Pophale) SiO2 
 PCOD9465083
Probable space group: P N M A
;
_chemical_formula_sum "Si O2"
_cell_formula_units_Z 48
_cell_length_a 18.381293
_cell_length_b 8.440403
_cell_length_c 15.909174
_cell_angle_alpha 90.000000
_cell_angle_beta 90.000000
_cell_angle_gamma 90.000000
_cell_volume 2468.237082
_symmetry_space_group_name_H-M "P N M A"
_symmetry_group_IT_number 62
_symmetry_cell_setting 'orthorhombic'
loop_
_space_group_symop_operation_xyz
x,y,z
1/2-x,-y,1/2+z
1/2+x,1/2-y,1/2-z
-x,1/2+y,-z
-x,-y,-z
1/2+x,y,1/2-z
1/2-x,1/2+y,1/2+z
x,1/2-y,z
loop_
_atom_site_type_symbol
_atom_site_label
_atom_site_fract_x
_atom_site_fract_y
_atom_site_fract_z
Si Si1 0.958070 0.059985 0.747903
Si Si2 0.793145 0.940083 0.749785
Si Si3 0.708601 0.058096 0.586113
Si Si4 0.540717 0.940004 0.917071
Si Si5 0.040438 0.058598 0.916897
Si Si6 0.208448 0.556801 0.582851
O O1 0.959677 0.250000 0.745983
O O2 0.998708 0.005263 0.832806
O O3 0.874962 0.004058 0.748167
O O4 0.999469 0.997385 0.665982
O O5 0.795691 0.750000 0.750850
O O6 0.751246 0.994811 0.833872
O O7 0.749603 0.995862 0.667963
O O8 0.709874 0.250000 0.588258
O O9 0.624517 0.006619 0.584533
O O10 0.750154 0.006307 0.501600
O O11 0.540827 0.750000 0.918221
O O12 0.624649 0.995415 0.916506
O O13 0.500000 0.000000 0.000000
O O14 0.040005 0.250000 0.917700
O O15 0.000000 0.000000 0.000000
O O16 0.208308 0.750000 0.583044
#
# Coordination Sequence:
#
# PCOD9465083 Si02
#       6
#     8   8   8   8   8   8
#     4  11  23  39  57  84 119 155 193 238 289 346
#     4  11  22  38  60  86 112 148 194 239 287 345
#     4  10  20  38  60  84 115 151 186 233 292 345
#     4  11  22  38  60  87 117 154 195 240 291 347
#     4  10  22  38  60  87 118 156 197 240 291 345
#     4   9  20  37  58  82 113 148 185 230 285 340
#
# _framework density 19.447078000000001
#
# number of rings (size 3 to 8) (size 9 to 14) (size 15 to 20)
#    0.000    1.667    0.000    4.500    0.000    4.667 
#    0.000    5.000    0.000    0.000    0.000    0.000 
#    0.000    0.000    0.000    0.000    0.000    0.000 
#
# Total GULP energy -268392.904179 kJ/mol
# GULP energy per Si atom -5591.518837 kJ/mol
# Density = 1.940282 g / cm^3
# Si number density = 19.447078 Si / 1000 Ang^3
#
#
#
# Elastic Constant Matrix: (Units=GPa)
#
#
# Indices 1 2 3 4 5 6 
#
# 1 235.1630 38.9565 141.6296 0.0000 0.0000 0.0000
# 2 38.9565 31.7496 37.3939 0.0000 0.0000 0.0000
# 3 141.6296 37.3939 237.3643 0.0000 0.0000 0.0000
# 4 0.0000 0.0000 0.0000 30.5544 0.0000 0.0000
# 5 0.0000 0.0000 0.0000 0.0000 47.1338 0.0000
# 6 0.0000 0.0000 0.0000 0.0000 0.0000 16.5591
#
#
#
# Elastic Compliance Matrix: (Units=1/GPa)
#
#
# Indices 1 2 3 4 5 6 
#
# 1 0.007146 -0.004600 -0.003539 0.000000 0.000000 0.000000
# 2 -0.004600 0.041632 -0.003814 0.000000 0.000000 0.000000
# 3 -0.003539 -0.003814 0.006926 0.000000 0.000000 0.000000
# 4 0.000000 0.000000 0.000000 0.032729 0.000000 0.000000
# 5 0.000000 0.000000 0.000000 0.000000 0.021216 0.000000
# 6 0.000000 0.000000 0.000000 0.000000 0.000000 0.060390
#
#
# Mechanical properties :
#
#
# Convention : Reuss Voigt Hill
#
# Bulk Modulus (GPa) = 31.44857 104.47078 67.95968
# Shear Modulus (GPa) = 24.44470 37.93592 31.19031
#
# Velocity S-wave (km/s) = 3.54925 4.42149 4.00916
# Velocity P-wave (km/s) = 5.74479 8.93887 7.51352
#
# Compressibility (1/GPa) = 0.03179794
#
# Stress axis : x y z
#
# Youngs Moduli (GPa) = 139.94239 24.01970 144.39321
#
# Poissons Ratio (x) = 0.11048 0.51103
# Poissons Ratio (y) = 0.64367 0.55075
# Poissons Ratio (z) = 0.49527 0.09162
#
# Static dielectric constant tensor:
#      x y z
#    x 1.650680 0.000000 0.000000 
#    y 0.000000 1.671570 0.000000 
#    z 0.000000 0.000000 1.642320 
# 
# From -- ./inp_files/19527.got.cif
#   From: 2010.05.17/outbox.cif.g08.bks.cpg/sg62_10_cif.got.tgz:19527.got - 2010.06.03 15:25:27.
