data_PCOD9465424
_publ_section_title
;
Structure prediction by ZEFSAII (Michael W. Deem and Ramdas Pophale) SiO2 
 PCOD9465424
Probable space group: P N M A
;
_chemical_formula_sum "Si O2"
_cell_formula_units_Z 56
_cell_length_a 5.478008
_cell_length_b 13.431644
_cell_length_c 33.466119
_cell_angle_alpha 90.000000
_cell_angle_beta 90.000000
_cell_angle_gamma 90.000000
_cell_volume 2462.391967
_symmetry_space_group_name_H-M "P N M A"
_symmetry_group_IT_number 62
_symmetry_cell_setting 'orthorhombic'
loop_
_space_group_symop_operation_xyz
x,y,z
1/2-x,-y,1/2+z
1/2+x,1/2-y,1/2-z
-x,1/2+y,-z
-x,-y,-z
1/2+x,y,1/2-z
1/2-x,1/2+y,1/2+z
x,1/2-y,z
loop_
_atom_site_type_symbol
_atom_site_label
_atom_site_fract_x
_atom_site_fract_y
_atom_site_fract_z
Si Si1 0.585114 0.868747 0.725394
Si Si2 0.747774 0.064002 0.499945
Si Si3 0.291335 0.061518 0.912943
Si Si4 0.606789 0.862211 0.916382
Si Si5 0.727021 0.866013 0.233491
Si Si6 0.934359 0.641012 0.342398
Si Si7 0.422767 0.527819 0.647392
O O1 0.833451 0.889352 0.750151
O O2 0.583735 0.750000 0.717848
O O3 0.580987 0.922640 0.682242
O O4 0.757433 0.127216 0.459301
O O5 0.500000 0.000000 0.500000
O O6 0.745432 0.110157 0.544237
O O7 0.000000 0.000000 0.500000
O O8 0.406432 0.950225 0.917065
O O9 0.059342 0.040211 0.885379
O O10 0.478195 0.126211 0.887358
O O11 0.511076 0.750000 0.912401
O O12 0.780737 0.889866 0.879099
O O13 0.485763 0.908941 0.254374
O O14 0.743106 0.750000 0.246219
O O15 0.666528 0.865552 0.186862
O O16 0.820923 0.750000 0.336530
O O17 0.767102 0.547864 0.332510
#
# Coordination Sequence:
#
# PCOD9465424 Si02
#       7
#     8   8   8   8   8   8   8
#     4  10  24  44  67  98 137 179 225 279 343 411
#     4  10  20  42  66  92 133 171 210 266 329 393
#     4  10  23  41  65  94 136 175 215 276 340 400
#     4  10  22  40  67 101 130 172 224 274 332 402
#     4   9  19  36  57  82 114 155 209 273 325 378
#     4  10  24  41  60  90 127 175 228 277 340 410
#     4  11  23  41  66  95 132 179 222 288 336 402
#
# _framework density 22.742113
#
# number of rings (size 3 to 8) (size 9 to 14) (size 15 to 20)
#    0.000    2.000    1.429    0.429    6.000    3.429 
#    0.000    0.000    0.000    0.000    0.000    0.000 
#    0.000    0.000    0.000    0.000    0.000    0.000 
#
# Total GULP energy -312824.512089 kJ/mol
# GULP energy per Si atom -5586.152002 kJ/mol
# Density = 2.269035 g / cm^3
# Si number density = 22.742113 Si / 1000 Ang^3
#
#
#
# Elastic Constant Matrix: (Units=GPa)
#
#
# Indices 1 2 3 4 5 6 
#
# 1 84.8657 23.5443 21.1972 0.0000 0.0000 0.0000
# 2 23.5443 110.3346 32.4891 0.0000 0.0000 0.0000
# 3 21.1972 32.4891 128.1032 0.0000 0.0000 0.0000
# 4 0.0000 0.0000 0.0000 21.7153 0.0000 0.0000
# 5 0.0000 0.0000 0.0000 0.0000 39.4975 0.0000
# 6 0.0000 0.0000 0.0000 0.0000 0.0000 21.5381
#
#
#
# Elastic Compliance Matrix: (Units=1/GPa)
#
#
# Indices 1 2 3 4 5 6 
#
# 1 0.012800 -0.002278 -0.001540 0.000000 0.000000 0.000000
# 2 -0.002278 0.010200 -0.002210 0.000000 0.000000 0.000000
# 3 -0.001540 -0.002210 0.008622 0.000000 0.000000 0.000000
# 4 0.000000 0.000000 0.000000 0.046050 0.000000 0.000000
# 5 0.000000 0.000000 0.000000 0.000000 0.025318 0.000000
# 6 0.000000 0.000000 0.000000 0.000000 0.000000 0.046429
#
#
# Mechanical properties :
#
#
# Convention : Reuss Voigt Hill
#
# Bulk Modulus (GPa) = 51.11061 53.08498 52.09779
# Shear Modulus (GPa) = 29.76231 32.95505 31.35868
#
# Velocity S-wave (km/s) = 3.62150 3.81080 3.71736
# Velocity P-wave (km/s) = 6.32533 6.53879 6.43295
#
# Compressibility (1/GPa) = 0.01956541
#
# Stress axis : x y z
#
# Youngs Moduli (GPa) = 78.12501 98.03763 115.98803
#
# Poissons Ratio (x) = 0.22331 0.17866
# Poissons Ratio (y) = 0.17796 0.25634
# Poissons Ratio (z) = 0.12034 0.21667
#
# Static dielectric constant tensor:
#      x y z
#    x 1.856660 0.000000 0.000000 
#    y 0.000000 1.835780 0.000000 
#    z 0.000000 0.000000 1.871640 
# 
# From -- ./inp_files/31599.got.cif
#   From: 2010.05.17/outbox.cif.g08.bks.cpg/sg62_16_cif.got.tgz:31599.got - 2010.06.03 15:25:27.
