data_PCOD9465922
_publ_section_title
;
Structure prediction by ZEFSAII (Michael W. Deem and Ramdas Pophale) SiO2 
 PCOD9465922
Probable space group: P N M A
;
_chemical_formula_sum "Si O2"
_cell_formula_units_Z 48
_cell_length_a 29.113761
_cell_length_b 9.344136
_cell_length_c 9.397588
_cell_angle_alpha 90.000000
_cell_angle_beta 90.000000
_cell_angle_gamma 90.000000
_cell_volume 2556.547490
_symmetry_space_group_name_H-M "P N M A"
_symmetry_group_IT_number 62
_symmetry_cell_setting 'orthorhombic'
loop_
_space_group_symop_operation_xyz
x,y,z
1/2-x,-y,1/2+z
1/2+x,1/2-y,1/2-z
-x,1/2+y,-z
-x,-y,-z
1/2+x,y,1/2-z
1/2-x,1/2+y,1/2+z
x,1/2-y,z
loop_
_atom_site_type_symbol
_atom_site_label
_atom_site_fract_x
_atom_site_fract_y
_atom_site_fract_z
Si Si1 0.385944 0.079749 0.694430
Si Si2 0.036801 0.913411 0.589260
Si Si3 0.360605 0.078953 0.016997
Si Si4 0.020940 0.085201 0.130322
Si Si5 0.784807 0.579268 0.295770
Si Si6 0.199001 0.579580 0.001111
O O1 0.396089 0.250000 0.687225
O O2 0.361838 0.054562 0.847187
O O3 0.350770 0.044084 0.567399
O O4 0.432761 0.991368 0.683861
O O5 0.036925 0.750000 0.535814
O O6 0.088852 0.963974 0.573196
O O7 0.017813 0.915517 0.748139
O O8 0.000000 0.000000 0.500000
O O9 0.354051 0.250000 0.041162
O O10 0.322721 0.990722 0.101061
O O11 0.031058 0.250000 0.094208
O O12 0.000000 0.000000 0.000000
O O13 0.791135 0.750000 0.283330
O O14 0.788826 0.506996 0.140909
O O15 0.736258 0.553864 0.374522
O O16 0.199611 0.750000 0.969184
#
# Coordination Sequence:
#
# PCOD9465922 Si02
#       6
#     8   8   8   8   8   8
#     4  10  21  40  64  87 116 160 203 243 300 361
#     4  10  21  38  61  87 118 159 203 247 296 352
#     4  10  21  39  63  89 121 161 198 243 304 359
#     4  11  24  39  58  88 123 160 203 251 300 355
#     4  11  24  41  64  94 121 155 200 245 294 354
#     4  10  23  42  63  88 121 156 195 242 297 358
#
# _framework density 18.775321000000002
#
# number of rings (size 3 to 8) (size 9 to 14) (size 15 to 20)
#    0.000    1.667    1.667    2.000    2.333    5.333 
#    0.000    0.000    0.000    0.000    0.000    0.000 
#    0.000    0.000    0.000    0.000    0.000    0.000 
#
# Total GULP energy -268133.859151 kJ/mol
# GULP energy per Si atom -5586.122066 kJ/mol
# Density = 1.873259 g / cm^3
# Si number density = 18.775321 Si / 1000 Ang^3
#
#
#
# Elastic Constant Matrix: (Units=GPa)
#
#
# Indices 1 2 3 4 5 6 
#
# 1 62.3269 24.5272 19.6351 0.0000 0.0000 0.0000
# 2 24.5272 58.1707 48.2211 0.0000 0.0000 0.0000
# 3 19.6351 48.2211 96.7053 0.0000 0.0000 0.0000
# 4 0.0000 0.0000 0.0000 35.1140 0.0000 0.0000
# 5 0.0000 0.0000 0.0000 0.0000 33.3248 0.0000
# 6 0.0000 0.0000 0.0000 0.0000 0.0000 30.9569
#
#
#
# Elastic Compliance Matrix: (Units=1/GPa)
#
#
# Indices 1 2 3 4 5 6 
#
# 1 0.019239 -0.008308 0.000236 0.000000 0.000000 0.000000
# 2 -0.008308 0.032891 -0.014714 0.000000 0.000000 0.000000
# 3 0.000236 -0.014714 0.017630 0.000000 0.000000 0.000000
# 4 0.000000 0.000000 0.000000 0.028479 0.000000 0.000000
# 5 0.000000 0.000000 0.000000 0.000000 0.030008 0.000000
# 6 0.000000 0.000000 0.000000 0.000000 0.000000 0.032303
#
#
# Mechanical properties :
#
#
# Convention : Reuss Voigt Hill
#
# Bulk Modulus (GPa) = 41.34134 44.66328 43.00231
# Shear Modulus (GPa) = 23.34446 28.20044 25.77245
#
# Velocity S-wave (km/s) = 3.52995 3.87976 3.70898
# Velocity P-wave (km/s) = 6.21940 6.62646 6.42615
#
# Compressibility (1/GPa) = 0.02418886
#
# Stress axis : x y z
#
# Youngs Moduli (GPa) = 51.97666 30.40344 56.72266
#
# Poissons Ratio (x) = 0.25259 -0.01341
# Poissons Ratio (y) = 0.43182 0.83461
# Poissons Ratio (z) = -0.01228 0.44735
#
# Static dielectric constant tensor:
#      x y z
#    x 1.616490 0.000000 0.000000 
#    y 0.000000 1.626690 0.000000 
#    z 0.000000 0.000000 1.537450 
# 
# From -- ./inp_files/10257.got.cif
#   From: 2010.05.17/outbox.cif.g08.bks.cpg/sg62_6_cif.got.tgz:10257.got - 2010.06.03 15:25:27.
