data_PCOD9465370
_publ_section_title
;
Structure prediction by ZEFSAII (Michael W. Deem and Ramdas Pophale) SiO2 
 PCOD9465370
Probable space group: P N M A
;
_chemical_formula_sum "Si O2"
_cell_formula_units_Z 64
_cell_length_a 10.898046
_cell_length_b 28.174301
_cell_length_c 9.929566
_cell_angle_alpha 90.000000
_cell_angle_beta 90.000000
_cell_angle_gamma 90.000000
_cell_volume 3048.821888
_symmetry_space_group_name_H-M "P N M A"
_symmetry_group_IT_number 62
_symmetry_cell_setting 'orthorhombic'
loop_
_space_group_symop_operation_xyz
x,y,z
1/2-x,-y,1/2+z
1/2+x,1/2-y,1/2-z
-x,1/2+y,-z
-x,-y,-z
1/2+x,y,1/2-z
1/2-x,1/2+y,1/2+z
x,1/2-y,z
loop_
_atom_site_type_symbol
_atom_site_label
_atom_site_fract_x
_atom_site_fract_y
_atom_site_fract_z
Si Si1 0.815502 0.020064 0.757836
Si Si2 0.803928 0.043813 0.462268
Si Si3 0.120186 0.375063 0.104816
Si Si4 0.536519 0.888671 0.337821
Si Si5 0.940523 0.924732 0.642542
Si Si6 0.806519 0.195479 0.493580
Si Si7 0.565148 0.147162 0.938383
Si Si8 0.776050 0.302585 0.808536
O O1 0.763294 0.040246 0.617501
O O2 0.901555 0.059904 0.822851
O O3 0.722930 0.002548 0.872946
O O4 0.884457 0.973000 0.702048
O O5 0.726807 0.085670 0.396410
O O6 0.944089 0.058178 0.444932
O O7 0.036099 0.389670 0.231005
O O8 0.199357 0.326960 0.098309
O O9 0.044235 0.382655 0.969601
O O10 0.461611 0.879878 0.200939
O O11 0.635833 0.846332 0.341463
O O12 0.870316 0.889677 0.540327
O O13 0.831678 0.250000 0.458355
O O14 0.935254 0.166335 0.502031
O O15 0.755395 0.194135 0.647528
O O16 0.653270 0.189816 0.894332
O O17 0.829114 0.250000 0.833792
#
# Coordination Sequence:
#
# PCOD9465370 Si02
#       8
#     8   8   8   8   8   8   8   8
#     4  11  26  38  63  94 126 173 220 266 318 390
#     4  11  24  42  61  89 129 169 213 263 322 382
#     4  11  24  42  63  93 126 170 206 261 330 388
#     4  11  24  39  66  95 132 166 217 270 320 391
#     4  11  25  40  62  88 134 169 215 264 317 387
#     4  10  20  40  66  94 127 164 210 267 326 388
#     4  11  21  41  67  93 125 172 211 266 323 383
#     4  10  22  39  67 102 127 161 217 276 326 379
#
# _framework density 20.991714000000002
#
# number of rings (size 3 to 8) (size 9 to 14) (size 15 to 20)
#    0.000    1.250    3.750    1.500    5.250    3.000 
#    0.000    1.250    0.000    0.000    0.000    0.000 
#    0.000    0.000    0.000    0.000    0.000    0.000 
#
# Total GULP energy -357103.266956 kJ/mol
# GULP energy per Si atom -5579.738546 kJ/mol
# Density = 2.094394 g / cm^3
# Si number density = 20.991714 Si / 1000 Ang^3
#
#
#
# Elastic Constant Matrix: (Units=GPa)
#
#
# Indices 1 2 3 4 5 6 
#
# 1 14.9566 15.7907 10.1602 0.0000 0.0000 0.0000
# 2 15.7907 109.2405 15.6644 0.0000 0.0000 0.0000
# 3 10.1602 15.6644 54.8072 0.0000 0.0000 0.0000
# 4 0.0000 0.0000 0.0000 16.7092 0.0000 0.0000
# 5 0.0000 0.0000 0.0000 0.0000 11.1625 0.0000
# 6 0.0000 0.0000 0.0000 0.0000 0.0000 23.9882
#
#
#
# Elastic Compliance Matrix: (Units=1/GPa)
#
#
# Indices 1 2 3 4 5 6 
#
# 1 0.087048 -0.010708 -0.013077 0.000000 0.000000 0.000000
# 2 -0.010708 0.010862 -0.001120 0.000000 0.000000 0.000000
# 3 -0.013077 -0.001120 0.020990 0.000000 0.000000 0.000000
# 4 0.000000 0.000000 0.000000 0.059847 0.000000 0.000000
# 5 0.000000 0.000000 0.000000 0.000000 0.089586 0.000000
# 6 0.000000 0.000000 0.000000 0.000000 0.000000 0.041687
#
#
# Mechanical properties :
#
#
# Convention : Reuss Voigt Hill
#
# Bulk Modulus (GPa) = 14.47333 29.13723 21.80528
# Shear Modulus (GPa) = 13.05961 19.53123 16.29542
#
# Velocity S-wave (km/s) = 2.49696 3.05360 2.78920
# Velocity P-wave (km/s) = 3.90165 5.13255 4.55883
#
# Compressibility (1/GPa) = 0.06909259
#
# Stress axis : x y z
#
# Youngs Moduli (GPa) = 11.48789 92.06022 47.64187
#
# Poissons Ratio (x) = 0.98575 0.62300
# Poissons Ratio (y) = 0.12301 0.05334
# Poissons Ratio (z) = 0.15022 0.10307
#
# Static dielectric constant tensor:
#      x y z
#    x 1.783640 0.000000 0.000000 
#    y 0.000000 1.803470 0.000000 
#    z 0.000000 0.000000 1.777420 
# 
# From -- ./inp_files/5520.got.cif
#   From: 2010.05.17/outbox.cif.g08.bks.cpg/sg62_3_cif.got.tgz:5520.got - 2010.06.03 15:25:27.
