data_PCOD9465144
_publ_section_title
;
Structure prediction by ZEFSAII (Michael W. Deem and Ramdas Pophale) SiO2 
 PCOD9465144
Probable space group: P N M A
;
_chemical_formula_sum "Si O2"
_cell_formula_units_Z 32
_cell_length_a 14.668970
_cell_length_b 8.517606
_cell_length_c 12.532085
_cell_angle_alpha 90.000000
_cell_angle_beta 90.000000
_cell_angle_gamma 90.000000
_cell_volume 1565.815181
_symmetry_space_group_name_H-M "P N M A"
_symmetry_group_IT_number 62
_symmetry_cell_setting 'orthorhombic'
loop_
_space_group_symop_operation_xyz
x,y,z
1/2-x,-y,1/2+z
1/2+x,1/2-y,1/2-z
-x,1/2+y,-z
-x,-y,-z
1/2+x,y,1/2-z
1/2-x,1/2+y,1/2+z
x,1/2-y,z
loop_
_atom_site_type_symbol
_atom_site_label
_atom_site_fract_x
_atom_site_fract_y
_atom_site_fract_z
Si Si1 0.092817 0.437842 0.743824
Si Si2 0.400311 0.434478 0.475193
Si Si3 0.437291 0.438591 0.903623
Si Si4 0.216506 0.562424 0.552655
O O1 0.093355 0.250000 0.761622
O O2 0.117466 0.525025 0.851677
O O3 0.163309 0.480159 0.649621
O O4 0.991434 0.488316 0.702377
O O5 0.500000 0.500000 0.500000
O O6 0.398281 0.250000 0.494353
O O7 0.320806 0.513980 0.543889
O O8 0.440114 0.250000 0.901943
O O9 0.500000 0.500000 0.000000
O O10 0.336203 0.483849 0.941870
O O11 0.207917 0.750000 0.564962
#
# Coordination Sequence:
#
# PCOD9465144 Si02
#       4
#     8   8   8   8
#     4  10  20  38  62  90 122 158 197 243 298 358
#     4  12  26  43  60  84 119 160 203 252 305 361
#     4   8  16  31  56  86 116 147 186 234 285 341
#     4  10  20  38  62  90 120 155 200 249 299 360
#
# _framework density 20.436640000000001
#
# number of rings (size 3 to 8) (size 9 to 14) (size 15 to 20)
#    0.000    2.000    0.000    3.750    0.000    4.000 
#    0.000    7.500    0.000    0.000    0.000    0.000 
#    0.000    0.000    0.000    0.000    0.000    0.000 
#
# Total GULP energy -178583.450271 kJ/mol
# GULP energy per Si atom -5580.732821 kJ/mol
# Density = 2.039012 g / cm^3
# Si number density = 20.436640 Si / 1000 Ang^3
#
#
#
# Elastic Constant Matrix: (Units=GPa)
#
#
# Indices 1 2 3 4 5 6 
#
# 1 112.9740 -2.6943 5.2156 0.0000 0.0000 0.0000
# 2 -2.6943 30.3519 -12.5015 0.0000 0.0000 0.0000
# 3 5.2156 -12.5015 38.6235 0.0000 0.0000 0.0000
# 4 0.0000 0.0000 0.0000 28.9139 0.0000 0.0000
# 5 0.0000 0.0000 0.0000 0.0000 24.4802 0.0000
# 6 0.0000 0.0000 0.0000 0.0000 0.0000 27.5380
#
#
#
# Elastic Compliance Matrix: (Units=1/GPa)
#
#
# Indices 1 2 3 4 5 6 
#
# 1 0.008910 0.000341 -0.001093 0.000000 0.000000 0.000000
# 2 0.000341 0.038028 0.012263 0.000000 0.000000 0.000000
# 3 -0.001093 0.012263 0.030008 0.000000 0.000000 0.000000
# 4 0.000000 0.000000 0.000000 0.034585 0.000000 0.000000
# 5 0.000000 0.000000 0.000000 0.000000 0.040849 0.000000
# 6 0.000000 0.000000 0.000000 0.000000 0.000000 0.036313
#
#
# Mechanical properties :
#
#
# Convention : Reuss Voigt Hill
#
# Bulk Modulus (GPa) = 10.00330 17.99878 14.00104
# Shear Modulus (GPa) = 25.12621 28.98170 27.05396
#
# Velocity S-wave (km/s) = 3.51018 3.76988 3.64235
# Velocity P-wave (km/s) = 4.61887 5.27026 4.95528
#
# Compressibility (1/GPa) = 0.09996703
#
# Stress axis : x y z
#
# Youngs Moduli (GPa) = 112.23117 26.29642 33.32476
#
# Poissons Ratio (x) = -0.00896 0.03642
# Poissons Ratio (y) = -0.03825 -0.40865
# Poissons Ratio (z) = 0.12266 -0.32247
#
# Static dielectric constant tensor:
#      x y z
#    x 1.754080 0.000000 0.000000 
#    y 0.000000 1.684870 0.000000 
#    z 0.000000 0.000000 1.746250 
# 
# From -- ./inp_files/12771.got.cif
#   From: 2010.05.17/outbox.cif.g08.bks.cpg/sg62_7_cif.got.tgz:12771.got - 2010.06.03 15:25:27.
