data_PCOD9465683
_publ_section_title
;
Structure prediction by ZEFSAII (Michael W. Deem and Ramdas Pophale) SiO2 
 PCOD9465683
Probable space group: P N M A
;
_chemical_formula_sum "Si O2"
_cell_formula_units_Z 56
_cell_length_a 21.896011
_cell_length_b 8.513558
_cell_length_c 15.303695
_cell_angle_alpha 90.000000
_cell_angle_beta 90.000000
_cell_angle_gamma 90.000000
_cell_volume 2852.807078
_symmetry_space_group_name_H-M "P N M A"
_symmetry_group_IT_number 62
_symmetry_cell_setting 'orthorhombic'
loop_
_space_group_symop_operation_xyz
x,y,z
1/2-x,-y,1/2+z
1/2+x,1/2-y,1/2-z
-x,1/2+y,-z
-x,-y,-z
1/2+x,y,1/2-z
1/2-x,1/2+y,1/2+z
x,1/2-y,z
loop_
_atom_site_type_symbol
_atom_site_label
_atom_site_fract_x
_atom_site_fract_y
_atom_site_fract_z
Si Si1 0.282358 0.437780 0.586617
Si Si2 0.898220 0.563850 0.290368
Si Si3 0.191496 0.940657 0.444678
Si Si4 0.567259 0.562998 0.980253
Si Si5 0.522360 0.934941 0.641972
Si Si6 0.734011 0.440525 0.725436
Si Si7 0.410273 0.563672 0.525007
O O1 0.288737 0.250000 0.580842
O O2 0.225070 0.492691 0.529703
O O3 0.271153 0.480660 0.687266
O O4 0.341915 0.519929 0.548374
O O5 0.891822 0.750000 0.303903
O O6 0.910646 0.487020 0.383800
O O7 0.953818 0.527979 0.225239
O O8 0.835734 0.506493 0.242807
O O9 0.193953 0.750000 0.446528
O O10 0.120457 0.988164 0.451765
O O11 0.230266 0.995709 0.360562
O O12 0.564334 0.750000 0.983719
O O13 0.500000 0.500000 0.000000
O O14 0.523784 0.750000 0.661155
O O15 0.455557 0.977532 0.604981
O O16 0.566629 0.973587 0.560500
O O17 0.731425 0.250000 0.719090
O O18 0.416371 0.750000 0.508378
#
# Coordination Sequence:
#
# PCOD9465683 Si02
#       7
#     8   8   8   8   8   8   8
#     4  11  21  36  59  87 119 154 196 248 300 363
#     4  11  21  38  63  88 121 162 204 253 313 379
#     4  10  21  40  63  88 120 160 205 259 315 370
#     4  11  24  41  63  89 122 163 212 263 314 376
#     4  10  21  37  58  86 119 156 203 252 300 361
#     4   9  20  37  59  86 116 152 198 248 306 367
#     4  10  21  37  56  84 122 159 197 247 307 364
#
# _framework density 19.629788999999999
#
# number of rings (size 3 to 8) (size 9 to 14) (size 15 to 20)
#    0.000    1.714    1.429    3.000    0.000    4.571 
#    0.000    3.571    0.000    0.000    0.000    0.000 
#    0.000    0.000    0.000    0.000    0.000    0.000 
#
# Total GULP energy -312795.727489 kJ/mol
# GULP energy per Si atom -5585.637991 kJ/mol
# Density = 1.958511 g / cm^3
# Si number density = 19.629789 Si / 1000 Ang^3
#
#
#
# Elastic Constant Matrix: (Units=GPa)
#
#
# Indices 1 2 3 4 5 6 
#
# 1 118.3114 19.8661 37.1409 0.0000 0.0000 0.0000
# 2 19.8661 17.8445 8.3093 0.0000 0.0000 0.0000
# 3 37.1409 8.3093 87.4925 0.0000 0.0000 0.0000
# 4 0.0000 0.0000 0.0000 23.3518 0.0000 0.0000
# 5 0.0000 0.0000 0.0000 0.0000 -0.4592 0.0000
# 6 0.0000 0.0000 0.0000 0.0000 0.0000 24.0212
#
#
#
# Elastic Compliance Matrix: (Units=1/GPa)
#
#
# Indices 1 2 3 4 5 6 
#
# 1 0.011508 -0.011025 -0.003838 0.000000 0.000000 0.000000
# 2 -0.011025 0.069194 -0.001891 0.000000 0.000000 0.000000
# 3 -0.003838 -0.001891 0.013239 0.000000 0.000000 0.000000
# 4 0.000000 0.000000 0.000000 0.042823 0.000000 0.000000
# 5 0.000000 0.000000 0.000000 0.000000 -2.177661 0.000000
# 6 0.000000 0.000000 0.000000 0.000000 0.000000 0.041630
#
#
# Mechanical properties :
#
#
# Convention : Reuss Voigt Hill
#
# Bulk Modulus (GPa) = 16.54750 39.36454 27.95602
# Shear Modulus (GPa) = -2.56988 19.93824 8.68418
#
# Velocity S-wave (km/s) = -1.14543 3.19048 2.10561
# Velocity P-wave (km/s) = 2.58819 5.80252 4.49266
#
# Compressibility (1/GPa) = 0.06043208
#
# Stress axis : x y z
#
# Youngs Moduli (GPa) = 86.89275 14.45207 75.53697
#
# Poissons Ratio (x) = 0.15933 0.28994
# Poissons Ratio (y) = 0.95798 0.14287
# Poissons Ratio (z) = 0.33352 0.02733
#
# Static dielectric constant tensor:
#      x y z
#    x 1.698230 0.000000 0.000000 
#    y 0.000000 1.664860 0.000000 
#    z 0.000000 0.000000 1.665300 
# 
# From -- ./inp_files/20250.got.cif
#   From: 2010.05.17/outbox.cif.g08.bks.cpg/sg62_11_cif.got.tgz:20250.got - 2010.06.03 15:25:27.
