data_PCOD9465593
_publ_section_title
;
Structure prediction by ZEFSAII (Michael W. Deem and Ramdas Pophale) SiO2 
 PCOD9465593
Probable space group: P N M A
;
_chemical_formula_sum "Si O2"
_cell_formula_units_Z 64
_cell_length_a 32.729795
_cell_length_b 9.569554
_cell_length_c 11.026339
_cell_angle_alpha 90.000000
_cell_angle_beta 90.000000
_cell_angle_gamma 90.000000
_cell_volume 3453.554573
_symmetry_space_group_name_H-M "P N M A"
_symmetry_group_IT_number 62
_symmetry_cell_setting 'orthorhombic'
loop_
_space_group_symop_operation_xyz
x,y,z
1/2-x,-y,1/2+z
1/2+x,1/2-y,1/2-z
-x,1/2+y,-z
-x,-y,-z
1/2+x,y,1/2-z
1/2-x,1/2+y,1/2+z
x,1/2-y,z
loop_
_atom_site_type_symbol
_atom_site_label
_atom_site_fract_x
_atom_site_fract_y
_atom_site_fract_z
Si Si1 0.604565 0.594587 0.600570
Si Si2 0.509773 0.585162 0.624126
Si Si3 0.337494 0.409244 0.164269
Si Si4 0.665264 0.086522 0.470872
Si Si5 0.890601 0.414951 0.562948
Si Si6 0.814652 0.409726 0.743075
Si Si7 0.026119 0.079148 0.393590
Si Si8 0.776254 0.586718 0.197974
O O1 0.606566 0.750000 0.545235
O O2 0.558488 0.569292 0.640661
O O3 0.634145 0.592951 0.716475
O O4 0.622481 0.483083 0.508281
O O5 0.500000 0.500000 0.500000
O O6 0.500829 0.750000 0.602899
O O7 0.489374 0.548101 0.754801
O O8 0.325849 0.250000 0.132558
O O9 0.297364 0.496733 0.196328
O O10 0.367116 0.461655 0.058694
O O11 0.660197 0.250000 0.457093
O O12 0.697860 0.058838 0.577311
O O13 0.681636 0.015830 0.351582
O O14 0.903259 0.250000 0.549087
O O15 0.854972 0.420178 0.662543
O O16 0.928640 0.513474 0.593070
O O17 0.812314 0.250000 0.788781
O O18 0.771617 0.438655 0.677385
O O19 0.024771 0.250000 0.408701
O O20 0.000000 0.000000 0.500000
O O21 0.781565 0.750000 0.227598
#
# Coordination Sequence:
#
# PCOD9465593 Si02
#       8
#     8   8   8   8   8   8   8   8
#     4   9  18  36  59  82 111 148 189 229 283 347
#     4  10  23  40  61  89 121 157 199 247 297 359
#     4   9  18  35  61  86 111 149 195 240 285 342
#     4  10  21  36  57  83 113 145 188 240 285 336
#     4  10  22  39  61  87 119 158 198 241 296 353
#     4  10  22  38  56  80 116 156 191 234 291 351
#     4  11  24  43  66  94 127 160 201 252 307 368
#     4   9  20  37  56  82 114 150 192 240 290 340
#
# _framework density 18.531632999999999
#
# number of rings (size 3 to 8) (size 9 to 14) (size 15 to 20)
#    0.000    2.250    0.000    1.500    3.500    5.500 
#    0.000    2.500    0.000    0.000    0.000    0.000 
#    0.000    0.000    0.000    0.000    0.000    0.000 
#
# Total GULP energy -356754.771453 kJ/mol
# GULP energy per Si atom -5574.293304 kJ/mol
# Density = 1.848945 g / cm^3
# Si number density = 18.531633 Si / 1000 Ang^3
#
#
#
# Elastic Constant Matrix: (Units=GPa)
#
#
# Indices 1 2 3 4 5 6 
#
# 1 32.3028 -43.0279 47.6694 0.0000 0.0000 0.0000
# 2 -43.0279 -62.1230 84.3087 0.0000 0.0000 0.0000
# 3 47.6694 84.3087 57.9070 0.0000 0.0000 0.0000
# 4 0.0000 0.0000 0.0000 28.8136 0.0000 0.0000
# 5 0.0000 0.0000 0.0000 0.0000 5.6986 0.0000
# 6 0.0000 0.0000 0.0000 0.0000 0.0000 29.5957
#
#
#
# Elastic Compliance Matrix: (Units=1/GPa)
#
#
# Indices 1 2 3 4 5 6 
#
# 1 0.016277 -0.009899 0.001013 0.000000 0.000000 0.000000
# 2 -0.009899 0.000611 0.007259 0.000000 0.000000 0.000000
# 3 0.001013 0.007259 0.005866 0.000000 0.000000 0.000000
# 4 0.000000 0.000000 0.000000 0.034706 0.000000 0.000000
# 5 0.000000 0.000000 0.000000 0.000000 0.175483 0.000000
# 6 0.000000 0.000000 0.000000 0.000000 0.000000 0.033789
#
#
# Mechanical properties :
#
#
# Convention : Reuss Voigt Hill
#
# Bulk Modulus (GPa) = 51.28041 22.88748 37.08394
# Shear Modulus (GPa) = 18.08420 8.76401 13.42410
#
# Velocity S-wave (km/s) = 3.12726 2.17704 2.69437
# Velocity P-wave (km/s) = 6.38526 4.32396 5.45290
#
# Compressibility (1/GPa) = 0.01950062
#
# Stress axis : x y z
#
# Youngs Moduli (GPa) = 61.43748 1636.84935 170.47252
#
# Poissons Ratio (x) = 16.20296 -0.17269
# Poissons Ratio (y) = 0.60816 -1.23752
# Poissons Ratio (z) = -0.06224 -11.88244
#
# Static dielectric constant tensor:
#      x y z
#    x 1.636480 0.000000 0.000000 
#    y 0.000000 1.635860 0.000000 
#    z 0.000000 0.000000 1.658600 
# 
# From -- ./inp_files/15812.got.cif
#   From: 2010.05.17/outbox.cif.g08.bks.cpg/sg62_8_cif.got.tgz:15812.got - 2010.06.03 15:25:27.
