data_PCOD9465081
_publ_section_title
;
Structure prediction by ZEFSAII (Michael W. Deem and Ramdas Pophale) SiO2 
 PCOD9465081
Probable space group: P N M A
;
_chemical_formula_sum "Si O2"
_cell_formula_units_Z 64
_cell_length_a 30.368178
_cell_length_b 12.802072
_cell_length_c 9.249865
_cell_angle_alpha 90.000000
_cell_angle_beta 90.000000
_cell_angle_gamma 90.000000
_cell_volume 3596.121827
_symmetry_space_group_name_H-M "P N M A"
_symmetry_group_IT_number 62
_symmetry_cell_setting 'orthorhombic'
loop_
_space_group_symop_operation_xyz
x,y,z
1/2-x,-y,1/2+z
1/2+x,1/2-y,1/2-z
-x,1/2+y,-z
-x,-y,-z
1/2+x,y,1/2-z
1/2-x,1/2+y,1/2+z
x,1/2-y,z
loop_
_atom_site_type_symbol
_atom_site_label
_atom_site_fract_x
_atom_site_fract_y
_atom_site_fract_z
Si Si1 0.430835 0.128155 0.660543
Si Si2 0.069315 0.871506 0.817970
Si Si3 0.690039 0.127059 0.577277
Si Si4 0.485782 0.970024 0.839904
Si Si5 0.396198 0.868860 0.927920
Si Si6 0.352423 0.493491 0.170839
Si Si7 0.704675 0.872303 0.068257
Si Si8 0.156026 0.490247 0.205021
O O1 0.427729 0.250000 0.699187
O O2 0.438230 0.118965 0.489322
O O3 0.385598 0.067478 0.691457
O O4 0.468437 0.069873 0.750947
O O5 0.072646 0.750000 0.780470
O O6 0.027227 0.919631 0.738790
O O7 0.114599 0.925993 0.769475
O O8 0.676744 0.250000 0.573925
O O9 0.674696 0.072310 0.726451
O O10 0.742681 0.123574 0.556485
O O11 0.669949 0.059079 0.446423
O O12 0.443543 0.894948 0.858956
O O13 0.500000 0.000000 0.000000
O O14 0.394360 0.750000 0.974332
O O15 0.359796 0.895908 0.807568
O O16 0.384133 0.943548 0.061095
O O17 0.320418 0.423372 0.069573
O O18 0.691731 0.750000 0.083296
O O19 0.691516 0.941228 0.207940
#
# Coordination Sequence:
#
# PCOD9465081 Si02
#       8
#     8   8   8   8   8   8   8   8
#     4  10  22  39  61  85 117 155 196 240 287 348
#     4  11  22  39  60  85 119 155 194 238 288 348
#     4  11  22  38  60  87 119 155 197 245 301 357
#     4  11  22  39  58  87 118 150 191 240 289 342
#     4  10  21  37  57  82 114 154 196 238 289 345
#     4  11  21  39  60  86 120 155 198 245 292 349
#     4  10  22  38  59  88 119 155 196 244 301 355
#     4  10  20  38  60  83 118 152 197 241 293 348
#
# _framework density 17.796951
#
# number of rings (size 3 to 8) (size 9 to 14) (size 15 to 20)
#    0.000    1.500    2.500    3.000    0.000    1.000 
#    0.000    0.000    0.000    6.000    0.000    0.000 
#    0.000    0.000    0.000    0.000    0.000    0.000 
#
# Total GULP energy -357218.493673 kJ/mol
# GULP energy per Si atom -5581.538964 kJ/mol
# Density = 1.775644 g / cm^3
# Si number density = 17.796951 Si / 1000 Ang^3
#
#
#
# Elastic Constant Matrix: (Units=GPa)
#
#
# Indices 1 2 3 4 5 6 
#
# 1 75.0643 43.2131 21.0931 0.0000 0.0000 0.0000
# 2 43.2131 112.1894 33.6525 0.0000 0.0000 0.0000
# 3 21.0931 33.6525 61.4734 0.0000 0.0000 0.0000
# 4 0.0000 0.0000 0.0000 17.6725 0.0000 0.0000
# 5 0.0000 0.0000 0.0000 0.0000 27.9792 0.0000
# 6 0.0000 0.0000 0.0000 0.0000 0.0000 22.5214
#
#
#
# Elastic Compliance Matrix: (Units=1/GPa)
#
#
# Indices 1 2 3 4 5 6 
#
# 1 0.017503 -0.005911 -0.002770 0.000000 0.000000 0.000000
# 2 -0.005911 0.012661 -0.004903 0.000000 0.000000 0.000000
# 3 -0.002770 -0.004903 0.019902 0.000000 0.000000 0.000000
# 4 0.000000 0.000000 0.000000 0.056585 0.000000 0.000000
# 5 0.000000 0.000000 0.000000 0.000000 0.035741 0.000000
# 6 0.000000 0.000000 0.000000 0.000000 0.000000 0.044402
#
#
# Mechanical properties :
#
#
# Convention : Reuss Voigt Hill
#
# Bulk Modulus (GPa) = 43.67146 49.40496 46.53821
# Shear Modulus (GPa) = 22.56382 23.68586 23.12484
#
# Velocity S-wave (km/s) = 3.56455 3.65210 3.60859
# Velocity P-wave (km/s) = 6.44464 6.75310 6.60067
#
# Compressibility (1/GPa) = 0.02289825
#
# Stress axis : x y z
#
# Youngs Moduli (GPa) = 57.13272 78.98310 50.24730
#
# Poissons Ratio (x) = 0.46687 0.13918
# Poissons Ratio (y) = 0.33771 0.24635
# Poissons Ratio (z) = 0.15825 0.38724
#
# Static dielectric constant tensor:
#      x y z
#    x 1.611220 0.000000 0.000000 
#    y 0.000000 1.593400 0.000000 
#    z 0.000000 0.000000 1.601240 
# 
# From -- ./inp_files/10453.got.cif
#   From: 2010.05.17/outbox.cif.g08.bks.cpg/sg62_6_cif.got.tgz:10453.got - 2010.06.03 15:25:27.
