data_PCOD9465489
_publ_section_title
;
Structure prediction by ZEFSAII (Michael W. Deem and Ramdas Pophale) SiO2 
 PCOD9465489
Probable space group: P N M A
;
_chemical_formula_sum "Si O2"
_cell_formula_units_Z 48
_cell_length_a 7.099548
_cell_length_b 32.459949
_cell_length_c 8.912991
_cell_angle_alpha 90.000000
_cell_angle_beta 90.000000
_cell_angle_gamma 90.000000
_cell_volume 2054.007386
_symmetry_space_group_name_H-M "P N M A"
_symmetry_group_IT_number 62
_symmetry_cell_setting 'orthorhombic'
loop_
_space_group_symop_operation_xyz
x,y,z
1/2-x,-y,1/2+z
1/2+x,1/2-y,1/2-z
-x,1/2+y,-z
-x,-y,-z
1/2+x,y,1/2-z
1/2-x,1/2+y,1/2+z
x,1/2-y,z
loop_
_atom_site_type_symbol
_atom_site_label
_atom_site_fract_x
_atom_site_fract_y
_atom_site_fract_z
Si Si1 0.688425 0.876873 0.629153
Si Si2 0.747350 0.959036 0.473107
Si Si3 0.745503 0.376814 0.472179
Si Si4 0.748116 0.204488 0.973117
Si Si5 0.817751 0.704416 0.128000
Si Si6 0.686367 0.041225 0.628988
O O1 0.789203 0.917320 0.563184
O O2 0.480086 0.876311 0.557971
O O3 0.669802 0.880012 0.807094
O O4 0.785904 0.834115 0.580782
O O5 0.832223 0.959796 0.307415
O O6 0.522100 0.958763 0.441822
O O7 0.786466 0.000080 0.568124
O O8 0.788587 0.333895 0.554244
O O9 0.783612 0.416671 0.573967
O O10 0.693526 0.250000 0.030678
O O11 0.665517 0.198074 0.806510
O O12 0.973362 0.205685 0.941466
O O13 0.731933 0.750000 0.105553
#
# Coordination Sequence:
#
# PCOD9465489 Si02
#       6
#     8   8   8   8   8   8
#     4  10  21  35  51  74 103 133 167 206 247 294
#     4  10  21  36  54  77 103 131 166 206 247 294
#     4  10  21  35  51  74 103 133 167 206 247 294
#     4   9  18  33  52  74 100 130 166 207 249 295
#     4   9  18  33  52  74 100 130 166 207 249 295
#     4  10  21  36  54  77 103 131 166 206 247 294
#
# _framework density 23.368950000000002
#
# number of rings (size 3 to 8) (size 9 to 14) (size 15 to 20)
#    0.000    2.333    0.000    2.000    0.000    4.000 
#    0.000    0.000    0.000    0.000    0.000    0.000 
#    0.000    0.000    0.000    0.000    0.000    0.000 
#
# Total GULP energy -268536.528285 kJ/mol
# GULP energy per Si atom -5594.511006 kJ/mol
# Density = 2.331576 g / cm^3
# Si number density = 23.368950 Si / 1000 Ang^3
#
#
#
# Elastic Constant Matrix: (Units=GPa)
#
#
# Indices 1 2 3 4 5 6 
#
# 1 53.4851 25.6098 5.1767 0.0000 0.0000 0.0000
# 2 25.6098 244.6083 125.7147 0.0000 0.0000 0.0000
# 3 5.1767 125.7147 131.4949 0.0000 0.0000 0.0000
# 4 0.0000 0.0000 0.0000 64.5824 0.0000 0.0000
# 5 0.0000 0.0000 0.0000 0.0000 -22.6877 0.0000
# 6 0.0000 0.0000 0.0000 0.0000 0.0000 -7.4135
#
#
#
# Elastic Compliance Matrix: (Units=1/GPa)
#
#
# Indices 1 2 3 4 5 6 
#
# 1 0.020060 -0.003331 0.002395 0.000000 0.000000 0.000000
# 2 -0.003331 0.008590 -0.008082 0.000000 0.000000 0.000000
# 3 0.002395 -0.008082 0.015237 0.000000 0.000000 0.000000
# 4 0.000000 0.000000 0.000000 0.015484 0.000000 0.000000
# 5 0.000000 0.000000 0.000000 0.000000 -0.044077 0.000000
# 6 0.000000 0.000000 0.000000 0.000000 0.000000 -0.134888
#
#
# Mechanical properties :
#
#
# Convention : Reuss Voigt Hill
#
# Bulk Modulus (GPa) = 38.68209 82.51006 60.59608
# Shear Modulus (GPa) = -53.79789 25.10203 -14.34793
#
# Velocity S-wave (km/s) = -4.80324 3.28100 -2.48054
# Velocity P-wave (km/s) = 3.76467 7.05248 4.21691
#
# Compressibility (1/GPa) = 0.02585175
#
# Stress axis : x y z
#
# Youngs Moduli (GPa) = 49.85048 116.40832 65.62967
#
# Poissons Ratio (x) = 0.38776 -0.15718
# Poissons Ratio (y) = 0.16606 0.53040
# Poissons Ratio (z) = -0.11939 0.94078
#
# Static dielectric constant tensor:
#      x y z
#    x 1.945180 0.000000 0.000000 
#    y 0.000000 1.875170 0.000000 
#    z 0.000000 0.000000 1.783330 
# 
# From -- ./inp_files/4496.got.cif
#   From: 2010.05.17/outbox.cif.g08.bks.cpg/sg62_3_cif.got.tgz:4496.got - 2010.06.03 15:25:27.
