data_PCOD9465033
_publ_section_title
;
Structure prediction by ZEFSAII (Michael W. Deem and Ramdas Pophale) SiO2 
 PCOD9465033
Probable space group: P N M A
;
_chemical_formula_sum "Si O2"
_cell_formula_units_Z 64
_cell_length_a 15.771041
_cell_length_b 8.102855
_cell_length_c 24.707263
_cell_angle_alpha 90.000000
_cell_angle_beta 90.000000
_cell_angle_gamma 90.000000
_cell_volume 3157.352465
_symmetry_space_group_name_H-M "P N M A"
_symmetry_group_IT_number 62
_symmetry_cell_setting 'orthorhombic'
loop_
_space_group_symop_operation_xyz
x,y,z
1/2-x,-y,1/2+z
1/2+x,1/2-y,1/2-z
-x,1/2+y,-z
-x,-y,-z
1/2+x,y,1/2-z
1/2-x,1/2+y,1/2+z
x,1/2-y,z
loop_
_atom_site_type_symbol
_atom_site_label
_atom_site_fract_x
_atom_site_fract_y
_atom_site_fract_z
Si Si1 0.145631 0.438931 0.114026
Si Si2 0.096565 0.560383 0.998871
Si Si3 0.245840 0.049038 0.427840
Si Si4 0.826391 0.938542 0.379723
Si Si5 0.407918 0.951729 0.729914
Si Si6 0.908921 0.450044 0.272088
Si Si7 0.248729 0.951181 0.802453
Si Si8 0.597123 0.553957 0.991877
O O1 0.118197 0.250000 0.104189
O O2 0.130077 0.538634 0.059697
O O3 0.245282 0.444739 0.126264
O O4 0.101455 0.505602 0.167847
O O5 0.091643 0.750000 0.983086
O O6 0.169288 0.487351 0.959318
O O7 0.000000 0.500000 0.000000
O O8 0.245347 0.250000 0.429426
O O9 0.247432 0.996547 0.365055
O O10 0.161598 0.992149 0.459614
O O11 0.796897 0.750000 0.376174
O O12 0.888472 0.977636 0.330595
O O13 0.868286 0.969053 0.437574
O O14 0.404406 0.750000 0.728516
O O15 0.498229 0.000859 0.753103
O O16 0.329920 0.006319 0.767451
O O17 0.906949 0.250000 0.275537
O O18 0.836342 0.500855 0.229348
O O19 0.249677 0.750000 0.802976
O O20 0.599886 0.750000 0.984370
O O21 0.500000 0.500000 0.000000
#
# Coordination Sequence:
#
# PCOD9465033 Si02
#       8
#     8   8   8   8   8   8   8   8
#     4  11  21  39  66  92 120 159 209 261 312 369
#     4  11  24  40  61  91 127 167 212 262 315 372
#     4  10  22  40  63  91 127 166 210 259 311 370
#     4  12  24  41  63  91 126 162 205 257 311 370
#     4   9  19  34  60  93 118 151 203 252 301 366
#     4  10  20  37  63  91 119 159 206 251 301 360
#     4   9  18  35  58  88 122 158 202 249 297 361
#     4  12  26  44  67  93 124 163 208 259 313 374
#
# _framework density 20.270147999999999
#
# number of rings (size 3 to 8) (size 9 to 14) (size 15 to 20)
#    0.000    1.500    2.500    3.000    3.500    0.500 
#    0.000    1.875    0.000    0.000    0.000    0.000 
#    0.000    0.000    0.000    0.000    0.000    0.000 
#
# Total GULP energy -357554.344551 kJ/mol
# GULP energy per Si atom -5586.786634 kJ/mol
# Density = 2.022401 g / cm^3
# Si number density = 20.270148 Si / 1000 Ang^3
#
#
#
# Elastic Constant Matrix: (Units=GPa)
#
#
# Indices 1 2 3 4 5 6 
#
# 1 89.5222 3.5456 8.4190 0.0000 0.0000 0.0000
# 2 3.5456 32.6867 -3.0587 0.0000 0.0000 0.0000
# 3 8.4190 -3.0587 90.4865 0.0000 0.0000 0.0000
# 4 0.0000 0.0000 0.0000 24.2149 0.0000 0.0000
# 5 0.0000 0.0000 0.0000 0.0000 35.4465 0.0000
# 6 0.0000 0.0000 0.0000 0.0000 0.0000 20.4413
#
#
#
# Elastic Compliance Matrix: (Units=1/GPa)
#
#
# Indices 1 2 3 4 5 6 
#
# 1 0.011326 -0.001331 -0.001099 0.000000 0.000000 0.000000
# 2 -0.001331 0.030847 0.001167 0.000000 0.000000 0.000000
# 3 -0.001099 0.001167 0.011193 0.000000 0.000000 0.000000
# 4 0.000000 0.000000 0.000000 0.041297 0.000000 0.000000
# 5 0.000000 0.000000 0.000000 0.000000 0.028212 0.000000
# 6 0.000000 0.000000 0.000000 0.000000 0.000000 0.048921
#
#
# Mechanical properties :
#
#
# Convention : Reuss Voigt Hill
#
# Bulk Modulus (GPa) = 19.66985 25.61191 22.64088
# Shear Modulus (GPa) = 26.14116 29.60651 27.87384
#
# Velocity S-wave (km/s) = 3.59505 3.82592 3.71228
# Velocity P-wave (km/s) = 5.19205 5.67271 5.43769
#
# Compressibility (1/GPa) = 0.05083922
#
# Stress axis : x y z
#
# Youngs Moduli (GPa) = 88.28859 32.41804 89.34120
#
# Poissons Ratio (x) = 0.04316 0.09817
# Poissons Ratio (y) = 0.11755 -0.10423
# Poissons Ratio (z) = 0.09702 -0.03782
#
# Static dielectric constant tensor:
#      x y z
#    x 1.720710 0.000000 0.000000 
#    y 0.000000 1.714760 0.000000 
#    z 0.000000 0.000000 0.582280 
# 
# From -- ./inp_files/29896.got.cif
#   From: 2010.05.17/outbox.cif.g08.bks.cpg/sg62_15_cif.got.tgz:29896.got - 2010.06.03 15:25:27.
