data_PCOD9465296
_publ_section_title
;
Structure prediction by ZEFSAII (Michael W. Deem and Ramdas Pophale) SiO2 
 PCOD9465296
Probable space group: P N M A
;
_chemical_formula_sum "Si O2"
_cell_formula_units_Z 48
_cell_length_a 15.588023
_cell_length_b 15.012378
_cell_length_c 11.128225
_cell_angle_alpha 90.000000
_cell_angle_beta 90.000000
_cell_angle_gamma 90.000000
_cell_volume 2604.152584
_symmetry_space_group_name_H-M "P N M A"
_symmetry_group_IT_number 62
_symmetry_cell_setting 'orthorhombic'
loop_
_space_group_symop_operation_xyz
x,y,z
1/2-x,-y,1/2+z
1/2+x,1/2-y,1/2-z
-x,1/2+y,-z
-x,-y,-z
1/2+x,y,1/2-z
1/2-x,1/2+y,1/2+z
x,1/2-y,z
loop_
_atom_site_type_symbol
_atom_site_label
_atom_site_fract_x
_atom_site_fract_y
_atom_site_fract_z
Si Si1 0.034012 0.144527 0.580212
Si Si2 0.285869 0.855004 0.948990
Si Si3 0.732958 0.147220 0.327250
Si Si4 0.356030 0.002594 0.518499
Si Si5 0.485903 0.519460 0.308953
Si Si6 0.938617 0.353216 0.337776
O O1 0.027286 0.250000 0.606596
O O2 0.128140 0.127693 0.524345
O O3 0.019194 0.086430 0.697728
O O4 0.967411 0.123622 0.473091
O O5 0.264050 0.750000 0.960230
O O6 0.300474 0.871738 0.807347
O O7 0.209557 0.917904 0.992059
O O8 0.712833 0.250000 0.356809
O O9 0.693669 0.079176 0.421290
O O10 0.836292 0.138500 0.324524
O O11 0.404255 0.973211 0.396993
O O12 0.429985 0.032835 0.610875
O O13 0.483177 0.419958 0.254340
O O14 0.963119 0.250000 0.316755
#
# Coordination Sequence:
#
# PCOD9465296 Si02
#       6
#     8   8   8   8   8   8
#     4  10  22  40  62  87 117 156 198 244 296 350
#     4  10  21  40  63  86 116 156 201 247 297 350
#     4  10  21  39  62  88 117 152 200 248 291 351
#     4  11  24  37  59  88 119 159 195 240 300 355
#     4  11  23  39  57  87 123 155 194 242 298 353
#     4  10  20  39  64  87 115 154 201 244 286 347
#
# _framework density 18.432099000000001
#
# number of rings (size 3 to 8) (size 9 to 14) (size 15 to 20)
#    0.000    1.667    1.667    2.500    0.000    4.667 
#    0.000    3.333    0.000    0.000    0.000    0.000 
#    0.000    0.000    0.000    0.000    0.000    0.000 
#
# Total GULP energy -268277.205727 kJ/mol
# GULP energy per Si atom -5589.108453 kJ/mol
# Density = 1.839015 g / cm^3
# Si number density = 18.432099 Si / 1000 Ang^3
#
#
#
# Elastic Constant Matrix: (Units=GPa)
#
#
# Indices 1 2 3 4 5 6 
#
# 1 31.4381 20.3569 17.0928 0.0000 0.0000 0.0000
# 2 20.3569 65.8157 51.7725 0.0000 0.0000 0.0000
# 3 17.0928 51.7725 102.7066 0.0000 0.0000 0.0000
# 4 0.0000 0.0000 0.0000 26.0218 0.0000 0.0000
# 5 0.0000 0.0000 0.0000 0.0000 23.4906 0.0000
# 6 0.0000 0.0000 0.0000 0.0000 0.0000 18.6076
#
#
#
# Elastic Compliance Matrix: (Units=1/GPa)
#
#
# Indices 1 2 3 4 5 6 
#
# 1 0.039804 -0.011766 -0.000693 0.000000 0.000000 0.000000
# 2 -0.011766 0.028656 -0.012487 0.000000 0.000000 0.000000
# 3 -0.000693 -0.012487 0.016146 0.000000 0.000000 0.000000
# 4 0.000000 0.000000 0.000000 0.038429 0.000000 0.000000
# 5 0.000000 0.000000 0.000000 0.000000 0.042570 0.000000
# 6 0.000000 0.000000 0.000000 0.000000 0.000000 0.053741
#
#
# Mechanical properties :
#
#
# Convention : Reuss Voigt Hill
#
# Bulk Modulus (GPa) = 28.80684 42.04498 35.42591
# Shear Modulus (GPa) = 17.80560 21.00655 19.40608
#
# Velocity S-wave (km/s) = 3.11144 3.37957 3.24827
# Velocity P-wave (km/s) = 5.34515 6.17162 5.77319
#
# Compressibility (1/GPa) = 0.03471397
#
# Stress axis : x y z
#
# Youngs Moduli (GPa) = 25.12283 34.89721 61.93444
#
# Poissons Ratio (x) = 0.41061 0.04294
# Poissons Ratio (y) = 0.29560 0.77335
# Poissons Ratio (z) = 0.01742 0.43575
#
# Static dielectric constant tensor:
#      x y z
#    x 1.628740 0.000000 0.000000 
#    y 0.000000 1.619160 0.000000 
#    z 0.000000 0.000000 1.605640 
# 
# From -- ./inp_files/13243.got.cif
#   From: 2010.05.17/outbox.cif.g08.bks.cpg/sg62_7_cif.got.tgz:13243.got - 2010.06.03 15:25:27.
