data_PCOD9465223
_publ_section_title
;
Structure prediction by ZEFSAII (Michael W. Deem and Ramdas Pophale) SiO2 
 PCOD9465223
Probable space group: P N M A
;
_chemical_formula_sum "Si O2"
_cell_formula_units_Z 48
_cell_length_a 12.191861
_cell_length_b 22.037749
_cell_length_c 8.940855
_cell_angle_alpha 90.000000
_cell_angle_beta 90.000000
_cell_angle_gamma 90.000000
_cell_volume 2402.239405
_symmetry_space_group_name_H-M "P N M A"
_symmetry_group_IT_number 62
_symmetry_cell_setting 'orthorhombic'
loop_
_space_group_symop_operation_xyz
x,y,z
1/2-x,-y,1/2+z
1/2+x,1/2-y,1/2-z
-x,1/2+y,-z
-x,-y,-z
1/2+x,y,1/2-z
1/2-x,1/2+y,1/2+z
x,1/2-y,z
loop_
_atom_site_type_symbol
_atom_site_label
_atom_site_fract_x
_atom_site_fract_y
_atom_site_fract_z
Si Si1 0.543396 0.063069 0.571944
Si Si2 0.818560 0.633587 0.573113
Si Si3 0.258453 0.090297 0.106528
Si Si4 0.097107 0.023948 0.606164
Si Si5 0.441319 0.318016 0.096213
Si Si6 0.416047 0.181690 0.456671
O O1 0.666273 0.072445 0.510902
O O2 0.545243 0.054934 0.749261
O O3 0.476351 0.123396 0.526231
O O4 0.500000 0.000000 0.500000
O O5 0.799554 0.619514 0.748659
O O6 0.827737 0.570546 0.485044
O O7 0.714131 0.672062 0.521738
O O8 0.935885 0.664819 0.551119
O O9 0.348423 0.136282 0.040983
O O10 0.328228 0.032161 0.157389
O O11 0.000000 0.000000 0.500000
O O12 0.414914 0.250000 0.050131
O O13 0.436788 0.321324 0.277605
O O14 0.448951 0.250000 0.506165
#
# Coordination Sequence:
#
# PCOD9465223 Si02
#       6
#     8   8   8   8   8   8
#     4  12  24  42  67  96 132 171 217 272 327 391
#     4  11  21  41  63  94 127 166 218 266 325 391
#     4  11  22  40  64  96 127 164 215 271 327 385
#     4  12  24  40  66  93 132 165 212 271 328 390
#     4  10  20  38  66  95 125 167 217 267 316 386
#     4  10  22  40  65  96 130 171 216 268 328 391
#
# _framework density 19.981355000000001
#
# number of rings (size 3 to 8) (size 9 to 14) (size 15 to 20)
#    0.000    1.000    3.333    5.500    0.000    2.667 
#    0.000    1.667    0.000    0.000    0.000    0.000 
#    0.000    0.000    0.000    0.000    0.000    0.000 
#
# Total GULP energy -268277.481310 kJ/mol
# GULP energy per Si atom -5589.114194 kJ/mol
# Density = 1.993588 g / cm^3
# Si number density = 19.981355 Si / 1000 Ang^3
#
#
#
# Elastic Constant Matrix: (Units=GPa)
#
#
# Indices 1 2 3 4 5 6 
#
# 1 116.5438 60.7387 17.1556 0.0000 0.0000 0.0000
# 2 60.7387 140.9210 9.2986 0.0000 0.0000 0.0000
# 3 17.1556 9.2986 47.3427 0.0000 0.0000 0.0000
# 4 0.0000 0.0000 0.0000 20.6416 0.0000 0.0000
# 5 0.0000 0.0000 0.0000 0.0000 19.7494 0.0000
# 6 0.0000 0.0000 0.0000 0.0000 0.0000 34.0791
#
#
#
# Elastic Compliance Matrix: (Units=1/GPa)
#
#
# Indices 1 2 3 4 5 6 
#
# 1 0.011539 -0.004759 -0.003247 0.000000 0.000000 0.000000
# 2 -0.004759 0.009152 -0.000073 0.000000 0.000000 0.000000
# 3 -0.003247 -0.000073 0.022313 0.000000 0.000000 0.000000
# 4 0.000000 0.000000 0.000000 0.048446 0.000000 0.000000
# 5 0.000000 0.000000 0.000000 0.000000 0.050634 0.000000
# 6 0.000000 0.000000 0.000000 0.000000 0.000000 0.029344
#
#
# Mechanical properties :
#
#
# Convention : Reuss Voigt Hill
#
# Bulk Modulus (GPa) = 37.24822 53.24371 45.24597
# Shear Modulus (GPa) = 25.44088 29.40168 27.42128
#
# Velocity S-wave (km/s) = 3.57211 3.84012 3.70853
# Velocity P-wave (km/s) = 5.97455 6.80930 6.40554
#
# Compressibility (1/GPa) = 0.02684692
#
# Stress axis : x y z
#
# Youngs Moduli (GPa) = 86.66543 109.26319 44.81621
#
# Poissons Ratio (x) = 0.51999 0.14550
# Poissons Ratio (y) = 0.41245 0.00327
# Poissons Ratio (z) = 0.28136 0.00798
#
# Static dielectric constant tensor:
#      x y z
#    x 1.697930 0.000000 0.000000 
#    y 0.000000 1.736860 0.000000 
#    z 0.000000 0.000000 1.686320 
# 
# From -- ./inp_files/5319.got.cif
#   From: 2010.05.17/outbox.cif.g08.bks.cpg/sg62_3_cif.got.tgz:5319.got - 2010.06.03 15:25:27.
