data_PCOD9465841
_publ_section_title
;
Structure prediction by ZEFSAII (Michael W. Deem and Ramdas Pophale) SiO2 
 PCOD9465841
Probable space group: P N M A
;
_chemical_formula_sum "Si O2"
_cell_formula_units_Z 40
_cell_length_a 7.987746
_cell_length_b 9.907350
_cell_length_c 24.247589
_cell_angle_alpha 90.000000
_cell_angle_beta 90.000000
_cell_angle_gamma 90.000000
_cell_volume 1918.891037
_symmetry_space_group_name_H-M "P N M A"
_symmetry_group_IT_number 62
_symmetry_cell_setting 'orthorhombic'
loop_
_space_group_symop_operation_xyz
x,y,z
1/2-x,-y,1/2+z
1/2+x,1/2-y,1/2-z
-x,1/2+y,-z
-x,-y,-z
1/2+x,y,1/2-z
1/2-x,1/2+y,1/2+z
x,1/2-y,z
loop_
_atom_site_type_symbol
_atom_site_label
_atom_site_fract_x
_atom_site_fract_y
_atom_site_fract_z
Si Si1 0.254763 0.250000 0.886308
Si Si2 0.351897 0.465255 0.358201
Si Si3 0.239214 0.250000 0.444326
Si Si4 0.874988 0.250000 0.336081
Si Si5 0.780380 0.532459 0.912015
Si Si6 0.894782 0.750000 0.996256
Si Si7 0.765412 0.750000 0.721981
Si Si8 0.385214 0.750000 0.057243
O O1 0.220421 0.385920 0.853291
O O2 0.437535 0.250000 0.912795
O O3 0.130832 0.250000 0.939026
O O4 0.250633 0.379913 0.404874
O O5 0.542365 0.470563 0.379814
O O6 0.329910 0.379862 0.302790
O O7 0.411755 0.250000 0.479020
O O8 0.097511 0.250000 0.490525
O O9 0.844917 0.379707 0.374467
O O10 0.737908 0.250000 0.287451
O O11 0.050826 0.250000 0.304774
O O12 0.814581 0.618042 0.967699
O O13 0.711567 0.385614 0.925431
#
# Coordination Sequence:
#
# PCOD9465841 Si02
#       8
#     4   8   4   4   8   4   4   4
#     4  12  23  33  51  83 119 151 185 230 279 324
#     4  10  21  38  58  81 111 149 190 229 274 327
#     4   9  19  35  55  78 109 152 194 227 269 328
#     4  11  22  40  64  87 110 139 180 227 277 332
#     4  10  21  38  58  81 111 149 190 229 274 327
#     4   9  19  35  55  78 109 152 194 227 269 328
#     4  11  22  40  64  87 110 139 180 227 277 332
#     4  12  23  33  51  83 119 151 185 230 279 324
#
# _framework density 20.845374
#
# number of rings (size 3 to 8) (size 9 to 14) (size 15 to 20)
#    0.000    1.600    0.000    7.200    0.000    9.600 
#    0.000    1.000    0.000    0.000    0.000    0.000 
#    0.000    0.000    0.000    0.000    0.000    0.000 
#
# Total GULP energy -223901.054246 kJ/mol
# GULP energy per Si atom -5597.526356 kJ/mol
# Density = 2.079793 g / cm^3
# Si number density = 20.845374 Si / 1000 Ang^3
#
#
#
# Elastic Constant Matrix: (Units=GPa)
#
#
# Indices 1 2 3 4 5 6 
#
# 1 65.3376 17.6685 -7.5414 0.0000 0.0000 0.0000
# 2 17.6685 172.5158 27.0008 0.0000 0.0000 0.0000
# 3 -7.5414 27.0008 61.9120 0.0000 0.0000 0.0000
# 4 0.0000 0.0000 0.0000 -2.1062 0.0000 0.0000
# 5 0.0000 0.0000 0.0000 0.0000 33.0952 0.0000
# 6 0.0000 0.0000 0.0000 0.0000 0.0000 -126.9968
#
#
#
# Elastic Compliance Matrix: (Units=1/GPa)
#
#
# Indices 1 2 3 4 5 6 
#
# 1 0.016211 -0.002114 0.002896 0.000000 0.000000 0.000000
# 2 -0.002114 0.006497 -0.003091 0.000000 0.000000 0.000000
# 3 0.002896 -0.003091 0.017853 0.000000 0.000000 0.000000
# 4 0.000000 0.000000 0.000000 -0.474794 0.000000 0.000000
# 5 0.000000 0.000000 0.000000 0.000000 0.030216 0.000000
# 6 0.000000 0.000000 0.000000 0.000000 0.000000 -0.007874
#
#
# Mechanical properties :
#
#
# Convention : Reuss Voigt Hill
#
# Bulk Modulus (GPa) = 27.82068 41.55791 34.68930
# Shear Modulus (GPa) = -12.64879 -1.69238 -7.17058
#
# Velocity S-wave (km/s) = -2.46599 -0.90202 -1.85671
# Velocity P-wave (km/s) = 2.29501 4.34680 3.47576
#
# Compressibility (1/GPa) = 0.03594448
#
# Stress axis : x y z
#
# Youngs Moduli (GPa) = 61.68656 153.92231 56.01391
#
# Poissons Ratio (x) = 0.32533 -0.16224
# Poissons Ratio (y) = 0.13038 0.17313
# Poissons Ratio (z) = -0.17867 0.47574
#
# Static dielectric constant tensor:
#      x y z
#    x 1.794120 0.000000 0.000000 
#    y 0.000000 1.719420 0.000000 
#    z 0.000000 0.000000 1.711900 
# 
# From -- ./inp_files/28674.got.cif
#   From: 2010.05.17/outbox.cif.g08.bks.cpg/sg62_15_cif.got.tgz:28674.got - 2010.06.03 15:25:27.
