data_PCOD9465976
_publ_section_title
;
Structure prediction by ZEFSAII (Michael W. Deem and Ramdas Pophale) SiO2 
 PCOD9465976
Probable space group: P N M A
;
_chemical_formula_sum "Si O2"
_cell_formula_units_Z 48
_cell_length_a 19.161427
_cell_length_b 8.690542
_cell_length_c 15.337889
_cell_angle_alpha 90.000000
_cell_angle_beta 90.000000
_cell_angle_gamma 90.000000
_cell_volume 2554.114145
_symmetry_space_group_name_H-M "P N M A"
_symmetry_group_IT_number 62
_symmetry_cell_setting 'orthorhombic'
loop_
_space_group_symop_operation_xyz
x,y,z
1/2-x,-y,1/2+z
1/2+x,1/2-y,1/2-z
-x,1/2+y,-z
-x,-y,-z
1/2+x,y,1/2-z
1/2-x,1/2+y,1/2+z
x,1/2-y,z
loop_
_atom_site_type_symbol
_atom_site_label
_atom_site_fract_x
_atom_site_fract_y
_atom_site_fract_z
Si Si1 0.740626 0.564609 0.199650
Si Si2 0.437091 0.063864 0.557754
Si Si3 0.672457 0.436154 0.869038
Si Si4 0.285951 0.435457 0.485645
Si Si5 0.918575 0.063707 0.742168
Si Si6 0.479772 0.433199 0.094240
O O1 0.740662 0.750000 0.194986
O O2 0.792590 0.520079 0.277402
O O3 0.765888 0.498418 0.108395
O O4 0.661559 0.517797 0.223366
O O5 0.439223 0.250000 0.555707
O O6 0.362350 0.014442 0.518293
O O7 0.439898 0.017461 0.659582
O O8 0.500000 0.000000 0.500000
O O9 0.664667 0.250000 0.870864
O O10 0.598163 0.512512 0.883410
O O11 0.726817 0.480337 0.944764
O O12 0.286835 0.250000 0.482999
O O13 0.921950 0.250000 0.738150
O O14 0.968392 0.995473 0.668576
O O15 0.483745 0.250000 0.090940
O O16 0.500000 0.500000 0.000000
#
# Coordination Sequence:
#
# PCOD9465976 Si02
#       6
#     8   8   8   8   8   8
#     4  10  21  38  63  90 117 156 201 246 298 358
#     4  10  22  40  61  87 122 163 202 248 301 360
#     4  10  21  41  64  88 121 160 200 246 304 362
#     4  10  21  39  62  88 121 157 196 249 303 355
#     4  10  21  42  66  89 123 165 205 247 302 364
#     4  12  26  42  62  91 124 160 202 253 305 362
#
# _framework density 18.793209999999998
#
# number of rings (size 3 to 8) (size 9 to 14) (size 15 to 20)
#    0.000    1.667    1.667    2.500    2.333    6.000 
#    0.000    0.000    0.000    0.000    0.000    0.000 
#    0.000    0.000    0.000    0.000    0.000    0.000 
#
# Total GULP energy -268281.775977 kJ/mol
# GULP energy per Si atom -5589.203666 kJ/mol
# Density = 1.875044 g / cm^3
# Si number density = 18.793210 Si / 1000 Ang^3
#
#
#
# Elastic Constant Matrix: (Units=GPa)
#
#
# Indices 1 2 3 4 5 6 
#
# 1 155.5667 44.7338 96.7010 0.0000 0.0000 0.0000
# 2 44.7338 31.7845 47.4898 0.0000 0.0000 0.0000
# 3 96.7010 47.4898 206.7106 0.0000 0.0000 0.0000
# 4 0.0000 0.0000 0.0000 36.4944 0.0000 0.0000
# 5 0.0000 0.0000 0.0000 0.0000 41.0508 0.0000
# 6 0.0000 0.0000 0.0000 0.0000 0.0000 24.7033
#
#
#
# Elastic Compliance Matrix: (Units=1/GPa)
#
#
# Indices 1 2 3 4 5 6 
#
# 1 0.011623 -0.012538 -0.002557 0.000000 0.000000 0.000000
# 2 -0.012538 0.061431 -0.008248 0.000000 0.000000 0.000000
# 3 -0.002557 -0.008248 0.007929 0.000000 0.000000 0.000000
# 4 0.000000 0.000000 0.000000 0.027401 0.000000 0.000000
# 5 0.000000 0.000000 0.000000 0.000000 0.024360 0.000000
# 6 0.000000 0.000000 0.000000 0.000000 0.000000 0.040480
#
#
# Mechanical properties :
#
#
# Convention : Reuss Voigt Hill
#
# Bulk Modulus (GPa) = 29.15666 85.76789 57.46228
# Shear Modulus (GPa) = 21.61304 34.12553 27.86929
#
# Velocity S-wave (km/s) = 3.39491 4.26589 3.85508
# Velocity P-wave (km/s) = 5.56016 8.36664 7.10338
#
# Compressibility (1/GPa) = 0.03429748
#
# Stress axis : x y z
#
# Youngs Moduli (GPa) = 86.03855 16.27839 126.12504
#
# Poissons Ratio (x) = 0.20410 0.32247
# Poissons Ratio (y) = 1.07873 1.04027
# Poissons Ratio (z) = 0.21998 0.13426
#
# Static dielectric constant tensor:
#      x y z
#    x 1.622420 0.000000 0.000000 
#    y 0.000000 1.642260 0.000000 
#    z 0.000000 0.000000 1.615210 
# 
# From -- ./inp_files/19574.got.cif
#   From: 2010.05.17/outbox.cif.g08.bks.cpg/sg62_10_cif.got.tgz:19574.got - 2010.06.03 15:25:27.
