data_PCOD9465946
_publ_section_title
;
Structure prediction by ZEFSAII (Michael W. Deem and Ramdas Pophale) SiO2 
 PCOD9465946
Probable space group: P N M A
;
_chemical_formula_sum "Si O2"
_cell_formula_units_Z 48
_cell_length_a 9.798819
_cell_length_b 23.763599
_cell_length_c 9.518977
_cell_angle_alpha 90.000000
_cell_angle_beta 90.000000
_cell_angle_gamma 90.000000
_cell_volume 2216.543344
_symmetry_space_group_name_H-M "P N M A"
_symmetry_group_IT_number 62
_symmetry_cell_setting 'orthorhombic'
loop_
_space_group_symop_operation_xyz
x,y,z
1/2-x,-y,1/2+z
1/2+x,1/2-y,1/2-z
-x,1/2+y,-z
-x,-y,-z
1/2+x,y,1/2-z
1/2-x,1/2+y,1/2+z
x,1/2-y,z
loop_
_atom_site_type_symbol
_atom_site_label
_atom_site_fract_x
_atom_site_fract_y
_atom_site_fract_z
Si Si1 0.185266 0.599852 0.047764
Si Si2 0.458945 0.687876 0.462999
Si Si3 0.586137 0.187340 0.868990
Si Si4 0.343271 0.313933 0.090717
Si Si5 0.826450 0.070433 0.256964
Si Si6 0.574263 0.005752 0.349654
O O1 0.229528 0.569761 0.903435
O O2 0.302751 0.640549 0.099709
O O3 0.136464 0.556629 0.167829
O O4 0.056989 0.637218 0.998616
O O5 0.511073 0.750000 0.503968
O O6 0.451385 0.686030 0.294204
O O7 0.308502 0.682379 0.526751
O O8 0.643060 0.250000 0.898650
O O9 0.453900 0.180267 0.966591
O O10 0.359185 0.250000 0.149398
O O11 0.360339 0.366203 0.195117
O O12 0.704494 0.046456 0.351421
O O13 0.960023 0.030573 0.254343
O O14 0.500000 0.000000 0.500000
#
# Coordination Sequence:
#
# PCOD9465946 Si02
#       6
#     8   8   8   8   8   8
#     4  11  23  40  64  91 122 173 216 259 324 379
#     4  10  21  39  63  93 130 166 207 264 318 384
#     4  10  21  38  61  95 129 163 213 265 314 384
#     4  10  21  38  65  95 126 166 207 261 335 386
#     4  11  23  45  64  91 135 161 217 280 314 386
#     4  10  24  44  64  89 127 172 214 260 319 379
#
# _framework density 21.655339000000001
#
# number of rings (size 3 to 8) (size 9 to 14) (size 15 to 20)
#    0.000    1.667    0.000    4.500    2.333    4.000 
#    6.000    8.333    0.000    0.000    0.000    0.000 
#    0.000    0.000    0.000    0.000    0.000    0.000 
#
# Total GULP energy -268140.225196 kJ/mol
# GULP energy per Si atom -5586.254692 kJ/mol
# Density = 2.160605 g / cm^3
# Si number density = 21.655339 Si / 1000 Ang^3
#
#
#
# Elastic Constant Matrix: (Units=GPa)
#
#
# Indices 1 2 3 4 5 6 
#
# 1 69.3389 42.7661 13.3089 0.0000 0.0000 0.0000
# 2 42.7661 121.0669 26.6005 0.0000 0.0000 0.0000
# 3 13.3089 26.6005 60.7670 0.0000 0.0000 0.0000
# 4 0.0000 0.0000 0.0000 91.2155 0.0000 0.0000
# 5 0.0000 0.0000 0.0000 0.0000 24.5942 0.0000
# 6 0.0000 0.0000 0.0000 0.0000 0.0000 43.6387
#
#
#
# Elastic Compliance Matrix: (Units=1/GPa)
#
#
# Indices 1 2 3 4 5 6 
#
# 1 0.018535 -0.006257 -0.001320 0.000000 0.000000 0.000000
# 2 -0.006257 0.011251 -0.003555 0.000000 0.000000 0.000000
# 3 -0.001320 -0.003555 0.018302 0.000000 0.000000 0.000000
# 4 0.000000 0.000000 0.000000 0.010963 0.000000 0.000000
# 5 0.000000 0.000000 0.000000 0.000000 0.040660 0.000000
# 6 0.000000 0.000000 0.000000 0.000000 0.000000 0.022915
#
#
# Mechanical properties :
#
#
# Convention : Reuss Voigt Hill
#
# Bulk Modulus (GPa) = 38.72533 46.28044 42.50288
# Shear Modulus (GPa) = 32.57375 43.12282 37.84829
#
# Velocity S-wave (km/s) = 3.88260 4.46727 4.18515
# Velocity P-wave (km/s) = 6.16610 6.93011 6.55924
#
# Compressibility (1/GPa) = 0.02582289
#
# Stress axis : x y z
#
# Youngs Moduli (GPa) = 53.95336 88.87921 54.64015
#
# Poissons Ratio (x) = 0.55613 0.07214
# Poissons Ratio (y) = 0.33759 0.19423
# Poissons Ratio (z) = 0.07124 0.31595
#
# Static dielectric constant tensor:
#      x y z
#    x 1.758290 0.000000 0.000000 
#    y 0.000000 1.848220 0.000000 
#    z 0.000000 0.000000 1.773210 
# 
# From -- ./inp_files/11279.got.cif
#   From: 2010.05.17/outbox.cif.g08.bks.cpg/sg62_6_cif.got.tgz:11279.got - 2010.06.03 15:25:27.
