data_PCOD9465479
_publ_section_title
;
Structure prediction by ZEFSAII (Michael W. Deem and Ramdas Pophale) SiO2 
 PCOD9465479
Probable space group: P N M A
;
_chemical_formula_sum "Si O2"
_cell_formula_units_Z 56
_cell_length_a 16.885249
_cell_length_b 22.182475
_cell_length_c 7.532180
_cell_angle_alpha 90.000000
_cell_angle_beta 90.000000
_cell_angle_gamma 90.000000
_cell_volume 2821.227835
_symmetry_space_group_name_H-M "P N M A"
_symmetry_group_IT_number 62
_symmetry_cell_setting 'orthorhombic'
loop_
_space_group_symop_operation_xyz
x,y,z
1/2-x,-y,1/2+z
1/2+x,1/2-y,1/2-z
-x,1/2+y,-z
-x,-y,-z
1/2+x,y,1/2-z
1/2-x,1/2+y,1/2+z
x,1/2-y,z
loop_
_atom_site_type_symbol
_atom_site_label
_atom_site_fract_x
_atom_site_fract_y
_atom_site_fract_z
Si Si1 0.419363 0.317771 0.069429
Si Si2 0.672922 0.638024 0.581911
Si Si3 0.916491 0.026082 0.057429
Si Si4 0.495767 0.562569 0.893469
Si Si5 0.317170 0.947732 0.882128
Si Si6 0.777251 0.184656 0.710741
Si Si7 0.788666 0.943637 0.200779
O O1 0.454097 0.250000 0.075879
O O2 0.374530 0.329858 0.259006
O O3 0.480713 0.372141 0.030077
O O4 0.354661 0.318614 0.912964
O O5 0.620994 0.586528 0.477509
O O6 0.748029 0.600574 0.662228
O O7 0.702259 0.679246 0.420236
O O8 0.935504 0.051115 0.252188
O O9 0.852402 0.973806 0.071612
O O10 0.000000 0.000000 0.000000
O O11 0.500000 0.500000 0.000000
O O12 0.405980 0.566269 0.821341
O O13 0.318440 0.948119 0.096931
O O14 0.287715 0.013277 0.819769
O O15 0.739274 0.250000 0.677726
O O16 0.727094 0.125738 0.663053
#
# Coordination Sequence:
#
# PCOD9465479 Si02
#       7
#     8   8   8   8   8   8   8
#     4  10  22  40  60  84 117 157 198 240 293 354
#     4   9  21  38  58  86 116 148 197 241 287 349
#     4  10  22  34  55  88 115 151 185 245 303 340
#     4  11  21  35  58  83 117 152 192 241 294 345
#     4  10  21  34  57  87 111 152 183 248 296 336
#     4  10  21  36  61  84 112 159 194 233 292 349
#     4  10  21  36  55  85 117 141 196 241 289 350
#
# _framework density 19.849512000000001
#
# number of rings (size 3 to 8) (size 9 to 14) (size 15 to 20)
#    0.000    2.000    1.429    1.286   12.000    0.000 
#    0.000    3.571    0.000    6.000    0.000    0.000 
#    0.000    0.000    0.000    0.000    0.000    0.000 
#
# Total GULP energy -312059.302826 kJ/mol
# GULP energy per Si atom -5572.487550 kJ/mol
# Density = 1.980433 g / cm^3
# Si number density = 19.849512 Si / 1000 Ang^3
#
#
#
# Elastic Constant Matrix: (Units=GPa)
#
#
# Indices 1 2 3 4 5 6 
#
# 1 72.4584 44.7278 -5.8149 0.0000 0.0000 0.0000
# 2 44.7278 172.5940 21.1105 0.0000 0.0000 0.0000
# 3 -5.8149 21.1105 35.7585 0.0000 0.0000 0.0000
# 4 0.0000 0.0000 0.0000 24.5436 0.0000 0.0000
# 5 0.0000 0.0000 0.0000 0.0000 23.6071 0.0000
# 6 0.0000 0.0000 0.0000 0.0000 0.0000 26.0392
#
#
#
# Elastic Compliance Matrix: (Units=1/GPa)
#
#
# Indices 1 2 3 4 5 6 
#
# 1 0.017535 -0.005274 0.005965 0.000000 0.000000 0.000000
# 2 -0.005274 0.007831 -0.005481 0.000000 0.000000 0.000000
# 3 0.005965 -0.005481 0.032171 0.000000 0.000000 0.000000
# 4 0.000000 0.000000 0.000000 0.040744 0.000000 0.000000
# 5 0.000000 0.000000 0.000000 0.000000 0.042360 0.000000
# 6 0.000000 0.000000 0.000000 0.000000 0.000000 0.038404
#
#
# Mechanical properties :
#
#
# Convention : Reuss Voigt Hill
#
# Bulk Modulus (GPa) = 20.85158 44.53974 32.69566
# Shear Modulus (GPa) = 24.43672 29.55715 26.99693
#
# Velocity S-wave (km/s) = 3.51251 3.86302 3.69193
# Velocity P-wave (km/s) = 5.19403 6.51035 5.88908
#
# Compressibility (1/GPa) = 0.04795800
#
# Stress axis : x y z
#
# Youngs Moduli (GPa) = 57.02813 127.69707 31.08390
#
# Poissons Ratio (x) = 0.67346 -0.18542
# Poissons Ratio (y) = 0.30076 0.17036
# Poissons Ratio (z) = -0.34017 0.69988
#
# Static dielectric constant tensor:
#      x y z
#    x 1.718680 0.000000 0.000000 
#    y 0.000000 1.788630 0.000000 
#    z 0.000000 0.000000 1.705640 
# 
# From -- ./inp_files/6774.got.cif
#   From: 2010.05.17/outbox.cif.g08.bks.cpg/sg62_4_cif.got.tgz:6774.got - 2010.06.03 15:25:27.
