data_PCOD9465213
_publ_section_title
;
Structure prediction by ZEFSAII (Michael W. Deem and Ramdas Pophale) SiO2 
 PCOD9465213
Probable space group: P N M A
;
_chemical_formula_sum "Si O2"
_cell_formula_units_Z 36
_cell_length_a 14.324756
_cell_length_b 14.352229
_cell_length_c 8.239346
_cell_angle_alpha 90.000000
_cell_angle_beta 90.000000
_cell_angle_gamma 90.000000
_cell_volume 1693.945093
_symmetry_space_group_name_H-M "P N M A"
_symmetry_group_IT_number 62
_symmetry_cell_setting 'orthorhombic'
loop_
_space_group_symop_operation_xyz
x,y,z
1/2-x,-y,1/2+z
1/2+x,1/2-y,1/2-z
-x,1/2+y,-z
-x,-y,-z
1/2+x,y,1/2-z
1/2-x,1/2+y,1/2+z
x,1/2-y,z
loop_
_atom_site_type_symbol
_atom_site_label
_atom_site_fract_x
_atom_site_fract_y
_atom_site_fract_z
Si Si1 0.500217 0.250000 0.788894
Si Si2 0.277478 0.039184 0.675284
Si Si3 0.886321 0.451247 0.164353
Si Si4 0.403279 0.250000 0.435542
Si Si5 0.777054 0.750000 0.351215
Si Si6 0.542535 0.954757 0.157488
O O1 0.467976 0.250000 0.598199
O O2 0.610105 0.250000 0.836847
O O3 0.456735 0.344086 0.857854
O O4 0.329666 0.034482 0.502816
O O5 0.249844 0.146866 0.714792
O O6 0.355819 0.007988 0.802305
O O7 0.187461 0.975486 0.694941
O O8 0.919779 0.344807 0.161362
O O9 0.973082 0.519342 0.194148
O O10 0.292942 0.250000 0.490771
O O11 0.500000 0.000000 0.000000
#
# Coordination Sequence:
#
# PCOD9465213 Si02
#       6
#     4   8   8   4   4   8
#     4  12  22  43  68  97 134 179 221 275 350 395
#     4  11  22  40  67  95 130 174 222 277 332 399
#     4  11  23  44  66  97 132 176 226 272 341 395
#     4  10  24  43  67  94 139 178 223 284 332 398
#     4  10  20  38  65  93 125 175 218 263 336 405
#     4  12  25  41  67 100 134 177 226 276 334 408
#
# _framework density 21.252164
#
# number of rings (size 3 to 8) (size 9 to 14) (size 15 to 20)
#    0.000    0.889    6.667    2.000    3.111    0.889 
#    0.000    5.556    0.000    0.000    0.000    0.000 
#    0.000    0.000    0.000    0.000    0.000    0.000 
#
# Total GULP energy -200870.185692 kJ/mol
# GULP energy per Si atom -5579.727380 kJ/mol
# Density = 2.120379 g / cm^3
# Si number density = 21.252164 Si / 1000 Ang^3
#
#
#
# Elastic Constant Matrix: (Units=GPa)
#
#
# Indices 1 2 3 4 5 6 
#
# 1 87.6685 -18.3628 -2.9992 0.0000 0.0000 0.0000
# 2 -18.3628 104.1583 17.4120 0.0000 0.0000 0.0000
# 3 -2.9992 17.4120 56.2137 0.0000 0.0000 0.0000
# 4 0.0000 0.0000 0.0000 27.9220 0.0000 0.0000
# 5 0.0000 0.0000 0.0000 0.0000 38.3353 0.0000
# 6 0.0000 0.0000 0.0000 0.0000 0.0000 25.4465
#
#
#
# Elastic Compliance Matrix: (Units=1/GPa)
#
#
# Indices 1 2 3 4 5 6 
#
# 1 0.011844 0.002091 -0.000016 0.000000 0.000000 0.000000
# 2 0.002091 0.010494 -0.003139 0.000000 0.000000 0.000000
# 3 -0.000016 -0.003139 0.018761 0.000000 0.000000 0.000000
# 4 0.000000 0.000000 0.000000 0.035814 0.000000 0.000000
# 5 0.000000 0.000000 0.000000 0.000000 0.026086 0.000000
# 6 0.000000 0.000000 0.000000 0.000000 0.000000 0.039298
#
#
# Mechanical properties :
#
#
# Convention : Reuss Voigt Hill
#
# Bulk Modulus (GPa) = 25.66019 26.68228 26.17123
# Shear Modulus (GPa) = 31.76323 35.14013 33.45168
#
# Velocity S-wave (km/s) = 3.87018 4.07072 3.97172
# Velocity P-wave (km/s) = 5.66317 5.88869 5.77703
#
# Compressibility (1/GPa) = 0.03897087
#
# Stress axis : x y z
#
# Youngs Moduli (GPa) = 84.43114 95.29178 53.30290
#
# Poissons Ratio (x) = -0.19922 0.00083
# Poissons Ratio (y) = -0.17652 0.16732
# Poissons Ratio (z) = 0.00132 0.29912
#
# Static dielectric constant tensor:
#      x y z
#    x 1.774820 0.000000 0.000000 
#    y 0.000000 1.744830 0.000000 
#    z 0.000000 0.000000 1.829430 
# 
# From -- ./inp_files/6035.got.cif
#   From: 2010.05.17/outbox.cif.g08.bks.cpg/sg62_4_cif.got.tgz:6035.got - 2010.06.03 15:25:27.
