data_PCOD9465652
_publ_section_title
;
Structure prediction by ZEFSAII (Michael W. Deem and Ramdas Pophale) SiO2 
 PCOD9465652
Probable space group: P N M A
;
_chemical_formula_sum "Si O2"
_cell_formula_units_Z 64
_cell_length_a 10.430820
_cell_length_b 28.493530
_cell_length_c 9.225715
_cell_angle_alpha 90.000000
_cell_angle_beta 90.000000
_cell_angle_gamma 90.000000
_cell_volume 2741.982898
_symmetry_space_group_name_H-M "P N M A"
_symmetry_group_IT_number 62
_symmetry_cell_setting 'orthorhombic'
loop_
_space_group_symop_operation_xyz
x,y,z
1/2-x,-y,1/2+z
1/2+x,1/2-y,1/2-z
-x,1/2+y,-z
-x,-y,-z
1/2+x,y,1/2-z
1/2-x,1/2+y,1/2+z
x,1/2-y,z
loop_
_atom_site_type_symbol
_atom_site_label
_atom_site_fract_x
_atom_site_fract_y
_atom_site_fract_z
Si Si1 0.813970 0.873127 0.238328
Si Si2 0.130982 0.469114 0.820054
Si Si3 0.512248 0.052307 0.160656
Si Si4 0.580679 0.875732 0.613513
Si Si5 0.446235 0.376708 0.931008
Si Si6 0.336547 0.195936 0.149102
Si Si7 0.585303 0.301506 0.540194
Si Si8 0.266403 0.459922 0.524041
O O1 0.885830 0.914496 0.146021
O O2 0.662578 0.877413 0.195149
O O3 0.904517 0.878240 0.381281
O O4 0.848438 0.821491 0.182992
O O5 0.037751 0.504403 0.733131
O O6 0.238994 0.463445 0.693604
O O7 0.157772 0.495144 0.968380
O O8 0.512749 0.092597 0.284215
O O9 0.641437 0.040282 0.077739
O O10 0.425930 0.077550 0.035031
O O11 0.660242 0.841389 0.720544
O O12 0.516794 0.838850 0.508570
O O13 0.660607 0.913338 0.523446
O O14 0.421598 0.330003 0.025749
O O15 0.377087 0.250000 0.182567
O O16 0.194672 0.198620 0.082786
O O17 0.532006 0.250000 0.559607
#
# Coordination Sequence:
#
# PCOD9465652 Si02
#       8
#     8   8   8   8   8   8   8   8
#     4  11  24  39  66  90 126 167 214 263 324 384
#     4  11  24  38  62  90 126 174 218 270 318 386
#     4  10  21  40  61  87 128 174 212 262 323 400
#     4  10  21  36  62  93 124 160 214 278 323 377
#     4  10  22  40  63  90 123 168 212 264 323 386
#     4   9  19  39  64  88 121 167 211 258 331 402
#     4  10  22  40  61  89 126 164 206 265 333 391
#     4  11  23  38  61  92 131 173 225 266 325 395
#
# _framework density 23.340775000000001
#
# number of rings (size 3 to 8) (size 9 to 14) (size 15 to 20)
#    0.000    1.750    1.250    2.250    3.500    3.500 
#    0.000    2.500    0.000    0.750    0.000    0.000 
#    0.000    0.000    0.000    0.000    0.000    0.000 
#
# Total GULP energy -356930.353680 kJ/mol
# GULP energy per Si atom -5577.036776 kJ/mol
# Density = 2.328765 g / cm^3
# Si number density = 23.340775 Si / 1000 Ang^3
#
#
#
# Elastic Constant Matrix: (Units=GPa)
#
#
# Indices 1 2 3 4 5 6 
#
# 1 34.9646 12.6916 24.5833 0.0000 0.0000 0.0000
# 2 12.6916 137.5343 15.6401 0.0000 0.0000 0.0000
# 3 24.5833 15.6401 57.1531 0.0000 0.0000 0.0000
# 4 0.0000 0.0000 0.0000 20.0392 0.0000 0.0000
# 5 0.0000 0.0000 0.0000 0.0000 22.3802 0.0000
# 6 0.0000 0.0000 0.0000 0.0000 0.0000 20.2402
#
#
#
# Elastic Compliance Matrix: (Units=1/GPa)
#
#
# Indices 1 2 3 4 5 6 
#
# 1 0.041453 -0.001855 -0.017323 0.000000 0.000000 0.000000
# 2 -0.001855 0.007587 -0.001278 0.000000 0.000000 0.000000
# 3 -0.017323 -0.001278 0.025298 0.000000 0.000000 0.000000
# 4 0.000000 0.000000 0.000000 0.049902 0.000000 0.000000
# 5 0.000000 0.000000 0.000000 0.000000 0.044682 0.000000
# 6 0.000000 0.000000 0.000000 0.000000 0.000000 0.049407
#
#
# Mechanical properties :
#
#
# Convention : Reuss Voigt Hill
#
# Bulk Modulus (GPa) = 29.91696 37.27579 33.59638
# Shear Modulus (GPa) = 18.49220 24.31437 21.40328
#
# Velocity S-wave (km/s) = 2.81778 3.23106 3.03147
# Velocity P-wave (km/s) = 4.84064 5.47033 5.16509
#
# Compressibility (1/GPa) = 0.03342585
#
# Stress axis : x y z
#
# Youngs Moduli (GPa) = 24.12356 131.79589 39.52934
#
# Poissons Ratio (x) = 0.24453 0.68475
# Poissons Ratio (y) = 0.04476 0.05053
# Poissons Ratio (z) = 0.41788 0.16847
#
# Static dielectric constant tensor:
#      x y z
#    x 1.940810 0.000000 0.000000 
#    y 0.000000 1.891780 0.000000 
#    z 0.000000 0.000000 1.920200 
# 
# From -- ./inp_files/5523.got.cif
#   From: 2010.05.17/outbox.cif.g08.bks.cpg/sg62_3_cif.got.tgz:5523.got - 2010.06.03 15:25:27.
