data_PCOD9465594
_publ_section_title
;
Structure prediction by ZEFSAII (Michael W. Deem and Ramdas Pophale) SiO2 
 PCOD9465594
Probable space group: P N M A
;
_chemical_formula_sum "Si O2"
_cell_formula_units_Z 64
_cell_length_a 11.135342
_cell_length_b 30.070918
_cell_length_c 9.534940
_cell_angle_alpha 90.000000
_cell_angle_beta 90.000000
_cell_angle_gamma 90.000000
_cell_volume 3192.774241
_symmetry_space_group_name_H-M "P N M A"
_symmetry_group_IT_number 62
_symmetry_cell_setting 'orthorhombic'
loop_
_space_group_symop_operation_xyz
x,y,z
1/2-x,-y,1/2+z
1/2+x,1/2-y,1/2-z
-x,1/2+y,-z
-x,-y,-z
1/2+x,y,1/2-z
1/2-x,1/2+y,1/2+z
x,1/2-y,z
loop_
_atom_site_type_symbol
_atom_site_label
_atom_site_fract_x
_atom_site_fract_y
_atom_site_fract_z
Si Si1 0.750006 0.154194 0.193071
Si Si2 0.827719 0.116633 0.896165
Si Si3 0.265631 0.413444 0.067452
Si Si4 0.512982 0.802768 0.845613
Si Si5 0.489081 0.031763 0.162459
Si Si6 0.081814 0.646192 0.384707
Si Si7 0.980261 0.948539 0.974272
Si Si8 0.097197 0.437362 0.606775
O O1 0.738086 0.109208 0.283729
O O2 0.618807 0.178247 0.200539
O O3 0.870522 0.178015 0.258818
O O4 0.776556 0.142411 0.031333
O O5 0.872814 0.150060 0.774686
O O6 0.726762 0.080658 0.848783
O O7 0.936885 0.085929 0.946216
O O8 0.371975 0.448178 0.088368
O O9 0.156216 0.437613 0.996905
O O10 0.305677 0.373475 0.968808
O O11 0.512151 0.750000 0.829656
O O12 0.531888 0.816248 0.010338
O O13 0.501657 0.056735 0.307716
O O14 0.463880 0.979390 0.184164
O O15 0.595167 0.044003 0.054195
O O16 0.985389 0.606166 0.384171
O O17 0.000000 0.000000 0.000000
#
# Coordination Sequence:
#
# PCOD9465594 Si02
#       8
#     8   8   8   8   8   8   8   8
#     4  11  22  43  75 100 131 171 221 276 339 415
#     4  12  23  38  65  91 126 172 221 263 328 398
#     4  10  22  40  58  86 125 167 220 262 325 376
#     4  11  24  47  73 104 132 166 215 281 352 423
#     4  10  21  36  57  83 124 176 217 276 307 368
#     4  10  24  40  65  89 124 174 206 271 329 408
#     4  12  24  34  55  89 126 168 225 277 314 367
#     4  10  21  40  58  83 125 172 226 257 322 375
#
# _framework density 20.045262999999998
#
# number of rings (size 3 to 8) (size 9 to 14) (size 15 to 20)
#    0.000    1.250    2.500    3.375    5.250    0.000 
#    0.000    1.250    0.000    0.000    0.000    0.000 
#    0.000    0.000    0.000    0.000    0.000    0.000 
#
# Total GULP energy -357041.703084 kJ/mol
# GULP energy per Si atom -5578.776611 kJ/mol
# Density = 1.999964 g / cm^3
# Si number density = 20.045263 Si / 1000 Ang^3
#
#
#
# Elastic Constant Matrix: (Units=GPa)
#
#
# Indices 1 2 3 4 5 6 
#
# 1 91.8694 27.0730 20.6996 0.0000 0.0000 0.0000
# 2 27.0730 71.9127 7.7207 0.0000 0.0000 0.0000
# 3 20.6996 7.7207 97.4794 0.0000 0.0000 0.0000
# 4 0.0000 0.0000 0.0000 23.6119 0.0000 0.0000
# 5 0.0000 0.0000 0.0000 0.0000 18.5571 0.0000
# 6 0.0000 0.0000 0.0000 0.0000 0.0000 26.6915
#
#
#
# Elastic Compliance Matrix: (Units=1/GPa)
#
#
# Indices 1 2 3 4 5 6 
#
# 1 0.012755 -0.004550 -0.002348 0.000000 0.000000 0.000000
# 2 -0.004550 0.015648 -0.000273 0.000000 0.000000 0.000000
# 3 -0.002348 -0.000273 0.010779 0.000000 0.000000 0.000000
# 4 0.000000 0.000000 0.000000 0.042352 0.000000 0.000000
# 5 0.000000 0.000000 0.000000 0.000000 0.053888 0.000000
# 6 0.000000 0.000000 0.000000 0.000000 0.000000 0.037465
#
#
# Mechanical properties :
#
#
# Convention : Reuss Voigt Hill
#
# Bulk Modulus (GPa) = 40.25855 41.36090 40.80973
# Shear Modulus (GPa) = 25.57438 27.48996 26.53217
#
# Velocity S-wave (km/s) = 3.57575 3.70725 3.64210
# Velocity P-wave (km/s) = 6.09717 6.24528 6.17167
#
# Compressibility (1/GPa) = 0.02483944
#
# Stress axis : x y z
#
# Youngs Moduli (GPa) = 78.40155 63.90622 92.77437
#
# Poissons Ratio (x) = 0.29076 0.21785
# Poissons Ratio (y) = 0.35671 0.02535
# Poissons Ratio (z) = 0.18410 0.01746
#
# Static dielectric constant tensor:
#      x y z
#    x 1.744800 0.000000 0.000000 
#    y 0.000000 1.663500 0.000000 
#    z 0.000000 0.000000 1.787060 
# 
# From -- ./inp_files/5513.got.cif
#   From: 2010.05.17/outbox.cif.g08.bks.cpg/sg62_3_cif.got.tgz:5513.got - 2010.06.03 15:25:27.
