data_PCOD9465375
_publ_section_title
;
Structure prediction by ZEFSAII (Michael W. Deem and Ramdas Pophale) SiO2 
 PCOD9465375
Probable space group: P N M A
;
_chemical_formula_sum "Si O2"
_cell_formula_units_Z 32
_cell_length_a 4.730993
_cell_length_b 17.967524
_cell_length_c 15.415352
_cell_angle_alpha 90.000000
_cell_angle_beta 90.000000
_cell_angle_gamma 90.000000
_cell_volume 1310.370131
_symmetry_space_group_name_H-M "P N M A"
_symmetry_group_IT_number 62
_symmetry_cell_setting 'orthorhombic'
loop_
_space_group_symop_operation_xyz
x,y,z
1/2-x,-y,1/2+z
1/2+x,1/2-y,1/2-z
-x,1/2+y,-z
-x,-y,-z
1/2+x,y,1/2-z
1/2-x,1/2+y,1/2+z
x,1/2-y,z
loop_
_atom_site_type_symbol
_atom_site_label
_atom_site_fract_x
_atom_site_fract_y
_atom_site_fract_z
Si Si1 0.348598 0.750000 0.805945
Si Si2 0.009270 0.085153 0.309314
Si Si3 0.902554 0.750000 0.189361
Si Si4 0.678155 0.571352 0.527064
Si Si5 0.184644 0.834214 0.467812
O O1 0.516838 0.750000 0.713272
O O2 0.438584 0.829572 0.840570
O O3 0.193995 0.073591 0.222223
O O4 0.146657 0.043747 0.388910
O O5 0.721692 0.750000 0.277760
O O6 0.822048 0.680321 0.127457
O O7 0.500000 0.500000 0.500000
O O8 0.431811 0.634340 0.529919
O O9 0.920803 0.610099 0.468782
O O10 0.094272 0.750000 0.493095
#
# Coordination Sequence:
#
# PCOD9465375 Si02
#       5
#     4   8   4   8   8
#     4   8  16  28  48  76 106 140 184 238 290 330
#     4  10  21  38  58  88 125 161 210 264 311 382
#     4  10  20  40  68 100 132 160 230 288 330 386
#     4  12  24  43  65  95 136 174 218 267 339 405
#     4  10  24  41  68  95 129 172 222 269 333 385
#
# _framework density 24.420583000000001
#
# number of rings (size 3 to 8) (size 9 to 14) (size 15 to 20)
#    0.750    1.000    0.000    4.500    3.500    0.000 
#    4.500    7.500    0.000    0.000    0.000    0.000 
#    0.000    0.000    0.000    0.000    0.000    0.000 
#
# Total GULP energy -178599.998799 kJ/mol
# GULP energy per Si atom -5581.249962 kJ/mol
# Density = 2.436500 g / cm^3
# Si number density = 24.420583 Si / 1000 Ang^3
#
#
#
# Elastic Constant Matrix: (Units=GPa)
#
#
# Indices 1 2 3 4 5 6 
#
# 1 104.6083 21.7573 -3.0606 0.0000 0.0000 0.0000
# 2 21.7573 81.7461 15.0867 0.0000 0.0000 0.0000
# 3 -3.0606 15.0867 66.2097 0.0000 0.0000 0.0000
# 4 0.0000 0.0000 0.0000 27.0557 0.0000 0.0000
# 5 0.0000 0.0000 0.0000 0.0000 40.6269 0.0000
# 6 0.0000 0.0000 0.0000 0.0000 0.0000 35.5330
#
#
#
# Elastic Compliance Matrix: (Units=1/GPa)
#
#
# Indices 1 2 3 4 5 6 
#
# 1 0.010201 -0.002925 0.001138 0.000000 0.000000 0.000000
# 2 -0.002925 0.013609 -0.003236 0.000000 0.000000 0.000000
# 3 0.001138 -0.003236 0.015894 0.000000 0.000000 0.000000
# 4 0.000000 0.000000 0.000000 0.036961 0.000000 0.000000
# 5 0.000000 0.000000 0.000000 0.000000 0.024614 0.000000
# 6 0.000000 0.000000 0.000000 0.000000 0.000000 0.028143
#
#
# Mechanical properties :
#
#
# Convention : Reuss Voigt Hill
#
# Bulk Modulus (GPa) = 33.71875 35.57009 34.64442
# Shear Modulus (GPa) = 33.47762 35.22850 34.35306
#
# Velocity S-wave (km/s) = 3.70655 3.80224 3.75470
# Velocity P-wave (km/s) = 5.67059 5.82008 5.74582
#
# Compressibility (1/GPa) = 0.02965709
#
# Stress axis : x y z
#
# Youngs Moduli (GPa) = 98.02797 73.48187 62.91863
#
# Poissons Ratio (x) = 0.21495 -0.07161
# Poissons Ratio (y) = 0.28675 0.20361
# Poissons Ratio (z) = -0.11157 0.23780
#
# Static dielectric constant tensor:
#      x y z
#    x 1.900130 0.000000 0.000000 
#    y 0.000000 1.986360 0.000000 
#    z 0.000000 0.000000 2.043630 
# 
# From -- ./inp_files/16090.got.cif
#   From: 2010.05.17/outbox.cif.g08.bks.cpg/sg62_9_cif.got.tgz:16090.got - 2010.06.03 15:25:27.
