data_PCOD9465840
_publ_section_title
;
Structure prediction by ZEFSAII (Michael W. Deem and Ramdas Pophale) SiO2 
 PCOD9465840
Probable space group: P N M A
;
_chemical_formula_sum "Si O2"
_cell_formula_units_Z 40
_cell_length_a 18.348942
_cell_length_b 10.942706
_cell_length_c 9.800190
_cell_angle_alpha 90.000000
_cell_angle_beta 90.000000
_cell_angle_gamma 90.000000
_cell_volume 1967.751511
_symmetry_space_group_name_H-M "P N M A"
_symmetry_group_IT_number 62
_symmetry_cell_setting 'orthorhombic'
loop_
_space_group_symop_operation_xyz
x,y,z
1/2-x,-y,1/2+z
1/2+x,1/2-y,1/2-z
-x,1/2+y,-z
-x,-y,-z
1/2+x,y,1/2-z
1/2-x,1/2+y,1/2+z
x,1/2-y,z
loop_
_atom_site_type_symbol
_atom_site_label
_atom_site_fract_x
_atom_site_fract_y
_atom_site_fract_z
Si Si1 0.094827 0.380531 0.039759
Si Si2 0.531976 0.381995 0.929985
Si Si3 0.237482 0.389842 0.863307
Si Si4 0.705894 0.110918 0.951237
Si Si5 0.547472 0.620552 0.358308
O O1 0.107672 0.250000 0.111348
O O2 0.097089 0.501954 0.128989
O O3 0.154096 0.389494 0.919687
O O4 0.013573 0.377751 0.977041
O O5 0.510813 0.250000 0.992698
O O6 0.618802 0.388844 0.931777
O O7 0.499106 0.383254 0.778785
O O8 0.500000 0.500000 0.000000
O O9 0.265344 0.250000 0.890869
O O10 0.237735 0.409318 0.700958
O O11 0.274056 0.500878 0.946395
O O12 0.726598 0.250000 0.996511
O O13 0.588352 0.750000 0.363959
#
# Coordination Sequence:
#
# PCOD9465840 Si02
#       5
#     8   8   8   8   8
#     4   9  17  32  55  80 106 139 178 224 274 325
#     4  10  21  38  58  80 112 150 185 228 283 340
#     4  10  21  39  61  84 116 155 195 239 287 344
#     4  10  22  41  61  83 116 156 194 237 290 343
#     4   9  17  32  54  79 107 140 178 220 271 329
#
# _framework density 20.327770999999998
#
# number of rings (size 3 to 8) (size 9 to 14) (size 15 to 20)
#    0.000    2.400    2.000    0.000    0.000    4.800 
#    0.000    8.000    0.000    0.000    0.000    0.000 
#    0.000    0.000    0.000    0.000    0.000    0.000 
#
# Total GULP energy -222986.470711 kJ/mol
# GULP energy per Si atom -5574.661768 kJ/mol
# Density = 2.028150 g / cm^3
# Si number density = 20.327771 Si / 1000 Ang^3
#
#
#
# Elastic Constant Matrix: (Units=GPa)
#
#
# Indices 1 2 3 4 5 6 
#
# 1 41.4458 43.5247 14.9424 0.0000 0.0000 0.0000
# 2 43.5247 247.4402 85.8546 0.0000 0.0000 0.0000
# 3 14.9424 85.8546 48.6639 0.0000 0.0000 0.0000
# 4 0.0000 0.0000 0.0000 27.6995 0.0000 0.0000
# 5 0.0000 0.0000 0.0000 0.0000 29.4528 0.0000
# 6 0.0000 0.0000 0.0000 0.0000 0.0000 26.8810
#
#
#
# Elastic Compliance Matrix: (Units=1/GPa)
#
#
# Indices 1 2 3 4 5 6 
#
# 1 0.029596 -0.005293 0.000250 0.000000 0.000000 0.000000
# 2 -0.005293 0.011366 -0.018427 0.000000 0.000000 0.000000
# 3 0.000250 -0.018427 0.052983 0.000000 0.000000 0.000000
# 4 0.000000 0.000000 0.000000 0.036102 0.000000 0.000000
# 5 0.000000 0.000000 0.000000 0.000000 0.033953 0.000000
# 6 0.000000 0.000000 0.000000 0.000000 0.000000 0.037201
#
#
# Mechanical properties :
#
#
# Convention : Reuss Voigt Hill
#
# Bulk Modulus (GPa) = 21.27457 69.57704 45.42580
# Shear Modulus (GPa) = 18.95315 29.68854 24.32084
#
# Velocity S-wave (km/s) = 3.05680 3.82578 3.46270
# Velocity P-wave (km/s) = 4.79032 7.33603 6.19534
#
# Compressibility (1/GPa) = 0.04700448
#
# Stress axis : x y z
#
# Youngs Moduli (GPa) = 33.78843 87.98068 18.87412
#
# Poissons Ratio (x) = 0.46565 -0.00472
# Poissons Ratio (y) = 0.17883 0.34780
# Poissons Ratio (z) = -0.00845 1.62126
#
# Static dielectric constant tensor:
#      x y z
#    x 1.714100 0.000000 0.000000 
#    y 0.000000 1.795190 0.000000 
#    z 0.000000 0.000000 1.638790 
# 
# From -- ./inp_files/7277.got.cif
#   From: 2010.05.17/outbox.cif.g08.bks.cpg/sg62_4_cif.got.tgz:7277.got - 2010.06.03 15:25:27.
