data_PCOD9465747
_publ_section_title
;
Structure prediction by ZEFSAII (Michael W. Deem and Ramdas Pophale) SiO2 
 PCOD9465747
Probable space group: P N M A
;
_chemical_formula_sum "Si O2"
_cell_formula_units_Z 64
_cell_length_a 33.434416
_cell_length_b 7.698799
_cell_length_c 11.476340
_cell_angle_alpha 90.000000
_cell_angle_beta 90.000000
_cell_angle_gamma 90.000000
_cell_volume 2954.065559
_symmetry_space_group_name_H-M "P N M A"
_symmetry_group_IT_number 62
_symmetry_cell_setting 'orthorhombic'
loop_
_space_group_symop_operation_xyz
x,y,z
1/2-x,-y,1/2+z
1/2+x,1/2-y,1/2-z
-x,1/2+y,-z
-x,-y,-z
1/2+x,y,1/2-z
1/2-x,1/2+y,1/2+z
x,1/2-y,z
loop_
_atom_site_type_symbol
_atom_site_label
_atom_site_fract_x
_atom_site_fract_y
_atom_site_fract_z
Si Si1 0.769505 0.038196 0.297693
Si Si2 0.672179 0.540326 0.009234
Si Si3 0.509367 0.053411 0.865989
Si Si4 0.660236 0.538755 0.644299
Si Si5 0.114087 0.549339 0.078175
Si Si6 0.975157 0.039697 0.881761
Si Si7 0.682080 0.448482 0.267459
Si Si8 0.899485 0.459215 0.355400
O O1 0.767041 0.250000 0.291341
O O2 0.796244 0.994330 0.409083
O O3 0.796025 0.978653 0.186794
O O4 0.724377 0.973547 0.308040
O O5 0.672989 0.750000 0.021092
O O6 0.683412 0.454730 0.129021
O O7 0.627918 0.491550 0.965304
O O8 0.494887 0.250000 0.862887
O O9 0.491761 0.973313 0.744446
O O10 0.557137 0.040524 0.853105
O O11 0.500000 0.000000 0.000000
O O12 0.663151 0.750000 0.639559
O O13 0.641627 0.473113 0.524545
O O14 0.627787 0.497310 0.743961
O O15 0.106928 0.750000 0.044903
O O16 0.070274 0.474278 0.099266
O O17 0.142380 0.542783 0.189989
O O18 0.974987 0.250000 0.874360
O O19 0.000000 0.000000 0.000000
O O20 0.679053 0.250000 0.307816
O O21 0.904409 0.250000 0.356438
#
# Coordination Sequence:
#
# PCOD9465747 Si02
#       8
#     8   8   8   8   8   8   8   8
#     4   8  17  34  54  79 110 144 184 231 280 330
#     4   9  19  37  59  79 107 148 189 230 282 343
#     4  11  24  39  58  87 122 158 195 241 296 355
#     4   8  15  32  59  84 105 142 189 230 276 335
#     4  10  21  37  59  84 113 150 192 230 280 351
#     4  10  23  42  64  91 120 153 197 247 300 362
#     4  11  23  35  52  82 118 149 185 237 285 327
#     4   9  18  36  62  85 107 142 191 239 284 337
#
# _framework density 21.665058999999999
#
# number of rings (size 3 to 8) (size 9 to 14) (size 15 to 20)
#    0.000    2.500    0.000    3.000    3.500    3.000 
#    0.000    1.250    0.000    2.250    0.000    0.000 
#    0.000    0.000    0.000    0.000    0.000    0.000 
#
# Total GULP energy -356907.270750 kJ/mol
# GULP energy per Si atom -5576.676105 kJ/mol
# Density = 2.161575 g / cm^3
# Si number density = 21.665059 Si / 1000 Ang^3
#
#
#
# Elastic Constant Matrix: (Units=GPa)
#
#
# Indices 1 2 3 4 5 6 
#
# 1 142.2485 2.1882 48.4369 0.0000 0.0000 0.0000
# 2 2.1882 34.2499 11.4133 0.0000 0.0000 0.0000
# 3 48.4369 11.4133 102.6941 0.0000 0.0000 0.0000
# 4 0.0000 0.0000 0.0000 20.4440 0.0000 0.0000
# 5 0.0000 0.0000 0.0000 0.0000 19.5613 0.0000
# 6 0.0000 0.0000 0.0000 0.0000 0.0000 6.4299
#
#
#
# Elastic Compliance Matrix: (Units=1/GPa)
#
#
# Indices 1 2 3 4 5 6 
#
# 1 0.008397 0.000813 -0.004051 0.000000 0.000000 0.000000
# 2 0.000813 0.030399 -0.003762 0.000000 0.000000 0.000000
# 3 -0.004051 -0.003762 0.012066 0.000000 0.000000 0.000000
# 4 0.000000 0.000000 0.000000 0.048914 0.000000 0.000000
# 5 0.000000 0.000000 0.000000 0.000000 0.051121 0.000000
# 6 0.000000 0.000000 0.000000 0.000000 0.000000 0.155524
#
#
# Mechanical properties :
#
#
# Convention : Reuss Voigt Hill
#
# Bulk Modulus (GPa) = 27.12751 44.80769 35.96760
# Shear Modulus (GPa) = 15.02817 23.76396 19.39607
#
# Velocity S-wave (km/s) = 2.63660 3.31551 2.99535
# Velocity P-wave (km/s) = 4.67091 5.94842 5.34795
#
# Compressibility (1/GPa) = 0.03686295
#
# Stress axis : x y z
#
# Youngs Moduli (GPa) = 119.09312 32.89591 82.87464
#
# Poissons Ratio (x) = -0.02676 0.33571
# Poissons Ratio (y) = -0.09687 0.31179
# Poissons Ratio (z) = 0.48243 0.12376
#
# Static dielectric constant tensor:
#      x y z
#    x 1.766810 0.000000 0.000000 
#    y 0.000000 1.836040 0.000000 
#    z 0.000000 0.000000 1.798900 
# 
# From -- ./inp_files/15894.got.cif
#   From: 2010.05.17/outbox.cif.g08.bks.cpg/sg62_8_cif.got.tgz:15894.got - 2010.06.03 15:25:27.
