data_PCOD9465957
_publ_section_title
;
Structure prediction by ZEFSAII (Michael W. Deem and Ramdas Pophale) SiO2 
 PCOD9465957
Probable space group: P N M A
;
_chemical_formula_sum "Si O2"
_cell_formula_units_Z 60
_cell_length_a 13.891309
_cell_length_b 12.815401
_cell_length_c 13.890369
_cell_angle_alpha 90.000000
_cell_angle_beta 90.000000
_cell_angle_gamma 90.000000
_cell_volume 2472.800927
_symmetry_space_group_name_H-M "P N M A"
_symmetry_group_IT_number 62
_symmetry_cell_setting 'orthorhombic'
loop_
_space_group_symop_operation_xyz
x,y,z
1/2-x,-y,1/2+z
1/2+x,1/2-y,1/2-z
-x,1/2+y,-z
-x,-y,-z
1/2+x,y,1/2-z
1/2-x,1/2+y,1/2+z
x,1/2-y,z
loop_
_atom_site_type_symbol
_atom_site_label
_atom_site_fract_x
_atom_site_fract_y
_atom_site_fract_z
Si Si1 0.177386 0.415535 0.243408
Si Si2 0.277194 0.922817 0.013752
Si Si3 0.855234 0.250000 0.103527
Si Si4 0.837581 0.870043 0.968926
Si Si5 0.042194 0.363887 0.409130
Si Si6 0.819857 0.136354 0.791955
Si Si7 0.397336 0.420826 0.251449
Si Si8 0.041767 0.134600 0.845730
O O1 0.119594 0.355341 0.322268
O O2 0.178771 0.536391 0.275881
O O3 0.287666 0.386115 0.231970
O O4 0.132363 0.401168 0.138912
O O5 0.211816 0.842560 0.950462
O O6 0.390246 0.917599 0.988371
O O7 0.237752 0.040174 0.001789
O O8 0.255424 0.888055 0.123347
O O9 0.918300 0.158985 0.161643
O O10 0.802116 0.750000 0.968520
O O11 0.924374 0.874645 0.044440
O O12 0.014082 0.250000 0.445769
O O13 0.954328 0.410463 0.348727
O O14 0.803823 0.250000 0.748708
O O15 0.926428 0.134919 0.838717
O O16 0.414069 0.538212 0.287945
O O17 0.073771 0.250000 0.810836
#
# Coordination Sequence:
#
# PCOD9465957 Si02
#       8
#     8   8   4   8   8   8   8   8
#     4  11  23  38  59  88 126 156 202 249 305 365
#     4  11  21  39  61  85 123 157 200 247 305 364
#     4  12  20  36  64  86 122 158 196 254 302 368
#     4  10  22  38  60  88 121 159 197 254 304 354
#     4  12  22  38  60  88 120 162 201 251 307 360
#     4  10  21  38  62  90 118 159 202 253 303 360
#     4  12  24  39  61  93 122 163 203 251 309 362
#     4  10  21  40  61  90 124 157 208 253 306 366
#
# _framework density 24.263981999999999
#
# number of rings (size 3 to 8) (size 9 to 14) (size 15 to 20)
#    0.000    1.067    6.000    0.400    0.933    3.733 
#    2.400    4.000    0.000    1.600    0.000    0.000 
#    0.000    0.000    0.000    0.000    0.000    0.000 
#
# Total GULP energy -334287.912747 kJ/mol
# GULP energy per Si atom -5571.465212 kJ/mol
# Density = 2.420876 g / cm^3
# Si number density = 24.263982 Si / 1000 Ang^3
#
#
#
# Elastic Constant Matrix: (Units=GPa)
#
#
# Indices 1 2 3 4 5 6 
#
# 1 68.6087 -12.9894 -1.2630 0.0000 0.0000 0.0000
# 2 -12.9894 169.6974 8.2019 0.0000 0.0000 0.0000
# 3 -1.2630 8.2019 32.1380 0.0000 0.0000 0.0000
# 4 0.0000 0.0000 0.0000 54.7795 0.0000 0.0000
# 5 0.0000 0.0000 0.0000 0.0000 28.2047 0.0000
# 6 0.0000 0.0000 0.0000 0.0000 0.0000 60.1740
#
#
#
# Elastic Compliance Matrix: (Units=1/GPa)
#
#
# Indices 1 2 3 4 5 6 
#
# 1 0.014793 0.001118 0.000296 0.000000 0.000000 0.000000
# 2 0.001118 0.006051 -0.001500 0.000000 0.000000 0.000000
# 3 0.000296 -0.001500 0.031510 0.000000 0.000000 0.000000
# 4 0.000000 0.000000 0.000000 0.018255 0.000000 0.000000
# 5 0.000000 0.000000 0.000000 0.000000 0.035455 0.000000
# 6 0.000000 0.000000 0.000000 0.000000 0.000000 0.016618
#
#
# Mechanical properties :
#
#
# Convention : Reuss Voigt Hill
#
# Bulk Modulus (GPa) = 19.16399 28.70478 23.93438
# Shear Modulus (GPa) = 35.65095 47.06461 41.35778
#
# Velocity S-wave (km/s) = 3.83730 4.40897 4.13303
# Velocity P-wave (km/s) = 5.24866 6.14610 5.71502
#
# Compressibility (1/GPa) = 0.05218121
#
# Stress axis : x y z
#
# Youngs Moduli (GPa) = 67.60168 165.26388 31.73560
#
# Poissons Ratio (x) = -0.18476 -0.00939
# Poissons Ratio (y) = -0.07558 0.04761
# Poissons Ratio (z) = -0.02001 0.24795
#
# Static dielectric constant tensor:
#      x y z
#    x 1.980680 0.000000 0.000000 
#    y 0.000000 2.059300 0.000000 
#    z 0.000000 0.000000 1.939950 
# 
# From -- ./inp_files/19188.got.cif
#   From: 2010.05.17/outbox.cif.g08.bks.cpg/sg62_10_cif.got.tgz:19188.got - 2010.06.03 15:25:27.
