data_PCOD9465506
_publ_section_title
;
Structure prediction by ZEFSAII (Michael W. Deem and Ramdas Pophale) SiO2 
 PCOD9465506
Probable space group: P N M A
;
_chemical_formula_sum "Si O2"
_cell_formula_units_Z 64
_cell_length_a 15.364724
_cell_length_b 9.682278
_cell_length_c 23.870670
_cell_angle_alpha 90.000000
_cell_angle_beta 90.000000
_cell_angle_gamma 90.000000
_cell_volume 3551.132854
_symmetry_space_group_name_H-M "P N M A"
_symmetry_group_IT_number 62
_symmetry_cell_setting 'orthorhombic'
loop_
_space_group_symop_operation_xyz
x,y,z
1/2-x,-y,1/2+z
1/2+x,1/2-y,1/2-z
-x,1/2+y,-z
-x,-y,-z
1/2+x,y,1/2-z
1/2-x,1/2+y,1/2+z
x,1/2-y,z
loop_
_atom_site_type_symbol
_atom_site_label
_atom_site_fract_x
_atom_site_fract_y
_atom_site_fract_z
Si Si1 0.911618 0.914518 0.496994
Si Si2 0.988128 0.090668 0.289201
Si Si3 0.805970 0.089525 0.805807
Si Si4 0.803283 0.912184 0.698505
Si Si5 0.872177 0.906651 0.368835
Si Si6 0.972916 0.913617 0.834247
Si Si7 0.441566 0.415174 0.455929
Si Si8 0.251303 0.582436 0.925933
O O1 0.927294 0.750000 0.506096
O O2 0.876596 0.934619 0.434415
O O3 0.837210 0.961273 0.540355
O O4 0.000000 0.000000 0.500000
O O5 0.963812 0.250000 0.295589
O O6 0.091131 0.078179 0.303049
O O7 0.976021 0.053503 0.223521
O O8 0.932537 0.002816 0.331738
O O9 0.827562 0.250000 0.794389
O O10 0.726243 0.083918 0.848209
O O11 0.777309 0.010183 0.749463
O O12 0.887630 0.007627 0.830959
O O13 0.782170 0.750000 0.709014
O O14 0.762004 0.954852 0.639324
O O15 0.902915 0.750000 0.359879
O O16 0.949855 0.750000 0.829751
O O17 0.022847 0.933267 0.892397
O O18 0.500000 0.500000 0.500000
O O19 0.445455 0.250000 0.468491
O O20 0.340177 0.460450 0.453537
O O21 0.250482 0.750000 0.927160
#
# Coordination Sequence:
#
# PCOD9465506 Si02
#       8
#     8   8   8   8   8   8   8   8
#     4  10  21  39  59  82 112 148 187 228 275 332
#     4   9  18  33  56  84 110 140 180 226 273 327
#     4  10  21  35  54  82 112 147 182 221 279 338
#     4   9  18  35  58  83 108 141 185 229 275 328
#     4  10  22  35  52  80 113 145 180 221 273 337
#     4   9  20  38  57  81 110 143 188 232 275 330
#     4  10  22  39  60  84 111 148 193 240 287 338
#     4   9  19  36  62  85 109 150 194 231 277 338
#
# _framework density 18.022417999999998
#
# number of rings (size 3 to 8) (size 9 to 14) (size 15 to 20)
#    0.000    2.500    0.000    1.875    3.500    5.000 
#    0.000    1.875    0.000    0.000    0.000    0.000 
#    0.000    0.000    0.000    0.000    0.000    0.000 
#
# Total GULP energy -356987.184758 kJ/mol
# GULP energy per Si atom -5577.924762 kJ/mol
# Density = 1.798140 g / cm^3
# Si number density = 18.022418 Si / 1000 Ang^3
#
#
#
# Elastic Constant Matrix: (Units=GPa)
#
#
# Indices 1 2 3 4 5 6 
#
# 1 76.4249 35.8154 49.9217 0.0000 0.0000 0.0000
# 2 35.8154 46.8666 44.0664 0.0000 0.0000 0.0000
# 3 49.9217 44.0664 72.6713 0.0000 0.0000 0.0000
# 4 0.0000 0.0000 0.0000 22.2502 0.0000 0.0000
# 5 0.0000 0.0000 0.0000 0.0000 26.8898 0.0000
# 6 0.0000 0.0000 0.0000 0.0000 0.0000 27.2388
#
#
#
# Elastic Compliance Matrix: (Units=1/GPa)
#
#
# Indices 1 2 3 4 5 6 
#
# 1 0.024627 -0.006777 -0.012808 0.000000 0.000000 0.000000
# 2 -0.006777 0.051504 -0.026575 0.000000 0.000000 0.000000
# 3 -0.012808 -0.026575 0.038674 0.000000 0.000000 0.000000
# 4 0.000000 0.000000 0.000000 0.044943 0.000000 0.000000
# 5 0.000000 0.000000 0.000000 0.000000 0.037189 0.000000
# 6 0.000000 0.000000 0.000000 0.000000 0.000000 0.036712
#
#
# Mechanical properties :
#
#
# Convention : Reuss Voigt Hill
#
# Bulk Modulus (GPa) = 44.47678 50.61889 47.54784
# Shear Modulus (GPa) = 14.99409 19.68637 17.34023
#
# Velocity S-wave (km/s) = 2.88752 3.30862 3.10522
# Velocity P-wave (km/s) = 5.98742 6.53786 6.26868
#
# Compressibility (1/GPa) = 0.02248364
#
# Stress axis : x y z
#
# Youngs Moduli (GPa) = 40.60545 19.41614 25.85729
#
# Poissons Ratio (x) = 0.13159 0.33119
# Poissons Ratio (y) = 0.27519 0.68716
# Poissons Ratio (z) = 0.52008 0.51599
#
# Static dielectric constant tensor:
#      x y z
#    x 1.611510 0.000000 0.000000 
#    y 0.000000 1.603800 0.000000 
#    z 0.000000 0.000000 1.620510 
# 
# From -- ./inp_files/29828.got.cif
#   From: 2010.05.17/outbox.cif.g08.bks.cpg/sg62_15_cif.got.tgz:29828.got - 2010.06.03 15:25:27.
