data_PCOD9465313
_publ_section_title
;
Structure prediction by ZEFSAII (Michael W. Deem and Ramdas Pophale) SiO2 
 PCOD9465313
Probable space group: P N M A
;
_chemical_formula_sum "Si O2"
_cell_formula_units_Z 44
_cell_length_a 9.350028
_cell_length_b 14.396444
_cell_length_c 17.134693
_cell_angle_alpha 90.000000
_cell_angle_beta 90.000000
_cell_angle_gamma 90.000000
_cell_volume 2306.452268
_symmetry_space_group_name_H-M "P N M A"
_symmetry_group_IT_number 62
_symmetry_cell_setting 'orthorhombic'
loop_
_space_group_symop_operation_xyz
x,y,z
1/2-x,-y,1/2+z
1/2+x,1/2-y,1/2-z
-x,1/2+y,-z
-x,-y,-z
1/2+x,y,1/2-z
1/2-x,1/2+y,1/2+z
x,1/2-y,z
loop_
_atom_site_type_symbol
_atom_site_label
_atom_site_fract_x
_atom_site_fract_y
_atom_site_fract_z
Si Si1 0.084206 0.412292 0.533787
Si Si2 0.005368 0.885692 0.908084
Si Si3 0.598262 0.586864 0.418067
Si Si4 0.990721 0.750000 0.352317
Si Si5 0.696946 0.750000 0.691178
Si Si6 0.935901 0.750000 0.580974
Si Si7 0.751992 0.750000 0.872881
Si Si8 0.340579 0.250000 0.696783
O O1 0.236031 0.442016 0.569395
O O2 0.003978 0.343770 0.595052
O O3 0.000000 0.500000 0.500000
O O4 0.117033 0.341019 0.463792
O O5 0.853113 0.837500 0.891205
O O6 0.115457 0.836904 0.848854
O O7 0.993423 0.996062 0.898885
O O8 0.046773 0.870983 0.998996
O O9 0.598164 0.661390 0.349536
O O10 0.830855 0.750000 0.315045
O O11 0.108344 0.750000 0.285352
O O12 0.699986 0.750000 0.783624
O O13 0.861750 0.750000 0.664421
O O14 0.106327 0.750000 0.578991
#
# Coordination Sequence:
#
# PCOD9465313 Si02
#       8
#     8   8   8   4   4   4   4   4
#     4  10  20  39  65  89 121 159 205 252 297 358
#     4  10  21  40  62  92 115 167 214 243 303 376
#     4  10  20  40  67  87 122 163 210 253 297 368
#     4   9  22  41  61  91 124 161 202 249 313 359
#     4  11  21  41  59  86 128 162 196 257 319 358
#     4  11  20  37  59  88 119 159 198 250 306 353
#     4  11  23  37  59  90 130 155 202 254 304 372
#     4  10  20  44  60  87 127 163 194 260 314 358
#
# _framework density 19.076919
#
# number of rings (size 3 to 8) (size 9 to 14) (size 15 to 20)
#    0.000    1.818    1.818    3.818    0.000    0.000 
#   26.182    0.000    0.000    0.000    0.000    0.000 
#    0.000    0.000    0.000    0.000    0.000    0.000 
#
# Total GULP energy -245526.945913 kJ/mol
# GULP energy per Si atom -5580.157862 kJ/mol
# Density = 1.903350 g / cm^3
# Si number density = 19.076919 Si / 1000 Ang^3
#
#
#
# Elastic Constant Matrix: (Units=GPa)
#
#
# Indices 1 2 3 4 5 6 
#
# 1 71.2212 29.6114 26.1157 0.0000 0.0000 0.0000
# 2 29.6114 111.8311 45.0249 0.0000 0.0000 0.0000
# 3 26.1157 45.0249 91.5463 0.0000 0.0000 0.0000
# 4 0.0000 0.0000 0.0000 -2.8551 0.0000 0.0000
# 5 0.0000 0.0000 0.0000 0.0000 37.2258 0.0000
# 6 0.0000 0.0000 0.0000 0.0000 0.0000 -18.4283
#
#
#
# Elastic Compliance Matrix: (Units=1/GPa)
#
#
# Indices 1 2 3 4 5 6 
#
# 1 0.016492 -0.003083 -0.003188 0.000000 0.000000 0.000000
# 2 -0.003083 0.011726 -0.004888 0.000000 0.000000 0.000000
# 3 -0.003188 -0.004888 0.014237 0.000000 0.000000 0.000000
# 4 0.000000 0.000000 0.000000 -0.350252 0.000000 0.000000
# 5 0.000000 0.000000 0.000000 0.000000 0.026863 0.000000
# 6 0.000000 0.000000 0.000000 0.000000 0.000000 -0.054264
#
#
# Mechanical properties :
#
#
# Convention : Reuss Voigt Hill
#
# Bulk Modulus (GPa) = 49.66096 52.90032 51.28064
# Shear Modulus (GPa) = -16.33090 14.77826 -0.77632
#
# Velocity S-wave (km/s) = -2.92902 2.78630 -0.63861
# Velocity P-wave (km/s) = 3.82748 6.17588 5.13766
#
# Compressibility (1/GPa) = 0.02013654
#
# Stress axis : x y z
#
# Youngs Moduli (GPa) = 60.63651 85.27817 70.23997
#
# Poissons Ratio (x) = 0.26293 0.22394
# Poissons Ratio (y) = 0.18695 0.34332
# Poissons Ratio (z) = 0.19333 0.41682
#
# Static dielectric constant tensor:
#      x y z
#    x 1.664400 0.000000 0.000000 
#    y 0.000000 1.651350 0.000000 
#    z 0.000000 0.000000 1.637440 
# 
# From -- ./inp_files/22175.got.cif
#   From: 2010.05.17/outbox.cif.g08.bks.cpg/sg62_12_cif.got.tgz:22175.got - 2010.06.03 15:25:27.
