data_PCOD9465046
_publ_section_title
;
Structure prediction by ZEFSAII (Michael W. Deem and Ramdas Pophale) SiO2 
 PCOD9465046
Probable space group: P N M A
;
_chemical_formula_sum "Si O2"
_cell_formula_units_Z 40
_cell_length_a 8.226059
_cell_length_b 19.629366
_cell_length_c 12.084999
_cell_angle_alpha 90.000000
_cell_angle_beta 90.000000
_cell_angle_gamma 90.000000
_cell_volume 1951.392860
_symmetry_space_group_name_H-M "P N M A"
_symmetry_group_IT_number 62
_symmetry_cell_setting 'orthorhombic'
loop_
_space_group_symop_operation_xyz
x,y,z
1/2-x,-y,1/2+z
1/2+x,1/2-y,1/2-z
-x,1/2+y,-z
-x,-y,-z
1/2+x,y,1/2-z
1/2-x,1/2+y,1/2+z
x,1/2-y,z
loop_
_atom_site_type_symbol
_atom_site_label
_atom_site_fract_x
_atom_site_fract_y
_atom_site_fract_z
Si Si1 0.195149 0.328342 0.871702
Si Si2 0.041420 0.062196 0.276189
Si Si3 0.726398 0.104841 0.415291
Si Si4 0.382420 0.088293 0.686992
Si Si5 0.314590 0.528384 0.991368
O O1 0.192858 0.250000 0.836741
O O2 0.307994 0.372970 0.791809
O O3 0.018498 0.362754 0.863169
O O4 0.251698 0.335250 0.998910
O O5 0.081603 0.109114 0.171586
O O6 0.181848 0.062529 0.371485
O O7 0.879838 0.085725 0.338586
O O8 0.045700 0.984439 0.229370
O O9 0.704123 0.038574 0.494855
O O10 0.244161 0.073788 0.594105
O O11 0.500000 0.500000 0.000000
#
# Coordination Sequence:
#
# PCOD9465046 Si02
#       5
#     8   8   8   8   8
#     4  12  26  43  60  88 129 178 219 251 299 383
#     4  10  20  37  64  98 122 152 198 271 336 363
#     4  10  22  36  62  93 126 156 204 261 317 378
#     4  11  23  40  67  94 130 162 210 268 322 377
#     4   9  18  35  62  96 124 149 195 261 328 369
#
# _framework density 20.498177999999999
#
# number of rings (size 3 to 8) (size 9 to 14) (size 15 to 20)
#    0.000    1.600    2.000    4.200    5.600    1.600 
#    0.000    1.000    0.000    0.000    0.000    0.000 
#    0.000    0.000    0.000    0.000    0.000    0.000 
#
# Total GULP energy -223205.049376 kJ/mol
# GULP energy per Si atom -5580.126234 kJ/mol
# Density = 2.045152 g / cm^3
# Si number density = 20.498178 Si / 1000 Ang^3
#
#
#
# Elastic Constant Matrix: (Units=GPa)
#
#
# Indices 1 2 3 4 5 6 
#
# 1 71.7484 22.6065 32.2013 0.0000 0.0000 0.0000
# 2 22.6065 62.9316 30.2493 0.0000 0.0000 0.0000
# 3 32.2013 30.2493 113.1538 0.0000 0.0000 0.0000
# 4 0.0000 0.0000 0.0000 16.5627 0.0000 0.0000
# 5 0.0000 0.0000 0.0000 0.0000 43.2445 0.0000
# 6 0.0000 0.0000 0.0000 0.0000 0.0000 11.1998
#
#
#
# Elastic Compliance Matrix: (Units=1/GPa)
#
#
# Indices 1 2 3 4 5 6 
#
# 1 0.016946 -0.004325 -0.003666 0.000000 0.000000 0.000000
# 2 -0.004325 0.019337 -0.003939 0.000000 0.000000 0.000000
# 3 -0.003666 -0.003939 0.010934 0.000000 0.000000 0.000000
# 4 0.000000 0.000000 0.000000 0.060377 0.000000 0.000000
# 5 0.000000 0.000000 0.000000 0.000000 0.023124 0.000000
# 6 0.000000 0.000000 0.000000 0.000000 0.000000 0.089287
#
#
# Mechanical properties :
#
#
# Convention : Reuss Voigt Hill
#
# Bulk Modulus (GPa) = 42.81384 46.43868 44.62626
# Shear Modulus (GPa) = 19.86887 25.05318 22.46102
#
# Velocity S-wave (km/s) = 3.11673 3.49981 3.31381
# Velocity P-wave (km/s) = 5.82100 6.24786 6.03820
#
# Compressibility (1/GPa) = 0.02335694
#
# Stress axis : x y z
#
# Youngs Moduli (GPa) = 59.01184 51.71414 91.46003
#
# Poissons Ratio (x) = 0.22367 0.33531
# Poissons Ratio (y) = 0.25523 0.36022
# Poissons Ratio (z) = 0.21635 0.20368
#
# Static dielectric constant tensor:
#      x y z
#    x 0.604480 0.000000 0.000000 
#    y 0.000000 1.706310 0.000000 
#    z 0.000000 0.000000 1.811990 
# 
# From -- ./inp_files/11060.got.cif
#   From: 2010.05.17/outbox.cif.g08.bks.cpg/sg62_6_cif.got.tgz:11060.got - 2010.06.03 15:25:27.
