data_PCOD9465044
_publ_section_title
;
Structure prediction by ZEFSAII (Michael W. Deem and Ramdas Pophale) SiO2 
 PCOD9465044
Probable space group: P N M A
;
_chemical_formula_sum "Si O2"
_cell_formula_units_Z 64
_cell_length_a 11.338731
_cell_length_b 8.024420
_cell_length_c 31.837031
_cell_angle_alpha 90.000000
_cell_angle_beta 90.000000
_cell_angle_gamma 90.000000
_cell_volume 2896.747656
_symmetry_space_group_name_H-M "P N M A"
_symmetry_group_IT_number 62
_symmetry_cell_setting 'orthorhombic'
loop_
_space_group_symop_operation_xyz
x,y,z
1/2-x,-y,1/2+z
1/2+x,1/2-y,1/2-z
-x,1/2+y,-z
-x,-y,-z
1/2+x,y,1/2-z
1/2-x,1/2+y,1/2+z
x,1/2-y,z
loop_
_atom_site_type_symbol
_atom_site_label
_atom_site_fract_x
_atom_site_fract_y
_atom_site_fract_z
Si Si1 0.564243 0.545521 0.778637
Si Si2 0.490735 0.062404 0.548017
Si Si3 0.771512 0.445671 0.083167
Si Si4 0.839356 0.062476 0.411292
Si Si5 0.658821 0.054657 0.278457
Si Si6 0.063671 0.448958 0.364138
Si Si7 0.632385 0.439811 0.996498
Si Si8 0.367713 0.438095 0.629011
O O1 0.569728 0.750000 0.777898
O O2 0.457428 0.491620 0.747090
O O3 0.703250 0.491043 0.772464
O O4 0.508486 0.493117 0.823607
O O5 0.443171 0.250000 0.544138
O O6 0.417907 0.978934 0.586241
O O7 0.500000 0.000000 0.500000
O O8 0.618343 0.053912 0.569438
O O9 0.805533 0.250000 0.090496
O O10 0.692424 0.510451 0.121901
O O11 0.693392 0.446227 0.041147
O O12 0.816770 0.250000 0.395750
O O13 0.976892 0.029988 0.403666
O O14 0.808266 0.046591 0.459976
O O15 0.769124 0.936826 0.382617
O O16 0.666266 0.250000 0.267914
O O17 0.623830 0.030841 0.327142
O O18 0.080165 0.250000 0.358367
O O19 0.635356 0.250000 0.981356
O O20 0.500000 0.500000 0.000000
O O21 0.414562 0.250000 0.633601
#
# Coordination Sequence:
#
# PCOD9465044 Si02
#       8
#     8   8   8   8   8   8   8   8
#     4   9  18  34  60  94 125 153 200 259 308 363
#     4  11  25  43  61  84 118 159 204 254 304 361
#     4  10  21  37  57  83 118 156 197 246 301 356
#     4  11  20  35  59  85 114 152 198 246 299 354
#     4  10  20  37  64  94 121 158 205 254 310 373
#     4   9  17  33  56  85 119 150 187 246 303 352
#     4  11  21  33  51  82 119 155 195 243 295 353
#     4  11  24  41  60  86 119 157 202 250 299 362
#
# _framework density 22.093741999999999
#
# number of rings (size 3 to 8) (size 9 to 14) (size 15 to 20)
#    0.000    1.750    2.500    2.250    0.000    7.000 
#    0.000    3.125    0.000    0.000    0.000    0.000 
#    0.000    0.000    0.000    0.000    0.000    0.000 
#
# Total GULP energy -356350.583204 kJ/mol
# GULP energy per Si atom -5567.977863 kJ/mol
# Density = 2.204346 g / cm^3
# Si number density = 22.093742 Si / 1000 Ang^3
#
#
#
# Elastic Constant Matrix: (Units=GPa)
#
#
# Indices 1 2 3 4 5 6 
#
# 1 113.0114 11.0179 56.6105 0.0000 0.0000 0.0000
# 2 11.0179 23.0242 4.2349 0.0000 0.0000 0.0000
# 3 56.6105 4.2349 118.0682 0.0000 0.0000 0.0000
# 4 0.0000 0.0000 0.0000 19.5127 0.0000 0.0000
# 5 0.0000 0.0000 0.0000 0.0000 41.2506 0.0000
# 6 0.0000 0.0000 0.0000 0.0000 0.0000 16.4551
#
#
#
# Elastic Compliance Matrix: (Units=1/GPa)
#
#
# Indices 1 2 3 4 5 6 
#
# 1 0.012145 -0.004772 -0.005652 0.000000 0.000000 0.000000
# 2 -0.004772 0.045596 0.000653 0.000000 0.000000 0.000000
# 3 -0.005652 0.000653 0.011156 0.000000 0.000000 0.000000
# 4 0.000000 0.000000 0.000000 0.051249 0.000000 0.000000
# 5 0.000000 0.000000 0.000000 0.000000 0.024242 0.000000
# 6 0.000000 0.000000 0.000000 0.000000 0.000000 0.060771
#
#
# Mechanical properties :
#
#
# Convention : Reuss Voigt Hill
#
# Bulk Modulus (GPa) = 20.26163 44.20338 32.23250
# Shear Modulus (GPa) = 20.73356 27.59305 24.16330
#
# Velocity S-wave (km/s) = 3.06671 3.53782 3.31066
# Velocity P-wave (km/s) = 4.66158 6.06126 5.40690
#
# Compressibility (1/GPa) = 0.04935438
#
# Stress axis : x y z
#
# Youngs Moduli (GPa) = 82.33668 21.93163 89.63529
#
# Poissons Ratio (x) = 0.10467 0.50663
# Poissons Ratio (y) = 0.39294 -0.05851
# Poissons Ratio (z) = 0.46538 -0.01432
#
# Static dielectric constant tensor:
#      x y z
#    x 1.939460 0.000000 0.000000 
#    y 0.000000 1.899870 0.000000 
#    z 0.000000 0.000000 1.821410 
# 
# From -- ./inp_files/32475.got.cif
#   From: 2010.05.17/outbox.cif.g08.bks.cpg/sg62_17_cif.got.tgz:32475.got - 2010.06.03 15:25:27.
