data_PCOD9465149
_publ_section_title
;
Structure prediction by ZEFSAII (Michael W. Deem and Ramdas Pophale) SiO2 
 PCOD9465149
Probable space group: P N M A
;
_chemical_formula_sum "Si O2"
_cell_formula_units_Z 56
_cell_length_a 15.158372
_cell_length_b 11.814498
_cell_length_c 14.302187
_cell_angle_alpha 90.000000
_cell_angle_beta 90.000000
_cell_angle_gamma 90.000000
_cell_volume 2561.358013
_symmetry_space_group_name_H-M "P N M A"
_symmetry_group_IT_number 62
_symmetry_cell_setting 'orthorhombic'
loop_
_space_group_symop_operation_xyz
x,y,z
1/2-x,-y,1/2+z
1/2+x,1/2-y,1/2-z
-x,1/2+y,-z
-x,-y,-z
1/2+x,y,1/2-z
1/2-x,1/2+y,1/2+z
x,1/2-y,z
loop_
_atom_site_type_symbol
_atom_site_label
_atom_site_fract_x
_atom_site_fract_y
_atom_site_fract_z
Si Si1 0.994651 0.876393 0.095468
Si Si2 0.604689 0.877281 0.060564
Si Si3 0.763371 0.384354 0.219502
Si Si4 0.588097 0.619784 0.856054
Si Si5 0.331280 0.380155 0.493269
Si Si6 0.931265 0.523108 0.737582
Si Si7 0.802906 0.877339 0.004615
O O1 0.006027 0.750000 0.136516
O O2 0.062719 0.881428 0.008020
O O3 0.893701 0.884935 0.063113
O O4 0.028834 0.966490 0.170215
O O5 0.569843 0.750000 0.060487
O O6 0.711751 0.874219 0.062221
O O7 0.568323 0.936314 0.151365
O O8 0.582925 0.931638 0.959611
O O9 0.756534 0.250000 0.232736
O O10 0.837124 0.431617 0.289820
O O11 0.668551 0.435372 0.241746
O O12 0.797132 0.396241 0.112595
O O13 0.613678 0.750000 0.873309
O O14 0.498206 0.617771 0.798655
O O15 0.304243 0.250000 0.522216
O O16 0.299862 0.497372 0.543709
O O17 0.807335 0.750000 0.957843
#
# Coordination Sequence:
#
# PCOD9465149 Si02
#       7
#     8   8   8   8   8   8   8
#     4  10  23  39  61  94 130 164 212 265 322 386
#     4  10  22  40  62  86 124 164 209 264 313 375
#     4  10  22  39  60  90 127 165 212 264 317 379
#     4  10  23  42  60  90 124 160 211 263 311 376
#     4  10  20  39  60  89 130 164 199 262 320 371
#     4  12  22  37  66  86 123 166 213 253 325 373
#     4  10  20  38  62  91 124 166 211 261 318 381
#
# _framework density 21.863403000000002
#
# number of rings (size 3 to 8) (size 9 to 14) (size 15 to 20)
#    0.000    1.714    1.429    2.571    2.000    0.000 
#    0.000    1.429    0.000    0.857    0.000    0.000 
#    0.000    0.000    0.000    0.000    0.000    0.000 
#
# Total GULP energy -312043.900050 kJ/mol
# GULP energy per Si atom -5572.212501 kJ/mol
# Density = 2.181364 g / cm^3
# Si number density = 21.863403 Si / 1000 Ang^3
#
#
#
# Elastic Constant Matrix: (Units=GPa)
#
#
# Indices 1 2 3 4 5 6 
#
# 1 105.3071 6.4696 47.9289 0.0000 0.0000 0.0000
# 2 6.4696 117.9039 26.9536 0.0000 0.0000 0.0000
# 3 47.9289 26.9536 101.2231 0.0000 0.0000 0.0000
# 4 0.0000 0.0000 0.0000 17.6357 0.0000 0.0000
# 5 0.0000 0.0000 0.0000 0.0000 30.4526 0.0000
# 6 0.0000 0.0000 0.0000 0.0000 0.0000 22.2609
#
#
#
# Elastic Compliance Matrix: (Units=1/GPa)
#
#
# Indices 1 2 3 4 5 6 
#
# 1 0.012157 0.000691 -0.005940 0.000000 0.000000 0.000000
# 2 0.000691 0.009071 -0.002742 0.000000 0.000000 0.000000
# 3 -0.005940 -0.002742 0.013422 0.000000 0.000000 0.000000
# 4 0.000000 0.000000 0.000000 0.056703 0.000000 0.000000
# 5 0.000000 0.000000 0.000000 0.000000 0.032838 0.000000
# 6 0.000000 0.000000 0.000000 0.000000 0.000000 0.044922
#
#
# Mechanical properties :
#
#
# Convention : Reuss Voigt Hill
#
# Bulk Modulus (GPa) = 53.57299 54.12646 53.84973
# Shear Modulus (GPa) = 26.13439 30.27531 28.20485
#
# Velocity S-wave (km/s) = 3.46113 3.72526 3.59562
# Velocity P-wave (km/s) = 6.36626 6.58132 6.47468
#
# Compressibility (1/GPa) = 0.01866612
#
# Stress axis : x y z
#
# Youngs Moduli (GPa) = 82.25533 110.24740 74.50351
#
# Poissons Ratio (x) = -0.07617 0.44258
# Poissons Ratio (y) = -0.05683 0.20432
# Poissons Ratio (z) = 0.48863 0.30235
#
# Static dielectric constant tensor:
#      x y z
#    x 1.786910 0.000000 0.000000 
#    y 0.000000 1.887830 0.000000 
#    z 0.000000 0.000000 1.818200 
# 
# From -- ./inp_files/18996.got.cif
#   From: 2010.05.17/outbox.cif.g08.bks.cpg/sg62_10_cif.got.tgz:18996.got - 2010.06.03 15:25:27.
