data_PCOD9465575
_publ_section_title
;
Structure prediction by ZEFSAII (Michael W. Deem and Ramdas Pophale) SiO2 
 PCOD9465575
Probable space group: P N M A
;
_chemical_formula_sum "Si O2"
_cell_formula_units_Z 64
_cell_length_a 11.254630
_cell_length_b 9.292215
_cell_length_c 34.758028
_cell_angle_alpha 90.000000
_cell_angle_beta 90.000000
_cell_angle_gamma 90.000000
_cell_volume 3635.009921
_symmetry_space_group_name_H-M "P N M A"
_symmetry_group_IT_number 62
_symmetry_cell_setting 'orthorhombic'
loop_
_space_group_symop_operation_xyz
x,y,z
1/2-x,-y,1/2+z
1/2+x,1/2-y,1/2-z
-x,1/2+y,-z
-x,-y,-z
1/2+x,y,1/2-z
1/2-x,1/2+y,1/2+z
x,1/2-y,z
loop_
_atom_site_type_symbol
_atom_site_label
_atom_site_fract_x
_atom_site_fract_y
_atom_site_fract_z
Si Si1 0.247393 0.582301 0.420717
Si Si2 0.615210 0.417370 0.363443
Si Si3 0.350625 0.077450 0.717141
Si Si4 0.992603 0.917347 0.459943
Si Si5 0.881511 0.418586 0.011773
Si Si6 0.838288 0.082277 0.149690
Si Si7 0.251349 0.081578 0.569524
Si Si8 0.122583 0.422982 0.770158
O O1 0.283679 0.750000 0.418270
O O2 0.114962 0.574822 0.437254
O O3 0.326471 0.496993 0.451535
O O4 0.257863 0.505765 0.379785
O O5 0.648617 0.250000 0.360768
O O6 0.648514 0.498770 0.324000
O O7 0.472626 0.425354 0.366658
O O8 0.674308 0.490586 0.400274
O O9 0.349799 0.250000 0.711499
O O10 0.480726 0.043928 0.737043
O O11 0.228550 0.041056 0.739979
O O12 0.967308 0.750000 0.468932
O O13 0.884640 0.968350 0.433299
O O14 0.000000 0.000000 0.500000
O O15 0.901522 0.250000 0.019869
O O16 0.798308 0.429918 0.974168
O O17 0.000000 0.500000 0.000000
O O18 0.804889 0.250000 0.152608
O O19 0.844059 0.006600 0.190973
O O20 0.258097 0.250000 0.580721
O O21 0.128274 0.250000 0.775877
#
# Coordination Sequence:
#
# PCOD9465575 Si02
#       8
#     8   8   8   8   8   8   8   8
#     4  11  22  36  56  80 107 141 183 228 274 326
#     4  10  21  36  56  82 110 143 182 224 269 319
#     4   9  18  35  59  84 112 146 181 222 272 329
#     4  10  21  38  57  77 104 143 185 227 275 328
#     4  11  22  35  54  79 108 140 179 226 274 325
#     4  10  21  37  57  81 112 147 182 224 273 323
#     4  10  21  37  55  76 105 142 181 222 271 324
#     4   9  18  35  59  85 112 145 184 224 272 329
#
# _framework density 17.606553999999999
#
# number of rings (size 3 to 8) (size 9 to 14) (size 15 to 20)
#    0.000    2.000    1.250    2.250    0.000    6.000 
#    2.250    0.000    0.000    0.000    0.000    0.000 
#    0.000    0.000    0.000    0.000    0.000    0.000 
#
# Total GULP energy -356977.751820 kJ/mol
# GULP energy per Si atom -5577.777372 kJ/mol
# Density = 1.756648 g / cm^3
# Si number density = 17.606554 Si / 1000 Ang^3
#
#
#
# Elastic Constant Matrix: (Units=GPa)
#
#
# Indices 1 2 3 4 5 6 
#
# 1 30.5274 15.3920 0.0512 0.0000 0.0000 0.0000
# 2 15.3920 59.9296 22.7460 0.0000 0.0000 0.0000
# 3 0.0512 22.7460 45.2045 0.0000 0.0000 0.0000
# 4 0.0000 0.0000 0.0000 31.1567 0.0000 0.0000
# 5 0.0000 0.0000 0.0000 0.0000 32.6953 0.0000
# 6 0.0000 0.0000 0.0000 0.0000 0.0000 20.4822
#
#
#
# Elastic Compliance Matrix: (Units=1/GPa)
#
#
# Indices 1 2 3 4 5 6 
#
# 1 0.038975 -0.012352 0.006171 0.000000 0.000000 0.000000
# 2 -0.012352 0.024540 -0.012334 0.000000 0.000000 0.000000
# 3 0.006171 -0.012334 0.028321 0.000000 0.000000 0.000000
# 4 0.000000 0.000000 0.000000 0.032096 0.000000 0.000000
# 5 0.000000 0.000000 0.000000 0.000000 0.030585 0.000000
# 6 0.000000 0.000000 0.000000 0.000000 0.000000 0.048823
#
#
# Mechanical properties :
#
#
# Convention : Reuss Voigt Hill
#
# Bulk Modulus (GPa) = 18.24622 23.56001 20.90312
# Shear Modulus (GPa) = 19.33192 23.36500 21.34846
#
# Velocity S-wave (km/s) = 3.31720 3.64684 3.48592
# Velocity P-wave (km/s) = 5.00575 5.58059 5.30097
#
# Compressibility (1/GPa) = 0.05480586
#
# Stress axis : x y z
#
# Youngs Moduli (GPa) = 25.65731 40.74956 35.30950
#
# Poissons Ratio (x) = 0.50336 -0.21791
# Poissons Ratio (y) = 0.31693 0.43551
# Poissons Ratio (z) = -0.15834 0.50261
#
# Static dielectric constant tensor:
#      x y z
#    x 1.637710 0.000000 0.000000 
#    y 0.000000 1.588670 0.000000 
#    z 0.000000 0.000000 1.571340 
# 
# From -- ./inp_files/32449.got.cif
#   From: 2010.05.17/outbox.cif.g08.bks.cpg/sg62_17_cif.got.tgz:32449.got - 2010.06.03 15:25:27.
