data_PCOD9465951
_publ_section_title
;
Structure prediction by ZEFSAII (Michael W. Deem and Ramdas Pophale) SiO2 
 PCOD9465951
Probable space group: P N M A
;
_chemical_formula_sum "Si O2"
_cell_formula_units_Z 48
_cell_length_a 5.003928
_cell_length_b 15.848463
_cell_length_c 28.583799
_cell_angle_alpha 90.000000
_cell_angle_beta 90.000000
_cell_angle_gamma 90.000000
_cell_volume 2266.825825
_symmetry_space_group_name_H-M "P N M A"
_symmetry_group_IT_number 62
_symmetry_cell_setting 'orthorhombic'
loop_
_space_group_symop_operation_xyz
x,y,z
1/2-x,-y,1/2+z
1/2+x,1/2-y,1/2-z
-x,1/2+y,-z
-x,-y,-z
1/2+x,y,1/2-z
1/2-x,1/2+y,1/2+z
x,1/2-y,z
loop_
_atom_site_type_symbol
_atom_site_label
_atom_site_fract_x
_atom_site_fract_y
_atom_site_fract_z
Si Si1 0.507051 0.896043 0.283235
Si Si2 0.736712 0.846927 0.911113
Si Si3 0.154077 0.840233 0.361713
Si Si4 0.753064 0.506904 0.355548
Si Si5 0.253168 0.401984 0.467496
Si Si6 0.072872 0.417067 0.942791
O O1 0.272702 0.881680 0.246216
O O2 0.412604 0.842097 0.327866
O O3 0.566713 0.985117 0.309754
O O4 0.710644 0.750000 0.897468
O O5 0.534529 0.867243 0.953843
O O6 0.034991 0.865652 0.929783
O O7 0.664412 0.913247 0.870152
O O8 0.015958 0.750000 0.355098
O O9 0.243064 0.851814 0.415317
O O10 0.987655 0.924194 0.348951
O O11 0.600601 0.540792 0.401468
O O12 0.259402 0.504198 0.463503
O O13 0.377603 0.381356 0.517850
#
# Coordination Sequence:
#
# PCOD9465951 Si02
#       6
#     8   8   8   8   8   8
#     4  11  23  44  66  90 116 155 198 249 308 376
#     4  11  23  39  62  94 127 165 213 261 310 364
#     4  11  23  39  60  91 127 165 205 256 312 368
#     4  10  22  41  66  92 125 166 205 256 315 374
#     4  10  21  38  62  87 123 170 218 262 305 357
#     4   9  21  37  59  85 126 170 215 260 309 360
#
# _framework density 21.174982
#
# number of rings (size 3 to 8) (size 9 to 14) (size 15 to 20)
#    0.000    1.667    3.333    0.500    2.333    6.667 
#    0.000    0.000    0.000    1.000    0.000    0.000 
#    0.000    0.000    0.000    0.000    0.000    0.000 
#
# Total GULP energy -267808.672485 kJ/mol
# GULP energy per Si atom -5579.347343 kJ/mol
# Density = 2.112679 g / cm^3
# Si number density = 21.174982 Si / 1000 Ang^3
#
#
#
# Elastic Constant Matrix: (Units=GPa)
#
#
# Indices 1 2 3 4 5 6 
#
# 1 80.0380 23.1807 7.2602 0.0000 0.0000 0.0000
# 2 23.1807 135.4611 16.5876 0.0000 0.0000 0.0000
# 3 7.2602 16.5876 53.6242 0.0000 0.0000 0.0000
# 4 0.0000 0.0000 0.0000 2.0555 0.0000 0.0000
# 5 0.0000 0.0000 0.0000 0.0000 33.8734 0.0000
# 6 0.0000 0.0000 0.0000 0.0000 0.0000 18.0766
#
#
#
# Elastic Compliance Matrix: (Units=1/GPa)
#
#
# Indices 1 2 3 4 5 6 
#
# 1 0.013211 -0.002122 -0.001132 0.000000 0.000000 0.000000
# 2 -0.002122 0.008014 -0.002192 0.000000 0.000000 0.000000
# 3 -0.001132 -0.002192 0.019479 0.000000 0.000000 0.000000
# 4 0.000000 0.000000 0.000000 0.486490 0.000000 0.000000
# 5 0.000000 0.000000 0.000000 0.000000 0.029522 0.000000
# 6 0.000000 0.000000 0.000000 0.000000 0.000000 0.055320
#
#
# Mechanical properties :
#
#
# Convention : Reuss Voigt Hill
#
# Bulk Modulus (GPa) = 33.54279 40.35338 36.94809
# Shear Modulus (GPa) = 7.90057 25.60741 16.75399
#
# Velocity S-wave (km/s) = 1.93370 3.48131 2.81591
# Velocity P-wave (km/s) = 4.56736 5.93783 5.29710
#
# Compressibility (1/GPa) = 0.02981266
#
# Stress axis : x y z
#
# Youngs Moduli (GPa) = 75.69221 124.78620 51.33603
#
# Poissons Ratio (x) = 0.26481 0.05813
# Poissons Ratio (y) = 0.16063 0.11251
# Poissons Ratio (z) = 0.08570 0.27348
#
# Static dielectric constant tensor:
#      x y z
#    x 1.844820 0.000000 0.000000 
#    y 0.000000 1.799210 0.000000 
#    z 0.000000 0.000000 1.789550 
# 
# From -- ./inp_files/30409.got.cif
#   From: 2010.05.17/outbox.cif.g08.bks.cpg/sg62_16_cif.got.tgz:30409.got - 2010.06.03 15:25:27.
