data_PCOD9465889
_publ_section_title
;
Structure prediction by ZEFSAII (Michael W. Deem and Ramdas Pophale) SiO2 
 PCOD9465889
Probable space group: P N M A
;
_chemical_formula_sum "Si O2"
_cell_formula_units_Z 56
_cell_length_a 21.426495
_cell_length_b 8.886156
_cell_length_c 14.867954
_cell_angle_alpha 90.000000
_cell_angle_beta 90.000000
_cell_angle_gamma 90.000000
_cell_volume 2830.846207
_symmetry_space_group_name_H-M "P N M A"
_symmetry_group_IT_number 62
_symmetry_cell_setting 'orthorhombic'
loop_
_space_group_symop_operation_xyz
x,y,z
1/2-x,-y,1/2+z
1/2+x,1/2-y,1/2-z
-x,1/2+y,-z
-x,-y,-z
1/2+x,y,1/2-z
1/2-x,1/2+y,1/2+z
x,1/2-y,z
loop_
_atom_site_type_symbol
_atom_site_label
_atom_site_fract_x
_atom_site_fract_y
_atom_site_fract_z
Si Si1 0.016227 0.927642 0.274006
Si Si2 0.230213 0.576363 0.501876
Si Si3 0.133448 0.420999 0.940916
Si Si4 0.848843 0.066051 0.663205
Si Si5 0.258173 0.569697 0.194150
Si Si6 0.449103 0.073361 0.565297
Si Si7 0.111503 0.572414 0.758334
O O1 0.007511 0.750000 0.292855
O O2 0.079703 0.981909 0.321793
O O3 0.032429 0.943028 0.168274
O O4 0.950954 0.011434 0.289720
O O5 0.216871 0.750000 0.528270
O O6 0.292184 0.579309 0.440461
O O7 0.176779 0.519693 0.434582
O O8 0.244613 0.483343 0.590907
O O9 0.110680 0.250000 0.926893
O O10 0.106968 0.526346 0.863264
O O11 0.112379 0.483089 0.037224
O O12 0.848660 0.250000 0.665223
O O13 0.800045 0.019138 0.742230
O O14 0.259396 0.750000 0.198757
O O15 0.324532 0.505669 0.227510
O O16 0.441476 0.250000 0.546788
O O17 0.500000 0.000000 0.500000
O O18 0.116079 0.750000 0.747843
#
# Coordination Sequence:
#
# PCOD9465889 Si02
#       7
#     8   8   8   8   8   8   8
#     4  10  21  38  60  84 117 162 204 248 305 368
#     4  10  21  39  62  90 121 154 198 253 305 356
#     4  11  21  36  58  84 120 160 198 247 305 365
#     4   9  19  39  64  88 120 159 199 248 305 363
#     4  11  22  41  66  92 122 160 205 250 304 368
#     4  11  21  32  51  82 118 154 198 244 299 366
#     4  12  24  38  59  87 121 159 202 250 300 359
#
# _framework density 19.782069
#
# number of rings (size 3 to 8) (size 9 to 14) (size 15 to 20)
#    0.000    1.429    2.857    3.429    0.000    2.857 
#    0.000    2.857    0.000    0.000    0.000    0.000 
#    0.000    0.000    0.000    0.000    0.000    0.000 
#
# Total GULP energy -312629.591782 kJ/mol
# GULP energy per Si atom -5582.671282 kJ/mol
# Density = 1.973704 g / cm^3
# Si number density = 19.782069 Si / 1000 Ang^3
#
#
#
# Elastic Constant Matrix: (Units=GPa)
#
#
# Indices 1 2 3 4 5 6 
#
# 1 95.6514 19.7262 13.0396 0.0000 0.0000 0.0000
# 2 19.7262 56.8492 10.5852 0.0000 0.0000 0.0000
# 3 13.0396 10.5852 40.5548 0.0000 0.0000 0.0000
# 4 0.0000 0.0000 0.0000 26.1440 0.0000 0.0000
# 5 0.0000 0.0000 0.0000 0.0000 34.8537 0.0000
# 6 0.0000 0.0000 0.0000 0.0000 0.0000 19.6031
#
#
#
# Elastic Compliance Matrix: (Units=1/GPa)
#
#
# Indices 1 2 3 4 5 6 
#
# 1 0.011556 -0.003488 -0.002805 0.000000 0.000000 0.000000
# 2 -0.003488 0.019541 -0.003979 0.000000 0.000000 0.000000
# 3 -0.002805 -0.003979 0.026599 0.000000 0.000000 0.000000
# 4 0.000000 0.000000 0.000000 0.038250 0.000000 0.000000
# 5 0.000000 0.000000 0.000000 0.000000 0.028691 0.000000
# 6 0.000000 0.000000 0.000000 0.000000 0.000000 0.051012
#
#
# Mechanical properties :
#
#
# Convention : Reuss Voigt Hill
#
# Bulk Modulus (GPa) = 26.91638 31.08414 29.00026
# Shear Modulus (GPa) = 23.97184 26.10045 25.03615
#
# Velocity S-wave (km/s) = 3.48486 3.63629 3.56138
# Velocity P-wave (km/s) = 5.46153 5.77733 5.62165
#
# Compressibility (1/GPa) = 0.03715210
#
# Stress axis : x y z
#
# Youngs Moduli (GPa) = 86.53275 51.17323 37.59596
#
# Poissons Ratio (x) = 0.17847 0.10547
# Poissons Ratio (y) = 0.30179 0.14960
# Poissons Ratio (z) = 0.24276 0.20363
#
# Static dielectric constant tensor:
#      x y z
#    x 2.289490 0.000000 0.000000 
#    y 0.000000 1.670150 0.000000 
#    z 0.000000 0.000000 1.715480 
# 
# From -- ./inp_files/20439.got.cif
#   From: 2010.05.17/outbox.cif.g08.bks.cpg/sg62_11_cif.got.tgz:20439.got - 2010.06.03 15:25:27.
