data_PCOD9465135
_publ_section_title
;
Structure prediction by ZEFSAII (Michael W. Deem and Ramdas Pophale) SiO2 
 PCOD9465135
Probable space group: P N M A
;
_chemical_formula_sum "Si O2"
_cell_formula_units_Z 40
_cell_length_a 10.522345
_cell_length_b 8.683295
_cell_length_c 23.615958
_cell_angle_alpha 90.000000
_cell_angle_beta 90.000000
_cell_angle_gamma 90.000000
_cell_volume 2157.757628
_symmetry_space_group_name_H-M "P N M A"
_symmetry_group_IT_number 62
_symmetry_cell_setting 'orthorhombic'
loop_
_space_group_symop_operation_xyz
x,y,z
1/2-x,-y,1/2+z
1/2+x,1/2-y,1/2-z
-x,1/2+y,-z
-x,-y,-z
1/2+x,y,1/2-z
1/2-x,1/2+y,1/2+z
x,1/2-y,z
loop_
_atom_site_type_symbol
_atom_site_label
_atom_site_fract_x
_atom_site_fract_y
_atom_site_fract_z
Si Si1 0.498522 0.065302 0.178503
Si Si2 0.235741 0.563916 0.877524
Si Si3 0.502040 0.065296 0.694874
Si Si4 0.754006 0.435968 0.878035
Si Si5 0.142678 0.935905 0.000424
O O1 0.496374 0.250000 0.181096
O O2 0.627561 0.016519 0.146569
O O3 0.498782 0.999841 0.241930
O O4 0.374645 0.006849 0.145733
O O5 0.228757 0.750000 0.874933
O O6 0.123129 0.496474 0.839388
O O7 0.212537 0.517030 0.942602
O O8 0.507608 0.250000 0.696771
O O9 0.373679 0.020417 0.661474
O O10 0.743741 0.250000 0.876769
O O11 0.786339 0.484406 0.942205
O O12 0.135493 0.750000 0.001330
O O13 0.000000 0.000000 0.000000
#
# Coordination Sequence:
#
# PCOD9465135 Si02
#       5
#     8   8   8   8   8
#     4  11  24  39  56  85 120 156 195 237 291 346
#     4  10  22  39  61  88 119 153 192 240 290 345
#     4  11  22  38  61  87 115 153 198 240 287 345
#     4  10  22  39  60  88 119 153 193 240 291 345
#     4  10  20  38  62  88 117 149 192 242 289 345
#
# _framework density 18.537763000000002
#
# number of rings (size 3 to 8) (size 9 to 14) (size 15 to 20)
#    0.000    1.600    2.000    2.400    0.000    8.000 
#    0.000    0.000    0.000    0.000    0.000    0.000 
#    0.000    0.000    0.000    0.000    0.000    0.000 
#
# Total GULP energy -223564.997419 kJ/mol
# GULP energy per Si atom -5589.124935 kJ/mol
# Density = 1.849557 g / cm^3
# Si number density = 18.537763 Si / 1000 Ang^3
#
#
#
# Elastic Constant Matrix: (Units=GPa)
#
#
# Indices 1 2 3 4 5 6 
#
# 1 207.3361 46.9354 132.7360 0.0000 0.0000 0.0000
# 2 46.9354 19.0046 44.9233 0.0000 0.0000 0.0000
# 3 132.7360 44.9233 228.1505 0.0000 0.0000 0.0000
# 4 0.0000 0.0000 0.0000 10.7843 0.0000 0.0000
# 5 0.0000 0.0000 0.0000 0.0000 -95.0410 0.0000
# 6 0.0000 0.0000 0.0000 0.0000 0.0000 31.8439
#
#
#
# Elastic Compliance Matrix: (Units=1/GPa)
#
#
# Indices 1 2 3 4 5 6 
#
# 1 0.011425 -0.023391 -0.002041 0.000000 0.000000 0.000000
# 2 -0.023391 0.146325 -0.015203 0.000000 0.000000 0.000000
# 3 -0.002041 -0.015203 0.008564 0.000000 0.000000 0.000000
# 4 0.000000 0.000000 0.000000 0.092727 0.000000 0.000000
# 5 0.000000 0.000000 0.000000 0.000000 -0.010522 0.000000
# 6 0.000000 0.000000 0.000000 0.000000 0.000000 0.031403
#
#
# Mechanical properties :
#
#
# Convention : Reuss Voigt Hill
#
# Bulk Modulus (GPa) = 11.75872 100.40895 56.08383
# Shear Modulus (GPa) = 12.83563 4.84387 8.83975
#
# Velocity S-wave (km/s) = 2.63421 1.61822 2.18606
# Velocity P-wave (km/s) = 3.95082 7.60090 6.05734
#
# Compressibility (1/GPa) = 0.08504325
#
# Stress axis : x y z
#
# Youngs Moduli (GPa) = 87.52740 6.83412 116.76662
#
# Poissons Ratio (x) = 0.15986 0.23834
# Poissons Ratio (y) = 2.04737 1.77518
# Poissons Ratio (z) = 0.17866 0.10390
#
# Static dielectric constant tensor:
#      x y z
#    x 1.597580 0.000000 0.000000 
#    y 0.000000 1.628120 0.000000 
#    z 0.000000 0.000000 1.627080 
# 
# From -- ./inp_files/26447.got.cif
#   From: 2010.05.17/outbox.cif.g08.bks.cpg/sg62_14_cif.got.tgz:26447.got - 2010.06.03 15:25:27.
