data_PCOD9465586
_publ_section_title
;
Structure prediction by ZEFSAII (Michael W. Deem and Ramdas Pophale) SiO2 
 PCOD9465586
Probable space group: P N M A
;
_chemical_formula_sum "Si O2"
_cell_formula_units_Z 64
_cell_length_a 19.833792
_cell_length_b 7.791466
_cell_length_c 17.056194
_cell_angle_alpha 90.000000
_cell_angle_beta 90.000000
_cell_angle_gamma 90.000000
_cell_volume 2635.767274
_symmetry_space_group_name_H-M "P N M A"
_symmetry_group_IT_number 62
_symmetry_cell_setting 'orthorhombic'
loop_
_space_group_symop_operation_xyz
x,y,z
1/2-x,-y,1/2+z
1/2+x,1/2-y,1/2-z
-x,1/2+y,-z
-x,-y,-z
1/2+x,y,1/2-z
1/2-x,1/2+y,1/2+z
x,1/2-y,z
loop_
_atom_site_type_symbol
_atom_site_label
_atom_site_fract_x
_atom_site_fract_y
_atom_site_fract_z
Si Si1 0.965294 0.541819 0.153529
Si Si2 0.330338 0.051093 0.761642
Si Si3 0.663649 0.043558 0.564487
Si Si4 0.395850 0.549218 0.600242
Si Si5 0.297918 0.544913 0.998418
Si Si6 0.579793 0.447534 0.092575
Si Si7 0.050075 0.046006 0.675152
Si Si8 0.795871 0.539343 0.328980
O O1 0.968491 0.750000 0.149703
O O2 0.890062 0.488224 0.129250
O O3 0.979634 0.484246 0.242066
O O4 0.023597 0.470553 0.098899
O O5 0.324763 0.250000 0.786203
O O6 0.255998 0.982015 0.738136
O O7 0.368703 0.043445 0.677850
O O8 0.375173 0.961731 0.827909
O O9 0.662927 0.250000 0.565173
O O10 0.634486 0.982274 0.480868
O O11 0.741134 0.990493 0.566112
O O12 0.378973 0.750000 0.607957
O O13 0.304928 0.750000 0.004750
O O14 0.370574 0.473667 0.972813
O O15 0.273389 0.484193 0.083628
O O16 0.570211 0.250000 0.072566
O O17 0.505382 0.516356 0.108850
O O18 0.057416 0.250000 0.680637
O O19 0.126576 0.981303 0.672307
O O20 0.794025 0.750000 0.324660
#
# Coordination Sequence:
#
# PCOD9465586 Si02
#       8
#     8   8   8   8   8   8   8   8
#     4  10  21  36  56  84 118 156 196 237 287 348
#     4  11  21  37  64  88 113 154 196 237 287 349
#     4  10  22  37  56  87 123 155 194 244 288 343
#     4  11  21  35  57  86 122 157 190 238 292 344
#     4  10  22  41  61  84 118 158 195 240 294 348
#     4  11  24  40  59  87 122 154 191 242 296 346
#     4  10  21  39  62  86 113 151 198 244 288 343
#     4   9  20  39  63  88 113 149 198 242 285 343
#
# _framework density 24.281354
#
# number of rings (size 3 to 8) (size 9 to 14) (size 15 to 20)
#    0.000    1.750    2.500    1.500    1.750    2.500 
#    0.000    1.875    0.000    0.000    0.000    0.000 
#    0.000    0.000    0.000    0.000    0.000    0.000 
#
# Total GULP energy -357683.649445 kJ/mol
# GULP energy per Si atom -5588.807023 kJ/mol
# Density = 2.422609 g / cm^3
# Si number density = 24.281354 Si / 1000 Ang^3
#
#
#
# Elastic Constant Matrix: (Units=GPa)
#
#
# Indices 1 2 3 4 5 6 
#
# 1 143.8108 -3.0867 -2.2516 0.0000 0.0000 0.0000
# 2 -3.0867 30.9969 -3.1512 0.0000 0.0000 0.0000
# 3 -2.2516 -3.1512 29.9394 0.0000 0.0000 0.0000
# 4 0.0000 0.0000 0.0000 9.6782 0.0000 0.0000
# 5 0.0000 0.0000 0.0000 0.0000 39.2636 0.0000
# 6 0.0000 0.0000 0.0000 0.0000 0.0000 21.7872
#
#
#
# Elastic Compliance Matrix: (Units=1/GPa)
#
#
# Indices 1 2 3 4 5 6 
#
# 1 0.006979 0.000756 0.000604 0.000000 0.000000 0.000000
# 2 0.000756 0.032692 0.003498 0.000000 0.000000 0.000000
# 3 0.000604 0.003498 0.033814 0.000000 0.000000 0.000000
# 4 0.000000 0.000000 0.000000 0.103325 0.000000 0.000000
# 5 0.000000 0.000000 0.000000 0.000000 0.025469 0.000000
# 6 0.000000 0.000000 0.000000 0.000000 0.000000 0.045899
#
#
# Mechanical properties :
#
#
# Convention : Reuss Voigt Hill
#
# Bulk Modulus (GPa) = 12.01875 20.86314 16.44095
# Shear Modulus (GPa) = 18.78322 28.36157 23.57240
#
# Velocity S-wave (km/s) = 2.78432 3.42137 3.11915
# Velocity P-wave (km/s) = 3.91115 4.92124 4.44498
#
# Compressibility (1/GPa) = 0.08320329
#
# Stress axis : x y z
#
# Youngs Moduli (GPa) = 143.28128 30.58834 29.57323
#
# Poissons Ratio (x) = -0.02314 -0.01788
# Poissons Ratio (y) = -0.10839 -0.10344
# Poissons Ratio (z) = -0.08661 -0.10699
#
# Static dielectric constant tensor:
#      x y z
#    x 1.968150 0.000000 0.000000 
#    y 0.000000 1.876770 0.000000 
#    z 0.000000 0.000000 1.950520 
# 
# From -- ./inp_files/27770.got.cif
#   From: 2010.05.17/outbox.cif.g08.bks.cpg/sg62_14_cif.got.tgz:27770.got - 2010.06.03 15:25:27.
