data_PCOD9465006
_publ_section_title
;
Structure prediction by ZEFSAII (Michael W. Deem and Ramdas Pophale) SiO2 
 PCOD9465006
Probable space group: P N M A
;
_chemical_formula_sum "Si O2"
_cell_formula_units_Z 48
_cell_length_a 12.025364
_cell_length_b 9.156557
_cell_length_c 21.339446
_cell_angle_alpha 90.000000
_cell_angle_beta 90.000000
_cell_angle_gamma 90.000000
_cell_volume 2349.706264
_symmetry_space_group_name_H-M "P N M A"
_symmetry_group_IT_number 62
_symmetry_cell_setting 'orthorhombic'
loop_
_space_group_symop_operation_xyz
x,y,z
1/2-x,-y,1/2+z
1/2+x,1/2-y,1/2-z
-x,1/2+y,-z
-x,-y,-z
1/2+x,y,1/2-z
1/2-x,1/2+y,1/2+z
x,1/2-y,z
loop_
_atom_site_type_symbol
_atom_site_label
_atom_site_fract_x
_atom_site_fract_y
_atom_site_fract_z
Si Si1 0.869414 0.918369 0.440194
Si Si2 0.998003 0.923415 0.777385
Si Si3 0.358057 0.418329 0.618985
Si Si4 0.049898 0.423649 0.363943
Si Si5 0.688036 0.921080 0.627466
Si Si6 0.821551 0.922888 0.003267
O O1 0.881273 0.750000 0.460523
O O2 0.196398 0.986654 0.508376
O O3 0.776927 0.921530 0.384096
O O4 0.981741 0.988567 0.415849
O O5 0.973166 0.750000 0.780123
O O6 0.993652 0.966151 0.705072
O O7 0.116962 0.947009 0.810188
O O8 0.909531 0.006748 0.820633
O O9 0.392768 0.250000 0.614059
O O10 0.387011 0.505233 0.555002
O O11 0.030691 0.250000 0.373029
O O12 0.181677 0.449066 0.363607
O O13 0.674610 0.750000 0.610156
O O14 0.644314 0.019428 0.570864
O O15 0.824154 0.750000 0.998881
#
# Coordination Sequence:
#
# PCOD9465006 Si02
#       6
#     8   8   8   8   8   8
#     4   9  20  38  60  87 117 152 191 239 295 345
#     4  10  22  38  61  88 118 158 199 241 287 346
#     4   9  20  38  60  87 117 152 191 239 295 345
#     4  10  22  38  61  88 118 158 199 241 287 346
#     4  10  22  39  56  87 123 150 192 246 293 342
#     4  10  20  37  62  89 115 152 198 240 291 356
#
# _framework density 20.428084999999999
#
# number of rings (size 3 to 8) (size 9 to 14) (size 15 to 20)
#    1.000    1.333    0.000    2.000    2.333    3.333 
#    0.000    0.000    0.000    0.000    0.000    0.000 
#    0.000    0.000    0.000    0.000    0.000    0.000 
#
# Total GULP energy -267868.970632 kJ/mol
# GULP energy per Si atom -5580.603555 kJ/mol
# Density = 2.038159 g / cm^3
# Si number density = 20.428085 Si / 1000 Ang^3
#
#
#
# Elastic Constant Matrix: (Units=GPa)
#
#
# Indices 1 2 3 4 5 6 
#
# 1 69.0354 34.9305 12.8022 0.0000 0.0000 0.0000
# 2 34.9305 65.8122 28.2358 0.0000 0.0000 0.0000
# 3 12.8022 28.2358 71.5664 0.0000 0.0000 0.0000
# 4 0.0000 0.0000 0.0000 29.3644 0.0000 0.0000
# 5 0.0000 0.0000 0.0000 0.0000 30.8678 0.0000
# 6 0.0000 0.0000 0.0000 0.0000 0.0000 26.0033
#
#
#
# Elastic Compliance Matrix: (Units=1/GPa)
#
#
# Indices 1 2 3 4 5 6 
#
# 1 0.019835 -0.010840 0.000729 0.000000 0.000000 0.000000
# 2 -0.010840 0.024215 -0.007615 0.000000 0.000000 0.000000
# 3 0.000729 -0.007615 0.016847 0.000000 0.000000 0.000000
# 4 0.000000 0.000000 0.000000 0.034055 0.000000 0.000000
# 5 0.000000 0.000000 0.000000 0.000000 0.032396 0.000000
# 6 0.000000 0.000000 0.000000 0.000000 0.000000 0.038457
#
#
# Mechanical properties :
#
#
# Convention : Reuss Voigt Hill
#
# Bulk Modulus (GPa) = 39.30077 39.81678 39.55878
# Shear Modulus (GPa) = 23.83906 25.94346 24.89126
#
# Velocity S-wave (km/s) = 3.41981 3.56756 3.49446
# Velocity P-wave (km/s) = 5.90541 6.04181 5.97400
#
# Compressibility (1/GPa) = 0.02544479
#
# Stress axis : x y z
#
# Youngs Moduli (GPa) = 50.41544 41.29602 59.35770
#
# Poissons Ratio (x) = 0.44766 -0.04326
# Poissons Ratio (y) = 0.54652 0.45200
# Poissons Ratio (z) = -0.03674 0.31446
#
# Static dielectric constant tensor:
#      x y z
#    x 1.756380 0.000000 0.000000 
#    y 0.000000 1.688390 0.000000 
#    z 0.000000 0.000000 1.720350 
# 
# From -- ./inp_files/29263.got.cif
#   From: 2010.05.17/outbox.cif.g08.bks.cpg/sg62_15_cif.got.tgz:29263.got - 2010.06.03 15:25:27.
