data_PCOD9465536
_publ_section_title
;
Structure prediction by ZEFSAII (Michael W. Deem and Ramdas Pophale) SiO2 
 PCOD9465536
Probable space group: P N M A
;
_chemical_formula_sum "Si O2"
_cell_formula_units_Z 60
_cell_length_a 18.231747
_cell_length_b 7.523227
_cell_length_c 18.032050
_cell_angle_alpha 90.000000
_cell_angle_beta 90.000000
_cell_angle_gamma 90.000000
_cell_volume 2473.304312
_symmetry_space_group_name_H-M "P N M A"
_symmetry_group_IT_number 62
_symmetry_cell_setting 'orthorhombic'
loop_
_space_group_symop_operation_xyz
x,y,z
1/2-x,-y,1/2+z
1/2+x,1/2-y,1/2-z
-x,1/2+y,-z
-x,-y,-z
1/2+x,y,1/2-z
1/2-x,1/2+y,1/2+z
x,1/2-y,z
loop_
_atom_site_type_symbol
_atom_site_label
_atom_site_fract_x
_atom_site_fract_y
_atom_site_fract_z
Si Si1 0.496093 0.041521 0.624825
Si Si2 0.835677 0.536111 0.413066
Si Si3 0.417790 0.468052 0.770370
Si Si4 0.245516 0.552483 0.278449
Si Si5 0.270622 0.548111 0.940583
Si Si6 0.001890 0.461739 0.587521
Si Si7 0.704976 0.750000 0.805689
Si Si8 0.113461 0.035293 0.993741
O O1 0.511311 0.250000 0.636355
O O2 0.472117 0.970868 0.705071
O O3 0.564282 0.971662 0.576535
O O4 0.427569 0.022118 0.568534
O O5 0.998725 0.250000 0.592768
O O6 0.830843 0.490327 0.500117
O O7 0.916801 0.484324 0.385466
O O8 0.782735 0.409040 0.367824
O O9 0.416089 0.250000 0.770296
O O10 0.334177 0.520485 0.752823
O O11 0.443669 0.529478 0.851965
O O12 0.260082 0.750000 0.249688
O O13 0.237260 0.561825 0.366692
O O14 0.304501 0.407942 0.256655
O O15 0.285912 0.750000 0.918359
O O16 0.194471 0.538288 0.984974
O O17 0.175053 0.250000 0.592135
O O18 0.000000 0.500000 0.500000
O O19 0.115600 0.250000 0.992669
#
# Coordination Sequence:
#
# PCOD9465536 Si02
#       8
#     8   8   8   8   8   8   4   8
#     4   9  19  38  59  87 123 162 214 264 325 393
#     4  10  25  43  67 100 136 182 231 286 342 416
#     4   9  20  39  66  91 123 170 214 270 336 400
#     4  11  24  43  67  98 134 177 223 279 341 415
#     4  11  23  42  64  94 133 177 225 273 336 402
#     4  10  21  41  67  96 130 172 224 285 348 408
#     4  12  26  44  66  98 140 178 224 286 346 408
#     4  10  21  35  61  92 122 168 214 268 324 388
#
# _framework density 24.259045
#
# number of rings (size 3 to 8) (size 9 to 14) (size 15 to 20)
#    0.000    1.867    0.667    2.000    4.667    1.600 
#    1.200    2.667    0.000    0.000    0.000    0.000 
#    0.000    0.000    0.000    0.000    0.000    0.000 
#
# Total GULP energy -334325.662321 kJ/mol
# GULP energy per Si atom -5572.094372 kJ/mol
# Density = 2.420383 g / cm^3
# Si number density = 24.259045 Si / 1000 Ang^3
#
#
#
# Elastic Constant Matrix: (Units=GPa)
#
#
# Indices 1 2 3 4 5 6 
#
# 1 54.1708 -10.1277 3.3806 0.0000 0.0000 0.0000
# 2 -10.1277 95.2578 1.0922 0.0000 0.0000 0.0000
# 3 3.3806 1.0922 97.2681 0.0000 0.0000 0.0000
# 4 0.0000 0.0000 0.0000 34.4778 0.0000 0.0000
# 5 0.0000 0.0000 0.0000 0.0000 29.0533 0.0000
# 6 0.0000 0.0000 0.0000 0.0000 0.0000 8.8549
#
#
#
# Elastic Compliance Matrix: (Units=1/GPa)
#
#
# Indices 1 2 3 4 5 6 
#
# 1 0.018879 0.002015 -0.000679 0.000000 0.000000 0.000000
# 2 0.002015 0.010714 -0.000190 0.000000 0.000000 0.000000
# 3 -0.000679 -0.000190 0.010307 0.000000 0.000000 0.000000
# 4 0.000000 0.000000 0.000000 0.029004 0.000000 0.000000
# 5 0.000000 0.000000 0.000000 0.000000 0.034419 0.000000
# 6 0.000000 0.000000 0.000000 0.000000 0.000000 0.112931
#
#
# Mechanical properties :
#
#
# Convention : Reuss Voigt Hill
#
# Bulk Modulus (GPa) = 23.70129 26.15410 24.92769
# Shear Modulus (GPa) = 21.92719 31.30065 26.61392
#
# Velocity S-wave (km/s) = 3.00972 3.59593 3.31580
# Velocity P-wave (km/s) = 4.67645 5.29580 4.99573
#
# Compressibility (1/GPa) = 0.04219180
#
# Stress axis : x y z
#
# Youngs Moduli (GPa) = 52.96831 93.33374 97.02532
#
# Poissons Ratio (x) = -0.18807 0.06586
# Poissons Ratio (y) = -0.10673 0.01847
# Poissons Ratio (z) = 0.03595 0.01776
#
# Static dielectric constant tensor:
#      x y z
#    x 2.005130 0.000000 0.000000 
#    y 0.000000 1.872600 0.000000 
#    z 0.000000 0.000000 2.000800 
# 
# From -- ./inp_files/24354.got.cif
#   From: 2010.05.17/outbox.cif.g08.bks.cpg/sg62_13_cif.got.tgz:24354.got - 2010.06.03 15:25:27.
