data_PCOD9465532
_publ_section_title
;
Structure prediction by ZEFSAII (Michael W. Deem and Ramdas Pophale) SiO2 
 PCOD9465532
Probable space group: P N M A
;
_chemical_formula_sum "Si O2"
_cell_formula_units_Z 48
_cell_length_a 12.297315
_cell_length_b 14.676553
_cell_length_c 11.867453
_cell_angle_alpha 90.000000
_cell_angle_beta 90.000000
_cell_angle_gamma 90.000000
_cell_volume 2141.863971
_symmetry_space_group_name_H-M "P N M A"
_symmetry_group_IT_number 62
_symmetry_cell_setting 'orthorhombic'
loop_
_space_group_symop_operation_xyz
x,y,z
1/2-x,-y,1/2+z
1/2+x,1/2-y,1/2-z
-x,1/2+y,-z
-x,-y,-z
1/2+x,y,1/2-z
1/2-x,1/2+y,1/2+z
x,1/2-y,z
loop_
_atom_site_type_symbol
_atom_site_label
_atom_site_fract_x
_atom_site_fract_y
_atom_site_fract_z
Si Si1 0.690082 0.358551 0.296609
Si Si2 0.676444 0.646381 0.400365
Si Si3 0.371041 0.596878 0.948446
Si Si4 0.263727 0.853777 0.329137
Si Si5 0.117233 0.607759 0.537606
Si Si6 0.949534 0.862005 0.010669
O O1 0.676848 0.250000 0.275617
O O2 0.670139 0.408166 0.179336
O O3 0.807570 0.372021 0.354804
O O4 0.603057 0.388452 0.391677
O O5 0.642692 0.750000 0.371331
O O6 0.779373 0.648408 0.481620
O O7 0.714751 0.602287 0.283096
O O8 0.571466 0.606938 0.463475
O O9 0.492686 0.636595 0.948606
O O10 0.379003 0.499371 0.009489
O O11 0.295156 0.750000 0.297421
O O12 0.174717 0.849901 0.427933
O O13 0.369856 0.894786 0.388973
O O14 0.944584 0.750000 0.008732
#
# Coordination Sequence:
#
# PCOD9465532 Si02
#       6
#     8   8   8   8   8   8
#     4  10  22  42  68  92 122 169 216 265 321 383
#     4  10  21  35  59  92 119 152 205 259 307 376
#     4  11  25  40  61  92 125 164 210 258 318 379
#     4   9  19  37  62  86 117 160 200 251 313 375
#     4  10  24  44  61  89 129 165 206 260 319 376
#     4   8  17  36  57  87 119 151 203 258 310 368
#
# _framework density 22.410387
#
# number of rings (size 3 to 8) (size 9 to 14) (size 15 to 20)
#    0.000    2.333    0.000    2.000    7.000    2.667 
#    0.000    3.333    0.000    0.000    0.000    0.000 
#    0.000    0.000    0.000    0.000    0.000    0.000 
#
# Total GULP energy -268084.592612 kJ/mol
# GULP energy per Si atom -5585.095679 kJ/mol
# Density = 2.235938 g / cm^3
# Si number density = 22.410387 Si / 1000 Ang^3
#
#
#
# Elastic Constant Matrix: (Units=GPa)
#
#
# Indices 1 2 3 4 5 6 
#
# 1 161.6039 -6.0071 65.9893 0.0000 0.0000 0.0000
# 2 -6.0071 43.5455 -16.1114 0.0000 0.0000 0.0000
# 3 65.9893 -16.1114 115.3468 0.0000 0.0000 0.0000
# 4 0.0000 0.0000 0.0000 -5.1486 0.0000 0.0000
# 5 0.0000 0.0000 0.0000 0.0000 13.9727 0.0000
# 6 0.0000 0.0000 0.0000 0.0000 0.0000 74.9372
#
#
#
# Elastic Compliance Matrix: (Units=1/GPa)
#
#
# Indices 1 2 3 4 5 6 
#
# 1 0.008090 -0.000629 -0.004716 0.000000 0.000000 0.000000
# 2 -0.000629 0.024265 0.003749 0.000000 0.000000 0.000000
# 3 -0.004716 0.003749 0.011891 0.000000 0.000000 0.000000
# 4 0.000000 0.000000 0.000000 -0.194227 0.000000 0.000000
# 5 0.000000 0.000000 0.000000 0.000000 0.071568 0.000000
# 6 0.000000 0.000000 0.000000 0.000000 0.000000 0.013345
#
#
# Mechanical properties :
#
#
# Convention : Reuss Voigt Hill
#
# Bulk Modulus (GPa) = 24.35802 45.35976 34.85889
# Shear Modulus (GPa) = -103.75393 35.19395 -34.27999
#
# Velocity S-wave (km/s) = -6.81159 3.96716 -3.91531
# Velocity P-wave (km/s) = 7.13940 6.42409 2.20250
#
# Compressibility (1/GPa) = 0.04105424
#
# Stress axis : x y z
#
# Youngs Moduli (GPa) = 123.60216 41.21190 84.09449
#
# Poissons Ratio (x) = 0.02592 0.39662
# Poissons Ratio (y) = 0.07774 -0.31528
# Poissons Ratio (z) = 0.58295 -0.15451
#
# Static dielectric constant tensor:
#      x y z
#    x 1.811200 0.000000 0.000000 
#    y 0.000000 1.929790 0.000000 
#    z 0.000000 0.000000 1.786800 
# 
# From -- ./inp_files/12219.got.cif
#   From: 2010.05.17/outbox.cif.g08.bks.cpg/sg62_7_cif.got.tgz:12219.got - 2010.06.03 15:25:27.
