data_PCOD9465903
_publ_section_title
;
Structure prediction by ZEFSAII (Michael W. Deem and Ramdas Pophale) SiO2 
 PCOD9465903
Probable space group: P N M A
;
_chemical_formula_sum "Si O2"
_cell_formula_units_Z 40
_cell_length_a 11.248861
_cell_length_b 19.820955
_cell_length_c 8.365039
_cell_angle_alpha 90.000000
_cell_angle_beta 90.000000
_cell_angle_gamma 90.000000
_cell_volume 1865.095593
_symmetry_space_group_name_H-M "P N M A"
_symmetry_group_IT_number 62
_symmetry_cell_setting 'orthorhombic'
loop_
_space_group_symop_operation_xyz
x,y,z
1/2-x,-y,1/2+z
1/2+x,1/2-y,1/2-z
-x,1/2+y,-z
-x,-y,-z
1/2+x,y,1/2-z
1/2-x,1/2+y,1/2+z
x,1/2-y,z
loop_
_atom_site_type_symbol
_atom_site_label
_atom_site_fract_x
_atom_site_fract_y
_atom_site_fract_z
Si Si1 0.844597 0.670543 0.376622
Si Si2 0.370436 0.953309 0.696299
Si Si3 0.773385 0.172503 0.196373
Si Si4 0.549503 0.897581 0.912213
Si Si5 0.222957 0.061201 0.877652
O O1 0.859772 0.750000 0.342772
O O2 0.737127 0.662873 0.505531
O O3 0.957767 0.640241 0.470970
O O4 0.818913 0.625248 0.223315
O O5 0.324042 0.877224 0.727906
O O6 0.484066 0.956920 0.812337
O O7 0.375316 0.961767 0.506487
O O8 0.267922 0.002585 0.761276
O O9 0.745591 0.250000 0.229893
O O10 0.896516 0.151764 0.277127
O O11 0.660192 0.921079 0.018299
#
# Coordination Sequence:
#
# PCOD9465903 Si02
#       5
#     8   8   8   8   8
#     4  10  22  40  62  90 122 156 199 246 294 353
#     4  10  21  38  60  87 118 155 198 245 296 353
#     4   9  19  37  60  85 116 153 194 242 294 350
#     4  10  21  39  63  90 118 157 199 246 299 353
#     4  11  23  40  62  88 122 157 200 249 296 353
#
# _framework density 21.446624
#
# number of rings (size 3 to 8) (size 9 to 14) (size 15 to 20)
#    0.000    2.000    0.000    3.600    0.000    8.000 
#    0.000    8.000    0.000    0.000    0.000    0.000 
#    0.000    0.000    0.000    0.000    0.000    0.000 
#
# Total GULP energy -223336.975039 kJ/mol
# GULP energy per Si atom -5583.424376 kJ/mol
# Density = 2.139781 g / cm^3
# Si number density = 21.446624 Si / 1000 Ang^3
#
#
#
# Elastic Constant Matrix: (Units=GPa)
#
#
# Indices 1 2 3 4 5 6 
#
# 1 93.7844 29.3457 56.8531 0.0000 0.0000 0.0000
# 2 29.3457 71.9632 47.3541 0.0000 0.0000 0.0000
# 3 56.8531 47.3541 137.6133 0.0000 0.0000 0.0000
# 4 0.0000 0.0000 0.0000 39.0655 0.0000 0.0000
# 5 0.0000 0.0000 0.0000 0.0000 32.1267 0.0000
# 6 0.0000 0.0000 0.0000 0.0000 0.0000 25.2013
#
#
#
# Elastic Compliance Matrix: (Units=1/GPa)
#
#
# Indices 1 2 3 4 5 6 
#
# 1 0.014582 -0.002562 -0.005143 0.000000 0.000000 0.000000
# 2 -0.002562 0.018414 -0.005278 0.000000 0.000000 0.000000
# 3 -0.005143 -0.005278 0.011207 0.000000 0.000000 0.000000
# 4 0.000000 0.000000 0.000000 0.025598 0.000000 0.000000
# 5 0.000000 0.000000 0.000000 0.000000 0.031127 0.000000
# 6 0.000000 0.000000 0.000000 0.000000 0.000000 0.039681
#
#
# Mechanical properties :
#
#
# Convention : Reuss Voigt Hill
#
# Bulk Modulus (GPa) = 54.83114 63.38521 59.10818
# Shear Modulus (GPa) = 28.95972 30.59922 29.77947
#
# Velocity S-wave (km/s) = 3.67865 3.78135 3.73035
# Velocity P-wave (km/s) = 6.60796 6.97738 6.79518
#
# Compressibility (1/GPa) = 0.01823781
#
# Stress axis : x y z
#
# Youngs Moduli (GPa) = 68.57742 54.30699 89.22604
#
# Poissons Ratio (x) = 0.13915 0.45886
# Poissons Ratio (y) = 0.17572 0.47092
# Poissons Ratio (z) = 0.35267 0.28662
#
# Static dielectric constant tensor:
#      x y z
#    x 1.838630 0.000000 0.000000 
#    y 0.000000 1.752180 0.000000 
#    z 0.000000 0.000000 1.814680 
# 
# From -- ./inp_files/5008.got.cif
#   From: 2010.05.17/outbox.cif.g08.bks.cpg/sg62_3_cif.got.tgz:5008.got - 2010.06.03 15:25:27.
