data_PCOD9465233
_publ_section_title
;
Structure prediction by ZEFSAII (Michael W. Deem and Ramdas Pophale) SiO2 
 PCOD9465233
Probable space group: P N M A
;
_chemical_formula_sum "Si O2"
_cell_formula_units_Z 40
_cell_length_a 9.788562
_cell_length_b 18.828020
_cell_length_c 7.970858
_cell_angle_alpha 90.000000
_cell_angle_beta 90.000000
_cell_angle_gamma 90.000000
_cell_volume 1469.023080
_symmetry_space_group_name_H-M "P N M A"
_symmetry_group_IT_number 62
_symmetry_cell_setting 'orthorhombic'
loop_
_space_group_symop_operation_xyz
x,y,z
1/2-x,-y,1/2+z
1/2+x,1/2-y,1/2-z
-x,1/2+y,-z
-x,-y,-z
1/2+x,y,1/2-z
1/2-x,1/2+y,1/2+z
x,1/2-y,z
loop_
_atom_site_type_symbol
_atom_site_label
_atom_site_fract_x
_atom_site_fract_y
_atom_site_fract_z
Si Si1 0.471231 0.830596 0.728216
Si Si2 0.214794 0.168388 0.903944
Si Si3 0.864474 0.443174 0.799921
Si Si4 0.772782 0.673373 0.458282
Si Si5 0.909231 0.473171 0.338170
O O1 0.527555 0.750000 0.726410
O O2 0.675766 0.894560 0.134730
O O3 0.362946 0.832234 0.880561
O O4 0.573062 0.891797 0.787749
O O5 0.269702 0.250000 0.923766
O O6 0.114906 0.156933 0.058539
O O7 0.991590 0.980205 0.200983
O O8 0.143653 0.167222 0.717868
O O9 0.745465 0.500782 0.829337
O O10 0.839652 0.386575 0.945333
O O11 0.706157 0.750000 0.448852
O O12 0.000000 0.500000 0.500000
#
# Coordination Sequence:
#
# PCOD9465233 Si02
#       5
#     8   8   8   8   8
#     4  10  20  38  67  98 137 182 226 285 347 415
#     4   8  17  37  63  98 134 180 231 276 341 416
#     4  10  23  42  69  96 137 181 223 292 342 406
#     4   8  16  37  62  96 137 179 224 279 341 409
#     4  12  25  45  70 105 139 182 238 287 353 419
#
# _framework density 27.228981999999998
#
# number of rings (size 3 to 8) (size 9 to 14) (size 15 to 20)
#    1.200    1.200    2.000    0.000    2.800    0.800 
#    0.000    7.000    0.000    4.800    0.000    0.000 
#    0.000    0.000    0.000    0.000    0.000    0.000 
#
# Total GULP energy -223800.430788 kJ/mol
# GULP energy per Si atom -5595.010770 kJ/mol
# Density = 2.716701 g / cm^3
# Si number density = 27.228982 Si / 1000 Ang^3
#
#
#
# Elastic Constant Matrix: (Units=GPa)
#
#
# Indices 1 2 3 4 5 6 
#
# 1 65.3300 45.6496 16.6964 0.0000 0.0000 0.0000
# 2 45.6496 196.4124 9.6894 0.0000 0.0000 0.0000
# 3 16.6964 9.6894 193.8585 0.0000 0.0000 0.0000
# 4 0.0000 0.0000 0.0000 23.3881 0.0000 0.0000
# 5 0.0000 0.0000 0.0000 0.0000 34.6825 0.0000
# 6 0.0000 0.0000 0.0000 0.0000 0.0000 -11.1782
#
#
#
# Elastic Compliance Matrix: (Units=1/GPa)
#
#
# Indices 1 2 3 4 5 6 
#
# 1 0.018642 -0.004264 -0.001392 0.000000 0.000000 0.000000
# 2 -0.004264 0.006079 0.000063 0.000000 0.000000 0.000000
# 3 -0.001392 0.000063 0.005275 0.000000 0.000000 0.000000
# 4 0.000000 0.000000 0.000000 0.042757 0.000000 0.000000
# 5 0.000000 0.000000 0.000000 0.000000 0.028833 0.000000
# 6 0.000000 0.000000 0.000000 0.000000 0.000000 -0.089460
#
#
# Mechanical properties :
#
#
# Convention : Reuss Voigt Hill
#
# Bulk Modulus (GPa) = 53.16208 66.63018 59.89613
# Shear Modulus (GPa) = 169.01393 34.94950 101.98171
#
# Velocity S-wave (km/s) = 7.88708 3.58654 6.12656
# Velocity P-wave (km/s) = 10.12462 6.45558 8.49065
#
# Compressibility (1/GPa) = 0.01881040
#
# Stress axis : x y z
#
# Youngs Moduli (GPa) = 53.64131 164.49388 189.56765
#
# Poissons Ratio (x) = 0.70142 0.26397
# Poissons Ratio (y) = 0.22873 -0.01202
# Poissons Ratio (z) = 0.07469 -0.01043
#
# Static dielectric constant tensor:
#      x y z
#    x 2.072530 0.000000 0.000000 
#    y 0.000000 2.173010 0.000000 
#    z 0.000000 0.000000 2.253500 
# 
# From -- ./inp_files/8477.got.cif
#   From: 2010.05.17/outbox.cif.g08.bks.cpg/sg62_5_cif.got.tgz:8477.got - 2010.06.03 15:25:27.
