data_PCOD9465945
_publ_section_title
;
Structure prediction by ZEFSAII (Michael W. Deem and Ramdas Pophale) SiO2 
 PCOD9465945
Probable space group: P N M A
;
_chemical_formula_sum "Si O2"
_cell_formula_units_Z 28
_cell_length_a 5.049534
_cell_length_b 11.243694
_cell_length_c 22.570313
_cell_angle_alpha 90.000000
_cell_angle_beta 90.000000
_cell_angle_gamma 90.000000
_cell_volume 1281.438890
_symmetry_space_group_name_H-M "P N M A"
_symmetry_group_IT_number 62
_symmetry_cell_setting 'orthorhombic'
loop_
_space_group_symop_operation_xyz
x,y,z
1/2-x,-y,1/2+z
1/2+x,1/2-y,1/2-z
-x,1/2+y,-z
-x,-y,-z
1/2+x,y,1/2-z
1/2-x,1/2+y,1/2+z
x,1/2-y,z
loop_
_atom_site_type_symbol
_atom_site_label
_atom_site_fract_x
_atom_site_fract_y
_atom_site_fract_z
Si Si1 0.606778 0.250000 0.286675
Si Si2 0.918247 0.435171 0.117543
Si Si3 0.078370 0.612171 0.541287
Si Si4 0.495464 0.607745 0.287274
O O1 0.413227 0.250000 0.230218
O O2 0.521538 0.140489 0.327150
O O3 0.126375 0.411534 0.065193
O O4 0.630445 0.397874 0.095325
O O5 0.930318 0.565019 0.146459
O O6 0.062563 0.750000 0.518490
O O7 0.000000 0.500000 0.500000
O O8 0.772865 0.567183 0.259501
O O9 0.497440 0.750000 0.287545
#
# Coordination Sequence:
#
# PCOD9465945 Si02
#       4
#     4   8   8   8
#     4  12  22  36  64  96 132 166 200 250 330 398
#     4  12  23  42  65  93 132 163 217 268 329 389
#     4  12  26  46  67  92 127 171 223 285 331 387
#     4  10  21  38  61  93 132 171 209 254 316 397
#
# _framework density 21.850439000000001
#
# number of rings (size 3 to 8) (size 9 to 14) (size 15 to 20)
#    0.000    0.571    2.857    6.000    0.000    2.286 
#    0.000    0.000    0.000    0.000    0.000    0.000 
#    0.000    0.000    0.000    0.000    0.000    0.000 
#
# Total GULP energy -156466.423894 kJ/mol
# GULP energy per Si atom -5588.086568 kJ/mol
# Density = 2.180071 g / cm^3
# Si number density = 21.850439 Si / 1000 Ang^3
#
#
#
# Elastic Constant Matrix: (Units=GPa)
#
#
# Indices 1 2 3 4 5 6 
#
# 1 58.0369 -4.9987 -14.2668 0.0000 0.0000 0.0000
# 2 -4.9987 91.7240 35.3624 0.0000 0.0000 0.0000
# 3 -14.2668 35.3624 42.7063 0.0000 0.0000 0.0000
# 4 0.0000 0.0000 0.0000 39.3004 0.0000 0.0000
# 5 0.0000 0.0000 0.0000 0.0000 41.6658 0.0000
# 6 0.0000 0.0000 0.0000 0.0000 0.0000 15.4610
#
#
#
# Elastic Compliance Matrix: (Units=1/GPa)
#
#
# Indices 1 2 3 4 5 6 
#
# 1 0.019038 -0.002078 0.008080 0.000000 0.000000 0.000000
# 2 -0.002078 0.016241 -0.014143 0.000000 0.000000 0.000000
# 3 0.008080 -0.014143 0.037826 0.000000 0.000000 0.000000
# 4 0.000000 0.000000 0.000000 0.025445 0.000000 0.000000
# 5 0.000000 0.000000 0.000000 0.000000 0.024001 0.000000
# 6 0.000000 0.000000 0.000000 0.000000 0.000000 0.064679
#
#
# Mechanical properties :
#
#
# Convention : Reuss Voigt Hill
#
# Bulk Modulus (GPa) = 17.59789 24.96233 21.28011
# Shear Modulus (GPa) = 22.47685 31.04345 26.76015
#
# Velocity S-wave (km/s) = 3.21077 3.77334 3.50336
# Velocity P-wave (km/s) = 4.67083 5.51662 5.11125
#
# Compressibility (1/GPa) = 0.05682500
#
# Stress axis : x y z
#
# Youngs Moduli (GPa) = 52.52709 61.57085 26.43700
#
# Poissons Ratio (x) = 0.12793 -0.21362
# Poissons Ratio (y) = 0.10914 0.37389
# Poissons Ratio (z) = -0.42444 0.87077
#
# Static dielectric constant tensor:
#      x y z
#    x 1.766060 0.000000 0.000000 
#    y 0.000000 0.583560 0.000000 
#    z 0.000000 0.000000 1.782110 
# 
# From -- ./inp_files/25069.got.cif
#   From: 2010.05.17/outbox.cif.g08.bks.cpg/sg62_13_cif.got.tgz:25069.got - 2010.06.03 15:25:27.
