data_PCOD9465470
_publ_section_title
;
Structure prediction by ZEFSAII (Michael W. Deem and Ramdas Pophale) SiO2 
 PCOD9465470
Probable space group: P N M A
;
_chemical_formula_sum "Si O2"
_cell_formula_units_Z 56
_cell_length_a 18.283166
_cell_length_b 19.723278
_cell_length_c 7.082673
_cell_angle_alpha 90.000000
_cell_angle_beta 90.000000
_cell_angle_gamma 90.000000
_cell_volume 2554.039972
_symmetry_space_group_name_H-M "P N M A"
_symmetry_group_IT_number 62
_symmetry_cell_setting 'orthorhombic'
loop_
_space_group_symop_operation_xyz
x,y,z
1/2-x,-y,1/2+z
1/2+x,1/2-y,1/2-z
-x,1/2+y,-z
-x,-y,-z
1/2+x,y,1/2-z
1/2-x,1/2+y,1/2+z
x,1/2-y,z
loop_
_atom_site_type_symbol
_atom_site_label
_atom_site_fract_x
_atom_site_fract_y
_atom_site_fract_z
Si Si1 0.469201 0.674652 0.359329
Si Si2 0.073660 0.954815 0.153758
Si Si3 0.062462 0.985254 0.716928
Si Si4 0.126999 0.124255 0.561272
Si Si5 0.834943 0.669328 0.857857
Si Si6 0.699723 0.919123 0.840167
Si Si7 0.730125 0.566182 0.399661
O O1 0.497235 0.750000 0.405213
O O2 0.529478 0.615757 0.364911
O O3 0.429682 0.674983 0.155981
O O4 0.401949 0.657180 0.499145
O O5 0.078488 0.986631 0.943304
O O6 0.155911 0.939869 0.218508
O O7 0.025005 0.005385 0.280980
O O8 0.093583 0.052330 0.621437
O O9 0.111280 0.923758 0.634410
O O10 0.139908 0.137364 0.341851
O O11 0.208058 0.120384 0.653453
O O12 0.826372 0.750000 0.837004
O O13 0.756780 0.636544 0.913696
O O14 0.708177 0.915196 0.612789
O O15 0.734067 0.991628 0.898466
#
# Coordination Sequence:
#
# PCOD9465470 Si02
#       7
#     8   8   8   8   8   8   8
#     4  10  21  36  58  79 106 154 187 216 272 332
#     4   9  17  31  55  81 115 141 174 232 271 333
#     4   8  16  30  52  79 106 139 171 213 285 311
#     4   9  18  36  57  80 109 136 186 229 266 324
#     4  10  21  34  53  81 106 142 188 224 264 321
#     4   9  18  30  52  78 105 138 175 226 269 319
#     4   9  18  31  54  85 106 140 175 228 289 311
#
# _framework density 21.926048000000002
#
# number of rings (size 3 to 8) (size 9 to 14) (size 15 to 20)
#    0.000    2.857    0.000    0.429   12.000    0.000 
#    0.000    7.857   15.714    0.000    0.000    8.000 
#    0.000    0.000    0.000    0.000    0.000    0.000 
#
# Total GULP energy -312199.655777 kJ/mol
# GULP energy per Si atom -5574.993853 kJ/mol
# Density = 2.187614 g / cm^3
# Si number density = 21.926048 Si / 1000 Ang^3
#
#
#
# Elastic Constant Matrix: (Units=GPa)
#
#
# Indices 1 2 3 4 5 6 
#
# 1 114.9638 34.0384 10.2913 0.0000 0.0000 0.0000
# 2 34.0384 89.9907 5.0341 0.0000 0.0000 0.0000
# 3 10.2913 5.0341 53.9300 0.0000 0.0000 0.0000
# 4 0.0000 0.0000 0.0000 24.9045 0.0000 0.0000
# 5 0.0000 0.0000 0.0000 0.0000 17.9693 0.0000
# 6 0.0000 0.0000 0.0000 0.0000 0.0000 16.3158
#
#
#
# Elastic Compliance Matrix: (Units=1/GPa)
#
#
# Indices 1 2 3 4 5 6 
#
# 1 0.009923 -0.003666 -0.001551 0.000000 0.000000 0.000000
# 2 -0.003666 0.012525 -0.000470 0.000000 0.000000 0.000000
# 3 -0.001551 -0.000470 0.018882 0.000000 0.000000 0.000000
# 4 0.000000 0.000000 0.000000 0.040153 0.000000 0.000000
# 5 0.000000 0.000000 0.000000 0.000000 0.055650 0.000000
# 6 0.000000 0.000000 0.000000 0.000000 0.000000 0.061290
#
#
# Mechanical properties :
#
#
# Convention : Reuss Voigt Hill
#
# Bulk Modulus (GPa) = 33.38228 39.73469 36.55848
# Shear Modulus (GPa) = 22.74958 25.80598 24.27778
#
# Velocity S-wave (km/s) = 3.22461 3.43440 3.33116
# Velocity P-wave (km/s) = 5.39649 5.82136 5.61295
#
# Compressibility (1/GPa) = 0.02995602
#
# Stress axis : x y z
#
# Youngs Moduli (GPa) = 100.77779 79.83815 52.95934
#
# Poissons Ratio (x) = 0.29272 0.08216
# Poissons Ratio (y) = 0.36950 0.02486
# Poissons Ratio (z) = 0.15634 0.03748
#
# Static dielectric constant tensor:
#      x y z
#    x 1.877590 0.000000 0.000000 
#    y 0.000000 1.770970 0.000000 
#    z 0.000000 0.000000 1.847360 
# 
# From -- ./inp_files/8034.got.cif
#   From: 2010.05.17/outbox.cif.g08.bks.cpg/sg62_5_cif.got.tgz:8034.got - 2010.06.03 15:25:27.
