data_PCOD9465885
_publ_section_title
;
Structure prediction by ZEFSAII (Michael W. Deem and Ramdas Pophale) SiO2 
 PCOD9465885
Probable space group: P N M A
;
_chemical_formula_sum "Si O2"
_cell_formula_units_Z 64
_cell_length_a 12.972432
_cell_length_b 18.275381
_cell_length_c 12.305108
_cell_angle_alpha 90.000000
_cell_angle_beta 90.000000
_cell_angle_gamma 90.000000
_cell_volume 2917.247474
_symmetry_space_group_name_H-M "P N M A"
_symmetry_group_IT_number 62
_symmetry_cell_setting 'orthorhombic'
loop_
_space_group_symop_operation_xyz
x,y,z
1/2-x,-y,1/2+z
1/2+x,1/2-y,1/2-z
-x,1/2+y,-z
-x,-y,-z
1/2+x,y,1/2-z
1/2-x,1/2+y,1/2+z
x,1/2-y,z
loop_
_atom_site_type_symbol
_atom_site_label
_atom_site_fract_x
_atom_site_fract_y
_atom_site_fract_z
Si Si1 0.844920 0.833376 0.709244
Si Si2 0.188061 0.569599 0.080148
Si Si3 0.127986 0.168529 0.631499
Si Si4 0.516677 0.922011 0.255509
Si Si5 0.536071 0.914806 0.817255
Si Si6 0.618132 0.666529 0.607784
Si Si7 0.744812 0.402838 0.427779
Si Si8 0.640354 0.331307 0.624477
O O1 0.880708 0.750000 0.723468
O O2 0.736240 0.831565 0.648251
O O3 0.818327 0.869809 0.825568
O O4 0.929063 0.880091 0.643693
O O5 0.297836 0.610230 0.077325
O O6 0.131087 0.573853 0.197131
O O7 0.205765 0.485173 0.053266
O O8 0.118471 0.612980 0.994143
O O9 0.125227 0.250000 0.582912
O O10 0.180066 0.174696 0.751982
O O11 0.015348 0.136168 0.661766
O O12 0.445606 0.893574 0.355749
O O13 0.480308 0.000807 0.213743
O O14 0.556958 0.869196 0.706992
O O15 0.635142 0.904994 0.893606
O O16 0.586483 0.750000 0.584344
O O17 0.720012 0.355528 0.533680
O O18 0.598361 0.250000 0.598215
#
# Coordination Sequence:
#
# PCOD9465885 Si02
#       8
#     8   8   8   8   8   8   8   8
#     4  10  22  40  59  85 125 159 195 251 306 361
#     4  12  22  37  64  89 121 160 200 252 305 359
#     4   9  21  40  58  83 121 157 195 252 305 356
#     4  10  21  38  59  89 121 149 201 252 301 355
#     4  11  21  39  62  87 120 162 204 245 304 362
#     4  10  24  39  58  91 122 156 203 247 302 368
#     4  11  21  36  61  90 117 158 199 251 299 358
#     4   9  20  37  56  83 117 150 196 248 294 355
#
# _framework density 21.938489000000001
#
# number of rings (size 3 to 8) (size 9 to 14) (size 15 to 20)
#    0.750    1.000    2.500    1.875    1.750    4.500 
#    0.000    1.875    0.000    1.500    0.000    0.000 
#    0.000    0.000    0.000    0.000    0.000    0.000 
#
# Total GULP energy -357040.280146 kJ/mol
# GULP energy per Si atom -5578.754377 kJ/mol
# Density = 2.188856 g / cm^3
# Si number density = 21.938489 Si / 1000 Ang^3
#
#
#
# Elastic Constant Matrix: (Units=GPa)
#
#
# Indices 1 2 3 4 5 6 
#
# 1 60.0310 19.6524 -11.7556 0.0000 0.0000 0.0000
# 2 19.6524 145.7712 13.5193 0.0000 0.0000 0.0000
# 3 -11.7556 13.5193 20.9128 0.0000 0.0000 0.0000
# 4 0.0000 0.0000 0.0000 21.6136 0.0000 0.0000
# 5 0.0000 0.0000 0.0000 0.0000 18.6328 0.0000
# 6 0.0000 0.0000 0.0000 0.0000 0.0000 21.2509
#
#
#
# Elastic Compliance Matrix: (Units=1/GPa)
#
#
# Indices 1 2 3 4 5 6 
#
# 1 0.020832 -0.004143 0.014388 0.000000 0.000000 0.000000
# 2 -0.004143 0.008122 -0.007579 0.000000 0.000000 0.000000
# 3 0.014388 -0.007579 0.060805 0.000000 0.000000 0.000000
# 4 0.000000 0.000000 0.000000 0.046267 0.000000 0.000000
# 5 0.000000 0.000000 0.000000 0.000000 0.053669 0.000000
# 6 0.000000 0.000000 0.000000 0.000000 0.000000 0.047057
#
#
# Mechanical properties :
#
#
# Convention : Reuss Voigt Hill
#
# Bulk Modulus (GPa) = 10.51617 29.94969 20.23293
# Shear Modulus (GPa) = 19.00301 25.98604 22.49452
#
# Velocity S-wave (km/s) = 2.94631 3.44538 3.20558
# Velocity P-wave (km/s) = 4.04700 5.43221 4.78994
#
# Compressibility (1/GPa) = 0.09509166
#
# Stress axis : x y z
#
# Youngs Moduli (GPa) = 48.00319 123.12974 16.44590
#
# Poissons Ratio (x) = 0.51012 -0.23663
# Poissons Ratio (y) = 0.19887 0.12465
# Poissons Ratio (z) = -0.69069 0.93321
#
# Static dielectric constant tensor:
#      x y z
#    x 1.811060 0.000000 0.000000 
#    y 0.000000 1.765800 0.000000 
#    z 0.000000 0.000000 1.846130 
# 
# From -- ./inp_files/18255.got.cif
#   From: 2010.05.17/outbox.cif.g08.bks.cpg/sg62_10_cif.got.tgz:18255.got - 2010.06.03 15:25:27.
