data_PCOD9465091
_publ_section_title
;
Structure prediction by ZEFSAII (Michael W. Deem and Ramdas Pophale) SiO2 
 PCOD9465091
Probable space group: P N M A
;
_chemical_formula_sum "Si O2"
_cell_formula_units_Z 56
_cell_length_a 5.157393
_cell_length_b 14.201475
_cell_length_c 28.421554
_cell_angle_alpha 90.000000
_cell_angle_beta 90.000000
_cell_angle_gamma 90.000000
_cell_volume 2081.668163
_symmetry_space_group_name_H-M "P N M A"
_symmetry_group_IT_number 62
_symmetry_cell_setting 'orthorhombic'
loop_
_space_group_symop_operation_xyz
x,y,z
1/2-x,-y,1/2+z
1/2+x,1/2-y,1/2-z
-x,1/2+y,-z
-x,-y,-z
1/2+x,y,1/2-z
1/2-x,1/2+y,1/2+z
x,1/2-y,z
loop_
_atom_site_type_symbol
_atom_site_label
_atom_site_fract_x
_atom_site_fract_y
_atom_site_fract_z
Si Si1 0.919715 0.750000 0.629699
Si Si2 0.898630 0.445304 0.356004
Si Si3 0.908893 0.853517 0.357767
Si Si4 0.531512 0.861566 0.276699
Si Si5 0.066054 0.250000 0.067575
Si Si6 0.174797 0.140525 0.530499
Si Si7 0.285802 0.560667 0.535336
Si Si8 0.928735 0.861553 0.781808
O O1 0.952146 0.848860 0.655472
O O2 0.641260 0.750000 0.607800
O O3 0.144820 0.750000 0.589593
O O4 0.033146 0.545201 0.346294
O O5 0.635662 0.427602 0.326328
O O6 0.842479 0.445449 0.411932
O O7 0.017036 0.750000 0.343153
O O8 0.633926 0.864135 0.330397
O O9 0.883967 0.851033 0.413755
O O10 0.266274 0.900150 0.255462
O O11 0.507984 0.750000 0.267699
O O12 0.027692 0.349510 0.041890
O O13 0.221713 0.250000 0.517129
O O14 0.929656 0.099628 0.501318
O O15 0.367039 0.049104 0.528605
O O16 0.190628 0.878506 0.753796
O O17 0.921287 0.750000 0.794853
#
# Coordination Sequence:
#
# PCOD9465091 Si02
#       8
#     4   8   8   8   4   8   8   8
#     4  10  22  38  64  93 120 160 212 263 310 370
#     4  10  20  38  60  91 127 169 218 266 323 391
#     4   9  19  35  60  94 130 171 212 269 327 390
#     4   9  18  35  59  86 118 160 209 255 303 370
#     4  10  20  38  62  93 124 158 212 263 308 370
#     4   9  16  31  58  95 131 174 213 272 334 393
#     4   9  18  32  59  95 126 172 219 271 323 397
#     4  10  22  39  60  91 130 167 209 266 330 386
#
# _framework density 26.901503999999999
#
# number of rings (size 3 to 8) (size 9 to 14) (size 15 to 20)
#    0.000    2.571    1.429    0.000    0.000    3.429 
#    0.000    4.286    0.000   27.429    0.000    0.000 
#    0.000    0.000    0.000    0.000    0.000    0.000 
#
# Total GULP energy -312812.405956 kJ/mol
# GULP energy per Si atom -5585.935821 kJ/mol
# Density = 2.684027 g / cm^3
# Si number density = 26.901504 Si / 1000 Ang^3
#
#
#
# Elastic Constant Matrix: (Units=GPa)
#
#
# Indices 1 2 3 4 5 6 
#
# 1 40.6785 48.1429 29.5989 0.0000 0.0000 0.0000
# 2 48.1429 290.6941 60.1759 0.0000 0.0000 0.0000
# 3 29.5989 60.1759 139.7483 0.0000 0.0000 0.0000
# 4 0.0000 0.0000 0.0000 -84.4626 0.0000 0.0000
# 5 0.0000 0.0000 0.0000 0.0000 20.7444 0.0000
# 6 0.0000 0.0000 0.0000 0.0000 0.0000 10.9571
#
#
#
# Elastic Compliance Matrix: (Units=1/GPa)
#
#
# Indices 1 2 3 4 5 6 
#
# 1 0.033696 -0.004505 -0.005197 0.000000 0.000000 0.000000
# 2 -0.004505 0.004379 -0.000931 0.000000 0.000000 0.000000
# 3 -0.005197 -0.000931 0.008658 0.000000 0.000000 0.000000
# 4 0.000000 0.000000 0.000000 -0.011840 0.000000 0.000000
# 5 0.000000 0.000000 0.000000 0.000000 0.048206 0.000000
# 6 0.000000 0.000000 0.000000 0.000000 0.000000 0.091265
#
#
# Mechanical properties :
#
#
# Convention : Reuss Voigt Hill
#
# Bulk Modulus (GPa) = 39.26827 82.99514 61.13170
# Shear Modulus (GPa) = 24.49556 11.66133 18.07844
#
# Velocity S-wave (km/s) = 3.02083 2.08428 2.59515
# Velocity P-wave (km/s) = 5.17648 6.05894 5.63501
#
# Compressibility (1/GPa) = 0.02546585
#
# Stress axis : x y z
#
# Youngs Moduli (GPa) = 29.67724 228.36822 115.50584
#
# Poissons Ratio (x) = 1.02872 0.60030
# Poissons Ratio (y) = 0.13369 0.10759
# Poissons Ratio (z) = 0.15424 0.21272
#
# Static dielectric constant tensor:
#      x y z
#    x 2.103970 0.000000 0.000000 
#    y 0.000000 3.918130 0.000000 
#    z 0.000000 0.000000 2.182760 
# 
# From -- ./inp_files/31639.got.cif
#   From: 2010.05.17/outbox.cif.g08.bks.cpg/sg62_16_cif.got.tgz:31639.got - 2010.06.03 15:25:27.
