data_PCOD9465541
_publ_section_title
;
Structure prediction by ZEFSAII (Michael W. Deem and Ramdas Pophale) SiO2 
 PCOD9465541
Probable space group: P N M A
;
_chemical_formula_sum "Si O2"
_cell_formula_units_Z 40
_cell_length_a 4.818639
_cell_length_b 27.398052
_cell_length_c 13.039071
_cell_angle_alpha 90.000000
_cell_angle_beta 90.000000
_cell_angle_gamma 90.000000
_cell_volume 1721.435390
_symmetry_space_group_name_H-M "P N M A"
_symmetry_group_IT_number 62
_symmetry_cell_setting 'orthorhombic'
loop_
_space_group_symop_operation_xyz
x,y,z
1/2-x,-y,1/2+z
1/2+x,1/2-y,1/2-z
-x,1/2+y,-z
-x,-y,-z
1/2+x,y,1/2-z
1/2-x,1/2+y,1/2+z
x,1/2-y,z
loop_
_atom_site_type_symbol
_atom_site_label
_atom_site_fract_x
_atom_site_fract_y
_atom_site_fract_z
Si Si1 0.122777 0.032792 0.589366
Si Si2 0.340751 0.307366 0.320260
Si Si3 0.805701 0.117560 0.680787
Si Si4 0.683214 0.063549 0.318120
Si Si5 0.938350 0.878055 0.522430
O O1 0.253639 0.078973 0.528717
O O2 0.883882 0.061088 0.652880
O O3 0.294031 0.993718 0.653282
O O4 0.000000 0.000000 0.500000
O O5 0.648544 0.317036 0.279621
O O6 0.313250 0.250000 0.344188
O O7 0.233842 0.339481 0.413462
O O8 0.002260 0.127507 0.778387
O O9 0.901174 0.143713 0.576542
O O10 0.870364 0.073119 0.216421
O O11 0.832094 0.094821 0.406554
#
# Coordination Sequence:
#
# PCOD9465541 Si02
#       5
#     8   8   8   8   8
#     4   8  18  36  49  78 104 148 182 227 269 318
#     4  10  21  39  63  89 115 141 172 219 282 339
#     4  10  21  36  52  72 103 144 183 221 261 307
#     4  11  21  35  54  78 112 146 183 230 276 324
#     4   9  21  38  54  86 108 146 185 229 269 329
#
# _framework density 23.236424
#
# number of rings (size 3 to 8) (size 9 to 14) (size 15 to 20)
#    1.200    1.200    0.000    2.400    0.000    3.200 
#    0.000    4.000    0.000    1.200    0.000    0.000 
#    0.000    0.000    0.000    0.000    0.000    0.000 
#
# Total GULP energy -223502.165118 kJ/mol
# GULP energy per Si atom -5587.554128 kJ/mol
# Density = 2.318354 g / cm^3
# Si number density = 23.236424 Si / 1000 Ang^3
#
#
#
# Elastic Constant Matrix: (Units=GPa)
#
#
# Indices 1 2 3 4 5 6 
#
# 1 71.7078 21.2087 11.0168 0.0000 0.0000 0.0000
# 2 21.2087 88.2220 33.6830 0.0000 0.0000 0.0000
# 3 11.0168 33.6830 103.5758 0.0000 0.0000 0.0000
# 4 0.0000 0.0000 0.0000 42.0557 0.0000 0.0000
# 5 0.0000 0.0000 0.0000 0.0000 23.4040 0.0000
# 6 0.0000 0.0000 0.0000 0.0000 0.0000 23.5740
#
#
#
# Elastic Compliance Matrix: (Units=1/GPa)
#
#
# Indices 1 2 3 4 5 6 
#
# 1 0.015034 -0.003430 -0.000484 0.000000 0.000000 0.000000
# 2 -0.003430 0.013724 -0.004098 0.000000 0.000000 0.000000
# 3 -0.000484 -0.004098 0.011039 0.000000 0.000000 0.000000
# 4 0.000000 0.000000 0.000000 0.023778 0.000000 0.000000
# 5 0.000000 0.000000 0.000000 0.000000 0.042728 0.000000
# 6 0.000000 0.000000 0.000000 0.000000 0.000000 0.042420
#
#
# Mechanical properties :
#
#
# Convention : Reuss Voigt Hill
#
# Bulk Modulus (GPa) = 42.06271 43.92473 42.99372
# Shear Modulus (GPa) = 28.95683 30.97987 29.96835
#
# Velocity S-wave (km/s) = 3.53396 3.65533 3.59516
# Velocity P-wave (km/s) = 5.89858 6.06297 5.98134
#
# Compressibility (1/GPa) = 0.02377403
#
# Stress axis : x y z
#
# Youngs Moduli (GPa) = 66.51518 72.86373 90.58781
#
# Poissons Ratio (x) = 0.24989 0.04383
# Poissons Ratio (y) = 0.22812 0.37126
# Poissons Ratio (z) = 0.03218 0.29862
#
# Static dielectric constant tensor:
#      x y z
#    x 1.877760 0.000000 0.000000 
#    y 0.000000 1.892200 0.000000 
#    z 0.000000 0.000000 1.930890 
# 
# From -- ./inp_files/16261.got.cif
#   From: 2010.05.17/outbox.cif.g08.bks.cpg/sg62_9_cif.got.tgz:16261.got - 2010.06.03 15:25:27.
