data_PCOD9465651
_publ_section_title
;
Structure prediction by ZEFSAII (Michael W. Deem and Ramdas Pophale) SiO2 
 PCOD9465651
Probable space group: P N M A
;
_chemical_formula_sum "Si O2"
_cell_formula_units_Z 64
_cell_length_a 19.139935
_cell_length_b 20.327484
_cell_length_c 8.705919
_cell_angle_alpha 90.000000
_cell_angle_beta 90.000000
_cell_angle_gamma 90.000000
_cell_volume 3387.183371
_symmetry_space_group_name_H-M "P N M A"
_symmetry_group_IT_number 62
_symmetry_cell_setting 'orthorhombic'
loop_
_space_group_symop_operation_xyz
x,y,z
1/2-x,-y,1/2+z
1/2+x,1/2-y,1/2-z
-x,1/2+y,-z
-x,-y,-z
1/2+x,y,1/2-z
1/2-x,1/2+y,1/2+z
x,1/2-y,z
loop_
_atom_site_type_symbol
_atom_site_label
_atom_site_fract_x
_atom_site_fract_y
_atom_site_fract_z
Si Si1 0.128500 0.427937 0.778797
Si Si2 0.853663 0.072631 0.274560
Si Si3 0.499458 0.595575 0.886338
Si Si4 0.834916 0.425893 0.904785
Si Si5 0.792203 0.928214 0.911369
Si Si6 0.131110 0.175354 0.289685
Si Si7 0.978209 0.449841 0.735193
Si Si8 0.789091 0.825525 0.396855
O O1 0.135625 0.495310 0.681433
O O2 0.147387 0.363340 0.685347
O O3 0.048119 0.432841 0.832460
O O4 0.185660 0.430158 0.912256
O O5 0.923702 0.109987 0.320747
O O6 0.785196 0.094132 0.365946
O O7 0.844651 0.074594 0.090249
O O8 0.442731 0.651269 0.856278
O O9 0.474727 0.528170 0.799956
O O10 0.508692 0.581174 0.067104
O O11 0.802236 0.496470 0.857010
O O12 0.909143 0.424041 0.818857
O O13 0.780656 0.367868 0.868920
O O14 0.845012 0.877608 0.833858
O O15 0.127034 0.250000 0.232039
O O16 0.189091 0.173073 0.424522
O O17 0.782032 0.750000 0.348196
#
# Coordination Sequence:
#
# PCOD9465651 Si02
#       8
#     8   8   8   8   8   8   8   8
#     4  10  22  37  61  91 123 152 199 251 304 360
#     4  10  22  35  60  96 120 149 199 256 304 350
#     4  10  21  37  60  91 121 152 198 248 307 356
#     4  11  22  37  62  92 124 152 204 253 308 357
#     4  11  22  37  64  92 122 155 202 257 304 358
#     4  11  23  42  63  85 121 169 206 242 307 376
#     4  10  21  36  62  92 120 151 197 256 300 357
#     4  11  23  41  61  84 123 165 202 248 305 366
#
# _framework density 18.894756000000001
#
# number of rings (size 3 to 8) (size 9 to 14) (size 15 to 20)
#    0.000    1.500    5.000    0.000    3.500    2.000 
#    0.000    2.500    0.000    0.000    0.000    0.000 
#    0.000    0.000    0.000    0.000    0.000    0.000 
#
# Total GULP energy -357087.791912 kJ/mol
# GULP energy per Si atom -5579.496749 kJ/mol
# Density = 1.885175 g / cm^3
# Si number density = 18.894756 Si / 1000 Ang^3
#
#
#
# Elastic Constant Matrix: (Units=GPa)
#
#
# Indices 1 2 3 4 5 6 
#
# 1 127.2593 22.8099 24.3380 0.0000 0.0000 0.0000
# 2 22.8099 91.0841 13.3909 0.0000 0.0000 0.0000
# 3 24.3380 13.3909 35.3769 0.0000 0.0000 0.0000
# 4 0.0000 0.0000 0.0000 16.1999 0.0000 0.0000
# 5 0.0000 0.0000 0.0000 0.0000 31.3556 0.0000
# 6 0.0000 0.0000 0.0000 0.0000 0.0000 22.4447
#
#
#
# Elastic Compliance Matrix: (Units=1/GPa)
#
#
# Indices 1 2 3 4 5 6 
#
# 1 0.009228 -0.001459 -0.005796 0.000000 0.000000 0.000000
# 2 -0.001459 0.011856 -0.003484 0.000000 0.000000 0.000000
# 3 -0.005796 -0.003484 0.033574 0.000000 0.000000 0.000000
# 4 0.000000 0.000000 0.000000 0.061729 0.000000 0.000000
# 5 0.000000 0.000000 0.000000 0.000000 0.031892 0.000000
# 6 0.000000 0.000000 0.000000 0.000000 0.000000 0.044554
#
#
# Mechanical properties :
#
#
# Convention : Reuss Voigt Hill
#
# Bulk Modulus (GPa) = 30.13943 41.64421 35.89182
# Shear Modulus (GPa) = 22.18558 26.87881 24.53220
#
# Velocity S-wave (km/s) = 3.43033 3.77577 3.60719
# Velocity P-wave (km/s) = 5.62809 6.41066 6.03208
#
# Compressibility (1/GPa) = 0.03317913
#
# Stress axis : x y z
#
# Youngs Moduli (GPa) = 108.36608 84.34245 29.78533
#
# Poissons Ratio (x) = 0.12304 0.17265
# Poissons Ratio (y) = 0.15808 0.10378
# Poissons Ratio (z) = 0.62813 0.29388
#
# Static dielectric constant tensor:
#      x y z
#    x 1.680450 0.000000 0.000000 
#    y 0.000000 1.639240 0.000000 
#    z 0.000000 0.000000 1.683980 
# 
# From -- ./inp_files/8095.got.cif
#   From: 2010.05.17/outbox.cif.g08.bks.cpg/sg62_5_cif.got.tgz:8095.got - 2010.06.03 15:25:27.
