data_PCOD9465030
_publ_section_title
;
Structure prediction by ZEFSAII (Michael W. Deem and Ramdas Pophale) SiO2 
 PCOD9465030
Probable space group: P N M A
;
_chemical_formula_sum "Si O2"
_cell_formula_units_Z 64
_cell_length_a 15.282424
_cell_length_b 8.118022
_cell_length_c 25.296007
_cell_angle_alpha 90.000000
_cell_angle_beta 90.000000
_cell_angle_gamma 90.000000
_cell_volume 3138.299889
_symmetry_space_group_name_H-M "P N M A"
_symmetry_group_IT_number 62
_symmetry_cell_setting 'orthorhombic'
loop_
_space_group_symop_operation_xyz
x,y,z
1/2-x,-y,1/2+z
1/2+x,1/2-y,1/2-z
-x,1/2+y,-z
-x,-y,-z
1/2+x,y,1/2-z
1/2-x,1/2+y,1/2+z
x,1/2-y,z
loop_
_atom_site_type_symbol
_atom_site_label
_atom_site_fract_x
_atom_site_fract_y
_atom_site_fract_z
Si Si1 0.946874 0.556486 0.875900
Si Si2 0.123833 0.944671 0.235628
Si Si3 0.826296 0.449939 0.266744
Si Si4 0.096708 0.558165 0.016188
Si Si5 0.004208 0.949414 0.669630
Si Si6 0.051099 0.050894 0.447576
Si Si7 0.634990 0.950181 0.649633
Si Si8 0.751684 0.548392 0.557397
O O1 0.945744 0.750000 0.887960
O O2 0.917049 0.529678 0.816140
O O3 0.891646 0.470676 0.921438
O O4 0.046625 0.493919 0.878647
O O5 0.112779 0.750000 0.230574
O O6 0.226956 0.987000 0.232602
O O7 0.071509 0.999483 0.288456
O O8 0.821893 0.250000 0.268532
O O9 0.862963 0.503736 0.209751
O O10 0.899596 0.502555 0.309272
O O11 0.097035 0.750000 0.004300
O O12 0.177735 0.486900 0.983116
O O13 0.000000 0.500000 0.000000
O O14 0.003937 0.750000 0.669878
O O15 0.985822 0.005532 0.609574
O O16 0.051274 0.250000 0.445507
O O17 0.150888 0.991060 0.452879
O O18 0.000000 0.000000 0.500000
O O19 0.631827 0.750000 0.650222
O O20 0.718737 0.998519 0.615799
O O21 0.753566 0.750000 0.555483
#
# Coordination Sequence:
#
# PCOD9465030 Si02
#       8
#     8   8   8   8   8   8   8   8
#     4  11  21  38  61  85 117 159 203 251 302 358
#     4  12  25  39  58  91 130 162 195 245 309 373
#     4  10  20  37  63  90 118 157 204 250 298 363
#     4  11  21  35  56  86 122 161 202 246 303 368
#     4  10  21  41  68  92 116 158 212 258 302 360
#     4  10  22  41  65  89 117 154 201 254 301 352
#     4   9  16  32  60  87 111 148 199 246 296 354
#     4   9  18  34  58  86 117 158 201 242 298 361
#
# _framework density 20.393208999999999
#
# number of rings (size 3 to 8) (size 9 to 14) (size 15 to 20)
#    0.000    1.750    2.500    2.625    0.000    4.000 
#    0.000    3.750    0.000    0.000    0.000    0.000 
#    0.000    0.000    0.000    0.000    0.000    0.000 
#
# Total GULP energy -357203.714889 kJ/mol
# GULP energy per Si atom -5581.308045 kJ/mol
# Density = 2.034679 g / cm^3
# Si number density = 20.393209 Si / 1000 Ang^3
#
#
#
# Elastic Constant Matrix: (Units=GPa)
#
#
# Indices 1 2 3 4 5 6 
#
# 1 133.9277 2.3120 66.8850 0.0000 0.0000 0.0000
# 2 2.3120 15.3407 -6.6722 0.0000 0.0000 0.0000
# 3 66.8850 -6.6722 139.3719 0.0000 0.0000 0.0000
# 4 0.0000 0.0000 0.0000 24.4193 0.0000 0.0000
# 5 0.0000 0.0000 0.0000 0.0000 34.5963 0.0000
# 6 0.0000 0.0000 0.0000 0.0000 0.0000 14.4214
#
#
#
# Elastic Compliance Matrix: (Units=1/GPa)
#
#
# Indices 1 2 3 4 5 6 
#
# 1 0.010020 -0.003678 -0.004984 0.000000 0.000000 0.000000
# 2 -0.003678 0.067922 0.005017 0.000000 0.000000 0.000000
# 3 -0.004984 0.005017 0.009807 0.000000 0.000000 0.000000
# 4 0.000000 0.000000 0.000000 0.040951 0.000000 0.000000
# 5 0.000000 0.000000 0.000000 0.000000 0.028905 0.000000
# 6 0.000000 0.000000 0.000000 0.000000 0.000000 0.069341
#
#
# Mechanical properties :
#
#
# Convention : Reuss Voigt Hill
#
# Bulk Modulus (GPa) = 12.42889 45.96554 29.19722
# Shear Modulus (GPa) = 19.15291 29.76178 24.45735
#
# Velocity S-wave (km/s) = 3.06793 3.82435 3.46683
# Velocity P-wave (km/s) = 4.31943 6.48764 5.51121
#
# Compressibility (1/GPa) = 0.08045770
#
# Stress axis : x y z
#
# Youngs Moduli (GPa) = 99.80534 14.72271 101.96508
#
# Poissons Ratio (x) = 0.05415 0.50824
# Poissons Ratio (y) = 0.36708 -0.51153
# Poissons Ratio (z) = 0.49748 -0.07386
#
# Static dielectric constant tensor:
#      x y z
#    x 1.752350 0.000000 0.000000 
#    y 0.000000 1.748050 0.000000 
#    z 0.000000 0.000000 1.731640 
# 
# From -- ./inp_files/29859.got.cif
#   From: 2010.05.17/outbox.cif.g08.bks.cpg/sg62_15_cif.got.tgz:29859.got - 2010.06.03 15:25:27.
