data_PCOD9465815
_publ_section_title
;
Structure prediction by ZEFSAII (Michael W. Deem and Ramdas Pophale) SiO2 
 PCOD9465815
Probable space group: P N M A
;
_chemical_formula_sum "Si O2"
_cell_formula_units_Z 48
_cell_length_a 19.480667
_cell_length_b 13.816006
_cell_length_c 8.979358
_cell_angle_alpha 90.000000
_cell_angle_beta 90.000000
_cell_angle_gamma 90.000000
_cell_volume 2416.749418
_symmetry_space_group_name_H-M "P N M A"
_symmetry_group_IT_number 62
_symmetry_cell_setting 'orthorhombic'
loop_
_space_group_symop_operation_xyz
x,y,z
1/2-x,-y,1/2+z
1/2+x,1/2-y,1/2-z
-x,1/2+y,-z
-x,-y,-z
1/2+x,y,1/2-z
1/2-x,1/2+y,1/2+z
x,1/2-y,z
loop_
_atom_site_type_symbol
_atom_site_label
_atom_site_fract_x
_atom_site_fract_y
_atom_site_fract_z
Si Si1 0.578737 0.354143 0.636148
Si Si2 0.259580 0.639659 0.316009
Si Si3 0.988443 0.500768 0.327314
Si Si4 0.106341 0.493656 0.103135
Si Si5 0.758663 0.042662 0.374964
Si Si6 0.621442 0.865915 0.673280
O O1 0.547203 0.250000 0.619262
O O2 0.660707 0.349965 0.640537
O O3 0.556107 0.406065 0.784637
O O4 0.561243 0.421302 0.497840
O O5 0.232123 0.750000 0.298797
O O6 0.261607 0.571289 0.170187
O O7 0.227064 0.579691 0.455814
O O8 0.943841 0.411017 0.262655
O O9 0.000000 0.500000 0.500000
O O10 0.060449 0.516052 0.243798
O O11 0.177136 0.441133 0.148412
O O12 0.122108 0.581758 0.989014
O O13 0.810934 0.097226 0.264145
O O14 0.619637 0.750000 0.664439
#
# Coordination Sequence:
#
# PCOD9465815 Si02
#       6
#     8   8   8   8   8   8
#     4   9  18  39  63  83 114 162 208 247 305 377
#     4  10  21  37  63  92 123 168 210 259 322 376
#     4  11  24  39  61  93 127 160 204 265 319 375
#     4  10  23  39  63  90 126 164 206 257 316 380
#     4  11  20  41  63  93 130 162 214 269 316 380
#     4  11  23  43  66  90 124 171 216 259 318 385
#
# _framework density 19.86139
#
# number of rings (size 3 to 8) (size 9 to 14) (size 15 to 20)
#    0.000    1.667    5.000    2.500    2.333    4.667 
#    0.000    0.000    0.000    0.000    0.000    0.000 
#    0.000    0.000    0.000    0.000    0.000    0.000 
#
# Total GULP energy -267395.335048 kJ/mol
# GULP energy per Si atom -5570.736147 kJ/mol
# Density = 1.981618 g / cm^3
# Si number density = 19.861390 Si / 1000 Ang^3
#
#
#
# Elastic Constant Matrix: (Units=GPa)
#
#
# Indices 1 2 3 4 5 6 
#
# 1 84.9091 18.9685 41.5439 0.0000 0.0000 0.0000
# 2 18.9685 158.6605 41.9067 0.0000 0.0000 0.0000
# 3 41.5439 41.9067 79.1193 0.0000 0.0000 0.0000
# 4 0.0000 0.0000 0.0000 4.4189 0.0000 0.0000
# 5 0.0000 0.0000 0.0000 0.0000 36.7855 0.0000
# 6 0.0000 0.0000 0.0000 0.0000 0.0000 15.0295
#
#
#
# Elastic Compliance Matrix: (Units=1/GPa)
#
#
# Indices 1 2 3 4 5 6 
#
# 1 0.015866 0.000353 -0.008518 0.000000 0.000000 0.000000
# 2 0.000353 0.007336 -0.004071 0.000000 0.000000 0.000000
# 3 -0.008518 -0.004071 0.019268 0.000000 0.000000 0.000000
# 4 0.000000 0.000000 0.000000 0.226300 0.000000 0.000000
# 5 0.000000 0.000000 0.000000 0.000000 0.027185 0.000000
# 6 0.000000 0.000000 0.000000 0.000000 0.000000 0.066536
#
#
# Mechanical properties :
#
#
# Convention : Reuss Voigt Hill
#
# Bulk Modulus (GPa) = 55.56113 58.61412 57.08763
# Shear Modulus (GPa) = 12.72390 25.93144 19.32767
#
# Velocity S-wave (km/s) = 2.53382 3.61726 3.12288
# Velocity P-wave (km/s) = 6.04942 6.85724 6.46596
#
# Compressibility (1/GPa) = 0.01799819
#
# Stress axis : x y z
#
# Youngs Moduli (GPa) = 63.02774 136.31790 51.89986
#
# Poissons Ratio (x) = -0.04812 0.44208
# Poissons Ratio (y) = -0.02225 0.21128
# Poissons Ratio (z) = 0.53686 0.55493
#
# Static dielectric constant tensor:
#      x y z
#    x 1.800640 0.000000 0.000000 
#    y 0.000000 1.754710 0.000000 
#    z 0.000000 0.000000 1.699380 
# 
# From -- ./inp_files/8595.got.cif
#   From: 2010.05.17/outbox.cif.g08.bks.cpg/sg62_5_cif.got.tgz:8595.got - 2010.06.03 15:25:27.
