data_PCOD9465603
_publ_section_title
;
Structure prediction by ZEFSAII (Michael W. Deem and Ramdas Pophale) SiO2 
 PCOD9465603
Probable space group: P N M A
;
_chemical_formula_sum "Si O2"
_cell_formula_units_Z 56
_cell_length_a 14.068082
_cell_length_b 9.042217
_cell_length_c 21.060009
_cell_angle_alpha 90.000000
_cell_angle_beta 90.000000
_cell_angle_gamma 90.000000
_cell_volume 2678.973198
_symmetry_space_group_name_H-M "P N M A"
_symmetry_group_IT_number 62
_symmetry_cell_setting 'orthorhombic'
loop_
_space_group_symop_operation_xyz
x,y,z
1/2-x,-y,1/2+z
1/2+x,1/2-y,1/2-z
-x,1/2+y,-z
-x,-y,-z
1/2+x,y,1/2-z
1/2-x,1/2+y,1/2+z
x,1/2-y,z
loop_
_atom_site_type_symbol
_atom_site_label
_atom_site_fract_x
_atom_site_fract_y
_atom_site_fract_z
Si Si1 0.966050 0.581810 0.594642
Si Si2 0.652559 0.581285 0.995027
Si Si3 0.287443 0.426683 0.604863
Si Si4 0.004060 0.073960 0.931299
Si Si5 0.003181 0.920720 0.275389
Si Si6 0.371353 0.075216 0.326618
Si Si7 0.224146 0.921656 0.246693
O O1 0.946612 0.750000 0.615239
O O2 0.877516 0.514719 0.555799
O O3 0.993707 0.479081 0.653217
O O4 0.057200 0.584979 0.548112
O O5 0.676388 0.750000 0.012784
O O6 0.733789 0.509711 0.951604
O O7 0.272282 0.250000 0.598685
O O8 0.400570 0.452749 0.600389
O O9 0.250176 0.470893 0.674916
O O10 0.017343 0.250000 0.935950
O O11 0.086866 0.003753 0.888718
O O12 0.000000 0.000000 0.000000
O O13 0.971339 0.750000 0.272198
O O14 0.110948 0.926374 0.251022
O O15 0.939302 0.022392 0.230931
O O16 0.372645 0.250000 0.334955
O O17 0.270073 0.017619 0.302095
O O18 0.252670 0.750000 0.254571
#
# Coordination Sequence:
#
# PCOD9465603 Si02
#       7
#     8   8   8   8   8   8   8
#     4  10  21  37  57  87 123 160 202 254 310 367
#     4  10  21  36  57  86 120 160 204 249 306 372
#     4  10  21  40  64  89 120 161 210 259 313 377
#     4  11  24  45  68  93 125 167 215 265 321 383
#     4  11  22  40  64  90 122 162 204 255 312 370
#     4  12  25  41  64  96 130 167 210 264 322 382
#     4  10  22  41  65  91 121 164 211 259 314 375
#
# _framework density 20.90353
#
# number of rings (size 3 to 8) (size 9 to 14) (size 15 to 20)
#    0.000    1.429    1.429    3.857    0.000    8.000 
#    0.000    0.000    0.000    0.000    0.000    0.000 
#    0.000    0.000    0.000    0.000    0.000    0.000 
#
# Total GULP energy -313239.906731 kJ/mol
# GULP energy per Si atom -5593.569763 kJ/mol
# Density = 2.085595 g / cm^3
# Si number density = 20.903530 Si / 1000 Ang^3
#
#
#
# Elastic Constant Matrix: (Units=GPa)
#
#
# Indices 1 2 3 4 5 6 
#
# 1 33.6836 23.2391 -3.3338 0.0000 0.0000 0.0000
# 2 23.2391 90.9978 25.2159 0.0000 0.0000 0.0000
# 3 -3.3338 25.2159 81.9533 0.0000 0.0000 0.0000
# 4 0.0000 0.0000 0.0000 35.4962 0.0000 0.0000
# 5 0.0000 0.0000 0.0000 0.0000 34.4730 0.0000
# 6 0.0000 0.0000 0.0000 0.0000 0.0000 26.0824
#
#
#
# Elastic Compliance Matrix: (Units=1/GPa)
#
#
# Indices 1 2 3 4 5 6 
#
# 1 0.037772 -0.011011 0.004924 0.000000 0.000000 0.000000
# 2 -0.011011 0.015223 -0.005132 0.000000 0.000000 0.000000
# 3 0.004924 -0.005132 0.013981 0.000000 0.000000 0.000000
# 4 0.000000 0.000000 0.000000 0.028172 0.000000 0.000000
# 5 0.000000 0.000000 0.000000 0.000000 0.029008 0.000000
# 6 0.000000 0.000000 0.000000 0.000000 0.000000 0.038340
#
#
# Mechanical properties :
#
#
# Convention : Reuss Voigt Hill
#
# Bulk Modulus (GPa) = 22.45165 32.98636 27.71901
# Shear Modulus (GPa) = 25.02745 29.97788 27.50267
#
# Velocity S-wave (km/s) = 3.46393 3.79107 3.63119
# Velocity P-wave (km/s) = 5.17323 5.91418 5.55607
#
# Compressibility (1/GPa) = 0.04454016
#
# Stress axis : x y z
#
# Youngs Moduli (GPa) = 26.47452 65.68863 71.52351
#
# Poissons Ratio (x) = 0.72329 -0.35221
# Poissons Ratio (y) = 0.29151 0.36705
# Poissons Ratio (z) = -0.13037 0.33711
#
# Static dielectric constant tensor:
#      x y z
#    x 1.766450 0.000000 0.000000 
#    y 0.000000 1.716320 0.000000 
#    z 0.000000 0.000000 1.736760 
# 
# From -- ./inp_files/27288.got.cif
#   From: 2010.05.17/outbox.cif.g08.bks.cpg/sg62_14_cif.got.tgz:27288.got - 2010.06.03 15:25:27.
