data_PCOD9465179
_publ_section_title
;
Structure prediction by ZEFSAII (Michael W. Deem and Ramdas Pophale) SiO2 
 PCOD9465179
Probable space group: P N M A
;
_chemical_formula_sum "Si O2"
_cell_formula_units_Z 64
_cell_length_a 8.753458
_cell_length_b 17.208311
_cell_length_c 21.766420
_cell_angle_alpha 90.000000
_cell_angle_beta 90.000000
_cell_angle_gamma 90.000000
_cell_volume 3278.724331
_symmetry_space_group_name_H-M "P N M A"
_symmetry_group_IT_number 62
_symmetry_cell_setting 'orthorhombic'
loop_
_space_group_symop_operation_xyz
x,y,z
1/2-x,-y,1/2+z
1/2+x,1/2-y,1/2-z
-x,1/2+y,-z
-x,-y,-z
1/2+x,y,1/2-z
1/2-x,1/2+y,1/2+z
x,1/2-y,z
loop_
_atom_site_type_symbol
_atom_site_label
_atom_site_fract_x
_atom_site_fract_y
_atom_site_fract_z
Si Si1 0.217012 0.933550 0.226604
Si Si2 0.566447 0.339273 0.682999
Si Si3 0.937542 0.422253 0.034614
Si Si4 0.855162 0.340253 0.286928
Si Si5 0.358173 0.012911 0.956729
Si Si6 0.988633 0.984832 0.674999
Si Si7 0.011840 0.157850 0.161308
Si Si8 0.838117 0.663710 0.041837
O O1 0.308243 0.875802 0.271776
O O2 0.348034 0.974129 0.187009
O O3 0.123051 0.993464 0.268991
O O4 0.089071 0.888029 0.188553
O O5 0.536909 0.250000 0.700001
O O6 0.628918 0.341892 0.614084
O O7 0.759605 0.441479 0.037272
O O8 0.992062 0.400215 0.103667
O O9 0.000000 0.500000 0.000000
O O10 0.003872 0.353122 0.993444
O O11 0.894984 0.250000 0.293893
O O12 0.968468 0.394517 0.325460
O O13 0.889409 0.359828 0.215305
O O14 0.681005 0.350292 0.309186
O O15 0.412978 0.015033 0.886692
O O16 0.275911 0.093873 0.974129
O O17 0.500000 0.000000 0.000000
O O18 0.995102 0.250000 0.143849
O O19 0.781269 0.750000 0.026854
#
# Coordination Sequence:
#
# PCOD9465179 Si02
#       8
#     8   8   8   8   8   8   8   8
#     4  10  22  37  62  93 127 165 207 248 317 382
#     4  10  20  38  63  93 127 160 207 259 310 374
#     4  10  24  41  67  87 122 166 219 263 316 389
#     4  10  23  39  62  94 128 168 209 264 329 389
#     4  11  26  44  63  95 124 169 213 268 316 377
#     4  11  23  39  62  91 130 165 209 258 316 376
#     4  10  22  42  65  95 129 167 216 270 331 390
#     4  10  22  44  67  91 125 169 215 263 318 380
#
# _framework density 19.519787000000001
#
# number of rings (size 3 to 8) (size 9 to 14) (size 15 to 20)
#    0.000    1.750    1.250    1.500    8.750    2.000 
#    0.000    2.500    0.000    0.000    0.000    0.000 
#    0.000    0.000    0.000    0.000    0.000    0.000 
#
# Total GULP energy -357341.439228 kJ/mol
# GULP energy per Si atom -5583.459988 kJ/mol
# Density = 1.947536 g / cm^3
# Si number density = 19.519787 Si / 1000 Ang^3
#
#
#
# Elastic Constant Matrix: (Units=GPa)
#
#
# Indices 1 2 3 4 5 6 
#
# 1 101.4592 47.5269 23.0249 0.0000 0.0000 0.0000
# 2 47.5269 105.4145 36.1071 0.0000 0.0000 0.0000
# 3 23.0249 36.1071 41.3713 0.0000 0.0000 0.0000
# 4 0.0000 0.0000 0.0000 32.6179 0.0000 0.0000
# 5 0.0000 0.0000 0.0000 0.0000 27.5274 0.0000
# 6 0.0000 0.0000 0.0000 0.0000 0.0000 26.6232
#
#
#
# Elastic Compliance Matrix: (Units=1/GPa)
#
#
# Indices 1 2 3 4 5 6 
#
# 1 0.012745 -0.004731 -0.002964 0.000000 0.000000 0.000000
# 2 -0.004731 0.015288 -0.010709 0.000000 0.000000 0.000000
# 3 -0.002964 -0.010709 0.035168 0.000000 0.000000 0.000000
# 4 0.000000 0.000000 0.000000 0.030658 0.000000 0.000000
# 5 0.000000 0.000000 0.000000 0.000000 0.036327 0.000000
# 6 0.000000 0.000000 0.000000 0.000000 0.000000 0.037561
#
#
# Mechanical properties :
#
#
# Convention : Reuss Voigt Hill
#
# Bulk Modulus (GPa) = 37.89122 51.28475 44.58798
# Shear Modulus (GPa) = 23.43533 26.79276 25.11405
#
# Velocity S-wave (km/s) = 3.46872 3.70887 3.59080
# Velocity P-wave (km/s) = 5.95789 6.68365 6.33118
#
# Compressibility (1/GPa) = 0.02639134
#
# Stress axis : x y z
#
# Youngs Moduli (GPa) = 78.46242 65.41278 28.43510
#
# Poissons Ratio (x) = 0.30946 0.08429
# Poissons Ratio (y) = 0.37119 0.30452
# Poissons Ratio (z) = 0.23258 0.70053
#
# Static dielectric constant tensor:
#      x y z
#    x 1.679200 0.000000 0.000000 
#    y 0.000000 1.697580 0.000000 
#    z 0.000000 0.000000 1.677070 
# 
# From -- ./inp_files/26152.got.cif
#   From: 2010.05.17/outbox.cif.g08.bks.cpg/sg62_14_cif.got.tgz:26152.got - 2010.06.03 15:25:27.
