data_PCOD9465445
_publ_section_title
;
Structure prediction by ZEFSAII (Michael W. Deem and Ramdas Pophale) SiO2 
 PCOD9465445
Probable space group: P N M A
;
_chemical_formula_sum "Si O2"
_cell_formula_units_Z 48
_cell_length_a 7.223660
_cell_length_b 30.813826
_cell_length_c 8.198723
_cell_angle_alpha 90.000000
_cell_angle_beta 90.000000
_cell_angle_gamma 90.000000
_cell_volume 1824.942293
_symmetry_space_group_name_H-M "P N M A"
_symmetry_group_IT_number 62
_symmetry_cell_setting 'orthorhombic'
loop_
_space_group_symop_operation_xyz
x,y,z
1/2-x,-y,1/2+z
1/2+x,1/2-y,1/2-z
-x,1/2+y,-z
-x,-y,-z
1/2+x,y,1/2-z
1/2-x,1/2+y,1/2+z
x,1/2-y,z
loop_
_atom_site_type_symbol
_atom_site_label
_atom_site_fract_x
_atom_site_fract_y
_atom_site_fract_z
Si Si1 0.643379 0.563471 0.611552
Si Si2 0.996346 0.250000 0.619414
Si Si3 0.421728 0.250000 0.503709
Si Si4 0.380817 0.971844 0.337246
Si Si5 0.514613 0.656894 0.119314
Si Si6 0.974243 0.431997 0.527335
Si Si7 0.089031 0.844627 0.001081
O O1 0.614832 0.521300 0.725996
O O2 0.550205 0.541655 0.452032
O O3 0.865167 0.568198 0.606373
O O4 0.563343 0.612338 0.608384
O O5 0.200747 0.250000 0.542243
O O6 0.903007 0.295860 0.579728
O O7 0.013221 0.250000 0.816030
O O8 0.462544 0.202652 0.427662
O O9 0.398913 0.939299 0.187674
O O10 0.192904 0.964665 0.438194
O O11 0.614007 0.615814 0.039505
O O12 0.504261 0.651844 0.315768
O O13 0.307912 0.656172 0.046456
#
# Coordination Sequence:
#
# PCOD9465445 Si02
#       7
#     8   4   4   8   8   8   8
#     4  10  21  31  44  65  88 114 147 182 211 256
#     4   8  14  22  32  54  78 100 138 167 189 233
#     4   8  14  22  36  52  76 106 132 167 203 243
#     4  11  20  31  46  64  85 116 148 180 216 253
#     4   9  15  23  38  55  77 110 138 167 199 243
#     4  11  18  32  47  62  87 119 148 176 218 256
#     4   9  15  25  37  56  80 106 139 170 206 247
#
# _framework density 26.302199999999999
#
# number of rings (size 3 to 8) (size 9 to 14) (size 15 to 20)
#    0.000    2.333    3.333    1.500    0.000    0.000 
#    0.000    0.000    0.000    0.000    0.000    0.000 
#    0.000    1.333    0.000    0.333    0.000    0.333 
#
# Total GULP energy -267796.323801 kJ/mol
# GULP energy per Si atom -5579.090079 kJ/mol
# Density = 2.624234 g / cm^3
# Si number density = 26.302200 Si / 1000 Ang^3
#
#
#
# Elastic Constant Matrix: (Units=GPa)
#
#
# Indices 1 2 3 4 5 6 
#
# 1 96.4863 21.1315 11.0782 0.0000 0.0000 0.0000
# 2 21.1315 279.1198 11.4092 0.0000 0.0000 0.0000
# 3 11.0782 11.4092 34.7242 0.0000 0.0000 0.0000
# 4 0.0000 0.0000 0.0000 1.9412 0.0000 0.0000
# 5 0.0000 0.0000 0.0000 0.0000 5.5582 0.0000
# 6 0.0000 0.0000 0.0000 0.0000 0.0000 20.8048
#
#
#
# Elastic Compliance Matrix: (Units=1/GPa)
#
#
# Indices 1 2 3 4 5 6 
#
# 1 0.010888 -0.000692 -0.003247 0.000000 0.000000 0.000000
# 2 -0.000692 0.003675 -0.000987 0.000000 0.000000 0.000000
# 3 -0.003247 -0.000987 0.030158 0.000000 0.000000 0.000000
# 4 0.000000 0.000000 0.000000 0.515150 0.000000 0.000000
# 5 0.000000 0.000000 0.000000 0.000000 0.179914 0.000000
# 6 0.000000 0.000000 0.000000 0.000000 0.000000 0.048066
#
#
# Mechanical properties :
#
#
# Convention : Reuss Voigt Hill
#
# Bulk Modulus (GPa) = 28.67631 55.28533 41.98082
# Shear Modulus (GPa) = 6.17798 30.10827 18.14312
#
# Velocity S-wave (km/s) = 1.53426 3.38702 2.62924
# Velocity P-wave (km/s) = 3.75032 6.02999 5.02124
#
# Compressibility (1/GPa) = 0.03487199
#
# Stress axis : x y z
#
# Youngs Moduli (GPa) = 91.84096 272.07963 33.15826
#
# Poissons Ratio (x) = 0.18818 0.10765
# Poissons Ratio (y) = 0.06352 0.03273
# Poissons Ratio (z) = 0.29816 0.26853
#
# Static dielectric constant tensor:
#      x y z
#    x 2.031940 0.000000 0.000000 
#    y 0.000000 2.133000 0.000000 
#    z 0.000000 0.000000 2.132270 
# 
# From -- ./inp_files/11483.got.cif
#   From: 2010.05.17/outbox.cif.g08.bks.cpg/sg62_6_cif.got.tgz:11483.got - 2010.06.03 15:25:27.
