data_PCOD9465397
_publ_section_title
;
Structure prediction by ZEFSAII (Michael W. Deem and Ramdas Pophale) SiO2 
 PCOD9465397
Probable space group: P N M A
;
_chemical_formula_sum "Si O2"
_cell_formula_units_Z 56
_cell_length_a 14.338675
_cell_length_b 28.669320
_cell_length_c 6.126532
_cell_angle_alpha 90.000000
_cell_angle_beta 90.000000
_cell_angle_gamma 90.000000
_cell_volume 2518.495154
_symmetry_space_group_name_H-M "P N M A"
_symmetry_group_IT_number 62
_symmetry_cell_setting 'orthorhombic'
loop_
_space_group_symop_operation_xyz
x,y,z
1/2-x,-y,1/2+z
1/2+x,1/2-y,1/2-z
-x,1/2+y,-z
-x,-y,-z
1/2+x,y,1/2-z
1/2-x,1/2+y,1/2+z
x,1/2-y,z
loop_
_atom_site_type_symbol
_atom_site_label
_atom_site_fract_x
_atom_site_fract_y
_atom_site_fract_z
Si Si1 0.368708 0.031600 0.563542
Si Si2 0.826672 0.862808 0.943794
Si Si3 0.299193 0.799218 0.945058
Si Si4 0.462781 0.697233 0.297070
Si Si5 0.831947 0.304026 0.679834
Si Si6 0.311356 0.554522 0.839235
Si Si7 0.456657 0.966484 0.184965
O O1 0.289278 0.061947 0.448630
O O2 0.456241 0.056059 0.684252
O O3 0.321948 0.998696 0.750427
O O4 0.408208 0.999221 0.366918
O O5 0.816248 0.841869 0.705285
O O6 0.826739 0.916775 0.884589
O O7 0.921263 0.841486 0.041952
O O8 0.737163 0.841120 0.068189
O O9 0.303540 0.750000 0.821184
O O10 0.380035 0.798429 0.123259
O O11 0.202030 0.802656 0.069998
O O12 0.474830 0.750000 0.393700
O O13 0.559270 0.684808 0.179887
O O14 0.818754 0.250000 0.599694
O O15 0.384891 0.563155 0.037457
O O16 0.500000 0.000000 0.000000
#
# Coordination Sequence:
#
# PCOD9465397 Si02
#       7
#     8   8   8   8   8   8   8
#     4  10  20  41  65  87 119 166 216 257 329 401
#     4  11  22  36  58  94 123 153 209 271 318 371
#     4   9  18  35  58  84 118 157 200 247 308 375
#     4   9  19  38  61  85 125 173 207 250 315 384
#     4   9  19  38  61  87 124 167 207 250 314 386
#     4  11  22  39  65  91 124 164 208 264 332 382
#     4   9  20  39  64  90 114 156 216 256 308 400
#
# _framework density 22.235499999999998
#
# number of rings (size 3 to 8) (size 9 to 14) (size 15 to 20)
#    0.000    2.286    1.429    2.143    0.000    3.429 
#    0.000   15.714    0.000    0.000    0.000    0.000 
#    0.000    0.000    0.000    0.000    0.000    0.000 
#
# Total GULP energy -312172.913620 kJ/mol
# GULP energy per Si atom -5574.516315 kJ/mol
# Density = 2.218489 g / cm^3
# Si number density = 22.235500 Si / 1000 Ang^3
#
#
#
# Elastic Constant Matrix: (Units=GPa)
#
#
# Indices 1 2 3 4 5 6 
#
# 1 114.0214 22.3976 31.8081 0.0000 0.0000 0.0000
# 2 22.3976 55.0477 15.0204 0.0000 0.0000 0.0000
# 3 31.8081 15.0204 69.3033 0.0000 0.0000 0.0000
# 4 0.0000 0.0000 0.0000 39.6248 0.0000 0.0000
# 5 0.0000 0.0000 0.0000 0.0000 31.9446 0.0000
# 6 0.0000 0.0000 0.0000 0.0000 0.0000 15.2133
#
#
#
# Elastic Compliance Matrix: (Units=1/GPa)
#
#
# Indices 1 2 3 4 5 6 
#
# 1 0.010551 -0.003158 -0.004158 0.000000 0.000000 0.000000
# 2 -0.003158 0.020253 -0.002940 0.000000 0.000000 0.000000
# 3 -0.004158 -0.002940 0.016975 0.000000 0.000000 0.000000
# 4 0.000000 0.000000 0.000000 0.025237 0.000000 0.000000
# 5 0.000000 0.000000 0.000000 0.000000 0.031304 0.000000
# 6 0.000000 0.000000 0.000000 0.000000 0.000000 0.065732
#
#
# Mechanical properties :
#
#
# Convention : Reuss Voigt Hill
#
# Bulk Modulus (GPa) = 36.67520 41.86941 39.27231
# Shear Modulus (GPa) = 25.04345 28.63294 26.83820
#
# Velocity S-wave (km/s) = 3.35965 3.59236 3.47796
# Velocity P-wave (km/s) = 5.61956 6.00647 5.81623
#
# Compressibility (1/GPa) = 0.02726638
#
# Stress axis : x y z
#
# Youngs Moduli (GPa) = 94.78149 49.37464 58.91051
#
# Poissons Ratio (x) = 0.15594 0.24494
# Poissons Ratio (y) = 0.29934 0.17320
# Poissons Ratio (z) = 0.39409 0.14516
#
# Static dielectric constant tensor:
#      x y z
#    x 1.840000 0.000000 0.000000 
#    y 0.000000 2.215060 0.000000 
#    z 0.000000 0.000000 1.823540 
# 
# From -- ./inp_files/1270.got.cif
#   From: 2010.05.17/outbox.cif.g08.bks.cpg/sg62_1_cif.got.tgz:1270.got - 2010.06.03 15:25:27.
