data_PCOD9465664
_publ_section_title
;
Structure prediction by ZEFSAII (Michael W. Deem and Ramdas Pophale) SiO2 
 PCOD9465664
Probable space group: P N M A
;
_chemical_formula_sum "Si O2"
_cell_formula_units_Z 40
_cell_length_a 19.628071
_cell_length_b 7.456706
_cell_length_c 10.557906
_cell_angle_alpha 90.000000
_cell_angle_beta 90.000000
_cell_angle_gamma 90.000000
_cell_volume 1545.263091
_symmetry_space_group_name_H-M "P N M A"
_symmetry_group_IT_number 62
_symmetry_cell_setting 'orthorhombic'
loop_
_space_group_symop_operation_xyz
x,y,z
1/2-x,-y,1/2+z
1/2+x,1/2-y,1/2-z
-x,1/2+y,-z
-x,-y,-z
1/2+x,y,1/2-z
1/2-x,1/2+y,1/2+z
x,1/2-y,z
loop_
_atom_site_type_symbol
_atom_site_label
_atom_site_fract_x
_atom_site_fract_y
_atom_site_fract_z
Si Si1 0.703413 0.965552 0.118764
Si Si2 0.818753 0.954848 0.289143
Si Si3 0.545538 0.464713 0.877327
Si Si4 0.078917 0.530424 0.231796
Si Si5 0.161951 0.537510 0.987251
O O1 0.702723 0.750000 0.123930
O O2 0.748140 0.035327 0.239135
O O3 0.628192 0.028255 0.151843
O O4 0.754947 0.010080 0.004189
O O5 0.806287 0.750000 0.326851
O O6 0.877455 0.039886 0.375457
O O7 0.855024 0.951594 0.148205
O O8 0.553424 0.250000 0.867177
O O9 0.497299 0.528942 0.762255
O O10 0.500000 0.500000 0.000000
O O11 0.078619 0.750000 0.231312
O O12 0.115399 0.473086 0.102314
O O13 0.152301 0.750000 0.977671
#
# Coordination Sequence:
#
# PCOD9465664 Si02
#       5
#     8   8   8   8   8
#     4   8  16  33  51  72 103 139 166 203 261 308
#     4   8  17  34  53  72 102 138 169 205 260 309
#     4  10  21  37  54  76 104 140 176 212 260 313
#     4   9  18  33  54  77 106 137 168 210 265 312
#     4   9  17  31  53  79 100 129 176 215 251 303
#
# _framework density 25.885558
#
# number of rings (size 3 to 8) (size 9 to 14) (size 15 to 20)
#    1.200    2.000    0.000    0.000    0.000    3.200 
#    0.000    7.000    0.000    0.000    0.000    0.000 
#    0.000    0.000    0.000    0.000    0.000    0.000 
#
# Total GULP energy -222895.752358 kJ/mol
# GULP energy per Si atom -5572.393809 kJ/mol
# Density = 2.582664 g / cm^3
# Si number density = 25.885558 Si / 1000 Ang^3
#
#
#
# Elastic Constant Matrix: (Units=GPa)
#
#
# Indices 1 2 3 4 5 6 
#
# 1 115.7895 8.3741 -28.6786 0.0000 0.0000 0.0000
# 2 8.3741 99.5088 -3.3647 0.0000 0.0000 0.0000
# 3 -28.6786 -3.3647 35.9153 0.0000 0.0000 0.0000
# 4 0.0000 0.0000 0.0000 14.8820 0.0000 0.0000
# 5 0.0000 0.0000 0.0000 0.0000 35.8769 0.0000
# 6 0.0000 0.0000 0.0000 0.0000 0.0000 9.3362
#
#
#
# Elastic Compliance Matrix: (Units=1/GPa)
#
#
# Indices 1 2 3 4 5 6 
#
# 1 0.010803 -0.000619 0.008569 0.000000 0.000000 0.000000
# 2 -0.000619 0.010117 0.000453 0.000000 0.000000 0.000000
# 3 0.008569 0.000453 0.034728 0.000000 0.000000 0.000000
# 4 0.000000 0.000000 0.000000 0.067195 0.000000 0.000000
# 5 0.000000 0.000000 0.000000 0.000000 0.027873 0.000000
# 6 0.000000 0.000000 0.000000 0.000000 0.000000 0.107111
#
#
# Mechanical properties :
#
#
# Convention : Reuss Voigt Hill
#
# Bulk Modulus (GPa) = 13.80214 22.65282 18.22748
# Shear Modulus (GPa) = 18.85562 30.34452 24.60007
#
# Velocity S-wave (km/s) = 2.70186 3.42754 3.08610
# Velocity P-wave (km/s) = 3.88290 4.94309 4.44472
#
# Compressibility (1/GPa) = 0.07245251
#
# Stress axis : x y z
#
# Youngs Moduli (GPa) = 92.56340 98.84533 28.79543
#
# Poissons Ratio (x) = 0.06123 -0.24673
# Poissons Ratio (y) = 0.05734 -0.01305
# Poissons Ratio (z) = -0.79313 -0.04479
#
# Static dielectric constant tensor:
#      x y z
#    x 2.086320 0.000000 0.000000 
#    y 0.000000 1.837150 0.000000 
#    z 0.000000 0.000000 2.231690 
# 
# From -- ./inp_files/14623.got.cif
#   From: 2010.05.17/outbox.cif.g08.bks.cpg/sg62_8_cif.got.tgz:14623.got - 2010.06.03 15:25:27.
