data_PCOD9465920
_publ_section_title
;
Structure prediction by ZEFSAII (Michael W. Deem and Ramdas Pophale) SiO2 
 PCOD9465920
Probable space group: P N M A
;
_chemical_formula_sum "Si O2"
_cell_formula_units_Z 64
_cell_length_a 24.370441
_cell_length_b 8.180265
_cell_length_c 15.887082
_cell_angle_alpha 90.000000
_cell_angle_beta 90.000000
_cell_angle_gamma 90.000000
_cell_volume 3167.195693
_symmetry_space_group_name_H-M "P N M A"
_symmetry_group_IT_number 62
_symmetry_cell_setting 'orthorhombic'
loop_
_space_group_symop_operation_xyz
x,y,z
1/2-x,-y,1/2+z
1/2+x,1/2-y,1/2-z
-x,1/2+y,-z
-x,-y,-z
1/2+x,y,1/2-z
1/2-x,1/2+y,1/2+z
x,1/2-y,z
loop_
_atom_site_type_symbol
_atom_site_label
_atom_site_fract_x
_atom_site_fract_y
_atom_site_fract_z
Si Si1 0.687168 0.055612 0.505743
Si Si2 0.379478 0.448090 0.164035
Si Si3 0.508719 0.441900 0.404119
Si Si4 0.124782 0.557648 0.157282
Si Si5 0.498040 0.445572 0.096886
Si Si6 0.615372 0.553248 0.157127
Si Si7 0.811663 0.049644 0.499386
Si Si8 0.107540 0.444589 0.846614
O O1 0.690732 0.250000 0.519482
O O2 0.749233 0.992007 0.508511
O O3 0.646731 0.991976 0.578587
O O4 0.660019 0.025032 0.415530
O O5 0.378714 0.250000 0.168415
O O6 0.440982 0.501125 0.137985
O O7 0.338854 0.499324 0.089117
O O8 0.367209 0.517711 0.255768
O O9 0.500000 0.500000 0.500000
O O10 0.521132 0.250000 0.404130
O O11 0.560718 0.532141 0.364412
O O12 0.452302 0.475095 0.355141
O O13 0.137045 0.750000 0.155221
O O14 0.134704 0.493118 0.251573
O O15 0.498491 0.250000 0.099588
O O16 0.552027 0.509420 0.142881
O O17 0.500000 0.500000 0.000000
O O18 0.619311 0.750000 0.158298
O O19 0.651014 0.494744 0.077829
O O20 0.812061 0.250000 0.499913
O O21 0.100150 0.250000 0.856862
#
# Coordination Sequence:
#
# PCOD9465920 Si02
#       8
#     8   8   8   8   8   8   8   8
#     4  10  22  40  62  83 114 160 203 246 295 348
#     4  10  21  38  61  86 116 157 198 241 296 354
#     4  12  23  38  62  89 122 157 195 239 295 358
#     4  11  23  38  62  92 122 154 194 245 299 351
#     4  11  21  35  59  89 119 153 192 238 297 356
#     4  10  21  39  61  87 119 156 196 239 291 353
#     4   9  19  40  63  83 113 158 205 245 294 349
#     4  11  23  38  59  90 122 155 197 243 298 352
#
# _framework density 20.207151
#
# number of rings (size 3 to 8) (size 9 to 14) (size 15 to 20)
#    0.000    1.500    2.500    3.000    0.000    5.500 
#    0.000    2.500    0.000    0.000    0.000    0.000 
#    0.000    0.000    0.000    0.000    0.000    0.000 
#
# Total GULP energy -357750.494298 kJ/mol
# GULP energy per Si atom -5589.851473 kJ/mol
# Density = 2.016116 g / cm^3
# Si number density = 20.207151 Si / 1000 Ang^3
#
#
#
# Elastic Constant Matrix: (Units=GPa)
#
#
# Indices 1 2 3 4 5 6 
#
# 1 88.9637 -8.2991 8.5163 0.0000 0.0000 0.0000
# 2 -8.2991 8.4082 -7.1408 0.0000 0.0000 0.0000
# 3 8.5163 -7.1408 101.8718 0.0000 0.0000 0.0000
# 4 0.0000 0.0000 0.0000 18.9555 0.0000 0.0000
# 5 0.0000 0.0000 0.0000 0.0000 2.9961 0.0000
# 6 0.0000 0.0000 0.0000 0.0000 0.0000 18.8300
#
#
#
# Elastic Compliance Matrix: (Units=1/GPa)
#
#
# Indices 1 2 3 4 5 6 
#
# 1 0.012384 0.012062 -0.000190 0.000000 0.000000 0.000000
# 2 0.012062 0.138208 0.008679 0.000000 0.000000 0.000000
# 3 -0.000190 0.008679 0.010441 0.000000 0.000000 0.000000
# 4 0.000000 0.000000 0.000000 0.052755 0.000000 0.000000
# 5 0.000000 0.000000 0.000000 0.000000 0.333769 0.000000
# 6 0.000000 0.000000 0.000000 0.000000 0.000000 0.053107
#
#
# Mechanical properties :
#
#
# Convention : Reuss Voigt Hill
#
# Bulk Modulus (GPa) = 4.94718 20.59960 12.77339
# Shear Modulus (GPa) = 7.97527 21.90082 14.93804
#
# Velocity S-wave (km/s) = 1.98880 3.29571 2.72186
# Velocity P-wave (km/s) = 2.77980 4.96977 4.02653
#
# Compressibility (1/GPa) = 0.20213556
#
# Stress axis : x y z
#
# Youngs Moduli (GPa) = 80.74971 7.23549 95.78070
#
# Poissons Ratio (x) = -0.08728 0.01818
# Poissons Ratio (y) = -0.97401 -0.83132
# Poissons Ratio (z) = 0.01532 -0.06280
#
# Static dielectric constant tensor:
#      x y z
#    x 1.707590 0.000000 0.000000 
#    y 0.000000 1.730690 0.000000 
#    z 0.000000 0.000000 1.717350 
# 
# From -- ./inp_files/20755.got.cif
#   From: 2010.05.17/outbox.cif.g08.bks.cpg/sg62_11_cif.got.tgz:20755.got - 2010.06.03 15:25:27.
