data_PCOD9465220
_publ_section_title
;
Structure prediction by ZEFSAII (Michael W. Deem and Ramdas Pophale) SiO2 
 PCOD9465220
Probable space group: P N M A
;
_chemical_formula_sum "Si O2"
_cell_formula_units_Z 48
_cell_length_a 15.399986
_cell_length_b 13.832286
_cell_length_c 11.840802
_cell_angle_alpha 90.000000
_cell_angle_beta 90.000000
_cell_angle_gamma 90.000000
_cell_volume 2522.292247
_symmetry_space_group_name_H-M "P N M A"
_symmetry_group_IT_number 62
_symmetry_cell_setting 'orthorhombic'
loop_
_space_group_symop_operation_xyz
x,y,z
1/2-x,-y,1/2+z
1/2+x,1/2-y,1/2-z
-x,1/2+y,-z
-x,-y,-z
1/2+x,y,1/2-z
1/2-x,1/2+y,1/2+z
x,1/2-y,z
loop_
_atom_site_type_symbol
_atom_site_label
_atom_site_fract_x
_atom_site_fract_y
_atom_site_fract_z
Si Si1 0.028638 0.637113 0.685962
Si Si2 0.810955 0.445812 0.186663
Si Si3 0.813784 0.362529 0.935698
Si Si4 0.541415 0.863391 0.077939
Si Si5 0.622898 0.500324 0.248559
Si Si6 0.860647 0.640480 0.288841
O O1 0.008030 0.750000 0.696068
O O2 0.122431 0.614627 0.737329
O O3 0.028464 0.611889 0.552980
O O4 0.956951 0.572870 0.748278
O O5 0.713738 0.445065 0.235580
O O6 0.843488 0.556887 0.198288
O O7 0.811631 0.404963 0.060819
O O8 0.840794 0.250000 0.936020
O O9 0.873129 0.428772 0.855577
O O10 0.717926 0.366605 0.879128
O O11 0.565873 0.750000 0.084742
O O12 0.610816 0.930814 0.139276
O O13 0.451172 0.875296 0.146134
O O14 0.860130 0.750000 0.243192
#
# Coordination Sequence:
#
# PCOD9465220 Si02
#       6
#     8   8   8   8   8   8
#     4  11  24  40  61  93 126 156 201 256 308 356
#     4  11  23  38  63  88 125 162 198 249 308 360
#     4  10  22  40  61  89 126 167 203 240 299 373
#     4  10  20  38  66  92 119 155 204 263 303 344
#     4  11  23  38  67  89 120 158 213 247 298 357
#     4   9  19  38  63  91 117 156 210 255 298 352
#
# _framework density 19.030308000000002
#
# number of rings (size 3 to 8) (size 9 to 14) (size 15 to 20)
#    0.000    1.667    1.667    2.500    4.667    4.000 
#    0.000    0.833    0.000    0.000    0.000    0.000 
#    0.000    0.000    0.000    0.000    0.000    0.000 
#
# Total GULP energy -268195.501063 kJ/mol
# GULP energy per Si atom -5587.406272 kJ/mol
# Density = 1.898699 g / cm^3
# Si number density = 19.030308 Si / 1000 Ang^3
#
#
#
# Elastic Constant Matrix: (Units=GPa)
#
#
# Indices 1 2 3 4 5 6 
#
# 1 78.8807 28.1739 17.2259 0.0000 0.0000 0.0000
# 2 28.1739 95.8333 48.1831 0.0000 0.0000 0.0000
# 3 17.2259 48.1831 45.4519 0.0000 0.0000 0.0000
# 4 0.0000 0.0000 0.0000 38.6808 0.0000 0.0000
# 5 0.0000 0.0000 0.0000 0.0000 14.1742 0.0000
# 6 0.0000 0.0000 0.0000 0.0000 0.0000 17.4506
#
#
#
# Elastic Compliance Matrix: (Units=1/GPa)
#
#
# Indices 1 2 3 4 5 6 
#
# 1 0.014254 -0.003157 -0.002055 0.000000 0.000000 0.000000
# 2 -0.003157 0.023043 -0.023231 0.000000 0.000000 0.000000
# 3 -0.002055 -0.023231 0.047407 0.000000 0.000000 0.000000
# 4 0.000000 0.000000 0.000000 0.025853 0.000000 0.000000
# 5 0.000000 0.000000 0.000000 0.000000 0.070551 0.000000
# 6 0.000000 0.000000 0.000000 0.000000 0.000000 0.057305
#
#
# Mechanical properties :
#
#
# Convention : Reuss Voigt Hill
#
# Bulk Modulus (GPa) = 35.94910 45.25907 40.60409
# Shear Modulus (GPa) = 16.41648 22.49998 19.45823
#
# Velocity S-wave (km/s) = 2.94028 3.44222 3.20110
# Velocity P-wave (km/s) = 5.51891 6.29546 5.91993
#
# Compressibility (1/GPa) = 0.02781711
#
# Stress axis : x y z
#
# Youngs Moduli (GPa) = 70.15654 43.39683 21.09376
#
# Poissons Ratio (x) = 0.13701 0.04335
# Poissons Ratio (y) = 0.22149 0.49003
# Poissons Ratio (z) = 0.14419 1.00816
#
# Static dielectric constant tensor:
#      x y z
#    x 1.653420 0.000000 0.000000 
#    y 0.000000 1.683110 0.000000 
#    z 0.000000 0.000000 1.628210 
# 
# From -- ./inp_files/13255.got.cif
#   From: 2010.05.17/outbox.cif.g08.bks.cpg/sg62_7_cif.got.tgz:13255.got - 2010.06.03 15:25:27.
