data_PCOD9465978
_publ_section_title
;
Structure prediction by ZEFSAII (Michael W. Deem and Ramdas Pophale) SiO2 
 PCOD9465978
Probable space group: P N M A
;
_chemical_formula_sum "Si O2"
_cell_formula_units_Z 64
_cell_length_a 13.319349
_cell_length_b 8.806476
_cell_length_c 29.447416
_cell_angle_alpha 90.000000
_cell_angle_beta 90.000000
_cell_angle_gamma 90.000000
_cell_volume 3454.079635
_symmetry_space_group_name_H-M "P N M A"
_symmetry_group_IT_number 62
_symmetry_cell_setting 'orthorhombic'
loop_
_space_group_symop_operation_xyz
x,y,z
1/2-x,-y,1/2+z
1/2+x,1/2-y,1/2-z
-x,1/2+y,-z
-x,-y,-z
1/2+x,y,1/2-z
1/2-x,1/2+y,1/2+z
x,1/2-y,z
loop_
_atom_site_type_symbol
_atom_site_label
_atom_site_fract_x
_atom_site_fract_y
_atom_site_fract_z
Si Si1 0.718545 0.934650 0.379237
Si Si2 0.493767 0.567926 0.357340
Si Si3 0.612331 0.931797 0.052518
Si Si4 0.216444 0.571541 0.883917
Si Si5 0.852615 0.574738 0.294325
Si Si6 0.264944 0.923683 0.779435
Si Si7 0.885682 0.933644 0.451633
Si Si8 0.513465 0.424166 0.258386
O O1 0.715735 0.750000 0.379410
O O2 0.602149 0.984010 0.377775
O O3 0.777043 0.979959 0.333238
O O4 0.792191 0.981608 0.420132
O O5 0.489133 0.750000 0.359883
O O6 0.395348 0.499849 0.381696
O O7 0.494745 0.518502 0.304332
O O8 0.618827 0.750000 0.052709
O O9 0.497384 0.972573 0.067510
O O10 0.702437 0.997892 0.082531
O O11 0.622075 0.993812 0.001281
O O12 0.207455 0.750000 0.894226
O O13 0.259970 0.555063 0.832979
O O14 0.876867 0.750000 0.303055
O O15 0.798855 0.549911 0.246186
O O16 0.951100 0.477828 0.285471
O O17 0.229251 0.750000 0.770122
O O18 0.373069 0.936018 0.757421
O O19 0.882582 0.750000 0.455517
O O20 0.491430 0.250000 0.269716
#
# Coordination Sequence:
#
# PCOD9465978 Si02
#       8
#     8   8   8   8   8   8   8   8
#     4   9  20  37  58  86 115 147 189 235 285 340
#     4  11  21  37  58  82 113 151 195 239 281 331
#     4  10  21  38  63  92 117 144 185 234 286 347
#     4  11  23  39  58  83 116 155 195 235 288 342
#     4  11  21  34  55  82 112 149 195 238 283 333
#     4  10  22  37  53  76 113 155 195 236 280 336
#     4   9  19  40  65  87 117 150 180 229 292 347
#     4  11  22  36  51  75 113 155 193 234 286 336
#
# _framework density 18.528813
#
# number of rings (size 3 to 8) (size 9 to 14) (size 15 to 20)
#    0.000    1.750    2.500    1.875    1.750    1.500 
#    0.000    3.125    0.000    0.000    0.000    0.000 
#    0.000    0.000    0.000    0.000    0.000    0.000 
#
# Total GULP energy -356875.176671 kJ/mol
# GULP energy per Si atom -5576.174635 kJ/mol
# Density = 1.848664 g / cm^3
# Si number density = 18.528813 Si / 1000 Ang^3
#
#
#
# Elastic Constant Matrix: (Units=GPa)
#
#
# Indices 1 2 3 4 5 6 
#
# 1 151.8951 29.0782 57.1850 0.0000 0.0000 0.0000
# 2 29.0782 44.9692 21.7306 0.0000 0.0000 0.0000
# 3 57.1850 21.7306 63.2775 0.0000 0.0000 0.0000
# 4 0.0000 0.0000 0.0000 23.4779 0.0000 0.0000
# 5 0.0000 0.0000 0.0000 0.0000 114.9601 0.0000
# 6 0.0000 0.0000 0.0000 0.0000 0.0000 29.7972
#
#
#
# Elastic Compliance Matrix: (Units=1/GPa)
#
#
# Indices 1 2 3 4 5 6 
#
# 1 0.010221 -0.002572 -0.008353 0.000000 0.000000 0.000000
# 2 -0.002572 0.027309 -0.007054 0.000000 0.000000 0.000000
# 3 -0.008353 -0.007054 0.025775 0.000000 0.000000 0.000000
# 4 0.000000 0.000000 0.000000 0.042593 0.000000 0.000000
# 5 0.000000 0.000000 0.000000 0.000000 0.008699 0.000000
# 6 0.000000 0.000000 0.000000 0.000000 0.000000 0.033560
#
#
# Mechanical properties :
#
#
# Convention : Reuss Voigt Hill
#
# Bulk Modulus (GPa) = 36.56837 52.90327 44.73582
# Shear Modulus (GPa) = 25.87573 43.79026 34.83299
#
# Velocity S-wave (km/s) = 3.74105 4.86671 4.34053
# Velocity P-wave (km/s) = 6.19995 7.75846 7.02258
#
# Compressibility (1/GPa) = 0.02734603
#
# Stress axis : x y z
#
# Youngs Moduli (GPa) = 97.84012 36.61739 38.79765
#
# Poissons Ratio (x) = 0.09420 0.32409
# Poissons Ratio (y) = 0.25169 0.27367
# Poissons Ratio (z) = 0.81728 0.25829
#
# Static dielectric constant tensor:
#      x y z
#    x 1.697030 0.000000 0.000000 
#    y 0.000000 1.624410 0.000000 
#    z 0.000000 0.000000 1.604190 
# 
# From -- ./inp_files/32528.got.cif
#   From: 2010.05.17/outbox.cif.g08.bks.cpg/sg62_17_cif.got.tgz:32528.got - 2010.06.03 15:25:27.
