data_PCOD9465824
_publ_section_title
;
Structure prediction by ZEFSAII (Michael W. Deem and Ramdas Pophale) SiO2 
 PCOD9465824
Probable space group: P N M A
;
_chemical_formula_sum "Si O2"
_cell_formula_units_Z 44
_cell_length_a 13.556316
_cell_length_b 9.447427
_cell_length_c 17.224496
_cell_angle_alpha 90.000000
_cell_angle_beta 90.000000
_cell_angle_gamma 90.000000
_cell_volume 2205.980919
_symmetry_space_group_name_H-M "P N M A"
_symmetry_group_IT_number 62
_symmetry_cell_setting 'orthorhombic'
loop_
_space_group_symop_operation_xyz
x,y,z
1/2-x,-y,1/2+z
1/2+x,1/2-y,1/2-z
-x,1/2+y,-z
-x,-y,-z
1/2+x,y,1/2-z
1/2-x,1/2+y,1/2+z
x,1/2-y,z
loop_
_atom_site_type_symbol
_atom_site_label
_atom_site_fract_x
_atom_site_fract_y
_atom_site_fract_z
Si Si1 0.272955 0.750000 0.203067
Si Si2 0.897496 0.917967 0.994195
Si Si3 0.873872 0.750000 0.465965
Si Si4 0.659264 0.250000 0.212723
Si Si5 0.615889 0.991200 0.321263
Si Si6 0.578562 0.750000 0.111667
Si Si7 0.523981 0.250000 0.718781
Si Si8 0.288556 0.975800 0.915609
O O1 0.322050 0.750000 0.117706
O O2 0.203518 0.612901 0.206449
O O3 0.359367 0.750000 0.266754
O O4 0.909873 0.750000 0.004039
O O5 0.859909 0.951946 0.907023
O O6 0.818100 0.977060 0.054759
O O7 0.000000 0.000000 0.000000
O O8 0.840241 0.614554 0.515484
O O9 0.990615 0.750000 0.451143
O O10 0.607084 0.375495 0.265240
O O11 0.710716 0.373029 0.157843
O O12 0.519379 0.890135 0.321853
O O13 0.526201 0.750000 0.195540
O O14 0.645520 0.612567 0.101717
#
# Coordination Sequence:
#
# PCOD9465824 Si02
#       8
#     4   8   4   4   8   4   4   8
#     4  10  22  41  71  92 127 181 227 268 357 407
#     4  12  28  46  72 100 136 188 241 284 348 413
#     4  10  21  37  68  96 130 168 221 273 338 417
#     4  11  24  41  68  95 138 175 220 281 350 396
#     4  11  23  47  67  96 142 177 225 293 341 415
#     4  11  20  40  65  99 127 172 216 278 336 420
#     4  10  23  41  66  98 130 174 228 272 351 414
#     4  11  23  43  66  99 137 178 224 286 344 405
#
# _framework density 19.945775000000001
#
# number of rings (size 3 to 8) (size 9 to 14) (size 15 to 20)
#    0.000    1.091    5.455    0.545    5.091    1.455 
#    0.000    0.909    0.000    0.000    0.000    0.000 
#    0.000    0.000    0.000    0.000    0.000    0.000 
#
# Total GULP energy -244946.889503 kJ/mol
# GULP energy per Si atom -5566.974761 kJ/mol
# Density = 1.990038 g / cm^3
# Si number density = 19.945775 Si / 1000 Ang^3
#
#
#
# Elastic Constant Matrix: (Units=GPa)
#
#
# Indices 1 2 3 4 5 6 
#
# 1 105.3814 56.8800 4.5544 0.0000 0.0000 0.0000
# 2 56.8800 198.5984 25.4465 0.0000 0.0000 0.0000
# 3 4.5544 25.4465 45.2788 0.0000 0.0000 0.0000
# 4 0.0000 0.0000 0.0000 42.6649 0.0000 0.0000
# 5 0.0000 0.0000 0.0000 0.0000 29.1428 0.0000
# 6 0.0000 0.0000 0.0000 0.0000 0.0000 19.5218
#
#
#
# Elastic Compliance Matrix: (Units=1/GPa)
#
#
# Indices 1 2 3 4 5 6 
#
# 1 0.011247 -0.003315 0.000732 0.000000 0.000000 0.000000
# 2 -0.003315 0.006403 -0.003265 0.000000 0.000000 0.000000
# 3 0.000732 -0.003265 0.023847 0.000000 0.000000 0.000000
# 4 0.000000 0.000000 0.000000 0.023438 0.000000 0.000000
# 5 0.000000 0.000000 0.000000 0.000000 0.034314 0.000000
# 6 0.000000 0.000000 0.000000 0.000000 0.000000 0.051225
#
#
# Mechanical properties :
#
#
# Convention : Reuss Voigt Hill
#
# Bulk Modulus (GPa) = 33.55687 58.11338 45.83513
# Shear Modulus (GPa) = 29.05223 35.75775 32.40499
#
# Velocity S-wave (km/s) = 3.82063 4.23868 4.03507
# Velocity P-wave (km/s) = 6.02690 7.29069 6.68871
#
# Compressibility (1/GPa) = 0.02980015
#
# Stress axis : x y z
#
# Youngs Moduli (GPa) = 88.91273 156.17498 41.93450
#
# Poissons Ratio (x) = 0.51772 -0.03068
# Poissons Ratio (y) = 0.29474 0.13692
# Poissons Ratio (z) = -0.06506 0.50992
#
# Static dielectric constant tensor:
#      x y z
#    x 1.683120 0.000000 0.000000 
#    y 0.000000 1.665190 0.000000 
#    z 0.000000 0.000000 1.737160 
# 
# From -- ./inp_files/23627.got.cif
#   From: 2010.05.17/outbox.cif.g08.bks.cpg/sg62_12_cif.got.tgz:23627.got - 2010.06.03 15:25:27.
