data_PCOD9465611
_publ_section_title
;
Structure prediction by ZEFSAII (Michael W. Deem and Ramdas Pophale) SiO2 
 PCOD9465611
Probable space group: P N M A
;
_chemical_formula_sum "Si O2"
_cell_formula_units_Z 56
_cell_length_a 16.508194
_cell_length_b 7.828055
_cell_length_c 20.088942
_cell_angle_alpha 90.000000
_cell_angle_beta 90.000000
_cell_angle_gamma 90.000000
_cell_volume 2596.034724
_symmetry_space_group_name_H-M "P N M A"
_symmetry_group_IT_number 62
_symmetry_cell_setting 'orthorhombic'
loop_
_space_group_symop_operation_xyz
x,y,z
1/2-x,-y,1/2+z
1/2+x,1/2-y,1/2-z
-x,1/2+y,-z
-x,-y,-z
1/2+x,y,1/2-z
1/2-x,1/2+y,1/2+z
x,1/2-y,z
loop_
_atom_site_type_symbol
_atom_site_label
_atom_site_fract_x
_atom_site_fract_y
_atom_site_fract_z
Si Si1 0.251448 0.052039 0.473911
Si Si2 0.186006 0.952820 0.683929
Si Si3 0.663382 0.049658 0.400196
Si Si4 0.503764 0.042584 0.330550
Si Si5 0.181039 0.448442 0.835646
Si Si6 0.502902 0.541742 0.820999
Si Si7 0.575863 0.455794 0.045600
O O1 0.251253 0.250000 0.493105
O O2 0.161078 0.977772 0.482116
O O3 0.315912 0.965930 0.522390
O O4 0.274027 0.036765 0.396702
O O5 0.182053 0.750000 0.671168
O O6 0.259818 0.024150 0.640475
O O7 0.095603 0.020106 0.668356
O O8 0.200089 0.978920 0.762550
O O9 0.659839 0.250000 0.382524
O O10 0.576599 0.980960 0.377210
O O11 0.496072 0.250000 0.333968
O O12 0.522651 0.996233 0.253718
O O13 0.415333 0.970875 0.346303
O O14 0.201988 0.250000 0.836292
O O15 0.504431 0.750000 0.823209
O O16 0.444895 0.482568 0.879964
O O17 0.583409 0.250000 0.048394
O O18 0.500000 0.500000 0.000000
#
# Coordination Sequence:
#
# PCOD9465611 Si02
#       7
#     8   8   8   8   8   8   8
#     4  11  24  39  58  85 121 159 196 241 293 352
#     4   9  18  35  61  87 115 150 189 239 292 350
#     4  10  21  37  62  89 115 151 196 243 295 354
#     4   9  19  37  61  86 110 145 194 246 295 346
#     4  11  23  39  59  84 117 155 196 245 295 349
#     4   8  15  31  55  82 109 141 185 230 275 334
#     4  10  21  36  58  85 116 153 191 234 284 344
#
# _framework density 21.571359999999999
#
# number of rings (size 3 to 8) (size 9 to 14) (size 15 to 20)
#    0.000    2.286    0.000    3.429    2.000    4.000 
#    0.000    4.286    0.000    0.000    0.000    0.000 
#    0.000    0.000    0.000    0.000    0.000    0.000 
#
# Total GULP energy -312753.094761 kJ/mol
# GULP energy per Si atom -5584.876692 kJ/mol
# Density = 2.152226 g / cm^3
# Si number density = 21.571360 Si / 1000 Ang^3
#
#
#
# Elastic Constant Matrix: (Units=GPa)
#
#
# Indices 1 2 3 4 5 6 
#
# 1 26.7670 -1.3892 7.8032 0.0000 0.0000 0.0000
# 2 -1.3892 24.9576 -16.2345 0.0000 0.0000 0.0000
# 3 7.8032 -16.2345 39.8305 0.0000 0.0000 0.0000
# 4 0.0000 0.0000 0.0000 19.4190 0.0000 0.0000
# 5 0.0000 0.0000 0.0000 0.0000 34.8882 0.0000
# 6 0.0000 0.0000 0.0000 0.0000 0.0000 14.7070
#
#
#
# Elastic Compliance Matrix: (Units=1/GPa)
#
#
# Indices 1 2 3 4 5 6 
#
# 1 0.039899 -0.003897 -0.009405 0.000000 0.000000 0.000000
# 2 -0.003897 0.054904 0.023142 0.000000 0.000000 0.000000
# 3 -0.009405 0.023142 0.036381 0.000000 0.000000 0.000000
# 4 0.000000 0.000000 0.000000 0.051496 0.000000 0.000000
# 5 0.000000 0.000000 0.000000 0.000000 0.028663 0.000000
# 6 0.000000 0.000000 0.000000 0.000000 0.000000 0.067995
#
#
# Mechanical properties :
#
#
# Convention : Reuss Voigt Hill
#
# Bulk Modulus (GPa) = 6.62844 7.99045 7.30945
# Shear Modulus (GPa) = 16.13182 20.56122 18.34652
#
# Velocity S-wave (km/s) = 2.73762 3.09070 2.91950
# Velocity P-wave (km/s) = 3.61556 4.05571 3.84194
#
# Compressibility (1/GPa) = 0.15086500
#
# Stress axis : x y z
#
# Youngs Moduli (GPa) = 25.06335 18.21346 27.48664
#
# Poissons Ratio (x) = 0.07098 0.25851
# Poissons Ratio (y) = 0.09767 -0.63609
# Poissons Ratio (z) = 0.23572 -0.42149
#
# Static dielectric constant tensor:
#      x y z
#    x 1.795380 0.000000 0.000000 
#    y 0.000000 1.795170 0.000000 
#    z 0.000000 0.000000 1.758000 
# 
# From -- ./inp_files/27189.got.cif
#   From: 2010.05.17/outbox.cif.g08.bks.cpg/sg62_14_cif.got.tgz:27189.got - 2010.06.03 15:25:27.
