data_PCOD9465197
_publ_section_title
;
Structure prediction by ZEFSAII (Michael W. Deem and Ramdas Pophale) SiO2 
 PCOD9465197
Probable space group: P N M A
;
_chemical_formula_sum "Si O2"
_cell_formula_units_Z 40
_cell_length_a 10.392076
_cell_length_b 14.728654
_cell_length_c 12.648628
_cell_angle_alpha 90.000000
_cell_angle_beta 90.000000
_cell_angle_gamma 90.000000
_cell_volume 1936.015340
_symmetry_space_group_name_H-M "P N M A"
_symmetry_group_IT_number 62
_symmetry_cell_setting 'orthorhombic'
loop_
_space_group_symop_operation_xyz
x,y,z
1/2-x,-y,1/2+z
1/2+x,1/2-y,1/2-z
-x,1/2+y,-z
-x,-y,-z
1/2+x,y,1/2-z
1/2-x,1/2+y,1/2+z
x,1/2-y,z
loop_
_atom_site_type_symbol
_atom_site_label
_atom_site_fract_x
_atom_site_fract_y
_atom_site_fract_z
Si Si1 0.444596 0.250000 0.347028
Si Si2 0.329955 0.942386 0.944609
Si Si3 0.362494 0.750000 0.848925
Si Si4 0.558189 0.570265 0.211055
Si Si5 0.291682 0.853583 0.161226
Si Si6 0.543900 0.551020 0.604551
O O1 0.291129 0.250000 0.320232
O O2 0.537954 0.250000 0.246797
O O3 0.474998 0.158246 0.409114
O O4 0.384291 0.843930 0.911338
O O5 0.196887 0.959892 0.881605
O O6 0.417898 0.024318 0.903353
O O7 0.288670 0.926635 0.065585
O O8 0.681406 0.622784 0.255225
O O9 0.433629 0.633938 0.208646
O O10 0.527356 0.489012 0.293464
O O11 0.272982 0.750000 0.122668
O O12 0.500000 0.500000 0.500000
#
# Coordination Sequence:
#
# PCOD9465197 Si02
#       6
#     4   8   4   8   8   8
#     4  10  22  38  66  93 129 169 215 274 322 382
#     4  11  22  42  68  96 126 173 215 267 326 389
#     4  10  20  38  64  93 125 163 215 260 328 370
#     4  12  24  42  69  97 131 168 223 273 322 392
#     4  12  26  45  67  94 133 177 219 269 335 398
#     4  11  22  40  66  97 129 171 219 264 327 390
#
# _framework density 20.660995
#
# number of rings (size 3 to 8) (size 9 to 14) (size 15 to 20)
#    0.000    0.800    7.000    1.200    0.000    0.000 
#    1.800    0.000    0.000    0.000    0.000    0.000 
#    0.000    0.000    0.000    0.000    0.000    0.000 
#
# Total GULP energy -223360.892603 kJ/mol
# GULP energy per Si atom -5584.022315 kJ/mol
# Density = 2.061397 g / cm^3
# Si number density = 20.660995 Si / 1000 Ang^3
#
#
#
# Elastic Constant Matrix: (Units=GPa)
#
#
# Indices 1 2 3 4 5 6 
#
# 1 80.2524 20.0339 12.3821 0.0000 0.0000 0.0000
# 2 20.0339 59.0557 0.4068 0.0000 0.0000 0.0000
# 3 12.3821 0.4068 63.2719 0.0000 0.0000 0.0000
# 4 0.0000 0.0000 0.0000 37.9496 0.0000 0.0000
# 5 0.0000 0.0000 0.0000 0.0000 27.9410 0.0000
# 6 0.0000 0.0000 0.0000 0.0000 0.0000 16.7724
#
#
#
# Elastic Compliance Matrix: (Units=1/GPa)
#
#
# Indices 1 2 3 4 5 6 
#
# 1 0.014067 -0.004753 -0.002722 0.000000 0.000000 0.000000
# 2 -0.004753 0.018540 0.000811 0.000000 0.000000 0.000000
# 3 -0.002722 0.000811 0.016332 0.000000 0.000000 0.000000
# 4 0.000000 0.000000 0.000000 0.026351 0.000000 0.000000
# 5 0.000000 0.000000 0.000000 0.000000 0.035790 0.000000
# 6 0.000000 0.000000 0.000000 0.000000 0.000000 0.059622
#
#
# Mechanical properties :
#
#
# Convention : Reuss Voigt Hill
#
# Bulk Modulus (GPa) = 28.08177 29.80284 28.94230
# Shear Modulus (GPa) = 25.52300 27.84974 26.68637
#
# Velocity S-wave (km/s) = 3.51853 3.67541 3.59782
# Velocity P-wave (km/s) = 5.48889 5.69803 5.59444
#
# Compressibility (1/GPa) = 0.03561029
#
# Stress axis : x y z
#
# Youngs Moduli (GPa) = 71.08658 53.93710 61.22818
#
# Poissons Ratio (x) = 0.25639 0.16669
# Poissons Ratio (y) = 0.33790 -0.04966
# Poissons Ratio (z) = 0.19352 -0.04374
#
# Static dielectric constant tensor:
#      x y z
#    x 1.762710 0.000000 0.000000 
#    y 0.000000 1.718590 0.000000 
#    z 0.000000 0.000000 1.742230 
# 
# From -- ./inp_files/11090.got.cif
#   From: 2010.05.17/outbox.cif.g08.bks.cpg/sg62_6_cif.got.tgz:11090.got - 2010.06.03 15:25:27.
