data_PCOD9465239
_publ_section_title
;
Structure prediction by ZEFSAII (Michael W. Deem and Ramdas Pophale) SiO2 
 PCOD9465239
Probable space group: P N M A
;
_chemical_formula_sum "Si O2"
_cell_formula_units_Z 64
_cell_length_a 20.460683
_cell_length_b 14.511323
_cell_length_c 10.189168
_cell_angle_alpha 90.000000
_cell_angle_beta 90.000000
_cell_angle_gamma 90.000000
_cell_volume 3025.281968
_symmetry_space_group_name_H-M "P N M A"
_symmetry_group_IT_number 62
_symmetry_cell_setting 'orthorhombic'
loop_
_space_group_symop_operation_xyz
x,y,z
1/2-x,-y,1/2+z
1/2+x,1/2-y,1/2-z
-x,1/2+y,-z
-x,-y,-z
1/2+x,y,1/2-z
1/2-x,1/2+y,1/2+z
x,1/2-y,z
loop_
_atom_site_type_symbol
_atom_site_label
_atom_site_fract_x
_atom_site_fract_y
_atom_site_fract_z
Si Si1 0.014770 0.425855 0.111828
Si Si2 0.140597 0.861218 0.243490
Si Si3 0.838026 0.861415 0.936938
Si Si4 0.791892 0.862012 0.222061
Si Si5 0.263964 0.143220 0.279511
Si Si6 0.620936 0.855731 0.555649
Si Si7 0.345156 0.856911 0.999271
Si Si8 0.948793 0.996937 0.616216
O O1 0.088032 0.387703 0.098042
O O2 0.012117 0.470540 0.253789
O O3 0.954394 0.356954 0.095949
O O4 0.000000 0.500000 0.000000
O O5 0.132451 0.750000 0.250212
O O6 0.215359 0.885513 0.275917
O O7 0.092115 0.912296 0.343232
O O8 0.128046 0.893596 0.092737
O O9 0.835074 0.750000 0.931708
O O10 0.781879 0.896564 0.836309
O O11 0.822913 0.891736 0.084996
O O12 0.794529 0.750000 0.226106
O O13 0.827871 0.892026 0.355096
O O14 0.276182 0.250000 0.239219
O O15 0.332628 0.102627 0.330595
O O16 0.219623 0.142309 0.410158
O O17 0.643680 0.750000 0.542299
O O18 0.367052 0.750000 0.006958
O O19 0.397203 0.918848 0.924914
O O20 0.000000 0.000000 0.500000
#
# Coordination Sequence:
#
# PCOD9465239 Si02
#       8
#     8   8   8   8   8   8   8   8
#     4  12  25  42  58  88 135 170 215 268 328 393
#     4  10  21  44  68  94 131 173 221 281 337 390
#     4  10  21  39  65  97 131 168 214 268 326 392
#     4   9  19  38  69 100 127 164 217 272 329 395
#     4   9  17  35  64  97 124 158 213 270 319 384
#     4  10  20  38  71  98 125 173 222 271 338 403
#     4  10  20  40  69  96 128 169 213 267 330 392
#     4  12  28  45  61  96 136 175 223 276 321 399
#
# _framework density 21.155052000000001
#
# number of rings (size 3 to 8) (size 9 to 14) (size 15 to 20)
#    0.000    1.750    3.750    0.375    1.750    2.000 
#    4.500    1.250    0.000    0.000    0.000    0.000 
#    0.000    0.000    0.000    0.000    0.000    0.000 
#
# Total GULP energy -357426.803102 kJ/mol
# GULP energy per Si atom -5584.793798 kJ/mol
# Density = 2.110690 g / cm^3
# Si number density = 21.155052 Si / 1000 Ang^3
#
#
#
# Elastic Constant Matrix: (Units=GPa)
#
#
# Indices 1 2 3 4 5 6 
#
# 1 106.5571 24.5340 50.0199 0.0000 0.0000 0.0000
# 2 24.5340 59.6610 24.0435 0.0000 0.0000 0.0000
# 3 50.0199 24.0435 157.9615 0.0000 0.0000 0.0000
# 4 0.0000 0.0000 0.0000 20.2921 0.0000 0.0000
# 5 0.0000 0.0000 0.0000 0.0000 49.5510 0.0000
# 6 0.0000 0.0000 0.0000 0.0000 0.0000 -23.1666
#
#
#
# Elastic Compliance Matrix: (Units=1/GPa)
#
#
# Indices 1 2 3 4 5 6 
#
# 1 0.011681 -0.003529 -0.003162 0.000000 0.000000 0.000000
# 2 -0.003529 0.018923 -0.001763 0.000000 0.000000 0.000000
# 3 -0.003162 -0.001763 0.007600 0.000000 0.000000 0.000000
# 4 0.000000 0.000000 0.000000 0.049280 0.000000 0.000000
# 5 0.000000 0.000000 0.000000 0.000000 0.020181 0.000000
# 6 0.000000 0.000000 0.000000 0.000000 0.000000 -0.043166
#
#
# Mechanical properties :
#
#
# Convention : Reuss Voigt Hill
#
# Bulk Modulus (GPa) = 46.95527 57.93047 52.44287
# Shear Modulus (GPa) = 56.49239 24.37413 40.43326
#
# Velocity S-wave (km/s) = 5.17319 3.39804 4.37656
# Velocity P-wave (km/s) = 7.61095 6.54513 7.09807
#
# Compressibility (1/GPa) = 0.02129686
#
# Stress axis : x y z
#
# Youngs Moduli (GPa) = 85.60554 52.84537 131.57599
#
# Poissons Ratio (x) = 0.18652 0.41602
# Poissons Ratio (y) = 0.30214 0.23192
# Poissons Ratio (z) = 0.27067 0.09315
#
# Static dielectric constant tensor:
#      x y z
#    x 1.754470 0.000000 0.000000 
#    y 0.000000 1.831690 0.000000 
#    z 0.000000 0.000000 1.748940 
# 
# From -- ./inp_files/8881.got.cif
#   From: 2010.05.17/outbox.cif.g08.bks.cpg/sg62_5_cif.got.tgz:8881.got - 2010.06.03 15:25:27.
