data_PCOD9465657
_publ_section_title
;
Structure prediction by ZEFSAII (Michael W. Deem and Ramdas Pophale) SiO2 
 PCOD9465657
Probable space group: P N M A
;
_chemical_formula_sum "Si O2"
_cell_formula_units_Z 40
_cell_length_a 17.653501
_cell_length_b 18.162202
_cell_length_c 5.682137
_cell_angle_alpha 90.000000
_cell_angle_beta 90.000000
_cell_angle_gamma 90.000000
_cell_volume 1821.843421
_symmetry_space_group_name_H-M "P N M A"
_symmetry_group_IT_number 62
_symmetry_cell_setting 'orthorhombic'
loop_
_space_group_symop_operation_xyz
x,y,z
1/2-x,-y,1/2+z
1/2+x,1/2-y,1/2-z
-x,1/2+y,-z
-x,-y,-z
1/2+x,y,1/2-z
1/2-x,1/2+y,1/2+z
x,1/2-y,z
loop_
_atom_site_type_symbol
_atom_site_label
_atom_site_fract_x
_atom_site_fract_y
_atom_site_fract_z
Si Si1 0.713738 0.332990 0.146226
Si Si2 0.696383 0.903303 0.248690
Si Si3 0.615989 0.668693 0.866050
Si Si4 0.457799 0.014202 0.249529
Si Si5 0.333278 0.547909 0.506467
O O1 0.683972 0.250000 0.143022
O O2 0.798880 0.331041 0.258165
O O3 0.661255 0.387102 0.301609
O O4 0.737661 0.361465 0.889561
O O5 0.744625 0.948646 0.057543
O O6 0.655270 0.967299 0.386862
O O7 0.635867 0.848448 0.138322
O O8 0.583026 0.750000 0.831245
O O9 0.569727 0.599209 0.771223
O O10 0.500000 0.000000 0.500000
O O11 0.387807 0.956763 0.281344
O O12 0.500000 0.000000 0.000000
#
# Coordination Sequence:
#
# PCOD9465657 Si02
#       5
#     8   8   8   8   8
#     4  10  21  36  64 100 132 170 215 288 370 420
#     4  11  18  35  68 102 131 171 216 292 374 421
#     4  10  22  41  65  98 130 166 227 297 348 403
#     4  12  27  45  67  96 133 192 244 275 325 414
#     4  11  21  37  63  95 134 171 225 282 351 419
#
# _framework density 21.955781999999999
#
# number of rings (size 3 to 8) (size 9 to 14) (size 15 to 20)
#    0.000    1.200    4.000    3.000    2.800    0.800 
#    0.000    2.000    0.000    0.000    0.000    0.000 
#    0.000    0.000    0.000    0.000    0.000    0.000 
#
# Total GULP energy -222817.809403 kJ/mol
# GULP energy per Si atom -5570.445235 kJ/mol
# Density = 2.190581 g / cm^3
# Si number density = 21.955782 Si / 1000 Ang^3
#
#
#
# Elastic Constant Matrix: (Units=GPa)
#
#
# Indices 1 2 3 4 5 6 
#
# 1 50.7537 44.4762 32.9877 0.0000 0.0000 0.0000
# 2 44.4762 171.1771 61.7698 0.0000 0.0000 0.0000
# 3 32.9877 61.7698 94.9467 0.0000 0.0000 0.0000
# 4 0.0000 0.0000 0.0000 25.2322 0.0000 0.0000
# 5 0.0000 0.0000 0.0000 0.0000 48.3777 0.0000
# 6 0.0000 0.0000 0.0000 0.0000 0.0000 20.4673
#
#
#
# Elastic Compliance Matrix: (Units=1/GPa)
#
#
# Indices 1 2 3 4 5 6 
#
# 1 0.028370 -0.004985 -0.006614 0.000000 0.000000 0.000000
# 2 -0.004985 0.008510 -0.003804 0.000000 0.000000 0.000000
# 3 -0.006614 -0.003804 0.015305 0.000000 0.000000 0.000000
# 4 0.000000 0.000000 0.000000 0.039632 0.000000 0.000000
# 5 0.000000 0.000000 0.000000 0.000000 0.020671 0.000000
# 6 0.000000 0.000000 0.000000 0.000000 0.000000 0.048858
#
#
# Mechanical properties :
#
#
# Convention : Reuss Voigt Hill
#
# Bulk Modulus (GPa) = 46.77465 66.14945 56.46205
# Shear Modulus (GPa) = 25.09060 30.65836 27.87448
#
# Velocity S-wave (km/s) = 3.38417 3.74086 3.56697
# Velocity P-wave (km/s) = 6.05148 6.98946 6.53731
#
# Compressibility (1/GPa) = 0.02137910
#
# Stress axis : x y z
#
# Youngs Moduli (GPa) = 35.24883 117.51025 65.33741
#
# Poissons Ratio (x) = 0.58574 0.43213
# Poissons Ratio (y) = 0.17570 0.24858
# Poissons Ratio (z) = 0.23313 0.44707
#
# Static dielectric constant tensor:
#      x y z
#    x 1.929010 0.000000 0.000000 
#    y 0.000000 1.838070 0.000000 
#    z 0.000000 0.000000 2.092380 
# 
# From -- ./inp_files/1566.got.cif
#   From: 2010.05.17/outbox.cif.g08.bks.cpg/sg62_1_cif.got.tgz:1566.got - 2010.06.03 15:25:27.
