data_PCOD9465825
_publ_section_title
;
Structure prediction by ZEFSAII (Michael W. Deem and Ramdas Pophale) SiO2 
 PCOD9465825
Probable space group: P N M A
;
_chemical_formula_sum "Si O2"
_cell_formula_units_Z 56
_cell_length_a 5.192283
_cell_length_b 29.616677
_cell_length_c 15.372361
_cell_angle_alpha 90.000000
_cell_angle_beta 90.000000
_cell_angle_gamma 90.000000
_cell_volume 2363.933520
_symmetry_space_group_name_H-M "P N M A"
_symmetry_group_IT_number 62
_symmetry_cell_setting 'orthorhombic'
loop_
_space_group_symop_operation_xyz
x,y,z
1/2-x,-y,1/2+z
1/2+x,1/2-y,1/2-z
-x,1/2+y,-z
-x,-y,-z
1/2+x,y,1/2-z
1/2-x,1/2+y,1/2+z
x,1/2-y,z
loop_
_atom_site_type_symbol
_atom_site_label
_atom_site_fract_x
_atom_site_fract_y
_atom_site_fract_z
Si Si1 0.278851 0.302407 0.053813
Si Si2 0.673658 0.949981 0.472535
Si Si3 0.388092 0.640538 0.059445
Si Si4 0.684506 0.962465 0.919825
Si Si5 0.242814 0.886059 0.299248
Si Si6 0.365981 0.623407 0.692123
Si Si7 0.490191 0.800528 0.363027
O O1 0.328642 0.250000 0.078248
O O2 0.157540 0.333224 0.128711
O O3 0.524999 0.332092 0.024469
O O4 0.121209 0.300793 0.962658
O O5 0.674691 0.896800 0.456203
O O6 0.382942 0.960595 0.499385
O O7 0.892253 0.954886 0.548906
O O8 0.771374 0.984537 0.397524
O O9 0.610531 0.611002 0.106005
O O10 0.267677 0.676922 0.124044
O O11 0.790766 0.923239 0.857758
O O12 0.519519 0.902941 0.266046
O O13 0.310579 0.832540 0.306196
O O14 0.649932 0.624696 0.732538
O O15 0.499776 0.750000 0.331333
#
# Coordination Sequence:
#
# PCOD9465825 Si02
#       7
#     8   8   8   8   8   8   8
#     4  10  23  41  63  95 132 172 232 283 323 390
#     4  10  21  37  73  95 128 160 218 274 324 388
#     4  11  21  39  69  96 125 174 215 278 334 389
#     4  10  21  42  62 103 126 164 218 273 321 397
#     4  11  23  41  56  86 127 165 207 258 321 400
#     4  12  26  43  68  94 137 181 216 274 343 398
#     4  10  22  39  64  91 124 170 220 275 327 382
#
# _framework density 23.689326999999999
#
# number of rings (size 3 to 8) (size 9 to 14) (size 15 to 20)
#    0.000    1.429    2.857    2.143    4.000    1.714 
#    0.000    1.429    0.000    0.000    0.000    0.000 
#    0.000    0.000    0.000    0.000    0.000    0.000 
#
# Total GULP energy -312286.718857 kJ/mol
# GULP energy per Si atom -5576.548551 kJ/mol
# Density = 2.363541 g / cm^3
# Si number density = 23.689327 Si / 1000 Ang^3
#
#
#
# Elastic Constant Matrix: (Units=GPa)
#
#
# Indices 1 2 3 4 5 6 
#
# 1 99.2600 -16.9983 -6.2643 0.0000 0.0000 0.0000
# 2 -16.9983 102.4163 14.8209 0.0000 0.0000 0.0000
# 3 -6.2643 14.8209 30.5515 0.0000 0.0000 0.0000
# 4 0.0000 0.0000 0.0000 27.3057 0.0000 0.0000
# 5 0.0000 0.0000 0.0000 0.0000 31.9752 0.0000
# 6 0.0000 0.0000 0.0000 0.0000 0.0000 27.0117
#
#
#
# Elastic Compliance Matrix: (Units=1/GPa)
#
#
# Indices 1 2 3 4 5 6 
#
# 1 0.010424 0.001528 0.001396 0.000000 0.000000 0.000000
# 2 0.001528 0.010725 -0.004890 0.000000 0.000000 0.000000
# 3 0.001396 -0.004890 0.035390 0.000000 0.000000 0.000000
# 4 0.000000 0.000000 0.000000 0.036622 0.000000 0.000000
# 5 0.000000 0.000000 0.000000 0.000000 0.031274 0.000000
# 6 0.000000 0.000000 0.000000 0.000000 0.000000 0.037021
#
#
# Mechanical properties :
#
#
# Convention : Reuss Voigt Hill
#
# Bulk Modulus (GPa) = 19.00824 23.92714 21.46769
# Shear Modulus (GPa) = 27.33372 33.30316 30.31844
#
# Velocity S-wave (km/s) = 3.40051 3.75351 3.58136
# Velocity P-wave (km/s) = 4.84348 5.37656 5.11697
#
# Compressibility (1/GPa) = 0.05260877
#
# Stress axis : x y z
#
# Youngs Moduli (GPa) = 95.92919 93.23753 28.25662
#
# Poissons Ratio (x) = -0.14248 -0.03945
# Poissons Ratio (y) = -0.14659 0.13816
# Poissons Ratio (z) = -0.13393 0.45590
#
# Static dielectric constant tensor:
#      x y z
#    x 1.987220 0.000000 0.000000 
#    y 0.000000 1.968150 0.000000 
#    z 0.000000 0.000000 1.973790 
# 
# From -- ./inp_files/16291.got.cif
#   From: 2010.05.17/outbox.cif.g08.bks.cpg/sg62_9_cif.got.tgz:16291.got - 2010.06.03 15:25:27.
