data_PCOD9465440
_publ_section_title
;
Structure prediction by ZEFSAII (Michael W. Deem and Ramdas Pophale) SiO2 
 PCOD9465440
Probable space group: P N M A
;
_chemical_formula_sum "Si O2"
_cell_formula_units_Z 44
_cell_length_a 28.645771
_cell_length_b 7.626764
_cell_length_c 7.817293
_cell_angle_alpha 90.000000
_cell_angle_beta 90.000000
_cell_angle_gamma 90.000000
_cell_volume 1707.879453
_symmetry_space_group_name_H-M "P N M A"
_symmetry_group_IT_number 62
_symmetry_cell_setting 'orthorhombic'
loop_
_space_group_symop_operation_xyz
x,y,z
1/2-x,-y,1/2+z
1/2+x,1/2-y,1/2-z
-x,1/2+y,-z
-x,-y,-z
1/2+x,y,1/2-z
1/2-x,1/2+y,1/2+z
x,1/2-y,z
loop_
_atom_site_type_symbol
_atom_site_label
_atom_site_fract_x
_atom_site_fract_y
_atom_site_fract_z
Si Si1 0.490756 0.960312 0.697260
Si Si2 0.761615 0.944168 0.474838
Si Si3 0.887969 0.049454 0.702813
Si Si4 0.324273 0.952444 0.326026
Si Si5 0.412185 0.046218 0.163864
Si Si6 0.675786 0.250000 0.246215
O O1 0.486843 0.750000 0.721511
O O2 0.536916 0.026893 0.796246
O O3 0.500000 0.000000 0.500000
O O4 0.442506 0.046577 0.750754
O O5 0.747694 0.750000 0.407598
O O6 0.794678 0.031290 0.334196
O O7 0.792372 0.900928 0.642242
O O8 0.714512 0.042085 0.525463
O O9 0.870339 0.250000 0.713950
O O10 0.888133 0.974021 0.507200
O O11 0.860359 0.905378 0.809422
O O12 0.333560 0.750000 0.287761
O O13 0.375224 0.036353 0.318995
O O14 0.419182 0.250000 0.124347
#
# Coordination Sequence:
#
# PCOD9465440 Si02
#       6
#     8   8   8   8   8   4
#     4  11  24  43  62  93 134 166 206 265 314 379
#     4   9  21  39  59  86 124 158 202 266 305 364
#     4  11  21  40  71  96 121 167 211 259 318 376
#     4  11  21  39  62  91 122 164 210 260 315 372
#     4  10  22  40  65  92 123 165 212 260 314 376
#     4  10  20  44  64  92 130 160 214 268 310 370
#
# _framework density 25.762941999999999
#
# number of rings (size 3 to 8) (size 9 to 14) (size 15 to 20)
#    0.545    1.091    2.727    1.636    0.000    3.636 
#    3.273    0.000    0.000    0.000    0.000    0.000 
#    0.000    0.000    0.000    0.000    0.000    0.000 
#
# Total GULP energy -245074.004692 kJ/mol
# GULP energy per Si atom -5569.863743 kJ/mol
# Density = 2.570430 g / cm^3
# Si number density = 25.762942 Si / 1000 Ang^3
#
#
#
# Elastic Constant Matrix: (Units=GPa)
#
#
# Indices 1 2 3 4 5 6 
#
# 1 157.3079 20.8463 12.3733 0.0000 0.0000 0.0000
# 2 20.8463 123.7239 -10.4402 0.0000 0.0000 0.0000
# 3 12.3733 -10.4402 51.6417 0.0000 0.0000 0.0000
# 4 0.0000 0.0000 0.0000 2.5420 0.0000 0.0000
# 5 0.0000 0.0000 0.0000 0.0000 49.8731 0.0000
# 6 0.0000 0.0000 0.0000 0.0000 0.0000 44.9014
#
#
#
# Elastic Compliance Matrix: (Units=1/GPa)
#
#
# Indices 1 2 3 4 5 6 
#
# 1 0.006673 -0.001281 -0.001858 0.000000 0.000000 0.000000
# 2 -0.001281 0.008469 0.002019 0.000000 0.000000 0.000000
# 3 -0.001858 0.002019 0.020217 0.000000 0.000000 0.000000
# 4 0.000000 0.000000 0.000000 0.393397 0.000000 0.000000
# 5 0.000000 0.000000 0.000000 0.000000 0.020051 0.000000
# 6 0.000000 0.000000 0.000000 0.000000 0.000000 0.022271
#
#
# Mechanical properties :
#
#
# Convention : Reuss Voigt Hill
#
# Bulk Modulus (GPa) = 30.19380 42.02583 36.10981
# Shear Modulus (GPa) = 10.32296 40.12289 25.22293
#
# Velocity S-wave (km/s) = 2.00390 3.95066 3.13235
# Velocity P-wave (km/s) = 4.13515 6.09575 5.20853
#
# Compressibility (1/GPa) = 0.03311938
#
# Stress axis : x y z
#
# Youngs Moduli (GPa) = 149.86091 118.08140 49.46214
#
# Poissons Ratio (x) = 0.15127 0.09189
# Poissons Ratio (y) = 0.19198 -0.09987
# Poissons Ratio (z) = 0.27841 -0.23841
#
# Static dielectric constant tensor:
#      x y z
#    x 2.056040 0.000000 0.000000 
#    y 0.000000 2.075160 0.000000 
#    z 0.000000 0.000000 2.316570 
# 
# From -- ./inp_files/10099.got.cif
#   From: 2010.05.17/outbox.cif.g08.bks.cpg/sg62_6_cif.got.tgz:10099.got - 2010.06.03 15:25:27.
