data_PCOD9465910
_publ_section_title
;
Structure prediction by ZEFSAII (Michael W. Deem and Ramdas Pophale) SiO2 
 PCOD9465910
Probable space group: P N M A
;
_chemical_formula_sum "Si O2"
_cell_formula_units_Z 64
_cell_length_a 19.765006
_cell_length_b 8.061733
_cell_length_c 17.229289
_cell_angle_alpha 90.000000
_cell_angle_beta 90.000000
_cell_angle_gamma 90.000000
_cell_volume 2745.318374
_symmetry_space_group_name_H-M "P N M A"
_symmetry_group_IT_number 62
_symmetry_cell_setting 'orthorhombic'
loop_
_space_group_symop_operation_xyz
x,y,z
1/2-x,-y,1/2+z
1/2+x,1/2-y,1/2-z
-x,1/2+y,-z
-x,-y,-z
1/2+x,y,1/2-z
1/2-x,1/2+y,1/2+z
x,1/2-y,z
loop_
_atom_site_type_symbol
_atom_site_label
_atom_site_fract_x
_atom_site_fract_y
_atom_site_fract_z
Si Si1 0.421231 0.944614 0.106869
Si Si2 0.953325 0.555304 0.691594
Si Si3 0.671348 0.056709 0.435975
Si Si4 0.304297 0.553937 0.004788
Si Si5 0.298145 0.548061 0.833446
Si Si6 0.167430 0.946677 0.751699
Si Si7 0.952624 0.059360 0.855960
Si Si8 0.407099 0.547701 0.408950
O O1 0.432859 0.750000 0.094463
O O2 0.374668 0.014732 0.037553
O O3 0.493289 0.026696 0.123334
O O4 0.374367 0.967632 0.183448
O O5 0.953562 0.750000 0.710523
O O6 0.876363 0.503153 0.676553
O O7 0.976748 0.457250 0.767584
O O8 0.685778 0.250000 0.443959
O O9 0.630554 0.997932 0.512447
O O10 0.743584 0.970523 0.434758
O O11 0.618388 0.031610 0.367044
O O12 0.314967 0.750000 0.994911
O O13 0.280913 0.488960 0.920862
O O14 0.293759 0.750000 0.831445
O O15 0.243710 0.491163 0.769942
O O16 0.168862 0.750000 0.733741
O O17 0.129695 0.974452 0.833751
O O18 0.940771 0.250000 0.875750
O O19 0.014668 0.992271 0.906737
O O20 0.406580 0.750000 0.403663
#
# Coordination Sequence:
#
# PCOD9465910 Si02
#       8
#     8   8   8   8   8   8   8   8
#     4  11  24  41  62  90 124 159 203 253 305 365
#     4  11  23  41  64  91 122 160 205 256 306 359
#     4  11  23  38  59  91 126 159 202 254 302 359
#     4  10  22  43  65  87 119 162 204 252 309 361
#     4   9  21  41  64  91 121 156 202 253 303 359
#     4  11  21  37  65  91 119 160 201 245 301 362
#     4  11  23  39  59  87 126 167 205 246 300 366
#     4  10  21  38  60  88 124 161 199 247 299 360
#
# _framework density 23.312415000000001
#
# number of rings (size 3 to 8) (size 9 to 14) (size 15 to 20)
#    0.000    1.500    2.500    2.250    1.750    2.500 
#    0.000    3.125    0.000    0.000    0.000    0.000 
#    0.000    0.000    0.000    0.000    0.000    0.000 
#
# Total GULP energy -357831.572160 kJ/mol
# GULP energy per Si atom -5591.118315 kJ/mol
# Density = 2.325936 g / cm^3
# Si number density = 23.312415 Si / 1000 Ang^3
#
#
#
# Elastic Constant Matrix: (Units=GPa)
#
#
# Indices 1 2 3 4 5 6 
#
# 1 125.1735 -0.2142 -2.7265 0.0000 0.0000 0.0000
# 2 -0.2142 24.5608 -4.3863 0.0000 0.0000 0.0000
# 3 -2.7265 -4.3863 19.5603 0.0000 0.0000 0.0000
# 4 0.0000 0.0000 0.0000 15.5852 0.0000 0.0000
# 5 0.0000 0.0000 0.0000 0.0000 38.0173 0.0000
# 6 0.0000 0.0000 0.0000 0.0000 0.0000 27.3723
#
#
#
# Elastic Compliance Matrix: (Units=1/GPa)
#
#
# Indices 1 2 3 4 5 6 
#
# 1 0.008015 0.000281 0.001180 0.000000 0.000000 0.000000
# 2 0.000281 0.042424 0.009552 0.000000 0.000000 0.000000
# 3 0.001180 0.009552 0.053430 0.000000 0.000000 0.000000
# 4 0.000000 0.000000 0.000000 0.064164 0.000000 0.000000
# 5 0.000000 0.000000 0.000000 0.000000 0.026304 0.000000
# 6 0.000000 0.000000 0.000000 0.000000 0.000000 0.036533
#
#
# Mechanical properties :
#
#
# Convention : Reuss Voigt Hill
#
# Bulk Modulus (GPa) = 7.94308 17.18230 12.56269
# Shear Modulus (GPa) = 19.93551 27.96973 23.95262
#
# Velocity S-wave (km/s) = 2.92746 3.46754 3.20888
# Velocity P-wave (km/s) = 3.85244 4.83924 4.37376
#
# Compressibility (1/GPa) = 0.12589567
#
# Stress axis : x y z
#
# Youngs Moduli (GPa) = 124.76455 23.57172 18.71592
#
# Poissons Ratio (x) = -0.00662 -0.02209
# Poissons Ratio (y) = -0.03502 -0.17878
# Poissons Ratio (z) = -0.14724 -0.22517
#
# Static dielectric constant tensor:
#      x y z
#    x 1.897950 0.000000 0.000000 
#    y 0.000000 1.816410 0.000000 
#    z 0.000000 0.000000 1.895790 
# 
# From -- ./inp_files/24735.got.cif
#   From: 2010.05.17/outbox.cif.g08.bks.cpg/sg62_13_cif.got.tgz:24735.got - 2010.06.03 15:25:27.
