data_PCOD9465932
_publ_section_title
;
Structure prediction by ZEFSAII (Michael W. Deem and Ramdas Pophale) SiO2 
 PCOD9465932
Probable space group: P N M A
;
_chemical_formula_sum "Si O2"
_cell_formula_units_Z 24
_cell_length_a 4.851191
_cell_length_b 8.461017
_cell_length_c 25.208899
_cell_angle_alpha 90.000000
_cell_angle_beta 90.000000
_cell_angle_gamma 90.000000
_cell_volume 1034.724708
_symmetry_space_group_name_H-M "P N M A"
_symmetry_group_IT_number 62
_symmetry_cell_setting 'orthorhombic'
loop_
_space_group_symop_operation_xyz
x,y,z
1/2-x,-y,1/2+z
1/2+x,1/2-y,1/2-z
-x,1/2+y,-z
-x,-y,-z
1/2+x,y,1/2-z
1/2-x,1/2+y,1/2+z
x,1/2-y,z
loop_
_atom_site_type_symbol
_atom_site_label
_atom_site_fract_x
_atom_site_fract_y
_atom_site_fract_z
Si Si1 0.594268 0.062297 0.284839
Si Si2 0.663317 0.432219 0.609422
Si Si3 0.153260 0.565609 0.551702
O O1 0.902526 0.028361 0.266186
O O2 0.569411 0.250000 0.296584
O O3 0.481326 0.968812 0.334833
O O4 0.745870 0.250000 0.605481
O O5 0.431030 0.473320 0.565813
O O6 0.931433 0.538001 0.598681
O O7 0.215781 0.750000 0.546090
O O8 0.000000 0.500000 0.500000
#
# Coordination Sequence:
#
# PCOD9465932 Si02
#       3
#     8   8   8
#     4  10  21  38  61  89 123 164 208 254 309 370
#     4  12  25  42  65  96 130 165 209 260 315 372
#     4  12  25  44  67  93 127 167 211 258 313 374
#
# _framework density 23.194573999999999
#
# number of rings (size 3 to 8) (size 9 to 14) (size 15 to 20)
#    0.000    0.667    0.000    9.000    0.000    4.000 
#    0.000    0.000    0.000    0.000    0.000    0.000 
#    0.000    0.000    0.000    0.000    0.000    0.000 
#
# Total GULP energy -134559.592133 kJ/mol
# GULP energy per Si atom -5606.649672 kJ/mol
# Density = 2.314178 g / cm^3
# Si number density = 23.194574 Si / 1000 Ang^3
#
#
#
# Elastic Constant Matrix: (Units=GPa)
#
#
# Indices 1 2 3 4 5 6 
#
# 1 70.1637 -16.5505 -16.5159 0.0000 0.0000 0.0000
# 2 -16.5505 74.8580 10.7828 0.0000 0.0000 0.0000
# 3 -16.5159 10.7828 69.8128 0.0000 0.0000 0.0000
# 4 0.0000 0.0000 0.0000 37.6395 0.0000 0.0000
# 5 0.0000 0.0000 0.0000 0.0000 33.1811 0.0000
# 6 0.0000 0.0000 0.0000 0.0000 0.0000 26.0441
#
#
#
# Elastic Compliance Matrix: (Units=1/GPa)
#
#
# Indices 1 2 3 4 5 6 
#
# 1 0.015729 0.003008 0.003256 0.000000 0.000000 0.000000
# 2 0.003008 0.014238 -0.001487 0.000000 0.000000 0.000000
# 3 0.003256 -0.001487 0.015324 0.000000 0.000000 0.000000
# 4 0.000000 0.000000 0.000000 0.026568 0.000000 0.000000
# 5 0.000000 0.000000 0.000000 0.000000 0.030138 0.000000
# 6 0.000000 0.000000 0.000000 0.000000 0.000000 0.038396
#
#
# Mechanical properties :
#
#
# Convention : Reuss Voigt Hill
#
# Bulk Modulus (GPa) = 18.23312 18.91860 18.57586
# Shear Modulus (GPa) = 33.53011 35.18080 34.35546
#
# Velocity S-wave (km/s) = 3.80623 3.89880 3.85279
# Velocity P-wave (km/s) = 5.21484 5.33307 5.27429
#
# Compressibility (1/GPa) = 0.05484524
#
# Stress axis : x y z
#
# Youngs Moduli (GPa) = 63.57875 70.23459 65.25658
#
# Poissons Ratio (x) = -0.21129 -0.21250
# Poissons Ratio (y) = -0.19127 0.09706
# Poissons Ratio (z) = -0.20703 0.10447
#
# Static dielectric constant tensor:
#      x y z
#    x 1.823580 0.000000 0.000000 
#    y 0.000000 1.795120 0.000000 
#    z 0.000000 0.000000 1.919360 
# 
# From -- ./inp_files/21340.got.cif
#   From: 2010.05.17/outbox.cif.g08.bks.cpg/sg62_11_cif.got.tgz:21340.got - 2010.06.03 15:25:27.
