data_PCOD9465041
_publ_section_title
;
Structure prediction by ZEFSAII (Michael W. Deem and Ramdas Pophale) SiO2 
 PCOD9465041
Probable space group: P N M A
;
_chemical_formula_sum "Si O2"
_cell_formula_units_Z 56
_cell_length_a 20.644700
_cell_length_b 15.974282
_cell_length_c 6.968347
_cell_angle_alpha 90.000000
_cell_angle_beta 90.000000
_cell_angle_gamma 90.000000
_cell_volume 2298.051156
_symmetry_space_group_name_H-M "P N M A"
_symmetry_group_IT_number 62
_symmetry_cell_setting 'orthorhombic'
loop_
_space_group_symop_operation_xyz
x,y,z
1/2-x,-y,1/2+z
1/2+x,1/2-y,1/2-z
-x,1/2+y,-z
-x,-y,-z
1/2+x,y,1/2-z
1/2-x,1/2+y,1/2+z
x,1/2-y,z
loop_
_atom_site_type_symbol
_atom_site_label
_atom_site_fract_x
_atom_site_fract_y
_atom_site_fract_z
Si Si1 0.767856 0.380491 0.590447
Si Si2 0.635277 0.154249 0.077474
Si Si3 0.908351 0.158234 0.674051
Si Si4 0.594438 0.534094 0.535137
Si Si5 0.738772 0.933556 0.528096
Si Si6 0.376299 0.842472 0.385599
Si Si7 0.499407 0.083544 0.126399
O O1 0.839381 0.345184 0.562246
O O2 0.767074 0.390679 0.821811
O O3 0.763619 0.472471 0.501836
O O4 0.698957 0.339086 0.548366
O O5 0.637074 0.250000 0.132512
O O6 0.703078 0.112558 0.133349
O O7 0.626158 0.149141 0.846522
O O8 0.572341 0.111345 0.161759
O O9 0.912882 0.250000 0.769484
O O10 0.912975 0.082441 0.830359
O O11 0.963405 0.148388 0.514225
O O12 0.666392 0.560813 0.607657
O O13 0.595605 0.432261 0.545153
O O14 0.459261 0.433211 0.318425
O O15 0.406239 0.750000 0.427964
O O16 0.500000 0.000000 0.000000
#
# Coordination Sequence:
#
# PCOD9465041 Si02
#       7
#     8   8   8   8   8   8   8
#     4   9  18  33  61  92 127 170 225 285 351 409
#     4  10  20  37  63  96 131 177 228 284 349 413
#     4  11  25  42  65  99 138 182 235 290 349 420
#     4  10  23  43  70 104 137 186 233 291 353 424
#     4   9  19  36  64  94 127 174 229 281 345 413
#     4   9  17  35  65  97 130 177 230 286 355 414
#     4  12  24  43  72  97 138 186 240 285 357 421
#
# _framework density 24.368473999999999
#
# number of rings (size 3 to 8) (size 9 to 14) (size 15 to 20)
#    0.000    2.000    1.429    1.714    4.000    5.143 
#    0.000    0.000    0.000   11.143    0.000    0.000 
#    0.000    0.000    0.000    0.000    0.000    0.000 
#
# Total GULP energy -313161.564383 kJ/mol
# GULP energy per Si atom -5592.170793 kJ/mol
# Density = 2.431301 g / cm^3
# Si number density = 24.368474 Si / 1000 Ang^3
#
#
#
# Elastic Constant Matrix: (Units=GPa)
#
#
# Indices 1 2 3 4 5 6 
#
# 1 129.6783 28.1593 39.1087 0.0000 0.0000 0.0000
# 2 28.1593 153.6778 24.5610 0.0000 0.0000 0.0000
# 3 39.1087 24.5610 104.8425 0.0000 0.0000 0.0000
# 4 0.0000 0.0000 0.0000 24.0980 0.0000 0.0000
# 5 0.0000 0.0000 0.0000 0.0000 -4.7893 0.0000
# 6 0.0000 0.0000 0.0000 0.0000 0.0000 9.4838
#
#
#
# Elastic Compliance Matrix: (Units=1/GPa)
#
#
# Indices 1 2 3 4 5 6 
#
# 1 0.008877 -0.001140 -0.003044 0.000000 0.000000 0.000000
# 2 -0.001140 0.006907 -0.001193 0.000000 0.000000 0.000000
# 3 -0.003044 -0.001193 0.010953 0.000000 0.000000 0.000000
# 4 0.000000 0.000000 0.000000 0.041497 0.000000 0.000000
# 5 0.000000 0.000000 0.000000 0.000000 -0.208797 0.000000
# 6 0.000000 0.000000 0.000000 0.000000 0.000000 0.105443
#
#
# Mechanical properties :
#
#
# Convention : Reuss Voigt Hill
#
# Bulk Modulus (GPa) = 62.56760 63.53961 63.05360
# Shear Modulus (GPa) = -262.62049 25.51647 -118.55201
#
# Velocity S-wave (km/s) = -10.39252 3.23942 -6.98250
# Velocity P-wave (km/s) = 10.87542 6.33426 6.25107
#
# Compressibility (1/GPa) = 0.01598271
#
# Stress axis : x y z
#
# Youngs Moduli (GPa) = 112.65005 144.78814 91.29822
#
# Poissons Ratio (x) = 0.16507 0.27794
# Poissons Ratio (y) = 0.12843 0.10889
# Poissons Ratio (z) = 0.34294 0.17269
#
# Static dielectric constant tensor:
#      x y z
#    x 1.917510 0.000000 0.000000 
#    y 0.000000 1.914040 0.000000 
#    z 0.000000 0.000000 2.014210 
# 
# From -- ./inp_files/8716.got.cif
#   From: 2010.05.17/outbox.cif.g08.bks.cpg/sg62_5_cif.got.tgz:8716.got - 2010.06.03 15:25:27.
