data_PCOD9465145
_publ_section_title
;
Structure prediction by ZEFSAII (Michael W. Deem and Ramdas Pophale) SiO2 
 PCOD9465145
Probable space group: P N M A
;
_chemical_formula_sum "Si O2"
_cell_formula_units_Z 44
_cell_length_a 14.492105
_cell_length_b 9.522372
_cell_length_c 14.753493
_cell_angle_alpha 90.000000
_cell_angle_beta 90.000000
_cell_angle_gamma 90.000000
_cell_volume 2035.970451
_symmetry_space_group_name_H-M "P N M A"
_symmetry_group_IT_number 62
_symmetry_cell_setting 'orthorhombic'
loop_
_space_group_symop_operation_xyz
x,y,z
1/2-x,-y,1/2+z
1/2+x,1/2-y,1/2-z
-x,1/2+y,-z
-x,-y,-z
1/2+x,y,1/2-z
1/2-x,1/2+y,1/2+z
x,1/2-y,z
loop_
_atom_site_type_symbol
_atom_site_label
_atom_site_fract_x
_atom_site_fract_y
_atom_site_fract_z
Si Si1 0.322617 0.912704 0.431333
Si Si2 0.450473 0.083061 0.297340
Si Si3 0.501015 0.250000 0.042531
Si Si4 0.379357 0.504609 0.958951
Si Si5 0.340201 0.588469 0.649119
Si Si6 0.335129 0.910801 0.161468
O O1 0.337844 0.750000 0.405294
O O2 0.216118 0.954941 0.414880
O O3 0.339537 0.921377 0.539429
O O4 0.390610 0.016206 0.378821
O O5 0.435168 0.250000 0.289420
O O6 0.557910 0.058089 0.315930
O O7 0.411899 0.003519 0.210056
O O8 0.440299 0.372105 0.988850
O O9 0.563394 0.375038 0.090574
O O10 0.351249 0.580820 0.053867
O O11 0.314296 0.750000 0.671378
O O12 0.262570 0.482176 0.682854
O O13 0.339703 0.750000 0.189681
#
# Coordination Sequence:
#
# PCOD9465145 Si02
#       6
#     8   8   4   8   8   8
#     4  10  20  38  63  88 121 152 198 255 298 350
#     4  11  24  40  61  92 120 157 202 246 300 360
#     4  10  20  38  62  90 120 158 212 240 296 364
#     4  10  21  39  61  91 121 162 201 253 299 353
#     4   9  21  42  65  87 116 159 199 244 302 353
#     4  11  23  41  61  87 123 161 197 244 304 357
#
# _framework density 21.611315000000001
#
# number of rings (size 3 to 8) (size 9 to 14) (size 15 to 20)
#    0.000    1.818    1.818    1.636    3.818    2.182 
#    6.545    0.000    0.000    0.000    0.000    0.000 
#    0.000    0.000    0.000    0.000    0.000    0.000 
#
# Total GULP energy -245082.745288 kJ/mol
# GULP energy per Si atom -5570.062393 kJ/mol
# Density = 2.156213 g / cm^3
# Si number density = 21.611315 Si / 1000 Ang^3
#
#
#
# Elastic Constant Matrix: (Units=GPa)
#
#
# Indices 1 2 3 4 5 6 
#
# 1 124.3082 93.3912 21.7011 0.0000 0.0000 0.0000
# 2 93.3912 194.1048 28.6599 0.0000 0.0000 0.0000
# 3 21.7011 28.6599 52.0989 0.0000 0.0000 0.0000
# 4 0.0000 0.0000 0.0000 30.9370 0.0000 0.0000
# 5 0.0000 0.0000 0.0000 0.0000 14.3360 0.0000
# 6 0.0000 0.0000 0.0000 0.0000 0.0000 24.0547
#
#
#
# Elastic Compliance Matrix: (Units=1/GPa)
#
#
# Indices 1 2 3 4 5 6 
#
# 1 0.012810 -0.005851 -0.002117 0.000000 0.000000 0.000000
# 2 -0.005851 0.008279 -0.002118 0.000000 0.000000 0.000000
# 3 -0.002117 -0.002118 0.021241 0.000000 0.000000 0.000000
# 4 0.000000 0.000000 0.000000 0.032324 0.000000 0.000000
# 5 0.000000 0.000000 0.000000 0.000000 0.069755 0.000000
# 6 0.000000 0.000000 0.000000 0.000000 0.000000 0.041572
#
#
# Mechanical properties :
#
#
# Convention : Reuss Voigt Hill
#
# Bulk Modulus (GPa) = 45.12776 73.11293 59.12034
# Shear Modulus (GPa) = 23.41509 28.98287 26.19898
#
# Velocity S-wave (km/s) = 3.29517 3.66607 3.48556
# Velocity P-wave (km/s) = 5.95016 7.19892 6.60412
#
# Compressibility (1/GPa) = 0.02215931
#
# Stress axis : x y z
#
# Youngs Moduli (GPa) = 78.06652 120.78088 47.07864
#
# Poissons Ratio (x) = 0.70664 0.09968
# Poissons Ratio (y) = 0.45673 0.09969
# Poissons Ratio (z) = 0.16528 0.25577
#
# Static dielectric constant tensor:
#      x y z
#    x 1.787710 0.000000 0.000000 
#    y 0.000000 1.732070 0.000000 
#    z 0.000000 0.000000 1.876450 
# 
# From -- ./inp_files/23537.got.cif
#   From: 2010.05.17/outbox.cif.g08.bks.cpg/sg62_12_cif.got.tgz:23537.got - 2010.06.03 15:25:27.
