data_PCOD9465432
_publ_section_title
;
Structure prediction by ZEFSAII (Michael W. Deem and Ramdas Pophale) SiO2 
 PCOD9465432
Probable space group: P N M A
;
_chemical_formula_sum "Si O2"
_cell_formula_units_Z 44
_cell_length_a 20.988395
_cell_length_b 11.544701
_cell_length_c 9.920016
_cell_angle_alpha 90.000000
_cell_angle_beta 90.000000
_cell_angle_gamma 90.000000
_cell_volume 2403.666945
_symmetry_space_group_name_H-M "P N M A"
_symmetry_group_IT_number 62
_symmetry_cell_setting 'orthorhombic'
loop_
_space_group_symop_operation_xyz
x,y,z
1/2-x,-y,1/2+z
1/2+x,1/2-y,1/2-z
-x,1/2+y,-z
-x,-y,-z
1/2+x,y,1/2-z
1/2-x,1/2+y,1/2+z
x,1/2-y,z
loop_
_atom_site_type_symbol
_atom_site_label
_atom_site_fract_x
_atom_site_fract_y
_atom_site_fract_z
Si Si1 0.613868 0.250000 0.202187
Si Si2 0.556302 0.617359 0.356293
Si Si3 0.568157 0.492332 0.076018
Si Si4 0.752449 0.250000 0.291061
Si Si5 0.347796 0.750000 0.494468
Si Si6 0.627949 0.617802 0.836256
Si Si7 0.913906 0.536731 0.096196
O O1 0.584650 0.364449 0.133084
O O2 0.691615 0.250000 0.193090
O O3 0.607187 0.250000 0.367661
O O4 0.574225 0.750000 0.374918
O O5 0.565830 0.575822 0.204662
O O6 0.592903 0.534139 0.458490
O O7 0.482219 0.598812 0.394448
O O8 0.500000 0.500000 0.000000
O O9 0.619269 0.541388 0.969237
O O10 0.721300 0.250000 0.439387
O O11 0.799964 0.359197 0.285038
O O12 0.362208 0.862526 0.407400
O O13 0.603476 0.750000 0.859919
O O14 0.590904 0.552457 0.718426
#
# Coordination Sequence:
#
# PCOD9465432 Si02
#       7
#     4   8   8   4   4   8   8
#     4  10  24  44  60  89 131 173 207 251 331 374
#     4  11  22  35  57  93 124 164 198 245 321 384
#     4  12  24  38  65  94 133 165 200 272 329 386
#     4   8  22  45  62  86 123 174 209 265 316 370
#     4  10  20  43  58  89 116 167 210 254 307 360
#     4  10  23  41  62  94 121 162 214 264 312 376
#     4  11  21  37  63  86 126 162 205 258 302 383
#
# _framework density 18.305365999999999
#
# number of rings (size 3 to 8) (size 9 to 14) (size 15 to 20)
#    1.091    0.364    4.545    1.091    2.545    2.182 
#    0.000    0.000    0.000    0.000    0.000    0.000 
#    0.000    0.000    0.000    0.000    0.000    0.000 
#
# Total GULP energy -245129.045924 kJ/mol
# GULP energy per Si atom -5571.114680 kJ/mol
# Density = 1.826370 g / cm^3
# Si number density = 18.305366 Si / 1000 Ang^3
#
#
#
# Elastic Constant Matrix: (Units=GPa)
#
#
# Indices 1 2 3 4 5 6 
#
# 1 40.3158 8.1985 -12.9245 0.0000 0.0000 0.0000
# 2 8.1985 92.8844 6.2573 0.0000 0.0000 0.0000
# 3 -12.9245 6.2573 71.6609 0.0000 0.0000 0.0000
# 4 0.0000 0.0000 0.0000 24.6872 0.0000 0.0000
# 5 0.0000 0.0000 0.0000 0.0000 25.3509 0.0000
# 6 0.0000 0.0000 0.0000 0.0000 0.0000 16.1358
#
#
#
# Elastic Compliance Matrix: (Units=1/GPa)
#
#
# Indices 1 2 3 4 5 6 
#
# 1 0.026996 -0.002727 0.005107 0.000000 0.000000 0.000000
# 2 -0.002727 0.011105 -0.001461 0.000000 0.000000 0.000000
# 3 0.005107 -0.001461 0.015003 0.000000 0.000000 0.000000
# 4 0.000000 0.000000 0.000000 0.040507 0.000000 0.000000
# 5 0.000000 0.000000 0.000000 0.000000 0.039446 0.000000
# 6 0.000000 0.000000 0.000000 0.000000 0.000000 0.061974
#
#
# Mechanical properties :
#
#
# Convention : Reuss Voigt Hill
#
# Bulk Modulus (GPa) = 18.20111 23.10263 20.65187
# Shear Modulus (GPa) = 23.63975 26.79010 25.21493
#
# Velocity S-wave (km/s) = 3.59752 3.82974 3.71544
# Velocity P-wave (km/s) = 5.21736 5.67485 5.45091
#
# Compressibility (1/GPa) = 0.05494171
#
# Stress axis : x y z
#
# Youngs Moduli (GPa) = 37.04267 90.04784 66.65201
#
# Poissons Ratio (x) = 0.24555 -0.34039
# Poissons Ratio (y) = 0.10101 0.09741
# Poissons Ratio (z) = -0.18918 0.13160
#
# Static dielectric constant tensor:
#      x y z
#    x 1.642250 0.000000 0.000000 
#    y 0.000000 1.607670 0.000000 
#    z 0.000000 0.000000 1.623220 
# 
# From -- ./inp_files/9275.got.cif
#   From: 2010.05.17/outbox.cif.g08.bks.cpg/sg62_5_cif.got.tgz:9275.got - 2010.06.03 15:25:27.
