data_PCOD9465711
_publ_section_title
;
Structure prediction by ZEFSAII (Michael W. Deem and Ramdas Pophale) SiO2 
 PCOD9465711
Probable space group: P N M A
;
_chemical_formula_sum "Si O2"
_cell_formula_units_Z 64
_cell_length_a 20.264297
_cell_length_b 8.832776
_cell_length_c 20.361644
_cell_angle_alpha 90.000000
_cell_angle_beta 90.000000
_cell_angle_gamma 90.000000
_cell_volume 3644.530582
_symmetry_space_group_name_H-M "P N M A"
_symmetry_group_IT_number 62
_symmetry_cell_setting 'orthorhombic'
loop_
_space_group_symop_operation_xyz
x,y,z
1/2-x,-y,1/2+z
1/2+x,1/2-y,1/2-z
-x,1/2+y,-z
-x,-y,-z
1/2+x,y,1/2-z
1/2-x,1/2+y,1/2+z
x,1/2-y,z
loop_
_atom_site_type_symbol
_atom_site_label
_atom_site_fract_x
_atom_site_fract_y
_atom_site_fract_z
Si Si1 0.677626 0.431380 0.577191
Si Si2 0.430099 0.069885 0.674246
Si Si3 0.078411 0.929858 0.326280
Si Si4 0.575928 0.431005 0.821137
Si Si5 0.572984 0.569274 0.677559
Si Si6 0.672322 0.568532 0.929260
Si Si7 0.173880 0.430210 0.075947
Si Si8 0.678701 0.069848 0.071853
O O1 0.680090 0.250000 0.584780
O O2 0.624372 0.502414 0.625575
O O3 0.660878 0.463894 0.500828
O O4 0.750102 0.499479 0.589518
O O5 0.441751 0.250000 0.671008
O O6 0.409710 0.034692 0.749444
O O7 0.499014 0.985936 0.660832
O O8 0.374360 0.019327 0.623685
O O9 0.089623 0.750000 0.335888
O O10 0.000890 0.960544 0.338384
O O11 0.125348 0.021500 0.374253
O O12 0.584179 0.250000 0.816605
O O13 0.588288 0.504042 0.749959
O O14 0.623860 0.499964 0.875403
O O15 0.575955 0.750000 0.678336
O O16 0.665532 0.750000 0.932796
O O17 0.748919 0.534837 0.912243
O O18 0.659577 0.498422 0.000933
O O19 0.164680 0.250000 0.085706
O O20 0.683941 0.250000 0.067250
#
# Coordination Sequence:
#
# PCOD9465711 Si02
#       8
#     8   8   8   8   8   8   8   8
#     4  10  21  39  59  80 111 147 184 228 276 327
#     4  10  21  37  58  82 110 145 183 225 273 326
#     4   9  20  38  56  78 110 147 184 223 273 329
#     4  10  21  38  59  83 112 145 184 228 274 327
#     4  11  22  37  58  83 112 145 183 227 274 327
#     4  10  21  38  58  81 113 149 185 227 275 327
#     4   9  20  37  57  81 109 143 182 226 273 322
#     4  11  22  36  57  84 111 143 185 230 278 329
#
# _framework density 17.560561
#
# number of rings (size 3 to 8) (size 9 to 14) (size 15 to 20)
#    0.000    2.000    0.000    5.250    0.000    8.000 
#    0.000    2.500    0.000    0.000    0.000    0.000 
#    0.000    0.000    0.000    0.000    0.000    0.000 
#
# Total GULP energy -357483.404100 kJ/mol
# GULP energy per Si atom -5585.678189 kJ/mol
# Density = 1.752059 g / cm^3
# Si number density = 17.560561 Si / 1000 Ang^3
#
#
#
# Elastic Constant Matrix: (Units=GPa)
#
#
# Indices 1 2 3 4 5 6 
#
# 1 118.1980 90.9812 115.5786 0.0000 0.0000 0.0000
# 2 90.9812 124.8442 92.7558 0.0000 0.0000 0.0000
# 3 115.5786 92.7558 127.8242 0.0000 0.0000 0.0000
# 4 0.0000 0.0000 0.0000 34.1722 0.0000 0.0000
# 5 0.0000 0.0000 0.0000 0.0000 40.2184 0.0000
# 6 0.0000 0.0000 0.0000 0.0000 0.0000 34.2054
#
#
#
# Elastic Compliance Matrix: (Units=1/GPa)
#
#
# Indices 1 2 3 4 5 6 
#
# 1 0.078046 -0.009646 -0.063569 0.000000 0.000000 0.000000
# 2 -0.009646 0.018573 -0.004755 0.000000 0.000000 0.000000
# 3 -0.063569 -0.004755 0.068753 0.000000 0.000000 0.000000
# 4 0.000000 0.000000 0.000000 0.029264 0.000000 0.000000
# 5 0.000000 0.000000 0.000000 0.000000 0.024864 0.000000
# 6 0.000000 0.000000 0.000000 0.000000 0.000000 0.029235
#
#
# Mechanical properties :
#
#
# Convention : Reuss Voigt Hill
#
# Bulk Modulus (GPa) = 106.04027 107.72197 106.88112
# Shear Modulus (GPa) = 12.26032 26.48926 19.37479
#
# Velocity S-wave (km/s) = 2.64516 3.88809 3.32522
# Velocity P-wave (km/s) = 8.35738 9.03508 8.70283
#
# Compressibility (1/GPa) = 0.00943038
#
# Stress axis : x y z
#
# Youngs Moduli (GPa) = 12.81296 53.84224 14.54481
#
# Poissons Ratio (x) = 0.51938 0.92460
# Poissons Ratio (y) = 0.12360 0.06916
# Poissons Ratio (z) = 0.81451 0.25602
#
# Static dielectric constant tensor:
#      x y z
#    x 1.571180 0.000000 0.000000 
#    y 0.000000 1.584300 0.000000 
#    z 0.000000 0.000000 1.571460 
# 
# From -- ./inp_files/27735.got.cif
#   From: 2010.05.17/outbox.cif.g08.bks.cpg/sg62_14_cif.got.tgz:27735.got - 2010.06.03 15:25:27.
