data_PCOD9465319
_publ_section_title
;
Structure prediction by ZEFSAII (Michael W. Deem and Ramdas Pophale) SiO2 
 PCOD9465319
Probable space group: P N M A
;
_chemical_formula_sum "Si O2"
_cell_formula_units_Z 64
_cell_length_a 15.340380
_cell_length_b 23.218009
_cell_length_c 9.106571
_cell_angle_alpha 90.000000
_cell_angle_beta 90.000000
_cell_angle_gamma 90.000000
_cell_volume 3243.515450
_symmetry_space_group_name_H-M "P N M A"
_symmetry_group_IT_number 62
_symmetry_cell_setting 'orthorhombic'
loop_
_space_group_symop_operation_xyz
x,y,z
1/2-x,-y,1/2+z
1/2+x,1/2-y,1/2-z
-x,1/2+y,-z
-x,-y,-z
1/2+x,y,1/2-z
1/2-x,1/2+y,1/2+z
x,1/2-y,z
loop_
_atom_site_type_symbol
_atom_site_label
_atom_site_fract_x
_atom_site_fract_y
_atom_site_fract_z
Si Si1 0.780844 0.578176 0.139200
Si Si2 0.066850 0.435203 0.657176
Si Si3 0.613365 0.500334 0.139193
Si Si4 0.509114 0.682265 0.619809
Si Si5 0.490172 0.685116 0.269515
Si Si6 0.310959 0.182483 0.217882
Si Si7 0.349194 0.893445 0.677303
Si Si8 0.682091 0.686118 0.133151
O O1 0.852519 0.546836 0.238709
O O2 0.696265 0.539949 0.102343
O O3 0.740248 0.636726 0.205721
O O4 0.828249 0.600705 0.994151
O O5 0.089199 0.458563 0.496137
O O6 0.058501 0.366912 0.687666
O O7 0.971416 0.462740 0.685730
O O8 0.640989 0.457625 0.266734
O O9 0.492484 0.750000 0.649136
O O10 0.500045 0.674103 0.444246
O O11 0.604202 0.668970 0.685443
O O12 0.437203 0.642663 0.695769
O O13 0.453438 0.750000 0.250379
O O14 0.587276 0.685596 0.203842
O O15 0.289041 0.250000 0.240619
O O16 0.230309 0.140990 0.250843
O O17 0.328898 0.175653 0.042519
O O18 0.720950 0.750000 0.149236
#
# Coordination Sequence:
#
# PCOD9465319 Si02
#       8
#     8   8   8   8   8   8   8   8
#     4  11  22  42  64  89 124 164 210 256 312 365
#     4  11  24  44  64  90 125 167 208 262 310 367
#     4  11  26  42  62  88 127 166 213 258 303 364
#     4  10  21  38  63  94 127 159 200 256 311 371
#     4  10  20  39  65  93 123 157 201 256 316 371
#     4   9  20  38  62  91 126 161 196 249 311 372
#     4  11  23  39  62  92 119 165 208 254 306 371
#     4   9  19  36  65  94 123 160 201 252 312 372
#
# _framework density 19.731676
#
# number of rings (size 3 to 8) (size 9 to 14) (size 15 to 20)
#    0.000    1.750    2.500    1.125    1.750    4.500 
#    2.250    0.625    0.000    0.000    0.000    0.000 
#    0.000    0.000    0.000    0.000    0.000    0.000 
#
# Total GULP energy -357085.934684 kJ/mol
# GULP energy per Si atom -5579.467729 kJ/mol
# Density = 1.968677 g / cm^3
# Si number density = 19.731676 Si / 1000 Ang^3
#
#
#
# Elastic Constant Matrix: (Units=GPa)
#
#
# Indices 1 2 3 4 5 6 
#
# 1 81.6812 40.4710 15.2709 0.0000 0.0000 0.0000
# 2 40.4710 77.6710 20.6885 0.0000 0.0000 0.0000
# 3 15.2709 20.6885 15.6190 0.0000 0.0000 0.0000
# 4 0.0000 0.0000 0.0000 27.4446 0.0000 0.0000
# 5 0.0000 0.0000 0.0000 0.0000 29.0052 0.0000
# 6 0.0000 0.0000 0.0000 0.0000 0.0000 5.6659
#
#
#
# Elastic Compliance Matrix: (Units=1/GPa)
#
#
# Indices 1 2 3 4 5 6 
#
# 1 0.017065 -0.006872 -0.007582 0.000000 0.000000 0.000000
# 2 -0.006872 0.022661 -0.023297 0.000000 0.000000 0.000000
# 3 -0.007582 -0.023297 0.102296 0.000000 0.000000 0.000000
# 4 0.000000 0.000000 0.000000 0.036437 0.000000 0.000000
# 5 0.000000 0.000000 0.000000 0.000000 0.034477 0.000000
# 6 0.000000 0.000000 0.000000 0.000000 0.000000 0.176496
#
#
# Mechanical properties :
#
#
# Convention : Reuss Voigt Hill
#
# Bulk Modulus (GPa) = 15.03315 36.42579 25.72947
# Shear Modulus (GPa) = 10.26466 18.99252 14.62859
#
# Velocity S-wave (km/s) = 2.28329 3.10585 2.72578
# Velocity P-wave (km/s) = 3.81923 5.60021 4.79317
#
# Compressibility (1/GPa) = 0.06651967
#
# Stress axis : x y z
#
# Youngs Moduli (GPa) = 58.59822 44.12829 9.77555
#
# Poissons Ratio (x) = 0.30327 0.07412
# Poissons Ratio (y) = 0.40272 0.22774
# Poissons Ratio (z) = 0.44429 1.02806
#
# Static dielectric constant tensor:
#      x y z
#    x 1.691620 0.000000 0.000000 
#    y 0.000000 1.709760 0.000000 
#    z 0.000000 0.000000 1.673250 
# 
# From -- ./inp_files/6958.got.cif
#   From: 2010.05.17/outbox.cif.g08.bks.cpg/sg62_4_cif.got.tgz:6958.got - 2010.06.03 15:25:27.
