data_PCOD9465184
_publ_section_title
;
Structure prediction by ZEFSAII (Michael W. Deem and Ramdas Pophale) SiO2 
 PCOD9465184
Probable space group: P N M A
;
_chemical_formula_sum "Si O2"
_cell_formula_units_Z 64
_cell_length_a 15.957505
_cell_length_b 22.826119
_cell_length_c 8.909686
_cell_angle_alpha 90.000000
_cell_angle_beta 90.000000
_cell_angle_gamma 90.000000
_cell_volume 3245.334487
_symmetry_space_group_name_H-M "P N M A"
_symmetry_group_IT_number 62
_symmetry_cell_setting 'orthorhombic'
loop_
_space_group_symop_operation_xyz
x,y,z
1/2-x,-y,1/2+z
1/2+x,1/2-y,1/2-z
-x,1/2+y,-z
-x,-y,-z
1/2+x,y,1/2-z
1/2-x,1/2+y,1/2+z
x,1/2-y,z
loop_
_atom_site_type_symbol
_atom_site_label
_atom_site_fract_x
_atom_site_fract_y
_atom_site_fract_z
Si Si1 0.843123 0.817800 0.099480
Si Si2 0.034560 0.634142 0.556282
Si Si3 0.333754 0.977121 0.711372
Si Si4 0.419480 0.585086 0.181963
Si Si5 0.577537 0.584779 0.383983
Si Si6 0.652650 0.815232 0.179233
Si Si7 0.542197 0.127550 0.354612
Si Si8 0.166129 0.526991 0.551620
O O1 0.860800 0.750000 0.140090
O O2 0.877254 0.865142 0.217616
O O3 0.742938 0.825504 0.103296
O O4 0.892000 0.832892 0.946357
O O5 0.083224 0.678708 0.449657
O O6 0.095565 0.577185 0.562940
O O7 0.951304 0.613985 0.470424
O O8 0.006705 0.656499 0.717328
O O9 0.405428 0.927950 0.707609
O O10 0.250192 0.951991 0.634609
O O11 0.362741 0.029487 0.600843
O O12 0.322837 0.006026 0.877441
O O13 0.503711 0.565895 0.269017
O O14 0.363151 0.529901 0.144361
O O15 0.628479 0.637041 0.304055
O O16 0.528849 0.605171 0.530504
O O17 0.652392 0.750000 0.244265
#
# Coordination Sequence:
#
# PCOD9465184 Si02
#       8
#     8   8   8   8   8   8   8   8
#     4  10  23  44  66  89 121 159 207 257 305 367
#     4  11  22  40  59  90 126 164 199 255 304 364
#     4  12  24  38  58  91 128 170 200 252 305 367
#     4  10  20  38  64  84 118 162 206 250 299 366
#     4  10  22  38  61  87 121 160 207 248 304 367
#     4  10  21  42  67  88 117 162 209 254 306 366
#     4  11  24  38  61  91 124 161 204 253 307 359
#     4  12  24  37  60  89 132 166 207 250 308 366
#
# _framework density 19.720618000000002
#
# number of rings (size 3 to 8) (size 9 to 14) (size 15 to 20)
#    0.000    1.250    3.750    3.000    5.250    5.000 
#    0.000    0.000    0.000    3.000    0.000    0.000 
#    0.000    0.000    0.000    0.000    0.000    0.000 
#
# Total GULP energy -357464.214378 kJ/mol
# GULP energy per Si atom -5585.378350 kJ/mol
# Density = 1.967573 g / cm^3
# Si number density = 19.720618 Si / 1000 Ang^3
#
#
#
# Elastic Constant Matrix: (Units=GPa)
#
#
# Indices 1 2 3 4 5 6 
#
# 1 53.1973 19.1233 7.5418 0.0000 0.0000 0.0000
# 2 19.1233 60.6412 -10.9768 0.0000 0.0000 0.0000
# 3 7.5418 -10.9768 52.3279 0.0000 0.0000 0.0000
# 4 0.0000 0.0000 0.0000 18.2631 0.0000 0.0000
# 5 0.0000 0.0000 0.0000 0.0000 8.9760 0.0000
# 6 0.0000 0.0000 0.0000 0.0000 0.0000 1.0683
#
#
#
# Elastic Compliance Matrix: (Units=1/GPa)
#
#
# Indices 1 2 3 4 5 6 
#
# 1 0.022341 -0.007929 -0.004883 0.000000 0.000000 0.000000
# 2 -0.007929 0.019955 0.005329 0.000000 0.000000 0.000000
# 3 -0.004883 0.005329 0.020932 0.000000 0.000000 0.000000
# 4 0.000000 0.000000 0.000000 0.054755 0.000000 0.000000
# 5 0.000000 0.000000 0.000000 0.000000 0.111408 0.000000
# 6 0.000000 0.000000 0.000000 0.000000 0.000000 0.936075
#
#
# Mechanical properties :
#
#
# Convention : Reuss Voigt Hill
#
# Bulk Modulus (GPa) = 20.72055 21.94921 21.33488
# Shear Modulus (GPa) = 4.17878 15.69334 9.93606
#
# Velocity S-wave (km/s) = 1.45725 2.82402 2.24708
# Velocity P-wave (km/s) = 3.65531 4.66773 4.19220
#
# Compressibility (1/GPa) = 0.04826127
#
# Stress axis : x y z
#
# Youngs Moduli (GPa) = 44.76168 50.11162 47.77397
#
# Poissons Ratio (x) = 0.39734 0.23329
# Poissons Ratio (y) = 0.35492 -0.25458
# Poissons Ratio (z) = 0.21858 -0.26704
#
# Static dielectric constant tensor:
#      x y z
#    x 1.704020 0.000000 0.000000 
#    y 0.000000 1.680880 0.000000 
#    z 0.000000 0.000000 1.699690 
# 
# From -- ./inp_files/6950.got.cif
#   From: 2010.05.17/outbox.cif.g08.bks.cpg/sg62_4_cif.got.tgz:6950.got - 2010.06.03 15:25:27.
