data_PCOD9465921
_publ_section_title
;
Structure prediction by ZEFSAII (Michael W. Deem and Ramdas Pophale) SiO2 
 PCOD9465921
Probable space group: P N M A
;
_chemical_formula_sum "Si O2"
_cell_formula_units_Z 64
_cell_length_a 26.635900
_cell_length_b 8.608499
_cell_length_c 15.121605
_cell_angle_alpha 90.000000
_cell_angle_beta 90.000000
_cell_angle_gamma 90.000000
_cell_volume 3467.310211
_symmetry_space_group_name_H-M "P N M A"
_symmetry_group_IT_number 62
_symmetry_cell_setting 'orthorhombic'
loop_
_space_group_symop_operation_xyz
x,y,z
1/2-x,-y,1/2+z
1/2+x,1/2-y,1/2-z
-x,1/2+y,-z
-x,-y,-z
1/2+x,y,1/2-z
1/2-x,1/2+y,1/2+z
x,1/2-y,z
loop_
_atom_site_type_symbol
_atom_site_label
_atom_site_fract_x
_atom_site_fract_y
_atom_site_fract_z
Si Si1 0.214431 0.561437 0.002033
Si Si2 0.500301 0.935398 0.100333
Si Si3 0.866839 0.063577 0.854551
Si Si4 0.105541 0.063859 0.334080
Si Si5 0.829319 0.938029 0.494650
Si Si6 0.368375 0.062095 0.363893
Si Si7 0.604838 0.563810 0.834136
Si Si8 0.555752 0.065008 0.494151
O O1 0.215566 0.750000 0.002549
O O2 0.181726 0.513796 0.087603
O O3 0.271639 0.507618 0.003033
O O4 0.182724 0.516012 0.914905
O O5 0.499804 0.750000 0.096515
O O6 0.550595 0.993052 0.148704
O O7 0.450346 0.994650 0.149138
O O8 0.500000 0.000000 0.000000
O O9 0.866798 0.250000 0.849671
O O10 0.870914 0.993522 0.757478
O O11 0.914534 0.008090 0.911535
O O12 0.101072 0.250000 0.332809
O O13 0.140984 0.018974 0.416315
O O14 0.829744 0.750000 0.488843
O O15 0.859027 0.004879 0.411492
O O16 0.372577 0.250000 0.370797
O O17 0.373179 0.019257 0.261634
O O18 0.413247 0.987007 0.419594
O O19 0.601192 0.750000 0.837719
O O20 0.555383 0.250000 0.486169
O O21 0.500000 0.000000 0.500000
#
# Coordination Sequence:
#
# PCOD9465921 Si02
#       8
#     8   8   8   8   8   8   8   8
#     4   8  17  38  63  85 115 156 197 243 298 349
#     4  12  24  40  61  84 119 158 198 245 301 356
#     4  10  21  39  61  85 118 157 198 244 298 350
#     4  11  23  38  59  89 122 158 202 244 295 356
#     4  10  21  38  61  86 117 157 200 246 297 350
#     4   9  20  39  60  84 117 154 194 240 292 349
#     4  11  23  38  60  89 121 155 199 245 295 357
#     4  11  22  37  58  84 116 151 194 242 294 355
#
# _framework density 18.458112
#
# number of rings (size 3 to 8) (size 9 to 14) (size 15 to 20)
#    0.000    1.750    1.250    4.125    1.750    2.500 
#    0.000    4.375    0.000    0.000    0.000    0.000 
#    0.000    0.000    0.000    0.000    0.000    0.000 
#
# Total GULP energy -357550.222188 kJ/mol
# GULP energy per Si atom -5586.722222 kJ/mol
# Density = 1.841610 g / cm^3
# Si number density = 18.458112 Si / 1000 Ang^3
#
#
#
# Elastic Constant Matrix: (Units=GPa)
#
#
# Indices 1 2 3 4 5 6 
#
# 1 187.7865 42.8755 93.6824 0.0000 0.0000 0.0000
# 2 42.8755 51.2046 47.8999 0.0000 0.0000 0.0000
# 3 93.6824 47.8999 181.2222 0.0000 0.0000 0.0000
# 4 0.0000 0.0000 0.0000 28.2940 0.0000 0.0000
# 5 0.0000 0.0000 0.0000 0.0000 -0.7056 0.0000
# 6 0.0000 0.0000 0.0000 0.0000 0.0000 22.9797
#
#
#
# Elastic Compliance Matrix: (Units=1/GPa)
#
#
# Indices 1 2 3 4 5 6 
#
# 1 0.007643 -0.003592 -0.003002 0.000000 0.000000 0.000000
# 2 -0.003592 0.027632 -0.005447 0.000000 0.000000 0.000000
# 3 -0.003002 -0.005447 0.008509 0.000000 0.000000 0.000000
# 4 0.000000 0.000000 0.000000 0.035343 0.000000 0.000000
# 5 0.000000 0.000000 0.000000 0.000000 -1.417293 0.000000
# 6 0.000000 0.000000 0.000000 0.000000 0.000000 0.043517
#
#
# Mechanical properties :
#
#
# Convention : Reuss Voigt Hill
#
# Bulk Modulus (GPa) = 50.75079 87.68099 69.21589
# Shear Modulus (GPa) = -3.95570 25.83065 10.93748
#
# Velocity S-wave (km/s) = -1.46551 3.74494 2.43689
# Velocity P-wave (km/s) = 4.96902 8.14280 6.74524
#
# Compressibility (1/GPa) = 0.01970413
#
# Stress axis : x y z
#
# Youngs Moduli (GPa) = 130.84502 36.18950 117.51673
#
# Poissons Ratio (x) = 0.12998 0.35273
# Poissons Ratio (y) = 0.46995 0.64011
# Poissons Ratio (z) = 0.39273 0.19712
#
# Static dielectric constant tensor:
#      x y z
#    x 1.629060 0.000000 0.000000 
#    y 0.000000 1.624690 0.000000 
#    z 0.000000 0.000000 1.618890 
# 
# From -- ./inp_files/20940.got.cif
#   From: 2010.05.17/outbox.cif.g08.bks.cpg/sg62_11_cif.got.tgz:20940.got - 2010.06.03 15:25:27.
