data_PCOD9465168
_publ_section_title
;
Structure prediction by ZEFSAII (Michael W. Deem and Ramdas Pophale) SiO2 
 PCOD9465168
Probable space group: P N M A
;
_chemical_formula_sum "Si O2"
_cell_formula_units_Z 56
_cell_length_a 14.506722
_cell_length_b 11.646392
_cell_length_c 16.433805
_cell_angle_alpha 90.000000
_cell_angle_beta 90.000000
_cell_angle_gamma 90.000000
_cell_volume 2776.507313
_symmetry_space_group_name_H-M "P N M A"
_symmetry_group_IT_number 62
_symmetry_cell_setting 'orthorhombic'
loop_
_space_group_symop_operation_xyz
x,y,z
1/2-x,-y,1/2+z
1/2+x,1/2-y,1/2-z
-x,1/2+y,-z
-x,-y,-z
1/2+x,y,1/2-z
1/2-x,1/2+y,1/2+z
x,1/2-y,z
loop_
_atom_site_type_symbol
_atom_site_label
_atom_site_fract_x
_atom_site_fract_y
_atom_site_fract_z
Si Si1 0.614813 0.880822 0.794415
Si Si2 0.459647 0.119965 0.959561
Si Si3 0.228736 0.121969 0.341041
Si Si4 0.990623 0.122051 0.889214
Si Si5 0.363429 0.463007 0.472753
Si Si6 0.438698 0.034977 0.783466
Si Si7 0.724457 0.619228 0.944856
O O1 0.592118 0.750000 0.818310
O O2 0.685668 0.878614 0.720795
O O3 0.670724 0.935896 0.869198
O O4 0.521148 0.943952 0.776064
O O5 0.494275 0.250000 0.985057
O O6 0.465780 0.110447 0.862192
O O7 0.351868 0.119332 0.984342
O O8 0.500000 0.000000 0.000000
O O9 0.187539 0.250000 0.342167
O O10 0.278028 0.095174 0.426537
O O11 0.154205 0.030953 0.309677
O O12 0.031207 0.250000 0.883841
O O13 0.938216 0.096079 0.804321
O O14 0.922944 0.115122 0.967050
O O15 0.068986 0.027762 0.909524
O O16 0.316803 0.557818 0.529991
O O17 0.747017 0.750000 0.922410
#
# Coordination Sequence:
#
# PCOD9465168 Si02
#       7
#     8   8   8   8   8   8   8
#     4  10  21  38  61  93 130 165 211 273 326 391
#     4  11  23  39  63  93 132 172 216 266 329 399
#     4  11  23  39  63  96 129 167 219 273 331 398
#     4  11  25  43  65  93 128 172 221 271 330 402
#     4  11  22  43  66  91 128 170 217 270 326 397
#     4  12  22  41  65  94 133 174 219 271 343 395
#     4  10  20  38  63  90 124 163 208 263 323 395
#
# _framework density 20.169224
#
# number of rings (size 3 to 8) (size 9 to 14) (size 15 to 20)
#    0.000    1.143    4.286    2.571    0.000    0.571 
#    0.000    1.429    0.000    0.000    0.000    0.000 
#    0.000    0.000    0.000    0.000    0.000    0.000 
#
# Total GULP energy -312269.581170 kJ/mol
# GULP energy per Si atom -5576.242521 kJ/mol
# Density = 2.012332 g / cm^3
# Si number density = 20.169224 Si / 1000 Ang^3
#
#
#
# Elastic Constant Matrix: (Units=GPa)
#
#
# Indices 1 2 3 4 5 6 
#
# 1 54.5164 20.2296 2.9482 0.0000 0.0000 0.0000
# 2 20.2296 94.4506 27.3621 0.0000 0.0000 0.0000
# 3 2.9482 27.3621 93.2543 0.0000 0.0000 0.0000
# 4 0.0000 0.0000 0.0000 20.3063 0.0000 0.0000
# 5 0.0000 0.0000 0.0000 0.0000 32.6321 0.0000
# 6 0.0000 0.0000 0.0000 0.0000 0.0000 24.3607
#
#
#
# Elastic Compliance Matrix: (Units=1/GPa)
#
#
# Indices 1 2 3 4 5 6 
#
# 1 0.019966 -0.004474 0.000681 0.000000 0.000000 0.000000
# 2 -0.004474 0.012574 -0.003548 0.000000 0.000000 0.000000
# 3 0.000681 -0.003548 0.011743 0.000000 0.000000 0.000000
# 4 0.000000 0.000000 0.000000 0.049246 0.000000 0.000000
# 5 0.000000 0.000000 0.000000 0.000000 0.030645 0.000000
# 6 0.000000 0.000000 0.000000 0.000000 0.000000 0.041050
#
#
# Mechanical properties :
#
#
# Convention : Reuss Voigt Hill
#
# Bulk Modulus (GPa) = 33.78113 38.14455 35.96284
# Shear Modulus (GPa) = 26.34756 28.23856 27.29306
#
# Velocity S-wave (km/s) = 3.61823 3.74583 3.68258
# Velocity P-wave (km/s) = 5.85155 6.13690 5.99593
#
# Compressibility (1/GPa) = 0.02960232
#
# Stress axis : x y z
#
# Youngs Moduli (GPa) = 50.08419 79.53197 85.15854
#
# Poissons Ratio (x) = 0.35581 -0.05803
# Poissons Ratio (y) = 0.22407 0.30213
# Poissons Ratio (z) = -0.03413 0.28216
#
# Static dielectric constant tensor:
#      x y z
#    x 1.684180 0.000000 0.000000 
#    y 0.000000 1.778990 0.000000 
#    z 0.000000 0.000000 1.761690 
# 
# From -- ./inp_files/19030.got.cif
#   From: 2010.05.17/outbox.cif.g08.bks.cpg/sg62_10_cif.got.tgz:19030.got - 2010.06.03 15:25:27.
