data_PCOD9465886
_publ_section_title
;
Structure prediction by ZEFSAII (Michael W. Deem and Ramdas Pophale) SiO2 
 PCOD9465886
Probable space group: P N M A
;
_chemical_formula_sum "Si O2"
_cell_formula_units_Z 48
_cell_length_a 10.927824
_cell_length_b 7.645399
_cell_length_c 24.135972
_cell_angle_alpha 90.000000
_cell_angle_beta 90.000000
_cell_angle_gamma 90.000000
_cell_volume 2016.501923
_symmetry_space_group_name_H-M "P N M A"
_symmetry_group_IT_number 62
_symmetry_cell_setting 'orthorhombic'
loop_
_space_group_symop_operation_xyz
x,y,z
1/2-x,-y,1/2+z
1/2+x,1/2-y,1/2-z
-x,1/2+y,-z
-x,-y,-z
1/2+x,y,1/2-z
1/2-x,1/2+y,1/2+z
x,1/2-y,z
loop_
_atom_site_type_symbol
_atom_site_label
_atom_site_fract_x
_atom_site_fract_y
_atom_site_fract_z
Si Si1 0.746324 0.539183 0.089724
Si Si2 0.360517 0.543094 0.798749
Si Si3 0.746799 0.948669 0.370738
Si Si4 0.491778 0.039627 0.565820
Si Si5 0.131410 0.957262 0.522996
Si Si6 0.875852 0.450020 0.261243
O O1 0.740831 0.750000 0.090988
O O2 0.649957 0.474769 0.134974
O O3 0.886040 0.481241 0.097875
O O4 0.718793 0.484675 0.026890
O O5 0.359620 0.750000 0.785902
O O6 0.487555 0.473332 0.772136
O O7 0.230113 0.467385 0.777413
O O8 0.721385 0.750000 0.351795
O O9 0.626666 0.025605 0.400888
O O10 0.843218 0.946678 0.420380
O O11 0.806603 0.049567 0.320260
O O12 0.486198 0.250000 0.568542
O O13 0.500000 0.000000 0.500000
O O14 0.146248 0.750000 0.532013
O O15 0.000000 0.000000 0.500000
O O16 0.894705 0.250000 0.242226
#
# Coordination Sequence:
#
# PCOD9465886 Si02
#       6
#     8   8   8   8   8   8
#     4  10  22  39  59  86 121 157 196 245 301 358
#     4  10  23  42  64  90 118 155 202 252 303 362
#     4  11  23  38  60  90 122 157 201 249 303 366
#     4  10  21  38  59  89 124 158 201 247 297 359
#     4  11  22  37  59  86 120 159 199 246 303 365
#     4  10  23  43  64  89 121 157 202 253 308 364
#
# _framework density 23.803595999999999
#
# number of rings (size 3 to 8) (size 9 to 14) (size 15 to 20)
#    0.000    1.667    1.667    2.000    2.333    6.667 
#    0.000    0.000    0.000    0.000    0.000    0.000 
#    0.000    0.000    0.000    0.000    0.000    0.000 
#
# Total GULP energy -268057.574934 kJ/mol
# GULP energy per Si atom -5584.532811 kJ/mol
# Density = 2.374942 g / cm^3
# Si number density = 23.803596 Si / 1000 Ang^3
#
#
#
# Elastic Constant Matrix: (Units=GPa)
#
#
# Indices 1 2 3 4 5 6 
#
# 1 102.6824 1.8070 -2.1420 0.0000 0.0000 0.0000
# 2 1.8070 55.3955 -2.7917 0.0000 0.0000 0.0000
# 3 -2.1420 -2.7917 59.7745 0.0000 0.0000 0.0000
# 4 0.0000 0.0000 0.0000 20.4403 0.0000 0.0000
# 5 0.0000 0.0000 0.0000 0.0000 38.9818 0.0000
# 6 0.0000 0.0000 0.0000 0.0000 0.0000 10.3589
#
#
#
# Elastic Compliance Matrix: (Units=1/GPa)
#
#
# Indices 1 2 3 4 5 6 
#
# 1 0.009751 -0.000301 0.000335 0.000000 0.000000 0.000000
# 2 -0.000301 0.018104 0.000835 0.000000 0.000000 0.000000
# 3 0.000335 0.000835 0.016781 0.000000 0.000000 0.000000
# 4 0.000000 0.000000 0.000000 0.048923 0.000000 0.000000
# 5 0.000000 0.000000 0.000000 0.000000 0.025653 0.000000
# 6 0.000000 0.000000 0.000000 0.000000 0.000000 0.096535
#
#
# Mechanical properties :
#
#
# Convention : Reuss Voigt Hill
#
# Bulk Modulus (GPa) = 21.56414 23.51102 22.53758
# Shear Modulus (GPa) = 21.78964 28.68814 25.23889
#
# Velocity S-wave (km/s) = 3.02883 3.47537 3.25975
# Velocity P-wave (km/s) = 4.61634 5.09929 4.86381
#
# Compressibility (1/GPa) = 0.04637328
#
# Stress axis : x y z
#
# Youngs Moduli (GPa) = 102.55294 55.23677 59.59283
#
# Poissons Ratio (x) = 0.01664 -0.01999
# Poissons Ratio (y) = 0.03089 -0.04974
# Poissons Ratio (z) = -0.03439 -0.04611
#
# Static dielectric constant tensor:
#      x y z
#    x 1.990520 0.000000 0.000000 
#    y 0.000000 1.869980 0.000000 
#    z 0.000000 0.000000 1.886700 
# 
# From -- ./inp_files/29227.got.cif
#   From: 2010.05.17/outbox.cif.g08.bks.cpg/sg62_15_cif.got.tgz:29227.got - 2010.06.03 15:25:27.
