data_PCOD9465188
_publ_section_title
;
Structure prediction by ZEFSAII (Michael W. Deem and Ramdas Pophale) SiO2 
 PCOD9465188
Probable space group: P N M A
;
_chemical_formula_sum "Si O2"
_cell_formula_units_Z 60
_cell_length_a 5.172153
_cell_length_b 17.636480
_cell_length_c 28.392396
_cell_angle_alpha 90.000000
_cell_angle_beta 90.000000
_cell_angle_gamma 90.000000
_cell_volume 2589.913846
_symmetry_space_group_name_H-M "P N M A"
_symmetry_group_IT_number 62
_symmetry_cell_setting 'orthorhombic'
loop_
_space_group_symop_operation_xyz
x,y,z
1/2-x,-y,1/2+z
1/2+x,1/2-y,1/2-z
-x,1/2+y,-z
-x,-y,-z
1/2+x,y,1/2-z
1/2-x,1/2+y,1/2+z
x,1/2-y,z
loop_
_atom_site_type_symbol
_atom_site_label
_atom_site_fract_x
_atom_site_fract_y
_atom_site_fract_z
Si Si1 0.700369 0.336786 0.908487
Si Si2 0.238303 0.250000 0.218016
Si Si3 0.780049 0.163049 0.017937
Si Si4 0.359174 0.036619 0.927555
Si Si5 0.760898 0.429930 0.467898
Si Si6 0.296341 0.164574 0.780760
Si Si7 0.983204 0.952126 0.154213
Si Si8 0.288301 0.581695 0.717177
O O1 0.683597 0.250000 0.894262
O O2 0.422303 0.376156 0.915654
O O3 0.821002 0.340657 0.961152
O O4 0.848514 0.387147 0.870862
O O5 0.025767 0.250000 0.260059
O O6 0.198395 0.332981 0.194836
O O7 0.790199 0.250000 0.031967
O O8 0.003805 0.115264 0.042292
O O9 0.500699 0.128207 0.028203
O O10 0.184251 0.006857 0.886093
O O11 0.632550 0.993600 0.932813
O O12 0.241274 0.033477 0.979758
O O13 0.588707 0.159863 0.762055
O O14 0.260594 0.250000 0.801349
O O15 0.215370 0.094362 0.812840
O O16 0.152725 0.013118 0.182039
O O17 0.012928 0.575953 0.743121
#
# Coordination Sequence:
#
# PCOD9465188 Si02
#       8
#     8   4   8   8   8   8   8   8
#     4  10  23  38  57  89 124 162 212 264 308 357
#     4   8  16  36  62  90 114 146 192 246 304 354
#     4  10  20  38  64  90 119 161 212 259 308 373
#     4  10  24  37  61  86 124 166 207 263 316 372
#     4  10  21  40  62  88 124 162 211 255 320 376
#     4  10  23  41  58  80 119 168 207 250 308 363
#     4  12  23  37  60  92 122 164 208 258 309 373
#     4  10  22  39  65  93 122 159 203 256 309 375
#
# _framework density 23.166791
#
# number of rings (size 3 to 8) (size 9 to 14) (size 15 to 20)
#    0.000    1.867    1.333    1.600    5.600    3.200 
#    0.000    0.000    2.933    0.000    0.000    0.000 
#    0.000    0.000    0.000    0.000    0.000    0.000 
#
# Total GULP energy -335703.146552 kJ/mol
# GULP energy per Si atom -5595.052443 kJ/mol
# Density = 2.311406 g / cm^3
# Si number density = 23.166791 Si / 1000 Ang^3
#
#
#
# Elastic Constant Matrix: (Units=GPa)
#
#
# Indices 1 2 3 4 5 6 
#
# 1 75.5122 18.8312 12.1626 0.0000 0.0000 0.0000
# 2 18.8312 163.1505 39.0002 0.0000 0.0000 0.0000
# 3 12.1626 39.0002 45.1617 0.0000 0.0000 0.0000
# 4 0.0000 0.0000 0.0000 30.4790 0.0000 0.0000
# 5 0.0000 0.0000 0.0000 0.0000 27.0461 0.0000
# 6 0.0000 0.0000 0.0000 0.0000 0.0000 31.2867
#
#
#
# Elastic Compliance Matrix: (Units=1/GPa)
#
#
# Indices 1 2 3 4 5 6 
#
# 1 0.013947 -0.000897 -0.002981 0.000000 0.000000 0.000000
# 2 -0.000897 0.007781 -0.006478 0.000000 0.000000 0.000000
# 3 -0.002981 -0.006478 0.028540 0.000000 0.000000 0.000000
# 4 0.000000 0.000000 0.000000 0.032809 0.000000 0.000000
# 5 0.000000 0.000000 0.000000 0.000000 0.036974 0.000000
# 6 0.000000 0.000000 0.000000 0.000000 0.000000 0.031962
#
#
# Mechanical properties :
#
#
# Convention : Reuss Voigt Hill
#
# Bulk Modulus (GPa) = 33.83537 47.09028 40.46282
# Shear Modulus (GPa) = 27.38542 32.01773 29.70157
#
# Velocity S-wave (km/s) = 3.44190 3.72163 3.58449
# Velocity P-wave (km/s) = 5.51655 6.23202 5.88517
#
# Compressibility (1/GPa) = 0.02955487
#
# Stress axis : x y z
#
# Youngs Moduli (GPa) = 71.70095 128.51109 35.03864
#
# Poissons Ratio (x) = 0.11529 0.10446
# Poissons Ratio (y) = 0.06432 0.22699
# Poissons Ratio (z) = 0.21377 0.83252
#
# Static dielectric constant tensor:
#      x y z
#    x 1.886710 0.000000 0.000000 
#    y 0.000000 1.902100 0.000000 
#    z 0.000000 0.000000 1.890800 
# 
# From -- ./inp_files/30508.got.cif
#   From: 2010.05.17/outbox.cif.g08.bks.cpg/sg62_16_cif.got.tgz:30508.got - 2010.06.03 15:25:27.
