data_PCOD9465896
_publ_section_title
;
Structure prediction by ZEFSAII (Michael W. Deem and Ramdas Pophale) SiO2 
 PCOD9465896
Probable space group: P N M A
;
_chemical_formula_sum "Si O2"
_cell_formula_units_Z 64
_cell_length_a 26.512521
_cell_length_b 8.680498
_cell_length_c 15.123833
_cell_angle_alpha 90.000000
_cell_angle_beta 90.000000
_cell_angle_gamma 90.000000
_cell_volume 3480.627443
_symmetry_space_group_name_H-M "P N M A"
_symmetry_group_IT_number 62
_symmetry_cell_setting 'orthorhombic'
loop_
_space_group_symop_operation_xyz
x,y,z
1/2-x,-y,1/2+z
1/2+x,1/2-y,1/2-z
-x,1/2+y,-z
-x,-y,-z
1/2+x,y,1/2-z
1/2-x,1/2+y,1/2+z
x,1/2-y,z
loop_
_atom_site_type_symbol
_atom_site_label
_atom_site_fract_x
_atom_site_fract_y
_atom_site_fract_z
Si Si1 0.602878 0.563904 0.668216
Si Si2 0.944474 0.064825 0.503168
Si Si3 0.135274 0.935484 0.350570
Si Si4 0.001538 0.566086 0.099984
Si Si5 0.636986 0.937361 0.860349
Si Si6 0.892879 0.932693 0.836204
Si Si7 0.170189 0.934045 0.002089
Si Si8 0.781946 0.436214 0.502939
O O1 0.597208 0.750000 0.671031
O O2 0.548117 0.492009 0.651003
O O3 0.628447 0.512493 0.760060
O O4 0.638741 0.525633 0.585847
O O5 0.946326 0.250000 0.501373
O O6 0.913514 0.020880 0.590800
O O7 0.910796 0.014725 0.419680
O O8 0.000000 0.000000 0.500000
O O9 0.135222 0.750000 0.339653
O O10 0.183455 0.974584 0.411780
O O11 0.131133 0.014067 0.256215
O O12 0.001710 0.750000 0.095090
O O13 0.052559 0.509357 0.147132
O O14 0.000000 0.500000 0.000000
O O15 0.638051 0.750000 0.860162
O O16 0.686558 0.984525 0.915289
O O17 0.899017 0.750000 0.837656
O O18 0.856724 0.985942 0.915394
O O19 0.167718 0.750000 0.013545
O O20 0.227628 0.987701 0.993693
O O21 0.777052 0.250000 0.500856
#
# Coordination Sequence:
#
# PCOD9465896 Si02
#       8
#     8   8   8   8   8   8   8   8
#     4  10  21  38  60  86 117 154 196 239 292 352
#     4   9  18  33  54  81 114 151 191 238 292 345
#     4   9  20  39  59  84 121 158 196 246 298 346
#     4  12  24  40  61  86 120 156 194 241 296 354
#     4   8  17  36  59  83 113 152 194 237 288 348
#     4  12  25  40  61  87 117 158 204 247 296 355
#     4  11  23  38  59  87 121 156 195 248 299 351
#     4   9  19  39  64  86 118 159 196 243 297 351
#
# _framework density 18.38749
#
# number of rings (size 3 to 8) (size 9 to 14) (size 15 to 20)
#    0.000    2.000    1.250    4.125    1.750    2.500 
#    0.000    3.750    0.000    0.000    0.000    0.000 
#    0.000    0.000    0.000    0.000    0.000    0.000 
#
# Total GULP energy -357399.253123 kJ/mol
# GULP energy per Si atom -5584.363330 kJ/mol
# Density = 1.834564 g / cm^3
# Si number density = 18.387490 Si / 1000 Ang^3
#
#
#
# Elastic Constant Matrix: (Units=GPa)
#
#
# Indices 1 2 3 4 5 6 
#
# 1 145.2526 45.0444 64.3802 0.0000 0.0000 0.0000
# 2 45.0444 53.3879 52.5980 0.0000 0.0000 0.0000
# 3 64.3802 52.5980 159.0430 0.0000 0.0000 0.0000
# 4 0.0000 0.0000 0.0000 11.4875 0.0000 0.0000
# 5 0.0000 0.0000 0.0000 0.0000 -4.9449 0.0000
# 6 0.0000 0.0000 0.0000 0.0000 0.0000 35.0133
#
#
#
# Elastic Compliance Matrix: (Units=1/GPa)
#
#
# Indices 1 2 3 4 5 6 
#
# 1 0.009660 -0.006375 -0.001802 0.000000 0.000000 0.000000
# 2 -0.006375 0.031990 -0.007999 0.000000 0.000000 0.000000
# 3 -0.001802 -0.007999 0.009663 0.000000 0.000000 0.000000
# 4 0.000000 0.000000 0.000000 0.087051 0.000000 0.000000
# 5 0.000000 0.000000 0.000000 0.000000 -0.202228 0.000000
# 6 0.000000 0.000000 0.000000 0.000000 0.000000 0.028561
#
#
# Mechanical properties :
#
#
# Convention : Reuss Voigt Hill
#
# Bulk Modulus (GPa) = 52.74107 75.74763 64.24435
# Shear Modulus (GPa) = 1483.74310 21.35523 752.54916
#
# Velocity S-wave (km/s) = 28.43734 3.41163 20.25243
# Velocity P-wave (km/s) = 33.27144 7.53681 24.12252
#
# Compressibility (1/GPa) = 0.01896055
#
# Stress axis : x y z
#
# Youngs Moduli (GPa) = 103.51639 31.25941 103.49272
#
# Poissons Ratio (x) = 0.19928 0.18651
# Poissons Ratio (y) = 0.65993 0.82785
# Poissons Ratio (z) = 0.18655 0.25005
#
# Static dielectric constant tensor:
#      x y z
#    x 1.601470 0.000000 0.000000 
#    y 0.000000 1.620530 0.000000 
#    z 0.000000 0.000000 1.636400 
# 
# From -- ./inp_files/20815.got.cif
#   From: 2010.05.17/outbox.cif.g08.bks.cpg/sg62_11_cif.got.tgz:20815.got - 2010.06.03 15:25:27.
