data_PCOD9465270
_publ_section_title
;
Structure prediction by ZEFSAII (Michael W. Deem and Ramdas Pophale) SiO2 
 PCOD9465270
Probable space group: P N M A
;
_chemical_formula_sum "Si O2"
_cell_formula_units_Z 60
_cell_length_a 18.624891
_cell_length_b 9.817808
_cell_length_c 16.215819
_cell_angle_alpha 90.000000
_cell_angle_beta 90.000000
_cell_angle_gamma 90.000000
_cell_volume 2965.153375
_symmetry_space_group_name_H-M "P N M A"
_symmetry_group_IT_number 62
_symmetry_cell_setting 'orthorhombic'
loop_
_space_group_symop_operation_xyz
x,y,z
1/2-x,-y,1/2+z
1/2+x,1/2-y,1/2-z
-x,1/2+y,-z
-x,-y,-z
1/2+x,y,1/2-z
1/2-x,1/2+y,1/2+z
x,1/2-y,z
loop_
_atom_site_type_symbol
_atom_site_label
_atom_site_fract_x
_atom_site_fract_y
_atom_site_fract_z
Si Si1 0.687730 0.409564 0.270370
Si Si2 0.506809 0.750000 0.514470
Si Si3 0.683748 0.406960 0.719609
Si Si4 0.699684 0.409448 0.465674
Si Si5 0.427002 0.408372 0.805092
Si Si6 0.075510 0.488765 0.924720
Si Si7 0.359598 0.408277 0.986446
Si Si8 0.581023 0.093533 0.872691
O O1 0.684590 0.250000 0.248018
O O2 0.749289 0.491119 0.221250
O O3 0.704940 0.419004 0.367528
O O4 0.613620 0.487988 0.253984
O O5 0.477864 0.631218 0.450345
O O6 0.534235 0.629761 0.578008
O O7 0.706368 0.250000 0.702825
O O8 0.623287 0.449695 0.654241
O O9 0.647311 0.411857 0.809677
O O10 0.682571 0.250000 0.485216
O O11 0.635147 0.496881 0.501926
O O12 0.775670 0.445607 0.506027
O O13 0.421548 0.250000 0.777647
O O14 0.509699 0.442620 0.821878
O O15 0.388578 0.419498 0.894241
O O16 0.364495 0.250000 0.011824
O O17 0.404491 0.498801 0.049680
O O18 0.571196 0.250000 0.900444
#
# Coordination Sequence:
#
# PCOD9465270 Si02
#       8
#     8   4   8   8   8   8   8   8
#     4  11  24  40  61  93 124 156 211 264 306 369
#     4  10  24  40  64  92 126 158 216 264 310 368
#     4  11  22  41  65  88 126 169 204 253 320 376
#     4  10  20  39  62  86 122 164 207 261 312 368
#     4  10  22  40  62  92 124 164 201 247 314 376
#     4  11  22  44  64  94 124 171 212 260 313 382
#     4  10  20  39  65  87 120 165 206 247 307 371
#     4  10  22  39  60  94 128 160 204 255 310 367
#
# _framework density 20.235040000000001
#
# number of rings (size 3 to 8) (size 9 to 14) (size 15 to 20)
#    0.000    1.600    2.667    1.600    0.933    4.267 
#    6.000    0.000    0.000    0.000    0.000    0.000 
#    0.000    0.000    0.000    0.000    0.000    0.000 
#
# Total GULP energy -334285.856419 kJ/mol
# GULP energy per Si atom -5571.430940 kJ/mol
# Density = 2.018898 g / cm^3
# Si number density = 20.235040 Si / 1000 Ang^3
#
#
#
# Elastic Constant Matrix: (Units=GPa)
#
#
# Indices 1 2 3 4 5 6 
#
# 1 50.6953 27.0119 -2.2698 0.0000 0.0000 0.0000
# 2 27.0119 107.3569 12.1991 0.0000 0.0000 0.0000
# 3 -2.2698 12.1991 30.3068 0.0000 0.0000 0.0000
# 4 0.0000 0.0000 0.0000 14.7949 0.0000 0.0000
# 5 0.0000 0.0000 0.0000 0.0000 23.3462 0.0000
# 6 0.0000 0.0000 0.0000 0.0000 0.0000 21.9988
#
#
#
# Elastic Compliance Matrix: (Units=1/GPa)
#
#
# Indices 1 2 3 4 5 6 
#
# 1 0.023303 -0.006352 0.004302 0.000000 0.000000 0.000000
# 2 -0.006352 0.011493 -0.005102 0.000000 0.000000 0.000000
# 3 0.004302 -0.005102 0.035372 0.000000 0.000000 0.000000
# 4 0.000000 0.000000 0.000000 0.067591 0.000000 0.000000
# 5 0.000000 0.000000 0.000000 0.000000 0.042834 0.000000
# 6 0.000000 0.000000 0.000000 0.000000 0.000000 0.045457
#
#
# Mechanical properties :
#
#
# Convention : Reuss Voigt Hill
#
# Bulk Modulus (GPa) = 17.90072 29.13794 23.51933
# Shear Modulus (GPa) = 19.30701 22.12250 20.71475
#
# Velocity S-wave (km/s) = 3.09226 3.31006 3.20301
# Velocity P-wave (km/s) = 4.64920 5.38885 5.03263
#
# Compressibility (1/GPa) = 0.05586366
#
# Stress axis : x y z
#
# Youngs Moduli (GPa) = 42.91316 87.01202 28.27127
#
# Poissons Ratio (x) = 0.55270 -0.12162
# Poissons Ratio (y) = 0.27259 0.14423
# Poissons Ratio (z) = -0.18461 0.44391
#
# Static dielectric constant tensor:
#      x y z
#    x 1.746670 0.000000 0.000000 
#    y 0.000000 1.686020 0.000000 
#    z 0.000000 0.000000 1.713660 
# 
# From -- ./inp_files/24399.got.cif
#   From: 2010.05.17/outbox.cif.g08.bks.cpg/sg62_13_cif.got.tgz:24399.got - 2010.06.03 15:25:27.
