data_PCOD9465977
_publ_section_title
;
Structure prediction by ZEFSAII (Michael W. Deem and Ramdas Pophale) SiO2 
 PCOD9465977
Probable space group: P N M A
;
_chemical_formula_sum "Si O2"
_cell_formula_units_Z 40
_cell_length_a 5.562781
_cell_length_b 16.755618
_cell_length_c 18.114695
_cell_angle_alpha 90.000000
_cell_angle_beta 90.000000
_cell_angle_gamma 90.000000
_cell_volume 1688.431475
_symmetry_space_group_name_H-M "P N M A"
_symmetry_group_IT_number 62
_symmetry_cell_setting 'orthorhombic'
loop_
_space_group_symop_operation_xyz
x,y,z
1/2-x,-y,1/2+z
1/2+x,1/2-y,1/2-z
-x,1/2+y,-z
-x,-y,-z
1/2+x,y,1/2-z
1/2-x,1/2+y,1/2+z
x,1/2-y,z
loop_
_atom_site_type_symbol
_atom_site_label
_atom_site_fract_x
_atom_site_fract_y
_atom_site_fract_z
Si Si1 0.621272 0.435818 0.711016
Si Si2 0.316154 0.159258 0.918139
Si Si3 0.698329 0.042609 0.949497
Si Si4 0.870021 0.128917 0.212295
Si Si5 0.920682 0.612294 0.936364
O O1 0.370017 0.411023 0.748290
O O2 0.637909 0.395609 0.630120
O O3 0.639694 0.532012 0.709706
O O4 0.313543 0.250000 0.892895
O O5 0.570095 0.114898 0.908891
O O6 0.250966 0.157073 0.005679
O O7 0.787750 0.966430 0.903184
O O8 0.883056 0.076507 0.008404
O O9 0.500000 0.000000 0.000000
O O10 0.600324 0.152945 0.236965
O O11 0.949306 0.155600 0.130378
#
# Coordination Sequence:
#
# PCOD9465977 Si02
#       5
#     8   8   8   8   8
#     4  10  23  40  61  91 132 171 212 258 315 385
#     4  11  25  40  61  90 126 176 221 262 325 399
#     4   9  19  35  61  86 117 156 207 263 317 364
#     4  10  22  36  64  99 126 159 207 268 333 384
#     4  10  21  38  63  90 124 162 216 277 325 381
#
# _framework density 23.690626000000002
#
# number of rings (size 3 to 8) (size 9 to 14) (size 15 to 20)
#    0.000    2.000    0.000    3.600   16.800    1.600 
#    0.000    0.000    0.000    1.200    0.000    0.000 
#    0.000    0.000    0.000    0.000    0.000    0.000 
#
# Total GULP energy -223331.953374 kJ/mol
# GULP energy per Si atom -5583.298834 kJ/mol
# Density = 2.363671 g / cm^3
# Si number density = 23.690626 Si / 1000 Ang^3
#
#
#
# Elastic Constant Matrix: (Units=GPa)
#
#
# Indices 1 2 3 4 5 6 
#
# 1 105.3678 25.9950 19.6489 0.0000 0.0000 0.0000
# 2 25.9950 108.0436 18.0742 0.0000 0.0000 0.0000
# 3 19.6489 18.0742 98.4292 0.0000 0.0000 0.0000
# 4 0.0000 0.0000 0.0000 7.1056 0.0000 0.0000
# 5 0.0000 0.0000 0.0000 0.0000 43.7360 0.0000
# 6 0.0000 0.0000 0.0000 0.0000 0.0000 -8.2609
#
#
#
# Elastic Compliance Matrix: (Units=1/GPa)
#
#
# Indices 1 2 3 4 5 6 
#
# 1 0.010346 -0.002212 -0.001659 0.000000 0.000000 0.000000
# 2 -0.002212 0.010022 -0.001399 0.000000 0.000000 0.000000
# 3 -0.001659 -0.001399 0.010748 0.000000 0.000000 0.000000
# 4 0.000000 0.000000 0.000000 0.140733 0.000000 0.000000
# 5 0.000000 0.000000 0.000000 0.000000 0.022864 0.000000
# 6 0.000000 0.000000 0.000000 0.000000 0.000000 -0.121053
#
#
# Mechanical properties :
#
#
# Convention : Reuss Voigt Hill
#
# Bulk Modulus (GPa) = 48.60048 48.80853 48.70451
# Shear Modulus (GPa) = 54.91039 25.05766 39.98403
#
# Velocity S-wave (km/s) = 4.81959 3.25576 4.11269
# Velocity P-wave (km/s) = 7.17847 5.89750 6.56928
#
# Compressibility (1/GPa) = 0.02057593
#
# Stress axis : x y z
#
# Youngs Moduli (GPa) = 96.65978 99.78434 93.04373
#
# Poissons Ratio (x) = 0.22068 0.15437
# Poissons Ratio (y) = 0.21377 0.13014
# Poissons Ratio (z) = 0.16037 0.13957
#
# Static dielectric constant tensor:
#      x y z
#    x 1.996140 0.000000 0.000000 
#    y 0.000000 1.846930 0.000000 
#    z 0.000000 0.000000 1.976550 
# 
# From -- ./inp_files/21494.got.cif
#   From: 2010.05.17/outbox.cif.g08.bks.cpg/sg62_11_cif.got.tgz:21494.got - 2010.06.03 15:25:27.
