data_PCOD9465463
_publ_section_title
;
Structure prediction by ZEFSAII (Michael W. Deem and Ramdas Pophale) SiO2 
 PCOD9465463
Probable space group: P N M A
;
_chemical_formula_sum "Si O2"
_cell_formula_units_Z 40
_cell_length_a 9.302434
_cell_length_b 15.179930
_cell_length_c 10.646938
_cell_angle_alpha 90.000000
_cell_angle_beta 90.000000
_cell_angle_gamma 90.000000
_cell_volume 1503.457277
_symmetry_space_group_name_H-M "P N M A"
_symmetry_group_IT_number 62
_symmetry_cell_setting 'orthorhombic'
loop_
_space_group_symop_operation_xyz
x,y,z
1/2-x,-y,1/2+z
1/2+x,1/2-y,1/2-z
-x,1/2+y,-z
-x,-y,-z
1/2+x,y,1/2-z
1/2-x,1/2+y,1/2+z
x,1/2-y,z
loop_
_atom_site_type_symbol
_atom_site_label
_atom_site_fract_x
_atom_site_fract_y
_atom_site_fract_z
Si Si1 0.110923 0.347696 0.166349
Si Si2 0.894525 0.084327 0.001325
Si Si3 0.525055 0.347017 0.741640
Si Si4 0.118662 0.653836 0.509001
Si Si5 0.182473 0.994073 0.660248
O O1 0.129534 0.250000 0.221739
O O2 0.209368 0.344795 0.036639
O O3 0.189434 0.434586 0.220209
O O4 0.947046 0.365103 0.125235
O O5 0.930710 0.145136 0.882262
O O6 0.741513 0.045321 0.963426
O O7 0.000000 0.000000 0.000000
O O8 0.594383 0.250000 0.747976
O O9 0.626851 0.431838 0.747714
O O10 0.428281 0.357598 0.866915
O O11 0.064389 0.750000 0.548176
O O12 0.071949 0.577235 0.603902
#
# Coordination Sequence:
#
# PCOD9465463 Si02
#       5
#     8   8   8   8   8
#     4   8  16  33  55  73 104 144 175 216 272 322
#     4  10  21  34  49  77 111 145 181 222 269 321
#     4  11  22  33  54  86 113 141 181 229 275 320
#     4   8  17  34  57  79 106 142 179 224 279 325
#     4   9  19  34  54  79 111 145 180 222 274 332
#
# _framework density 26.605343999999999
#
# number of rings (size 3 to 8) (size 9 to 14) (size 15 to 20)
#    1.200    1.600    0.000    1.200    2.800    1.600 
#    0.000    0.000    0.000   14.400    0.000   16.800 
#    0.000    0.000    0.000    0.000    0.000    0.000 
#
# Total GULP energy -223183.021452 kJ/mol
# GULP energy per Si atom -5579.575536 kJ/mol
# Density = 2.654479 g / cm^3
# Si number density = 26.605344 Si / 1000 Ang^3
#
#
#
# Elastic Constant Matrix: (Units=GPa)
#
#
# Indices 1 2 3 4 5 6 
#
# 1 60.8654 34.0343 33.9925 0.0000 0.0000 0.0000
# 2 34.0343 213.2815 38.0466 0.0000 0.0000 0.0000
# 3 33.9925 38.0466 104.0207 0.0000 0.0000 0.0000
# 4 0.0000 0.0000 0.0000 20.7564 0.0000 0.0000
# 5 0.0000 0.0000 0.0000 0.0000 40.3076 0.0000
# 6 0.0000 0.0000 0.0000 0.0000 0.0000 21.4815
#
#
#
# Elastic Compliance Matrix: (Units=1/GPa)
#
#
# Indices 1 2 3 4 5 6 
#
# 1 0.021090 -0.002285 -0.006056 0.000000 0.000000 0.000000
# 2 -0.002285 0.005263 -0.001178 0.000000 0.000000 0.000000
# 3 -0.006056 -0.001178 0.012024 0.000000 0.000000 0.000000
# 4 0.000000 0.000000 0.000000 0.048178 0.000000 0.000000
# 5 0.000000 0.000000 0.000000 0.000000 0.024809 0.000000
# 6 0.000000 0.000000 0.000000 0.000000 0.000000 0.046552
#
#
# Mechanical properties :
#
#
# Convention : Reuss Voigt Hill
#
# Bulk Modulus (GPa) = 51.71269 65.59049 58.65159
# Shear Modulus (GPa) = 27.26276 34.64872 30.95574
#
# Velocity S-wave (km/s) = 3.20458 3.61268 3.41474
# Velocity P-wave (km/s) = 5.75948 6.48912 6.13515
#
# Compressibility (1/GPa) = 0.01933761
#
# Stress axis : x y z
#
# Youngs Moduli (GPa) = 47.41665 189.98782 83.17032
#
# Poissons Ratio (x) = 0.43413 0.50368
# Poissons Ratio (y) = 0.10835 0.09801
# Poissons Ratio (z) = 0.28716 0.22389
#
# Static dielectric constant tensor:
#      x y z
#    x 2.134550 0.000000 0.000000 
#    y 0.000000 2.125890 0.000000 
#    z 0.000000 0.000000 2.107690 
# 
# From -- ./inp_files/16783.got.cif
#   From: 2010.05.17/outbox.cif.g08.bks.cpg/sg62_9_cif.got.tgz:16783.got - 2010.06.03 15:25:27.
