data_PCOD9465001
_publ_section_title
;
Structure prediction by ZEFSAII (Michael W. Deem and Ramdas Pophale) SiO2 
 PCOD9465001
Probable space group: P N M A
;
_chemical_formula_sum "Si O2"
_cell_formula_units_Z 48
_cell_length_a 14.574048
_cell_length_b 19.978513
_cell_length_c 8.288401
_cell_angle_alpha 90.000000
_cell_angle_beta 90.000000
_cell_angle_gamma 90.000000
_cell_volume 2413.315546
_symmetry_space_group_name_H-M "P N M A"
_symmetry_group_IT_number 62
_symmetry_cell_setting 'orthorhombic'
loop_
_space_group_symop_operation_xyz
x,y,z
1/2-x,-y,1/2+z
1/2+x,1/2-y,1/2-z
-x,1/2+y,-z
-x,-y,-z
1/2+x,y,1/2-z
1/2-x,1/2+y,1/2+z
x,1/2-y,z
loop_
_atom_site_type_symbol
_atom_site_label
_atom_site_fract_x
_atom_site_fract_y
_atom_site_fract_z
Si Si1 0.877414 0.037660 0.820351
Si Si2 0.606070 0.674730 0.497278
Si Si3 0.721541 0.543087 0.973893
Si Si4 0.963124 0.033252 0.338913
Si Si5 0.031342 0.324698 0.274600
Si Si6 0.744903 0.173328 0.283698
O O1 0.823999 0.035753 0.648841
O O2 0.973393 0.998082 0.799522
O O3 0.812214 0.000009 0.946880
O O4 0.891108 0.113918 0.874090
O O5 0.619648 0.750000 0.431471
O O6 0.509739 0.673801 0.593711
O O7 0.684013 0.663754 0.635709
O O8 0.644692 0.520101 0.842585
O O9 0.740491 0.619533 0.923530
O O10 0.000000 0.000000 0.500000
O O11 0.982217 0.112401 0.355089
O O12 0.009808 0.250000 0.338686
O O13 0.140319 0.334612 0.277431
O O14 0.756036 0.250000 0.338893
#
# Coordination Sequence:
#
# PCOD9465001 Si02
#       6
#     8   8   8   8   8   8
#     4  11  24  39  60  87 125 157 197 255 302 358
#     4  10  22  40  62  88 120 161 202 247 303 361
#     4  11  22  38  60  91 119 158 201 244 304 361
#     4  10  22  37  57  89 123 153 198 249 300 357
#     4  10  20  37  62  86 116 156 202 241 293 360
#     4  10  20  37  62  90 119 154 201 247 293 362
#
# _framework density 19.889648000000001
#
# number of rings (size 3 to 8) (size 9 to 14) (size 15 to 20)
#    0.000    1.667    3.333    1.000    2.333    2.667 
#    0.000    2.500    0.000    1.000    0.000    0.000 
#    0.000    0.000    0.000    0.000    0.000    0.000 
#
# Total GULP energy -267840.583807 kJ/mol
# GULP energy per Si atom -5580.012163 kJ/mol
# Density = 1.984438 g / cm^3
# Si number density = 19.889648 Si / 1000 Ang^3
#
#
#
# Elastic Constant Matrix: (Units=GPa)
#
#
# Indices 1 2 3 4 5 6 
#
# 1 79.6282 1.3643 1.7629 0.0000 0.0000 0.0000
# 2 1.3643 102.4460 24.0822 0.0000 0.0000 0.0000
# 3 1.7629 24.0822 40.1116 0.0000 0.0000 0.0000
# 4 0.0000 0.0000 0.0000 37.2480 0.0000 0.0000
# 5 0.0000 0.0000 0.0000 0.0000 22.2670 0.0000
# 6 0.0000 0.0000 0.0000 0.0000 0.0000 14.4889
#
#
#
# Elastic Compliance Matrix: (Units=1/GPa)
#
#
# Indices 1 2 3 4 5 6 
#
# 1 0.012571 -0.000044 -0.000526 0.000000 0.000000 0.000000
# 2 -0.000044 0.011365 -0.006822 0.000000 0.000000 0.000000
# 3 -0.000526 -0.006822 0.029049 0.000000 0.000000 0.000000
# 4 0.000000 0.000000 0.000000 0.026847 0.000000 0.000000
# 5 0.000000 0.000000 0.000000 0.000000 0.044909 0.000000
# 6 0.000000 0.000000 0.000000 0.000000 0.000000 0.069018
#
#
# Mechanical properties :
#
#
# Convention : Reuss Voigt Hill
#
# Bulk Modulus (GPa) = 26.17655 30.73383 28.45519
# Shear Modulus (GPa) = 22.59608 27.79922 25.19765
#
# Velocity S-wave (km/s) = 3.37422 3.74260 3.56318
# Velocity P-wave (km/s) = 5.32635 5.84481 5.59159
#
# Compressibility (1/GPa) = 0.03820214
#
# Stress axis : x y z
#
# Youngs Moduli (GPa) = 79.54961 87.98634 34.42442
#
# Poissons Ratio (x) = 0.00384 0.01812
# Poissons Ratio (y) = 0.00348 0.23483
# Poissons Ratio (z) = 0.04186 0.60021
#
# Static dielectric constant tensor:
#      x y z
#    x 1.735020 0.000000 0.000000 
#    y 0.000000 1.718890 0.000000 
#    z 0.000000 0.000000 1.684910 
# 
# From -- ./inp_files/6503.got.cif
#   From: 2010.05.17/outbox.cif.g08.bks.cpg/sg62_4_cif.got.tgz:6503.got - 2010.06.03 15:25:27.
