data_PCOD9465836
_publ_section_title
;
Structure prediction by ZEFSAII (Michael W. Deem and Ramdas Pophale) SiO2 
 PCOD9465836
Probable space group: P N M A
;
_chemical_formula_sum "Si O2"
_cell_formula_units_Z 56
_cell_length_a 11.018453
_cell_length_b 15.106907
_cell_length_c 16.483372
_cell_angle_alpha 90.000000
_cell_angle_beta 90.000000
_cell_angle_gamma 90.000000
_cell_volume 2743.735479
_symmetry_space_group_name_H-M "P N M A"
_symmetry_group_IT_number 62
_symmetry_cell_setting 'orthorhombic'
loop_
_space_group_symop_operation_xyz
x,y,z
1/2-x,-y,1/2+z
1/2+x,1/2-y,1/2-z
-x,1/2+y,-z
-x,-y,-z
1/2+x,y,1/2-z
1/2-x,1/2+y,1/2+z
x,1/2-y,z
loop_
_atom_site_type_symbol
_atom_site_label
_atom_site_fract_x
_atom_site_fract_y
_atom_site_fract_z
Si Si1 0.148475 0.649770 0.144477
Si Si2 0.147925 0.651577 0.330772
Si Si3 0.792088 0.983658 0.965434
Si Si4 0.420265 0.513116 0.920603
Si Si5 0.242177 0.856412 0.677662
Si Si6 0.103099 0.153345 0.931558
Si Si7 0.522132 0.144321 0.218343
O O1 0.187695 0.750000 0.121355
O O2 0.182145 0.634819 0.237649
O O3 0.190275 0.570838 0.087394
O O4 0.002802 0.647309 0.134187
O O5 0.092243 0.750000 0.334979
O O6 0.065257 0.573166 0.363974
O O7 0.268307 0.652519 0.385983
O O8 0.729553 0.911605 0.905437
O O9 0.900837 0.925587 0.003786
O O10 0.714187 0.013650 0.042719
O O11 0.447214 0.597606 0.866445
O O12 0.500000 0.500000 0.000000
O O13 0.243840 0.750000 0.663358
O O14 0.371151 0.882811 0.718777
O O15 0.121603 0.875613 0.732210
O O16 0.090149 0.250000 0.972479
O O17 0.531757 0.250000 0.211905
#
# Coordination Sequence:
#
# PCOD9465836 Si02
#       7
#     8   8   8   8   8   8   8
#     4  10  21  38  57  84 119 155 199 245 297 356
#     4   9  20  38  59  81 112 155 200 242 288 352
#     4  11  21  37  60  87 120 154 199 245 306 366
#     4  11  22  38  58  88 119 154 199 245 303 360
#     4  10  21  41  67  91 119 161 205 252 305 363
#     4   9  19  37  59  84 114 152 198 246 298 360
#     4  10  22  42  65  92 124 160 206 255 305 362
#
# _framework density 20.410131
#
# number of rings (size 3 to 8) (size 9 to 14) (size 15 to 20)
#    0.000    2.000    1.429    1.714    0.000    2.857 
#   15.429    1.429    0.000    0.000    0.000    0.000 
#    0.000    0.000    0.000    0.000    0.000    0.000 
#
# Total GULP energy -312085.881040 kJ/mol
# GULP energy per Si atom -5572.962161 kJ/mol
# Density = 2.036368 g / cm^3
# Si number density = 20.410131 Si / 1000 Ang^3
#
#
#
# Elastic Constant Matrix: (Units=GPa)
#
#
# Indices 1 2 3 4 5 6 
#
# 1 40.3395 8.5250 0.2038 0.0000 0.0000 0.0000
# 2 8.5250 75.8421 39.2691 0.0000 0.0000 0.0000
# 3 0.2038 39.2691 63.1024 0.0000 0.0000 0.0000
# 4 0.0000 0.0000 0.0000 41.7966 0.0000 0.0000
# 5 0.0000 0.0000 0.0000 0.0000 23.6318 0.0000
# 6 0.0000 0.0000 0.0000 0.0000 0.0000 11.7476
#
#
#
# Elastic Compliance Matrix: (Units=1/GPa)
#
#
# Indices 1 2 3 4 5 6 
#
# 1 0.025663 -0.004193 0.002526 0.000000 0.000000 0.000000
# 2 -0.004193 0.020138 -0.012519 0.000000 0.000000 0.000000
# 3 0.002526 -0.012519 0.023630 0.000000 0.000000 0.000000
# 4 0.000000 0.000000 0.000000 0.023925 0.000000 0.000000
# 5 0.000000 0.000000 0.000000 0.000000 0.042316 0.000000
# 6 0.000000 0.000000 0.000000 0.000000 0.000000 0.085124
#
#
# Mechanical properties :
#
#
# Convention : Reuss Voigt Hill
#
# Bulk Modulus (GPa) = 24.35426 30.58665 27.47045
# Shear Modulus (GPa) = 19.02201 24.18760 21.60481
#
# Velocity S-wave (km/s) = 3.05616 3.44623 3.25704
# Velocity P-wave (km/s) = 4.94083 5.55463 5.25670
#
# Compressibility (1/GPa) = 0.04106057
#
# Stress axis : x y z
#
# Youngs Moduli (GPa) = 38.96686 49.65626 42.31977
#
# Poissons Ratio (x) = 0.20819 -0.10691
# Poissons Ratio (y) = 0.16337 0.52979
# Poissons Ratio (z) = -0.09844 0.62164
#
# Static dielectric constant tensor:
#      x y z
#    x 1.834060 0.000000 0.000000 
#    y 0.000000 1.782110 0.000000 
#    z 0.000000 0.000000 1.694360 
# 
# From -- ./inp_files/18099.got.cif
#   From: 2010.05.17/outbox.cif.g08.bks.cpg/sg62_10_cif.got.tgz:18099.got - 2010.06.03 15:25:27.
