data_PCOD9465790
_publ_section_title
;
Structure prediction by ZEFSAII (Michael W. Deem and Ramdas Pophale) SiO2 
 PCOD9465790
Probable space group: P N M A
;
_chemical_formula_sum "Si O2"
_cell_formula_units_Z 64
_cell_length_a 5.437732
_cell_length_b 17.351152
_cell_length_c 31.437549
_cell_angle_alpha 90.000000
_cell_angle_beta 90.000000
_cell_angle_gamma 90.000000
_cell_volume 2966.161497
_symmetry_space_group_name_H-M "P N M A"
_symmetry_group_IT_number 62
_symmetry_cell_setting 'orthorhombic'
loop_
_space_group_symop_operation_xyz
x,y,z
1/2-x,-y,1/2+z
1/2+x,1/2-y,1/2-z
-x,1/2+y,-z
-x,-y,-z
1/2+x,y,1/2-z
1/2-x,1/2+y,1/2+z
x,1/2-y,z
loop_
_atom_site_type_symbol
_atom_site_label
_atom_site_fract_x
_atom_site_fract_y
_atom_site_fract_z
Si Si1 0.732660 0.363246 0.270568
Si Si2 0.103487 0.337709 0.049301
Si Si3 0.924494 0.460677 0.864379
Si Si4 0.874909 0.339199 0.933394
Si Si5 0.791538 0.950507 0.575282
Si Si6 0.345370 0.048026 0.731521
Si Si7 0.887125 0.101418 0.524967
Si Si8 0.660248 0.621483 0.867310
O O1 0.458938 0.335288 0.258640
O O2 0.698287 0.455651 0.263747
O O3 0.815034 0.349507 0.319379
O O4 0.053365 0.250000 0.034746
O O5 0.162933 0.336567 0.099491
O O6 0.894699 0.402355 0.045835
O O7 0.332573 0.375519 0.023995
O O8 0.835644 0.388492 0.890985
O O9 0.955060 0.440563 0.815416
O O10 0.734186 0.531279 0.865667
O O11 0.154851 0.495770 0.889640
O O12 0.900026 0.250000 0.924332
O O13 0.632101 0.354708 0.961045
O O14 0.129334 0.367885 0.954716
O O15 0.910643 0.885510 0.606127
O O16 0.913539 0.014532 0.543903
O O17 0.565948 0.077562 0.761892
#
# Coordination Sequence:
#
# PCOD9465790 Si02
#       8
#     8   8   8   8   8   8   8   8
#     4   9  19  32  56  87 118 151 193 250 303 359
#     4  11  25  41  60  90 126 166 208 259 313 375
#     4   9  20  35  55  84 119 155 200 250 306 367
#     4  11  22  39  62  88 120 161 208 260 309 367
#     4  10  22  39  62  89 123 165 205 259 314 368
#     4   9  18  28  49  81 115 149 192 246 302 356
#     4  11  24  43  64  90 122 164 211 259 309 369
#     4  10  21  37  61  87 122 158 202 252 311 369
#
# _framework density 21.576709999999999
#
# number of rings (size 3 to 8) (size 9 to 14) (size 15 to 20)
#    0.000    2.000    1.250    1.500   12.250    1.000 
#    0.000    0.000    0.000    1.500    0.000    0.000 
#    0.000    0.000    0.000    0.000    0.000    0.000 
#
# Total GULP energy -356685.570322 kJ/mol
# GULP energy per Si atom -5573.212036 kJ/mol
# Density = 2.152760 g / cm^3
# Si number density = 21.576710 Si / 1000 Ang^3
#
#
#
# Elastic Constant Matrix: (Units=GPa)
#
#
# Indices 1 2 3 4 5 6 
#
# 1 84.8697 6.1410 36.1402 0.0000 0.0000 0.0000
# 2 6.1410 83.4669 33.2540 0.0000 0.0000 0.0000
# 3 36.1402 33.2540 104.2853 0.0000 0.0000 0.0000
# 4 0.0000 0.0000 0.0000 -142.2710 0.0000 0.0000
# 5 0.0000 0.0000 0.0000 0.0000 30.5000 0.0000
# 6 0.0000 0.0000 0.0000 0.0000 0.0000 41.8058
#
#
#
# Elastic Compliance Matrix: (Units=1/GPa)
#
#
# Indices 1 2 3 4 5 6 
#
# 1 0.013899 0.001027 -0.005144 0.000000 0.000000 0.000000
# 2 0.001027 0.013800 -0.004756 0.000000 0.000000 0.000000
# 3 -0.005144 -0.004756 0.012889 0.000000 0.000000 0.000000
# 4 0.000000 0.000000 0.000000 -0.007029 0.000000 0.000000
# 5 0.000000 0.000000 0.000000 0.000000 0.032787 0.000000
# 6 0.000000 0.000000 0.000000 0.000000 0.000000 0.023920
#
#
# Mechanical properties :
#
#
# Convention : Reuss Voigt Hill
#
# Bulk Modulus (GPa) = 43.78216 47.07691 45.42953
# Shear Modulus (GPa) = 43.24257 -0.85393 21.19432
#
# Velocity S-wave (km/s) = 4.48161 -0.62978 3.13753
# Velocity P-wave (km/s) = 6.86405 4.61919 5.85031
#
# Compressibility (1/GPa) = 0.02284035
#
# Stress axis : x y z
#
# Youngs Moduli (GPa) = 71.94752 72.46241 77.58855
#
# Poissons Ratio (x) = -0.07441 0.39913
# Poissons Ratio (y) = -0.07388 0.36904
# Poissons Ratio (z) = 0.37011 0.34466
#
# Static dielectric constant tensor:
#      x y z
#    x 1.882740 0.000000 0.000000 
#    y 0.000000 1.745400 0.000000 
#    z 0.000000 0.000000 1.830220 
# 
# From -- ./inp_files/31694.got.cif
#   From: 2010.05.17/outbox.cif.g08.bks.cpg/sg62_16_cif.got.tgz:31694.got - 2010.06.03 15:25:27.
