data_PCOD9465278
_publ_section_title
;
Structure prediction by ZEFSAII (Michael W. Deem and Ramdas Pophale) SiO2 
 PCOD9465278
Probable space group: P N M A
;
_chemical_formula_sum "Si O2"
_cell_formula_units_Z 48
_cell_length_a 15.146441
_cell_length_b 16.620692
_cell_length_c 9.599259
_cell_angle_alpha 90.000000
_cell_angle_beta 90.000000
_cell_angle_gamma 90.000000
_cell_volume 2416.559033
_symmetry_space_group_name_H-M "P N M A"
_symmetry_group_IT_number 62
_symmetry_cell_setting 'orthorhombic'
loop_
_space_group_symop_operation_xyz
x,y,z
1/2-x,-y,1/2+z
1/2+x,1/2-y,1/2-z
-x,1/2+y,-z
-x,-y,-z
1/2+x,y,1/2-z
1/2-x,1/2+y,1/2+z
x,1/2-y,z
loop_
_atom_site_type_symbol
_atom_site_label
_atom_site_fract_x
_atom_site_fract_y
_atom_site_fract_z
Si Si1 0.172660 0.568520 0.593317
Si Si2 0.171311 0.843202 0.884471
Si Si3 0.673097 0.376515 0.906039
Si Si4 0.521876 0.652252 0.400928
Si Si5 0.531666 0.843193 0.085832
Si Si6 0.680812 0.343465 0.586370
O O1 0.180470 0.603182 0.748328
O O2 0.172544 0.472863 0.593960
O O3 0.084042 0.603075 0.522824
O O4 0.252694 0.602787 0.500749
O O5 0.154610 0.750000 0.844662
O O6 0.258359 0.846818 0.979357
O O7 0.090689 0.872653 0.981831
O O8 0.573656 0.346849 0.933437
O O9 0.700033 0.347914 0.751436
O O10 0.522059 0.750000 0.396771
O O11 0.548248 0.627275 0.244514
O O12 0.420863 0.628762 0.430057
O O13 0.560888 0.750000 0.074000
O O14 0.687880 0.250000 0.542326
#
# Coordination Sequence:
#
# PCOD9465278 Si02
#       6
#     8   8   8   8   8   8
#     4  12  24  37  56  90 125 151 187 250 309 342
#     4  11  22  38  59  87 119 154 194 243 298 354
#     4  11  23  40  59  85 119 157 198 244 292 346
#     4   8  18  36  61  84 105 142 198 244 277 332
#     4  10  20  39  63  84 109 154 204 241 283 354
#     4  10  20  40  64  84 111 158 207 240 279 352
#
# _framework density 19.862953000000001
#
# number of rings (size 3 to 8) (size 9 to 14) (size 15 to 20)
#    0.000    1.667    0.000    6.500    0.000    2.667 
#    0.000   12.500    0.000    0.000    0.000    0.000 
#    0.000    0.000    0.000    0.000    0.000    0.000 
#
# Total GULP energy -268430.499896 kJ/mol
# GULP energy per Si atom -5592.302081 kJ/mol
# Density = 1.981774 g / cm^3
# Si number density = 19.862953 Si / 1000 Ang^3
#
#
#
# Elastic Constant Matrix: (Units=GPa)
#
#
# Indices 1 2 3 4 5 6 
#
# 1 63.6557 1.1086 51.5628 0.0000 0.0000 0.0000
# 2 1.1086 81.8178 6.7816 0.0000 0.0000 0.0000
# 3 51.5628 6.7816 91.9807 0.0000 0.0000 0.0000
# 4 0.0000 0.0000 0.0000 -5.7599 0.0000 0.0000
# 5 0.0000 0.0000 0.0000 0.0000 0.6103 0.0000
# 6 0.0000 0.0000 0.0000 0.0000 0.0000 17.9516
#
#
#
# Elastic Compliance Matrix: (Units=1/GPa)
#
#
# Indices 1 2 3 4 5 6 
#
# 1 0.028851 0.000955 -0.016244 0.000000 0.000000 0.000000
# 2 0.000955 0.012329 -0.001445 0.000000 0.000000 0.000000
# 3 -0.016244 -0.001445 0.020084 0.000000 0.000000 0.000000
# 4 0.000000 0.000000 0.000000 -0.173614 0.000000 0.000000
# 5 0.000000 0.000000 0.000000 0.000000 1.638611 0.000000
# 6 0.000000 0.000000 0.000000 0.000000 0.000000 0.055705
#
#
# Mechanical properties :
#
#
# Convention : Reuss Voigt Hill
#
# Bulk Modulus (GPa) = 35.97329 39.59559 37.78444
# Shear Modulus (GPa) = 3.07749 14.42713 8.75231
#
# Velocity S-wave (km/s) = 1.24608 2.69798 2.10141
# Velocity P-wave (km/s) = 4.49671 5.44822 4.99517
#
# Compressibility (1/GPa) = 0.02779840
#
# Stress axis : x y z
#
# Youngs Moduli (GPa) = 34.66131 81.10908 49.79029
#
# Poissons Ratio (x) = -0.07750 0.80877
# Poissons Ratio (y) = -0.03312 0.07193
# Poissons Ratio (z) = 0.56302 0.11717
#
# Static dielectric constant tensor:
#      x y z
#    x 1.694110 0.000000 0.000000 
#    y 0.000000 1.679690 0.000000 
#    z 0.000000 0.000000 1.668480 
# 
# From -- ./inp_files/6416.got.cif
#   From: 2010.05.17/outbox.cif.g08.bks.cpg/sg62_4_cif.got.tgz:6416.got - 2010.06.03 15:25:27.
