data_PCOD9465314
_publ_section_title
;
Structure prediction by ZEFSAII (Michael W. Deem and Ramdas Pophale) SiO2 
 PCOD9465314
Probable space group: P N M A
;
_chemical_formula_sum "Si O2"
_cell_formula_units_Z 64
_cell_length_a 12.884465
_cell_length_b 16.961864
_cell_length_c 14.476277
_cell_angle_alpha 90.000000
_cell_angle_beta 90.000000
_cell_angle_gamma 90.000000
_cell_volume 3163.711342
_symmetry_space_group_name_H-M "P N M A"
_symmetry_group_IT_number 62
_symmetry_cell_setting 'orthorhombic'
loop_
_space_group_symop_operation_xyz
x,y,z
1/2-x,-y,1/2+z
1/2+x,1/2-y,1/2-z
-x,1/2+y,-z
-x,-y,-z
1/2+x,y,1/2-z
1/2-x,1/2+y,1/2+z
x,1/2-y,z
loop_
_atom_site_type_symbol
_atom_site_label
_atom_site_fract_x
_atom_site_fract_y
_atom_site_fract_z
Si Si1 0.857283 0.890078 0.632344
Si Si2 0.720141 0.839906 0.917234
Si Si3 0.632380 0.927680 0.188373
Si Si4 0.680154 0.162379 0.620379
Si Si5 0.479212 0.092754 0.995191
Si Si6 0.081000 0.159551 0.178471
Si Si7 0.934389 0.156437 0.873240
Si Si8 0.627500 0.654799 0.580674
O O1 0.913509 0.840703 0.711918
O O2 0.735334 0.875525 0.621524
O O3 0.915271 0.871573 0.535922
O O4 0.874736 0.979980 0.666273
O O5 0.695217 0.750000 0.887103
O O6 0.614209 0.885831 0.934931
O O7 0.808576 0.876985 0.852458
O O8 0.776592 0.836894 0.016398
O O9 0.750568 0.900441 0.173071
O O10 0.599964 0.897981 0.288645
O O11 0.561118 0.887057 0.107638
O O12 0.698214 0.250000 0.660164
O O13 0.558411 0.147914 0.617617
O O14 0.500000 0.000000 0.000000
O O15 0.086118 0.250000 0.143473
O O16 0.975469 0.125889 0.135422
O O17 0.913128 0.250000 0.855382
O O18 0.884886 0.135211 0.972277
O O19 0.629554 0.750000 0.588417
#
# Coordination Sequence:
#
# PCOD9465314 Si02
#       8
#     8   8   8   8   8   8   8   8
#     4  11  24  40  57  91 127 167 203 249 308 371
#     4   9  17  34  62  87 109 152 205 251 297 357
#     4  10  22  40  58  89 123 167 205 244 303 370
#     4   9  17  35  60  86 115 150 200 252 300 358
#     4   9  21  41  59  79 126 165 199 244 299 358
#     4  10  21  39  62  89 118 156 207 259 308 367
#     4  10  20  39  65  90 119 156 204 263 313 359
#     4  10  22  42  64  90 124 158 205 265 318 364
#
# _framework density 20.229405
#
# number of rings (size 3 to 8) (size 9 to 14) (size 15 to 20)
#    0.000    2.250    1.250    0.750    1.750    3.500 
#    9.000    2.500    0.000    0.000    0.000    0.000 
#    0.000    0.000    0.000    0.000    0.000    0.000 
#
# Total GULP energy -356854.306112 kJ/mol
# GULP energy per Si atom -5575.848533 kJ/mol
# Density = 2.018336 g / cm^3
# Si number density = 20.229405 Si / 1000 Ang^3
#
#
#
# Elastic Constant Matrix: (Units=GPa)
#
#
# Indices 1 2 3 4 5 6 
#
# 1 104.7165 27.2953 54.2067 0.0000 0.0000 0.0000
# 2 27.2953 30.5832 28.4571 0.0000 0.0000 0.0000
# 3 54.2067 28.4571 87.2338 0.0000 0.0000 0.0000
# 4 0.0000 0.0000 0.0000 32.0420 0.0000 0.0000
# 5 0.0000 0.0000 0.0000 0.0000 23.8733 0.0000
# 6 0.0000 0.0000 0.0000 0.0000 0.0000 206.9901
#
#
#
# Elastic Compliance Matrix: (Units=1/GPa)
#
#
# Indices 1 2 3 4 5 6 
#
# 1 0.014994 -0.006766 -0.007110 0.000000 0.000000 0.000000
# 2 -0.006766 0.050002 -0.012107 0.000000 0.000000 0.000000
# 3 -0.007110 -0.012107 0.019831 0.000000 0.000000 0.000000
# 4 0.000000 0.000000 0.000000 0.031209 0.000000 0.000000
# 5 0.000000 0.000000 0.000000 0.000000 0.041888 0.000000
# 6 0.000000 0.000000 0.000000 0.000000 0.000000 0.004831
#
#
# Mechanical properties :
#
#
# Convention : Reuss Voigt Hill
#
# Bulk Modulus (GPa) = 30.43164 49.16129 39.79647
# Shear Modulus (GPa) = 22.15591 60.08604 41.12098
#
# Velocity S-wave (km/s) = 3.31302 5.45590 4.51348
# Velocity P-wave (km/s) = 5.45076 8.00273 6.84670
#
# Compressibility (1/GPa) = 0.03286053
#
# Stress axis : x y z
#
# Youngs Moduli (GPa) = 66.69489 19.99931 50.42654
#
# Poissons Ratio (x) = 0.13532 0.35852
# Poissons Ratio (y) = 0.45128 0.61050
# Poissons Ratio (z) = 0.47418 0.24213
#
# Static dielectric constant tensor:
#      x y z
#    x 1.724050 0.000000 0.000000 
#    y 0.000000 1.749150 0.000000 
#    z 0.000000 0.000000 1.739800 
# 
# From -- ./inp_files/18248.got.cif
#   From: 2010.05.17/outbox.cif.g08.bks.cpg/sg62_10_cif.got.tgz:18248.got - 2010.06.03 15:25:27.
