data_PCOD9465258
_publ_section_title
;
Structure prediction by ZEFSAII (Michael W. Deem and Ramdas Pophale) SiO2 
 PCOD9465258
Probable space group: P N M A
;
_chemical_formula_sum "Si O2"
_cell_formula_units_Z 48
_cell_length_a 14.956577
_cell_length_b 25.317936
_cell_length_c 5.474783
_cell_angle_alpha 90.000000
_cell_angle_beta 90.000000
_cell_angle_gamma 90.000000
_cell_volume 2073.134213
_symmetry_space_group_name_H-M "P N M A"
_symmetry_group_IT_number 62
_symmetry_cell_setting 'orthorhombic'
loop_
_space_group_symop_operation_xyz
x,y,z
1/2-x,-y,1/2+z
1/2+x,1/2-y,1/2-z
-x,1/2+y,-z
-x,-y,-z
1/2+x,y,1/2-z
1/2-x,1/2+y,1/2+z
x,1/2-y,z
loop_
_atom_site_type_symbol
_atom_site_label
_atom_site_fract_x
_atom_site_fract_y
_atom_site_fract_z
Si Si1 0.949147 0.250000 0.365678
Si Si2 0.855228 0.003540 0.629578
Si Si3 0.278974 0.415690 0.198268
Si Si4 0.554377 0.863648 0.881924
Si Si5 0.941105 0.750000 0.142529
Si Si6 0.884045 0.856930 0.940263
Si Si7 0.520726 0.447464 0.731779
O O1 0.901876 0.193850 0.419304
O O2 0.022151 0.250000 0.583737
O O3 0.984679 0.250000 0.081862
O O4 0.779469 0.959981 0.669892
O O5 0.914086 0.982707 0.400832
O O6 0.802534 0.056467 0.559530
O O7 0.932995 0.016210 0.828762
O O8 0.375994 0.396224 0.286224
O O9 0.213013 0.367018 0.166056
O O10 0.459838 0.850289 0.762664
O O11 0.526856 0.901207 0.104568
O O12 0.888777 0.804806 0.103627
O O13 0.916924 0.912023 0.060389
#
# Coordination Sequence:
#
# PCOD9465258 Si02
#       7
#     4   8   8   8   4   8   8
#     4  10  20  43  68  97 129 171 216 275 336 399
#     4  10  22  37  55  92 127 167 217 269 321 397
#     4  11  23  38  60  93 125 169 220 270 325 400
#     4  10  22  40  63  90 127 167 215 271 331 396
#     4  10  22  39  72  95 127 171 220 269 338 397
#     4  11  22  40  65  89 123 172 208 273 333 393
#     4  10  20  39  61  85 125 168 213 265 330 394
#
# _framework density 23.153348999999999
#
# number of rings (size 3 to 8) (size 9 to 14) (size 15 to 20)
#    0.000    1.667    3.333    1.000    2.333    1.333 
#    0.000    0.000    0.000    2.000    0.000    0.000 
#    0.000    0.000    0.000    0.000    0.000    0.000 
#
# Total GULP energy -267451.280439 kJ/mol
# GULP energy per Si atom -5571.901676 kJ/mol
# Density = 2.310065 g / cm^3
# Si number density = 23.153349 Si / 1000 Ang^3
#
#
#
# Elastic Constant Matrix: (Units=GPa)
#
#
# Indices 1 2 3 4 5 6 
#
# 1 89.4069 21.5325 1.5388 0.0000 0.0000 0.0000
# 2 21.5325 98.2659 -8.9595 0.0000 0.0000 0.0000
# 3 1.5388 -8.9595 27.3750 0.0000 0.0000 0.0000
# 4 0.0000 0.0000 0.0000 33.9176 0.0000 0.0000
# 5 0.0000 0.0000 0.0000 0.0000 21.4483 0.0000
# 6 0.0000 0.0000 0.0000 0.0000 0.0000 30.0518
#
#
#
# Elastic Compliance Matrix: (Units=1/GPa)
#
#
# Indices 1 2 3 4 5 6 
#
# 1 0.011873 -0.002744 -0.001566 0.000000 0.000000 0.000000
# 2 -0.002744 0.011124 0.003795 0.000000 0.000000 0.000000
# 3 -0.001566 0.003795 0.037860 0.000000 0.000000 0.000000
# 4 0.000000 0.000000 0.000000 0.029483 0.000000 0.000000
# 5 0.000000 0.000000 0.000000 0.000000 0.046624 0.000000
# 6 0.000000 0.000000 0.000000 0.000000 0.000000 0.033276
#
#
# Mechanical properties :
#
#
# Convention : Reuss Voigt Hill
#
# Bulk Modulus (GPa) = 16.71508 27.03018 21.87263
# Shear Modulus (GPa) = 26.14912 30.47928 28.31420
#
# Velocity S-wave (km/s) = 3.36428 3.63217 3.50079
# Velocity P-wave (km/s) = 4.72506 5.41202 5.08016
#
# Compressibility (1/GPa) = 0.05982623
#
# Stress axis : x y z
#
# Youngs Moduli (GPa) = 84.22676 89.89706 26.41333
#
# Poissons Ratio (x) = 0.24671 0.04135
# Poissons Ratio (y) = 0.23115 -0.10024
# Poissons Ratio (z) = 0.13187 -0.34116
#
# Static dielectric constant tensor:
#      x y z
#    x 1.879770 0.000000 0.000000 
#    y 0.000000 1.962140 0.000000 
#    z 0.000000 0.000000 1.942600 
# 
# From -- ./inp_files/1194.got.cif
#   From: 2010.05.17/outbox.cif.g08.bks.cpg/sg62_1_cif.got.tgz:1194.got - 2010.06.03 15:25:27.
