data_PCOD9465361
_publ_section_title
;
Structure prediction by ZEFSAII (Michael W. Deem and Ramdas Pophale) SiO2 
 PCOD9465361
Probable space group: P N M A
;
_chemical_formula_sum "Si O2"
_cell_formula_units_Z 64
_cell_length_a 15.562479
_cell_length_b 8.844166
_cell_length_c 24.535755
_cell_angle_alpha 90.000000
_cell_angle_beta 90.000000
_cell_angle_gamma 90.000000
_cell_volume 3377.031334
_symmetry_space_group_name_H-M "P N M A"
_symmetry_group_IT_number 62
_symmetry_cell_setting 'orthorhombic'
loop_
_space_group_symop_operation_xyz
x,y,z
1/2-x,-y,1/2+z
1/2+x,1/2-y,1/2-z
-x,1/2+y,-z
-x,-y,-z
1/2+x,y,1/2-z
1/2-x,1/2+y,1/2+z
x,1/2-y,z
loop_
_atom_site_type_symbol
_atom_site_label
_atom_site_fract_x
_atom_site_fract_y
_atom_site_fract_z
Si Si1 0.351082 0.575775 0.361764
Si Si2 0.772680 0.567326 0.819159
Si Si3 0.252271 0.932802 0.554237
Si Si4 0.092930 0.428605 0.490473
Si Si5 0.351043 0.076376 0.880250
Si Si6 0.416620 0.068971 0.760017
Si Si7 0.894781 0.429226 0.250344
Si Si8 0.087468 0.432384 0.978216
O O1 0.375491 0.750000 0.347911
O O2 0.251712 0.577991 0.378503
O O3 0.364379 0.470634 0.310262
O O4 0.401156 0.523812 0.415244
O O5 0.778487 0.750000 0.815945
O O6 0.770689 0.524712 0.882967
O O7 0.852539 0.499790 0.785314
O O8 0.682235 0.521596 0.790849
O O9 0.245366 0.750000 0.551935
O O10 0.331192 0.979369 0.515077
O O11 0.164722 0.001365 0.530508
O O12 0.089934 0.250000 0.498105
O O13 0.118664 0.470974 0.428791
O O14 0.000000 0.500000 0.500000
O O15 0.380136 0.250000 0.890764
O O16 0.382234 0.030210 0.820395
O O17 0.414885 0.250000 0.754443
O O18 0.513715 0.009483 0.757234
O O19 0.906209 0.250000 0.257001
O O20 0.085168 0.250000 0.979875
O O21 0.000000 0.500000 0.000000
#
# Coordination Sequence:
#
# PCOD9465361 Si02
#       8
#     8   8   8   8   8   8   8   8
#     4  10  20  40  65  89 119 160 207 256 308 364
#     4  10  23  42  64  91 126 165 207 256 310 367
#     4  10  22  44  65  88 126 168 207 255 314 368
#     4  12  26  42  65  95 126 164 209 258 310 372
#     4  10  21  42  67  91 122 161 206 258 315 368
#     4  11  24  41  65  93 125 164 207 257 310 371
#     4  11  24  40  61  92 127 164 207 255 309 369
#     4  10  22  39  62  89 123 160 202 253 305 366
#
# _framework density 18.951557999999999
#
# number of rings (size 3 to 8) (size 9 to 14) (size 15 to 20)
#    0.000    1.500    2.500    1.875    3.500    3.500 
#    0.000    0.000    0.000    0.000    0.000    0.000 
#    0.000    0.000    0.000    0.000    0.000    0.000 
#
# Total GULP energy -357586.905881 kJ/mol
# GULP energy per Si atom -5587.295404 kJ/mol
# Density = 1.890842 g / cm^3
# Si number density = 18.951558 Si / 1000 Ang^3
#
#
#
# Elastic Constant Matrix: (Units=GPa)
#
#
# Indices 1 2 3 4 5 6 
#
# 1 53.5864 4.9090 -13.5291 0.0000 0.0000 0.0000
# 2 4.9090 23.6392 15.0858 0.0000 0.0000 0.0000
# 3 -13.5291 15.0858 58.1966 0.0000 0.0000 0.0000
# 4 0.0000 0.0000 0.0000 25.3577 0.0000 0.0000
# 5 0.0000 0.0000 0.0000 0.0000 31.3372 0.0000
# 6 0.0000 0.0000 0.0000 0.0000 0.0000 22.9341
#
#
#
# Elastic Compliance Matrix: (Units=1/GPa)
#
#
# Indices 1 2 3 4 5 6 
#
# 1 0.021344 -0.009105 0.007322 0.000000 0.000000 0.000000
# 2 -0.009105 0.054572 -0.016263 0.000000 0.000000 0.000000
# 3 0.007322 -0.016263 0.023101 0.000000 0.000000 0.000000
# 4 0.000000 0.000000 0.000000 0.039436 0.000000 0.000000
# 5 0.000000 0.000000 0.000000 0.000000 0.031911 0.000000
# 6 0.000000 0.000000 0.000000 0.000000 0.000000 0.043603
#
#
# Mechanical properties :
#
#
# Convention : Reuss Voigt Hill
#
# Bulk Modulus (GPa) = 15.89185 16.48374 16.18780
# Shear Modulus (GPa) = 18.44786 24.52290 21.48538
#
# Velocity S-wave (km/s) = 3.12336 3.60109 3.37070
# Velocity P-wave (km/s) = 4.62719 5.09973 4.86919
#
# Compressibility (1/GPa) = 0.06292532
#
# Stress axis : x y z
#
# Youngs Moduli (GPa) = 46.85114 18.32443 43.28806
#
# Poissons Ratio (x) = 0.16685 -0.31696
# Poissons Ratio (y) = 0.42659 0.70399
# Poissons Ratio (z) = -0.34305 0.29801
#
# Static dielectric constant tensor:
#      x y z
#    x 2.444760 0.000000 0.000000 
#    y 0.000000 1.645060 0.000000 
#    z 0.000000 0.000000 1.638520 
# 
# From -- ./inp_files/29802.got.cif
#   From: 2010.05.17/outbox.cif.g08.bks.cpg/sg62_15_cif.got.tgz:29802.got - 2010.06.03 15:25:27.
