data_PCOD9465013
_publ_section_title
;
Structure prediction by ZEFSAII (Michael W. Deem and Ramdas Pophale) SiO2 
 PCOD9465013
Probable space group: P N M A
;
_chemical_formula_sum "Si O2"
_cell_formula_units_Z 40
_cell_length_a 12.741567
_cell_length_b 9.804745
_cell_length_c 13.465724
_cell_angle_alpha 90.000000
_cell_angle_beta 90.000000
_cell_angle_gamma 90.000000
_cell_volume 1682.243481
_symmetry_space_group_name_H-M "P N M A"
_symmetry_group_IT_number 62
_symmetry_cell_setting 'orthorhombic'
loop_
_space_group_symop_operation_xyz
x,y,z
1/2-x,-y,1/2+z
1/2+x,1/2-y,1/2-z
-x,1/2+y,-z
-x,-y,-z
1/2+x,y,1/2-z
1/2-x,1/2+y,1/2+z
x,1/2-y,z
loop_
_atom_site_type_symbol
_atom_site_label
_atom_site_fract_x
_atom_site_fract_y
_atom_site_fract_z
Si Si1 0.442984 0.750000 0.773318
Si Si2 0.312611 0.750000 0.279716
Si Si3 0.047794 0.750000 0.149542
Si Si4 0.937160 0.250000 0.466506
Si Si5 0.742643 0.955728 0.965005
Si Si6 0.569964 0.250000 0.461665
Si Si7 0.676134 0.250000 0.960259
Si Si8 0.184677 0.988581 0.245299
O O1 0.460700 0.750000 0.654358
O O2 0.539032 0.750000 0.848673
O O3 0.376119 0.613255 0.793372
O O4 0.430520 0.750000 0.311251
O O5 0.310933 0.750000 0.159531
O O6 0.253275 0.887390 0.312360
O O7 0.104000 0.884219 0.191559
O O8 0.030787 0.750000 0.031747
O O9 0.863428 0.122904 0.494190
O O10 0.051989 0.250000 0.515998
O O11 0.731513 0.112083 0.996240
O O12 0.743773 0.953841 0.843515
O O13 0.852211 0.877638 0.984840
#
# Coordination Sequence:
#
# PCOD9465013 Si02
#       8
#     4   4   4   4   8   4   4   8
#     4  10  22  37  60  88 123 161 199 255 303 371
#     4   9  21  40  62  86 124 156 195 264 303 352
#     4  11  22  40  68  91 111 166 215 245 305 372
#     4  11  22  36  62  88 121 164 204 243 314 368
#     4   9  20  40  60  83 128 158 192 261 306 350
#     4   9  21  42  62  85 123 160 201 251 311 362
#     4  10  20  37  62  90 120 161 204 246 302 371
#     4   9  21  41  60  85 126 154 203 252 308 361
#
# _framework density 23.777771000000001
#
# number of rings (size 3 to 8) (size 9 to 14) (size 15 to 20)
#    0.000    2.400    0.000    1.800    5.600    4.800 
#    7.200    1.000   35.200    0.000    0.000    0.000 
#    0.000    0.000    0.000    0.000    0.000    0.000 
#
# Total GULP energy -223672.892595 kJ/mol
# GULP energy per Si atom -5591.822315 kJ/mol
# Density = 2.372365 g / cm^3
# Si number density = 23.777771 Si / 1000 Ang^3
#
#
#
# Elastic Constant Matrix: (Units=GPa)
#
#
# Indices 1 2 3 4 5 6 
#
# 1 127.6458 61.9161 26.7317 0.0000 0.0000 0.0000
# 2 61.9161 170.4633 16.1142 0.0000 0.0000 0.0000
# 3 26.7317 16.1142 90.3233 0.0000 0.0000 0.0000
# 4 0.0000 0.0000 0.0000 6.1265 0.0000 0.0000
# 5 0.0000 0.0000 0.0000 0.0000 58.1101 0.0000
# 6 0.0000 0.0000 0.0000 0.0000 0.0000 -9.8477
#
#
#
# Elastic Compliance Matrix: (Units=1/GPa)
#
#
# Indices 1 2 3 4 5 6 
#
# 1 0.009975 -0.003402 -0.002345 0.000000 0.000000 0.000000
# 2 -0.003402 0.007127 -0.000265 0.000000 0.000000 0.000000
# 3 -0.002345 -0.000265 0.011813 0.000000 0.000000 0.000000
# 4 0.000000 0.000000 0.000000 0.163226 0.000000 0.000000
# 5 0.000000 0.000000 0.000000 0.000000 0.017209 0.000000
# 6 0.000000 0.000000 0.000000 0.000000 0.000000 -0.101546
#
#
# Mechanical properties :
#
#
# Convention : Reuss Voigt Hill
#
# Bulk Modulus (GPa) = 59.20137 66.43961 62.82049
# Shear Modulus (GPa) = 39.85414 29.78913 34.82163
#
# Velocity S-wave (km/s) = 4.09847 3.54335 3.83098
# Velocity P-wave (km/s) = 6.88102 6.68902 6.78570
#
# Compressibility (1/GPa) = 0.01689150
#
# Stress axis : x y z
#
# Youngs Moduli (GPa) = 100.24744 140.31324 84.65453
#
# Poissons Ratio (x) = 0.47728 0.19855
# Poissons Ratio (y) = 0.34100 0.02241
# Poissons Ratio (z) = 0.23512 0.03715
#
# Static dielectric constant tensor:
#      x y z
#    x 1.836210 0.000000 0.000000 
#    y 0.000000 1.923810 0.000000 
#    z 0.000000 0.000000 1.973720 
# 
# From -- ./inp_files/18716.got.cif
#   From: 2010.05.17/outbox.cif.g08.bks.cpg/sg62_10_cif.got.tgz:18716.got - 2010.06.03 15:25:27.
