data_PCOD9465750
_publ_section_title
;
Structure prediction by ZEFSAII (Michael W. Deem and Ramdas Pophale) SiO2 
 PCOD9465750
Probable space group: P N M A
;
_chemical_formula_sum "Si O2"
_cell_formula_units_Z 56
_cell_length_a 21.861200
_cell_length_b 8.926878
_cell_length_c 14.781548
_cell_angle_alpha 90.000000
_cell_angle_beta 90.000000
_cell_angle_gamma 90.000000
_cell_volume 2884.652577
_symmetry_space_group_name_H-M "P N M A"
_symmetry_group_IT_number 62
_symmetry_cell_setting 'orthorhombic'
loop_
_space_group_symop_operation_xyz
x,y,z
1/2-x,-y,1/2+z
1/2+x,1/2-y,1/2-z
-x,1/2+y,-z
-x,-y,-z
1/2+x,y,1/2-z
1/2-x,1/2+y,1/2+z
x,1/2-y,z
loop_
_atom_site_type_symbol
_atom_site_label
_atom_site_fract_x
_atom_site_fract_y
_atom_site_fract_z
Si Si1 0.783958 0.571971 0.412878
Si Si2 0.722099 0.928283 0.102731
Si Si3 0.138363 0.926796 0.103325
Si Si4 0.110588 0.073186 0.724047
Si Si5 0.007282 0.927575 0.401875
Si Si6 0.884583 0.572217 0.713916
Si Si7 0.143951 0.571561 0.900298
O O1 0.793077 0.750000 0.430990
O O2 0.799893 0.480567 0.503125
O O3 0.712116 0.550276 0.393351
O O4 0.827492 0.530550 0.329709
O O5 0.721142 0.750000 0.111320
O O6 0.678340 0.002134 0.176521
O O7 0.790842 0.989877 0.111027
O O8 0.127039 0.750000 0.118667
O O9 0.108163 0.021343 0.182418
O O10 0.119660 0.965919 0.000660
O O11 0.114674 0.250000 0.746100
O O12 0.054591 0.051723 0.655760
O O13 0.103969 0.981122 0.816028
O O14 0.018772 0.750000 0.410322
O O15 0.000000 0.000000 0.500000
O O16 0.062058 0.004293 0.347533
O O17 0.882978 0.750000 0.706051
O O18 0.153939 0.750000 0.899094
#
# Coordination Sequence:
#
# PCOD9465750 Si02
#       7
#     8   8   8   8   8   8   8
#     4   9  18  34  56  85 119 150 184 231 286 343
#     4  11  21  34  56  85 118 153 189 234 287 342
#     4   9  19  36  57  84 117 149 183 231 287 337
#     4  10  21  37  59  85 115 151 189 233 283 335
#     4  11  24  42  63  88 118 151 189 235 284 335
#     4  12  24  38  58  83 113 152 197 240 284 338
#     4  10  21  37  59  86 117 150 186 232 284 342
#
# _framework density 19.413083
#
# number of rings (size 3 to 8) (size 9 to 14) (size 15 to 20)
#    0.000    1.714    0.000    6.000    0.000    6.857 
#    0.000    0.714    0.000    0.000    0.000    0.000 
#    0.000    0.000    0.000    0.000    0.000    0.000 
#
# Total GULP energy -313051.039889 kJ/mol
# GULP energy per Si atom -5590.197141 kJ/mol
# Density = 1.936890 g / cm^3
# Si number density = 19.413083 Si / 1000 Ang^3
#
#
#
# Elastic Constant Matrix: (Units=GPa)
#
#
# Indices 1 2 3 4 5 6 
#
# 1 17.1668 32.5276 34.0004 0.0000 0.0000 0.0000
# 2 32.5276 115.7931 89.3572 0.0000 0.0000 0.0000
# 3 34.0004 89.3572 163.0164 0.0000 0.0000 0.0000
# 4 0.0000 0.0000 0.0000 37.5500 0.0000 0.0000
# 5 0.0000 0.0000 0.0000 0.0000 19.7344 0.0000
# 6 0.0000 0.0000 0.0000 0.0000 0.0000 25.4760
#
#
#
# Elastic Compliance Matrix: (Units=1/GPa)
#
#
# Indices 1 2 3 4 5 6 
#
# 1 0.139131 -0.028926 -0.013163 0.000000 0.000000 0.000000
# 2 -0.028926 0.020981 -0.005468 0.000000 0.000000 0.000000
# 3 -0.013163 -0.005468 0.011877 0.000000 0.000000 0.000000
# 4 0.000000 0.000000 0.000000 0.026631 0.000000 0.000000
# 5 0.000000 0.000000 0.000000 0.000000 0.050673 0.000000
# 6 0.000000 0.000000 0.000000 0.000000 0.000000 0.039253
#
#
# Mechanical properties :
#
#
# Convention : Reuss Voigt Hill
#
# Bulk Modulus (GPa) = 13.00792 67.52741 40.26766
# Shear Modulus (GPa) = 12.21646 25.89150 19.05398
#
# Velocity S-wave (km/s) = 2.51129 3.65597 3.13629
# Velocity P-wave (km/s) = 3.88894 7.25820 5.82260
#
# Compressibility (1/GPa) = 0.07687627
#
# Stress axis : x y z
#
# Youngs Moduli (GPa) = 7.18746 47.66209 84.19697
#
# Poissons Ratio (x) = 1.37865 1.10830
# Poissons Ratio (y) = 0.20790 0.46036
# Poissons Ratio (z) = 0.09461 0.26060
#
# Static dielectric constant tensor:
#      x y z
#    x 1.675110 0.000000 0.000000 
#    y 0.000000 1.647070 0.000000 
#    z 0.000000 0.000000 1.690550 
# 
# From -- ./inp_files/20193.got.cif
#   From: 2010.05.17/outbox.cif.g08.bks.cpg/sg62_11_cif.got.tgz:20193.got - 2010.06.03 15:25:27.
