data_PCOD9465264
_publ_section_title
;
Structure prediction by ZEFSAII (Michael W. Deem and Ramdas Pophale) SiO2 
 PCOD9465264
Probable space group: P N M A
;
_chemical_formula_sum "Si O2"
_cell_formula_units_Z 48
_cell_length_a 8.323938
_cell_length_b 15.991785
_cell_length_c 14.751512
_cell_angle_alpha 90.000000
_cell_angle_beta 90.000000
_cell_angle_gamma 90.000000
_cell_volume 1963.642015
_symmetry_space_group_name_H-M "P N M A"
_symmetry_group_IT_number 62
_symmetry_cell_setting 'orthorhombic'
loop_
_space_group_symop_operation_xyz
x,y,z
1/2-x,-y,1/2+z
1/2+x,1/2-y,1/2-z
-x,1/2+y,-z
-x,-y,-z
1/2+x,y,1/2-z
1/2-x,1/2+y,1/2+z
x,1/2-y,z
loop_
_atom_site_type_symbol
_atom_site_label
_atom_site_fract_x
_atom_site_fract_y
_atom_site_fract_z
Si Si1 0.740816 0.851025 0.543063
Si Si2 0.422831 0.345459 0.632281
Si Si3 0.782642 0.417717 0.363346
Si Si4 0.910095 0.596775 0.301939
Si Si5 0.912968 0.149973 0.531664
Si Si6 0.537176 0.846278 0.709448
O O1 0.743913 0.750000 0.535099
O O2 0.610533 0.879405 0.468510
O O3 0.916825 0.878508 0.513470
O O4 0.685017 0.870261 0.643761
O O5 0.483216 0.250000 0.627960
O O6 0.536220 0.397253 0.698386
O O7 0.243080 0.345470 0.675341
O O8 0.852508 0.506644 0.335132
O O9 0.609775 0.403384 0.319570
O O10 0.784043 0.396955 0.469704
O O11 0.902336 0.353813 0.311576
O O12 0.060367 0.625296 0.364226
O O13 0.892754 0.250000 0.524927
O O14 0.491397 0.750000 0.690713
#
# Coordination Sequence:
#
# PCOD9465264 Si02
#       6
#     8   8   8   8   8   8
#     4   8  18  36  60  84 109 143 192 243 285 333
#     4  10  20  39  63  87 116 156 198 239 289 354
#     4  12  24  38  57  87 121 154 194 248 300 344
#     4  11  23  39  58  88 123 154 191 246 301 344
#     4  10  20  39  62  84 113 155 198 240 291 355
#     4  11  22  39  60  84 114 156 203 244 288 352
#
# _framework density 24.444374
#
# number of rings (size 3 to 8) (size 9 to 14) (size 15 to 20)
#    0.000    1.667    0.000    6.500    0.000    2.667 
#    0.000   12.500    0.000    0.000    0.000    0.000 
#    0.000    0.000    0.000    0.000    0.000    0.000 
#
# Total GULP energy -268622.939061 kJ/mol
# GULP energy per Si atom -5596.311230 kJ/mol
# Density = 2.438874 g / cm^3
# Si number density = 24.444374 Si / 1000 Ang^3
#
#
#
# Elastic Constant Matrix: (Units=GPa)
#
#
# Indices 1 2 3 4 5 6 
#
# 1 50.4588 -7.5233 -0.5443 0.0000 0.0000 0.0000
# 2 -7.5233 70.8034 -6.8511 0.0000 0.0000 0.0000
# 3 -0.5443 -6.8511 63.0295 0.0000 0.0000 0.0000
# 4 0.0000 0.0000 0.0000 18.2305 0.0000 0.0000
# 5 0.0000 0.0000 0.0000 0.0000 36.4712 0.0000
# 6 0.0000 0.0000 0.0000 0.0000 0.0000 -4.6761
#
#
#
# Elastic Compliance Matrix: (Units=1/GPa)
#
#
# Indices 1 2 3 4 5 6 
#
# 1 0.020148 0.002181 0.000411 0.000000 0.000000 0.000000
# 2 0.002181 0.014510 0.001596 0.000000 0.000000 0.000000
# 3 0.000411 0.001596 0.016043 0.000000 0.000000 0.000000
# 4 0.000000 0.000000 0.000000 0.054853 0.000000 0.000000
# 5 0.000000 0.000000 0.000000 0.000000 0.027419 0.000000
# 6 0.000000 0.000000 0.000000 0.000000 0.000000 -0.213853
#
#
# Mechanical properties :
#
#
# Convention : Reuss Voigt Hill
#
# Bulk Modulus (GPa) = 16.92756 17.16158 17.04457
# Shear Modulus (GPa) = -71.87549 23.28583 -24.29483
#
# Velocity S-wave (km/s) = -5.42840 3.08978 -3.15601
# Velocity P-wave (km/s) = 5.68771 4.44577 2.50850
#
# Compressibility (1/GPa) = 0.05907526
#
# Stress axis : x y z
#
# Youngs Moduli (GPa) = 49.63347 68.91921 62.33393
#
# Poissons Ratio (x) = -0.15028 -0.02562
# Poissons Ratio (y) = -0.10823 -0.09949
# Poissons Ratio (z) = -0.02040 -0.11000
#
# Static dielectric constant tensor:
#      x y z
#    x 1.934870 0.000000 0.000000 
#    y 0.000000 1.928930 0.000000 
#    z 0.000000 0.000000 1.925510 
# 
# From -- ./inp_files/16918.got.cif
#   From: 2010.05.17/outbox.cif.g08.bks.cpg/sg62_9_cif.got.tgz:16918.got - 2010.06.03 15:25:27.
