data_PCOD9465755
_publ_section_title
;
Structure prediction by ZEFSAII (Michael W. Deem and Ramdas Pophale) SiO2 
 PCOD9465755
Probable space group: P N M A
;
_chemical_formula_sum "Si O2"
_cell_formula_units_Z 56
_cell_length_a 14.333564
_cell_length_b 7.785920
_cell_length_c 21.227191
_cell_angle_alpha 90.000000
_cell_angle_beta 90.000000
_cell_angle_gamma 90.000000
_cell_volume 2368.954147
_symmetry_space_group_name_H-M "P N M A"
_symmetry_group_IT_number 62
_symmetry_cell_setting 'orthorhombic'
loop_
_space_group_symop_operation_xyz
x,y,z
1/2-x,-y,1/2+z
1/2+x,1/2-y,1/2-z
-x,1/2+y,-z
-x,-y,-z
1/2+x,y,1/2-z
1/2-x,1/2+y,1/2+z
x,1/2-y,z
loop_
_atom_site_type_symbol
_atom_site_label
_atom_site_fract_x
_atom_site_fract_y
_atom_site_fract_z
Si Si1 0.281890 0.449229 0.064680
Si Si2 0.350305 0.557899 0.667258
Si Si3 0.515291 0.449541 0.904932
Si Si4 0.492628 0.459054 0.239374
Si Si5 0.190598 0.957852 0.429288
Si Si6 0.006850 0.557579 0.070740
Si Si7 0.347351 0.046624 0.344237
O O1 0.251496 0.250000 0.064404
O O2 0.234966 0.525282 0.128210
O O3 0.392781 0.455892 0.071903
O O4 0.261228 0.520550 0.994649
O O5 0.321184 0.750000 0.688167
O O6 0.413263 0.481820 0.723581
O O7 0.427805 0.562964 0.612083
O O8 0.524037 0.250000 0.922797
O O9 0.511914 0.466092 0.829587
O O10 0.416329 0.518160 0.929036
O O11 0.496288 0.250000 0.236396
O O12 0.399161 0.504348 0.279508
O O13 0.189567 0.750000 0.431303
O O14 0.241823 0.010468 0.364677
O O15 0.044633 0.750000 0.075295
O O16 0.906155 0.549140 0.102276
O O17 0.000000 0.500000 0.000000
O O18 0.361714 0.250000 0.349960
#
# Coordination Sequence:
#
# PCOD9465755 Si02
#       7
#     8   8   8   8   8   8   8
#     4  10  21  39  62  85 114 152 193 239 293 345
#     4   9  19  36  58  84 111 144 190 240 289 347
#     4  11  24  39  57  83 116 154 199 244 287 340
#     4   9  20  39  59  83 116 151 191 235 289 352
#     4  10  22  39  59  87 120 154 191 238 295 348
#     4  11  20  31  51  80 116 154 189 231 284 342
#     4  10  21  37  59  86 114 149 193 239 288 348
#
# _framework density 23.639123999999999
#
# number of rings (size 3 to 8) (size 9 to 14) (size 15 to 20)
#    0.000    2.000    0.000    4.286    0.000    7.429 
#    0.000    4.286    0.000    0.000    0.000    0.000 
#    0.000    0.000    0.000    0.000    0.000    0.000 
#
# Total GULP energy -312627.014232 kJ/mol
# GULP energy per Si atom -5582.625254 kJ/mol
# Density = 2.358532 g / cm^3
# Si number density = 23.639124 Si / 1000 Ang^3
#
#
#
# Elastic Constant Matrix: (Units=GPa)
#
#
# Indices 1 2 3 4 5 6 
#
# 1 94.7183 -1.1208 8.2248 0.0000 0.0000 0.0000
# 2 -1.1208 56.1649 -1.9923 0.0000 0.0000 0.0000
# 3 8.2248 -1.9923 99.4518 0.0000 0.0000 0.0000
# 4 0.0000 0.0000 0.0000 2.3097 0.0000 0.0000
# 5 0.0000 0.0000 0.0000 0.0000 28.7021 0.0000
# 6 0.0000 0.0000 0.0000 0.0000 0.0000 27.6571
#
#
#
# Elastic Compliance Matrix: (Units=1/GPa)
#
#
# Indices 1 2 3 4 5 6 
#
# 1 0.010636 0.000181 -0.000876 0.000000 0.000000 0.000000
# 2 0.000181 0.017820 0.000342 0.000000 0.000000 0.000000
# 3 -0.000876 0.000342 0.010134 0.000000 0.000000 0.000000
# 4 0.000000 0.000000 0.000000 0.432953 0.000000 0.000000
# 5 0.000000 0.000000 0.000000 0.000000 0.034841 0.000000
# 6 0.000000 0.000000 0.000000 0.000000 0.000000 0.036157
#
#
# Mechanical properties :
#
#
# Convention : Reuss Voigt Hill
#
# Bulk Modulus (GPa) = 26.39559 28.95095 27.67327
# Shear Modulus (GPa) = 8.99483 28.08199 18.53841
#
# Velocity S-wave (km/s) = 1.95277 3.45040 2.80344
# Velocity P-wave (km/s) = 4.03419 5.30540 4.71286
#
# Compressibility (1/GPa) = 0.03788511
#
# Stress axis : x y z
#
# Youngs Moduli (GPa) = 94.02184 56.11531 98.67364
#
# Poissons Ratio (x) = -0.01017 0.08644
# Poissons Ratio (y) = -0.01703 -0.03375
# Poissons Ratio (z) = 0.08236 -0.01919
#
# Static dielectric constant tensor:
#      x y z
#    x 1.976020 0.000000 0.000000 
#    y 0.000000 2.101040 0.000000 
#    z 0.000000 0.000000 1.881690 
# 
# From -- ./inp_files/27140.got.cif
#   From: 2010.05.17/outbox.cif.g08.bks.cpg/sg62_14_cif.got.tgz:27140.got - 2010.06.03 15:25:27.
