data_PCOD9465942
_publ_section_title
;
Structure prediction by ZEFSAII (Michael W. Deem and Ramdas Pophale) SiO2 
 PCOD9465942
Probable space group: P N M A
;
_chemical_formula_sum "Si O2"
_cell_formula_units_Z 48
_cell_length_a 18.857501
_cell_length_b 14.649155
_cell_length_c 8.833407
_cell_angle_alpha 90.000000
_cell_angle_beta 90.000000
_cell_angle_gamma 90.000000
_cell_volume 2440.197370
_symmetry_space_group_name_H-M "P N M A"
_symmetry_group_IT_number 62
_symmetry_cell_setting 'orthorhombic'
loop_
_space_group_symop_operation_xyz
x,y,z
1/2-x,-y,1/2+z
1/2+x,1/2-y,1/2-z
-x,1/2+y,-z
-x,-y,-z
1/2+x,y,1/2-z
1/2-x,1/2+y,1/2+z
x,1/2-y,z
loop_
_atom_site_type_symbol
_atom_site_label
_atom_site_fract_x
_atom_site_fract_y
_atom_site_fract_z
Si Si1 0.535557 0.250000 0.311631
Si Si2 0.582422 0.750000 0.931278
Si Si3 0.082946 0.444394 0.104555
Si Si4 0.045648 0.046913 0.772891
Si Si5 0.665286 0.250000 0.070948
Si Si6 0.156250 0.556227 0.583924
Si Si7 0.282360 0.938448 0.815043
Si Si8 0.952596 0.750000 0.330342
O O1 0.460162 0.250000 0.227878
O O2 0.547631 0.156000 0.398467
O O3 0.599273 0.250000 0.188441
O O4 0.629097 0.841174 0.943867
O O5 0.518846 0.750000 0.053444
O O6 0.158749 0.439767 0.182209
O O7 0.032563 0.505401 0.210861
O O8 0.082162 0.479218 0.932948
O O9 0.043143 0.155250 0.757154
O O10 0.088289 0.004568 0.632289
O O11 0.709888 0.340913 0.101293
O O12 0.623994 0.250000 0.913007
O O13 0.196233 0.514168 0.438812
O O14 0.208713 0.552350 0.727894
#
# Coordination Sequence:
#
# PCOD9465942 Si02
#       8
#     4   4   8   8   4   8   8   4
#     4   9  17  34  60  88 118 153 198 245 306 371
#     4  11  23  38  64  94 122 161 207 255 317 373
#     4  10  21  38  61  93 124 163 201 259 313 379
#     4  11  22  37  63  93 127 159 208 262 320 369
#     4   9  19  36  61  86 117 156 202 252 300 368
#     4  12  24  41  63  90 126 170 213 265 312 383
#     4  11  23  41  62  87 123 165 211 251 314 375
#     4  11  21  38  63  98 123 158 209 266 311 378
#
# _framework density 19.670539999999999
#
# number of rings (size 3 to 8) (size 9 to 14) (size 15 to 20)
#    0.000    1.333    3.333    3.000    0.000    1.333 
#    0.000    3.333    0.000    0.000    0.000    0.000 
#    0.000    0.000    0.000    0.000    0.000    0.000 
#
# Total GULP energy -268089.466579 kJ/mol
# GULP energy per Si atom -5585.197220 kJ/mol
# Density = 1.962577 g / cm^3
# Si number density = 19.670540 Si / 1000 Ang^3
#
#
#
# Elastic Constant Matrix: (Units=GPa)
#
#
# Indices 1 2 3 4 5 6 
#
# 1 64.6920 22.8672 18.4714 0.0000 0.0000 0.0000
# 2 22.8672 107.8841 6.2790 0.0000 0.0000 0.0000
# 3 18.4714 6.2790 51.1277 0.0000 0.0000 0.0000
# 4 0.0000 0.0000 0.0000 24.8641 0.0000 0.0000
# 5 0.0000 0.0000 0.0000 0.0000 30.3660 0.0000
# 6 0.0000 0.0000 0.0000 0.0000 0.0000 30.1999
#
#
#
# Elastic Compliance Matrix: (Units=1/GPa)
#
#
# Indices 1 2 3 4 5 6 
#
# 1 0.018499 -0.003557 -0.006246 0.000000 0.000000 0.000000
# 2 -0.003557 0.010020 0.000055 0.000000 0.000000 0.000000
# 3 -0.006246 0.000055 0.021809 0.000000 0.000000 0.000000
# 4 0.000000 0.000000 0.000000 0.040219 0.000000 0.000000
# 5 0.000000 0.000000 0.000000 0.000000 0.032932 0.000000
# 6 0.000000 0.000000 0.000000 0.000000 0.000000 0.033113
#
#
# Mechanical properties :
#
#
# Convention : Reuss Voigt Hill
#
# Bulk Modulus (GPa) = 32.43654 35.43765 33.93709
# Shear Modulus (GPa) = 26.82901 28.82509 27.82705
#
# Velocity S-wave (km/s) = 3.69713 3.83220 3.76527
# Velocity P-wave (km/s) = 5.89498 6.13480 6.01608
#
# Compressibility (1/GPa) = 0.03082943
#
# Stress axis : x y z
#
# Youngs Moduli (GPa) = 54.05734 99.79974 45.85298
#
# Poissons Ratio (x) = 0.35504 0.28642
# Poissons Ratio (y) = 0.19231 -0.00251
# Poissons Ratio (z) = 0.33766 -0.00546
#
# Static dielectric constant tensor:
#      x y z
#    x 1.662980 0.000000 0.000000 
#    y 0.000000 1.672850 0.000000 
#    z 0.000000 0.000000 1.690780 
# 
# From -- ./inp_files/7697.got.cif
#   From: 2010.05.17/outbox.cif.g08.bks.cpg/sg62_4_cif.got.tgz:7697.got - 2010.06.03 15:25:27.
