data_PCOD9465535
_publ_section_title
;
Structure prediction by ZEFSAII (Michael W. Deem and Ramdas Pophale) SiO2 
 PCOD9465535
Probable space group: P N M A
;
_chemical_formula_sum "Si O2"
_cell_formula_units_Z 40
_cell_length_a 11.608842
_cell_length_b 13.333256
_cell_length_c 12.300160
_cell_angle_alpha 90.000000
_cell_angle_beta 90.000000
_cell_angle_gamma 90.000000
_cell_volume 1903.863811
_symmetry_space_group_name_H-M "P N M A"
_symmetry_group_IT_number 62
_symmetry_cell_setting 'orthorhombic'
loop_
_space_group_symop_operation_xyz
x,y,z
1/2-x,-y,1/2+z
1/2+x,1/2-y,1/2-z
-x,1/2+y,-z
-x,-y,-z
1/2+x,y,1/2-z
1/2-x,1/2+y,1/2+z
x,1/2-y,z
loop_
_atom_site_type_symbol
_atom_site_label
_atom_site_fract_x
_atom_site_fract_y
_atom_site_fract_z
Si Si1 0.223203 0.363680 0.156085
Si Si2 0.211427 0.863858 0.053114
Si Si3 0.559145 0.131748 0.549793
Si Si4 0.874484 0.457334 0.512771
Si Si5 0.747126 0.438132 0.711915
O O1 0.217054 0.250000 0.196155
O O2 0.227261 0.449263 0.246404
O O3 0.121265 0.380752 0.067383
O O4 0.337283 0.383078 0.083374
O O5 0.227488 0.750000 0.014140
O O6 0.248131 0.872757 0.179394
O O7 0.076082 0.890461 0.044189
O O8 0.288233 0.947340 0.995104
O O9 0.570681 0.250000 0.575941
O O10 0.629054 0.074259 0.644090
O O11 0.846919 0.407297 0.627797
O O12 0.000000 0.500000 0.500000
#
# Coordination Sequence:
#
# PCOD9465535 Si02
#       5
#     8   8   8   8   8
#     4   9  20  39  60  85 118 161 200 244 302 351
#     4  10  22  39  63  91 117 156 204 247 297 353
#     4   9  19  39  62  87 118 153 203 257 295 348
#     4  10  23  40  58  87 124 158 191 244 296 355
#     4  10  21  35  61  87 119 155 201 245 297 354
#
# _framework density 21.009906999999998
#
# number of rings (size 3 to 8) (size 9 to 14) (size 15 to 20)
#    0.000    2.400    0.000    0.600    5.600    9.600 
#    0.000    0.000    0.000    0.000    0.000    0.000 
#    0.000    0.000    0.000    0.000    0.000    0.000 
#
# Total GULP energy -223358.147062 kJ/mol
# GULP energy per Si atom -5583.953677 kJ/mol
# Density = 2.096209 g / cm^3
# Si number density = 21.009907 Si / 1000 Ang^3
#
#
#
# Elastic Constant Matrix: (Units=GPa)
#
#
# Indices 1 2 3 4 5 6 
#
# 1 121.3284 34.3672 21.7695 0.0000 0.0000 0.0000
# 2 34.3672 92.5957 -11.4034 0.0000 0.0000 0.0000
# 3 21.7695 -11.4034 70.3747 0.0000 0.0000 0.0000
# 4 0.0000 0.0000 0.0000 24.7080 0.0000 0.0000
# 5 0.0000 0.0000 0.0000 0.0000 7.5845 0.0000
# 6 0.0000 0.0000 0.0000 0.0000 0.0000 30.9898
#
#
#
# Elastic Compliance Matrix: (Units=1/GPa)
#
#
# Indices 1 2 3 4 5 6 
#
# 1 0.010125 -0.004228 -0.003817 0.000000 0.000000 0.000000
# 2 -0.004228 0.012785 0.003379 0.000000 0.000000 0.000000
# 3 -0.003817 0.003379 0.015938 0.000000 0.000000 0.000000
# 4 0.000000 0.000000 0.000000 0.040473 0.000000 0.000000
# 5 0.000000 0.000000 0.000000 0.000000 0.131848 0.000000
# 6 0.000000 0.000000 0.000000 0.000000 0.000000 0.032269
#
#
# Mechanical properties :
#
#
# Convention : Reuss Voigt Hill
#
# Bulk Modulus (GPa) = 33.87889 41.52949 37.70419
# Shear Modulus (GPa) = 19.03994 28.62750 23.83372
#
# Velocity S-wave (km/s) = 3.01364 3.69531 3.37174
# Velocity P-wave (km/s) = 5.31692 6.16576 5.75700
#
# Compressibility (1/GPa) = 0.02951690
#
# Stress axis : x y z
#
# Youngs Moduli (GPa) = 98.77015 78.21665 62.74324
#
# Poissons Ratio (x) = 0.33069 0.23949
# Poissons Ratio (y) = 0.41758 -0.21204
# Poissons Ratio (z) = 0.37700 -0.26433
#
# Static dielectric constant tensor:
#      x y z
#    x 1.742990 0.000000 0.000000 
#    y 0.000000 1.784890 0.000000 
#    z 0.000000 0.000000 1.725640 
# 
# From -- ./inp_files/17882.got.cif
#   From: 2010.05.17/outbox.cif.g08.bks.cpg/sg62_9_cif.got.tgz:17882.got - 2010.06.03 15:25:27.
