data_PCOD9465949
_publ_section_title
;
Structure prediction by ZEFSAII (Michael W. Deem and Ramdas Pophale) SiO2 
 PCOD9465949
Probable space group: P N M A
;
_chemical_formula_sum "Si O2"
_cell_formula_units_Z 36
_cell_length_a 5.027481
_cell_length_b 23.885737
_cell_length_c 15.199456
_cell_angle_alpha 90.000000
_cell_angle_beta 90.000000
_cell_angle_gamma 90.000000
_cell_volume 1825.228026
_symmetry_space_group_name_H-M "P N M A"
_symmetry_group_IT_number 62
_symmetry_cell_setting 'orthorhombic'
loop_
_space_group_symop_operation_xyz
x,y,z
1/2-x,-y,1/2+z
1/2+x,1/2-y,1/2-z
-x,1/2+y,-z
-x,-y,-z
1/2+x,y,1/2-z
1/2-x,1/2+y,1/2+z
x,1/2-y,z
loop_
_atom_site_type_symbol
_atom_site_label
_atom_site_fract_x
_atom_site_fract_y
_atom_site_fract_z
Si Si1 0.505042 0.849620 0.932003
Si Si2 0.727515 0.569449 0.307319
Si Si3 0.996280 0.876116 0.026785
Si Si4 0.699129 0.968347 0.932803
Si Si5 0.671240 0.750000 0.806271
O O1 0.206437 0.844660 0.965455
O O2 0.594977 0.804262 0.862656
O O3 0.709019 0.847877 0.015309
O O4 0.546386 0.913062 0.896873
O O5 0.529689 0.574263 0.224925
O O6 0.626766 0.614150 0.379041
O O7 0.709984 0.509614 0.356328
O O8 0.937041 0.938106 0.986333
O O9 0.500000 0.000000 0.000000
O O10 0.477291 0.750000 0.721939
#
# Coordination Sequence:
#
# PCOD9465949 Si02
#       5
#     8   8   8   8   4
#     4  10  23  38  67  79 119 174 205 246 311 364
#     4  12  23  32  54  90 123 152 192 256 309 355
#     4  10  21  40  58  82 117 169 205 244 305 392
#     4  10  21  38  62  83 128 166 214 248 302 391
#     4  12  26  46  64  98 132 154 216 276 302 354
#
# _framework density 19.723565000000001
#
# number of rings (size 3 to 8) (size 9 to 14) (size 15 to 20)
#    1.333    0.000    2.222    4.667    3.111    1.778 
#    0.000    0.000    0.000    0.000    0.000   15.556 
#    0.000    0.000    0.000    0.000    0.000    0.000 
#
# Total GULP energy -200683.364813 kJ/mol
# GULP energy per Si atom -5574.537911 kJ/mol
# Density = 1.967867 g / cm^3
# Si number density = 19.723565 Si / 1000 Ang^3
#
#
#
# Elastic Constant Matrix: (Units=GPa)
#
#
# Indices 1 2 3 4 5 6 
#
# 1 81.3489 -2.1958 -4.0434 0.0000 0.0000 0.0000
# 2 -2.1958 60.8829 17.9734 0.0000 0.0000 0.0000
# 3 -4.0434 17.9734 44.7715 0.0000 0.0000 0.0000
# 4 0.0000 0.0000 0.0000 28.0766 0.0000 0.0000
# 5 0.0000 0.0000 0.0000 0.0000 48.0840 0.0000
# 6 0.0000 0.0000 0.0000 0.0000 0.0000 -9.4535
#
#
#
# Elastic Compliance Matrix: (Units=1/GPa)
#
#
# Indices 1 2 3 4 5 6 
#
# 1 0.012349 0.000132 0.001062 0.000000 0.000000 0.000000
# 2 0.000132 0.018635 -0.007469 0.000000 0.000000 0.000000
# 3 0.001062 -0.007469 0.025430 0.000000 0.000000 0.000000
# 4 0.000000 0.000000 0.000000 0.035617 0.000000 0.000000
# 5 0.000000 0.000000 0.000000 0.000000 0.020797 0.000000
# 6 0.000000 0.000000 0.000000 0.000000 0.000000 -0.105781
#
#
# Mechanical properties :
#
#
# Convention : Reuss Voigt Hill
#
# Bulk Modulus (GPa) = 22.79768 23.38574 23.09171
# Shear Modulus (GPa) = 146.12248 25.02602 85.57425
#
# Velocity S-wave (km/s) = 8.61662 3.56594 6.59401
# Velocity P-wave (km/s) = 10.51563 5.37002 8.34912
#
# Compressibility (1/GPa) = 0.04386411
#
# Stress axis : x y z
#
# Youngs Moduli (GPa) = 80.97764 53.66346 39.32368
#
# Poissons Ratio (x) = -0.00707 -0.04178
# Poissons Ratio (y) = -0.01067 0.29371
# Poissons Ratio (z) = -0.08603 0.40081
#
# Static dielectric constant tensor:
#      x y z
#    x 1.721680 0.000000 0.000000 
#    y 0.000000 1.702070 0.000000 
#    z 0.000000 0.000000 1.695260 
# 
# From -- ./inp_files/10681.got.cif
#   From: 2010.05.17/outbox.cif.g08.bks.cpg/sg62_6_cif.got.tgz:10681.got - 2010.06.03 15:25:27.
