data_PCOD9465736
_publ_section_title
;
Structure prediction by ZEFSAII (Michael W. Deem and Ramdas Pophale) SiO2 
 PCOD9465736
Probable space group: P N M A
;
_chemical_formula_sum "Si O2"
_cell_formula_units_Z 40
_cell_length_a 7.565293
_cell_length_b 13.746878
_cell_length_c 18.254820
_cell_angle_alpha 90.000000
_cell_angle_beta 90.000000
_cell_angle_gamma 90.000000
_cell_volume 1898.485944
_symmetry_space_group_name_H-M "P N M A"
_symmetry_group_IT_number 62
_symmetry_cell_setting 'orthorhombic'
loop_
_space_group_symop_operation_xyz
x,y,z
1/2-x,-y,1/2+z
1/2+x,1/2-y,1/2-z
-x,1/2+y,-z
-x,-y,-z
1/2+x,y,1/2-z
1/2-x,1/2+y,1/2+z
x,1/2-y,z
loop_
_atom_site_type_symbol
_atom_site_label
_atom_site_fract_x
_atom_site_fract_y
_atom_site_fract_z
Si Si1 0.582135 0.367873 0.466917
Si Si2 0.521046 0.136871 0.310026
Si Si3 0.634886 0.864096 0.093333
Si Si4 0.643469 0.443253 0.161019
Si Si5 0.679059 0.134051 0.010086
O O1 0.574834 0.250000 0.461138
O O2 0.619913 0.401011 0.383301
O O3 0.730117 0.387652 0.526940
O O4 0.384405 0.399054 0.492441
O O5 0.565728 0.250000 0.298160
O O6 0.318493 0.122329 0.332166
O O7 0.538800 0.081777 0.233741
O O8 0.655019 0.750000 0.112080
O O9 0.676361 0.941634 0.156041
O O10 0.437395 0.880636 0.062167
O O11 0.580514 0.413199 0.079886
O O12 0.679305 0.250000 0.022347
#
# Coordination Sequence:
#
# PCOD9465736 Si02
#       5
#     8   8   8   8   8
#     4   8  17  35  58  85 115 150 190 240 297 347
#     4  10  21  37  58  86 120 152 191 245 306 357
#     4  10  21  38  60  86 117 157 201 244 289 349
#     4  11  22  37  56  89 118 155 198 239 296 360
#     4   9  18  34  57  85 116 145 188 247 297 344
#
# _framework density 21.069420999999998
#
# number of rings (size 3 to 8) (size 9 to 14) (size 15 to 20)
#    0.000    2.400    0.000    3.600    2.800    3.200 
#    3.600    1.000    0.000    0.000    0.000    0.000 
#    0.000    0.000    0.000    0.000    0.000    0.000 
#
# Total GULP energy -223094.437035 kJ/mol
# GULP energy per Si atom -5577.360926 kJ/mol
# Density = 2.102147 g / cm^3
# Si number density = 21.069421 Si / 1000 Ang^3
#
#
#
# Elastic Constant Matrix: (Units=GPa)
#
#
# Indices 1 2 3 4 5 6 
#
# 1 47.3216 8.1150 7.6540 0.0000 0.0000 0.0000
# 2 8.1150 86.8936 34.7252 0.0000 0.0000 0.0000
# 3 7.6540 34.7252 48.8053 0.0000 0.0000 0.0000
# 4 0.0000 0.0000 0.0000 35.2658 0.0000 0.0000
# 5 0.0000 0.0000 0.0000 0.0000 8.1797 0.0000
# 6 0.0000 0.0000 0.0000 0.0000 0.0000 21.3484
#
#
#
# Elastic Compliance Matrix: (Units=1/GPa)
#
#
# Indices 1 2 3 4 5 6 
#
# 1 0.021736 -0.000933 -0.002745 0.000000 0.000000 0.000000
# 2 -0.000933 0.016121 -0.011324 0.000000 0.000000 0.000000
# 3 -0.002745 -0.011324 0.028977 0.000000 0.000000 0.000000
# 4 0.000000 0.000000 0.000000 0.028356 0.000000 0.000000
# 5 0.000000 0.000000 0.000000 0.000000 0.122253 0.000000
# 6 0.000000 0.000000 0.000000 0.000000 0.000000 0.046842
#
#
# Mechanical properties :
#
#
# Convention : Reuss Voigt Hill
#
# Bulk Modulus (GPa) = 27.15150 31.55655 29.35402
# Shear Modulus (GPa) = 16.30976 21.79388 19.05182
#
# Velocity S-wave (km/s) = 2.78528 3.21967 3.01032
# Velocity P-wave (km/s) = 4.82269 5.36951 5.10343
#
# Compressibility (1/GPa) = 0.03683037
#
# Stress axis : x y z
#
# Youngs Moduli (GPa) = 46.00668 62.03201 34.51026
#
# Poissons Ratio (x) = 0.05787 0.09473
# Poissons Ratio (y) = 0.04292 0.39078
# Poissons Ratio (z) = 0.12629 0.70243
#
# Static dielectric constant tensor:
#      x y z
#    x 1.796080 0.000000 0.000000 
#    y 0.000000 1.791840 0.000000 
#    z 0.000000 0.000000 1.848780 
# 
# From -- ./inp_files/16641.got.cif
#   From: 2010.05.17/outbox.cif.g08.bks.cpg/sg62_9_cif.got.tgz:16641.got - 2010.06.03 15:25:27.
