data_PCOD9465064
_publ_section_title
;
Structure prediction by ZEFSAII (Michael W. Deem and Ramdas Pophale) SiO2 
 PCOD9465064
Probable space group: P N M A
;
_chemical_formula_sum "Si O2"
_cell_formula_units_Z 56
_cell_length_a 10.398787
_cell_length_b 21.001698
_cell_length_c 12.694933
_cell_angle_alpha 90.000000
_cell_angle_beta 90.000000
_cell_angle_gamma 90.000000
_cell_volume 2772.474145
_symmetry_space_group_name_H-M "P N M A"
_symmetry_group_IT_number 62
_symmetry_cell_setting 'orthorhombic'
loop_
_space_group_symop_operation_xyz
x,y,z
1/2-x,-y,1/2+z
1/2+x,1/2-y,1/2-z
-x,1/2+y,-z
-x,-y,-z
1/2+x,y,1/2-z
1/2-x,1/2+y,1/2+z
x,1/2-y,z
loop_
_atom_site_type_symbol
_atom_site_label
_atom_site_fract_x
_atom_site_fract_y
_atom_site_fract_z
Si Si1 0.723451 0.098389 0.850027
Si Si2 0.113104 0.505153 0.278457
Si Si3 0.689207 0.519229 0.006975
Si Si4 0.580631 0.821489 0.449695
Si Si5 0.500303 0.322833 0.310755
Si Si6 0.275204 0.392771 0.187490
Si Si7 0.076771 0.435107 0.844688
O O1 0.826820 0.070471 0.766160
O O2 0.778517 0.161144 0.903984
O O3 0.606386 0.098511 0.768774
O O4 0.710533 0.045104 0.940718
O O5 0.082812 0.509267 0.401561
O O6 0.216251 0.450258 0.257497
O O7 0.997284 0.501165 0.195494
O O8 0.680869 0.575460 0.922371
O O9 0.811184 0.538940 0.079753
O O10 0.542238 0.750000 0.415578
O O11 0.567435 0.823350 0.575026
O O12 0.494615 0.880441 0.410108
O O13 0.509530 0.250000 0.273776
O O14 0.400944 0.360282 0.236236
O O15 0.646677 0.349030 0.321881
#
# Coordination Sequence:
#
# PCOD9465064 Si02
#       7
#     8   8   8   8   8   8   8
#     4   9  20  33  56  87 121 153 202 258 301 374
#     4   9  21  33  58  92 125 155 201 251 315 373
#     4  10  20  38  58  91 125 160 201 253 325 371
#     4  10  21  38  60  82 114 165 209 251 308 370
#     4  11  24  43  64  91 122 165 217 259 303 375
#     4  11  23  39  67  90 128 166 204 258 322 369
#     4  10  20  38  59  88 120 159 208 255 310 381
#
# _framework density 20.198564999999999
#
# number of rings (size 3 to 8) (size 9 to 14) (size 15 to 20)
#    0.000    2.000    1.429    1.286    8.000    2.857 
#    2.571    0.000    0.000    0.857    0.000    0.000 
#    0.000    0.000    0.000    0.000    0.000    0.000 
#
# Total GULP energy -311815.431653 kJ/mol
# GULP energy per Si atom -5568.132708 kJ/mol
# Density = 2.015259 g / cm^3
# Si number density = 20.198565 Si / 1000 Ang^3
#
#
#
# Elastic Constant Matrix: (Units=GPa)
#
#
# Indices 1 2 3 4 5 6 
#
# 1 58.1814 23.9024 19.0384 0.0000 0.0000 0.0000
# 2 23.9024 82.7406 35.7533 0.0000 0.0000 0.0000
# 3 19.0384 35.7533 124.1933 0.0000 0.0000 0.0000
# 4 0.0000 0.0000 0.0000 25.5647 0.0000 0.0000
# 5 0.0000 0.0000 0.0000 0.0000 40.0317 0.0000
# 6 0.0000 0.0000 0.0000 0.0000 0.0000 19.1081
#
#
#
# Elastic Compliance Matrix: (Units=1/GPa)
#
#
# Indices 1 2 3 4 5 6 
#
# 1 0.019771 -0.005027 -0.001584 0.000000 0.000000 0.000000
# 2 -0.005027 0.015081 -0.003571 0.000000 0.000000 0.000000
# 3 -0.001584 -0.003571 0.009323 0.000000 0.000000 0.000000
# 4 0.000000 0.000000 0.000000 0.039116 0.000000 0.000000
# 5 0.000000 0.000000 0.000000 0.000000 0.024980 0.000000
# 6 0.000000 0.000000 0.000000 0.000000 0.000000 0.052334
#
#
# Mechanical properties :
#
#
# Convention : Reuss Voigt Hill
#
# Bulk Modulus (GPa) = 41.99652 46.94486 44.47069
# Shear Modulus (GPa) = 26.46811 29.36898 27.91854
#
# Velocity S-wave (km/s) = 3.62387 3.81729 3.72183
# Velocity P-wave (km/s) = 6.19248 6.53614 6.36663
#
# Compressibility (1/GPa) = 0.02381150
#
# Stress axis : x y z
#
# Youngs Moduli (GPa) = 50.57877 66.30702 107.26433
#
# Poissons Ratio (x) = 0.33334 0.16986
# Poissons Ratio (y) = 0.25427 0.38304
# Poissons Ratio (z) = 0.08010 0.23678
#
# Static dielectric constant tensor:
#      x y z
#    x 2.018990 0.000000 0.000000 
#    y 0.000000 1.702340 0.000000 
#    z 0.000000 0.000000 1.732340 
# 
# From -- ./inp_files/12427.got.cif
#   From: 2010.05.17/outbox.cif.g08.bks.cpg/sg62_7_cif.got.tgz:12427.got - 2010.06.03 15:25:27.
