data_PCOD9465773
_publ_section_title
;
Structure prediction by ZEFSAII (Michael W. Deem and Ramdas Pophale) SiO2 
 PCOD9465773
Probable space group: P N M A
;
_chemical_formula_sum "Si O2"
_cell_formula_units_Z 48
_cell_length_a 12.929302
_cell_length_b 20.789936
_cell_length_c 8.678264
_cell_angle_alpha 90.000000
_cell_angle_beta 90.000000
_cell_angle_gamma 90.000000
_cell_volume 2332.711819
_symmetry_space_group_name_H-M "P N M A"
_symmetry_group_IT_number 62
_symmetry_cell_setting 'orthorhombic'
loop_
_space_group_symop_operation_xyz
x,y,z
1/2-x,-y,1/2+z
1/2+x,1/2-y,1/2-z
-x,1/2+y,-z
-x,-y,-z
1/2+x,y,1/2-z
1/2-x,1/2+y,1/2+z
x,1/2-y,z
loop_
_atom_site_type_symbol
_atom_site_label
_atom_site_fract_x
_atom_site_fract_y
_atom_site_fract_z
Si Si1 0.075372 0.676854 0.215744
Si Si2 0.143249 0.487808 0.350450
Si Si3 0.159246 0.874966 0.512349
Si Si4 0.963043 0.415576 0.208940
Si Si5 0.812342 0.060536 0.949247
Si Si6 0.606893 0.326202 0.495261
O O1 0.101581 0.750000 0.173616
O O2 0.088854 0.667011 0.397292
O O3 0.152247 0.626415 0.132695
O O4 0.960197 0.663761 0.151565
O O5 0.149140 0.553362 0.445307
O O6 0.208390 0.437632 0.451165
O O7 0.029168 0.463562 0.313832
O O8 0.191420 0.506365 0.183403
O O9 0.117629 0.877076 0.685453
O O10 0.276641 0.851355 0.497310
O O11 0.901803 0.452930 0.074936
O O12 0.043352 0.366520 0.130875
O O13 0.607411 0.250000 0.462945
#
# Coordination Sequence:
#
# PCOD9465773 Si02
#       6
#     8   8   8   8   8   8
#     4   9  21  41  63  86 115 158 205 248 300 359
#     4  11  22  37  58  88 121 156 199 247 302 362
#     4  11  23  38  63  91 121 158 201 250 301 360
#     4  11  22  38  57  87 120 158 200 245 301 361
#     4  10  21  37  60  86 120 161 199 249 306 361
#     4  10  22  41  61  84 119 157 197 247 300 355
#
# _framework density 20.576909000000001
#
# number of rings (size 3 to 8) (size 9 to 14) (size 15 to 20)
#    0.000    1.667    0.000    4.500    0.000    6.667 
#    0.000    4.167    0.000    0.000    0.000    0.000 
#    0.000    0.000    0.000    0.000    0.000    0.000 
#
# Total GULP energy -268139.085076 kJ/mol
# GULP energy per Si atom -5586.230939 kJ/mol
# Density = 2.053007 g / cm^3
# Si number density = 20.576909 Si / 1000 Ang^3
#
#
#
# Elastic Constant Matrix: (Units=GPa)
#
#
# Indices 1 2 3 4 5 6 
#
# 1 45.2096 4.5727 38.4944 0.0000 0.0000 0.0000
# 2 4.5727 42.5074 8.3385 0.0000 0.0000 0.0000
# 3 38.4944 8.3385 96.0409 0.0000 0.0000 0.0000
# 4 0.0000 0.0000 0.0000 22.3516 0.0000 0.0000
# 5 0.0000 0.0000 0.0000 0.0000 38.5427 0.0000
# 6 0.0000 0.0000 0.0000 0.0000 0.0000 26.3824
#
#
#
# Elastic Compliance Matrix: (Units=1/GPa)
#
#
# Indices 1 2 3 4 5 6 
#
# 1 0.033620 -0.000990 -0.013389 0.000000 0.000000 0.000000
# 2 -0.000990 0.023962 -0.001684 0.000000 0.000000 0.000000
# 3 -0.013389 -0.001684 0.015925 0.000000 0.000000 0.000000
# 4 0.000000 0.000000 0.000000 0.044739 0.000000 0.000000
# 5 0.000000 0.000000 0.000000 0.000000 0.025945 0.000000
# 6 0.000000 0.000000 0.000000 0.000000 0.000000 0.037904
#
#
# Mechanical properties :
#
#
# Convention : Reuss Voigt Hill
#
# Bulk Modulus (GPa) = 24.16568 31.84099 28.00334
# Shear Modulus (GPa) = 21.92834 26.27883 24.10358
#
# Velocity S-wave (km/s) = 3.26801 3.57753 3.42627
# Velocity P-wave (km/s) = 5.09995 5.70725 5.41212
#
# Compressibility (1/GPa) = 0.04138100
#
# Stress axis : x y z
#
# Youngs Moduli (GPa) = 29.74429 41.73258 62.79429
#
# Poissons Ratio (x) = 0.04132 0.84077
# Poissons Ratio (y) = 0.02945 0.10572
# Poissons Ratio (z) = 0.39826 0.07026
#
# Static dielectric constant tensor:
#      x y z
#    x 1.731800 0.000000 0.000000 
#    y 0.000000 1.729880 0.000000 
#    z 0.000000 0.000000 1.763220 
# 
# From -- ./inp_files/5311.got.cif
#   From: 2010.05.17/outbox.cif.g08.bks.cpg/sg62_3_cif.got.tgz:5311.got - 2010.06.03 15:25:27.
