data_PCOD9465076
_publ_section_title
;
Structure prediction by ZEFSAII (Michael W. Deem and Ramdas Pophale) SiO2 
 PCOD9465076
Probable space group: P N M A
;
_chemical_formula_sum "Si O2"
_cell_formula_units_Z 40
_cell_length_a 8.216721
_cell_length_b 8.275852
_cell_length_c 24.081281
_cell_angle_alpha 90.000000
_cell_angle_beta 90.000000
_cell_angle_gamma 90.000000
_cell_volume 1637.535944
_symmetry_space_group_name_H-M "P N M A"
_symmetry_group_IT_number 62
_symmetry_cell_setting 'orthorhombic'
loop_
_space_group_symop_operation_xyz
x,y,z
1/2-x,-y,1/2+z
1/2+x,1/2-y,1/2-z
-x,1/2+y,-z
-x,-y,-z
1/2+x,y,1/2-z
1/2-x,1/2+y,1/2+z
x,1/2-y,z
loop_
_atom_site_type_symbol
_atom_site_label
_atom_site_fract_x
_atom_site_fract_y
_atom_site_fract_z
Si Si1 0.821794 0.061882 0.564450
Si Si2 0.348877 0.062951 0.534837
Si Si3 0.946629 0.055878 0.732858
Si Si4 0.632444 0.560442 0.667153
Si Si5 0.154276 0.443609 0.632779
O O1 0.812691 0.250000 0.549489
O O2 0.989487 0.032402 0.596692
O O3 0.797895 0.958960 0.509207
O O4 0.679458 0.022299 0.609057
O O5 0.377748 0.250000 0.544798
O O6 0.296037 0.986147 0.593646
O O7 0.500000 0.000000 0.500000
O O8 0.924313 0.250000 0.727574
O O9 0.100081 0.003855 0.693965
O O10 0.987499 0.014150 0.796162
O O11 0.792307 0.971304 0.705310
O O12 0.608703 0.750000 0.658853
O O13 0.180371 0.250000 0.637414
#
# Coordination Sequence:
#
# PCOD9465076 Si02
#       5
#     8   8   8   8   8
#     4  10  20  38  60  82 107 145 190 232 281 341
#     4  11  22  37  55  82 115 147 184 232 283 336
#     4  10  20  38  60  83 111 150 192 232 279 338
#     4  11  22  37  57  86 117 148 187 236 285 334
#     4   8  18  36  59  81 106 142 187 228 271 327
#
# _framework density 24.426943999999999
#
# number of rings (size 3 to 8) (size 9 to 14) (size 15 to 20)
#    0.000    2.000    0.000    5.400    0.000    1.600 
#    0.000   17.000    0.000    0.000    0.000    0.000 
#    0.000    0.000    0.000    0.000    0.000    0.000 
#
# Total GULP energy -223727.963720 kJ/mol
# GULP energy per Si atom -5593.199093 kJ/mol
# Density = 2.437135 g / cm^3
# Si number density = 24.426944 Si / 1000 Ang^3
#
#
#
# Elastic Constant Matrix: (Units=GPa)
#
#
# Indices 1 2 3 4 5 6 
#
# 1 38.1090 10.2950 8.7976 0.0000 0.0000 0.0000
# 2 10.2950 50.9305 -9.1787 0.0000 0.0000 0.0000
# 3 8.7976 -9.1787 133.0682 0.0000 0.0000 0.0000
# 4 0.0000 0.0000 0.0000 24.7671 0.0000 0.0000
# 5 0.0000 0.0000 0.0000 0.0000 51.0949 0.0000
# 6 0.0000 0.0000 0.0000 0.0000 0.0000 27.0339
#
#
#
# Elastic Compliance Matrix: (Units=1/GPa)
#
#
# Indices 1 2 3 4 5 6 
#
# 1 0.028438 -0.006164 -0.002305 0.000000 0.000000 0.000000
# 2 -0.006164 0.021218 0.001871 0.000000 0.000000 0.000000
# 3 -0.002305 0.001871 0.007796 0.000000 0.000000 0.000000
# 4 0.000000 0.000000 0.000000 0.040376 0.000000 0.000000
# 5 0.000000 0.000000 0.000000 0.000000 0.019571 0.000000
# 6 0.000000 0.000000 0.000000 0.000000 0.000000 0.036991
#
#
# Mechanical properties :
#
#
# Convention : Reuss Voigt Hill
#
# Bulk Modulus (GPa) = 22.59587 26.88172 24.73879
# Shear Modulus (GPa) = 27.42157 34.72545 31.07351
#
# Velocity S-wave (km/s) = 3.35415 3.77451 3.57052
# Velocity P-wave (km/s) = 4.92655 5.47948 5.21036
#
# Compressibility (1/GPa) = 0.04425587
#
# Stress axis : x y z
#
# Youngs Moduli (GPa) = 35.16437 47.13036 128.26409
#
# Poissons Ratio (x) = 0.29050 0.29569
# Poissons Ratio (y) = 0.21675 -0.23999
# Poissons Ratio (z) = 0.08106 -0.08818
#
# Static dielectric constant tensor:
#      x y z
#    x 2.086830 0.000000 0.000000 
#    y 0.000000 1.827130 0.000000 
#    z 0.000000 0.000000 1.982250 
# 
# From -- ./inp_files/28568.got.cif
#   From: 2010.05.17/outbox.cif.g08.bks.cpg/sg62_15_cif.got.tgz:28568.got - 2010.06.03 15:25:27.
