data_PCOD9465590
_publ_section_title
;
Structure prediction by ZEFSAII (Michael W. Deem and Ramdas Pophale) SiO2 
 PCOD9465590
Probable space group: P N M A
;
_chemical_formula_sum "Si O2"
_cell_formula_units_Z 48
_cell_length_a 9.533260
_cell_length_b 8.682962
_cell_length_c 31.617983
_cell_angle_alpha 90.000000
_cell_angle_beta 90.000000
_cell_angle_gamma 90.000000
_cell_volume 2617.239702
_symmetry_space_group_name_H-M "P N M A"
_symmetry_group_IT_number 62
_symmetry_cell_setting 'orthorhombic'
loop_
_space_group_symop_operation_xyz
x,y,z
1/2-x,-y,1/2+z
1/2+x,1/2-y,1/2-z
-x,1/2+y,-z
-x,-y,-z
1/2+x,y,1/2-z
1/2-x,1/2+y,1/2+z
x,1/2-y,z
loop_
_atom_site_type_symbol
_atom_site_label
_atom_site_fract_x
_atom_site_fract_y
_atom_site_fract_z
Si Si1 0.087647 0.063223 0.707925
Si Si2 0.903270 0.064926 0.036797
Si Si3 0.911562 0.065265 0.132520
Si Si4 0.415779 0.934948 0.870647
Si Si5 0.587825 0.935505 0.290356
Si Si6 0.409137 0.066160 0.961821
O O1 0.084065 0.250000 0.705951
O O2 0.250024 0.014193 0.711243
O O3 0.999615 0.013651 0.749170
O O4 0.013648 0.996626 0.666459
O O5 0.894706 0.250000 0.034357
O O6 0.953742 0.024755 0.084374
O O7 0.748932 0.994465 0.032574
O O8 0.000000 0.000000 0.000000
O O9 0.918496 0.250000 0.136484
O O10 0.747465 0.020269 0.137717
O O11 0.009298 0.991612 0.167730
O O12 0.420959 0.750000 0.872927
O O13 0.457298 0.003655 0.916094
O O14 0.587634 0.750000 0.290229
O O15 0.412661 0.250000 0.961975
O O16 0.500000 0.000000 0.000000
#
# Coordination Sequence:
#
# PCOD9465590 Si02
#       6
#     8   8   8   8   8   8
#     4  10  21  37  56  82 111 144 185 230 278 331
#     4  10  21  38  58  84 116 152 193 237 284 339
#     4   9  20  37  56  79 110 144 183 228 277 330
#     4  10  21  38  58  82 111 146 186 230 279 336
#     4  10  21  36  57  82 110 144 186 230 276 332
#     4  11  22  38  60  85 114 150 189 235 285 338
#
# _framework density 18.339932000000001
#
# number of rings (size 3 to 8) (size 9 to 14) (size 15 to 20)
#    0.000    2.000    0.000    4.500    0.000    8.000 
#    0.000    3.333    0.000    0.000    0.000    0.000 
#    0.000    0.000    0.000    0.000    0.000    0.000 
#
# Total GULP energy -268106.146851 kJ/mol
# GULP energy per Si atom -5585.544726 kJ/mol
# Density = 1.829819 g / cm^3
# Si number density = 18.339932 Si / 1000 Ang^3
#
#
#
# Elastic Constant Matrix: (Units=GPa)
#
#
# Indices 1 2 3 4 5 6 
#
# 1 130.3136 46.3968 129.0097 0.0000 0.0000 0.0000
# 2 46.3968 60.2609 60.4206 0.0000 0.0000 0.0000
# 3 129.0097 60.4206 209.8219 0.0000 0.0000 0.0000
# 4 0.0000 0.0000 0.0000 37.3846 0.0000 0.0000
# 5 0.0000 0.0000 0.0000 0.0000 43.0713 0.0000
# 6 0.0000 0.0000 0.0000 0.0000 0.0000 31.6186
#
#
#
# Elastic Compliance Matrix: (Units=1/GPa)
#
#
# Indices 1 2 3 4 5 6 
#
# 1 0.020410 -0.004403 -0.011281 0.000000 0.000000 0.000000
# 2 -0.004403 0.024281 -0.004285 0.000000 0.000000 0.000000
# 3 -0.011281 -0.004285 0.012936 0.000000 0.000000 0.000000
# 4 0.000000 0.000000 0.000000 0.026749 0.000000 0.000000
# 5 0.000000 0.000000 0.000000 0.000000 0.023217 0.000000
# 6 0.000000 0.000000 0.000000 0.000000 0.000000 0.031627
#
#
# Mechanical properties :
#
#
# Convention : Reuss Voigt Hill
#
# Bulk Modulus (GPa) = 56.53342 96.89453 76.71398
# Shear Modulus (GPa) = 27.01931 33.38618 30.20274
#
# Velocity S-wave (km/s) = 3.84246 4.27125 4.06252
# Velocity P-wave (km/s) = 7.11184 8.79045 7.99532
#
# Compressibility (1/GPa) = 0.01768865
#
# Stress axis : x y z
#
# Youngs Moduli (GPa) = 48.99660 41.18522 77.30436
#
# Poissons Ratio (x) = 0.18134 0.87207
# Poissons Ratio (y) = 0.21574 0.33122
# Poissons Ratio (z) = 0.55273 0.17646
#
# Static dielectric constant tensor:
#      x y z
#    x 1.605660 0.000000 0.000000 
#    y 0.000000 1.618540 0.000000 
#    z 0.000000 0.000000 1.609590 
# 
# From -- ./inp_files/32030.got.cif
#   From: 2010.05.17/outbox.cif.g08.bks.cpg/sg62_17_cif.got.tgz:32030.got - 2010.06.03 15:25:27.
