data_PCOD9465129
_publ_section_title
;
Structure prediction by ZEFSAII (Michael W. Deem and Ramdas Pophale) SiO2 
 PCOD9465129
Probable space group: P N M A
;
_chemical_formula_sum "Si O2"
_cell_formula_units_Z 48
_cell_length_a 31.389557
_cell_length_b 8.831231
_cell_length_c 9.327947
_cell_angle_alpha 90.000000
_cell_angle_beta 90.000000
_cell_angle_gamma 90.000000
_cell_volume 2585.785532
_symmetry_space_group_name_H-M "P N M A"
_symmetry_group_IT_number 62
_symmetry_cell_setting 'orthorhombic'
loop_
_space_group_symop_operation_xyz
x,y,z
1/2-x,-y,1/2+z
1/2+x,1/2-y,1/2-z
-x,1/2+y,-z
-x,-y,-z
1/2+x,y,1/2-z
1/2-x,1/2+y,1/2+z
x,1/2-y,z
loop_
_atom_site_type_symbol
_atom_site_label
_atom_site_fract_x
_atom_site_fract_y
_atom_site_fract_z
Si Si1 0.038954 0.930892 0.909852
Si Si2 0.961469 0.932238 0.407711
Si Si3 0.117534 0.069840 0.077596
Si Si4 0.876956 0.569057 0.585840
Si Si5 0.713145 0.572457 0.087004
Si Si6 0.207503 0.927559 0.071432
O O1 0.035452 0.750000 0.905487
O O2 0.037832 0.998179 0.750285
O O3 0.082342 0.982028 0.987391
O O4 0.000000 0.000000 0.000000
O O5 0.965131 0.750000 0.400892
O O6 0.917060 0.969519 0.487273
O O7 0.000000 0.000000 0.500000
O O8 0.111790 0.250000 0.060196
O O9 0.113292 0.032672 0.247295
O O10 0.165112 0.021029 0.033597
O O11 0.869997 0.750000 0.578786
O O12 0.833401 0.487132 0.542344
O O13 0.717104 0.750000 0.054651
O O14 0.715307 0.551664 0.258695
O O15 0.751290 0.483328 0.012907
O O16 0.199708 0.750000 0.045651
#
# Coordination Sequence:
#
# PCOD9465129 Si02
#       6
#     8   8   8   8   8   8
#     4  12  25  41  61  87 118 154 195 239 290 345
#     4  11  23  40  62  89 120 154 193 239 291 347
#     4  10  20  38  62  87 115 149 191 238 289 344
#     4   9  20  38  60  84 113 149 188 234 288 344
#     4  10  21  36  57  84 113 149 192 237 285 338
#     4  10  21  37  57  83 115 151 191 235 286 342
#
# _framework density 18.563023999999999
#
# number of rings (size 3 to 8) (size 9 to 14) (size 15 to 20)
#    0.000    1.667    0.000    4.500    0.000    6.667 
#    0.000    1.667    0.000    0.000    0.000    0.000 
#    0.000    0.000    0.000    0.000    0.000    0.000 
#
# Total GULP energy -268335.143806 kJ/mol
# GULP energy per Si atom -5590.315496 kJ/mol
# Density = 1.852077 g / cm^3
# Si number density = 18.563024 Si / 1000 Ang^3
#
#
#
# Elastic Constant Matrix: (Units=GPa)
#
#
# Indices 1 2 3 4 5 6 
#
# 1 132.9916 64.3050 72.3110 0.0000 0.0000 0.0000
# 2 64.3050 90.4341 55.9367 0.0000 0.0000 0.0000
# 3 72.3110 55.9367 89.1567 0.0000 0.0000 0.0000
# 4 0.0000 0.0000 0.0000 31.2977 0.0000 0.0000
# 5 0.0000 0.0000 0.0000 0.0000 33.7147 0.0000
# 6 0.0000 0.0000 0.0000 0.0000 0.0000 41.3290
#
#
#
# Elastic Compliance Matrix: (Units=1/GPa)
#
#
# Indices 1 2 3 4 5 6 
#
# 1 0.014736 -0.005043 -0.008788 0.000000 0.000000 0.000000
# 2 -0.005043 0.019796 -0.008330 0.000000 0.000000 0.000000
# 3 -0.008788 -0.008330 0.023570 0.000000 0.000000 0.000000
# 4 0.000000 0.000000 0.000000 0.031951 0.000000 0.000000
# 5 0.000000 0.000000 0.000000 0.000000 0.029661 0.000000
# 6 0.000000 0.000000 0.000000 0.000000 0.000000 0.024196
#
#
# Mechanical properties :
#
#
# Convention : Reuss Voigt Hill
#
# Bulk Modulus (GPa) = 72.56594 77.52089 75.04341
# Shear Modulus (GPa) = 25.93048 29.27025 27.60037
#
# Velocity S-wave (km/s) = 3.74155 3.97521 3.86015
# Velocity P-wave (km/s) = 7.60540 7.93229 7.77057
#
# Compressibility (1/GPa) = 0.01378057
#
# Stress axis : x y z
#
# Youngs Moduli (GPa) = 67.86306 50.51571 42.42718
#
# Poissons Ratio (x) = 0.25473 0.37284
# Poissons Ratio (y) = 0.34220 0.35342
# Poissons Ratio (z) = 0.59636 0.42080
#
# Static dielectric constant tensor:
#      x y z
#    x 1.606520 0.000000 0.000000 
#    y 0.000000 1.629410 0.000000 
#    z 0.000000 0.000000 1.618050 
# 
# From -- ./inp_files/10180.got.cif
#   From: 2010.05.17/outbox.cif.g08.bks.cpg/sg62_6_cif.got.tgz:10180.got - 2010.06.03 15:25:27.
