data_PCOD9465682
_publ_section_title
;
Structure prediction by ZEFSAII (Michael W. Deem and Ramdas Pophale) SiO2 
 PCOD9465682
Probable space group: P N M A
;
_chemical_formula_sum "Si O2"
_cell_formula_units_Z 64
_cell_length_a 9.879878
_cell_length_b 16.610054
_cell_length_c 21.047690
_cell_angle_alpha 90.000000
_cell_angle_beta 90.000000
_cell_angle_gamma 90.000000
_cell_volume 3454.037631
_symmetry_space_group_name_H-M "P N M A"
_symmetry_group_IT_number 62
_symmetry_cell_setting 'orthorhombic'
loop_
_space_group_symop_operation_xyz
x,y,z
1/2-x,-y,1/2+z
1/2+x,1/2-y,1/2-z
-x,1/2+y,-z
-x,-y,-z
1/2+x,y,1/2-z
1/2-x,1/2+y,1/2+z
x,1/2-y,z
loop_
_atom_site_type_symbol
_atom_site_label
_atom_site_fract_x
_atom_site_fract_y
_atom_site_fract_z
Si Si1 0.096933 0.101972 0.887260
Si Si2 0.454565 0.655715 0.111001
Si Si3 0.488962 0.661150 0.519750
Si Si4 0.755454 0.085220 0.415678
Si Si5 0.307044 0.343024 0.789309
Si Si6 0.229703 0.535239 0.964051
Si Si7 0.024495 0.155475 0.464399
Si Si8 0.298861 0.059140 0.661132
O O1 0.172273 0.148365 0.831382
O O2 0.947428 0.075077 0.867015
O O3 0.186367 0.025025 0.907987
O O4 0.080944 0.154513 0.950786
O O5 0.422910 0.750000 0.115762
O O6 0.567748 0.638223 0.163743
O O7 0.317786 0.607988 0.124108
O O8 0.507591 0.641511 0.039557
O O9 0.546740 0.750000 0.528382
O O10 0.373263 0.641131 0.570655
O O11 0.602305 0.592865 0.522446
O O12 0.893579 0.133798 0.423261
O O13 0.754487 0.019871 0.473787
O O14 0.737686 0.033740 0.351779
O O15 0.320537 0.250000 0.766950
O O16 0.299883 0.405382 0.731810
O O17 0.355846 0.592846 0.949664
O O18 0.060940 0.250000 0.457580
#
# Coordination Sequence:
#
# PCOD9465682 Si02
#       8
#     8   8   8   8   8   8   8   8
#     4  11  22  39  58  86 120 156 193 238 292 340
#     4  10  21  37  56  84 119 156 196 236 285 340
#     4  11  20  35  59  87 119 152 190 240 297 350
#     4  11  21  36  54  84 117 155 193 240 291 352
#     4  11  25  40  57  85 120 160 201 235 277 341
#     4  11  20  37  59  87 118 154 194 240 294 354
#     4  11  22  36  59  89 119 153 190 238 303 358
#     4  12  22  37  56  79 118 162 199 234 277 334
#
# _framework density 18.529039999999998
#
# number of rings (size 3 to 8) (size 9 to 14) (size 15 to 20)
#    0.000    1.000    3.750    4.875    1.750    5.000 
#    0.000    0.000    0.000    0.000    0.000    5.250 
#    0.000    0.000    0.000    0.000    0.000    0.000 
#
# Total GULP energy -357637.351356 kJ/mol
# GULP energy per Si atom -5588.083615 kJ/mol
# Density = 1.848687 g / cm^3
# Si number density = 18.529040 Si / 1000 Ang^3
#
#
#
# Elastic Constant Matrix: (Units=GPa)
#
#
# Indices 1 2 3 4 5 6 
#
# 1 51.9811 9.4380 -0.9519 0.0000 0.0000 0.0000
# 2 9.4380 71.6250 18.1236 0.0000 0.0000 0.0000
# 3 -0.9519 18.1236 59.0800 0.0000 0.0000 0.0000
# 4 0.0000 0.0000 0.0000 22.3547 0.0000 0.0000
# 5 0.0000 0.0000 0.0000 0.0000 17.5206 0.0000
# 6 0.0000 0.0000 0.0000 0.0000 0.0000 24.5409
#
#
#
# Elastic Compliance Matrix: (Units=1/GPa)
#
#
# Indices 1 2 3 4 5 6 
#
# 1 0.019789 -0.002915 0.001213 0.000000 0.000000 0.000000
# 2 -0.002915 0.015566 -0.004822 0.000000 0.000000 0.000000
# 3 0.001213 -0.004822 0.018425 0.000000 0.000000 0.000000
# 4 0.000000 0.000000 0.000000 0.044733 0.000000 0.000000
# 5 0.000000 0.000000 0.000000 0.000000 0.057076 0.000000
# 6 0.000000 0.000000 0.000000 0.000000 0.000000 0.040748
#
#
# Mechanical properties :
#
#
# Convention : Reuss Voigt Hill
#
# Bulk Modulus (GPa) = 24.55027 26.21171 25.38099
# Shear Modulus (GPa) = 22.42535 23.28833 22.85684
#
# Velocity S-wave (km/s) = 3.48268 3.54906 3.51603
# Velocity P-wave (km/s) = 5.42683 5.56520 5.49645
#
# Compressibility (1/GPa) = 0.04073275
#
# Stress axis : x y z
#
# Youngs Moduli (GPa) = 50.53272 64.24352 54.27420
#
# Poissons Ratio (x) = 0.18724 -0.06583
# Poissons Ratio (y) = 0.14728 0.26171
# Poissons Ratio (z) = -0.06129 0.30978
#
# Static dielectric constant tensor:
#      x y z
#    x 1.650060 0.000000 0.000000 
#    y 0.000000 1.647370 0.000000 
#    z 0.000000 0.000000 1.637560 
# 
# From -- ./inp_files/26203.got.cif
#   From: 2010.05.17/outbox.cif.g08.bks.cpg/sg62_14_cif.got.tgz:26203.got - 2010.06.03 15:25:27.
