data_PCOD9465854
_publ_section_title
;
Structure prediction by ZEFSAII (Michael W. Deem and Ramdas Pophale) SiO2 
 PCOD9465854
Probable space group: P N M A
;
_chemical_formula_sum "Si O2"
_cell_formula_units_Z 52
_cell_length_a 18.726817
_cell_length_b 7.633219
_cell_length_c 13.837856
_cell_angle_alpha 90.000000
_cell_angle_beta 90.000000
_cell_angle_gamma 90.000000
_cell_volume 1978.064715
_symmetry_space_group_name_H-M "P N M A"
_symmetry_group_IT_number 62
_symmetry_cell_setting 'orthorhombic'
loop_
_space_group_symop_operation_xyz
x,y,z
1/2-x,-y,1/2+z
1/2+x,1/2-y,1/2-z
-x,1/2+y,-z
-x,-y,-z
1/2+x,y,1/2-z
1/2-x,1/2+y,1/2+z
x,1/2-y,z
loop_
_atom_site_type_symbol
_atom_site_label
_atom_site_fract_x
_atom_site_fract_y
_atom_site_fract_z
Si Si1 0.767355 0.452614 0.655653
Si Si2 0.122353 0.250000 0.585644
Si Si3 0.392551 0.050260 0.344428
Si Si4 0.100291 0.050407 0.050546
Si Si5 0.399226 0.047830 0.955279
Si Si6 0.764660 0.053293 0.865179
Si Si7 0.470095 0.536576 0.752997
O O1 0.788882 0.250000 0.660374
O O2 0.682872 0.458392 0.646905
O O3 0.818952 0.527299 0.574134
O O4 0.780044 0.531628 0.761377
O O5 0.075132 0.406069 0.532227
O O6 0.180874 0.403752 0.624334
O O7 0.378348 0.250000 0.316687
O O8 0.449226 0.973839 0.269391
O O9 0.423004 0.046917 0.453526
O O10 0.077553 0.250000 0.038849
O O11 0.071512 0.987880 0.154317
O O12 0.187024 0.046339 0.058541
O O13 0.397050 0.250000 0.988936
O O14 0.437526 0.036400 0.850936
O O15 0.796212 0.250000 0.870489
O O16 0.469835 0.750000 0.758912
#
# Coordination Sequence:
#
# PCOD9465854 Si02
#       7
#     8   4   8   8   8   8   8
#     4  10  21  38  58  88 119 155 209 256 309 373
#     4  10  22  38  62  88 124 160 200 272 304 360
#     4  11  24  37  58  89 126 168 204 254 318 379
#     4  11  21  35  57  86 126 168 211 250 302 385
#     4  11  22  37  65  93 123 161 211 258 315 375
#     4   9  20  37  58  84 117 161 194 253 321 349
#     4  10  22  40  59  88 127 170 209 257 312 378
#
# _framework density 26.288321
#
# number of rings (size 3 to 8) (size 9 to 14) (size 15 to 20)
#    0.462    1.231    2.308    2.308    3.231    4.308 
#    0.000    0.000    0.000    0.923    0.000    0.000 
#    0.000    0.000    0.000    0.000    0.000    0.000 
#
# Total GULP energy -289683.345693 kJ/mol
# GULP energy per Si atom -5570.833571 kJ/mol
# Density = 2.622849 g / cm^3
# Si number density = 26.288321 Si / 1000 Ang^3
#
#
#
# Elastic Constant Matrix: (Units=GPa)
#
#
# Indices 1 2 3 4 5 6 
#
# 1 112.8031 0.4366 26.1121 0.0000 0.0000 0.0000
# 2 0.4366 103.3188 -4.3257 0.0000 0.0000 0.0000
# 3 26.1121 -4.3257 69.0700 0.0000 0.0000 0.0000
# 4 0.0000 0.0000 0.0000 7.4884 0.0000 0.0000
# 5 0.0000 0.0000 0.0000 0.0000 50.2158 0.0000
# 6 0.0000 0.0000 0.0000 0.0000 0.0000 20.1292
#
#
#
# Elastic Compliance Matrix: (Units=1/GPa)
#
#
# Indices 1 2 3 4 5 6 
#
# 1 0.009719 -0.000195 -0.003687 0.000000 0.000000 0.000000
# 2 -0.000195 0.009708 0.000682 0.000000 0.000000 0.000000
# 3 -0.003687 0.000682 0.015915 0.000000 0.000000 0.000000
# 4 0.000000 0.000000 0.000000 0.133541 0.000000 0.000000
# 5 0.000000 0.000000 0.000000 0.000000 0.019914 0.000000
# 6 0.000000 0.000000 0.000000 0.000000 0.000000 0.049679
#
#
# Mechanical properties :
#
#
# Convention : Reuss Voigt Hill
#
# Bulk Modulus (GPa) = 34.55241 36.62644 35.58943
# Shear Modulus (GPa) = 19.64459 33.09793 26.37126
#
# Velocity S-wave (km/s) = 2.73660 3.55214 3.17070
# Velocity P-wave (km/s) = 4.81222 5.54855 5.19345
#
# Compressibility (1/GPa) = 0.02894154
#
# Stress axis : x y z
#
# Youngs Moduli (GPa) = 102.88965 103.00622 62.83576
#
# Poissons Ratio (x) = 0.02013 0.23165
# Poissons Ratio (y) = 0.02011 -0.04285
# Poissons Ratio (z) = 0.37931 -0.07024
#
# Static dielectric constant tensor:
#      x y z
#    x 2.218680 0.000000 0.000000 
#    y 0.000000 1.910830 0.000000 
#    z 0.000000 0.000000 2.127820 
# 
# From -- ./inp_files/20108.got.cif
#   From: 2010.05.17/outbox.cif.g08.bks.cpg/sg62_11_cif.got.tgz:20108.got - 2010.06.03 15:25:27.
