data_PCOD9465054
_publ_section_title
;
Structure prediction by ZEFSAII (Michael W. Deem and Ramdas Pophale) SiO2 
 PCOD9465054
Probable space group: P N M A
;
_chemical_formula_sum "Si O2"
_cell_formula_units_Z 48
_cell_length_a 9.790714
_cell_length_b 14.273912
_cell_length_c 16.650419
_cell_angle_alpha 90.000000
_cell_angle_beta 90.000000
_cell_angle_gamma 90.000000
_cell_volume 2326.925860
_symmetry_space_group_name_H-M "P N M A"
_symmetry_group_IT_number 62
_symmetry_cell_setting 'orthorhombic'
loop_
_space_group_symop_operation_xyz
x,y,z
1/2-x,-y,1/2+z
1/2+x,1/2-y,1/2-z
-x,1/2+y,-z
-x,-y,-z
1/2+x,y,1/2-z
1/2-x,1/2+y,1/2+z
x,1/2-y,z
loop_
_atom_site_type_symbol
_atom_site_label
_atom_site_fract_x
_atom_site_fract_y
_atom_site_fract_z
Si Si1 0.480754 0.144603 0.616560
Si Si2 0.308577 0.352545 0.893325
Si Si3 0.840245 0.961788 0.838659
Si Si4 0.657946 0.057623 0.156457
Si Si5 0.583710 0.574070 0.945547
Si Si6 0.081784 0.640086 0.929387
O O1 0.438577 0.250000 0.639156
O O2 0.645078 0.141002 0.617689
O O3 0.411578 0.063171 0.667084
O O4 0.436040 0.126716 0.524460
O O5 0.354071 0.250000 0.863581
O O6 0.367969 0.445698 0.852495
O O7 0.347505 0.359810 0.987786
O O8 0.816384 0.922858 0.749580
O O9 0.703432 0.968597 0.891125
O O10 0.946614 0.896432 0.885705
O O11 0.529713 0.110997 0.116832
O O12 0.790360 0.082799 0.104365
O O13 0.500000 0.500000 0.000000
O O14 0.102302 0.750000 0.914161
#
# Coordination Sequence:
#
# PCOD9465054 Si02
#       6
#     8   8   8   8   8   8
#     4  10  20  37  66  93 115 159 212 255 300 370
#     4  10  20  39  66  91 121 162 209 255 311 379
#     4  12  22  40  65  88 130 166 204 261 316 378
#     4  11  24  40  61  95 130 165 202 261 328 376
#     4  10  22  38  60  91 124 166 210 252 308 367
#     4  11  23  41  65  90 118 165 218 257 301 370
#
# _framework density 20.628074000000002
#
# number of rings (size 3 to 8) (size 9 to 14) (size 15 to 20)
#    0.000    1.333    3.333    3.500    0.000    2.000 
#    0.000    6.667    0.000    0.000    0.000    0.000 
#    0.000    0.000    0.000    0.000    0.000    0.000 
#
# Total GULP energy -268048.944665 kJ/mol
# GULP energy per Si atom -5584.353014 kJ/mol
# Density = 2.058112 g / cm^3
# Si number density = 20.628074 Si / 1000 Ang^3
#
#
#
# Elastic Constant Matrix: (Units=GPa)
#
#
# Indices 1 2 3 4 5 6 
#
# 1 71.4325 -12.1609 4.4997 0.0000 0.0000 0.0000
# 2 -12.1609 43.6473 -1.1519 0.0000 0.0000 0.0000
# 3 4.4997 -1.1519 63.3935 0.0000 0.0000 0.0000
# 4 0.0000 0.0000 0.0000 -9.6630 0.0000 0.0000
# 5 0.0000 0.0000 0.0000 0.0000 5.7262 0.0000
# 6 0.0000 0.0000 0.0000 0.0000 0.0000 5.6978
#
#
#
# Elastic Compliance Matrix: (Units=1/GPa)
#
#
# Indices 1 2 3 4 5 6 
#
# 1 0.014756 0.004086 -0.000973 0.000000 0.000000 0.000000
# 2 0.004086 0.024053 0.000147 0.000000 0.000000 0.000000
# 3 -0.000973 0.000147 0.015846 0.000000 0.000000 0.000000
# 4 0.000000 0.000000 0.000000 -0.103488 0.000000 0.000000
# 5 0.000000 0.000000 0.000000 0.000000 0.174635 0.000000
# 6 0.000000 0.000000 0.000000 0.000000 0.000000 0.175508
#
#
# Mechanical properties :
#
#
# Convention : Reuss Voigt Hill
#
# Bulk Modulus (GPa) = 16.34671 17.87193 17.10932
# Shear Modulus (GPa) = 15.86382 12.83796 14.35089
#
# Velocity S-wave (km/s) = 2.77617 2.49741 2.64047
# Velocity P-wave (km/s) = 4.26823 4.12295 4.19622
#
# Compressibility (1/GPa) = 0.06117439
#
# Stress axis : x y z
#
# Youngs Moduli (GPa) = 67.76867 41.57465 63.10651
#
# Poissons Ratio (x) = -0.16986 0.06141
# Poissons Ratio (y) = -0.27688 -0.00928
# Poissons Ratio (z) = 0.06595 -0.00611
#
# Static dielectric constant tensor:
#      x y z
#    x 1.714720 0.000000 0.000000 
#    y 0.000000 1.751710 0.000000 
#    z 0.000000 0.000000 1.745660 
# 
# From -- ./inp_files/22189.got.cif
#   From: 2010.05.17/outbox.cif.g08.bks.cpg/sg62_12_cif.got.tgz:22189.got - 2010.06.03 15:25:27.
