data_PCOD9465292
_publ_section_title
;
Structure prediction by ZEFSAII (Michael W. Deem and Ramdas Pophale) SiO2 
 PCOD9465292
Probable space group: P N M A
;
_chemical_formula_sum "Si O2"
_cell_formula_units_Z 44
_cell_length_a 18.713562
_cell_length_b 14.640370
_cell_length_c 8.918147
_cell_angle_alpha 90.000000
_cell_angle_beta 90.000000
_cell_angle_gamma 90.000000
_cell_volume 2443.335695
_symmetry_space_group_name_H-M "P N M A"
_symmetry_group_IT_number 62
_symmetry_cell_setting 'orthorhombic'
loop_
_space_group_symop_operation_xyz
x,y,z
1/2-x,-y,1/2+z
1/2+x,1/2-y,1/2-z
-x,1/2+y,-z
-x,-y,-z
1/2+x,y,1/2-z
1/2-x,1/2+y,1/2+z
x,1/2-y,z
loop_
_atom_site_type_symbol
_atom_site_label
_atom_site_fract_x
_atom_site_fract_y
_atom_site_fract_z
Si Si1 0.323037 0.750000 0.151245
Si Si2 0.092788 0.750000 0.551826
Si Si3 0.991425 0.750000 0.272021
Si Si4 0.693343 0.070949 0.656239
Si Si5 0.699284 0.250000 0.196307
Si Si6 0.964785 0.750000 0.785604
Si Si7 0.710198 0.900406 0.873204
Si Si8 0.464800 0.596967 0.467003
O O1 0.410765 0.750000 0.156402
O O2 0.297761 0.661376 0.242852
O O3 0.292288 0.750000 0.983244
O O4 0.142624 0.662261 0.583099
O O5 0.055257 0.750000 0.390322
O O6 0.026716 0.750000 0.665062
O O7 0.995420 0.840859 0.168826
O O8 0.752805 0.066681 0.526913
O O9 0.617798 0.081353 0.572895
O O10 0.691717 0.984703 0.766181
O O11 0.614777 0.250000 0.221531
O O12 0.735407 0.163830 0.279146
O O13 0.971889 0.838855 0.889079
O O14 0.500000 0.500000 0.500000
#
# Coordination Sequence:
#
# PCOD9465292 Si02
#       8
#     4   4   4   8   4   4   8   8
#     4  10  20  39  64  83 118 158 207 245 307 369
#     4  11  23  41  59  95 124 158 206 271 304 361
#     4   9  21  38  60  86 120 155 203 255 305 357
#     4  11  22  41  59  91 121 164 203 255 306 377
#     4  11  20  40  63  89 116 171 198 254 312 372
#     4  11  20  40  66  85 126 166 208 255 314 369
#     4  11  24  39  63  91 130 158 209 255 316 371
#     4  10  21  39  63  90 121 164 208 252 308 374
#
# _framework density 18.008167
#
# number of rings (size 3 to 8) (size 9 to 14) (size 15 to 20)
#    0.000    1.455    2.727    3.818    0.000    1.455 
#    3.273   11.818    0.000    0.000    0.000    0.000 
#    0.000    0.000    0.000    0.000    0.000    0.000 
#
# Total GULP energy -245710.420734 kJ/mol
# GULP energy per Si atom -5584.327744 kJ/mol
# Density = 1.796718 g / cm^3
# Si number density = 18.008167 Si / 1000 Ang^3
#
#
#
# Elastic Constant Matrix: (Units=GPa)
#
#
# Indices 1 2 3 4 5 6 
#
# 1 94.1461 32.7876 44.4094 0.0000 0.0000 0.0000
# 2 32.7876 125.0613 32.5206 0.0000 0.0000 0.0000
# 3 44.4094 32.5206 92.4598 0.0000 0.0000 0.0000
# 4 0.0000 0.0000 0.0000 11.9082 0.0000 0.0000
# 5 0.0000 0.0000 0.0000 0.0000 23.9379 0.0000
# 6 0.0000 0.0000 0.0000 0.0000 0.0000 17.7316
#
#
#
# Elastic Compliance Matrix: (Units=1/GPa)
#
#
# Indices 1 2 3 4 5 6 
#
# 1 0.014241 -0.002152 -0.006083 0.000000 0.000000 0.000000
# 2 -0.002152 0.009126 -0.002176 0.000000 0.000000 0.000000
# 3 -0.006083 -0.002176 0.014503 0.000000 0.000000 0.000000
# 4 0.000000 0.000000 0.000000 0.083976 0.000000 0.000000
# 5 0.000000 0.000000 0.000000 0.000000 0.041775 0.000000
# 6 0.000000 0.000000 0.000000 0.000000 0.000000 0.056397
#
#
# Mechanical properties :
#
#
# Convention : Reuss Voigt Hill
#
# Bulk Modulus (GPa) = 58.66095 59.01137 58.83616
# Shear Modulus (GPa) = 20.28223 24.17884 22.23054
#
# Velocity S-wave (km/s) = 3.35965 3.66821 3.51731
# Velocity P-wave (km/s) = 6.90616 7.12610 7.01699
#
# Compressibility (1/GPa) = 0.01704712
#
# Stress axis : x y z
#
# Youngs Moduli (GPa) = 70.22182 109.57532 68.95213
#
# Poissons Ratio (x) = 0.23577 0.41944
# Poissons Ratio (y) = 0.15109 0.15007
# Poissons Ratio (z) = 0.42717 0.23848
#
# Static dielectric constant tensor:
#      x y z
#    x 1.595930 0.000000 0.000000 
#    y 0.000000 1.614860 0.000000 
#    z 0.000000 0.000000 1.602400 
# 
# From -- ./inp_files/7587.got.cif
#   From: 2010.05.17/outbox.cif.g08.bks.cpg/sg62_4_cif.got.tgz:7587.got - 2010.06.03 15:25:27.
