data_PCOD9465746
_publ_section_title
;
Structure prediction by ZEFSAII (Michael W. Deem and Ramdas Pophale) SiO2 
 PCOD9465746
Probable space group: P N M A
;
_chemical_formula_sum "Si O2"
_cell_formula_units_Z 64
_cell_length_a 19.836297
_cell_length_b 18.715747
_cell_length_c 8.585011
_cell_angle_alpha 90.000000
_cell_angle_beta 90.000000
_cell_angle_gamma 90.000000
_cell_volume 3187.194915
_symmetry_space_group_name_H-M "P N M A"
_symmetry_group_IT_number 62
_symmetry_cell_setting 'orthorhombic'
loop_
_space_group_symop_operation_xyz
x,y,z
1/2-x,-y,1/2+z
1/2+x,1/2-y,1/2-z
-x,1/2+y,-z
-x,-y,-z
1/2+x,y,1/2-z
1/2-x,1/2+y,1/2+z
x,1/2-y,z
loop_
_atom_site_type_symbol
_atom_site_label
_atom_site_fract_x
_atom_site_fract_y
_atom_site_fract_z
Si Si1 0.034379 0.166593 0.358779
Si Si2 0.144156 0.415751 0.196464
Si Si3 0.901769 0.166844 0.161386
Si Si4 0.404574 0.665951 0.391700
Si Si5 0.227257 0.667437 0.630684
Si Si6 0.262035 0.667424 0.266445
Si Si7 0.646040 0.916503 0.361977
Si Si8 0.534829 0.833888 0.190676
O O1 0.056874 0.250000 0.354129
O O2 0.095736 0.112888 0.332147
O O3 0.976750 0.157252 0.227545
O O4 0.997050 0.154600 0.521945
O O5 0.219400 0.384737 0.211719
O O6 0.144941 0.499576 0.166220
O O7 0.112655 0.378971 0.042766
O O8 0.896145 0.250000 0.106504
O O9 0.847375 0.158131 0.300783
O O10 0.883522 0.112122 0.025058
O O11 0.403475 0.750000 0.433436
O O12 0.342180 0.655243 0.273107
O O13 0.475796 0.649987 0.314489
O O14 0.247011 0.750000 0.661591
O O15 0.235680 0.657667 0.444851
O O16 0.249486 0.750000 0.222766
O O17 0.220802 0.614930 0.157699
O O18 0.599300 0.879997 0.231042
O O19 0.552457 0.750000 0.202723
#
# Coordination Sequence:
#
# PCOD9465746 Si02
#       8
#     8   8   8   8   8   8   8   8
#     4  10  21  39  62  84 107 141 189 239 280 322
#     4  11  23  37  55  83 118 152 182 219 276 339
#     4  10  21  37  59  84 109 143 188 234 275 321
#     4   9  19  38  62  83 107 144 188 232 276 324
#     4   9  19  38  62  83 106 142 188 234 277 323
#     4   9  18  36  59  80 106 144 189 232 276 326
#     4  12  24  35  53  84 120 152 181 220 274 337
#     4  10  21  38  60  84 109 142 189 239 280 322
#
# _framework density 20.080352999999999
#
# number of rings (size 3 to 8) (size 9 to 14) (size 15 to 20)
#    0.000    2.000    0.000    4.500    0.000    9.500 
#    0.000    3.750    0.000    0.000    0.000    0.000 
#    0.000    0.000    0.000    0.000    0.000    0.000 
#
# Total GULP energy -357694.518769 kJ/mol
# GULP energy per Si atom -5588.976856 kJ/mol
# Density = 2.003465 g / cm^3
# Si number density = 20.080353 Si / 1000 Ang^3
#
#
#
# Elastic Constant Matrix: (Units=GPa)
#
#
# Indices 1 2 3 4 5 6 
#
# 1 60.8283 34.0348 -12.3223 0.0000 0.0000 0.0000
# 2 34.0348 36.9284 1.6578 0.0000 0.0000 0.0000
# 3 -12.3223 1.6578 16.5858 0.0000 0.0000 0.0000
# 4 0.0000 0.0000 0.0000 66.0052 0.0000 0.0000
# 5 0.0000 0.0000 0.0000 0.0000 24.6827 0.0000
# 6 0.0000 0.0000 0.0000 0.0000 0.0000 -0.1802
#
#
#
# Elastic Compliance Matrix: (Units=1/GPa)
#
#
# Indices 1 2 3 4 5 6 
#
# 1 0.056047 -0.053766 0.047013 0.000000 0.000000 0.000000
# 2 -0.053766 0.078779 -0.047819 0.000000 0.000000 0.000000
# 3 0.047013 -0.047819 0.100001 0.000000 0.000000 0.000000
# 4 0.000000 0.000000 0.000000 0.015150 0.000000 0.000000
# 5 0.000000 0.000000 0.000000 0.000000 0.040514 0.000000
# 6 0.000000 0.000000 0.000000 0.000000 0.000000 -5.548966
#
#
# Mechanical properties :
#
#
# Convention : Reuss Voigt Hill
#
# Bulk Modulus (GPa) = 7.95647 17.89813 12.92730
# Shear Modulus (GPa) = -0.97896 24.16633 11.59368
#
# Velocity S-wave (km/s) = -0.69899 3.47289 2.40545
# Velocity P-wave (km/s) = 1.82194 5.00139 3.76386
#
# Compressibility (1/GPa) = 0.12568390
#
# Stress axis : x y z
#
# Youngs Moduli (GPa) = 17.84231 12.69374 9.99993
#
# Poissons Ratio (x) = 0.68249 -0.47013
# Poissons Ratio (y) = 0.95930 0.47819
# Poissons Ratio (z) = -0.83883 0.60700
#
# Static dielectric constant tensor:
#      x y z
#    x 1.715130 0.000000 0.000000 
#    y 0.000000 2.572980 0.000000 
#    z 0.000000 0.000000 1.733160 
# 
# From -- ./inp_files/8918.got.cif
#   From: 2010.05.17/outbox.cif.g08.bks.cpg/sg62_5_cif.got.tgz:8918.got - 2010.06.03 15:25:27.
