data_PCOD9465749
_publ_section_title
;
Structure prediction by ZEFSAII (Michael W. Deem and Ramdas Pophale) SiO2 
 PCOD9465749
Probable space group: P N M A
;
_chemical_formula_sum "Si O2"
_cell_formula_units_Z 44
_cell_length_a 4.882779
_cell_length_b 25.983768
_cell_length_c 14.420808
_cell_angle_alpha 90.000000
_cell_angle_beta 90.000000
_cell_angle_gamma 90.000000
_cell_volume 1829.611126
_symmetry_space_group_name_H-M "P N M A"
_symmetry_group_IT_number 62
_symmetry_cell_setting 'orthorhombic'
loop_
_space_group_symop_operation_xyz
x,y,z
1/2-x,-y,1/2+z
1/2+x,1/2-y,1/2-z
-x,1/2+y,-z
-x,-y,-z
1/2+x,y,1/2-z
1/2-x,1/2+y,1/2+z
x,1/2-y,z
loop_
_atom_site_type_symbol
_atom_site_label
_atom_site_fract_x
_atom_site_fract_y
_atom_site_fract_z
Si Si1 0.592762 0.091677 0.185846
Si Si2 0.283903 0.750000 0.688228
Si Si3 0.548681 0.836049 0.563429
Si Si4 0.437235 0.476708 0.810756
Si Si5 0.786095 0.627066 0.108240
Si Si6 0.233831 0.306943 0.628932
O O1 0.284258 0.097057 0.222085
O O2 0.719068 0.132808 0.116997
O O3 0.624335 0.033268 0.149108
O O4 0.968945 0.750000 0.718307
O O5 0.376111 0.799369 0.629855
O O6 0.357492 0.872939 0.501039
O O7 0.687918 0.804254 0.480180
O O8 0.755103 0.474543 0.783482
O O9 0.338351 0.427460 0.866290
O O10 0.571231 0.672060 0.130371
O O11 0.060579 0.647213 0.160414
O O12 0.269528 0.250000 0.669576
#
# Coordination Sequence:
#
# PCOD9465749 Si02
#       6
#     8   4   8   8   8   8
#     4  10  22  37  57  82 120 160 191 244 293 339
#     4  12  26  36  58  86 122 162 196 228 276 344
#     4  10  23  37  58  86 120 153 206 231 285 333
#     4  10  21  41  62  85 116 152 194 240 306 357
#     4  10  22  36  63  87 111 160 190 247 287 348
#     4  10  21  37  59  85 115 150 192 233 296 334
#
# _framework density 24.048826999999999
#
# number of rings (size 3 to 8) (size 9 to 14) (size 15 to 20)
#    1.091    0.727    0.909    2.727    6.364    0.727 
#    0.000    0.909    0.000   10.909    0.000    0.000 
#    0.000    0.000    0.000    0.000    0.000    0.000 
#
# Total GULP energy -246006.947091 kJ/mol
# GULP energy per Si atom -5591.066979 kJ/mol
# Density = 2.399409 g / cm^3
# Si number density = 24.048827 Si / 1000 Ang^3
#
#
#
# Elastic Constant Matrix: (Units=GPa)
#
#
# Indices 1 2 3 4 5 6 
#
# 1 76.0272 -11.1232 -16.3935 0.0000 0.0000 0.0000
# 2 -11.1232 115.2233 14.4387 0.0000 0.0000 0.0000
# 3 -16.3935 14.4387 56.8877 0.0000 0.0000 0.0000
# 4 0.0000 0.0000 0.0000 8.7580 0.0000 0.0000
# 5 0.0000 0.0000 0.0000 0.0000 13.5355 0.0000
# 6 0.0000 0.0000 0.0000 0.0000 0.0000 27.0506
#
#
#
# Elastic Compliance Matrix: (Units=1/GPa)
#
#
# Indices 1 2 3 4 5 6 
#
# 1 0.014111 0.000881 0.003843 0.000000 0.000000 0.000000
# 2 0.000881 0.009019 -0.002035 0.000000 0.000000 0.000000
# 3 0.003843 -0.002035 0.019202 0.000000 0.000000 0.000000
# 4 0.000000 0.000000 0.000000 0.114181 0.000000 0.000000
# 5 0.000000 0.000000 0.000000 0.000000 0.073880 0.000000
# 6 0.000000 0.000000 0.000000 0.000000 0.000000 0.036968
#
#
# Mechanical properties :
#
#
# Convention : Reuss Voigt Hill
#
# Bulk Modulus (GPa) = 20.96075 24.66469 22.81272
# Shear Modulus (GPa) = 17.99295 27.28325 22.63810
#
# Velocity S-wave (km/s) = 2.73826 3.37188 3.07145
# Velocity P-wave (km/s) = 4.32808 5.04359 4.69947
#
# Compressibility (1/GPa) = 0.04770821
#
# Stress axis : x y z
#
# Youngs Moduli (GPa) = 70.86851 110.87880 52.07667
#
# Poissons Ratio (x) = -0.09764 -0.20012
# Poissons Ratio (y) = -0.06241 0.10599
# Poissons Ratio (z) = -0.27233 0.22567
#
# Static dielectric constant tensor:
#      x y z
#    x 1.899370 0.000000 0.000000 
#    y 0.000000 1.909610 0.000000 
#    z 0.000000 0.000000 1.958540 
# 
# From -- ./inp_files/21571.got.cif
#   From: 2010.05.17/outbox.cif.g08.bks.cpg/sg62_11_cif.got.tgz:21571.got - 2010.06.03 15:25:27.
