data_PCOD9465696
_publ_section_title
;
Structure prediction by ZEFSAII (Michael W. Deem and Ramdas Pophale) SiO2 
 PCOD9465696
Probable space group: P N M A
;
_chemical_formula_sum "Si O2"
_cell_formula_units_Z 64
_cell_length_a 31.579752
_cell_length_b 9.764157
_cell_length_c 10.908010
_cell_angle_alpha 90.000000
_cell_angle_beta 90.000000
_cell_angle_gamma 90.000000
_cell_volume 3363.481137
_symmetry_space_group_name_H-M "P N M A"
_symmetry_group_IT_number 62
_symmetry_cell_setting 'orthorhombic'
loop_
_space_group_symop_operation_xyz
x,y,z
1/2-x,-y,1/2+z
1/2+x,1/2-y,1/2-z
-x,1/2+y,-z
-x,-y,-z
1/2+x,y,1/2-z
1/2-x,1/2+y,1/2+z
x,1/2-y,z
loop_
_atom_site_type_symbol
_atom_site_label
_atom_site_fract_x
_atom_site_fract_y
_atom_site_fract_z
Si Si1 0.742158 0.412850 0.080279
Si Si2 0.978332 0.412629 0.891946
Si Si3 0.613868 0.901487 0.024520
Si Si4 0.619951 0.908059 0.456144
Si Si5 0.020461 0.913991 0.389230
Si Si6 0.168684 0.096938 0.613605
Si Si7 0.185316 0.902679 0.265965
Si Si8 0.323385 0.907463 0.402404
O O1 0.749360 0.250000 0.095140
O O2 0.718968 0.481663 0.197949
O O3 0.784665 0.496863 0.055877
O O4 0.710257 0.435056 0.966472
O O5 0.987640 0.250000 0.906552
O O6 0.927366 0.427584 0.905608
O O7 0.990923 0.451719 0.751693
O O8 0.000000 0.500000 0.000000
O O9 0.608500 0.750000 0.972392
O O10 0.570756 0.936343 0.093341
O O11 0.651748 0.899334 0.122702
O O12 0.629573 0.001813 0.920362
O O13 0.622951 0.750000 0.500284
O O14 0.655372 0.924771 0.350380
O O15 0.633408 0.019987 0.555264
O O16 0.012320 0.750000 0.402727
O O17 0.000000 0.000000 0.500000
O O18 0.156403 0.250000 0.576772
O O19 0.178509 0.092461 0.755832
O O20 0.205355 0.750000 0.256174
O O21 0.320189 0.750000 0.445560
#
# Coordination Sequence:
#
# PCOD9465696 Si02
#       8
#     8   8   8   8   8   8   8   8
#     4  10  21  37  57  83 112 149 192 236 288 347
#     4  10  22  42  65  90 125 166 209 258 317 380
#     4   9  17  34  60  83 105 140 186 232 280 342
#     4  10  21  39  62  85 114 155 199 245 300 358
#     4  10  21  38  60  90 123 156 197 249 307 370
#     4   9  21  39  55  76 112 149 183 232 292 345
#     4   9  17  34  60  83 107 143 186 235 287 339
#     4  11  24  39  55  82 119 156 195 241 295 354
#
# _framework density 19.027905000000001
#
# number of rings (size 3 to 8) (size 9 to 14) (size 15 to 20)
#    0.000    2.250    1.250    0.750    1.750    4.500 
#    0.000    5.000    0.000    0.000    0.000    0.000 
#    0.000    0.000    0.000    0.000    0.000    0.000 
#
# Total GULP energy -356859.157282 kJ/mol
# GULP energy per Si atom -5575.924333 kJ/mol
# Density = 1.898460 g / cm^3
# Si number density = 19.027905 Si / 1000 Ang^3
#
#
#
# Elastic Constant Matrix: (Units=GPa)
#
#
# Indices 1 2 3 4 5 6 
#
# 1 52.9622 50.3187 35.0701 0.0000 0.0000 0.0000
# 2 50.3187 86.9505 63.8805 0.0000 0.0000 0.0000
# 3 35.0701 63.8805 90.1995 0.0000 0.0000 0.0000
# 4 0.0000 0.0000 0.0000 22.1603 0.0000 0.0000
# 5 0.0000 0.0000 0.0000 0.0000 21.7094 0.0000
# 6 0.0000 0.0000 0.0000 0.0000 0.0000 28.2972
#
#
#
# Elastic Compliance Matrix: (Units=1/GPa)
#
#
# Indices 1 2 3 4 5 6 
#
# 1 0.042089 -0.025713 0.001846 0.000000 0.000000 0.000000
# 2 -0.025713 0.039685 -0.018108 0.000000 0.000000 0.000000
# 3 0.001846 -0.018108 0.023193 0.000000 0.000000 0.000000
# 4 0.000000 0.000000 0.000000 0.045126 0.000000 0.000000
# 5 0.000000 0.000000 0.000000 0.000000 0.046063 0.000000
# 6 0.000000 0.000000 0.000000 0.000000 0.000000 0.035339
#
#
# Mechanical properties :
#
#
# Convention : Reuss Voigt Hill
#
# Bulk Modulus (GPa) = 47.58158 58.73900 53.16029
# Shear Modulus (GPa) = 15.50632 19.82291 17.66461
#
# Velocity S-wave (km/s) = 2.85779 3.23117 3.05019
# Velocity P-wave (km/s) = 5.99581 6.69758 6.35639
#
# Compressibility (1/GPa) = 0.02101654
#
# Stress axis : x y z
#
# Youngs Moduli (GPa) = 23.75921 25.19874 43.11690
#
# Poissons Ratio (x) = 0.64795 -0.07960
# Poissons Ratio (y) = 0.61093 0.78074
# Poissons Ratio (z) = -0.04386 0.45629
#
# Static dielectric constant tensor:
#      x y z
#    x 1.671740 0.000000 0.000000 
#    y 0.000000 1.663280 0.000000 
#    z 0.000000 0.000000 1.682100 
# 
# From -- ./inp_files/15837.got.cif
#   From: 2010.05.17/outbox.cif.g08.bks.cpg/sg62_8_cif.got.tgz:15837.got - 2010.06.03 15:25:27.
