data_PCOD9465437
_publ_section_title
;
Structure prediction by ZEFSAII (Michael W. Deem and Ramdas Pophale) SiO2 
 PCOD9465437
Probable space group: P N M A
;
_chemical_formula_sum "Si O2"
_cell_formula_units_Z 48
_cell_length_a 9.176827
_cell_length_b 27.879589
_cell_length_c 7.702121
_cell_angle_alpha 90.000000
_cell_angle_beta 90.000000
_cell_angle_gamma 90.000000
_cell_volume 1970.558121
_symmetry_space_group_name_H-M "P N M A"
_symmetry_group_IT_number 62
_symmetry_cell_setting 'orthorhombic'
loop_
_space_group_symop_operation_xyz
x,y,z
1/2-x,-y,1/2+z
1/2+x,1/2-y,1/2-z
-x,1/2+y,-z
-x,-y,-z
1/2+x,y,1/2-z
1/2-x,1/2+y,1/2+z
x,1/2-y,z
loop_
_atom_site_type_symbol
_atom_site_label
_atom_site_fract_x
_atom_site_fract_y
_atom_site_fract_z
Si Si1 0.219671 0.355304 0.813946
Si Si2 0.592573 0.250000 0.744159
Si Si3 0.292026 0.497688 0.577113
Si Si4 0.178803 0.392942 0.162413
Si Si5 0.168840 0.750000 0.007117
Si Si6 0.132642 0.646514 0.948969
Si Si7 0.440698 0.955035 0.251796
O O1 0.149044 0.302074 0.824561
O O2 0.330284 0.354746 0.653328
O O3 0.112105 0.400461 0.774249
O O4 0.273616 0.368609 0.006939
O O5 0.423684 0.250000 0.688931
O O6 0.661103 0.250000 0.938024
O O7 0.295507 0.550865 0.653566
O O8 0.392331 0.462854 0.696321
O O9 0.132398 0.474373 0.575945
O O10 0.364923 0.508514 0.391734
O O11 0.230684 0.374167 0.345832
O O12 0.012104 0.380110 0.115314
O O13 0.123954 0.702692 0.906858
#
# Coordination Sequence:
#
# PCOD9465437 Si02
#       7
#     8   4   8   8   4   8   8
#     4  10  24  42  71  96 136 183 228 282 346 408
#     4  10  20  43  69  99 134 175 222 285 336 401
#     4  10  23  41  61  96 129 176 218 284 332 401
#     4  11  24  45  69 101 140 180 232 286 343 414
#     4  10  22  43  71 101 136 181 224 287 342 409
#     4  11  25  44  69 101 140 178 231 286 343 412
#     4  10  23  39  65  92 131 174 227 274 341 399
#
# _framework density 24.358578999999999
#
# number of rings (size 3 to 8) (size 9 to 14) (size 15 to 20)
#    0.000    1.667    1.667    1.000    9.333    3.333 
#    6.000    0.000    0.000    0.000    0.000    0.000 
#    0.000    0.000    0.000    0.000    0.000    0.000 
#
# Total GULP energy -268099.619114 kJ/mol
# GULP energy per Si atom -5585.408732 kJ/mol
# Density = 2.430314 g / cm^3
# Si number density = 24.358579 Si / 1000 Ang^3
#
#
#
# Elastic Constant Matrix: (Units=GPa)
#
#
# Indices 1 2 3 4 5 6 
#
# 1 87.4717 13.7747 19.2912 0.0000 0.0000 0.0000
# 2 13.7747 163.7005 4.7150 0.0000 0.0000 0.0000
# 3 19.2912 4.7150 59.9382 0.0000 0.0000 0.0000
# 4 0.0000 0.0000 0.0000 30.2731 0.0000 0.0000
# 5 0.0000 0.0000 0.0000 0.0000 34.1235 0.0000
# 6 0.0000 0.0000 0.0000 0.0000 0.0000 30.4463
#
#
#
# Elastic Compliance Matrix: (Units=1/GPa)
#
#
# Indices 1 2 3 4 5 6 
#
# 1 0.012447 -0.000934 -0.003932 0.000000 0.000000 0.000000
# 2 -0.000934 0.006193 -0.000187 0.000000 0.000000 0.000000
# 3 -0.003932 -0.000187 0.017964 0.000000 0.000000 0.000000
# 4 0.000000 0.000000 0.000000 0.033033 0.000000 0.000000
# 5 0.000000 0.000000 0.000000 0.000000 0.029305 0.000000
# 6 0.000000 0.000000 0.000000 0.000000 0.000000 0.032845
#
#
# Mechanical properties :
#
#
# Convention : Reuss Voigt Hill
#
# Bulk Modulus (GPa) = 37.73958 42.96359 40.35158
# Shear Modulus (GPa) = 33.17305 37.19055 35.18180
#
# Velocity S-wave (km/s) = 3.69435 3.91166 3.80456
# Velocity P-wave (km/s) = 5.80729 6.17071 5.99176
#
# Compressibility (1/GPa) = 0.02649738
#
# Stress axis : x y z
#
# Youngs Moduli (GPa) = 80.34295 161.48081 55.66625
#
# Poissons Ratio (x) = 0.15083 0.21891
# Poissons Ratio (y) = 0.07505 0.01038
# Poissons Ratio (z) = 0.31595 0.03012
#
# Static dielectric constant tensor:
#      x y z
#    x 1.992410 0.000000 0.000000 
#    y 0.000000 1.922870 0.000000 
#    z 0.000000 0.000000 1.991590 
# 
# From -- ./inp_files/4568.got.cif
#   From: 2010.05.17/outbox.cif.g08.bks.cpg/sg62_3_cif.got.tgz:4568.got - 2010.06.03 15:25:27.
