data_PCOD9465992
_publ_section_title
;
Structure prediction by ZEFSAII (Michael W. Deem and Ramdas Pophale) SiO2 
 PCOD9465992
Probable space group: P N M A
;
_chemical_formula_sum "Si O2"
_cell_formula_units_Z 48
_cell_length_a 15.419885
_cell_length_b 8.684924
_cell_length_c 19.288220
_cell_angle_alpha 90.000000
_cell_angle_beta 90.000000
_cell_angle_gamma 90.000000
_cell_volume 2583.088632
_symmetry_space_group_name_H-M "P N M A"
_symmetry_group_IT_number 62
_symmetry_cell_setting 'orthorhombic'
loop_
_space_group_symop_operation_xyz
x,y,z
1/2-x,-y,1/2+z
1/2+x,1/2-y,1/2-z
-x,1/2+y,-z
-x,-y,-z
1/2+x,y,1/2-z
1/2-x,1/2+y,1/2+z
x,1/2-y,z
loop_
_atom_site_type_symbol
_atom_site_label
_atom_site_fract_x
_atom_site_fract_y
_atom_site_fract_z
Si Si1 0.773869 0.565070 0.921128
Si Si2 0.127399 0.564926 0.824234
Si Si3 0.528072 0.435500 0.425613
Si Si4 0.120060 0.432963 0.670108
Si Si5 0.529908 0.065992 0.074304
Si Si6 0.220809 0.565741 0.419552
O O1 0.766306 0.750000 0.910930
O O2 0.706328 0.481926 0.871381
O O3 0.873410 0.517812 0.909002
O O4 0.749863 0.532995 0.001228
O O5 0.128843 0.750000 0.818576
O O6 0.041894 0.518735 0.867934
O O7 0.125900 0.491572 0.748538
O O8 0.210334 0.508395 0.867531
O O9 0.500000 0.500000 0.500000
O O10 0.527584 0.250000 0.430253
O O11 0.109720 0.250000 0.667837
O O12 0.039481 0.511593 0.630925
O O13 0.531634 0.250000 0.070651
O O14 0.625085 0.001476 0.090569
O O15 0.500000 0.000000 0.000000
O O16 0.219921 0.750000 0.410792
#
# Coordination Sequence:
#
# PCOD9465992 Si02
#       6
#     8   8   8   8   8   8
#     4  10  21  39  64  93 127 164 209 262 316 379
#     4  11  24  42  64  93 132 171 211 262 320 379
#     4  10  21  38  64  94 124 163 207 255 308 370
#     4  12  26  43  64  92 129 169 214 267 323 379
#     4  12  24  41  66  95 127 166 213 264 319 384
#     4  11  22  39  66  96 128 166 210 262 318 380
#
# _framework density 18.582405000000001
#
# number of rings (size 3 to 8) (size 9 to 14) (size 15 to 20)
#    0.000    1.000    3.333    4.000    0.000    3.333 
#    0.000    5.000    0.000    0.000    0.000    0.000 
#    0.000    0.000    0.000    0.000    0.000    0.000 
#
# Total GULP energy -268511.221660 kJ/mol
# GULP energy per Si atom -5593.983785 kJ/mol
# Density = 1.854011 g / cm^3
# Si number density = 18.582405 Si / 1000 Ang^3
#
#
#
# Elastic Constant Matrix: (Units=GPa)
#
#
# Indices 1 2 3 4 5 6 
#
# 1 171.4226 33.3432 54.8257 0.0000 0.0000 0.0000
# 2 33.3432 57.6729 29.7061 0.0000 0.0000 0.0000
# 3 54.8257 29.7061 111.2600 0.0000 0.0000 0.0000
# 4 0.0000 0.0000 0.0000 32.0447 0.0000 0.0000
# 5 0.0000 0.0000 0.0000 0.0000 31.3974 0.0000
# 6 0.0000 0.0000 0.0000 0.0000 0.0000 31.7876
#
#
#
# Elastic Compliance Matrix: (Units=1/GPa)
#
#
# Indices 1 2 3 4 5 6 
#
# 1 0.007279 -0.002737 -0.002856 0.000000 0.000000 0.000000
# 2 -0.002737 0.021133 -0.004294 0.000000 0.000000 0.000000
# 3 -0.002856 -0.004294 0.011542 0.000000 0.000000 0.000000
# 4 0.000000 0.000000 0.000000 0.031206 0.000000 0.000000
# 5 0.000000 0.000000 0.000000 0.000000 0.031850 0.000000
# 6 0.000000 0.000000 0.000000 0.000000 0.000000 0.031459
#
#
# Mechanical properties :
#
#
# Convention : Reuss Voigt Hill
#
# Bulk Modulus (GPa) = 49.55375 64.01171 56.78273
# Shear Modulus (GPa) = 31.06151 33.87797 32.46974
#
# Velocity S-wave (km/s) = 4.09290 4.27443 4.18465
# Velocity P-wave (km/s) = 7.00433 7.67355 7.34656
#
# Compressibility (1/GPa) = 0.02018011
#
# Stress axis : x y z
#
# Youngs Moduli (GPa) = 137.37227 47.31855 86.64142
#
# Poissons Ratio (x) = 0.12953 0.24747
# Poissons Ratio (y) = 0.37604 0.37201
# Poissons Ratio (z) = 0.39237 0.20317
#
# Static dielectric constant tensor:
#      x y z
#    x 1.625950 0.000000 0.000000 
#    y 0.000000 1.624960 0.000000 
#    z 0.000000 0.000000 1.598680 
# 
# From -- ./inp_files/23685.got.cif
#   From: 2010.05.17/outbox.cif.g08.bks.cpg/sg62_12_cif.got.tgz:23685.got - 2010.06.03 15:25:27.
