data_PCOD9465609
_publ_section_title
;
Structure prediction by ZEFSAII (Michael W. Deem and Ramdas Pophale) SiO2 
 PCOD9465609
Probable space group: P N M A
;
_chemical_formula_sum "Si O2"
_cell_formula_units_Z 56
_cell_length_a 15.194733
_cell_length_b 11.488149
_cell_length_c 13.500037
_cell_angle_alpha 90.000000
_cell_angle_beta 90.000000
_cell_angle_gamma 90.000000
_cell_volume 2356.557774
_symmetry_space_group_name_H-M "P N M A"
_symmetry_group_IT_number 62
_symmetry_cell_setting 'orthorhombic'
loop_
_space_group_symop_operation_xyz
x,y,z
1/2-x,-y,1/2+z
1/2+x,1/2-y,1/2-z
-x,1/2+y,-z
-x,-y,-z
1/2+x,y,1/2-z
1/2-x,1/2+y,1/2+z
x,1/2-y,z
loop_
_atom_site_type_symbol
_atom_site_label
_atom_site_fract_x
_atom_site_fract_y
_atom_site_fract_z
Si Si1 0.332714 0.623352 0.294569
Si Si2 0.929446 0.878267 0.918912
Si Si3 0.027726 0.875567 0.116357
Si Si4 0.763016 0.374733 0.440705
Si Si5 0.398251 0.558654 0.087728
Si Si6 0.738305 0.380703 0.202212
Si Si7 0.458971 0.625102 0.879922
O O1 0.291229 0.750000 0.319924
O O2 0.432203 0.624663 0.334445
O O3 0.345531 0.620108 0.175023
O O4 0.286314 0.502020 0.325637
O O5 0.930696 0.750000 0.869392
O O6 0.836805 0.882499 0.977478
O O7 0.008793 0.877631 0.997836
O O8 0.930765 0.999380 0.860020
O O9 0.070997 0.750000 0.140626
O O10 0.801224 0.250000 0.468121
O O11 0.828030 0.476112 0.467315
O O12 0.749993 0.377204 0.321312
O O13 0.471759 0.476757 0.138611
O O14 0.443900 0.625999 0.998817
O O15 0.769308 0.250000 0.166614
O O16 0.636592 0.387960 0.169499
O O17 0.497112 0.750000 0.849334
#
# Coordination Sequence:
#
# PCOD9465609 Si02
#       7
#     8   8   8   8   8   8   8
#     4  10  21  38  58  83 115 148 185 232 285 343
#     4   9  18  33  54  79 108 140 181 227 275 334
#     4   9  19  34  52  78 111 141 178 225 278 337
#     4   9  18  34  56  82 108 142 187 233 279 335
#     4  10  21  36  58  81 116 152 190 235 290 341
#     4   9  20  37  56  81 111 142 187 234 279 332
#     4  10  21  38  58  84 114 151 195 241 283 338
#
# _framework density 23.763473999999999
#
# number of rings (size 3 to 8) (size 9 to 14) (size 15 to 20)
#    0.000    2.571    0.000    0.857    4.000    1.143 
#    0.000    7.143    0.000    0.000    0.000    0.000 
#    0.000    0.000    0.000    0.000    0.000    0.000 
#
# Total GULP energy -312283.531166 kJ/mol
# GULP energy per Si atom -5576.491628 kJ/mol
# Density = 2.370939 g / cm^3
# Si number density = 23.763474 Si / 1000 Ang^3
#
#
#
# Elastic Constant Matrix: (Units=GPa)
#
#
# Indices 1 2 3 4 5 6 
#
# 1 42.7017 52.7117 -6.2007 0.0000 0.0000 0.0000
# 2 52.7117 250.5848 22.3117 0.0000 0.0000 0.0000
# 3 -6.2007 22.3117 58.5908 0.0000 0.0000 0.0000
# 4 0.0000 0.0000 0.0000 -12.3115 0.0000 0.0000
# 5 0.0000 0.0000 0.0000 0.0000 30.7406 0.0000
# 6 0.0000 0.0000 0.0000 0.0000 0.0000 28.6280
#
#
#
# Elastic Compliance Matrix: (Units=1/GPa)
#
#
# Indices 1 2 3 4 5 6 
#
# 1 0.033879 -0.007707 0.006520 0.000000 0.000000 0.000000
# 2 -0.007707 0.005884 -0.003056 0.000000 0.000000 0.000000
# 3 0.006520 -0.003056 0.018921 0.000000 0.000000 0.000000
# 4 0.000000 0.000000 0.000000 -0.081225 0.000000 0.000000
# 5 0.000000 0.000000 0.000000 0.000000 0.032530 0.000000
# 6 0.000000 0.000000 0.000000 0.000000 0.000000 0.034931
#
#
# Mechanical properties :
#
#
# Convention : Reuss Voigt Hill
#
# Bulk Modulus (GPa) = 19.92103 54.39142 37.15623
# Shear Modulus (GPa) = 71.28616 28.28172 49.78394
#
# Velocity S-wave (km/s) = 5.48300 3.45357 4.58206
# Velocity P-wave (km/s) = 6.96317 6.23228 6.60783
#
# Compressibility (1/GPa) = 0.05019820
#
# Stress axis : x y z
#
# Youngs Moduli (GPa) = 29.51686 169.95144 52.85004
#
# Poissons Ratio (x) = 1.30984 -0.34460
# Poissons Ratio (y) = 0.22749 0.16153
# Poissons Ratio (z) = -0.19246 0.51943
#
# Static dielectric constant tensor:
#      x y z
#    x 1.850040 0.000000 0.000000 
#    y 0.000000 1.941460 0.000000 
#    z 0.000000 0.000000 1.949310 
# 
# From -- ./inp_files/19014.got.cif
#   From: 2010.05.17/outbox.cif.g08.bks.cpg/sg62_10_cif.got.tgz:19014.got - 2010.06.03 15:25:27.
