data_PCOD9465178
_publ_section_title
;
Structure prediction by ZEFSAII (Michael W. Deem and Ramdas Pophale) SiO2 
 PCOD9465178
Probable space group: P N M A
;
_chemical_formula_sum "Si O2"
_cell_formula_units_Z 56
_cell_length_a 16.284988
_cell_length_b 14.245451
_cell_length_c 12.356638
_cell_angle_alpha 90.000000
_cell_angle_beta 90.000000
_cell_angle_gamma 90.000000
_cell_volume 2866.579362
_symmetry_space_group_name_H-M "P N M A"
_symmetry_group_IT_number 62
_symmetry_cell_setting 'orthorhombic'
loop_
_space_group_symop_operation_xyz
x,y,z
1/2-x,-y,1/2+z
1/2+x,1/2-y,1/2-z
-x,1/2+y,-z
-x,-y,-z
1/2+x,y,1/2-z
1/2-x,1/2+y,1/2+z
x,1/2-y,z
loop_
_atom_site_type_symbol
_atom_site_label
_atom_site_fract_x
_atom_site_fract_y
_atom_site_fract_z
Si Si1 0.869149 0.019885 0.432504
Si Si2 0.588866 0.359387 0.497659
Si Si3 0.405919 0.857463 0.752983
Si Si4 0.073426 0.639481 0.136134
Si Si5 0.196964 0.534909 0.982596
Si Si6 0.207767 0.859774 0.759595
Si Si7 0.465944 0.454147 0.859309
O O1 0.834477 0.089377 0.341491
O O2 0.917686 0.069098 0.530978
O O3 0.791912 0.967502 0.485102
O O4 0.936827 0.951590 0.379650
O O5 0.611559 0.250000 0.511454
O O6 0.565867 0.371709 0.371219
O O7 0.510564 0.381457 0.571348
O O8 0.662250 0.429408 0.526103
O O9 0.425230 0.750000 0.785468
O O10 0.306887 0.867361 0.750179
O O11 0.444322 0.937801 0.827170
O O12 0.088603 0.750000 0.128314
O O13 0.062391 0.607560 0.258973
O O14 0.145603 0.583662 0.077557
O O15 0.183444 0.589661 0.870978
O O16 0.186364 0.750000 0.762863
#
# Coordination Sequence:
#
# PCOD9465178 Si02
#       7
#     8   8   8   8   8   8   8
#     4  11  25  40  67  92 129 175 221 254 324 386
#     4  10  21  38  64  96 127 164 210 267 328 383
#     4  10  20  38  63  92 127 164 211 269 321 380
#     4  11  24  42  65  97 131 167 215 270 331 387
#     4  12  22  41  68  96 130 168 214 279 324 381
#     4  11  23  40  64  97 130 166 219 267 317 385
#     4  11  23  45  62  91 135 177 210 265 323 389
#
# _framework density 19.535478999999999
#
# number of rings (size 3 to 8) (size 9 to 14) (size 15 to 20)
#    0.000    1.143    4.286    1.714    2.000    1.143 
#    0.000    3.571    0.000    0.857    0.000    0.000 
#    0.000    0.000    0.000    0.000    0.000    0.000 
#
# Total GULP energy -313127.139822 kJ/mol
# GULP energy per Si atom -5591.556068 kJ/mol
# Density = 1.949102 g / cm^3
# Si number density = 19.535479 Si / 1000 Ang^3
#
#
#
# Elastic Constant Matrix: (Units=GPa)
#
#
# Indices 1 2 3 4 5 6 
#
# 1 76.5448 28.4192 31.6606 0.0000 0.0000 0.0000
# 2 28.4192 52.5483 25.4608 0.0000 0.0000 0.0000
# 3 31.6606 25.4608 100.6424 0.0000 0.0000 0.0000
# 4 0.0000 0.0000 0.0000 8.4490 0.0000 0.0000
# 5 0.0000 0.0000 0.0000 0.0000 8.3350 0.0000
# 6 0.0000 0.0000 0.0000 0.0000 0.0000 11.3675
#
#
#
# Elastic Compliance Matrix: (Units=1/GPa)
#
#
# Indices 1 2 3 4 5 6 
#
# 1 0.017376 -0.007692 -0.003520 0.000000 0.000000 0.000000
# 2 -0.007692 0.025093 -0.003929 0.000000 0.000000 0.000000
# 3 -0.003520 -0.003929 0.012037 0.000000 0.000000 0.000000
# 4 0.000000 0.000000 0.000000 0.118358 0.000000 0.000000
# 5 0.000000 0.000000 0.000000 0.000000 0.119976 0.000000
# 6 0.000000 0.000000 0.000000 0.000000 0.000000 0.087970
#
#
# Mechanical properties :
#
#
# Convention : Reuss Voigt Hill
#
# Bulk Modulus (GPa) = 41.27828 44.53519 42.90673
# Shear Modulus (GPa) = 11.92842 15.24329 13.58586
#
# Velocity S-wave (km/s) = 2.47372 2.79639 2.63999
# Velocity P-wave (km/s) = 5.41616 5.76827 5.59499
#
# Compressibility (1/GPa) = 0.02422582
#
# Stress axis : x y z
#
# Youngs Moduli (GPa) = 57.55041 39.85114 83.07388
#
# Poissons Ratio (x) = 0.30652 0.29245
# Poissons Ratio (y) = 0.44266 0.32636
# Poissons Ratio (z) = 0.20260 0.15656
#
# Static dielectric constant tensor:
#      x y z
#    x 1.682860 0.000000 0.000000 
#    y 0.000000 1.662780 0.000000 
#    z 0.000000 0.000000 1.670440 
# 
# From -- ./inp_files/13357.got.cif
#   From: 2010.05.17/outbox.cif.g08.bks.cpg/sg62_7_cif.got.tgz:13357.got - 2010.06.03 15:25:27.
