data_PCOD9465816
_publ_section_title
;
Structure prediction by ZEFSAII (Michael W. Deem and Ramdas Pophale) SiO2 
 PCOD9465816
Probable space group: P N M A
;
_chemical_formula_sum "Si O2"
_cell_formula_units_Z 40
_cell_length_a 17.758438
_cell_length_b 10.204332
_cell_length_c 10.528238
_cell_angle_alpha 90.000000
_cell_angle_beta 90.000000
_cell_angle_gamma 90.000000
_cell_volume 1907.853563
_symmetry_space_group_name_H-M "P N M A"
_symmetry_group_IT_number 62
_symmetry_cell_setting 'orthorhombic'
loop_
_space_group_symop_operation_xyz
x,y,z
1/2-x,-y,1/2+z
1/2+x,1/2-y,1/2-z
-x,1/2+y,-z
-x,-y,-z
1/2+x,y,1/2-z
1/2-x,1/2+y,1/2+z
x,1/2-y,z
loop_
_atom_site_type_symbol
_atom_site_label
_atom_site_fract_x
_atom_site_fract_y
_atom_site_fract_z
Si Si1 0.169633 0.102097 0.644197
Si Si2 0.095448 0.608703 0.007091
Si Si3 0.412786 0.897820 0.880999
Si Si4 0.697490 0.098288 0.361625
Si Si5 0.025506 0.466599 0.787723
O O1 0.201920 0.250000 0.640656
O O2 0.132759 0.070630 0.507489
O O3 0.229458 0.988221 0.670402
O O4 0.101251 0.102176 0.743634
O O5 0.134029 0.750000 0.008945
O O6 0.150944 0.487405 0.035192
O O7 0.032024 0.605309 0.117464
O O8 0.052947 0.588098 0.874212
O O9 0.442665 0.750000 0.896614
O O10 0.355089 0.898296 0.762783
O O11 0.479408 0.992008 0.836821
O O12 0.712281 0.250000 0.398868
#
# Coordination Sequence:
#
# PCOD9465816 Si02
#       5
#     8   8   8   8   8
#     4  11  23  39  62  91 124 160 202 252 307 362
#     4  10  21  39  64  91 123 163 205 251 305 359
#     4   9  20  40  61  86 121 159 200 250 305 365
#     4  10  23  41  60  87 123 162 206 251 303 364
#     4  10  21  37  63  94 122 157 203 255 301 361
#
# _framework density 20.965969000000001
#
# number of rings (size 3 to 8) (size 9 to 14) (size 15 to 20)
#    0.000    2.000    0.000    2.400    2.800    7.200 
#    0.000    5.000    0.000    0.000    0.000    0.000 
#    0.000    0.000    0.000    0.000    0.000    0.000 
#
# Total GULP energy -223218.282139 kJ/mol
# GULP energy per Si atom -5580.457053 kJ/mol
# Density = 2.091825 g / cm^3
# Si number density = 20.965969 Si / 1000 Ang^3
#
#
#
# Elastic Constant Matrix: (Units=GPa)
#
#
# Indices 1 2 3 4 5 6 
#
# 1 73.4761 59.2819 -15.4023 0.0000 0.0000 0.0000
# 2 59.2819 149.7280 7.9977 0.0000 0.0000 0.0000
# 3 -15.4023 7.9977 26.9045 0.0000 0.0000 0.0000
# 4 0.0000 0.0000 0.0000 -0.0397 0.0000 0.0000
# 5 0.0000 0.0000 0.0000 0.0000 14.9307 0.0000
# 6 0.0000 0.0000 0.0000 0.0000 0.0000 -7.5362
#
#
#
# Elastic Compliance Matrix: (Units=1/GPa)
#
#
# Indices 1 2 3 4 5 6 
#
# 1 0.027040 -0.011719 0.018964 0.000000 0.000000 0.000000
# 2 -0.011719 0.011865 -0.010236 0.000000 0.000000 0.000000
# 3 0.018964 -0.010236 0.051067 0.000000 0.000000 0.000000
# 4 0.000000 0.000000 0.000000-25.192418 0.000000 0.000000
# 5 0.000000 0.000000 0.000000 0.000000 0.066976 0.000000
# 6 0.000000 0.000000 0.000000 0.000000 0.000000 -0.132692
#
#
# Mechanical properties :
#
#
# Convention : Reuss Voigt Hill
#
# Bulk Modulus (GPa) = 11.90615 39.31812 25.61214
# Shear Modulus (GPa) = -0.19893 14.68637 7.24372
#
# Velocity S-wave (km/s) = -0.30837 2.64954 1.86078
# Velocity P-wave (km/s) = 2.35889 5.30604 4.10600
#
# Compressibility (1/GPa) = 0.08399023
#
# Stress axis : x y z
#
# Youngs Moduli (GPa) = 36.98204 84.27846 19.58193
#
# Poissons Ratio (x) = 0.98766 -0.37134
# Poissons Ratio (y) = 0.43339 0.20044
# Poissons Ratio (z) = -0.70131 0.86267
#
# Static dielectric constant tensor:
#      x y z
#    x 1.756670 0.000000 0.000000 
#    y 0.000000 1.808060 0.000000 
#    z 0.000000 0.000000 1.746750 
# 
# From -- ./inp_files/13876.got.cif
#   From: 2010.05.17/outbox.cif.g08.bks.cpg/sg62_7_cif.got.tgz:13876.got - 2010.06.03 15:25:27.
