data_PCOD9465146
_publ_section_title
;
Structure prediction by ZEFSAII (Michael W. Deem and Ramdas Pophale) SiO2 
 PCOD9465146
Probable space group: P N M A
;
_chemical_formula_sum "Si O2"
_cell_formula_units_Z 48
_cell_length_a 13.322673
_cell_length_b 11.801824
_cell_length_c 13.748347
_cell_angle_alpha 90.000000
_cell_angle_beta 90.000000
_cell_angle_gamma 90.000000
_cell_volume 2161.677923
_symmetry_space_group_name_H-M "P N M A"
_symmetry_group_IT_number 62
_symmetry_cell_setting 'orthorhombic'
loop_
_space_group_symop_operation_xyz
x,y,z
1/2-x,-y,1/2+z
1/2+x,1/2-y,1/2-z
-x,1/2+y,-z
-x,-y,-z
1/2+x,y,1/2-z
1/2-x,1/2+y,1/2+z
x,1/2-y,z
loop_
_atom_site_type_symbol
_atom_site_label
_atom_site_fract_x
_atom_site_fract_y
_atom_site_fract_z
Si Si1 0.685525 0.426184 0.206520
Si Si2 0.464503 0.376566 0.241257
Si Si3 0.369759 0.126209 0.435092
Si Si4 0.912088 0.622695 0.346206
Si Si5 0.741375 0.494903 0.417142
Si Si6 0.625844 0.878000 0.075624
O O1 0.576099 0.372416 0.198320
O O2 0.772220 0.378093 0.137443
O O3 0.713302 0.430046 0.319426
O O4 0.667333 0.552821 0.167191
O O5 0.418988 0.250000 0.217215
O O6 0.460020 0.384300 0.358482
O O7 0.422630 0.501985 0.211285
O O8 0.376332 0.250000 0.481222
O O9 0.350818 0.029770 0.514121
O O10 0.921971 0.750000 0.300689
O O11 0.802287 0.609647 0.391592
O O12 0.004896 0.616141 0.421991
O O13 0.822812 0.426977 0.480218
O O14 0.656431 0.750000 0.085969
#
# Coordination Sequence:
#
# PCOD9465146 Si02
#       6
#     8   8   8   8   8   8
#     4  10  21  38  60  86 119 160 207 250 303 362
#     4  10  21  39  62  88 122 163 204 252 302 362
#     4  10  21  38  57  86 120 155 203 255 302 359
#     4  10  20  38  62  90 120 159 204 254 310 362
#     4  11  21  36  59  89 119 161 203 248 307 366
#     4   9  21  37  56  86 123 155 203 258 304 357
#
# _framework density 22.204974
#
# number of rings (size 3 to 8) (size 9 to 14) (size 15 to 20)
#    0.000    2.000    1.667    1.500    0.000    4.000 
#    0.000    4.167    0.000    0.000    0.000    0.000 
#    0.000    0.000    0.000    0.000    0.000    0.000 
#
# Total GULP energy -267379.738042 kJ/mol
# GULP energy per Si atom -5570.411209 kJ/mol
# Density = 2.215443 g / cm^3
# Si number density = 22.204974 Si / 1000 Ang^3
#
#
#
# Elastic Constant Matrix: (Units=GPa)
#
#
# Indices 1 2 3 4 5 6 
#
# 1 22.1518 2.4422 -10.8832 0.0000 0.0000 0.0000
# 2 2.4422 165.8931 27.3141 0.0000 0.0000 0.0000
# 3 -10.8832 27.3141 61.3932 0.0000 0.0000 0.0000
# 4 0.0000 0.0000 0.0000 5.7788 0.0000 0.0000
# 5 0.0000 0.0000 0.0000 0.0000 25.8146 0.0000
# 6 0.0000 0.0000 0.0000 0.0000 0.0000 3.4951
#
#
#
# Elastic Compliance Matrix: (Units=1/GPa)
#
#
# Indices 1 2 3 4 5 6 
#
# 1 0.050308 -0.002384 0.009979 0.000000 0.000000 0.000000
# 2 -0.002384 0.006617 -0.003367 0.000000 0.000000 0.000000
# 3 0.009979 -0.003367 0.019555 0.000000 0.000000 0.000000
# 4 0.000000 0.000000 0.000000 0.173046 0.000000 0.000000
# 5 0.000000 0.000000 0.000000 0.000000 0.038738 0.000000
# 6 0.000000 0.000000 0.000000 0.000000 0.000000 0.286112
#
#
# Mechanical properties :
#
#
# Convention : Reuss Voigt Hill
#
# Bulk Modulus (GPa) = 11.77331 31.90937 21.84134
# Shear Modulus (GPa) = 8.41421 22.38871 15.40146
#
# Velocity S-wave (km/s) = 1.94873 3.17878 2.63649
# Velocity P-wave (km/s) = 3.22134 5.27962 4.37330
#
# Compressibility (1/GPa) = 0.08493788
#
# Stress axis : x y z
#
# Youngs Moduli (GPa) = 19.87740 151.11714 51.13723
#
# Poissons Ratio (x) = 0.36020 -0.51028
# Poissons Ratio (y) = 0.04738 0.17216
# Poissons Ratio (z) = -0.19835 0.50876
#
# Static dielectric constant tensor:
#      x y z
#    x 1.872070 0.000000 0.000000 
#    y 0.000000 1.825360 0.000000 
#    z 0.000000 0.000000 1.849850 
# 
# From -- ./inp_files/18871.got.cif
#   From: 2010.05.17/outbox.cif.g08.bks.cpg/sg62_10_cif.got.tgz:18871.got - 2010.06.03 15:25:27.
