data_PCOD9465507
_publ_section_title
;
Structure prediction by ZEFSAII (Michael W. Deem and Ramdas Pophale) SiO2 
 PCOD9465507
Probable space group: P N M A
;
_chemical_formula_sum "Si O2"
_cell_formula_units_Z 64
_cell_length_a 29.044771
_cell_length_b 7.925702
_cell_length_c 13.104099
_cell_angle_alpha 90.000000
_cell_angle_beta 90.000000
_cell_angle_gamma 90.000000
_cell_volume 3016.566205
_symmetry_space_group_name_H-M "P N M A"
_symmetry_group_IT_number 62
_symmetry_cell_setting 'orthorhombic'
loop_
_space_group_symop_operation_xyz
x,y,z
1/2-x,-y,1/2+z
1/2+x,1/2-y,1/2-z
-x,1/2+y,-z
-x,-y,-z
1/2+x,y,1/2-z
1/2-x,1/2+y,1/2+z
x,1/2-y,z
loop_
_atom_site_type_symbol
_atom_site_label
_atom_site_fract_x
_atom_site_fract_y
_atom_site_fract_z
Si Si1 0.381464 0.949533 0.547884
Si Si2 0.667360 0.544428 0.150276
Si Si3 0.692681 0.951033 0.934990
Si Si4 0.038459 0.048667 0.191880
Si Si5 0.563194 0.952756 0.091377
Si Si6 0.090733 0.543443 0.626633
Si Si7 0.209080 0.948555 0.141386
Si Si8 0.060227 0.954607 0.852040
O O1 0.377254 0.750000 0.561848
O O2 0.415380 0.020011 0.637547
O O3 0.330056 0.020481 0.556749
O O4 0.406590 0.984201 0.441231
O O5 0.667618 0.750000 0.154911
O O6 0.614834 0.497903 0.127082
O O7 0.687415 0.477253 0.255027
O O8 0.695960 0.488642 0.051800
O O9 0.687224 0.750000 0.938664
O O10 0.643863 0.012434 0.890287
O O11 0.740031 0.986886 0.879356
O O12 0.040151 0.250000 0.179849
O O13 0.992544 0.986819 0.135390
O O14 0.033627 0.015739 0.313054
O O15 0.559587 0.750000 0.090328
O O16 0.560841 0.011149 0.973144
O O17 0.089504 0.750000 0.625218
O O18 0.075046 0.489914 0.738456
O O19 0.213711 0.750000 0.154314
O O20 0.060964 0.750000 0.853713
#
# Coordination Sequence:
#
# PCOD9465507 Si02
#       8
#     8   8   8   8   8   8   8   8
#     4  11  23  38  54  78 110 146 188 233 277 324
#     4   8  16  32  53  74 101 137 175 216 264 318
#     4   9  18  35  56  79 107 140 176 221 273 328
#     4  10  21  35  54  82 114 145 183 234 284 323
#     4   9  16  32  58  81 104 142 185 222 266 328
#     4   8  17  35  58  81 110 147 184 223 277 335
#     4  11  21  35  56  82 105 137 182 226 273 330
#     4  10  21  38  57  80 114 152 185 226 279 336
#
# _framework density 21.216176999999998
#
# number of rings (size 3 to 8) (size 9 to 14) (size 15 to 20)
#    0.000    2.500    1.250    2.625    0.000    2.500 
#    0.000    7.500    0.000    0.000    0.000    0.000 
#    0.000    0.000    0.000    0.000    0.000    0.000 
#
# Total GULP energy -357005.104916 kJ/mol
# GULP energy per Si atom -5578.204764 kJ/mol
# Density = 2.116789 g / cm^3
# Si number density = 21.216177 Si / 1000 Ang^3
#
#
#
# Elastic Constant Matrix: (Units=GPa)
#
#
# Indices 1 2 3 4 5 6 
#
# 1 52.2242 -1.9947 8.5867 0.0000 0.0000 0.0000
# 2 -1.9947 9.2063 -8.1648 0.0000 0.0000 0.0000
# 3 8.5867 -8.1648 87.6392 0.0000 0.0000 0.0000
# 4 0.0000 0.0000 0.0000 14.4524 0.0000 0.0000
# 5 0.0000 0.0000 0.0000 0.0000 27.7238 0.0000
# 6 0.0000 0.0000 0.0000 0.0000 0.0000 13.3536
#
#
#
# Elastic Compliance Matrix: (Units=1/GPa)
#
#
# Indices 1 2 3 4 5 6 
#
# 1 0.019526 0.002762 -0.001656 0.000000 0.000000 0.000000
# 2 0.002762 0.118795 0.010797 0.000000 0.000000 0.000000
# 3 -0.001656 0.010797 0.012579 0.000000 0.000000 0.000000
# 4 0.000000 0.000000 0.000000 0.069192 0.000000 0.000000
# 5 0.000000 0.000000 0.000000 0.000000 0.036070 0.000000
# 6 0.000000 0.000000 0.000000 0.000000 0.000000 0.074886
#
#
# Mechanical properties :
#
#
# Convention : Reuss Voigt Hill
#
# Bulk Modulus (GPa) = 5.72391 16.21380 10.96886
# Shear Modulus (GPa) = 13.68074 21.14879 17.41476
#
# Velocity S-wave (km/s) = 2.54210 3.16068 2.86811
# Velocity P-wave (km/s) = 3.36454 4.58024 4.01863
#
# Compressibility (1/GPa) = 0.17470576
#
# Stress axis : x y z
#
# Youngs Moduli (GPa) = 51.21387 8.41786 79.50065
#
# Poissons Ratio (x) = -0.02325 0.13164
# Poissons Ratio (y) = -0.14146 -0.85835
# Poissons Ratio (z) = 0.08480 -0.09089
#
# Static dielectric constant tensor:
#      x y z
#    x 1.781570 0.000000 0.000000 
#    y 0.000000 1.749610 0.000000 
#    z 0.000000 0.000000 1.806950 
# 
# From -- ./inp_files/15928.got.cif
#   From: 2010.05.17/outbox.cif.g08.bks.cpg/sg62_8_cif.got.tgz:15928.got - 2010.06.03 15:25:27.
