data_PCOD9465675
_publ_section_title
;
Structure prediction by ZEFSAII (Michael W. Deem and Ramdas Pophale) SiO2 
 PCOD9465675
Probable space group: P N M A
;
_chemical_formula_sum "Si O2"
_cell_formula_units_Z 64
_cell_length_a 21.901260
_cell_length_b 17.264675
_cell_length_c 9.759518
_cell_angle_alpha 90.000000
_cell_angle_beta 90.000000
_cell_angle_gamma 90.000000
_cell_volume 3690.250754
_symmetry_space_group_name_H-M "P N M A"
_symmetry_group_IT_number 62
_symmetry_cell_setting 'orthorhombic'
loop_
_space_group_symop_operation_xyz
x,y,z
1/2-x,-y,1/2+z
1/2+x,1/2-y,1/2-z
-x,1/2+y,-z
-x,-y,-z
1/2+x,y,1/2-z
1/2-x,1/2+y,1/2+z
x,1/2-y,z
loop_
_atom_site_type_symbol
_atom_site_label
_atom_site_fract_x
_atom_site_fract_y
_atom_site_fract_z
Si Si1 0.547094 0.492172 0.377086
Si Si2 0.725863 0.115285 0.787631
Si Si3 0.116803 0.336054 0.529374
Si Si4 0.768592 0.610561 0.973136
Si Si5 0.381899 0.839316 0.707537
Si Si6 0.039746 0.478643 0.629790
Si Si7 0.164266 0.556511 0.711398
Si Si8 0.327576 0.060872 0.523779
O O1 0.500000 0.500000 0.500000
O O2 0.571287 0.404708 0.347098
O O3 0.508784 0.523350 0.250510
O O4 0.606719 0.541544 0.413953
O O5 0.733151 0.140383 0.629591
O O6 0.697637 0.027801 0.783972
O O7 0.677664 0.161453 0.879394
O O8 0.788535 0.112339 0.872287
O O9 0.090557 0.250000 0.531257
O O10 0.129501 0.355997 0.369478
O O11 0.072131 0.397880 0.596516
O O12 0.819488 0.651680 0.879105
O O13 0.703737 0.606869 0.895352
O O14 0.792272 0.521679 0.982946
O O15 0.403089 0.750000 0.695163
O O16 0.094981 0.538135 0.665463
O O17 0.000000 0.500000 0.500000
O O18 0.166891 0.588525 0.866616
#
# Coordination Sequence:
#
# PCOD9465675 Si02
#       8
#     8   8   8   8   8   8   8   8
#     4  11  21  36  55  84 116 148 192 237 274 331
#     4   9  18  30  50  78 104 133 172 223 275 320
#     4  10  21  37  56  79 110 147 186 233 289 343
#     4   9  18  30  50  78 104 131 174 223 272 323
#     4  10  21  37  57  79 109 148 186 231 288 345
#     4  11  21  34  55  84 113 149 193 235 275 328
#     4   9  17  30  49  76 106 136 173 219 269 320
#     4   9  17  30  50  75 106 137 170 220 271 318
#
# _framework density 17.342994999999998
#
# number of rings (size 3 to 8) (size 9 to 14) (size 15 to 20)
#    0.000    2.250    2.500    0.750    3.500    3.500 
#    0.000    0.000    0.000    3.000    0.000    0.000 
#    0.000    0.000    0.000    0.000    0.000    0.000 
#
# Total GULP energy -356559.267866 kJ/mol
# GULP energy per Si atom -5571.238560 kJ/mol
# Density = 1.730352 g / cm^3
# Si number density = 17.342995 Si / 1000 Ang^3
#
#
#
# Elastic Constant Matrix: (Units=GPa)
#
#
# Indices 1 2 3 4 5 6 
#
# 1 128.9640 25.9510 78.5200 0.0000 0.0000 0.0000
# 2 25.9510 50.0084 35.4504 0.0000 0.0000 0.0000
# 3 78.5200 35.4504 171.6720 0.0000 0.0000 0.0000
# 4 0.0000 0.0000 0.0000 16.3143 0.0000 0.0000
# 5 0.0000 0.0000 0.0000 0.0000 37.9463 0.0000
# 6 0.0000 0.0000 0.0000 0.0000 0.0000 8.5534
#
#
#
# Elastic Compliance Matrix: (Units=1/GPa)
#
#
# Indices 1 2 3 4 5 6 
#
# 1 0.011010 -0.002511 -0.004517 0.000000 0.000000 0.000000
# 2 -0.002511 0.023999 -0.003807 0.000000 0.000000 0.000000
# 3 -0.004517 -0.003807 0.008677 0.000000 0.000000 0.000000
# 4 0.000000 0.000000 0.000000 0.061296 0.000000 0.000000
# 5 0.000000 0.000000 0.000000 0.000000 0.026353 0.000000
# 6 0.000000 0.000000 0.000000 0.000000 0.000000 0.116913
#
#
# Mechanical properties :
#
#
# Convention : Reuss Voigt Hill
#
# Bulk Modulus (GPa) = 45.42414 70.05412 57.73913
# Shear Modulus (GPa) = 18.03382 26.61100 22.32241
#
# Velocity S-wave (km/s) = 3.22814 3.92138 3.59153
# Velocity P-wave (km/s) = 6.33585 7.80923 7.11080
#
# Compressibility (1/GPa) = 0.02201472
#
# Stress axis : x y z
#
# Youngs Moduli (GPa) = 90.82947 41.66910 115.24347
#
# Poissons Ratio (x) = 0.10464 0.52056
# Poissons Ratio (y) = 0.22809 0.43875
# Poissons Ratio (z) = 0.41028 0.15864
#
# Static dielectric constant tensor:
#      x y z
#    x 1.588150 0.000000 0.000000 
#    y 0.000000 1.589190 0.000000 
#    z 0.000000 0.000000 1.579090 
# 
# From -- ./inp_files/8922.got.cif
#   From: 2010.05.17/outbox.cif.g08.bks.cpg/sg62_5_cif.got.tgz:8922.got - 2010.06.03 15:25:27.
