data_PCOD9465608
_publ_section_title
;
Structure prediction by ZEFSAII (Michael W. Deem and Ramdas Pophale) SiO2 
 PCOD9465608
Probable space group: P N M A
;
_chemical_formula_sum "Si O2"
_cell_formula_units_Z 56
_cell_length_a 31.532197
_cell_length_b 15.445547
_cell_length_c 5.598895
_cell_angle_alpha 90.000000
_cell_angle_beta 90.000000
_cell_angle_gamma 90.000000
_cell_volume 2726.841202
_symmetry_space_group_name_H-M "P N M A"
_symmetry_group_IT_number 62
_symmetry_cell_setting 'orthorhombic'
loop_
_space_group_symop_operation_xyz
x,y,z
1/2-x,-y,1/2+z
1/2+x,1/2-y,1/2-z
-x,1/2+y,-z
-x,-y,-z
1/2+x,y,1/2-z
1/2-x,1/2+y,1/2+z
x,1/2-y,z
loop_
_atom_site_type_symbol
_atom_site_label
_atom_site_fract_x
_atom_site_fract_y
_atom_site_fract_z
Si Si1 0.026800 0.584087 0.569350
Si Si2 0.338216 0.599786 0.358395
Si Si3 0.798215 0.012979 0.766545
Si Si4 0.388376 0.999914 0.982721
Si Si5 0.736089 0.350791 0.960003
Si Si6 0.910494 0.656378 0.842072
Si Si7 0.001617 0.345629 0.928228
O O1 0.077143 0.571864 0.537760
O O2 0.017172 0.599221 0.850293
O O3 0.000000 0.500000 0.500000
O O4 0.011763 0.643497 0.346837
O O5 0.310809 0.523812 0.475769
O O6 0.307512 0.652578 0.188887
O O7 0.362969 0.654675 0.553962
O O8 0.374919 0.551833 0.215888
O O9 0.774270 0.928974 0.649787
O O10 0.843244 0.027100 0.632648
O O11 0.771739 0.101311 0.796475
O O12 0.411424 0.928523 0.818151
O O13 0.746131 0.250000 0.032627
O O14 0.917379 0.750000 0.719569
O O15 0.947521 0.648822 0.038114
O O16 0.988274 0.250000 0.001779
#
# Coordination Sequence:
#
# PCOD9465608 Si02
#       7
#     8   8   8   8   8   8   8
#     4  12  23  41  68  95 128 173 232 266 329 400
#     4  10  21  38  62  90 126 162 200 267 327 395
#     4  10  22  41  60  93 127 159 215 269 324 404
#     4  10  23  37  63  88 125 167 212 269 324 384
#     4  11  22  40  66  92 123 166 208 264 335 401
#     4  10  21  36  57  93 130 163 205 261 333 395
#     4  11  25  42  64  94 135 175 220 280 331 392
#
# _framework density 20.536581000000002
#
# number of rings (size 3 to 8) (size 9 to 14) (size 15 to 20)
#    0.000    1.429    2.857    2.143    4.000    6.286 
#    0.000    1.429    0.000    0.000    0.000    0.000 
#    0.000    0.000    0.000    0.000    0.000    0.000 
#
# Total GULP energy -311759.819801 kJ/mol
# GULP energy per Si atom -5567.139639 kJ/mol
# Density = 2.048984 g / cm^3
# Si number density = 20.536581 Si / 1000 Ang^3
#
#
#
# Elastic Constant Matrix: (Units=GPa)
#
#
# Indices 1 2 3 4 5 6 
#
# 1 88.5143 36.4451 8.3966 0.0000 0.0000 0.0000
# 2 36.4451 76.4320 2.0629 0.0000 0.0000 0.0000
# 3 8.3966 2.0629 32.2039 0.0000 0.0000 0.0000
# 4 0.0000 0.0000 0.0000 16.2551 0.0000 0.0000
# 5 0.0000 0.0000 0.0000 0.0000 26.9079 0.0000
# 6 0.0000 0.0000 0.0000 0.0000 0.0000 10.3460
#
#
#
# Elastic Compliance Matrix: (Units=1/GPa)
#
#
# Indices 1 2 3 4 5 6 
#
# 1 0.014404 -0.006778 -0.003321 0.000000 0.000000 0.000000
# 2 -0.006778 0.016296 0.000723 0.000000 0.000000 0.000000
# 3 -0.003321 0.000723 0.031872 0.000000 0.000000 0.000000
# 4 0.000000 0.000000 0.000000 0.061519 0.000000 0.000000
# 5 0.000000 0.000000 0.000000 0.000000 0.037164 0.000000
# 6 0.000000 0.000000 0.000000 0.000000 0.000000 0.096656
#
#
# Mechanical properties :
#
#
# Convention : Reuss Voigt Hill
#
# Bulk Modulus (GPa) = 22.82114 32.32884 27.57499
# Shear Modulus (GPa) = 17.16624 20.71818 18.94221
#
# Velocity S-wave (km/s) = 2.89431 3.17967 3.04034
# Velocity P-wave (km/s) = 4.72291 5.40894 5.07753
#
# Compressibility (1/GPa) = 0.04381902
#
# Stress axis : x y z
#
# Youngs Moduli (GPa) = 69.42686 61.36410 31.37576
#
# Poissons Ratio (x) = 0.41595 0.10421
# Poissons Ratio (y) = 0.47061 -0.02270
# Poissons Ratio (z) = 0.23059 -0.04440
#
# Static dielectric constant tensor:
#      x y z
#    x 1.766450 0.000000 0.000000 
#    y 0.000000 1.671450 0.000000 
#    z 0.000000 0.000000 1.837140 
# 
# From -- ./inp_files/3581.got.cif
#   From: 2010.05.17/outbox.cif.g08.bks.cpg/sg62_2_cif.got.tgz:3581.got - 2010.06.03 15:25:27.
