data_PCOD9465874
_publ_section_title
;
Structure prediction by ZEFSAII (Michael W. Deem and Ramdas Pophale) SiO2 
 PCOD9465874
Probable space group: P N M A
;
_chemical_formula_sum "Si O2"
_cell_formula_units_Z 48
_cell_length_a 31.392557
_cell_length_b 8.783628
_cell_length_c 9.443236
_cell_angle_alpha 90.000000
_cell_angle_beta 90.000000
_cell_angle_gamma 90.000000
_cell_volume 2603.883019
_symmetry_space_group_name_H-M "P N M A"
_symmetry_group_IT_number 62
_symmetry_cell_setting 'orthorhombic'
loop_
_space_group_symop_operation_xyz
x,y,z
1/2-x,-y,1/2+z
1/2+x,1/2-y,1/2-z
-x,1/2+y,-z
-x,-y,-z
1/2+x,y,1/2-z
1/2-x,1/2+y,1/2+z
x,1/2-y,z
loop_
_atom_site_type_symbol
_atom_site_label
_atom_site_fract_x
_atom_site_fract_y
_atom_site_fract_z
Si Si1 0.133795 0.931444 0.915189
Si Si2 0.461384 0.568311 0.089129
Si Si3 0.036589 0.932374 0.902302
Si Si4 0.708747 0.432397 0.087299
Si Si5 0.370423 0.432310 0.081326
Si Si6 0.711782 0.431577 0.418583
O O1 0.141348 0.750000 0.929707
O O2 0.084722 0.962796 0.956158
O O3 0.138068 0.968937 0.747666
O O4 0.167560 0.020737 0.008653
O O5 0.462025 0.750000 0.084083
O O6 0.466421 0.508702 0.248990
O O7 0.415391 0.506707 0.039695
O O8 0.500000 0.500000 0.000000
O O9 0.032377 0.750000 0.888719
O O10 0.000000 0.000000 0.000000
O O11 0.705335 0.250000 0.078589
O O12 0.712109 0.474736 0.252903
O O13 0.667719 0.507228 0.014362
O O14 0.750296 0.487568 0.003213
O O15 0.373973 0.250000 0.071658
O O16 0.717690 0.250000 0.427640
#
# Coordination Sequence:
#
# PCOD9465874 Si02
#       6
#     8   8   8   8   8   8
#     4   9  20  38  59  83 113 148 187 233 283 338
#     4  11  22  38  60  86 117 155 196 240 292 345
#     4  10  21  38  59  86 119 155 196 242 292 346
#     4  11  24  40  58  84 116 149 188 233 283 340
#     4  10  21  39  61  86 115 148 190 237 286 342
#     4  11  24  39  58  85 114 147 189 235 282 337
#
# _framework density 18.434009
#
# number of rings (size 3 to 8) (size 9 to 14) (size 15 to 20)
#    0.000    1.667    0.000    5.500    0.000   12.000 
#    0.000    3.333    0.000    0.000    0.000    0.000 
#    0.000    0.000    0.000    0.000    0.000    0.000 
#
# Total GULP energy -268290.608176 kJ/mol
# GULP energy per Si atom -5589.387670 kJ/mol
# Density = 1.839205 g / cm^3
# Si number density = 18.434009 Si / 1000 Ang^3
#
#
#
# Elastic Constant Matrix: (Units=GPa)
#
#
# Indices 1 2 3 4 5 6 
#
# 1 159.3850 77.4223 93.2805 0.0000 0.0000 0.0000
# 2 77.4223 99.9624 61.8805 0.0000 0.0000 0.0000
# 3 93.2805 61.8805 101.6854 0.0000 0.0000 0.0000
# 4 0.0000 0.0000 0.0000 33.3155 0.0000 0.0000
# 5 0.0000 0.0000 0.0000 0.0000 40.9666 0.0000
# 6 0.0000 0.0000 0.0000 0.0000 0.0000 40.1389
#
#
#
# Elastic Compliance Matrix: (Units=1/GPa)
#
#
# Indices 1 2 3 4 5 6 
#
# 1 0.014933 -0.004951 -0.010686 0.000000 0.000000 0.000000
# 2 -0.004951 0.017691 -0.006224 0.000000 0.000000 0.000000
# 3 -0.010686 -0.006224 0.023425 0.000000 0.000000 0.000000
# 4 0.000000 0.000000 0.000000 0.030016 0.000000 0.000000
# 5 0.000000 0.000000 0.000000 0.000000 0.024410 0.000000
# 6 0.000000 0.000000 0.000000 0.000000 0.000000 0.024914
#
#
# Mechanical properties :
#
#
# Convention : Reuss Voigt Hill
#
# Bulk Modulus (GPa) = 81.12386 91.79997 86.46191
# Shear Modulus (GPa) = 27.28962 31.44750 29.36856
#
# Velocity S-wave (km/s) = 3.85176 4.13480 3.99579
# Velocity P-wave (km/s) = 7.99279 8.52659 8.26400
#
# Compressibility (1/GPa) = 0.01232683
#
# Stress axis : x y z
#
# Youngs Moduli (GPa) = 66.96621 56.52452 42.69002
#
# Poissons Ratio (x) = 0.27984 0.45618
# Poissons Ratio (y) = 0.33154 0.26572
# Poissons Ratio (z) = 0.71559 0.35184
#
# Static dielectric constant tensor:
#      x y z
#    x 1.617640 0.000000 0.000000 
#    y 0.000000 1.609870 0.000000 
#    z 0.000000 0.000000 1.601430 
# 
# From -- ./inp_files/10125.got.cif
#   From: 2010.05.17/outbox.cif.g08.bks.cpg/sg62_6_cif.got.tgz:10125.got - 2010.06.03 15:25:27.
