data_PCOD9465701
_publ_section_title
;
Structure prediction by ZEFSAII (Michael W. Deem and Ramdas Pophale) SiO2 
 PCOD9465701
Probable space group: P N M A
;
_chemical_formula_sum "Si O2"
_cell_formula_units_Z 56
_cell_length_a 21.552868
_cell_length_b 9.178135
_cell_length_c 14.519248
_cell_angle_alpha 90.000000
_cell_angle_beta 90.000000
_cell_angle_gamma 90.000000
_cell_volume 2872.126962
_symmetry_space_group_name_H-M "P N M A"
_symmetry_group_IT_number 62
_symmetry_cell_setting 'orthorhombic'
loop_
_space_group_symop_operation_xyz
x,y,z
1/2-x,-y,1/2+z
1/2+x,1/2-y,1/2-z
-x,1/2+y,-z
-x,-y,-z
1/2+x,y,1/2-z
1/2-x,1/2+y,1/2+z
x,1/2-y,z
loop_
_atom_site_type_symbol
_atom_site_label
_atom_site_fract_x
_atom_site_fract_y
_atom_site_fract_z
Si Si1 0.278839 0.418384 0.523348
Si Si2 0.894573 0.423232 0.283424
Si Si3 0.181466 0.925038 0.392183
Si Si4 0.566119 0.575907 0.993048
Si Si5 0.512353 0.081251 0.647042
Si Si6 0.732523 0.418016 0.768283
Si Si7 0.408170 0.581492 0.542104
O O1 0.284355 0.250000 0.494374
O O2 0.232946 0.505706 0.457842
O O3 0.250206 0.422804 0.625273
O O4 0.345368 0.493895 0.526630
O O5 0.897996 0.250000 0.268662
O O6 0.903801 0.452415 0.392513
O O7 0.948362 0.503683 0.226557
O O8 0.827750 0.483856 0.251861
O O9 0.181652 0.750000 0.402404
O O10 0.114115 0.974125 0.427609
O O11 0.206786 0.959839 0.290697
O O12 0.557718 0.750000 0.000941
O O13 0.500000 0.500000 0.000000
O O14 0.499375 0.250000 0.670065
O O15 0.553777 0.078662 0.553899
O O16 0.450188 0.995477 0.619605
O O17 0.716490 0.250000 0.743698
O O18 0.396073 0.750000 0.565307
#
# Coordination Sequence:
#
# PCOD9465701 Si02
#       7
#     8   8   8   8   8   8   8
#     4  11  22  36  57  88 120 151 193 245 298 355
#     4  11  22  38  60  88 120 156 201 249 304 364
#     4  10  21  41  62  84 118 159 201 249 306 362
#     4  10  23  41  62  87 118 158 203 252 307 365
#     4  10  21  37  58  84 116 156 198 242 295 355
#     4  10  22  38  60  87 116 154 202 248 300 363
#     4  10  21  37  57  84 119 156 195 243 298 354
#
# _framework density 19.497745999999999
#
# number of rings (size 3 to 8) (size 9 to 14) (size 15 to 20)
#    0.000    1.714    1.429    2.571    0.000    9.143 
#    0.000    1.429    0.000    0.000    0.000    0.000 
#    0.000    0.000    0.000    0.000    0.000    0.000 
#
# Total GULP energy -312877.280985 kJ/mol
# GULP energy per Si atom -5587.094303 kJ/mol
# Density = 1.945337 g / cm^3
# Si number density = 19.497746 Si / 1000 Ang^3
#
#
#
# Elastic Constant Matrix: (Units=GPa)
#
#
# Indices 1 2 3 4 5 6 
#
# 1 76.5649 7.7863 -25.6189 0.0000 0.0000 0.0000
# 2 7.7863 15.4381 2.9180 0.0000 0.0000 0.0000
# 3 -25.6189 2.9180 18.3526 0.0000 0.0000 0.0000
# 4 0.0000 0.0000 0.0000 22.4839 0.0000 0.0000
# 5 0.0000 0.0000 0.0000 0.0000 19.8462 0.0000
# 6 0.0000 0.0000 0.0000 0.0000 0.0000 37.1153
#
#
#
# Elastic Compliance Matrix: (Units=1/GPa)
#
#
# Indices 1 2 3 4 5 6 
#
# 1 0.031837 -0.025215 0.048451 0.000000 0.000000 0.000000
# 2 -0.025215 0.086753 -0.048992 0.000000 0.000000 0.000000
# 3 0.048451 -0.048992 0.129912 0.000000 0.000000 0.000000
# 4 0.000000 0.000000 0.000000 0.044476 0.000000 0.000000
# 5 0.000000 0.000000 0.000000 0.000000 0.050387 0.000000
# 6 0.000000 0.000000 0.000000 0.000000 0.000000 0.026943
#
#
# Mechanical properties :
#
#
# Convention : Reuss Voigt Hill
#
# Bulk Modulus (GPa) = 5.07641 8.94740 7.01190
# Shear Modulus (GPa) = 10.25675 24.24043 17.24859
#
# Velocity S-wave (km/s) = 2.29606 3.52979 2.97753
# Velocity P-wave (km/s) = 3.10458 4.60559 3.92746
#
# Compressibility (1/GPa) = 0.19698967
#
# Stress axis : x y z
#
# Youngs Moduli (GPa) = 31.40997 11.52704 7.69751
#
# Poissons Ratio (x) = 0.29066 -0.37295
# Poissons Ratio (y) = 0.79201 0.37712
# Poissons Ratio (z) = -1.52185 0.56473
#
# Static dielectric constant tensor:
#      x y z
#    x 1.655950 0.000000 0.000000 
#    y 0.000000 1.676940 0.000000 
#    z 0.000000 0.000000 1.687700 
# 
# From -- ./inp_files/20249.got.cif
#   From: 2010.05.17/outbox.cif.g08.bks.cpg/sg62_11_cif.got.tgz:20249.got - 2010.06.03 15:25:27.
