data_PCOD9465322
_publ_section_title
;
Structure prediction by ZEFSAII (Michael W. Deem and Ramdas Pophale) SiO2 
 PCOD9465322
Probable space group: P N M A
;
_chemical_formula_sum "Si O2"
_cell_formula_units_Z 60
_cell_length_a 23.981739
_cell_length_b 9.013442
_cell_length_c 13.126185
_cell_angle_alpha 90.000000
_cell_angle_beta 90.000000
_cell_angle_gamma 90.000000
_cell_volume 2837.330075
_symmetry_space_group_name_H-M "P N M A"
_symmetry_group_IT_number 62
_symmetry_cell_setting 'orthorhombic'
loop_
_space_group_symop_operation_xyz
x,y,z
1/2-x,-y,1/2+z
1/2+x,1/2-y,1/2-z
-x,1/2+y,-z
-x,-y,-z
1/2+x,y,1/2-z
1/2-x,1/2+y,1/2+z
x,1/2-y,z
loop_
_atom_site_type_symbol
_atom_site_label
_atom_site_fract_x
_atom_site_fract_y
_atom_site_fract_z
Si Si1 0.021724 0.427087 0.342931
Si Si2 0.836879 0.917890 0.925111
Si Si3 0.318716 0.070783 0.356669
Si Si4 0.608797 0.573430 0.836628
Si Si5 0.459237 0.512311 0.629203
Si Si6 0.703601 0.928887 0.217190
Si Si7 0.871034 0.926561 0.539529
Si Si8 0.973737 0.250000 0.031098
O O1 0.027727 0.250000 0.322158
O O2 0.045570 0.518738 0.247850
O O3 0.063496 0.454420 0.435838
O O4 0.956597 0.460733 0.349011
O O5 0.813695 0.750000 0.929117
O O6 0.903211 0.907664 0.907686
O O7 0.813831 0.007259 0.827791
O O8 0.827999 0.003177 0.031321
O O9 0.314371 0.250000 0.364847
O O10 0.367682 0.037035 0.275384
O O11 0.263633 0.997065 0.310439
O O12 0.616219 0.750000 0.851129
O O13 0.640825 0.488712 0.927149
O O14 0.511390 0.620548 0.614274
O O15 0.465468 0.375439 0.556406
O O16 0.703761 0.750000 0.217920
O O17 0.663474 0.991639 0.127950
O O18 0.860289 0.750000 0.544695
#
# Coordination Sequence:
#
# PCOD9465322 Si02
#       8
#     8   8   8   8   8   8   8   4
#     4  10  20  39  65  96 135 181 221 275 334 406
#     4  12  25  44  72 104 141 176 230 285 344 413
#     4  11  27  47  72 101 137 181 230 288 355 411
#     4  10  24  43  68  98 139 180 227 278 340 410
#     4  11  22  39  61  97 138 185 227 276 339 407
#     4  12  27  48  73  99 134 179 233 291 343 412
#     4  11  23  43  70  98 135 180 231 284 342 405
#     4  10  24  34  60  92 138 182 222 268 332 410
#
# _framework density 21.146642
#
# number of rings (size 3 to 8) (size 9 to 14) (size 15 to 20)
#    0.000    1.067    2.667    2.800    7.467    1.067 
#    2.400    0.000    0.000    0.000    0.000    0.000 
#    0.000    0.000    0.000    0.000    0.000    0.000 
#
# Total GULP energy -334205.915881 kJ/mol
# GULP energy per Si atom -5570.098598 kJ/mol
# Density = 2.109851 g / cm^3
# Si number density = 21.146642 Si / 1000 Ang^3
#
#
#
# Elastic Constant Matrix: (Units=GPa)
#
#
# Indices 1 2 3 4 5 6 
#
# 1 68.8876 44.6009 47.7596 0.0000 0.0000 0.0000
# 2 44.6009 110.8472 66.2998 0.0000 0.0000 0.0000
# 3 47.7596 66.2998 170.4880 0.0000 0.0000 0.0000
# 4 0.0000 0.0000 0.0000 23.0826 0.0000 0.0000
# 5 0.0000 0.0000 0.0000 0.0000 22.4702 0.0000
# 6 0.0000 0.0000 0.0000 0.0000 0.0000 21.4716
#
#
#
# Elastic Compliance Matrix: (Units=1/GPa)
#
#
# Indices 1 2 3 4 5 6 
#
# 1 0.021033 -0.006436 -0.003389 0.000000 0.000000 0.000000
# 2 -0.006436 0.013725 -0.003535 0.000000 0.000000 0.000000
# 3 -0.003389 -0.003535 0.008190 0.000000 0.000000 0.000000
# 4 0.000000 0.000000 0.000000 0.043323 0.000000 0.000000
# 5 0.000000 0.000000 0.000000 0.000000 0.044503 0.000000
# 6 0.000000 0.000000 0.000000 0.000000 0.000000 0.046573
#
#
# Mechanical properties :
#
#
# Convention : Reuss Voigt Hill
#
# Bulk Modulus (GPa) = 61.62060 74.17148 67.89604
# Shear Modulus (GPa) = 23.86916 26.17570 25.02243
#
# Velocity S-wave (km/s) = 3.36332 3.52208 3.44362
# Velocity P-wave (km/s) = 6.65474 7.18965 6.92736
#
# Compressibility (1/GPa) = 0.01622834
#
# Stress axis : x y z
#
# Youngs Moduli (GPa) = 47.54440 72.85973 122.10734
#
# Poissons Ratio (x) = 0.46890 0.41386
# Poissons Ratio (y) = 0.30598 0.43160
# Poissons Ratio (z) = 0.16114 0.25753
#
# Static dielectric constant tensor:
#      x y z
#    x 1.818430 0.000000 0.000000 
#    y 0.000000 1.698120 0.000000 
#    z 0.000000 0.000000 1.756020 
# 
# From -- ./inp_files/15498.got.cif
#   From: 2010.05.17/outbox.cif.g08.bks.cpg/sg62_8_cif.got.tgz:15498.got - 2010.06.03 15:25:27.
