data_PCOD9465753
_publ_section_title
;
Structure prediction by ZEFSAII (Michael W. Deem and Ramdas Pophale) SiO2 
 PCOD9465753
Probable space group: P N M A
;
_chemical_formula_sum "Si O2"
_cell_formula_units_Z 48
_cell_length_a 15.335867
_cell_length_b 9.160070
_cell_length_c 17.524362
_cell_angle_alpha 90.000000
_cell_angle_beta 90.000000
_cell_angle_gamma 90.000000
_cell_volume 2461.780582
_symmetry_space_group_name_H-M "P N M A"
_symmetry_group_IT_number 62
_symmetry_cell_setting 'orthorhombic'
loop_
_space_group_symop_operation_xyz
x,y,z
1/2-x,-y,1/2+z
1/2+x,1/2-y,1/2-z
-x,1/2+y,-z
-x,-y,-z
1/2+x,y,1/2-z
1/2-x,1/2+y,1/2+z
x,1/2-y,z
loop_
_atom_site_type_symbol
_atom_site_label
_atom_site_fract_x
_atom_site_fract_y
_atom_site_fract_z
Si Si1 0.424585 0.922322 0.126829
Si Si2 0.223612 0.424178 0.927387
Si Si3 0.601789 0.419042 0.123260
Si Si4 0.730602 0.924310 0.419042
Si Si5 0.604790 0.418882 0.307352
Si Si6 0.072957 0.077554 0.808122
O O1 0.442430 0.750000 0.115516
O O2 0.333451 0.959612 0.087348
O O3 0.411265 0.945344 0.217930
O O4 0.507849 0.015362 0.101755
O O5 0.227441 0.250000 0.935979
O O6 0.318316 0.488404 0.908467
O O7 0.156721 0.458648 0.858933
O O8 0.193615 0.499629 0.005517
O O9 0.609060 0.250000 0.099545
O O10 0.608085 0.426789 0.215485
O O11 0.721934 0.750000 0.422265
O O12 0.680043 0.986938 0.346269
O O13 0.613144 0.250000 0.329839
O O14 0.511208 0.484133 0.330662
O O15 0.053716 0.250000 0.818395
#
# Coordination Sequence:
#
# PCOD9465753 Si02
#       6
#     8   8   8   8   8   8
#     4   9  19  37  60  83 107 141 186 231 275 326
#     4  11  23  38  57  82 114 151 188 229 278 331
#     4  10  21  37  59  86 113 143 182 229 279 331
#     4  11  23  38  57  82 114 151 188 229 278 331
#     4  10  21  37  59  86 113 143 182 229 279 331
#     4   9  19  37  60  83 107 141 186 231 275 326
#
# _framework density 19.498083000000001
#
# number of rings (size 3 to 8) (size 9 to 14) (size 15 to 20)
#    0.000    2.000    0.000    3.000    0.000    7.333 
#    0.000    3.333    0.000    0.000    0.000    0.000 
#    0.000    0.000    0.000    0.000    0.000    0.000 
#
# Total GULP energy -268253.186453 kJ/mol
# GULP energy per Si atom -5588.608051 kJ/mol
# Density = 1.945370 g / cm^3
# Si number density = 19.498083 Si / 1000 Ang^3
#
#
#
# Elastic Constant Matrix: (Units=GPa)
#
#
# Indices 1 2 3 4 5 6 
#
# 1 76.8679 42.3695 13.9946 0.0000 0.0000 0.0000
# 2 42.3695 68.5809 23.0740 0.0000 0.0000 0.0000
# 3 13.9946 23.0740 27.7494 0.0000 0.0000 0.0000
# 4 0.0000 0.0000 0.0000 23.3367 0.0000 0.0000
# 5 0.0000 0.0000 0.0000 0.0000 -28.7027 0.0000
# 6 0.0000 0.0000 0.0000 0.0000 0.0000 28.6694
#
#
#
# Elastic Compliance Matrix: (Units=1/GPa)
#
#
# Indices 1 2 3 4 5 6 
#
# 1 0.019728 -0.012275 0.000257 0.000000 0.000000 0.000000
# 2 -0.012275 0.027882 -0.016994 0.000000 0.000000 0.000000
# 3 0.000257 -0.016994 0.050038 0.000000 0.000000 0.000000
# 4 0.000000 0.000000 0.000000 0.042851 0.000000 0.000000
# 5 0.000000 0.000000 0.000000 0.000000 -0.034840 0.000000
# 6 0.000000 0.000000 0.000000 0.000000 0.000000 0.034880
#
#
# Mechanical properties :
#
#
# Convention : Reuss Voigt Hill
#
# Bulk Modulus (GPa) = 25.23640 36.89716 31.06678
# Shear Modulus (GPa) = 23.61025 10.91135 17.26080
#
# Velocity S-wave (km/s) = 3.48358 2.36818 2.97855
# Velocity P-wave (km/s) = 5.39921 5.14220 5.27227
#
# Compressibility (1/GPa) = 0.03962531
#
# Stress axis : x y z
#
# Youngs Moduli (GPa) = 50.68844 35.86484 19.98475
#
# Poissons Ratio (x) = 0.44023 -0.00514
# Poissons Ratio (y) = 0.62219 0.33963
# Poissons Ratio (z) = -0.01304 0.60950
#
# Static dielectric constant tensor:
#      x y z
#    x 1.647240 0.000000 0.000000 
#    y 0.000000 1.647940 0.000000 
#    z 0.000000 0.000000 1.701190 
# 
# From -- ./inp_files/6458.got.cif
#   From: 2010.05.17/outbox.cif.g08.bks.cpg/sg62_4_cif.got.tgz:6458.got - 2010.06.03 15:25:27.
