data_PCOD9465429
_publ_section_title
;
Structure prediction by ZEFSAII (Michael W. Deem and Ramdas Pophale) SiO2 
 PCOD9465429
Probable space group: P N M A
;
_chemical_formula_sum "Si O2"
_cell_formula_units_Z 56
_cell_length_a 32.664548
_cell_length_b 13.980033
_cell_length_c 5.251765
_cell_angle_alpha 90.000000
_cell_angle_beta 90.000000
_cell_angle_gamma 90.000000
_cell_volume 2398.226149
_symmetry_space_group_name_H-M "P N M A"
_symmetry_group_IT_number 62
_symmetry_cell_setting 'orthorhombic'
loop_
_space_group_symop_operation_xyz
x,y,z
1/2-x,-y,1/2+z
1/2+x,1/2-y,1/2-z
-x,1/2+y,-z
-x,-y,-z
1/2+x,y,1/2-z
1/2-x,1/2+y,1/2+z
x,1/2-y,z
loop_
_atom_site_type_symbol
_atom_site_label
_atom_site_fract_x
_atom_site_fract_y
_atom_site_fract_z
Si Si1 0.110747 0.981344 0.653064
Si Si2 0.035227 0.567119 0.377647
Si Si3 0.333312 0.139326 0.465257
Si Si4 0.494252 0.353509 0.361630
Si Si5 0.085369 0.359041 0.018970
Si Si6 0.748268 0.935690 0.770989
Si Si7 0.164573 0.059706 0.283798
O O1 0.082692 0.958778 0.411054
O O2 0.151847 0.037670 0.572946
O O3 0.126728 0.888052 0.797762
O O4 0.084499 0.057813 0.809686
O O5 0.000000 0.500000 0.500000
O O6 0.024290 0.582727 0.086003
O O7 0.029285 0.646871 0.596052
O O8 0.335290 0.250000 0.557975
O O9 0.291501 0.125806 0.300632
O O10 0.332448 0.047682 0.658480
O O11 0.490858 0.250000 0.484603
O O12 0.543046 0.368281 0.325010
O O13 0.086477 0.250000 0.918195
O O14 0.126962 0.380744 0.169627
O O15 0.792726 0.887065 0.750693
O O16 0.752667 0.017200 0.550393
#
# Coordination Sequence:
#
# PCOD9465429 Si02
#       7
#     8   8   8   8   8   8   8
#     4  11  23  41  66  92 132 174 218 277 334 391
#     4  12  24  41  68  92 128 175 224 270 336 401
#     4  10  23  41  64  97 133 174 220 267 330 396
#     4  11  25  44  64  95 132 171 223 280 330 394
#     4  10  23  41  65  95 128 170 221 278 334 391
#     4  10  20  42  68  91 127 171 215 267 324 389
#     4  10  22  41  67  95 131 174 212 273 329 395
#
# _framework density 23.350591999999999
#
# number of rings (size 3 to 8) (size 9 to 14) (size 15 to 20)
#    0.000    1.429    2.857    1.714    4.000    2.857 
#    0.000    0.000    0.000    0.000    0.000    0.000 
#    0.000    0.000    0.000    0.000    0.000    0.000 
#
# Total GULP energy -312283.570677 kJ/mol
# GULP energy per Si atom -5576.492334 kJ/mol
# Density = 2.329744 g / cm^3
# Si number density = 23.350592 Si / 1000 Ang^3
#
#
#
# Elastic Constant Matrix: (Units=GPa)
#
#
# Indices 1 2 3 4 5 6 
#
# 1 132.9436 30.8762 18.3834 0.0000 0.0000 0.0000
# 2 30.8762 97.9420 14.3733 0.0000 0.0000 0.0000
# 3 18.3834 14.3733 66.3436 0.0000 0.0000 0.0000
# 4 0.0000 0.0000 0.0000 14.7894 0.0000 0.0000
# 5 0.0000 0.0000 0.0000 0.0000 49.9890 0.0000
# 6 0.0000 0.0000 0.0000 0.0000 0.0000 22.1405
#
#
#
# Elastic Compliance Matrix: (Units=1/GPa)
#
#
# Indices 1 2 3 4 5 6 
#
# 1 0.008318 -0.002359 -0.001794 0.000000 0.000000 0.000000
# 2 -0.002359 0.011214 -0.001776 0.000000 0.000000 0.000000
# 3 -0.001794 -0.001776 0.015955 0.000000 0.000000 0.000000
# 4 0.000000 0.000000 0.000000 0.067616 0.000000 0.000000
# 5 0.000000 0.000000 0.000000 0.000000 0.020004 0.000000
# 6 0.000000 0.000000 0.000000 0.000000 0.000000 0.045166
#
#
# Mechanical properties :
#
#
# Convention : Reuss Voigt Hill
#
# Bulk Modulus (GPa) = 42.31944 47.16610 44.74277
# Shear Modulus (GPa) = 26.59465 32.95687 29.77576
#
# Velocity S-wave (km/s) = 3.37846 3.76093 3.57481
# Velocity P-wave (km/s) = 5.77767 6.25319 6.02013
#
# Compressibility (1/GPa) = 0.02362980
#
# Stress axis : x y z
#
# Youngs Moduli (GPa) = 120.22271 89.17098 62.67689
#
# Poissons Ratio (x) = 0.21035 0.11243
# Poissons Ratio (y) = 0.28360 0.11131
# Poissons Ratio (z) = 0.21565 0.15836
#
# Static dielectric constant tensor:
#      x y z
#    x 1.895910 0.000000 0.000000 
#    y 0.000000 2.061180 0.000000 
#    z 0.000000 0.000000 1.957870 
# 
# From -- ./inp_files/3613.got.cif
#   From: 2010.05.17/outbox.cif.g08.bks.cpg/sg62_2_cif.got.tgz:3613.got - 2010.06.03 15:25:27.
