data_PCOD9465218
_publ_section_title
;
Structure prediction by ZEFSAII (Michael W. Deem and Ramdas Pophale) SiO2 
 PCOD9465218
Probable space group: P N M A
;
_chemical_formula_sum "Si O2"
_cell_formula_units_Z 32
_cell_length_a 15.061539
_cell_length_b 10.441383
_cell_length_c 10.305269
_cell_angle_alpha 90.000000
_cell_angle_beta 90.000000
_cell_angle_gamma 90.000000
_cell_volume 1620.640582
_symmetry_space_group_name_H-M "P N M A"
_symmetry_group_IT_number 62
_symmetry_cell_setting 'orthorhombic'
loop_
_space_group_symop_operation_xyz
x,y,z
1/2-x,-y,1/2+z
1/2+x,1/2-y,1/2-z
-x,1/2+y,-z
-x,-y,-z
1/2+x,y,1/2-z
1/2-x,1/2+y,1/2+z
x,1/2-y,z
loop_
_atom_site_type_symbol
_atom_site_label
_atom_site_fract_x
_atom_site_fract_y
_atom_site_fract_z
Si Si1 0.854989 0.990738 0.050645
Si Si2 0.540311 0.021788 0.296984
Si Si3 0.984567 0.250000 0.687948
Si Si4 0.311493 0.750000 0.293728
Si Si5 0.252861 0.250000 0.508654
Si Si6 0.947521 0.750000 0.595640
O O1 0.944414 0.017725 0.132877
O O2 0.801615 0.877675 0.121010
O O3 0.801940 0.122075 0.037352
O O4 0.888403 0.946887 0.908544
O O5 0.538013 0.125496 0.183887
O O6 0.557864 0.880216 0.240895
O O7 0.085511 0.250000 0.744661
O O8 0.991782 0.250000 0.532665
O O9 0.253774 0.750000 0.164551
O O10 0.153477 0.250000 0.453733
#
# Coordination Sequence:
#
# PCOD9465218 Si02
#       6
#     8   8   4   4   4   4
#     4  10  21  40  63  86 115 161 208 250 295 356
#     4  10  20  38  66  87 113 158 211 245 290 360
#     4   9  19  37  59  88 119 149 191 253 296 344
#     4   9  21  39  57  84 122 151 197 256 297 353
#     4  11  24  37  57  87 128 160 193 252 312 358
#     4  11  22  35  57  93 125 154 193 247 307 359
#
# _framework density 19.745279
#
# number of rings (size 3 to 8) (size 9 to 14) (size 15 to 20)
#    0.000    2.000    0.000    3.000    3.500    4.000 
#    0.000    0.000    0.000    0.000    0.000    0.000 
#    0.000    0.000    0.000    0.000    0.000    0.000 
#
# Total GULP energy -178864.689031 kJ/mol
# GULP energy per Si atom -5589.521532 kJ/mol
# Density = 1.970034 g / cm^3
# Si number density = 19.745279 Si / 1000 Ang^3
#
#
#
# Elastic Constant Matrix: (Units=GPa)
#
#
# Indices 1 2 3 4 5 6 
#
# 1 30.3053 25.8010 26.4650 0.0000 0.0000 0.0000
# 2 25.8010 172.9432 88.9767 0.0000 0.0000 0.0000
# 3 26.4650 88.9767 155.9794 0.0000 0.0000 0.0000
# 4 0.0000 0.0000 0.0000 40.2862 0.0000 0.0000
# 5 0.0000 0.0000 0.0000 0.0000 9.3548 0.0000
# 6 0.0000 0.0000 0.0000 0.0000 0.0000 -51.5028
#
#
#
# Elastic Compliance Matrix: (Units=1/GPa)
#
#
# Indices 1 2 3 4 5 6 
#
# 1 0.040197 -0.003522 -0.004811 0.000000 0.000000 0.000000
# 2 -0.003522 0.008493 -0.004247 0.000000 0.000000 0.000000
# 3 -0.004811 -0.004247 0.009650 0.000000 0.000000 0.000000
# 4 0.000000 0.000000 0.000000 0.024822 0.000000 0.000000
# 5 0.000000 0.000000 0.000000 0.000000 0.106897 0.000000
# 6 0.000000 0.000000 0.000000 0.000000 0.000000 -0.019416
#
#
# Mechanical properties :
#
#
# Convention : Reuss Voigt Hill
#
# Bulk Modulus (GPa) = 30.13851 71.30149 50.72000
# Shear Modulus (GPa) = 24.17050 14.15996 19.16523
#
# Velocity S-wave (km/s) = 3.50253 2.68084 3.11886
# Velocity P-wave (km/s) = 5.62617 6.76547 6.22195
#
# Compressibility (1/GPa) = 0.03318014
#
# Stress axis : x y z
#
# Youngs Moduli (GPa) = 24.87718 117.74871 103.62532
#
# Poissons Ratio (x) = 0.41466 0.49859
# Poissons Ratio (y) = 0.08761 0.44010
# Poissons Ratio (z) = 0.11970 0.50008
#
# Static dielectric constant tensor:
#      x y z
#    x 1.694950 0.000000 0.000000 
#    y 0.000000 1.654590 0.000000 
#    z 0.000000 0.000000 1.676300 
# 
# From -- ./inp_files/5815.got.cif
#   From: 2010.05.17/outbox.cif.g08.bks.cpg/sg62_3_cif.got.tgz:5815.got - 2010.06.03 15:25:27.
