data_PCOD9465838
_publ_section_title
;
Structure prediction by ZEFSAII (Michael W. Deem and Ramdas Pophale) SiO2 
 PCOD9465838
Probable space group: P N M A
;
_chemical_formula_sum "Si O2"
_cell_formula_units_Z 40
_cell_length_a 13.483825
_cell_length_b 7.441806
_cell_length_c 16.233221
_cell_angle_alpha 90.000000
_cell_angle_beta 90.000000
_cell_angle_gamma 90.000000
_cell_volume 1628.906487
_symmetry_space_group_name_H-M "P N M A"
_symmetry_group_IT_number 62
_symmetry_cell_setting 'orthorhombic'
loop_
_space_group_symop_operation_xyz
x,y,z
1/2-x,-y,1/2+z
1/2+x,1/2-y,1/2-z
-x,1/2+y,-z
-x,-y,-z
1/2+x,y,1/2-z
1/2-x,1/2+y,1/2+z
x,1/2-y,z
loop_
_atom_site_type_symbol
_atom_site_label
_atom_site_fract_x
_atom_site_fract_y
_atom_site_fract_z
Si Si1 0.010229 0.034439 0.595690
Si Si2 0.630090 0.468332 0.761907
Si Si3 0.011014 0.531532 0.117937
Si Si4 0.802464 0.042799 0.646079
Si Si5 0.329988 0.453351 0.502973
O O1 0.009824 0.250000 0.604635
O O2 0.910101 0.960536 0.636941
O O3 0.106902 0.971355 0.645602
O O4 0.000000 0.000000 0.500000
O O5 0.638654 0.250000 0.760750
O O6 0.532268 0.511293 0.707273
O O7 0.725054 0.536617 0.711605
O O8 0.009650 0.750000 0.110402
O O9 0.926822 0.455499 0.056858
O O10 0.120027 0.473615 0.087001
O O11 0.816574 0.250000 0.670718
O O12 0.751775 0.042167 0.555145
O O13 0.295712 0.250000 0.518406
#
# Coordination Sequence:
#
# PCOD9465838 Si02
#       5
#     8   8   8   8   8
#     4  10  21  38  58  79 107 143 180 222 273 324
#     4   8  15  32  55  77 100 134 180 223 258 309
#     4   8  14  26  45  72 104 135 171 217 266 312
#     4   9  18  34  54  75 104 142 179 217 266 320
#     4   9  15  24  44  76 107 136 169 213 265 315
#
# _framework density 24.556349999999998
#
# number of rings (size 3 to 8) (size 9 to 14) (size 15 to 20)
#    0.000    3.200    0.000    1.800    0.000    1.600 
#    3.600    4.000    0.000    0.000    0.000    0.000 
#    0.000    0.000    0.000    0.000    0.000    0.000 
#
# Total GULP energy -223003.066862 kJ/mol
# GULP energy per Si atom -5575.076672 kJ/mol
# Density = 2.450046 g / cm^3
# Si number density = 24.556350 Si / 1000 Ang^3
#
#
#
# Elastic Constant Matrix: (Units=GPa)
#
#
# Indices 1 2 3 4 5 6 
#
# 1 90.8337 3.6861 43.0139 0.0000 0.0000 0.0000
# 2 3.6861 73.3007 0.8519 0.0000 0.0000 0.0000
# 3 43.0139 0.8519 105.8288 0.0000 0.0000 0.0000
# 4 0.0000 0.0000 0.0000 13.7375 0.0000 0.0000
# 5 0.0000 0.0000 0.0000 0.0000 20.6272 0.0000
# 6 0.0000 0.0000 0.0000 0.0000 0.0000 2.3436
#
#
#
# Elastic Compliance Matrix: (Units=1/GPa)
#
#
# Indices 1 2 3 4 5 6 
#
# 1 0.013661 -0.000623 -0.005548 0.000000 0.000000 0.000000
# 2 -0.000623 0.013672 0.000143 0.000000 0.000000 0.000000
# 3 -0.005548 0.000143 0.011703 0.000000 0.000000 0.000000
# 4 0.000000 0.000000 0.000000 0.072794 0.000000 0.000000
# 5 0.000000 0.000000 0.000000 0.000000 0.048480 0.000000
# 6 0.000000 0.000000 0.000000 0.000000 0.000000 0.426698
#
#
# Mechanical properties :
#
#
# Convention : Reuss Voigt Hill
#
# Bulk Modulus (GPa) = 37.06175 40.56301 38.81238
# Shear Modulus (GPa) = 8.22293 22.16907 15.19600
#
# Velocity S-wave (km/s) = 1.83190 3.00790 2.49031
# Velocity P-wave (km/s) = 4.42716 5.34953 4.91005
#
# Compressibility (1/GPa) = 0.02698200
#
# Stress axis : x y z
#
# Youngs Moduli (GPa) = 73.19862 73.14180 85.44889
#
# Poissons Ratio (x) = 0.04553 0.47404
# Poissons Ratio (y) = 0.04557 -0.01222
# Poissons Ratio (z) = 0.40608 -0.01046
#
# Static dielectric constant tensor:
#      x y z
#    x 1.962620 0.000000 0.000000 
#    y 0.000000 1.833970 0.000000 
#    z 0.000000 0.000000 2.022540 
# 
# From -- ./inp_files/23446.got.cif
#   From: 2010.05.17/outbox.cif.g08.bks.cpg/sg62_12_cif.got.tgz:23446.got - 2010.06.03 15:25:27.
