data_PCOD9465111
_publ_section_title
;
Structure prediction by ZEFSAII (Michael W. Deem and Ramdas Pophale) SiO2 
 PCOD9465111
Probable space group: P N M A
;
_chemical_formula_sum "Si O2"
_cell_formula_units_Z 56
_cell_length_a 22.751912
_cell_length_b 15.562340
_cell_length_c 7.070294
_cell_angle_alpha 90.000000
_cell_angle_beta 90.000000
_cell_angle_gamma 90.000000
_cell_volume 2503.400138
_symmetry_space_group_name_H-M "P N M A"
_symmetry_group_IT_number 62
_symmetry_cell_setting 'orthorhombic'
loop_
_space_group_symop_operation_xyz
x,y,z
1/2-x,-y,1/2+z
1/2+x,1/2-y,1/2-z
-x,1/2+y,-z
-x,-y,-z
1/2+x,y,1/2-z
1/2-x,1/2+y,1/2+z
x,1/2-y,z
loop_
_atom_site_type_symbol
_atom_site_label
_atom_site_fract_x
_atom_site_fract_y
_atom_site_fract_z
Si Si1 0.701391 0.422658 0.615944
Si Si2 0.567915 0.490294 0.953021
Si Si3 0.235477 0.892553 0.741905
Si Si4 0.022599 0.650764 0.966393
Si Si5 0.386836 0.159454 0.129735
Si Si6 0.580194 0.023526 0.497841
Si Si7 0.344273 0.845619 0.002872
O O1 0.728403 0.506117 0.717316
O O2 0.746803 0.378679 0.475844
O O3 0.648761 0.456776 0.480246
O O4 0.675695 0.363489 0.780825
O O5 0.604245 0.576425 0.997088
O O6 0.572047 0.478826 0.726351
O O7 0.604129 0.412626 0.042030
O O8 0.500000 0.500000 0.000000
O O9 0.170758 0.852740 0.759824
O O10 0.286191 0.857590 0.876380
O O11 0.018409 0.750000 0.043588
O O12 0.057443 0.660018 0.769743
O O13 0.960231 0.603350 0.934909
O O14 0.057848 0.570863 0.069951
O O15 0.383358 0.250000 0.027109
O O16 0.367100 0.750000 0.981162
#
# Coordination Sequence:
#
# PCOD9465111 Si02
#       7
#     8   8   8   8   8   8   8
#     4  11  22  40  68  91 132 174 220 268 332 394
#     4  10  21  41  61  86 126 172 212 273 333 389
#     4  12  21  42  67  97 128 179 218 270 331 399
#     4   9  17  32  56  81 113 149 193 254 313 368
#     4  10  20  38  61  89 121 161 216 269 323 392
#     4   9  19  36  55  88 117 161 212 260 313 388
#     4  11  25  43  65 101 138 174 225 278 331 399
#
# _framework density 22.369575999999999
#
# number of rings (size 3 to 8) (size 9 to 14) (size 15 to 20)
#    0.000    1.714    5.714    0.429    0.000    7.429 
#    0.000    2.857    0.000    1.714    0.000    0.000 
#    0.000    0.000    0.000    0.000    0.000    0.000 
#
# Total GULP energy -312513.237649 kJ/mol
# GULP energy per Si atom -5580.593529 kJ/mol
# Density = 2.231866 g / cm^3
# Si number density = 22.369576 Si / 1000 Ang^3
#
#
#
# Elastic Constant Matrix: (Units=GPa)
#
#
# Indices 1 2 3 4 5 6 
#
# 1 101.8533 53.7673 19.4759 0.0000 0.0000 0.0000
# 2 53.7673 194.3902 6.2082 0.0000 0.0000 0.0000
# 3 19.4759 6.2082 53.3671 0.0000 0.0000 0.0000
# 4 0.0000 0.0000 0.0000 0.4706 0.0000 0.0000
# 5 0.0000 0.0000 0.0000 0.0000 28.6419 0.0000
# 6 0.0000 0.0000 0.0000 0.0000 0.0000 5.4585
#
#
#
# Elastic Compliance Matrix: (Units=1/GPa)
#
#
# Indices 1 2 3 4 5 6 
#
# 1 0.012338 -0.003281 -0.004121 0.000000 0.000000 0.000000
# 2 -0.003281 0.006036 0.000495 0.000000 0.000000 0.000000
# 3 -0.004121 0.000495 0.020184 0.000000 0.000000 0.000000
# 4 0.000000 0.000000 0.000000 2.124742 0.000000 0.000000
# 5 0.000000 0.000000 0.000000 0.000000 0.034914 0.000000
# 6 0.000000 0.000000 0.000000 0.000000 0.000000 0.183201
#
#
# Mechanical properties :
#
#
# Convention : Reuss Voigt Hill
#
# Bulk Modulus (GPa) = 40.41237 56.50148 48.45693
# Shear Modulus (GPa) = 2.08032 24.92482 13.50257
#
# Velocity S-wave (km/s) = 0.96540 3.34163 2.45952
# Velocity P-wave (km/s) = 4.39860 6.34048 5.45662
#
# Compressibility (1/GPa) = 0.02474490
#
# Stress axis : x y z
#
# Youngs Moduli (GPa) = 81.05002 165.67292 49.54309
#
# Poissons Ratio (x) = 0.54358 0.20417
# Poissons Ratio (y) = 0.26593 -0.02453
# Poissons Ratio (z) = 0.33401 -0.08204
#
# Static dielectric constant tensor:
#      x y z
#    x 1.824310 0.000000 0.000000 
#    y 0.000000 1.889680 0.000000 
#    z 0.000000 0.000000 1.841440 
# 
# From -- ./inp_files/8734.got.cif
#   From: 2010.05.17/outbox.cif.g08.bks.cpg/sg62_5_cif.got.tgz:8734.got - 2010.06.03 15:25:27.
