data_PCOD9465552
_publ_section_title
;
Structure prediction by ZEFSAII (Michael W. Deem and Ramdas Pophale) SiO2 
 PCOD9465552
Probable space group: P N M A
;
_chemical_formula_sum "Si O2"
_cell_formula_units_Z 48
_cell_length_a 31.009756
_cell_length_b 9.632732
_cell_length_c 7.147314
_cell_angle_alpha 90.000000
_cell_angle_beta 90.000000
_cell_angle_gamma 90.000000
_cell_volume 2134.964651
_symmetry_space_group_name_H-M "P N M A"
_symmetry_group_IT_number 62
_symmetry_cell_setting 'orthorhombic'
loop_
_space_group_symop_operation_xyz
x,y,z
1/2-x,-y,1/2+z
1/2+x,1/2-y,1/2-z
-x,1/2+y,-z
-x,-y,-z
1/2+x,y,1/2-z
1/2-x,1/2+y,1/2+z
x,1/2-y,z
loop_
_atom_site_type_symbol
_atom_site_label
_atom_site_fract_x
_atom_site_fract_y
_atom_site_fract_z
Si Si1 0.222609 0.906847 0.338359
Si Si2 0.380207 0.591943 0.171283
Si Si3 0.304744 0.407597 0.272237
Si Si4 0.352940 0.591623 0.739604
Si Si5 0.448824 0.592555 0.670233
Si Si6 0.524544 0.092379 0.765345
O O1 0.232340 0.750000 0.273476
O O2 0.204617 0.897086 0.549010
O O3 0.264755 0.002274 0.344051
O O4 0.186151 0.984987 0.216337
O O5 0.381653 0.750000 0.247877
O O6 0.349156 0.492850 0.289028
O O7 0.429521 0.542305 0.156031
O O8 0.360910 0.600258 0.963474
O O9 0.306700 0.250000 0.344469
O O10 0.342903 0.750000 0.675445
O O11 0.399457 0.543072 0.665433
O O12 0.446888 0.750000 0.743841
O O13 0.465909 0.597247 0.458199
O O14 0.482807 0.503008 0.786968
O O15 0.516162 0.250000 0.828121
#
# Coordination Sequence:
#
# PCOD9465552 Si02
#       6
#     8   8   8   8   8   8
#     4  10  21  36  54  77 104 134 169 209 253 302
#     4   9  18  33  51  71  98 131 165 203 248 296
#     4  10  21  36  54  77 104 134 169 209 253 302
#     4   9  18  33  51  71  98 131 165 203 248 296
#     4   9  18  32  49  70  97 128 162 201 245 293
#     4   9  18  32  49  70  97 128 162 201 245 293
#
# _framework density 22.482806
#
# number of rings (size 3 to 8) (size 9 to 14) (size 15 to 20)
#    0.000    2.667    0.000    1.000    0.000    5.333 
#    0.000    3.333    0.000    0.000    0.000    0.000 
#    0.000    0.000    0.000    0.000    0.000    0.000 
#
# Total GULP energy -268242.940339 kJ/mol
# GULP energy per Si atom -5588.394590 kJ/mol
# Density = 2.243163 g / cm^3
# Si number density = 22.482806 Si / 1000 Ang^3
#
#
#
# Elastic Constant Matrix: (Units=GPa)
#
#
# Indices 1 2 3 4 5 6 
#
# 1 177.6477 111.1450 11.2869 0.0000 0.0000 0.0000
# 2 111.1450 132.4156 8.6709 0.0000 0.0000 0.0000
# 3 11.2869 8.6709 42.1918 0.0000 0.0000 0.0000
# 4 0.0000 0.0000 0.0000 14.6218 0.0000 0.0000
# 5 0.0000 0.0000 0.0000 0.0000 34.4148 0.0000
# 6 0.0000 0.0000 0.0000 0.0000 0.0000 43.5295
#
#
#
# Elastic Compliance Matrix: (Units=1/GPa)
#
#
# Indices 1 2 3 4 5 6 
#
# 1 0.011909 -0.009921 -0.001147 0.000000 0.000000 0.000000
# 2 -0.009921 0.015920 -0.000618 0.000000 0.000000 0.000000
# 3 -0.001147 -0.000618 0.024135 0.000000 0.000000 0.000000
# 4 0.000000 0.000000 0.000000 0.068391 0.000000 0.000000
# 5 0.000000 0.000000 0.000000 0.000000 0.029057 0.000000
# 6 0.000000 0.000000 0.000000 0.000000 0.000000 0.022973
#
#
# Mechanical properties :
#
#
# Convention : Reuss Voigt Hill
#
# Bulk Modulus (GPa) = 34.97403 68.27339 51.62371
# Shear Modulus (GPa) = 24.35618 33.25671 28.80645
#
# Velocity S-wave (km/s) = 3.29496 3.85022 3.58336
# Velocity P-wave (km/s) = 5.48319 7.08508 6.33497
#
# Compressibility (1/GPa) = 0.02859265
#
# Stress axis : x y z
#
# Youngs Moduli (GPa) = 83.97049 62.81552 41.43348
#
# Poissons Ratio (x) = 0.62318 0.04752
# Poissons Ratio (y) = 0.83306 0.02559
# Poissons Ratio (z) = 0.09631 0.03880
#
# Static dielectric constant tensor:
#      x y z
#    x 1.797650 0.000000 0.000000 
#    y 0.000000 1.817450 0.000000 
#    z 0.000000 0.000000 1.930770 
# 
# From -- ./inp_files/10194.got.cif
#   From: 2010.05.17/outbox.cif.g08.bks.cpg/sg62_6_cif.got.tgz:10194.got - 2010.06.03 15:25:27.
