data_PCOD9465515
_publ_section_title
;
Structure prediction by ZEFSAII (Michael W. Deem and Ramdas Pophale) SiO2 
 PCOD9465515
Probable space group: P N M A
;
_chemical_formula_sum "Si O2"
_cell_formula_units_Z 28
_cell_length_a 13.608075
_cell_length_b 5.413839
_cell_length_c 15.815349
_cell_angle_alpha 90.000000
_cell_angle_beta 90.000000
_cell_angle_gamma 90.000000
_cell_volume 1165.147239
_symmetry_space_group_name_H-M "P N M A"
_symmetry_group_IT_number 62
_symmetry_cell_setting 'orthorhombic'
loop_
_space_group_symop_operation_xyz
x,y,z
1/2-x,-y,1/2+z
1/2+x,1/2-y,1/2-z
-x,1/2+y,-z
-x,-y,-z
1/2+x,y,1/2-z
1/2-x,1/2+y,1/2+z
x,1/2-y,z
loop_
_atom_site_type_symbol
_atom_site_label
_atom_site_fract_x
_atom_site_fract_y
_atom_site_fract_z
Si Si1 0.415834 0.750000 0.968984
Si Si2 0.099421 0.250000 0.781168
Si Si3 0.927912 0.250000 0.315835
Si Si4 0.059918 0.250000 0.979552
Si Si5 0.301349 0.750000 0.632977
Si Si6 0.103036 0.750000 0.420127
Si Si7 0.827213 0.250000 0.767999
O O1 0.489954 0.750000 0.888747
O O2 0.355913 0.500672 0.960348
O O3 0.487895 0.750000 0.049500
O O4 0.061724 0.504238 0.739960
O O5 0.083185 0.250000 0.880577
O O6 0.214319 0.250000 0.760458
O O7 0.817359 0.250000 0.355292
O O8 0.155687 0.250000 0.039209
O O9 0.000000 0.500000 0.000000
O O10 0.340814 0.500963 0.678983
O O11 0.116851 0.750000 0.320912
#
# Coordination Sequence:
#
# PCOD9465515 Si02
#       7
#     4   4   4   4   4   4   4
#     4  10  21  35  55  87 116 146 187 233 291 346
#     4  10  23  40  60  88 115 155 205 241 290 355
#     4  10  21  40  62  85 117 157 199 242 293 350
#     4  12  26  42  62  92 126 162 204 252 308 362
#     4  10  23  40  60  88 115 155 205 241 290 355
#     4  10  21  35  55  87 116 146 187 233 291 346
#     4  10  21  40  62  85 117 157 199 242 293 350
#
# _framework density 24.031296999999999
#
# number of rings (size 3 to 8) (size 9 to 14) (size 15 to 20)
#    0.000    1.714    0.000    3.429    2.000    6.857 
#    0.000    0.000    0.000    0.000    0.000    0.000 
#    0.000    0.000    0.000    0.000    0.000    0.000 
#
# Total GULP energy -156884.382295 kJ/mol
# GULP energy per Si atom -5603.013653 kJ/mol
# Density = 2.397660 g / cm^3
# Si number density = 24.031297 Si / 1000 Ang^3
#
#
#
# Elastic Constant Matrix: (Units=GPa)
#
#
# Indices 1 2 3 4 5 6 
#
# 1 66.1496 34.5332 28.8171 0.0000 0.0000 0.0000
# 2 34.5332 265.8059 86.5649 0.0000 0.0000 0.0000
# 3 28.8171 86.5649 167.4909 0.0000 0.0000 0.0000
# 4 0.0000 0.0000 0.0000 42.4787 0.0000 0.0000
# 5 0.0000 0.0000 0.0000 0.0000 38.8928 0.0000
# 6 0.0000 0.0000 0.0000 0.0000 0.0000 9.2996
#
#
#
# Elastic Compliance Matrix: (Units=1/GPa)
#
#
# Indices 1 2 3 4 5 6 
#
# 1 0.016822 -0.001494 -0.002122 0.000000 0.000000 0.000000
# 2 -0.001494 0.004656 -0.002149 0.000000 0.000000 0.000000
# 3 -0.002122 -0.002149 0.007446 0.000000 0.000000 0.000000
# 4 0.000000 0.000000 0.000000 0.023541 0.000000 0.000000
# 5 0.000000 0.000000 0.000000 0.000000 0.025712 0.000000
# 6 0.000000 0.000000 0.000000 0.000000 0.000000 0.107532
#
#
# Mechanical properties :
#
#
# Convention : Reuss Voigt Hill
#
# Bulk Modulus (GPa) = 57.49402 88.80853 73.15128
# Shear Modulus (GPa) = 24.62587 41.43628 33.03108
#
# Velocity S-wave (km/s) = 3.20463 4.15693 3.71145
# Velocity P-wave (km/s) = 6.13755 7.75085 6.99089
#
# Compressibility (1/GPa) = 0.01739311
#
# Stress axis : x y z
#
# Youngs Moduli (GPa) = 59.44675 214.76294 134.29265
#
# Poissons Ratio (x) = 0.32095 0.28495
# Poissons Ratio (y) = 0.08884 0.28865
# Poissons Ratio (z) = 0.12614 0.46161
#
# Static dielectric constant tensor:
#      x y z
#    x 1.924180 0.000000 0.000000 
#    y 0.000000 2.005520 0.000000 
#    z 0.000000 0.000000 1.862660 
# 
# From -- ./inp_files/18402.got.cif
#   From: 2010.05.17/outbox.cif.g08.bks.cpg/sg62_10_cif.got.tgz:18402.got - 2010.06.03 15:25:27.
