data_PCOD9465446
_publ_section_title
;
Structure prediction by ZEFSAII (Michael W. Deem and Ramdas Pophale) SiO2 
 PCOD9465446
Probable space group: P N M A
;
_chemical_formula_sum "Si O2"
_cell_formula_units_Z 48
_cell_length_a 5.479954
_cell_length_b 25.689510
_cell_length_c 18.110973
_cell_angle_alpha 90.000000
_cell_angle_beta 90.000000
_cell_angle_gamma 90.000000
_cell_volume 2549.614478
_symmetry_space_group_name_H-M "P N M A"
_symmetry_group_IT_number 62
_symmetry_cell_setting 'orthorhombic'
loop_
_space_group_symop_operation_xyz
x,y,z
1/2-x,-y,1/2+z
1/2+x,1/2-y,1/2-z
-x,1/2+y,-z
-x,-y,-z
1/2+x,y,1/2-z
1/2-x,1/2+y,1/2+z
x,1/2-y,z
loop_
_atom_site_type_symbol
_atom_site_label
_atom_site_fract_x
_atom_site_fract_y
_atom_site_fract_z
Si Si1 0.826484 0.312079 0.705629
Si Si2 0.885169 0.537694 0.209774
Si Si3 0.815633 0.397157 0.585156
Si Si4 0.582600 0.423778 0.438470
Si Si5 0.373649 0.088035 0.289306
Si Si6 0.296874 0.973659 0.051311
O O1 0.579409 0.324649 0.751602
O O2 0.825762 0.250000 0.693075
O O3 0.816301 0.343976 0.629681
O O4 0.636705 0.554304 0.251762
O O5 0.867768 0.563774 0.128948
O O6 0.864202 0.475156 0.208395
O O7 0.749986 0.393805 0.498167
O O8 0.072059 0.427089 0.592996
O O9 0.452512 0.394731 0.371714
O O10 0.717139 0.474890 0.403970
O O11 0.386693 0.449946 0.492276
O O12 0.602727 0.103885 0.237159
O O13 0.500000 0.000000 0.000000
#
# Coordination Sequence:
#
# PCOD9465446 Si02
#       6
#     8   8   8   8   8   8
#     4  10  23  43  62  84 117 151 188 239 293 335
#     4  10  21  31  45  70 100 134 183 222 254 310
#     4  11  22  32  56  76 104 143 188 232 279 335
#     4  10  21  34  48  73 105 143 186 230 276 326
#     4  10  22  34  48  65 100 144 177 216 264 309
#     4   9  19  31  48  70 106 138 181 229 277 316
#
# _framework density 18.826374999999999
#
# number of rings (size 3 to 8) (size 9 to 14) (size 15 to 20)
#    0.000    2.000    0.000    4.000   16.333    0.000 
#    0.000    0.000    0.000    0.000    0.000    0.000 
#    0.000    1.333    0.000    0.000    0.000    0.000 
#
# Total GULP energy -267692.229012 kJ/mol
# GULP energy per Si atom -5576.921438 kJ/mol
# Density = 1.878353 g / cm^3
# Si number density = 18.826375 Si / 1000 Ang^3
#
#
#
# Elastic Constant Matrix: (Units=GPa)
#
#
# Indices 1 2 3 4 5 6 
#
# 1 89.5955 14.8311 17.4504 0.0000 0.0000 0.0000
# 2 14.8311 46.0206 18.6353 0.0000 0.0000 0.0000
# 3 17.4504 18.6353 81.8212 0.0000 0.0000 0.0000
# 4 0.0000 0.0000 0.0000 26.5141 0.0000 0.0000
# 5 0.0000 0.0000 0.0000 0.0000 31.2208 0.0000
# 6 0.0000 0.0000 0.0000 0.0000 0.0000 11.1239
#
#
#
# Elastic Compliance Matrix: (Units=1/GPa)
#
#
# Indices 1 2 3 4 5 6 
#
# 1 0.012041 -0.003129 -0.001855 0.000000 0.000000 0.000000
# 2 -0.003129 0.024750 -0.004970 0.000000 0.000000 0.000000
# 3 -0.001855 -0.004970 0.013749 0.000000 0.000000 0.000000
# 4 0.000000 0.000000 0.000000 0.037716 0.000000 0.000000
# 5 0.000000 0.000000 0.000000 0.000000 0.032030 0.000000
# 6 0.000000 0.000000 0.000000 0.000000 0.000000 0.089897
#
#
# Mechanical properties :
#
#
# Convention : Reuss Voigt Hill
#
# Bulk Modulus (GPa) = 32.64550 35.47453 34.06002
# Shear Modulus (GPa) = 20.80722 24.87313 22.84018
#
# Velocity S-wave (km/s) = 3.32809 3.63875 3.48688
# Velocity P-wave (km/s) = 5.66976 6.04466 5.86021
#
# Compressibility (1/GPa) = 0.03063209
#
# Stress axis : x y z
#
# Youngs Moduli (GPa) = 83.05240 40.40372 72.73078
#
# Poissons Ratio (x) = 0.12643 0.13494
# Poissons Ratio (y) = 0.25988 0.36145
# Poissons Ratio (z) = 0.15409 0.20079
#
# Static dielectric constant tensor:
#      x y z
#    x 1.795830 0.000000 0.000000 
#    y 0.000000 1.626040 0.000000 
#    z 0.000000 0.000000 1.733300 
# 
# From -- ./inp_files/21590.got.cif
#   From: 2010.05.17/outbox.cif.g08.bks.cpg/sg62_11_cif.got.tgz:21590.got - 2010.06.03 15:25:27.
