data_PCOD9465155
_publ_section_title
;
Structure prediction by ZEFSAII (Michael W. Deem and Ramdas Pophale) SiO2 
 PCOD9465155
Probable space group: P N M A
;
_chemical_formula_sum "Si O2"
_cell_formula_units_Z 64
_cell_length_a 20.462422
_cell_length_b 8.459123
_cell_length_c 19.327329
_cell_angle_alpha 90.000000
_cell_angle_beta 90.000000
_cell_angle_gamma 90.000000
_cell_volume 3345.447480
_symmetry_space_group_name_H-M "P N M A"
_symmetry_group_IT_number 62
_symmetry_cell_setting 'orthorhombic'
loop_
_space_group_symop_operation_xyz
x,y,z
1/2-x,-y,1/2+z
1/2+x,1/2-y,1/2-z
-x,1/2+y,-z
-x,-y,-z
1/2+x,y,1/2-z
1/2-x,1/2+y,1/2+z
x,1/2-y,z
loop_
_atom_site_type_symbol
_atom_site_label
_atom_site_fract_x
_atom_site_fract_y
_atom_site_fract_z
Si Si1 0.347998 0.941023 0.293640
Si Si2 0.947008 0.560758 0.445631
Si Si3 0.093998 0.941125 0.195225
Si Si4 0.437002 0.060896 0.540495
Si Si5 0.740831 0.060774 0.313307
Si Si6 0.476428 0.943015 0.210815
Si Si7 0.301219 0.059045 0.038871
Si Si8 0.818119 0.941227 0.051117
O O1 0.349236 0.750000 0.295131
O O2 0.416405 0.993806 0.259854
O O3 0.335921 0.996785 0.371896
O O4 0.289721 0.994836 0.244156
O O5 0.948572 0.750000 0.444923
O O6 0.963954 0.504241 0.367661
O O7 0.874127 0.506062 0.464611
O O8 0.000000 0.500000 0.500000
O O9 0.096599 0.750000 0.196621
O O10 0.064627 0.989304 0.120700
O O11 0.044931 0.993601 0.255708
O O12 0.167337 0.003813 0.199472
O O13 0.437371 0.250000 0.539096
O O14 0.500000 0.000000 0.500000
O O15 0.372497 0.998957 0.502471
O O16 0.742188 0.250000 0.312206
O O17 0.767321 0.008964 0.388812
O O18 0.476176 0.750000 0.210496
O O19 0.304668 0.250000 0.038789
O O20 0.252995 0.009576 0.976873
O O21 0.819439 0.750000 0.051261
#
# Coordination Sequence:
#
# PCOD9465155 Si02
#       8
#     8   8   8   8   8   8   8   8
#     4  10  20  38  63  87 114 154 203 244 289 355
#     4  11  23  40  64  89 117 155 203 253 301 355
#     4  10  21  38  60  85 114 154 200 241 288 354
#     4  11  22  35  56  84 119 157 196 243 294 355
#     4  11  22  37  59  87 121 156 193 243 297 353
#     4   9  19  37  60  85 113 150 200 247 286 345
#     4  10  21  39  61  86 120 158 195 241 301 358
#     4  10  21  38  61  87 119 156 198 247 297 355
#
# _framework density 19.130475000000001
#
# number of rings (size 3 to 8) (size 9 to 14) (size 15 to 20)
#    0.000    1.750    2.500    1.875    0.000    5.000 
#    0.000    6.875    0.000    0.000    0.000    0.000 
#    0.000    0.000    0.000    0.000    0.000    0.000 
#
# Total GULP energy -357538.342939 kJ/mol
# GULP energy per Si atom -5586.536608 kJ/mol
# Density = 1.908693 g / cm^3
# Si number density = 19.130475 Si / 1000 Ang^3
#
#
#
# Elastic Constant Matrix: (Units=GPa)
#
#
# Indices 1 2 3 4 5 6 
#
# 1 174.7570 19.5062 72.4507 0.0000 0.0000 0.0000
# 2 19.5062 6.2879 21.6278 0.0000 0.0000 0.0000
# 3 72.4507 21.6278 125.4446 0.0000 0.0000 0.0000
# 4 0.0000 0.0000 0.0000 23.6190 0.0000 0.0000
# 5 0.0000 0.0000 0.0000 0.0000 42.0024 0.0000
# 6 0.0000 0.0000 0.0000 0.0000 0.0000 32.9832
#
#
#
# Elastic Compliance Matrix: (Units=1/GPa)
#
#
# Indices 1 2 3 4 5 6 
#
# 1 0.008796 -0.024113 -0.000923 0.000000 0.000000 0.000000
# 2 -0.024113 0.456860 -0.064841 0.000000 0.000000 0.000000
# 3 -0.000923 -0.064841 0.019684 0.000000 0.000000 0.000000
# 4 0.000000 0.000000 0.000000 0.042339 0.000000 0.000000
# 5 0.000000 0.000000 0.000000 0.000000 0.023808 0.000000
# 6 0.000000 0.000000 0.000000 0.000000 0.000000 0.030319
#
#
# Mechanical properties :
#
#
# Convention : Reuss Voigt Hill
#
# Bulk Modulus (GPa) = 3.27239 59.29543 31.28391
# Shear Modulus (GPa) = 5.79092 32.58123 19.18607
#
# Velocity S-wave (km/s) = 1.74173 4.13135 3.17031
# Velocity P-wave (km/s) = 2.39982 7.33621 5.45798
#
# Compressibility (1/GPa) = 0.30558728
#
# Stress axis : x y z
#
# Youngs Moduli (GPa) = 113.68342 2.18886 50.80282
#
# Poissons Ratio (x) = 0.05278 0.04690
# Poissons Ratio (y) = 2.74120 3.29409
# Poissons Ratio (z) = 0.10494 0.14193
#
# Static dielectric constant tensor:
#      x y z
#    x 1.628390 0.000000 0.000000 
#    y 0.000000 1.883710 0.000000 
#    z 0.000000 0.000000 1.663490 
# 
# From -- ./inp_files/24754.got.cif
#   From: 2010.05.17/outbox.cif.g08.bks.cpg/sg62_13_cif.got.tgz:24754.got - 2010.06.03 15:25:27.
