data_PCOD9465526
_publ_section_title
;
Structure prediction by ZEFSAII (Michael W. Deem and Ramdas Pophale) SiO2 
 PCOD9465526
Probable space group: P N M A
;
_chemical_formula_sum "Si O2"
_cell_formula_units_Z 48
_cell_length_a 5.349781
_cell_length_b 13.952300
_cell_length_c 29.021546
_cell_angle_alpha 90.000000
_cell_angle_beta 90.000000
_cell_angle_gamma 90.000000
_cell_volume 2166.218965
_symmetry_space_group_name_H-M "P N M A"
_symmetry_group_IT_number 62
_symmetry_cell_setting 'orthorhombic'
loop_
_space_group_symop_operation_xyz
x,y,z
1/2-x,-y,1/2+z
1/2+x,1/2-y,1/2-z
-x,1/2+y,-z
-x,-y,-z
1/2+x,y,1/2-z
1/2-x,1/2+y,1/2+z
x,1/2-y,z
loop_
_atom_site_type_symbol
_atom_site_label
_atom_site_fract_x
_atom_site_fract_y
_atom_site_fract_z
Si Si1 0.422176 0.354274 0.006177
Si Si2 0.066279 0.976269 0.651938
Si Si3 0.285045 0.001288 0.938777
Si Si4 0.755812 0.638827 0.280250
Si Si5 0.265028 0.637876 0.779539
Si Si6 0.903615 0.645342 0.901358
O O1 0.518345 0.250000 0.993532
O O2 0.640470 0.426807 0.020566
O O3 0.267596 0.346844 0.053307
O O4 0.257142 0.399952 0.965692
O O5 0.827487 0.935066 0.679444
O O6 0.237504 0.882834 0.642449
O O7 0.991942 0.012877 0.601092
O O8 0.197895 0.059746 0.680667
O O9 0.069127 0.946518 0.912379
O O10 0.488010 0.626668 0.255398
O O11 0.768579 0.750000 0.296701
O O12 0.999027 0.621761 0.755288
O O13 0.274854 0.750000 0.793429
O O14 0.029220 0.750000 0.895707
#
# Coordination Sequence:
#
# PCOD9465526 Si02
#       6
#     8   8   8   8   8   8
#     4   9  19  38  57  81 115 154 200 247 303 372
#     4  11  23  36  58  88 119 152 198 252 306 363
#     4  10  21  35  58  86 115 157 198 248 309 373
#     4  10  23  43  67  91 122 167 213 256 308 368
#     4  10  22  38  57  84 118 158 199 240 293 359
#     4  10  21  36  57  85 118 156 197 246 307 372
#
# _framework density 22.158422999999999
#
# number of rings (size 3 to 8) (size 9 to 14) (size 15 to 20)
#    0.000    2.000    0.000    2.500    4.667    2.667 
#    0.000    0.833    0.000    0.000    0.000    0.000 
#    0.000    0.000    0.000    0.000    0.000    0.000 
#
# Total GULP energy -268030.975794 kJ/mol
# GULP energy per Si atom -5583.978662 kJ/mol
# Density = 2.210799 g / cm^3
# Si number density = 22.158423 Si / 1000 Ang^3
#
#
#
# Elastic Constant Matrix: (Units=GPa)
#
#
# Indices 1 2 3 4 5 6 
#
# 1 44.3833 -13.9349 -0.2977 0.0000 0.0000 0.0000
# 2 -13.9349 91.4330 45.2147 0.0000 0.0000 0.0000
# 3 -0.2977 45.2147 72.0445 0.0000 0.0000 0.0000
# 4 0.0000 0.0000 0.0000 -2.2035 0.0000 0.0000
# 5 0.0000 0.0000 0.0000 0.0000 16.3879 0.0000
# 6 0.0000 0.0000 0.0000 0.0000 0.0000 12.1056
#
#
#
# Elastic Compliance Matrix: (Units=1/GPa)
#
#
# Indices 1 2 3 4 5 6 
#
# 1 0.024164 0.005268 -0.003206 0.000000 0.000000 0.000000
# 2 0.005268 0.017007 -0.010652 0.000000 0.000000 0.000000
# 3 -0.003206 -0.010652 0.020552 0.000000 0.000000 0.000000
# 4 0.000000 0.000000 0.000000 -0.453829 0.000000 0.000000
# 5 0.000000 0.000000 0.000000 0.000000 0.061021 0.000000
# 6 0.000000 0.000000 0.000000 0.000000 0.000000 0.082607
#
#
# Mechanical properties :
#
#
# Convention : Reuss Voigt Hill
#
# Bulk Modulus (GPa) = 22.45030 29.98054 26.21542
# Shear Modulus (GPa) = -23.09993 17.04991 -3.02501
#
# Velocity S-wave (km/s) = -3.23226 2.77691 -1.16967
# Velocity P-wave (km/s) = 1.94328 4.88274 3.16740
#
# Compressibility (1/GPa) = 0.04454283
#
# Stress axis : x y z
#
# Youngs Moduli (GPa) = 41.38461 58.79791 48.65666
#
# Poissons Ratio (x) = -0.30976 0.15602
# Poissons Ratio (y) = -0.21803 0.51829
# Poissons Ratio (z) = 0.13270 0.62631
#
# Static dielectric constant tensor:
#      x y z
#    x 1.894920 0.000000 0.000000 
#    y 0.000000 1.877860 0.000000 
#    z 0.000000 0.000000 1.816990 
# 
# From -- ./inp_files/30393.got.cif
#   From: 2010.05.17/outbox.cif.g08.bks.cpg/sg62_16_cif.got.tgz:30393.got - 2010.06.03 15:25:27.
