data_PCOD9465924
_publ_section_title
;
Structure prediction by ZEFSAII (Michael W. Deem and Ramdas Pophale) SiO2 
 PCOD9465924
Probable space group: P N M A
;
_chemical_formula_sum "Si O2"
_cell_formula_units_Z 64
_cell_length_a 8.214594
_cell_length_b 21.827183
_cell_length_c 18.376248
_cell_angle_alpha 90.000000
_cell_angle_beta 90.000000
_cell_angle_gamma 90.000000
_cell_volume 3294.887848
_symmetry_space_group_name_H-M "P N M A"
_symmetry_group_IT_number 62
_symmetry_cell_setting 'orthorhombic'
loop_
_space_group_symop_operation_xyz
x,y,z
1/2-x,-y,1/2+z
1/2+x,1/2-y,1/2-z
-x,1/2+y,-z
-x,-y,-z
1/2+x,y,1/2-z
1/2-x,1/2+y,1/2+z
x,1/2-y,z
loop_
_atom_site_type_symbol
_atom_site_label
_atom_site_fract_x
_atom_site_fract_y
_atom_site_fract_z
Si Si1 0.975084 0.629167 0.090032
Si Si2 0.278318 0.681663 0.280836
Si Si3 0.959935 0.873353 0.342192
Si Si4 0.031980 0.508114 0.703771
Si Si5 0.605827 0.070418 0.074284
Si Si6 0.751261 0.452443 0.497108
Si Si7 0.214950 0.322167 0.515858
Si Si8 0.394590 0.499894 0.643614
O O1 0.910976 0.668831 0.157090
O O2 0.820545 0.600540 0.047786
O O3 0.099021 0.666904 0.040533
O O4 0.069562 0.569267 0.119081
O O5 0.290242 0.750000 0.251714
O O6 0.314751 0.635695 0.215572
O O7 0.104068 0.670388 0.316128
O O8 0.023303 0.942241 0.329840
O O9 0.894391 0.853495 0.420283
O O10 0.219229 0.509140 0.680428
O O11 0.928512 0.557404 0.658754
O O12 0.016153 0.513495 0.790252
O O13 0.718386 0.016423 0.039970
O O14 0.427569 0.063584 0.036318
O O15 0.677902 0.136157 0.054138
O O16 0.622349 0.462965 0.431594
O O17 0.180552 0.250000 0.509267
#
# Coordination Sequence:
#
# PCOD9465924 Si02
#       8
#     8   8   8   8   8   8   8   8
#     4  12  22  37  56  83 118 155 196 243 291 353
#     4  12  24  35  51  75 112 162 202 237 280 348
#     4  12  22  39  53  77 115 158 204 249 290 348
#     4  11  22  37  58  86 117 150 195 245 304 352
#     4  10  21  40  60  87 118 155 195 254 303 354
#     4  10  21  38  61  88 119 150 198 253 314 349
#     4  12  24  39  57  82 117 162 204 241 292 358
#     4  11  22  36  56  88 118 149 187 238 308 355
#
# _framework density 19.424029000000001
#
# number of rings (size 3 to 8) (size 9 to 14) (size 15 to 20)
#    0.000    0.750    3.750    6.375    1.750    0.000 
#    0.000    0.625    0.000    0.000    0.000    8.750 
#    0.000    0.000    0.000    0.000    0.000    0.000 
#
# Total GULP energy -357823.606704 kJ/mol
# GULP energy per Si atom -5590.993855 kJ/mol
# Density = 1.937982 g / cm^3
# Si number density = 19.424029 Si / 1000 Ang^3
#
#
#
# Elastic Constant Matrix: (Units=GPa)
#
#
# Indices 1 2 3 4 5 6 
#
# 1 40.1197 3.3389 1.0678 0.0000 0.0000 0.0000
# 2 3.3389 49.4126 17.4018 0.0000 0.0000 0.0000
# 3 1.0678 17.4018 46.0110 0.0000 0.0000 0.0000
# 4 0.0000 0.0000 0.0000 20.6039 0.0000 0.0000
# 5 0.0000 0.0000 0.0000 0.0000 35.5191 0.0000
# 6 0.0000 0.0000 0.0000 0.0000 0.0000 20.8751
#
#
#
# Elastic Compliance Matrix: (Units=1/GPa)
#
#
# Indices 1 2 3 4 5 6 
#
# 1 0.025067 -0.001718 0.000068 0.000000 0.000000 0.000000
# 2 -0.001718 0.023465 -0.008835 0.000000 0.000000 0.000000
# 3 0.000068 -0.008835 0.025074 0.000000 0.000000 0.000000
# 4 0.000000 0.000000 0.000000 0.048535 0.000000 0.000000
# 5 0.000000 0.000000 0.000000 0.000000 0.028154 0.000000
# 6 0.000000 0.000000 0.000000 0.000000 0.000000 0.047904
#
#
# Mechanical properties :
#
#
# Convention : Reuss Voigt Hill
#
# Bulk Modulus (GPa) = 18.99833 19.90669 19.45251
# Shear Modulus (GPa) = 21.12265 22.98194 22.05229
#
# Velocity S-wave (km/s) = 3.30123 3.44346 3.37309
# Velocity P-wave (km/s) = 4.93284 5.10692 5.02063
#
# Compressibility (1/GPa) = 0.05263620
#
# Stress axis : x y z
#
# Youngs Moduli (GPa) = 39.89382 42.61624 39.88233
#
# Poissons Ratio (x) = 0.07320 -0.00271
# Poissons Ratio (y) = 0.06853 0.35236
# Poissons Ratio (z) = -0.00271 0.37651
#
# Static dielectric constant tensor:
#      x y z
#    x 1.745390 0.000000 0.000000 
#    y 0.000000 1.659740 0.000000 
#    z 0.000000 0.000000 1.701660 
# 
# From -- ./inp_files/22547.got.cif
#   From: 2010.05.17/outbox.cif.g08.bks.cpg/sg62_12_cif.got.tgz:22547.got - 2010.06.03 15:25:27.
