data_PCOD9465476
_publ_section_title
;
Structure prediction by ZEFSAII (Michael W. Deem and Ramdas Pophale) SiO2 
 PCOD9465476
Probable space group: P N M A
;
_chemical_formula_sum "Si O2"
_cell_formula_units_Z 48
_cell_length_a 11.872314
_cell_length_b 18.544476
_cell_length_c 9.725708
_cell_angle_alpha 90.000000
_cell_angle_beta 90.000000
_cell_angle_gamma 90.000000
_cell_volume 2141.268691
_symmetry_space_group_name_H-M "P N M A"
_symmetry_group_IT_number 62
_symmetry_cell_setting 'orthorhombic'
loop_
_space_group_symop_operation_xyz
x,y,z
1/2-x,-y,1/2+z
1/2+x,1/2-y,1/2-z
-x,1/2+y,-z
-x,-y,-z
1/2+x,y,1/2-z
1/2-x,1/2+y,1/2+z
x,1/2-y,z
loop_
_atom_site_type_symbol
_atom_site_label
_atom_site_fract_x
_atom_site_fract_y
_atom_site_fract_z
Si Si1 0.329216 0.750000 0.645997
Si Si2 0.862691 0.455972 0.983740
Si Si3 0.335012 0.885856 0.152636
Si Si4 0.483607 0.485972 0.255467
Si Si5 0.019357 0.624856 0.539083
Si Si6 0.234845 0.115201 0.954252
Si Si7 0.085556 0.750000 0.742651
O O1 0.303669 0.822707 0.559044
O O2 0.225314 0.750000 0.763092
O O3 0.465970 0.750000 0.670612
O O4 0.767483 0.399317 0.949470
O O5 0.936010 0.463014 0.845073
O O6 0.929206 0.437382 0.122905
O O7 0.820449 0.537938 0.010284
O O8 0.298292 0.859229 0.301416
O O9 0.388743 0.964784 0.185496
O O10 0.431545 0.845256 0.070207
O O11 0.534206 0.438090 0.133865
O O12 0.131781 0.600752 0.461118
O O13 0.064169 0.681793 0.646346
#
# Coordination Sequence:
#
# PCOD9465476 Si02
#       7
#     4   8   8   8   8   8   4
#     4  10  22  45  66  92 126 169 212 272 308 384
#     4  10  21  35  54  89 119 152 198 250 309 379
#     4  11  22  34  59  86 121 156 201 247 318 378
#     4  10  21  34  56  85 120 153 197 248 311 371
#     4  11  22  39  61  86 121 164 206 260 308 382
#     4  10  22  39  59  86 122 163 205 256 321 366
#     4  10  24  41  66  92 120 167 226 254 320 372
#
# _framework density 22.416615
#
# number of rings (size 3 to 8) (size 9 to 14) (size 15 to 20)
#    0.000    1.667    1.667    2.500    4.667    3.333 
#    0.000    1.667    0.000    1.000    0.000    0.000 
#    0.000    0.000    0.000    0.000    0.000    0.000 
#
# Total GULP energy -267605.441293 kJ/mol
# GULP energy per Si atom -5575.113360 kJ/mol
# Density = 2.236559 g / cm^3
# Si number density = 22.416615 Si / 1000 Ang^3
#
#
#
# Elastic Constant Matrix: (Units=GPa)
#
#
# Indices 1 2 3 4 5 6 
#
# 1 91.4496 -0.0383 33.1133 0.0000 0.0000 0.0000
# 2 -0.0383 26.1049 15.4274 0.0000 0.0000 0.0000
# 3 33.1133 15.4274 85.8466 0.0000 0.0000 0.0000
# 4 0.0000 0.0000 0.0000 -94.3000 0.0000 0.0000
# 5 0.0000 0.0000 0.0000 0.0000 36.5806 0.0000
# 6 0.0000 0.0000 0.0000 0.0000 0.0000 18.2178
#
#
#
# Elastic Compliance Matrix: (Units=1/GPa)
#
#
# Indices 1 2 3 4 5 6 
#
# 1 0.012964 0.003327 -0.005598 0.000000 0.000000 0.000000
# 2 0.003327 0.043713 -0.009139 0.000000 0.000000 0.000000
# 3 -0.005598 -0.009139 0.015450 0.000000 0.000000 0.000000
# 4 0.000000 0.000000 0.000000 -0.010604 0.000000 0.000000
# 5 0.000000 0.000000 0.000000 0.000000 0.027337 0.000000
# 6 0.000000 0.000000 0.000000 0.000000 0.000000 0.054891
#
#
# Mechanical properties :
#
#
# Convention : Reuss Voigt Hill
#
# Bulk Modulus (GPa) = 20.28112 33.37844 26.82978
# Shear Modulus (GPa) = 27.32148 2.42624 14.87386
#
# Velocity S-wave (km/s) = 3.49493 1.04149 2.57868
# Velocity P-wave (km/s) = 5.03518 4.04582 4.56736
#
# Compressibility (1/GPa) = 0.04930694
#
# Stress axis : x y z
#
# Youngs Moduli (GPa) = 77.13966 22.87661 64.72290
#
# Poissons Ratio (x) = -0.07612 0.36234
# Poissons Ratio (y) = -0.25668 0.59151
# Poissons Ratio (z) = 0.43185 0.20907
#
# Static dielectric constant tensor:
#      x y z
#    x 1.916360 0.000000 0.000000 
#    y 0.000000 1.839630 0.000000 
#    z 0.000000 0.000000 1.828310 
# 
# From -- ./inp_files/5347.got.cif
#   From: 2010.05.17/outbox.cif.g08.bks.cpg/sg62_3_cif.got.tgz:5347.got - 2010.06.03 15:25:27.
