data_PCOD9465153
_publ_section_title
;
Structure prediction by ZEFSAII (Michael W. Deem and Ramdas Pophale) SiO2 
 PCOD9465153
Probable space group: P N M A
;
_chemical_formula_sum "Si O2"
_cell_formula_units_Z 40
_cell_length_a 8.486185
_cell_length_b 25.117249
_cell_length_c 7.869414
_cell_angle_alpha 90.000000
_cell_angle_beta 90.000000
_cell_angle_gamma 90.000000
_cell_volume 1677.362617
_symmetry_space_group_name_H-M "P N M A"
_symmetry_group_IT_number 62
_symmetry_cell_setting 'orthorhombic'
loop_
_space_group_symop_operation_xyz
x,y,z
1/2-x,-y,1/2+z
1/2+x,1/2-y,1/2-z
-x,1/2+y,-z
-x,-y,-z
1/2+x,y,1/2-z
1/2-x,1/2+y,1/2+z
x,1/2-y,z
loop_
_atom_site_type_symbol
_atom_site_label
_atom_site_fract_x
_atom_site_fract_y
_atom_site_fract_z
Si Si1 0.267433 0.093999 0.189363
Si Si2 0.509003 0.422068 0.884756
Si Si3 0.201005 0.851804 0.150919
Si Si4 0.616880 0.189466 0.510977
Si Si5 0.980397 0.025287 0.182226
O O1 0.149159 0.046863 0.235970
O O2 0.391162 0.082275 0.337613
O O3 0.379473 0.076342 0.032143
O O4 0.186257 0.148001 0.128878
O O5 0.648450 0.381044 0.933635
O O6 0.411282 0.396541 0.731198
O O7 0.569083 0.478095 0.811349
O O8 0.284413 0.821903 0.313352
O O9 0.071208 0.817349 0.049073
O O10 0.646175 0.250000 0.457728
O O11 0.000000 0.000000 0.000000
#
# Coordination Sequence:
#
# PCOD9465153 Si02
#       5
#     8   8   8   8   8
#     4  11  25  39  60  90 124 169 221 266 324 395
#     4  10  20  38  62  94 132 166 209 269 327 393
#     4   9  18  34  63  97 129 164 209 264 331 400
#     4  10  20  38  62  93 129 168 215 273 327 385
#     4  12  23  39  61  90 129 173 210 262 329 397
#
# _framework density 23.846962000000001
#
# number of rings (size 3 to 8) (size 9 to 14) (size 15 to 20)
#    0.000    1.600    0.000    7.200    0.000    3.200 
#    0.000    2.000    0.000    0.000    0.000    0.000 
#    0.000    0.000    0.000    0.000    0.000    0.000 
#
# Total GULP energy -222961.928824 kJ/mol
# GULP energy per Si atom -5574.048221 kJ/mol
# Density = 2.379269 g / cm^3
# Si number density = 23.846962 Si / 1000 Ang^3
#
#
#
# Elastic Constant Matrix: (Units=GPa)
#
#
# Indices 1 2 3 4 5 6 
#
# 1 94.5297 41.4335 -14.7544 0.0000 0.0000 0.0000
# 2 41.4335 157.2566 25.9298 0.0000 0.0000 0.0000
# 3 -14.7544 25.9298 42.3943 0.0000 0.0000 0.0000
# 4 0.0000 0.0000 0.0000 28.7732 0.0000 0.0000
# 5 0.0000 0.0000 0.0000 0.0000 39.3372 0.0000
# 6 0.0000 0.0000 0.0000 0.0000 0.0000 33.1011
#
#
#
# Elastic Compliance Matrix: (Units=1/GPa)
#
#
# Indices 1 2 3 4 5 6 
#
# 1 0.014008 -0.004999 0.007933 0.000000 0.000000 0.000000
# 2 -0.004999 0.008856 -0.007156 0.000000 0.000000 0.000000
# 3 0.007933 -0.007156 0.030726 0.000000 0.000000 0.000000
# 4 0.000000 0.000000 0.000000 0.034755 0.000000 0.000000
# 5 0.000000 0.000000 0.000000 0.000000 0.025421 0.000000
# 6 0.000000 0.000000 0.000000 0.000000 0.000000 0.030210
#
#
# Mechanical properties :
#
#
# Convention : Reuss Voigt Hill
#
# Bulk Modulus (GPa) = 22.15103 44.37761 33.26432
# Shear Modulus (GPa) = 29.85619 36.34710 33.10165
#
# Velocity S-wave (km/s) = 3.54219 3.90831 3.72975
# Velocity P-wave (km/s) = 5.10279 6.24630 5.70328
#
# Compressibility (1/GPa) = 0.04514462
#
# Stress axis : x y z
#
# Youngs Moduli (GPa) = 71.38873 112.91662 32.54581
#
# Poissons Ratio (x) = 0.56444 -0.25817
# Poissons Ratio (y) = 0.35685 0.23291
# Poissons Ratio (z) = -0.56629 0.80808
#
# Static dielectric constant tensor:
#      x y z
#    x 2.176500 0.000000 0.000000 
#    y 0.000000 1.872900 0.000000 
#    z 0.000000 0.000000 2.410240 
# 
# From -- ./inp_files/4391.got.cif
#   From: 2010.05.17/outbox.cif.g08.bks.cpg/sg62_3_cif.got.tgz:4391.got - 2010.06.03 15:25:27.
