data_PCOD9465985
_publ_section_title
;
Structure prediction by ZEFSAII (Michael W. Deem and Ramdas Pophale) SiO2 
 PCOD9465985
Probable space group: P N M A
;
_chemical_formula_sum "Si O2"
_cell_formula_units_Z 60
_cell_length_a 20.232452
_cell_length_b 8.116715
_cell_length_c 17.141064
_cell_angle_alpha 90.000000
_cell_angle_beta 90.000000
_cell_angle_gamma 90.000000
_cell_volume 2814.923471
_symmetry_space_group_name_H-M "P N M A"
_symmetry_group_IT_number 62
_symmetry_cell_setting 'orthorhombic'
loop_
_space_group_symop_operation_xyz
x,y,z
1/2-x,-y,1/2+z
1/2+x,1/2-y,1/2-z
-x,1/2+y,-z
-x,-y,-z
1/2+x,y,1/2-z
1/2-x,1/2+y,1/2+z
x,1/2-y,z
loop_
_atom_site_type_symbol
_atom_site_label
_atom_site_fract_x
_atom_site_fract_y
_atom_site_fract_z
Si Si1 0.479809 0.947605 0.610405
Si Si2 0.819943 0.429096 0.475733
Si Si3 0.444862 0.557030 0.789130
Si Si4 0.190729 0.566124 0.249762
Si Si5 0.237786 0.565314 0.889012
Si Si6 0.040419 0.054912 0.575988
Si Si7 0.775799 0.750000 0.857659
Si Si8 0.109482 0.059336 0.974517
O O1 0.488349 0.750000 0.596265
O O2 0.469735 0.972780 0.701099
O O3 0.415951 0.998954 0.559270
O O4 0.543770 0.039900 0.577661
O O5 0.836030 0.250000 0.511910
O O6 0.793105 0.542002 0.544622
O O7 0.884958 0.491671 0.432842
O O8 0.762546 0.390456 0.413247
O O9 0.429349 0.750000 0.798518
O O10 0.378274 0.452864 0.796549
O O11 0.501790 0.513142 0.849567
O O12 0.193667 0.750000 0.213600
O O13 0.248073 0.549006 0.314959
O O14 0.193650 0.401841 0.195934
O O15 0.238236 0.750000 0.858313
O O16 0.168999 0.530737 0.932534
O O17 0.041471 0.250000 0.580051
O O18 0.000000 0.000000 0.500000
O O19 0.129859 0.250000 0.984300
#
# Coordination Sequence:
#
# PCOD9465985 Si02
#       8
#     8   8   8   8   8   8   4   8
#     4   9  21  40  63  91 131 174 222 275 340 405
#     4  10  24  44  68  96 138 179 232 293 357 425
#     4  11  23  42  70  98 136 183 227 289 356 414
#     4  12  25  45  71 103 140 188 237 292 355 434
#     4  12  24  42  69  99 137 184 234 285 356 420
#     4  12  25  44  69 100 136 180 238 299 363 433
#     4  10  26  48  68 100 152 180 232 304 360 420
#     4  10  21  38  63  95 132 174 224 283 333 404
#
# _framework density 21.314966999999999
#
# number of rings (size 3 to 8) (size 9 to 14) (size 15 to 20)
#    0.400    0.800    1.333    4.400    1.867    3.733 
#    2.400    0.000    0.000    0.000    0.000    0.000 
#    0.000    0.000    0.000    0.000    0.000    0.000 
#
# Total GULP energy -334291.686275 kJ/mol
# GULP energy per Si atom -5571.528105 kJ/mol
# Density = 2.126645 g / cm^3
# Si number density = 21.314967 Si / 1000 Ang^3
#
#
#
# Elastic Constant Matrix: (Units=GPa)
#
#
# Indices 1 2 3 4 5 6 
#
# 1 47.8190 15.9872 31.0721 0.0000 0.0000 0.0000
# 2 15.9872 102.4004 16.5986 0.0000 0.0000 0.0000
# 3 31.0721 16.5986 44.9300 0.0000 0.0000 0.0000
# 4 0.0000 0.0000 0.0000 37.1551 0.0000 0.0000
# 5 0.0000 0.0000 0.0000 0.0000 30.4739 0.0000
# 6 0.0000 0.0000 0.0000 0.0000 0.0000 37.2243
#
#
#
# Elastic Compliance Matrix: (Units=1/GPa)
#
#
# Indices 1 2 3 4 5 6 
#
# 1 0.038286 -0.001793 -0.025815 0.000000 0.000000 0.000000
# 2 -0.001793 0.010472 -0.002629 0.000000 0.000000 0.000000
# 3 -0.025815 -0.002629 0.041080 0.000000 0.000000 0.000000
# 4 0.000000 0.000000 0.000000 0.026914 0.000000 0.000000
# 5 0.000000 0.000000 0.000000 0.000000 0.032815 0.000000
# 6 0.000000 0.000000 0.000000 0.000000 0.000000 0.026864
#
#
# Mechanical properties :
#
#
# Convention : Reuss Voigt Hill
#
# Bulk Modulus (GPa) = 34.05381 35.82944 34.94163
# Shear Modulus (GPa) = 20.26820 29.73676 25.00248
#
# Velocity S-wave (km/s) = 3.08700 3.73917 3.42863
# Velocity P-wave (km/s) = 5.35885 5.95717 5.66591
#
# Compressibility (1/GPa) = 0.02936529
#
# Stress axis : x y z
#
# Youngs Moduli (GPa) = 26.11946 95.49648 24.34246
#
# Poissons Ratio (x) = 0.17121 0.62839
# Poissons Ratio (y) = 0.04683 0.06399
# Poissons Ratio (z) = 0.67427 0.25103
#
# Static dielectric constant tensor:
#      x y z
#    x 1.780890 0.000000 0.000000 
#    y 0.000000 1.874570 0.000000 
#    z 0.000000 0.000000 1.777190 
# 
# From -- ./inp_files/24356.got.cif
#   From: 2010.05.17/outbox.cif.g08.bks.cpg/sg62_13_cif.got.tgz:24356.got - 2010.06.03 15:25:27.
