data_PCOD9465005
_publ_section_title
;
Structure prediction by ZEFSAII (Michael W. Deem and Ramdas Pophale) SiO2 
 PCOD9465005
Probable space group: P N M A
;
_chemical_formula_sum "Si O2"
_cell_formula_units_Z 52
_cell_length_a 18.277470
_cell_length_b 14.474488
_cell_length_c 7.778134
_cell_angle_alpha 90.000000
_cell_angle_beta 90.000000
_cell_angle_gamma 90.000000
_cell_volume 2057.759954
_symmetry_space_group_name_H-M "P N M A"
_symmetry_group_IT_number 62
_symmetry_cell_setting 'orthorhombic'
loop_
_space_group_symop_operation_xyz
x,y,z
1/2-x,-y,1/2+z
1/2+x,1/2-y,1/2-z
-x,1/2+y,-z
-x,-y,-z
1/2+x,y,1/2-z
1/2-x,1/2+y,1/2+z
x,1/2-y,z
loop_
_atom_site_type_symbol
_atom_site_label
_atom_site_fract_x
_atom_site_fract_y
_atom_site_fract_z
Si Si1 0.426934 0.108078 0.937592
Si Si2 0.165697 0.250000 0.868676
Si Si3 0.401425 0.102067 0.544982
Si Si4 0.584013 0.383653 0.059266
Si Si5 0.240004 0.104207 0.430697
Si Si6 0.562104 0.383602 0.448879
Si Si7 0.727578 0.890020 0.963937
O O1 0.409358 0.129887 0.741926
O O2 0.423583 0.995524 0.949975
O O3 0.506780 0.145489 0.981673
O O4 0.357490 0.137831 0.048774
O O5 0.101890 0.170676 0.900858
O O6 0.229133 0.329456 0.899955
O O7 0.321078 0.132494 0.487263
O O8 0.475173 0.132953 0.451216
O O9 0.412672 0.990404 0.533430
O O10 0.664369 0.355021 0.988637
O O11 0.585455 0.355321 0.258085
O O12 0.238597 0.118676 0.225669
O O13 0.234119 0.995759 0.475040
#
# Coordination Sequence:
#
# PCOD9465005 Si02
#       7
#     8   4   8   8   8   8   8
#     4   9  19  36  58  95 124 162 206 267 312 380
#     4  12  22  42  60 104 128 176 198 296 322 392
#     4  10  20  38  63  98 121 170 222 264 306 405
#     4   9  17  34  57  89 124 159 211 262 308 374
#     4  11  19  37  62  98 121 171 218 271 306 404
#     4  10  20  37  62  87 132 163 218 260 330 378
#     4  11  22  37  67  91 138 161 225 265 334 380
#
# _framework density 25.270198000000001
#
# number of rings (size 3 to 8) (size 9 to 14) (size 15 to 20)
#    0.000    1.846    3.077    2.769    0.000    3.692 
#    2.769    3.846    0.000    6.462    0.000    0.000 
#    0.000    0.000    0.000    0.000    0.000    0.000 
#
# Total GULP energy -289685.475522 kJ/mol
# GULP energy per Si atom -5570.874529 kJ/mol
# Density = 2.521268 g / cm^3
# Si number density = 25.270198 Si / 1000 Ang^3
#
#
#
# Elastic Constant Matrix: (Units=GPa)
#
#
# Indices 1 2 3 4 5 6 
#
# 1 300.0699 7.4225 50.4880 0.0000 0.0000 0.0000
# 2 7.4225 89.8350 -17.2033 0.0000 0.0000 0.0000
# 3 50.4880 -17.2033 47.2934 0.0000 0.0000 0.0000
# 4 0.0000 0.0000 0.0000 -26.9601 0.0000 0.0000
# 5 0.0000 0.0000 0.0000 0.0000 57.8186 0.0000
# 6 0.0000 0.0000 0.0000 0.0000 0.0000 -171.1391
#
#
#
# Elastic Compliance Matrix: (Units=1/GPa)
#
#
# Indices 1 2 3 4 5 6 
#
# 1 0.004198 -0.001295 -0.004953 0.000000 0.000000 0.000000
# 2 -0.001295 0.012365 0.005880 0.000000 0.000000 0.000000
# 3 -0.004953 0.005880 0.028571 0.000000 0.000000 0.000000
# 4 0.000000 0.000000 0.000000 -0.037092 0.000000 0.000000
# 5 0.000000 0.000000 0.000000 0.000000 0.017295 0.000000
# 6 0.000000 0.000000 0.000000 0.000000 0.000000 -0.005843
#
#
# Mechanical properties :
#
#
# Convention : Reuss Voigt Hill
#
# Bulk Modulus (GPa) = 22.52326 57.62365 40.07345
# Shear Modulus (GPa) = 142.74229 -1.62340 70.55945
#
# Velocity S-wave (km/s) = 7.52390 -0.80238 5.28986
# Velocity P-wave (km/s) = 9.18755 4.68979 7.29401
#
# Compressibility (1/GPa) = 0.04439855
#
# Stress axis : x y z
#
# Youngs Moduli (GPa) = 238.21465 80.87574 35.00075
#
# Poissons Ratio (x) = 0.10476 0.17335
# Poissons Ratio (y) = 0.30855 -0.20582
# Poissons Ratio (z) = 1.17979 -0.47559
#
# Static dielectric constant tensor:
#      x y z
#    x 1.208860 0.000000 0.000000 
#    y 0.000000 1.983500 0.000000 
#    z 0.000000 0.000000 1.995930 
# 
# From -- ./inp_files/7898.got.cif
#   From: 2010.05.17/outbox.cif.g08.bks.cpg/sg62_4_cif.got.tgz:7898.got - 2010.06.03 15:25:27.
