data_PCOD9465522
_publ_section_title
;
Structure prediction by ZEFSAII (Michael W. Deem and Ramdas Pophale) SiO2 
 PCOD9465522
Probable space group: P N M A
;
_chemical_formula_sum "Si O2"
_cell_formula_units_Z 56
_cell_length_a 14.209309
_cell_length_b 13.462671
_cell_length_c 12.814291
_cell_angle_alpha 90.000000
_cell_angle_beta 90.000000
_cell_angle_gamma 90.000000
_cell_volume 2451.313029
_symmetry_space_group_name_H-M "P N M A"
_symmetry_group_IT_number 62
_symmetry_cell_setting 'orthorhombic'
loop_
_space_group_symop_operation_xyz
x,y,z
1/2-x,-y,1/2+z
1/2+x,1/2-y,1/2-z
-x,1/2+y,-z
-x,-y,-z
1/2+x,y,1/2-z
1/2-x,1/2+y,1/2+z
x,1/2-y,z
loop_
_atom_site_type_symbol
_atom_site_label
_atom_site_fract_x
_atom_site_fract_y
_atom_site_fract_z
Si Si1 0.976442 0.867497 0.086788
Si Si2 0.395233 0.954070 0.626870
Si Si3 0.515428 0.370182 0.164007
Si Si4 0.306318 0.134577 0.101403
Si Si5 0.808966 0.629236 0.247822
Si Si6 0.071127 0.130150 0.565815
Si Si7 0.127681 0.865741 0.361341
O O1 0.993268 0.750000 0.097580
O O2 0.891959 0.896990 0.166295
O O3 0.067992 0.933460 0.111119
O O4 0.941498 0.893941 0.970610
O O5 0.436750 0.913748 0.734694
O O6 0.285474 0.929037 0.622164
O O7 0.521525 0.250000 0.167643
O O8 0.404037 0.393390 0.157403
O O9 0.564051 0.401260 0.054016
O O10 0.285067 0.250000 0.127772
O O11 0.331823 0.132095 0.978730
O O12 0.804222 0.750000 0.242274
O O13 0.708781 0.588717 0.209934
O O14 0.839679 0.604054 0.364976
O O15 0.065380 0.250000 0.563216
O O16 0.978463 0.096254 0.629301
O O17 0.117636 0.750000 0.330244
#
# Coordination Sequence:
#
# PCOD9465522 Si02
#       7
#     8   8   8   8   8   8   8
#     4  10  21  35  56  88 116 148 199 252 302 353
#     4  11  20  34  60  86 118 158 196 247 304 361
#     4   9  18  32  55  86 117 152 199 247 296 356
#     4   9  16  30  55  84 111 148 198 245 289 354
#     4   9  15  28  50  73 103 142 188 236 283 339
#     4   8  15  27  47  76 106 143 190 235 283 343
#     4   8  13  24  46  74 101 138 190 236 275 335
#
# _framework density 22.844899000000002
#
# number of rings (size 3 to 8) (size 9 to 14) (size 15 to 20)
#    0.000    2.857    1.429    3.000    0.000    0.000 
#    0.000    2.143    3.143    2.571    0.000    0.000 
#    0.000    0.000    0.000    0.000    0.000    0.286 
#
# Total GULP energy -313364.160061 kJ/mol
# GULP energy per Si atom -5595.788573 kJ/mol
# Density = 2.279290 g / cm^3
# Si number density = 22.844899 Si / 1000 Ang^3
#
#
#
# Elastic Constant Matrix: (Units=GPa)
#
#
# Indices 1 2 3 4 5 6 
#
# 1 137.0287 36.9357 79.9191 0.0000 0.0000 0.0000
# 2 36.9357 94.5121 22.6752 0.0000 0.0000 0.0000
# 3 79.9191 22.6752 144.8895 0.0000 0.0000 0.0000
# 4 0.0000 0.0000 0.0000 22.0718 0.0000 0.0000
# 5 0.0000 0.0000 0.0000 0.0000 38.0411 0.0000
# 6 0.0000 0.0000 0.0000 0.0000 0.0000 31.9673
#
#
#
# Elastic Compliance Matrix: (Units=1/GPa)
#
#
# Indices 1 2 3 4 5 6 
#
# 1 0.011576 -0.003109 -0.005899 0.000000 0.000000 0.000000
# 2 -0.003109 0.011828 -0.000136 0.000000 0.000000 0.000000
# 3 -0.005899 -0.000136 0.010177 0.000000 0.000000 0.000000
# 4 0.000000 0.000000 0.000000 0.045307 0.000000 0.000000
# 5 0.000000 0.000000 0.000000 0.000000 0.026287 0.000000
# 6 0.000000 0.000000 0.000000 0.000000 0.000000 0.031282
#
#
# Mechanical properties :
#
#
# Convention : Reuss Voigt Hill
#
# Bulk Modulus (GPa) = 65.38729 72.83226 69.10977
# Shear Modulus (GPa) = 31.28083 34.20940 32.74512
#
# Velocity S-wave (km/s) = 3.70438 3.87391 3.79009
# Velocity P-wave (km/s) = 6.85427 7.20832 7.03352
#
# Compressibility (1/GPa) = 0.01529349
#
# Stress axis : x y z
#
# Youngs Moduli (GPa) = 86.38611 84.54318 98.26321
#
# Poissons Ratio (x) = 0.26282 0.57962
# Poissons Ratio (y) = 0.26855 0.01340
# Poissons Ratio (z) = 0.50956 0.01153
#
# Static dielectric constant tensor:
#      x y z
#    x 1.817290 0.000000 0.000000 
#    y 0.000000 1.915910 0.000000 
#    z 0.000000 0.000000 1.817940 
# 
# From -- ./inp_files/13369.got.cif
#   From: 2010.05.17/outbox.cif.g08.bks.cpg/sg62_7_cif.got.tgz:13369.got - 2010.06.03 15:25:27.
