data_PCOD9465941
_publ_section_title
;
Structure prediction by ZEFSAII (Michael W. Deem and Ramdas Pophale) SiO2 
 PCOD9465941
Probable space group: P N M A
;
_chemical_formula_sum "Si O2"
_cell_formula_units_Z 32
_cell_length_a 4.790877
_cell_length_b 11.467732
_cell_length_c 26.464057
_cell_angle_alpha 90.000000
_cell_angle_beta 90.000000
_cell_angle_gamma 90.000000
_cell_volume 1453.948351
_symmetry_space_group_name_H-M "P N M A"
_symmetry_group_IT_number 62
_symmetry_cell_setting 'orthorhombic'
loop_
_space_group_symop_operation_xyz
x,y,z
1/2-x,-y,1/2+z
1/2+x,1/2-y,1/2-z
-x,1/2+y,-z
-x,-y,-z
1/2+x,y,1/2-z
1/2-x,1/2+y,1/2+z
x,1/2-y,z
loop_
_atom_site_type_symbol
_atom_site_label
_atom_site_fract_x
_atom_site_fract_y
_atom_site_fract_z
Si Si1 0.490664 0.486352 0.880067
Si Si2 0.234161 0.750000 0.006913
Si Si3 0.732424 0.886484 0.283490
Si Si4 0.490353 0.620031 0.581571
Si Si5 0.266300 0.250000 0.927130
O O1 0.649229 0.465742 0.827602
O O2 0.731420 0.533183 0.917523
O O3 0.356141 0.365058 0.897801
O O4 0.234937 0.576128 0.881679
O O5 0.057445 0.750000 0.058385
O O6 0.557423 0.750000 0.020543
O O7 0.137637 0.859177 0.972683
O O8 0.414643 0.904396 0.267250
O O9 0.766415 0.750000 0.298008
O O10 0.390367 0.750000 0.596384
#
# Coordination Sequence:
#
# PCOD9465941 Si02
#       5
#     8   4   8   8   4
#     4  12  22  40  65  90 123 155 203 251 299 363
#     4  10  24  42  54  93 120 165 208 238 306 338
#     4  10  21  38  61  92 125 150 187 242 315 371
#     4  10  24  42  60  84 119 177 202 238 294 352
#     4  12  24  36  62  97 120 151 206 256 306 348
#
# _framework density 22.009035000000001
#
# number of rings (size 3 to 8) (size 9 to 14) (size 15 to 20)
#    0.750    0.500    1.250    5.250    0.000    6.000 
#    0.000    0.000    0.000   15.000    0.000    0.000 
#    0.000    0.000    0.000    0.000    0.000    0.000 
#
# Total GULP energy -178932.036070 kJ/mol
# GULP energy per Si atom -5591.626127 kJ/mol
# Density = 2.195894 g / cm^3
# Si number density = 22.009035 Si / 1000 Ang^3
#
#
#
# Elastic Constant Matrix: (Units=GPa)
#
#
# Indices 1 2 3 4 5 6 
#
# 1 67.9786 -2.8850 -11.6359 0.0000 0.0000 0.0000
# 2 -2.8850 66.8390 10.8053 0.0000 0.0000 0.0000
# 3 -11.6359 10.8053 39.5374 0.0000 0.0000 0.0000
# 4 0.0000 0.0000 0.0000 16.2507 0.0000 0.0000
# 5 0.0000 0.0000 0.0000 0.0000 26.6367 0.0000
# 6 0.0000 0.0000 0.0000 0.0000 0.0000 2.7546
#
#
#
# Elastic Compliance Matrix: (Units=1/GPa)
#
#
# Indices 1 2 3 4 5 6 
#
# 1 0.015491 -0.000072 0.004579 0.000000 0.000000 0.000000
# 2 -0.000072 0.015653 -0.004299 0.000000 0.000000 0.000000
# 3 0.004579 -0.004299 0.027815 0.000000 0.000000 0.000000
# 4 0.000000 0.000000 0.000000 0.061536 0.000000 0.000000
# 5 0.000000 0.000000 0.000000 0.000000 0.037542 0.000000
# 6 0.000000 0.000000 0.000000 0.000000 0.000000 0.363025
#
#
# Mechanical properties :
#
#
# Convention : Reuss Voigt Hill
#
# Bulk Modulus (GPa) = 16.84194 18.54709 17.69451
# Shear Modulus (GPa) = 9.25175 20.99979 15.12577
#
# Velocity S-wave (km/s) = 2.05250 3.09227 2.62439
# Velocity P-wave (km/s) = 3.64498 4.60379 4.15215
#
# Compressibility (1/GPa) = 0.05937558
#
# Stress axis : x y z
#
# Youngs Moduli (GPa) = 64.55276 63.88461 35.95196
#
# Poissons Ratio (x) = 0.00457 -0.16461
# Poissons Ratio (y) = 0.00462 0.15456
# Poissons Ratio (z) = -0.29556 0.27464
#
# Static dielectric constant tensor:
#      x y z
#    x 1.763610 0.000000 0.000000 
#    y 0.000000 1.788570 0.000000 
#    z 0.000000 0.000000 1.834190 
# 
# From -- ./inp_files/30231.got.cif
#   From: 2010.05.17/outbox.cif.g08.bks.cpg/sg62_16_cif.got.tgz:30231.got - 2010.06.03 15:25:27.
