data_PCOD9465694
_publ_section_title
;
Structure prediction by ZEFSAII (Michael W. Deem and Ramdas Pophale) SiO2 
 PCOD9465694
Probable space group: P N M A
;
_chemical_formula_sum "Si O2"
_cell_formula_units_Z 56
_cell_length_a 21.833673
_cell_length_b 8.178790
_cell_length_c 15.097948
_cell_angle_alpha 90.000000
_cell_angle_beta 90.000000
_cell_angle_gamma 90.000000
_cell_volume 2696.086267
_symmetry_space_group_name_H-M "P N M A"
_symmetry_group_IT_number 62
_symmetry_cell_setting 'orthorhombic'
loop_
_space_group_symop_operation_xyz
x,y,z
1/2-x,-y,1/2+z
1/2+x,1/2-y,1/2-z
-x,1/2+y,-z
-x,-y,-z
1/2+x,y,1/2-z
1/2-x,1/2+y,1/2+z
x,1/2-y,z
loop_
_atom_site_type_symbol
_atom_site_label
_atom_site_fract_x
_atom_site_fract_y
_atom_site_fract_z
Si Si1 0.025117 0.438801 0.273636
Si Si2 0.156528 0.052865 0.328544
Si Si3 0.604663 0.445773 0.740025
Si Si4 0.237103 0.447635 0.691915
Si Si5 0.042058 0.938067 0.080512
Si Si6 0.759624 0.947512 0.513773
Si Si7 0.130542 0.059016 0.953106
O O1 0.021803 0.250000 0.298928
O O2 0.087654 0.512454 0.313832
O O3 0.035804 0.457573 0.168295
O O4 0.957716 0.511442 0.290720
O O5 0.153206 0.250000 0.322708
O O6 0.182254 0.010041 0.425691
O O7 0.206357 0.001836 0.253930
O O8 0.609115 0.250000 0.737549
O O9 0.670111 0.507224 0.775015
O O10 0.598982 0.499429 0.637458
O O11 0.236710 0.250000 0.694282
O O12 0.240936 0.497331 0.588869
O O13 0.028400 0.750000 0.101907
O O14 0.109041 0.957655 0.037866
O O15 0.000000 0.000000 0.000000
O O16 0.752483 0.750000 0.517664
O O17 0.702101 0.033359 0.559526
O O18 0.116521 0.250000 0.967978
#
# Coordination Sequence:
#
# PCOD9465694 Si02
#       7
#     8   8   8   8   8   8   8
#     4  11  23  38  57  83 118 156 194 239 293 349
#     4  10  22  39  59  87 120 153 191 242 296 348
#     4  10  21  37  57  82 114 152 193 237 286 343
#     4  10  21  39  62  87 114 153 199 242 289 347
#     4  12  23  35  53  80 113 149 188 230 286 350
#     4  10  21  38  61  86 115 152 196 243 294 346
#     4  11  21  35  56  83 116 149 188 236 290 347
#
# _framework density 20.770848000000001
#
# number of rings (size 3 to 8) (size 9 to 14) (size 15 to 20)
#    0.000    1.429    2.857    3.000    0.000    5.143 
#    0.000    0.714    0.000    0.000    0.000    0.000 
#    0.000    0.000    0.000    0.000    0.000    0.000 
#
# Total GULP energy -312611.887597 kJ/mol
# GULP energy per Si atom -5582.355136 kJ/mol
# Density = 2.072357 g / cm^3
# Si number density = 20.770848 Si / 1000 Ang^3
#
#
#
# Elastic Constant Matrix: (Units=GPa)
#
#
# Indices 1 2 3 4 5 6 
#
# 1 114.6301 3.9641 10.0697 0.0000 0.0000 0.0000
# 2 3.9641 14.4743 5.2570 0.0000 0.0000 0.0000
# 3 10.0697 5.2570 51.8962 0.0000 0.0000 0.0000
# 4 0.0000 0.0000 0.0000 15.0415 0.0000 0.0000
# 5 0.0000 0.0000 0.0000 0.0000 36.9980 0.0000
# 6 0.0000 0.0000 0.0000 0.0000 0.0000 29.2312
#
#
#
# Elastic Compliance Matrix: (Units=1/GPa)
#
#
# Indices 1 2 3 4 5 6 
#
# 1 0.008924 -0.001885 -0.001541 0.000000 0.000000 0.000000
# 2 -0.001885 0.072125 -0.006940 0.000000 0.000000 0.000000
# 3 -0.001541 -0.006940 0.020271 0.000000 0.000000 0.000000
# 4 0.000000 0.000000 0.000000 0.066483 0.000000 0.000000
# 5 0.000000 0.000000 0.000000 0.000000 0.027028 0.000000
# 6 0.000000 0.000000 0.000000 0.000000 0.000000 0.034210
#
#
# Mechanical properties :
#
#
# Convention : Reuss Voigt Hill
#
# Bulk Modulus (GPa) = 12.40865 24.39802 18.40333
# Shear Modulus (GPa) = 18.07433 27.03482 22.55457
#
# Velocity S-wave (km/s) = 2.95308 3.61165 3.29884
# Velocity P-wave (km/s) = 4.19697 5.40035 4.83624
#
# Compressibility (1/GPa) = 0.08058895
#
# Stress axis : x y z
#
# Youngs Moduli (GPa) = 112.05447 13.86486 49.33098
#
# Poissons Ratio (x) = 0.02613 0.07601
# Poissons Ratio (y) = 0.21117 0.34238
# Poissons Ratio (z) = 0.17265 0.09623
#
# Static dielectric constant tensor:
#      x y z
#    x 1.839110 0.000000 0.000000 
#    y 0.000000 1.766400 0.000000 
#    z 0.000000 0.000000 1.737960 
# 
# From -- ./inp_files/20384.got.cif
#   From: 2010.05.17/outbox.cif.g08.bks.cpg/sg62_11_cif.got.tgz:20384.got - 2010.06.03 15:25:27.
