data_PCOD9465018
_publ_section_title
;
Structure prediction by ZEFSAII (Michael W. Deem and Ramdas Pophale) SiO2 
 PCOD9465018
Probable space group: P N M A
;
_chemical_formula_sum "Si O2"
_cell_formula_units_Z 64
_cell_length_a 18.018340
_cell_length_b 13.582229
_cell_length_c 11.307101
_cell_angle_alpha 90.000000
_cell_angle_beta 90.000000
_cell_angle_gamma 90.000000
_cell_volume 2767.178009
_symmetry_space_group_name_H-M "P N M A"
_symmetry_group_IT_number 62
_symmetry_cell_setting 'orthorhombic'
loop_
_space_group_symop_operation_xyz
x,y,z
1/2-x,-y,1/2+z
1/2+x,1/2-y,1/2-z
-x,1/2+y,-z
-x,-y,-z
1/2+x,y,1/2-z
1/2-x,1/2+y,1/2+z
x,1/2-y,z
loop_
_atom_site_type_symbol
_atom_site_label
_atom_site_fract_x
_atom_site_fract_y
_atom_site_fract_z
Si Si1 0.514312 0.438560 0.158008
Si Si2 0.635616 0.136566 0.316834
Si Si3 0.599079 0.642661 0.532453
Si Si4 0.509207 0.855534 0.286534
Si Si5 0.379173 0.008578 0.030963
Si Si6 0.752451 0.642554 0.408842
Si Si7 0.288082 0.046720 0.815298
Si Si8 0.376906 0.564197 0.411402
O O1 0.555653 0.370517 0.252228
O O2 0.523534 0.549550 0.208111
O O3 0.428419 0.429498 0.122048
O O4 0.562987 0.436751 0.037462
O O5 0.661738 0.250000 0.313538
O O6 0.628240 0.099657 0.452332
O O7 0.686071 0.057495 0.243951
O O8 0.583134 0.750000 0.586026
O O9 0.556770 0.639231 0.407144
O O10 0.687504 0.636486 0.506166
O O11 0.580507 0.540789 0.595238
O O12 0.522820 0.750000 0.228615
O O13 0.424523 0.862825 0.331946
O O14 0.313625 0.941972 0.083394
O O15 0.338954 0.068749 0.927744
O O16 0.787284 0.750000 0.415992
O O17 0.708650 0.626945 0.287055
O O18 0.204323 0.048706 0.860475
#
# Coordination Sequence:
#
# PCOD9465018 Si02
#       8
#     8   8   8   8   8   8   8   8
#     4  10  22  41  63  92 129 170 216 268 325 388
#     4  11  24  43  64  93 133 178 223 270 332 400
#     4  10  20  37  62  93 128 167 213 265 325 384
#     4  11  23  40  67  98 130 171 221 274 329 391
#     4  10  21  40  63  91 131 169 210 264 328 381
#     4  11  22  41  69 100 130 171 222 268 327 397
#     4  11  22  40  65  97 131 170 214 273 330 384
#     4  12  22  40  66  97 134 174 216 275 336 387
#
# _framework density 23.128254999999999
#
# number of rings (size 3 to 8) (size 9 to 14) (size 15 to 20)
#    0.000    1.250    3.750    2.250    0.000    5.000 
#    0.000    3.750    0.000    4.500    0.000    0.000 
#    0.000    0.000    0.000    0.000    0.000    0.000 
#
# Total GULP energy -357697.208084 kJ/mol
# GULP energy per Si atom -5589.018876 kJ/mol
# Density = 2.307561 g / cm^3
# Si number density = 23.128255 Si / 1000 Ang^3
#
#
#
# Elastic Constant Matrix: (Units=GPa)
#
#
# Indices 1 2 3 4 5 6 
#
# 1 111.8969 13.7796 12.2293 0.0000 0.0000 0.0000
# 2 13.7796 88.0773 18.5556 0.0000 0.0000 0.0000
# 3 12.2293 18.5556 63.0133 0.0000 0.0000 0.0000
# 4 0.0000 0.0000 0.0000 -1.2701 0.0000 0.0000
# 5 0.0000 0.0000 0.0000 0.0000 41.4869 0.0000
# 6 0.0000 0.0000 0.0000 0.0000 0.0000 22.9965
#
#
#
# Elastic Compliance Matrix: (Units=1/GPa)
#
#
# Indices 1 2 3 4 5 6 
#
# 1 0.009236 -0.001138 -0.001457 0.000000 0.000000 0.000000
# 2 -0.001138 0.012245 -0.003385 0.000000 0.000000 0.000000
# 3 -0.001457 -0.003385 0.017149 0.000000 0.000000 0.000000
# 4 0.000000 0.000000 0.000000 -0.787331 0.000000 0.000000
# 5 0.000000 0.000000 0.000000 0.000000 0.024104 0.000000
# 6 0.000000 0.000000 0.000000 0.000000 0.000000 0.043485
#
#
# Mechanical properties :
#
#
# Convention : Reuss Voigt Hill
#
# Bulk Modulus (GPa) = 37.49567 39.12406 38.30986
# Shear Modulus (GPa) = -7.57275 27.20419 9.81572
#
# Velocity S-wave (km/s) = -1.81145 3.43334 2.06234
# Velocity P-wave (km/s) = 3.44559 5.71577 4.71922
#
# Compressibility (1/GPa) = 0.02666975
#
# Stress axis : x y z
#
# Youngs Moduli (GPa) = 108.26945 81.66731 58.31152
#
# Poissons Ratio (x) = 0.09293 0.08498
# Poissons Ratio (y) = 0.12321 0.19738
# Poissons Ratio (z) = 0.15780 0.27643
#
# Static dielectric constant tensor:
#      x y z
#    x 1.917180 0.000000 0.000000 
#    y 0.000000 1.831840 0.000000 
#    z 0.000000 0.000000 1.891400 
# 
# From -- ./inp_files/14333.got.cif
#   From: 2010.05.17/outbox.cif.g08.bks.cpg/sg62_8_cif.got.tgz:14333.got - 2010.06.03 15:25:27.
