data_PCOD9465512
_publ_section_title
;
Structure prediction by ZEFSAII (Michael W. Deem and Ramdas Pophale) SiO2 
 PCOD9465512
Probable space group: P N M A
;
_chemical_formula_sum "Si O2"
_cell_formula_units_Z 40
_cell_length_a 7.798512
_cell_length_b 13.406154
_cell_length_c 16.553661
_cell_angle_alpha 90.000000
_cell_angle_beta 90.000000
_cell_angle_gamma 90.000000
_cell_volume 1730.653025
_symmetry_space_group_name_H-M "P N M A"
_symmetry_group_IT_number 62
_symmetry_cell_setting 'orthorhombic'
loop_
_space_group_symop_operation_xyz
x,y,z
1/2-x,-y,1/2+z
1/2+x,1/2-y,1/2-z
-x,1/2+y,-z
-x,-y,-z
1/2+x,y,1/2-z
1/2-x,1/2+y,1/2+z
x,1/2-y,z
loop_
_atom_site_type_symbol
_atom_site_label
_atom_site_fract_x
_atom_site_fract_y
_atom_site_fract_z
Si Si1 0.845390 0.868305 0.544274
Si Si2 0.097451 0.131643 0.880036
Si Si3 0.541457 0.131370 0.434829
Si Si4 0.152499 0.506373 0.614318
Si Si5 0.562343 0.630669 0.219722
O O1 0.866617 0.750000 0.529241
O O2 0.658779 0.882872 0.584834
O O3 0.003067 0.913350 0.593539
O O4 0.840317 0.929067 0.460631
O O5 0.109347 0.250000 0.889095
O O6 0.273785 0.103862 0.835091
O O7 0.943523 0.116676 0.816456
O O8 0.072791 0.097546 0.971623
O O9 0.576239 0.250000 0.429548
O O10 0.673656 0.069628 0.381553
O O11 0.086463 0.440642 0.687842
O O12 0.528070 0.750000 0.207454
#
# Coordination Sequence:
#
# PCOD9465512 Si02
#       5
#     8   8   8   8   8
#     4  10  21  35  55  82 115 153 187 235 294 344
#     4   9  19  35  54  81 118 157 192 230 290 361
#     4  10  21  38  60  88 122 154 194 245 297 352
#     4  11  21  35  57  89 122 147 199 243 291 352
#     4  10  21  36  56  85 121 158 190 234 297 357
#
# _framework density 23.112665
#
# number of rings (size 3 to 8) (size 9 to 14) (size 15 to 20)
#    0.000    2.000    0.000    4.200    2.800    1.600 
#    0.000    0.000    0.000    1.200    0.000   16.800 
#    0.000    0.000    0.000    0.000    0.000    0.000 
#
# Total GULP energy -223685.679895 kJ/mol
# GULP energy per Si atom -5592.141997 kJ/mol
# Density = 2.306006 g / cm^3
# Si number density = 23.112665 Si / 1000 Ang^3
#
#
#
# Elastic Constant Matrix: (Units=GPa)
#
#
# Indices 1 2 3 4 5 6 
#
# 1 115.4307 78.8066 19.5205 0.0000 0.0000 0.0000
# 2 78.8066 161.8664 23.2387 0.0000 0.0000 0.0000
# 3 19.5205 23.2387 24.4554 0.0000 0.0000 0.0000
# 4 0.0000 0.0000 0.0000 29.5876 0.0000 0.0000
# 5 0.0000 0.0000 0.0000 0.0000 25.5179 0.0000
# 6 0.0000 0.0000 0.0000 0.0000 0.0000 44.4994
#
#
#
# Elastic Compliance Matrix: (Units=1/GPa)
#
#
# Indices 1 2 3 4 5 6 
#
# 1 0.013537 -0.005835 -0.005260 0.000000 0.000000 0.000000
# 2 -0.005835 0.009669 -0.004530 0.000000 0.000000 0.000000
# 3 -0.005260 -0.004530 0.049394 0.000000 0.000000 0.000000
# 4 0.000000 0.000000 0.000000 0.033798 0.000000 0.000000
# 5 0.000000 0.000000 0.000000 0.000000 0.039188 0.000000
# 6 0.000000 0.000000 0.000000 0.000000 0.000000 0.022472
#
#
# Mechanical properties :
#
#
# Convention : Reuss Voigt Hill
#
# Bulk Modulus (GPa) = 24.18458 60.54267 42.36362
# Shear Modulus (GPa) = 23.46391 31.93342 27.69866
#
# Velocity S-wave (km/s) = 3.18967 3.72108 3.46557
# Velocity P-wave (km/s) = 4.90427 6.68680 5.86367
#
# Compressibility (1/GPa) = 0.04134867
#
# Stress axis : x y z
#
# Youngs Moduli (GPa) = 73.87391 103.41971 20.24521
#
# Poissons Ratio (x) = 0.60348 0.10649
# Poissons Ratio (y) = 0.43107 0.09172
# Poissons Ratio (z) = 0.38858 0.46854
#
# Static dielectric constant tensor:
#      x y z
#    x 1.970320 0.000000 0.000000 
#    y 0.000000 1.863340 0.000000 
#    z 0.000000 0.000000 1.853870 
# 
# From -- ./inp_files/21889.got.cif
#   From: 2010.05.17/outbox.cif.g08.bks.cpg/sg62_11_cif.got.tgz:21889.got - 2010.06.03 15:25:27.
