data_PCOD9465524
_publ_section_title
;
Structure prediction by ZEFSAII (Michael W. Deem and Ramdas Pophale) SiO2 
 PCOD9465524
Probable space group: P N M A
;
_chemical_formula_sum "Si O2"
_cell_formula_units_Z 60
_cell_length_a 26.316243
_cell_length_b 18.212872
_cell_length_c 6.830200
_cell_angle_alpha 90.000000
_cell_angle_beta 90.000000
_cell_angle_gamma 90.000000
_cell_volume 3273.676374
_symmetry_space_group_name_H-M "P N M A"
_symmetry_group_IT_number 62
_symmetry_cell_setting 'orthorhombic'
loop_
_space_group_symop_operation_xyz
x,y,z
1/2-x,-y,1/2+z
1/2+x,1/2-y,1/2-z
-x,1/2+y,-z
-x,-y,-z
1/2+x,y,1/2-z
1/2-x,1/2+y,1/2+z
x,1/2-y,z
loop_
_atom_site_type_symbol
_atom_site_label
_atom_site_fract_x
_atom_site_fract_y
_atom_site_fract_z
Si Si1 0.311769 0.048772 0.564413
Si Si2 0.761530 0.901963 0.097064
Si Si3 0.061283 0.116662 0.415075
Si Si4 0.831548 0.836197 0.422637
Si Si5 0.766113 0.166925 0.200063
Si Si6 0.571518 0.506996 0.402516
Si Si7 0.980271 0.608602 0.165597
Si Si8 0.541939 0.250000 0.395399
O O1 0.304165 0.108122 0.392427
O O2 0.280571 0.976491 0.503242
O O3 0.369854 0.028497 0.597062
O O4 0.284625 0.081034 0.756582
O O5 0.744130 0.847731 0.926738
O O6 0.807451 0.869330 0.226016
O O7 0.117991 0.124857 0.503328
O O8 0.058500 0.043214 0.285597
O O9 0.024427 0.115376 0.601403
O O10 0.051314 0.185189 0.272192
O O11 0.842273 0.750000 0.393286
O O12 0.787435 0.843117 0.586091
O O13 0.783236 0.250000 0.164709
O O14 0.557950 0.454933 0.586855
O O15 0.535171 0.577711 0.399279
O O16 0.966842 0.684723 0.061231
#
# Coordination Sequence:
#
# PCOD9465524 Si02
#       8
#     8   8   8   8   8   8   8   4
#     4  11  22  38  62  88 121 158 207 250 296 362
#     4  11  21  36  59  88 121 159 200 248 299 360
#     4  11  20  37  62  92 123 155 200 253 314 370
#     4  10  21  35  56  91 122 153 191 244 309 367
#     4  10  22  40  58  83 126 163 200 248 300 357
#     4  10  23  39  63  91 118 162 208 254 302 370
#     4  10  22  42  62  88 125 159 201 259 314 360
#     4  10  22  38  60  88 124 156 198 254 310 374
#
# _framework density 18.328019000000001
#
# number of rings (size 3 to 8) (size 9 to 14) (size 15 to 20)
#    0.000    1.600    2.000    2.800    1.867    2.667 
#    1.200    0.000    0.000    0.000    0.000    0.000 
#    0.000    0.000    0.000    0.000    0.000    0.000 
#
# Total GULP energy -334114.995977 kJ/mol
# GULP energy per Si atom -5568.583266 kJ/mol
# Density = 1.828630 g / cm^3
# Si number density = 18.328019 Si / 1000 Ang^3
#
#
#
# Elastic Constant Matrix: (Units=GPa)
#
#
# Indices 1 2 3 4 5 6 
#
# 1 40.1752 11.2493 -4.3736 0.0000 0.0000 0.0000
# 2 11.2493 46.5321 9.1640 0.0000 0.0000 0.0000
# 3 -4.3736 9.1640 75.4043 0.0000 0.0000 0.0000
# 4 0.0000 0.0000 0.0000 27.4768 0.0000 0.0000
# 5 0.0000 0.0000 0.0000 0.0000 9.3649 0.0000
# 6 0.0000 0.0000 0.0000 0.0000 0.0000 15.0765
#
#
#
# Elastic Compliance Matrix: (Units=1/GPa)
#
#
# Indices 1 2 3 4 5 6 
#
# 1 0.027125 -0.007036 0.002428 0.000000 0.000000 0.000000
# 2 -0.007036 0.023843 -0.003306 0.000000 0.000000 0.000000
# 3 0.002428 -0.003306 0.013804 0.000000 0.000000 0.000000
# 4 0.000000 0.000000 0.000000 0.036394 0.000000 0.000000
# 5 0.000000 0.000000 0.000000 0.000000 0.106782 0.000000
# 6 0.000000 0.000000 0.000000 0.000000 0.000000 0.066328
#
#
# Mechanical properties :
#
#
# Convention : Reuss Voigt Hill
#
# Bulk Modulus (GPa) = 20.43068 21.57677 21.00372
# Shear Modulus (GPa) = 16.31755 20.12177 18.21966
#
# Velocity S-wave (km/s) = 2.98704 3.31701 3.15634
# Velocity P-wave (km/s) = 4.80291 5.14472 4.97675
#
# Compressibility (1/GPa) = 0.04894599
#
# Stress axis : x y z
#
# Youngs Moduli (GPa) = 36.86578 41.94186 72.44042
#
# Poissons Ratio (x) = 0.29510 -0.17591
# Poissons Ratio (y) = 0.25938 0.23947
# Poissons Ratio (z) = -0.08953 0.13865
#
# Static dielectric constant tensor:
#      x y z
#    x 1.612940 0.000000 0.000000 
#    y 0.000000 1.613900 0.000000 
#    z 0.000000 0.000000 1.641180 
# 
# From -- ./inp_files/3282.got.cif
#   From: 2010.05.17/outbox.cif.g08.bks.cpg/sg62_2_cif.got.tgz:3282.got - 2010.06.03 15:25:27.
