data_PCOD9465811
_publ_section_title
;
Structure prediction by ZEFSAII (Michael W. Deem and Ramdas Pophale) SiO2 
 PCOD9465811
Probable space group: P N M A
;
_chemical_formula_sum "Si O2"
_cell_formula_units_Z 60
_cell_length_a 15.291215
_cell_length_b 9.556811
_cell_length_c 19.448731
_cell_angle_alpha 90.000000
_cell_angle_beta 90.000000
_cell_angle_gamma 90.000000
_cell_volume 2842.145200
_symmetry_space_group_name_H-M "P N M A"
_symmetry_group_IT_number 62
_symmetry_cell_setting 'orthorhombic'
loop_
_space_group_symop_operation_xyz
x,y,z
1/2-x,-y,1/2+z
1/2+x,1/2-y,1/2-z
-x,1/2+y,-z
-x,-y,-z
1/2+x,y,1/2-z
1/2-x,1/2+y,1/2+z
x,1/2-y,z
loop_
_atom_site_type_symbol
_atom_site_label
_atom_site_fract_x
_atom_site_fract_y
_atom_site_fract_z
Si Si1 0.272597 0.090243 0.430823
Si Si2 0.157839 0.580931 0.784232
Si Si3 0.469448 0.585841 0.768302
Si Si4 0.979108 0.750000 0.023057
Si Si5 0.897819 0.479365 0.951107
Si Si6 0.021208 0.408471 0.603396
Si Si7 0.202569 0.416000 0.174857
Si Si8 0.131029 0.908209 0.509834
O O1 0.238723 0.250000 0.424430
O O2 0.300933 0.034331 0.356336
O O3 0.356063 0.091963 0.481023
O O4 0.204367 0.989639 0.467566
O O5 0.165405 0.750000 0.785899
O O6 0.055827 0.550308 0.775845
O O7 0.214179 0.533259 0.718709
O O8 0.476491 0.750000 0.789107
O O9 0.474217 0.487720 0.834422
O O10 0.381423 0.570933 0.725109
O O11 0.935614 0.627646 0.973905
O O12 0.026030 0.873857 0.069801
O O13 0.823769 0.502793 0.893873
O O14 0.047656 0.250000 0.621144
O O15 0.100512 0.503180 0.575534
O O16 0.951994 0.399517 0.541094
O O17 0.213390 0.250000 0.160190
O O18 0.157469 0.750000 0.527742
#
# Coordination Sequence:
#
# PCOD9465811 Si02
#       8
#     8   8   8   4   8   8   8   8
#     4  11  23  40  63  93 125 163 206 269 319 370
#     4   9  21  38  60  89 122 161 216 259 311 386
#     4  10  21  37  63  87 118 166 211 257 313 376
#     4  10  24  40  62  90 124 164 206 260 308 390
#     4  11  23  40  65  93 128 163 213 262 321 385
#     4  10  21  40  60  90 122 160 204 256 314 378
#     4  10  21  39  62  91 123 168 213 265 316 380
#     4  10  22  38  63  88 121 160 206 254 310 377
#
# _framework density 21.110814000000001
#
# number of rings (size 3 to 8) (size 9 to 14) (size 15 to 20)
#    0.000    1.867    1.333    1.600    6.533    2.667 
#    1.200    0.667    1.467    0.000    0.000    0.000 
#    0.000    0.000    0.000    0.000    0.000    0.000 
#
# Total GULP energy -334207.993994 kJ/mol
# GULP energy per Si atom -5570.133233 kJ/mol
# Density = 2.106276 g / cm^3
# Si number density = 21.110814 Si / 1000 Ang^3
#
#
#
# Elastic Constant Matrix: (Units=GPa)
#
#
# Indices 1 2 3 4 5 6 
#
# 1 46.7657 16.2284 4.0657 0.0000 0.0000 0.0000
# 2 16.2284 116.7137 19.0226 0.0000 0.0000 0.0000
# 3 4.0657 19.0226 90.1564 0.0000 0.0000 0.0000
# 4 0.0000 0.0000 0.0000 9.0856 0.0000 0.0000
# 5 0.0000 0.0000 0.0000 0.0000 38.8236 0.0000
# 6 0.0000 0.0000 0.0000 0.0000 0.0000 17.5766
#
#
#
# Elastic Compliance Matrix: (Units=1/GPa)
#
#
# Indices 1 2 3 4 5 6 
#
# 1 0.022479 -0.003066 -0.000367 0.000000 0.000000 0.000000
# 2 -0.003066 0.009291 -0.001822 0.000000 0.000000 0.000000
# 3 -0.000367 -0.001822 0.011493 0.000000 0.000000 0.000000
# 4 0.000000 0.000000 0.000000 0.110064 0.000000 0.000000
# 5 0.000000 0.000000 0.000000 0.000000 0.025758 0.000000
# 6 0.000000 0.000000 0.000000 0.000000 0.000000 0.056894
#
#
# Mechanical properties :
#
#
# Convention : Reuss Voigt Hill
#
# Bulk Modulus (GPa) = 30.53110 36.91880 33.72495
# Shear Modulus (GPa) = 19.42459 27.38510 23.40484
#
# Velocity S-wave (km/s) = 3.03665 3.60558 3.33328
# Velocity P-wave (km/s) = 5.17578 5.90421 5.55195
#
# Compressibility (1/GPa) = 0.03275349
#
# Stress axis : x y z
#
# Youngs Moduli (GPa) = 44.48600 107.62827 87.01060
#
# Poissons Ratio (x) = 0.32997 0.03192
# Poissons Ratio (y) = 0.13638 0.15855
# Poissons Ratio (z) = 0.01632 0.19612
#
# Static dielectric constant tensor:
#      x y z
#    x 1.821400 0.000000 0.000000 
#    y 0.000000 1.727530 0.000000 
#    z 0.000000 0.000000 1.768500 
# 
# From -- ./inp_files/24351.got.cif
#   From: 2010.05.17/outbox.cif.g08.bks.cpg/sg62_13_cif.got.tgz:24351.got - 2010.06.03 15:25:27.
