data_PCOD9465607
_publ_section_title
;
Structure prediction by ZEFSAII (Michael W. Deem and Ramdas Pophale) SiO2 
 PCOD9465607
Probable space group: P N M A
;
_chemical_formula_sum "Si O2"
_cell_formula_units_Z 52
_cell_length_a 5.544389
_cell_length_b 20.197177
_cell_length_c 20.444317
_cell_angle_alpha 90.000000
_cell_angle_beta 90.000000
_cell_angle_gamma 90.000000
_cell_volume 2289.375184
_symmetry_space_group_name_H-M "P N M A"
_symmetry_group_IT_number 62
_symmetry_cell_setting 'orthorhombic'
loop_
_space_group_symop_operation_xyz
x,y,z
1/2-x,-y,1/2+z
1/2+x,1/2-y,1/2-z
-x,1/2+y,-z
-x,-y,-z
1/2+x,y,1/2-z
1/2-x,1/2+y,1/2+z
x,1/2-y,z
loop_
_atom_site_type_symbol
_atom_site_label
_atom_site_fract_x
_atom_site_fract_y
_atom_site_fract_z
Si Si1 0.119447 0.863430 0.612853
Si Si2 0.401388 0.416868 0.764123
Si Si3 0.091552 0.062305 0.214784
Si Si4 0.961735 0.750000 0.709005
Si Si5 0.153492 0.563422 0.414900
Si Si6 0.108824 0.175510 0.988090
Si Si7 0.759131 0.561905 0.525359
O O1 0.340221 0.901439 0.648017
O O2 0.994256 0.813776 0.663032
O O3 0.212077 0.824003 0.549958
O O4 0.938330 0.917290 0.584340
O O5 0.652298 0.380688 0.751343
O O6 0.405042 0.482305 0.717399
O O7 0.393719 0.442370 0.838582
O O8 0.326343 0.080843 0.259345
O O9 0.200198 0.750000 0.756089
O O10 0.258191 0.636114 0.430117
O O11 0.333435 0.508476 0.446513
O O12 0.915918 0.553771 0.459293
O O13 0.031566 0.250000 0.972571
O O14 0.903509 0.125249 0.011812
#
# Coordination Sequence:
#
# PCOD9465607 Si02
#       7
#     8   8   8   4   8   8   8
#     4  11  24  39  62  93 138 181 246 276 343 411
#     4  10  22  37  66  98 135 171 219 279 358 419
#     4  10  21  36  57  92 129 179 218 272 336 397
#     4  12  28  42  62  94 146 200 248 288 336 412
#     4  10  23  43  65 103 133 174 238 291 359 421
#     4  11  25  42  68  96 132 186 231 300 349 418
#     4  10  23  40  69  95 134 182 232 303 348 411
#
# _framework density 22.713619999999999
#
# number of rings (size 3 to 8) (size 9 to 14) (size 15 to 20)
#    0.000    1.538    0.769    3.231   11.846    0.615 
#    0.000    0.000    0.000    0.923    0.000    0.000 
#    0.000    0.000    0.000    0.000    0.000    0.000 
#
# Total GULP energy -290565.743311 kJ/mol
# GULP energy per Si atom -5587.802756 kJ/mol
# Density = 2.266192 g / cm^3
# Si number density = 22.713620 Si / 1000 Ang^3
#
#
#
# Elastic Constant Matrix: (Units=GPa)
#
#
# Indices 1 2 3 4 5 6 
#
# 1 107.2470 14.8743 25.1181 0.0000 0.0000 0.0000
# 2 14.8743 114.2558 11.9187 0.0000 0.0000 0.0000
# 3 25.1181 11.9187 73.1191 0.0000 0.0000 0.0000
# 4 0.0000 0.0000 0.0000 24.4548 0.0000 0.0000
# 5 0.0000 0.0000 0.0000 0.0000 20.0606 0.0000
# 6 0.0000 0.0000 0.0000 0.0000 0.0000 18.2791
#
#
#
# Elastic Compliance Matrix: (Units=1/GPa)
#
#
# Indices 1 2 3 4 5 6 
#
# 1 0.010248 -0.000984 -0.003360 0.000000 0.000000 0.000000
# 2 -0.000984 0.008998 -0.001129 0.000000 0.000000 0.000000
# 3 -0.003360 -0.001129 0.015015 0.000000 0.000000 0.000000
# 4 0.000000 0.000000 0.000000 0.040892 0.000000 0.000000
# 5 0.000000 0.000000 0.000000 0.000000 0.049849 0.000000
# 6 0.000000 0.000000 0.000000 0.000000 0.000000 0.054707
#
#
# Mechanical properties :
#
#
# Convention : Reuss Voigt Hill
#
# Bulk Modulus (GPa) = 42.88995 44.27156 43.58075
# Shear Modulus (GPa) = 25.19847 28.73963 26.96905
#
# Velocity S-wave (km/s) = 3.33438 3.56097 3.44953
# Velocity P-wave (km/s) = 5.80930 6.03663 5.92406
#
# Compressibility (1/GPa) = 0.02331549
#
# Stress axis : x y z
#
# Youngs Moduli (GPa) = 97.58370 111.13463 66.60212
#
# Poissons Ratio (x) = 0.10931 0.22378
# Poissons Ratio (y) = 0.09598 0.07518
# Poissons Ratio (z) = 0.32788 0.12545
#
# Static dielectric constant tensor:
#      x y z
#    x 1.952590 0.000000 0.000000 
#    y 0.000000 1.898190 0.000000 
#    z 0.000000 0.000000 1.828530 
# 
# From -- ./inp_files/25328.got.cif
#   From: 2010.05.17/outbox.cif.g08.bks.cpg/sg62_13_cif.got.tgz:25328.got - 2010.06.03 15:25:27.
