data_PCOD9465354
_publ_section_title
;
Structure prediction by ZEFSAII (Michael W. Deem and Ramdas Pophale) SiO2 
 PCOD9465354
Probable space group: P N M A
;
_chemical_formula_sum "Si O2"
_cell_formula_units_Z 48
_cell_length_a 29.148999
_cell_length_b 14.293144
_cell_length_c 5.062136
_cell_angle_alpha 90.000000
_cell_angle_beta 90.000000
_cell_angle_gamma 90.000000
_cell_volume 2109.041975
_symmetry_space_group_name_H-M "P N M A"
_symmetry_group_IT_number 62
_symmetry_cell_setting 'orthorhombic'
loop_
_space_group_symop_operation_xyz
x,y,z
1/2-x,-y,1/2+z
1/2+x,1/2-y,1/2-z
-x,1/2+y,-z
-x,-y,-z
1/2+x,y,1/2-z
1/2-x,1/2+y,1/2+z
x,1/2-y,z
loop_
_atom_site_type_symbol
_atom_site_label
_atom_site_fract_x
_atom_site_fract_y
_atom_site_fract_z
Si Si1 0.999138 0.357417 0.547096
Si Si2 0.643620 0.546656 0.799568
Si Si3 0.744018 0.936939 0.792304
Si Si4 0.911610 0.927365 0.682827
Si Si5 0.946523 0.074193 0.051457
Si Si6 0.666245 0.148911 0.505303
O O1 0.994054 0.250000 0.465070
O O2 0.974195 0.370673 0.827094
O O3 0.052659 0.383547 0.521913
O O4 0.973147 0.419082 0.326992
O O5 0.691974 0.597520 0.831073
O O6 0.605997 0.600390 0.624433
O O7 0.656737 0.444763 0.674888
O O8 0.617144 0.514153 0.062018
O O9 0.784627 0.867087 0.867708
O O10 0.750413 0.976017 0.496862
O O11 0.874429 0.855910 0.791504
O O12 0.940237 0.971301 0.925537
O O13 0.665275 0.250000 0.641776
#
# Coordination Sequence:
#
# PCOD9465354 Si02
#       6
#     8   8   8   8   8   8
#     4  12  26  41  62  94 133 167 214 276 327 368
#     4  10  22  40  69  91 128 171 221 259 311 393
#     4  10  20  40  63  91 124 169 208 254 314 388
#     4  11  22  41  67  95 125 172 218 263 319 392
#     4  11  24  43  66  92 126 174 221 258 312 392
#     4  10  22  38  62  99 132 162 207 274 331 375
#
# _framework density 22.759146000000001
#
# number of rings (size 3 to 8) (size 9 to 14) (size 15 to 20)
#    0.000    1.333    3.333    2.000    4.667    1.333 
#    0.000    1.667    0.000    0.000    0.000    0.000 
#    0.000    0.000    0.000    0.000    0.000    0.000 
#
# Total GULP energy -268080.931144 kJ/mol
# GULP energy per Si atom -5585.019399 kJ/mol
# Density = 2.270735 g / cm^3
# Si number density = 22.759146 Si / 1000 Ang^3
#
#
#
# Elastic Constant Matrix: (Units=GPa)
#
#
# Indices 1 2 3 4 5 6 
#
# 1 150.2327 22.3594 27.1820 0.0000 0.0000 0.0000
# 2 22.3594 46.1303 10.2779 0.0000 0.0000 0.0000
# 3 27.1820 10.2779 87.6195 0.0000 0.0000 0.0000
# 4 0.0000 0.0000 0.0000 13.8801 0.0000 0.0000
# 5 0.0000 0.0000 0.0000 0.0000 36.5573 0.0000
# 6 0.0000 0.0000 0.0000 0.0000 0.0000 -8.7661
#
#
#
# Elastic Compliance Matrix: (Units=1/GPa)
#
#
# Indices 1 2 3 4 5 6 
#
# 1 0.007484 -0.003194 -0.001947 0.000000 0.000000 0.000000
# 2 -0.003194 0.023622 -0.001780 0.000000 0.000000 0.000000
# 3 -0.001947 -0.001780 0.012226 0.000000 0.000000 0.000000
# 4 0.000000 0.000000 0.000000 0.072046 0.000000 0.000000
# 5 0.000000 0.000000 0.000000 0.000000 0.027354 0.000000
# 6 0.000000 0.000000 0.000000 0.000000 0.000000 -0.114076
#
#
# Mechanical properties :
#
#
# Convention : Reuss Voigt Hill
#
# Bulk Modulus (GPa) = 33.90953 44.84678 39.37816
# Shear Modulus (GPa) = 95.55094 23.27847 59.41471
#
# Velocity S-wave (km/s) = 6.48650 3.20162 5.11493
# Velocity P-wave (km/s) = 8.42800 5.78056 7.22655
#
# Compressibility (1/GPa) = 0.02949023
#
# Stress axis : x y z
#
# Youngs Moduli (GPa) = 133.61924 42.33287 81.79391
#
# Poissons Ratio (x) = 0.13520 0.15926
# Poissons Ratio (y) = 0.42673 0.14561
# Poissons Ratio (z) = 0.26017 0.07536
#
# Static dielectric constant tensor:
#      x y z
#    x 1.917750 0.000000 0.000000 
#    y 0.000000 1.906600 0.000000 
#    z 0.000000 0.000000 1.895140 
# 
# From -- ./inp_files/3194.got.cif
#   From: 2010.05.17/outbox.cif.g08.bks.cpg/sg62_2_cif.got.tgz:3194.got - 2010.06.03 15:25:27.
