data_PCOD9465877
_publ_section_title
;
Structure prediction by ZEFSAII (Michael W. Deem and Ramdas Pophale) SiO2 
 PCOD9465877
Probable space group: P N M A
;
_chemical_formula_sum "Si O2"
_cell_formula_units_Z 40
_cell_length_a 30.216693
_cell_length_b 7.647233
_cell_length_c 7.341036
_cell_angle_alpha 90.000000
_cell_angle_beta 90.000000
_cell_angle_gamma 90.000000
_cell_volume 1696.323227
_symmetry_space_group_name_H-M "P N M A"
_symmetry_group_IT_number 62
_symmetry_cell_setting 'orthorhombic'
loop_
_space_group_symop_operation_xyz
x,y,z
1/2-x,-y,1/2+z
1/2+x,1/2-y,1/2-z
-x,1/2+y,-z
-x,-y,-z
1/2+x,y,1/2-z
1/2-x,1/2+y,1/2+z
x,1/2-y,z
loop_
_atom_site_type_symbol
_atom_site_label
_atom_site_fract_x
_atom_site_fract_y
_atom_site_fract_z
Si Si1 0.047636 0.457685 0.418991
Si Si2 0.213461 0.035227 0.814264
Si Si3 0.690344 0.550102 0.278751
Si Si4 0.622582 0.455267 0.816151
Si Si5 0.101393 0.543235 0.096905
O O1 0.051319 0.250000 0.420151
O O2 0.086006 0.534657 0.550693
O O3 0.057146 0.515384 0.212149
O O4 0.000000 0.500000 0.500000
O O5 0.213977 0.250000 0.818808
O O6 0.263640 0.971175 0.790036
O O7 0.173850 0.980949 0.676875
O O8 0.198229 0.957794 0.004660
O O9 0.688467 0.750000 0.212820
O O10 0.641391 0.469051 0.274159
O O11 0.625766 0.250000 0.855135
O O12 0.605291 0.471027 0.606987
O O13 0.108868 0.750000 0.080172
#
# Coordination Sequence:
#
# PCOD9465877 Si02
#       5
#     8   8   8   8   8
#     4  11  24  41  63  89 114 150 196 245 297 350
#     4   9  18  33  52  78 111 147 187 228 272 331
#     4   9  19  33  51  80 114 148 187 228 278 334
#     4   9  20  39  60  83 114 153 196 237 284 342
#     4  10  21  38  59  86 120 154 190 238 291 346
#
# _framework density 23.580411000000002
#
# number of rings (size 3 to 8) (size 9 to 14) (size 15 to 20)
#    0.000    2.400    0.000    1.200    2.800    4.000 
#    0.000    0.000    0.000    0.000    0.000    0.000 
#    0.000    0.000    0.000    0.000    0.000    0.000 
#
# Total GULP energy -223108.987935 kJ/mol
# GULP energy per Si atom -5577.724698 kJ/mol
# Density = 2.352674 g / cm^3
# Si number density = 23.580411 Si / 1000 Ang^3
#
#
#
# Elastic Constant Matrix: (Units=GPa)
#
#
# Indices 1 2 3 4 5 6 
#
# 1 65.6886 -3.5813 30.7185 0.0000 0.0000 0.0000
# 2 -3.5813 70.1018 -2.1026 0.0000 0.0000 0.0000
# 3 30.7185 -2.1026 56.1739 0.0000 0.0000 0.0000
# 4 0.0000 0.0000 0.0000 19.0926 0.0000 0.0000
# 5 0.0000 0.0000 0.0000 0.0000 40.3900 0.0000
# 6 0.0000 0.0000 0.0000 0.0000 0.0000 7.0330
#
#
#
# Elastic Compliance Matrix: (Units=1/GPa)
#
#
# Indices 1 2 3 4 5 6 
#
# 1 0.020489 0.000711 -0.011178 0.000000 0.000000 0.000000
# 2 0.000711 0.014306 0.000146 0.000000 0.000000 0.000000
# 3 -0.011178 0.000146 0.023920 0.000000 0.000000 0.000000
# 4 0.000000 0.000000 0.000000 0.052376 0.000000 0.000000
# 5 0.000000 0.000000 0.000000 0.000000 0.024759 0.000000
# 6 0.000000 0.000000 0.000000 0.000000 0.000000 0.142186
#
#
# Mechanical properties :
#
#
# Convention : Reuss Voigt Hill
#
# Bulk Modulus (GPa) = 26.26399 26.89261 26.57830
# Shear Modulus (GPa) = 16.05819 24.43178 20.24498
#
# Velocity S-wave (km/s) = 2.61242 3.22235 2.93328
# Velocity P-wave (km/s) = 4.50132 5.02734 4.77158
#
# Compressibility (1/GPa) = 0.03807495
#
# Stress axis : x y z
#
# Youngs Moduli (GPa) = 48.80583 69.90215 41.80613
#
# Poissons Ratio (x) = -0.04973 0.46731
# Poissons Ratio (y) = -0.03472 -0.00612
# Poissons Ratio (z) = 0.54555 -0.01023
#
# Static dielectric constant tensor:
#      x y z
#    x 2.055690 0.000000 0.000000 
#    y 0.000000 1.886600 0.000000 
#    z 0.000000 0.000000 1.912870 
# 
# From -- ./inp_files/9706.got.cif
#   From: 2010.05.17/outbox.cif.g08.bks.cpg/sg62_5_cif.got.tgz:9706.got - 2010.06.03 15:25:27.
