data_PCOD9465484
_publ_section_title
;
Structure prediction by ZEFSAII (Michael W. Deem and Ramdas Pophale) SiO2 
 PCOD9465484
Probable space group: P N M A
;
_chemical_formula_sum "Si O2"
_cell_formula_units_Z 52
_cell_length_a 8.965138
_cell_length_b 12.077479
_cell_length_c 22.976348
_cell_angle_alpha 90.000000
_cell_angle_beta 90.000000
_cell_angle_gamma 90.000000
_cell_volume 2487.793166
_symmetry_space_group_name_H-M "P N M A"
_symmetry_group_IT_number 62
_symmetry_cell_setting 'orthorhombic'
loop_
_space_group_symop_operation_xyz
x,y,z
1/2-x,-y,1/2+z
1/2+x,1/2-y,1/2-z
-x,1/2+y,-z
-x,-y,-z
1/2+x,y,1/2-z
1/2-x,1/2+y,1/2+z
x,1/2-y,z
loop_
_atom_site_type_symbol
_atom_site_label
_atom_site_fract_x
_atom_site_fract_y
_atom_site_fract_z
Si Si1 0.661673 0.618277 0.382100
Si Si2 0.720683 0.002917 0.167324
Si Si3 0.113659 0.750000 0.613096
Si Si4 0.526844 0.006861 0.275202
Si Si5 0.697009 0.250000 0.168367
Si Si6 0.338302 0.619193 0.439287
Si Si7 0.633394 0.250000 0.295634
Si Si8 0.142727 0.530088 0.539074
O O1 0.680055 0.750000 0.376789
O O2 0.630475 0.562597 0.319460
O O3 0.507657 0.597111 0.418443
O O4 0.798534 0.562191 0.416061
O O5 0.576346 0.995638 0.208317
O O6 0.743610 0.129837 0.144751
O O7 0.858112 0.976052 0.210307
O O8 0.732617 0.921648 0.113367
O O9 0.268248 0.750000 0.647111
O O10 0.103057 0.640573 0.574550
O O11 0.981147 0.750000 0.659756
O O12 0.546188 0.135590 0.291978
O O13 0.732215 0.250000 0.236874
O O14 0.323232 0.750000 0.448479
O O15 0.280707 0.557502 0.496273
O O16 0.000000 0.500000 0.500000
#
# Coordination Sequence:
#
# PCOD9465484 Si02
#       8
#     8   8   4   8   4   8   4   8
#     4  10  23  42  64  89 125 163 212 261 317 386
#     4  10  22  37  61  90 127 163 209 259 318 374
#     4  12  24  42  64  96 128 168 212 266 316 386
#     4  10  21  37  61  91 123 166 207 257 316 379
#     4  10  23  36  60  92 130 162 204 258 316 381
#     4  10  22  44  64  89 123 169 212 261 313 385
#     4  10  21  34  60  84 124 162 198 250 314 367
#     4  12  25  42  67  92 127 166 214 268 323 375
#
# _framework density 20.902059999999999
#
# number of rings (size 3 to 8) (size 9 to 14) (size 15 to 20)
#    0.000    1.538    2.308    1.846    9.692    1.846 
#    1.385    0.000    0.000    0.000    0.000    0.000 
#    0.000    0.000    0.000    0.000    0.000    0.000 
#
# Total GULP energy -290540.290612 kJ/mol
# GULP energy per Si atom -5587.313281 kJ/mol
# Density = 2.085449 g / cm^3
# Si number density = 20.902060 Si / 1000 Ang^3
#
#
#
# Elastic Constant Matrix: (Units=GPa)
#
#
# Indices 1 2 3 4 5 6 
#
# 1 35.3357 13.3595 15.0275 0.0000 0.0000 0.0000
# 2 13.3595 89.6481 36.2719 0.0000 0.0000 0.0000
# 3 15.0275 36.2719 62.7222 0.0000 0.0000 0.0000
# 4 0.0000 0.0000 0.0000 32.8281 0.0000 0.0000
# 5 0.0000 0.0000 0.0000 0.0000 37.5595 0.0000
# 6 0.0000 0.0000 0.0000 0.0000 0.0000 5.2367
#
#
#
# Elastic Compliance Matrix: (Units=1/GPa)
#
#
# Indices 1 2 3 4 5 6 
#
# 1 0.031829 -0.002164 -0.006374 0.000000 0.000000 0.000000
# 2 -0.002164 0.014709 -0.007988 0.000000 0.000000 0.000000
# 3 -0.006374 -0.007988 0.022090 0.000000 0.000000 0.000000
# 4 0.000000 0.000000 0.000000 0.030462 0.000000 0.000000
# 5 0.000000 0.000000 0.000000 0.000000 0.026624 0.000000
# 6 0.000000 0.000000 0.000000 0.000000 0.000000 0.190961
#
#
# Mechanical properties :
#
#
# Convention : Reuss Voigt Hill
#
# Bulk Modulus (GPa) = 28.10918 35.22489 31.66703
# Shear Modulus (GPa) = 13.82797 23.32798 18.57798
#
# Velocity S-wave (km/s) = 2.57487 3.34437 2.98453
# Velocity P-wave (km/s) = 4.72411 5.63933 5.20189
#
# Compressibility (1/GPa) = 0.03557557
#
# Stress axis : x y z
#
# Youngs Moduli (GPa) = 31.41779 67.98529 45.26986
#
# Poissons Ratio (x) = 0.14713 0.28857
# Poissons Ratio (y) = 0.06799 0.36160
# Poissons Ratio (z) = 0.20027 0.54304
#
# Static dielectric constant tensor:
#      x y z
#    x 1.768440 0.000000 0.000000 
#    y 0.000000 1.728890 0.000000 
#    z 0.000000 0.000000 1.721840 
# 
# From -- ./inp_files/30840.got.cif
#   From: 2010.05.17/outbox.cif.g08.bks.cpg/sg62_16_cif.got.tgz:30840.got - 2010.06.03 15:25:27.
