data_PCOD9465040
_publ_section_title
;
Structure prediction by ZEFSAII (Michael W. Deem and Ramdas Pophale) SiO2 
 PCOD9465040
Probable space group: P N M A
;
_chemical_formula_sum "Si O2"
_cell_formula_units_Z 56
_cell_length_a 13.545624
_cell_length_b 23.248498
_cell_length_c 8.243014
_cell_angle_alpha 90.000000
_cell_angle_beta 90.000000
_cell_angle_gamma 90.000000
_cell_volume 2595.852154
_symmetry_space_group_name_H-M "P N M A"
_symmetry_group_IT_number 62
_symmetry_cell_setting 'orthorhombic'
loop_
_space_group_symop_operation_xyz
x,y,z
1/2-x,-y,1/2+z
1/2+x,1/2-y,1/2-z
-x,1/2+y,-z
-x,-y,-z
1/2+x,y,1/2-z
1/2-x,1/2+y,1/2+z
x,1/2-y,z
loop_
_atom_site_type_symbol
_atom_site_label
_atom_site_fract_x
_atom_site_fract_y
_atom_site_fract_z
Si Si1 0.373817 0.315124 0.509418
Si Si2 0.033757 0.100986 0.850599
Si Si3 0.853770 0.599706 0.808450
Si Si4 0.822960 0.373859 0.518791
Si Si5 0.923817 0.485936 0.643619
Si Si6 0.191336 0.182604 0.705518
Si Si7 0.011942 0.815575 0.670200
O O1 0.391073 0.250000 0.570500
O O2 0.439912 0.359824 0.606909
O O3 0.259037 0.326733 0.546543
O O4 0.415284 0.316129 0.327240
O O5 0.102735 0.137673 0.728621
O O6 0.993372 0.041882 0.780652
O O7 0.093725 0.091439 0.016110
O O8 0.743739 0.616771 0.858819
O O9 0.867356 0.541995 0.705912
O O10 0.915294 0.649612 0.720538
O O11 0.847197 0.436259 0.592327
O O12 0.763447 0.333361 0.643002
O O13 0.926302 0.345685 0.470313
O O14 0.000000 0.500000 0.500000
O O15 0.162021 0.250000 0.715260
O O16 0.987994 0.750000 0.630349
#
# Coordination Sequence:
#
# PCOD9465040 Si02
#       7
#     8   8   8   8   8   8   8
#     4   9  18  35  58  86 122 161 207 254 309 379
#     4  10  21  39  63  88 126 166 208 258 323 376
#     4  10  24  43  65  96 125 173 213 262 326 380
#     4  11  23  41  65  97 127 170 212 271 322 377
#     4  12  24  43  64  92 129 167 222 265 313 380
#     4  10  20  37  63  96 125 162 213 263 320 379
#     4  10  21  41  65  93 129 168 208 262 325 389
#
# _framework density 21.572876999999998
#
# number of rings (size 3 to 8) (size 9 to 14) (size 15 to 20)
#    0.000    1.714    2.857    1.286    0.000    7.429 
#    5.143    0.000    0.000    0.000    0.000    0.000 
#    0.000    0.000    0.000    0.000    0.000    0.000 
#
# Total GULP energy -313116.023510 kJ/mol
# GULP energy per Si atom -5591.357563 kJ/mol
# Density = 2.152378 g / cm^3
# Si number density = 21.572877 Si / 1000 Ang^3
#
#
#
# Elastic Constant Matrix: (Units=GPa)
#
#
# Indices 1 2 3 4 5 6 
#
# 1 63.7327 30.3755 23.5829 0.0000 0.0000 0.0000
# 2 30.3755 116.9547 28.2018 0.0000 0.0000 0.0000
# 3 23.5829 28.2018 45.0325 0.0000 0.0000 0.0000
# 4 0.0000 0.0000 0.0000 32.3464 0.0000 0.0000
# 5 0.0000 0.0000 0.0000 0.0000 42.2977 0.0000
# 6 0.0000 0.0000 0.0000 0.0000 0.0000 17.6668
#
#
#
# Elastic Compliance Matrix: (Units=1/GPa)
#
#
# Indices 1 2 3 4 5 6 
#
# 1 0.020438 -0.003212 -0.008691 0.000000 0.000000 0.000000
# 2 -0.003212 0.010576 -0.004941 0.000000 0.000000 0.000000
# 3 -0.008691 -0.004941 0.029852 0.000000 0.000000 0.000000
# 4 0.000000 0.000000 0.000000 0.030915 0.000000 0.000000
# 5 0.000000 0.000000 0.000000 0.000000 0.023642 0.000000
# 6 0.000000 0.000000 0.000000 0.000000 0.000000 0.056603
#
#
# Mechanical properties :
#
#
# Convention : Reuss Voigt Hill
#
# Bulk Modulus (GPa) = 36.79643 43.33781 40.06712
# Shear Modulus (GPa) = 23.28028 28.03282 25.65655
#
# Velocity S-wave (km/s) = 3.28860 3.60870 3.45236
# Velocity P-wave (km/s) = 5.61370 6.12342 5.87409
#
# Compressibility (1/GPa) = 0.02717655
#
# Stress axis : x y z
#
# Youngs Moduli (GPa) = 48.92962 94.55298 33.49864
#
# Poissons Ratio (x) = 0.30373 0.29114
# Poissons Ratio (y) = 0.15718 0.16552
# Poissons Ratio (z) = 0.42525 0.46719
#
# Static dielectric constant tensor:
#      x y z
#    x 1.764720 0.000000 0.000000 
#    y 0.000000 1.728050 0.000000 
#    z 0.000000 0.000000 1.813920 
# 
# From -- ./inp_files/6745.got.cif
#   From: 2010.05.17/outbox.cif.g08.bks.cpg/sg62_4_cif.got.tgz:6745.got - 2010.06.03 15:25:27.
