data_PCOD9465970
_publ_section_title
;
Structure prediction by ZEFSAII (Michael W. Deem and Ramdas Pophale) SiO2 
 PCOD9465970
Probable space group: P N M A
;
_chemical_formula_sum "Si O2"
_cell_formula_units_Z 40
_cell_length_a 7.390341
_cell_length_b 14.778417
_cell_length_c 15.767082
_cell_angle_alpha 90.000000
_cell_angle_beta 90.000000
_cell_angle_gamma 90.000000
_cell_volume 1722.041926
_symmetry_space_group_name_H-M "P N M A"
_symmetry_group_IT_number 62
_symmetry_cell_setting 'orthorhombic'
loop_
_space_group_symop_operation_xyz
x,y,z
1/2-x,-y,1/2+z
1/2+x,1/2-y,1/2-z
-x,1/2+y,-z
-x,-y,-z
1/2+x,y,1/2-z
1/2-x,1/2+y,1/2+z
x,1/2-y,z
loop_
_atom_site_type_symbol
_atom_site_label
_atom_site_fract_x
_atom_site_fract_y
_atom_site_fract_z
Si Si1 0.481874 0.393866 0.017452
Si Si2 0.652274 0.045698 0.680811
Si Si3 0.704576 0.648583 0.636133
Si Si4 0.567308 0.147097 0.522289
Si Si5 0.483598 0.852135 0.159580
O O1 0.592181 0.365494 0.100590
O O2 0.270127 0.367374 0.016055
O O3 0.500000 0.500000 0.000000
O O4 0.583868 0.348960 0.936608
O O5 0.530898 0.078999 0.601029
O O6 0.844700 0.082930 0.651251
O O7 0.626542 0.099738 0.767375
O O8 0.653657 0.938324 0.692483
O O9 0.683337 0.750000 0.671360
O O10 0.573959 0.639536 0.553948
O O11 0.563391 0.250000 0.556744
O O12 0.529859 0.750000 0.185788
#
# Coordination Sequence:
#
# PCOD9465970 Si02
#       5
#     8   8   8   8   8
#     4  11  21  39  66  95 126 163 207 265 316 375
#     4  11  23  40  60  92 128 162 209 259 313 384
#     4  11  23  41  66  92 124 170 215 260 315 379
#     4  10  21  38  62  93 126 161 211 264 317 375
#     4  11  23  39  62  91 126 163 204 260 325 374
#
# _framework density 23.228235999999999
#
# number of rings (size 3 to 8) (size 9 to 14) (size 15 to 20)
#    0.000    1.200    4.000    5.400    2.800    0.000 
#    0.000    1.000    0.000    0.000    0.000    0.000 
#    0.000    0.000    0.000    0.000    0.000    0.000 
#
# Total GULP energy -223398.688406 kJ/mol
# GULP energy per Si atom -5584.967210 kJ/mol
# Density = 2.317537 g / cm^3
# Si number density = 23.228236 Si / 1000 Ang^3
#
#
#
# Elastic Constant Matrix: (Units=GPa)
#
#
# Indices 1 2 3 4 5 6 
#
# 1 51.6460 -4.6872 6.7540 0.0000 0.0000 0.0000
# 2 -4.6872 212.0349 11.6663 0.0000 0.0000 0.0000
# 3 6.7540 11.6663 27.5972 0.0000 0.0000 0.0000
# 4 0.0000 0.0000 0.0000 21.2692 0.0000 0.0000
# 5 0.0000 0.0000 0.0000 0.0000 14.6128 0.0000
# 6 0.0000 0.0000 0.0000 0.0000 0.0000 23.8343
#
#
#
# Elastic Compliance Matrix: (Units=1/GPa)
#
#
# Indices 1 2 3 4 5 6 
#
# 1 0.020113 0.000732 -0.005232 0.000000 0.000000 0.000000
# 2 0.000732 0.004855 -0.002232 0.000000 0.000000 0.000000
# 3 -0.005232 -0.002232 0.038459 0.000000 0.000000 0.000000
# 4 0.000000 0.000000 0.000000 0.047016 0.000000 0.000000
# 5 0.000000 0.000000 0.000000 0.000000 0.068433 0.000000
# 6 0.000000 0.000000 0.000000 0.000000 0.000000 0.041956
#
#
# Mechanical properties :
#
#
# Convention : Reuss Voigt Hill
#
# Bulk Modulus (GPa) = 20.01391 35.41606 27.71499
# Shear Modulus (GPa) = 19.92416 30.44626 25.18521
#
# Velocity S-wave (km/s) = 2.93192 3.62435 3.29637
# Velocity P-wave (km/s) = 4.48291 5.72666 5.14252
#
# Compressibility (1/GPa) = 0.04996524
#
# Stress axis : x y z
#
# Youngs Moduli (GPa) = 49.71837 205.96526 26.00142
#
# Poissons Ratio (x) = -0.15087 0.13604
# Poissons Ratio (y) = -0.03642 0.05803
# Poissons Ratio (z) = 0.26013 0.45966
#
# Static dielectric constant tensor:
#      x y z
#    x 1.972680 0.000000 0.000000 
#    y 0.000000 1.798990 0.000000 
#    z 0.000000 0.000000 2.112930 
# 
# From -- ./inp_files/16666.got.cif
#   From: 2010.05.17/outbox.cif.g08.bks.cpg/sg62_9_cif.got.tgz:16666.got - 2010.06.03 15:25:27.
