data_PCOD9465681
_publ_section_title
;
Structure prediction by ZEFSAII (Michael W. Deem and Ramdas Pophale) SiO2 
 PCOD9465681
Probable space group: P N M A
;
_chemical_formula_sum "Si O2"
_cell_formula_units_Z 56
_cell_length_a 5.294471
_cell_length_b 22.354033
_cell_length_c 23.081333
_cell_angle_alpha 90.000000
_cell_angle_beta 90.000000
_cell_angle_gamma 90.000000
_cell_volume 2731.739914
_symmetry_space_group_name_H-M "P N M A"
_symmetry_group_IT_number 62
_symmetry_cell_setting 'orthorhombic'
loop_
_space_group_symop_operation_xyz
x,y,z
1/2-x,-y,1/2+z
1/2+x,1/2-y,1/2-z
-x,1/2+y,-z
-x,-y,-z
1/2+x,y,1/2-z
1/2-x,1/2+y,1/2+z
x,1/2-y,z
loop_
_atom_site_type_symbol
_atom_site_label
_atom_site_fract_x
_atom_site_fract_y
_atom_site_fract_z
Si Si1 0.356574 0.099094 0.036205
Si Si2 0.005787 0.991465 0.398931
Si Si3 0.843825 0.485995 0.269846
Si Si4 0.756059 0.817941 0.478954
Si Si5 0.008171 0.074348 0.936877
Si Si6 0.026216 0.317848 0.103108
Si Si7 0.790237 0.149308 0.222524
O O1 0.492058 0.144043 0.991798
O O2 0.254031 0.137072 0.090203
O O3 0.542660 0.048226 0.059000
O O4 0.123266 0.069023 0.002054
O O5 0.750578 0.959517 0.421679
O O6 0.938187 0.015165 0.335399
O O7 0.255171 0.950458 0.399980
O O8 0.069787 0.516100 0.234124
O O9 0.789579 0.420696 0.241600
O O10 0.803586 0.750000 0.460911
O O11 0.577166 0.855955 0.436417
O O12 0.624502 0.816267 0.542480
O O13 0.110030 0.250000 0.115598
O O14 0.860022 0.341666 0.155952
O O15 0.022116 0.175399 0.259584
#
# Coordination Sequence:
#
# PCOD9465681 Si02
#       7
#     8   8   8   8   8   8   8
#     4  11  22  37  63  87 127 163 209 256 312 371
#     4  12  24  37  63  90 125 163 208 256 315 378
#     4  10  21  37  56  84 116 158 199 247 306 357
#     4  10  23  41  63  90 125 166 208 255 304 372
#     4  11  24  41  59  93 124 160 204 255 314 376
#     4  10  23  38  58  86 120 169 220 262 307 353
#     4  10  22  38  56  78 111 153 215 261 305 342
#
# _framework density 20.499753999999999
#
# number of rings (size 3 to 8) (size 9 to 14) (size 15 to 20)
#    0.000    1.429    1.429    3.857   10.000    1.143 
#    0.000    0.000    0.000    0.000    0.000    0.000 
#    0.000   11.429    0.000    0.000    0.000    0.000 
#
# Total GULP energy -312595.626274 kJ/mol
# GULP energy per Si atom -5582.064755 kJ/mol
# Density = 2.045310 g / cm^3
# Si number density = 20.499754 Si / 1000 Ang^3
#
#
#
# Elastic Constant Matrix: (Units=GPa)
#
#
# Indices 1 2 3 4 5 6 
#
# 1 113.1480 42.4132 5.1557 0.0000 0.0000 0.0000
# 2 42.4132 104.3937 41.0173 0.0000 0.0000 0.0000
# 3 5.1557 41.0173 54.1581 0.0000 0.0000 0.0000
# 4 0.0000 0.0000 0.0000 16.0968 0.0000 0.0000
# 5 0.0000 0.0000 0.0000 0.0000 28.8866 0.0000
# 6 0.0000 0.0000 0.0000 0.0000 0.0000 16.8990
#
#
#
# Elastic Compliance Matrix: (Units=1/GPa)
#
#
# Indices 1 2 3 4 5 6 
#
# 1 0.010818 -0.005681 0.003273 0.000000 0.000000 0.000000
# 2 -0.005681 0.016621 -0.012047 0.000000 0.000000 0.000000
# 3 0.003273 -0.012047 0.027277 0.000000 0.000000 0.000000
# 4 0.000000 0.000000 0.000000 0.062124 0.000000 0.000000
# 5 0.000000 0.000000 0.000000 0.000000 0.034618 0.000000
# 6 0.000000 0.000000 0.000000 0.000000 0.000000 0.059175
#
#
# Mechanical properties :
#
#
# Convention : Reuss Voigt Hill
#
# Bulk Modulus (GPa) = 38.75191 49.87468 44.31330
# Shear Modulus (GPa) = 20.14939 24.58403 22.36671
#
# Velocity S-wave (km/s) = 3.13854 3.46675 3.30672
# Velocity P-wave (km/s) = 5.66379 6.35663 6.02019
#
# Compressibility (1/GPa) = 0.02580518
#
# Stress axis : x y z
#
# Youngs Moduli (GPa) = 92.43446 60.16571 36.66105
#
# Poissons Ratio (x) = 0.34182 -0.11999
# Poissons Ratio (y) = 0.52515 0.44166
# Poissons Ratio (z) = -0.30253 0.72482
#
# Static dielectric constant tensor:
#      x y z
#    x 1.846540 0.000000 0.000000 
#    y 0.000000 1.798030 0.000000 
#    z 0.000000 0.000000 1.740090 
# 
# From -- ./inp_files/28377.got.cif
#   From: 2010.05.17/outbox.cif.g08.bks.cpg/sg62_15_cif.got.tgz:28377.got - 2010.06.03 15:25:27.
