data_PCOD9465948
_publ_section_title
;
Structure prediction by ZEFSAII (Michael W. Deem and Ramdas Pophale) SiO2 
 PCOD9465948
Probable space group: P N M A
;
_chemical_formula_sum "Si O2"
_cell_formula_units_Z 52
_cell_length_a 8.543323
_cell_length_b 18.650390
_cell_length_c 15.492595
_cell_angle_alpha 90.000000
_cell_angle_beta 90.000000
_cell_angle_gamma 90.000000
_cell_volume 2468.532855
_symmetry_space_group_name_H-M "P N M A"
_symmetry_group_IT_number 62
_symmetry_cell_setting 'orthorhombic'
loop_
_space_group_symop_operation_xyz
x,y,z
1/2-x,-y,1/2+z
1/2+x,1/2-y,1/2-z
-x,1/2+y,-z
-x,-y,-z
1/2+x,y,1/2-z
1/2-x,1/2+y,1/2+z
x,1/2-y,z
loop_
_atom_site_type_symbol
_atom_site_label
_atom_site_fract_x
_atom_site_fract_y
_atom_site_fract_z
Si Si1 0.403923 0.750000 0.271231
Si Si2 0.958452 0.409486 0.775846
Si Si3 0.841820 0.750000 0.425353
Si Si4 0.317448 0.108178 0.051516
Si Si5 0.722040 0.750000 0.042447
Si Si6 0.161032 0.475092 0.647608
Si Si7 0.673668 0.110767 0.026715
Si Si8 0.636087 0.489431 0.571626
O O1 0.499495 0.674428 0.268069
O O2 0.314820 0.750000 0.177670
O O3 0.309221 0.750000 0.363607
O O4 0.998336 0.458044 0.693014
O O5 0.059305 0.446673 0.850947
O O6 0.780937 0.425180 0.800518
O O7 0.774475 0.817686 0.477444
O O8 0.033514 0.750000 0.435983
O O9 0.278431 0.056256 0.132993
O O10 0.243466 0.182581 0.020121
O O11 0.501873 0.121834 0.064580
O O12 0.269716 0.060635 0.968745
O O13 0.149987 0.442951 0.552968
O O14 0.792752 0.068422 0.088161
O O15 0.500000 0.500000 0.500000
#
# Coordination Sequence:
#
# PCOD9465948 Si02
#       8
#     4   8   4   8   4   8   8   8
#     4  12  24  34  56  93 134 158 187 238 319 363
#     4  12  26  36  60  88 127 161 198 251 304 364
#     4  10  22  38  54  90 130 156 198 237 307 379
#     4  10  21  40  62  85 116 158 213 240 301 357
#     4  10  22  38  64  87 118 166 193 257 300 364
#     4  11  24  39  58  87 119 163 203 249 295 361
#     4  10  21  38  62  82 122 164 199 248 293 361
#     4  11  20  38  56  84 117 155 212 244 283 358
#
# _framework density 21.065144
#
# number of rings (size 3 to 8) (size 9 to 14) (size 15 to 20)
#    0.000    1.231    6.154    1.846    6.462    0.615 
#    0.000    0.769    0.000    1.846    0.000    0.000 
#    0.000    0.000    0.000    0.000    0.000    0.000 
#
# Total GULP energy -289762.099267 kJ/mol
# GULP energy per Si atom -5572.348063 kJ/mol
# Density = 2.101720 g / cm^3
# Si number density = 21.065144 Si / 1000 Ang^3
#
#
#
# Elastic Constant Matrix: (Units=GPa)
#
#
# Indices 1 2 3 4 5 6 
#
# 1 36.5269 14.0423 3.7248 0.0000 0.0000 0.0000
# 2 14.0423 166.7312 46.2039 0.0000 0.0000 0.0000
# 3 3.7248 46.2039 41.5565 0.0000 0.0000 0.0000
# 4 0.0000 0.0000 0.0000 31.1148 0.0000 0.0000
# 5 0.0000 0.0000 0.0000 0.0000 26.0376 0.0000
# 6 0.0000 0.0000 0.0000 0.0000 0.0000 25.1117
#
#
#
# Elastic Compliance Matrix: (Units=1/GPa)
#
#
# Indices 1 2 3 4 5 6 
#
# 1 0.028294 -0.002428 0.000164 0.000000 0.000000 0.000000
# 2 -0.002428 0.008877 -0.009652 0.000000 0.000000 0.000000
# 3 0.000164 -0.009652 0.034780 0.000000 0.000000 0.000000
# 4 0.000000 0.000000 0.000000 0.032139 0.000000 0.000000
# 5 0.000000 0.000000 0.000000 0.000000 0.038406 0.000000
# 6 0.000000 0.000000 0.000000 0.000000 0.000000 0.039822
#
#
# Mechanical properties :
#
#
# Convention : Reuss Voigt Hill
#
# Bulk Modulus (GPa) = 20.78213 41.41739 31.09976
# Shear Modulus (GPa) = 22.50319 28.50905 25.50612
#
# Velocity S-wave (km/s) = 3.27198 3.68282 3.48346
# Velocity P-wave (km/s) = 4.91544 6.14723 5.56552
#
# Compressibility (1/GPa) = 0.04811826
#
# Stress axis : x y z
#
# Youngs Moduli (GPa) = 35.34326 112.65168 28.75188
#
# Poissons Ratio (x) = 0.27356 -0.00471
# Poissons Ratio (y) = 0.08583 0.27751
# Poissons Ratio (z) = -0.00579 1.08731
#
# Static dielectric constant tensor:
#      x y z
#    x 1.921280 0.000000 0.000000 
#    y 0.000000 1.919080 0.000000 
#    z 0.000000 0.000000 1.775670 
# 
# From -- ./inp_files/22420.got.cif
#   From: 2010.05.17/outbox.cif.g08.bks.cpg/sg62_12_cif.got.tgz:22420.got - 2010.06.03 15:25:27.
