data_PCOD9465108
_publ_section_title
;
Structure prediction by ZEFSAII (Michael W. Deem and Ramdas Pophale) SiO2 
 PCOD9465108
Probable space group: P N M A
;
_chemical_formula_sum "Si O2"
_cell_formula_units_Z 32
_cell_length_a 15.600684
_cell_length_b 8.802790
_cell_length_c 13.254008
_cell_angle_alpha 90.000000
_cell_angle_beta 90.000000
_cell_angle_gamma 90.000000
_cell_volume 1820.166890
_symmetry_space_group_name_H-M "P N M A"
_symmetry_group_IT_number 62
_symmetry_cell_setting 'orthorhombic'
loop_
_space_group_symop_operation_xyz
x,y,z
1/2-x,-y,1/2+z
1/2+x,1/2-y,1/2-z
-x,1/2+y,-z
-x,-y,-z
1/2+x,y,1/2-z
1/2-x,1/2+y,1/2+z
x,1/2-y,z
loop_
_atom_site_type_symbol
_atom_site_label
_atom_site_fract_x
_atom_site_fract_y
_atom_site_fract_z
Si Si1 0.907139 0.931017 0.521823
Si Si2 0.853123 0.071773 0.732264
Si Si3 0.247394 0.568901 0.601326
Si Si4 0.919481 0.428245 0.944397
O O1 0.909092 0.750000 0.513675
O O2 0.878492 0.982153 0.633392
O O3 0.837981 0.999747 0.444730
O O4 0.000000 0.000000 0.500000
O O5 0.840740 0.250000 0.710066
O O6 0.924190 0.059295 0.821931
O O7 0.770747 0.001392 0.789301
O O8 0.244098 0.750000 0.605238
O O9 0.329689 0.514290 0.534755
O O10 0.911089 0.250000 0.968554
O O11 0.000000 0.500000 0.000000
#
# Coordination Sequence:
#
# PCOD9465108 Si02
#       4
#     8   8   8   8
#     4  12  24  41  63  89 123 162 203 251 305 364
#     4   9  20  39  59  85 119 153 197 247 295 354
#     4  10  20  38  61  87 120 158 199 246 298 356
#     4   9  18  34  58  86 120 154 196 246 297 354
#
# _framework density 17.580804000000001
#
# number of rings (size 3 to 8) (size 9 to 14) (size 15 to 20)
#    1.500    0.500    0.000    5.250    0.000    0.000 
#    4.500    0.000    0.000    0.000    0.000    0.000 
#    0.000    0.000    0.000    0.000    0.000    0.000 
#
# Total GULP energy -178229.005574 kJ/mol
# GULP energy per Si atom -5569.656424 kJ/mol
# Density = 1.754079 g / cm^3
# Si number density = 17.580804 Si / 1000 Ang^3
#
#
#
# Elastic Constant Matrix: (Units=GPa)
#
#
# Indices 1 2 3 4 5 6 
#
# 1 133.1664 58.0432 51.7852 0.0000 0.0000 0.0000
# 2 58.0432 158.4742 39.8033 0.0000 0.0000 0.0000
# 3 51.7852 39.8033 74.2599 0.0000 0.0000 0.0000
# 4 0.0000 0.0000 0.0000 32.5500 0.0000 0.0000
# 5 0.0000 0.0000 0.0000 0.0000 24.9070 0.0000
# 6 0.0000 0.0000 0.0000 0.0000 0.0000 33.7630
#
#
#
# Elastic Compliance Matrix: (Units=1/GPa)
#
#
# Indices 1 2 3 4 5 6 
#
# 1 0.011066 -0.002444 -0.006407 0.000000 0.000000 0.000000
# 2 -0.002444 0.007832 -0.002493 0.000000 0.000000 0.000000
# 3 -0.006407 -0.002493 0.019271 0.000000 0.000000 0.000000
# 4 0.000000 0.000000 0.000000 0.030722 0.000000 0.000000
# 5 0.000000 0.000000 0.000000 0.000000 0.040149 0.000000
# 6 0.000000 0.000000 0.000000 0.000000 0.000000 0.029618
#
#
# Mechanical properties :
#
#
# Convention : Reuss Voigt Hill
#
# Bulk Modulus (GPa) = 64.60132 73.90710 69.25421
# Shear Modulus (GPa) = 30.02881 32.66192 31.34536
#
# Velocity S-wave (km/s) = 4.13733 4.31492 4.22706
# Velocity P-wave (km/s) = 7.72325 8.18257 7.95622
#
# Compressibility (1/GPa) = 0.01547956
#
# Stress axis : x y z
#
# Youngs Moduli (GPa) = 90.36543 127.68859 51.89221
#
# Poissons Ratio (x) = 0.31206 0.33248
# Poissons Ratio (y) = 0.22084 0.12939
# Poissons Ratio (z) = 0.57898 0.31839
#
# Static dielectric constant tensor:
#      x y z
#    x 1.577270 0.000000 0.000000 
#    y 0.000000 1.578190 0.000000 
#    z 0.000000 0.000000 1.602740 
# 
# From -- ./inp_files/12763.got.cif
#   From: 2010.05.17/outbox.cif.g08.bks.cpg/sg62_7_cif.got.tgz:12763.got - 2010.06.03 15:25:27.
