data_PCOD9465778
_publ_section_title
;
Structure prediction by ZEFSAII (Michael W. Deem and Ramdas Pophale) SiO2 
 PCOD9465778
Probable space group: P N M A
;
_chemical_formula_sum "Si O2"
_cell_formula_units_Z 40
_cell_length_a 15.738557
_cell_length_b 8.536538
_cell_length_c 15.782986
_cell_angle_alpha 90.000000
_cell_angle_beta 90.000000
_cell_angle_gamma 90.000000
_cell_volume 2120.488202
_symmetry_space_group_name_H-M "P N M A"
_symmetry_group_IT_number 62
_symmetry_cell_setting 'orthorhombic'
loop_
_space_group_symop_operation_xyz
x,y,z
1/2-x,-y,1/2+z
1/2+x,1/2-y,1/2-z
-x,1/2+y,-z
-x,-y,-z
1/2+x,y,1/2-z
1/2-x,1/2+y,1/2+z
x,1/2-y,z
loop_
_atom_site_type_symbol
_atom_site_label
_atom_site_fract_x
_atom_site_fract_y
_atom_site_fract_z
Si Si1 0.241331 0.560344 0.974830
Si Si2 0.481543 0.561865 0.745380
Si Si3 0.567766 0.061457 0.065878
Si Si4 0.688378 0.560562 0.335795
Si Si5 0.167617 0.062208 0.801011
O O1 0.237647 0.750000 0.971670
O O2 0.338268 0.509409 0.959530
O O3 0.189118 0.495269 0.895495
O O4 0.212694 0.511731 0.068743
O O5 0.483362 0.750000 0.742341
O O6 0.456650 0.509514 0.840119
O O7 0.404727 0.501624 0.687228
O O8 0.574579 0.498715 0.723638
O O9 0.567341 0.250000 0.064931
O O10 0.500000 0.000000 0.000000
O O11 0.687193 0.750000 0.333486
O O12 0.759242 0.508612 0.266206
O O13 0.167299 0.250000 0.799001
#
# Coordination Sequence:
#
# PCOD9465778 Si02
#       5
#     8   8   8   8   8
#     4  10  21  40  62  87 122 161 202 252 306 362
#     4  11  23  39  62  89 122 163 203 250 305 364
#     4  10  21  37  60  90 122 157 200 252 305 360
#     4  10  22  40  63  89 122 162 203 254 308 360
#     4  11  23  40  63  91 123 161 205 254 307 364
#
# _framework density 18.863579999999999
#
# number of rings (size 3 to 8) (size 9 to 14) (size 15 to 20)
#    0.000    1.600    2.000    2.400    0.000    6.400 
#    0.000    0.000    0.000    0.000    0.000    0.000 
#    0.000    0.000    0.000    0.000    0.000    0.000 
#
# Total GULP energy -223478.002334 kJ/mol
# GULP energy per Si atom -5586.950058 kJ/mol
# Density = 1.882065 g / cm^3
# Si number density = 18.863580 Si / 1000 Ang^3
#
#
#
# Elastic Constant Matrix: (Units=GPa)
#
#
# Indices 1 2 3 4 5 6 
#
# 1 265.9355 35.9600 164.6068 0.0000 0.0000 0.0000
# 2 35.9600 17.6348 37.8088 0.0000 0.0000 0.0000
# 3 164.6068 37.8088 229.7581 0.0000 0.0000 0.0000
# 4 0.0000 0.0000 0.0000 27.1464 0.0000 0.0000
# 5 0.0000 0.0000 0.0000 0.0000 45.7578 0.0000
# 6 0.0000 0.0000 0.0000 0.0000 0.0000 12.5951
#
#
#
# Elastic Compliance Matrix: (Units=1/GPa)
#
#
# Indices 1 2 3 4 5 6 
#
# 1 0.007087 -0.005509 -0.004171 0.000000 0.000000 0.000000
# 2 -0.005509 0.091902 -0.011176 0.000000 0.000000 0.000000
# 3 -0.004171 -0.011176 0.009180 0.000000 0.000000 0.000000
# 4 0.000000 0.000000 0.000000 0.036837 0.000000 0.000000
# 5 0.000000 0.000000 0.000000 0.000000 0.021854 0.000000
# 6 0.000000 0.000000 0.000000 0.000000 0.000000 0.079396
#
#
# Mechanical properties :
#
#
# Convention : Reuss Voigt Hill
#
# Bulk Modulus (GPa) = 15.04748 110.00886 62.52817
# Shear Modulus (GPa) = 16.12275 35.43004 25.77639
#
# Velocity S-wave (km/s) = 2.92670 4.33855 3.70058
# Velocity P-wave (km/s) = 4.40626 9.14014 7.17486
#
# Compressibility (1/GPa) = 0.06645629
#
# Stress axis : x y z
#
# Youngs Moduli (GPa) = 141.10785 10.88110 108.93772
#
# Poissons Ratio (x) = 0.05995 0.45434
# Poissons Ratio (y) = 0.77740 1.21753
# Poissons Ratio (z) = 0.58851 0.12161
#
# Static dielectric constant tensor:
#      x y z
#    x 1.625260 0.000000 0.000000 
#    y 0.000000 1.650360 0.000000 
#    z 0.000000 0.000000 1.645470 
# 
# From -- ./inp_files/18598.got.cif
#   From: 2010.05.17/outbox.cif.g08.bks.cpg/sg62_10_cif.got.tgz:18598.got - 2010.06.03 15:25:27.
