data_PCOD9465955
_publ_section_title
;
Structure prediction by ZEFSAII (Michael W. Deem and Ramdas Pophale) SiO2 
 PCOD9465955
Probable space group: P N M A
;
_chemical_formula_sum "Si O2"
_cell_formula_units_Z 64
_cell_length_a 13.602149
_cell_length_b 14.789240
_cell_length_c 13.434953
_cell_angle_alpha 90.000000
_cell_angle_beta 90.000000
_cell_angle_gamma 90.000000
_cell_volume 2702.648313
_symmetry_space_group_name_H-M "P N M A"
_symmetry_group_IT_number 62
_symmetry_cell_setting 'orthorhombic'
loop_
_space_group_symop_operation_xyz
x,y,z
1/2-x,-y,1/2+z
1/2+x,1/2-y,1/2-z
-x,1/2+y,-z
-x,-y,-z
1/2+x,y,1/2-z
1/2-x,1/2+y,1/2+z
x,1/2-y,z
loop_
_atom_site_type_symbol
_atom_site_label
_atom_site_fract_x
_atom_site_fract_y
_atom_site_fract_z
Si Si1 0.836701 0.852510 0.697850
Si Si2 0.993680 0.145024 0.633822
Si Si3 0.104656 0.150978 0.994807
Si Si4 0.209205 0.146929 0.531468
Si Si5 0.523506 0.653469 0.694591
Si Si6 0.579121 0.042148 0.691910
Si Si7 0.733364 0.001817 0.826279
Si Si8 0.336977 0.144810 0.036229
O O1 0.807245 0.750000 0.730993
O O2 0.799594 0.866892 0.586445
O O3 0.954835 0.851016 0.707974
O O4 0.586293 0.934795 0.685777
O O5 0.982861 0.250000 0.665207
O O6 0.097722 0.138985 0.574767
O O7 0.000117 0.080228 0.729536
O O8 0.906719 0.123769 0.556977
O O9 0.087585 0.250000 0.949771
O O10 0.065091 0.080136 0.916609
O O11 0.221388 0.140650 0.008770
O O12 0.050375 0.149805 0.100300
O O13 0.243370 0.250000 0.549465
O O14 0.270857 0.069813 0.588265
O O15 0.575745 0.750000 0.691195
O O16 0.302646 0.567575 0.730439
O O17 0.682846 0.066132 0.743704
O O18 0.655876 0.934561 0.882331
O O19 0.357148 0.250000 0.066516
#
# Coordination Sequence:
#
# PCOD9465955 Si02
#       8
#     8   8   8   8   8   8   8   8
#     4  10  21  39  61  87 121 164 204 250 305 368
#     4   9  20  39  62  92 124 156 200 254 309 364
#     4  10  21  42  64  84 119 163 203 245 299 361
#     4   9  21  39  60  87 126 165 198 250 315 365
#     4  10  22  39  60  87 119 159 205 250 300 358
#     4  11  24  36  61  92 120 162 199 251 300 364
#     4  11  23  35  62  91 123 155 207 249 303 363
#     4  10  21  38  62  89 122 154 196 254 301 352
#
# _framework density 23.680478000000001
#
# number of rings (size 3 to 8) (size 9 to 14) (size 15 to 20)
#    0.000    2.000    1.250    1.125    5.250    2.500 
#    0.000    0.000    0.000    1.500    0.000    0.000 
#    0.000    0.000    0.000    0.000    0.000    0.000 
#
# Total GULP energy -357659.243641 kJ/mol
# GULP energy per Si atom -5588.425682 kJ/mol
# Density = 2.362658 g / cm^3
# Si number density = 23.680478 Si / 1000 Ang^3
#
#
#
# Elastic Constant Matrix: (Units=GPa)
#
#
# Indices 1 2 3 4 5 6 
#
# 1 30.7221 6.6047 10.8368 0.0000 0.0000 0.0000
# 2 6.6047 129.2476 61.4886 0.0000 0.0000 0.0000
# 3 10.8368 61.4886 94.8591 0.0000 0.0000 0.0000
# 4 0.0000 0.0000 0.0000 39.2016 0.0000 0.0000
# 5 0.0000 0.0000 0.0000 0.0000 19.7522 0.0000
# 6 0.0000 0.0000 0.0000 0.0000 0.0000 26.4602
#
#
#
# Elastic Compliance Matrix: (Units=1/GPa)
#
#
# Indices 1 2 3 4 5 6 
#
# 1 0.033919 0.000159 -0.003978 0.000000 0.000000 0.000000
# 2 0.000159 0.011188 -0.007270 0.000000 0.000000 0.000000
# 3 -0.003978 -0.007270 0.015709 0.000000 0.000000 0.000000
# 4 0.000000 0.000000 0.000000 0.025509 0.000000 0.000000
# 5 0.000000 0.000000 0.000000 0.000000 0.050627 0.000000
# 6 0.000000 0.000000 0.000000 0.000000 0.000000 0.037793
#
#
# Mechanical properties :
#
#
# Convention : Reuss Voigt Hill
#
# Bulk Modulus (GPa) = 25.88161 45.85434 35.86797
# Shear Modulus (GPa) = 23.83202 28.80939 26.32070
#
# Velocity S-wave (km/s) = 3.17582 3.49175 3.33752
# Velocity P-wave (km/s) = 4.93974 5.97178 5.48011
#
# Compressibility (1/GPa) = 0.03863747
#
# Stress axis : x y z
#
# Youngs Moduli (GPa) = 29.48211 89.38405 63.65766
#
# Poissons Ratio (x) = -0.01424 0.25324
# Poissons Ratio (y) = -0.00470 0.46280
# Poissons Ratio (z) = 0.11729 0.64984
#
# Static dielectric constant tensor:
#      x y z
#    x 1.924140 0.000000 0.000000 
#    y 0.000000 1.927870 0.000000 
#    z 0.000000 0.000000 1.897620 
# 
# From -- ./inp_files/19983.got.cif
#   From: 2010.05.17/outbox.cif.g08.bks.cpg/sg62_10_cif.got.tgz:19983.got - 2010.06.03 15:25:27.
