data_PCOD9465561
_publ_section_title
;
Structure prediction by ZEFSAII (Michael W. Deem and Ramdas Pophale) SiO2 
 PCOD9465561
Probable space group: P N M A
;
_chemical_formula_sum "Si O2"
_cell_formula_units_Z 40
_cell_length_a 9.375165
_cell_length_b 27.400076
_cell_length_c 5.636333
_cell_angle_alpha 90.000000
_cell_angle_beta 90.000000
_cell_angle_gamma 90.000000
_cell_volume 1447.862537
_symmetry_space_group_name_H-M "P N M A"
_symmetry_group_IT_number 62
_symmetry_cell_setting 'orthorhombic'
loop_
_space_group_symop_operation_xyz
x,y,z
1/2-x,-y,1/2+z
1/2+x,1/2-y,1/2-z
-x,1/2+y,-z
-x,-y,-z
1/2+x,y,1/2-z
1/2-x,1/2+y,1/2+z
x,1/2-y,z
loop_
_atom_site_type_symbol
_atom_site_label
_atom_site_fract_x
_atom_site_fract_y
_atom_site_fract_z
Si Si1 0.938999 0.649103 0.784567
Si Si2 0.434120 0.047222 0.725374
Si Si3 0.318259 0.551591 0.957655
Si Si4 0.675149 0.646981 0.045668
Si Si5 0.303979 0.750000 0.792908
Si Si6 0.846662 0.250000 0.719602
O O1 0.875813 0.600706 0.660860
O O2 0.847290 0.649123 0.027882
O O3 0.892742 0.700969 0.675754
O O4 0.106080 0.649304 0.719988
O O5 0.600794 0.048658 0.786068
O O6 0.353416 0.050665 0.474296
O O7 0.372422 0.095757 0.848799
O O8 0.374785 0.996189 0.824947
O O9 0.609078 0.692820 0.188790
O O10 0.191949 0.750000 0.004029
O O11 0.250884 0.750000 0.521388
#
# Coordination Sequence:
#
# PCOD9465561 Si02
#       6
#     8   8   8   8   4   4
#     4  10  21  38  60  89 122 160 206 258 316 380
#     4  10  21  36  55  81 114 153 201 255 314 380
#     4  10  21  36  55  81 114 153 201 255 314 380
#     4  10  21  38  60  89 122 160 206 258 316 380
#     4  10  21  40  64  92 126 166 210 260 316 376
#     4  10  21  40  64  92 126 166 210 260 316 376
#
# _framework density 27.626932
#
# number of rings (size 3 to 8) (size 9 to 14) (size 15 to 20)
#    0.000    2.000    0.000    3.000    0.000    2.400 
#    0.000   20.000    0.000    0.000    0.000    0.000 
#    0.000    0.000    0.000    0.000    0.000    0.000 
#
# Total GULP energy -223127.691462 kJ/mol
# GULP energy per Si atom -5578.192287 kJ/mol
# Density = 2.756405 g / cm^3
# Si number density = 27.626932 Si / 1000 Ang^3
#
#
#
# Elastic Constant Matrix: (Units=GPa)
#
#
# Indices 1 2 3 4 5 6 
#
# 1 94.0467 37.7697 21.0616 0.0000 0.0000 0.0000
# 2 37.7697 264.3230 50.2456 0.0000 0.0000 0.0000
# 3 21.0616 50.2456 36.9536 0.0000 0.0000 0.0000
# 4 0.0000 0.0000 0.0000 44.2454 0.0000 0.0000
# 5 0.0000 0.0000 0.0000 0.0000 32.7593 0.0000
# 6 0.0000 0.0000 0.0000 0.0000 0.0000 -689.4911
#
#
#
# Elastic Compliance Matrix: (Units=1/GPa)
#
#
# Indices 1 2 3 4 5 6 
#
# 1 0.012252 -0.000571 -0.006207 0.000000 0.000000 0.000000
# 2 -0.000571 0.005129 -0.006648 0.000000 0.000000 0.000000
# 3 -0.006207 -0.006648 0.039638 0.000000 0.000000 0.000000
# 4 0.000000 0.000000 0.000000 0.022601 0.000000 0.000000
# 5 0.000000 0.000000 0.000000 0.000000 0.030526 0.000000
# 6 0.000000 0.000000 0.000000 0.000000 0.000000 -0.001450
#
#
# Mechanical properties :
#
#
# Convention : Reuss Voigt Hill
#
# Bulk Modulus (GPa) = 33.14864 68.16413 50.65638
# Shear Modulus (GPa) = 34.34012 -103.41419 -34.53704
#
# Velocity S-wave (km/s) = 3.52944 -6.12484 -3.53954
# Velocity P-wave (km/s) = 5.35107 5.02907 1.29275
#
# Compressibility (1/GPa) = 0.03016715
#
# Stress axis : x y z
#
# Youngs Moduli (GPa) = 81.61716 194.98762 25.22848
#
# Poissons Ratio (x) = 0.11131 0.15659
# Poissons Ratio (y) = 0.04659 0.16772
# Poissons Ratio (z) = 0.50660 1.29625
#
# Static dielectric constant tensor:
#      x y z
#    x 2.161120 0.000000 0.000000 
#    y 0.000000 2.124960 0.000000 
#    z 0.000000 0.000000 2.253230 
# 
# From -- ./inp_files/639.got.cif
#   From: 2010.05.17/outbox.cif.g08.bks.cpg/sg62_1_cif.got.tgz:639.got - 2010.06.03 15:25:27.
