data_PCOD9465678
_publ_section_title
;
Structure prediction by ZEFSAII (Michael W. Deem and Ramdas Pophale) SiO2 
 PCOD9465678
Probable space group: P N M A
;
_chemical_formula_sum "Si O2"
_cell_formula_units_Z 64
_cell_length_a 33.222906
_cell_length_b 9.673471
_cell_length_c 10.442512
_cell_angle_alpha 90.000000
_cell_angle_beta 90.000000
_cell_angle_gamma 90.000000
_cell_volume 3356.023046
_symmetry_space_group_name_H-M "P N M A"
_symmetry_group_IT_number 62
_symmetry_cell_setting 'orthorhombic'
loop_
_space_group_symop_operation_xyz
x,y,z
1/2-x,-y,1/2+z
1/2+x,1/2-y,1/2-z
-x,1/2+y,-z
-x,-y,-z
1/2+x,y,1/2-z
1/2-x,1/2+y,1/2+z
x,1/2-y,z
loop_
_atom_site_type_symbol
_atom_site_label
_atom_site_fract_x
_atom_site_fract_y
_atom_site_fract_z
Si Si1 0.299785 0.591403 0.898960
Si Si2 0.876197 0.412562 0.520702
Si Si3 0.842525 0.087588 0.237586
Si Si4 0.530231 0.916761 0.093559
Si Si5 0.615014 0.589420 0.476119
Si Si6 0.326791 0.894441 0.629141
Si Si7 0.775098 0.593105 0.126355
Si Si8 0.976025 0.413752 0.894528
O O1 0.297911 0.750000 0.948888
O O2 0.342416 0.517293 0.925534
O O3 0.296621 0.599485 0.745382
O O4 0.262923 0.490962 0.928852
O O5 0.868868 0.250000 0.556529
O O6 0.867639 0.423399 0.368118
O O7 0.922423 0.445041 0.559848
O O8 0.830874 0.250000 0.223097
O O9 0.871407 0.046254 0.118709
O O10 0.802378 0.993189 0.227745
O O11 0.524964 0.750000 0.078125
O O12 0.521080 0.950965 0.243385
O O13 0.500000 0.000000 0.000000
O O14 0.622756 0.750000 0.470772
O O15 0.642795 0.518340 0.372216
O O16 0.569678 0.564874 0.438788
O O17 0.350075 0.750000 0.641159
O O18 0.303787 0.895363 0.496458
O O19 0.764944 0.750000 0.169601
O O20 0.985652 0.250000 0.904241
O O21 0.000000 0.500000 0.000000
#
# Coordination Sequence:
#
# PCOD9465678 Si02
#       8
#     8   8   8   8   8   8   8   8
#     4  11  23  37  56  83 115 151 195 242 292 355
#     4  10  22  40  62  87 119 159 202 250 309 368
#     4   9  19  36  59  86 116 152 194 243 298 356
#     4  10  23  42  64  93 128 167 211 261 317 381
#     4   9  18  35  60  85 110 143 191 242 289 350
#     4   9  20  37  55  76 107 144 183 232 288 342
#     4  10  21  37  56  82 114 152 192 237 292 350
#     4  10  22  38  60  92 124 156 203 252 302 369
#
# _framework density 19.070191000000001
#
# number of rings (size 3 to 8) (size 9 to 14) (size 15 to 20)
#    0.000    2.250    0.000    1.500    3.500    4.500 
#    0.000    0.000    0.000    0.000    0.000    0.000 
#    0.000    0.000    0.000    0.000    0.000    0.000 
#
# Total GULP energy -356392.714548 kJ/mol
# GULP energy per Si atom -5568.636165 kJ/mol
# Density = 1.902679 g / cm^3
# Si number density = 19.070191 Si / 1000 Ang^3
#
#
#
# Elastic Constant Matrix: (Units=GPa)
#
#
# Indices 1 2 3 4 5 6 
#
# 1 127.6645 44.0823 29.6250 0.0000 0.0000 0.0000
# 2 44.0823 113.5480 54.0560 0.0000 0.0000 0.0000
# 3 29.6250 54.0560 82.9974 0.0000 0.0000 0.0000
# 4 0.0000 0.0000 0.0000 23.2118 0.0000 0.0000
# 5 0.0000 0.0000 0.0000 0.0000 22.7912 0.0000
# 6 0.0000 0.0000 0.0000 0.0000 0.0000 35.4483
#
#
#
# Elastic Compliance Matrix: (Units=1/GPa)
#
#
# Indices 1 2 3 4 5 6 
#
# 1 0.009154 -0.002896 -0.001381 0.000000 0.000000 0.000000
# 2 -0.002896 0.013681 -0.007877 0.000000 0.000000 0.000000
# 3 -0.001381 -0.007877 0.017672 0.000000 0.000000 0.000000
# 4 0.000000 0.000000 0.000000 0.043082 0.000000 0.000000
# 5 0.000000 0.000000 0.000000 0.000000 0.043877 0.000000
# 6 0.000000 0.000000 0.000000 0.000000 0.000000 0.028210
#
#
# Mechanical properties :
#
#
# Convention : Reuss Voigt Hill
#
# Bulk Modulus (GPa) = 61.73432 64.41519 63.07475
# Shear Modulus (GPa) = 26.97143 29.38670 28.17906
#
# Velocity S-wave (km/s) = 3.76483 3.92979 3.84819
# Velocity P-wave (km/s) = 7.16526 7.37850 7.27266
#
# Compressibility (1/GPa) = 0.01619845
#
# Stress axis : x y z
#
# Youngs Moduli (GPa) = 109.24728 73.09406 56.58828
#
# Poissons Ratio (x) = 0.21170 0.07815
# Poissons Ratio (y) = 0.31640 0.44572
# Poissons Ratio (z) = 0.15087 0.57573
#
# Static dielectric constant tensor:
#      x y z
#    x 1.665810 0.000000 0.000000 
#    y 0.000000 1.708230 0.000000 
#    z 0.000000 0.000000 1.703650 
# 
# From -- ./inp_files/15833.got.cif
#   From: 2010.05.17/outbox.cif.g08.bks.cpg/sg62_8_cif.got.tgz:15833.got - 2010.06.03 15:25:27.
