data_PCOD9465897
_publ_section_title
;
Structure prediction by ZEFSAII (Michael W. Deem and Ramdas Pophale) SiO2 
 PCOD9465897
Probable space group: P N M A
;
_chemical_formula_sum "Si O2"
_cell_formula_units_Z 48
_cell_length_a 13.918774
_cell_length_b 17.312930
_cell_length_c 7.503048
_cell_angle_alpha 90.000000
_cell_angle_beta 90.000000
_cell_angle_gamma 90.000000
_cell_volume 1808.045191
_symmetry_space_group_name_H-M "P N M A"
_symmetry_group_IT_number 62
_symmetry_cell_setting 'orthorhombic'
loop_
_space_group_symop_operation_xyz
x,y,z
1/2-x,-y,1/2+z
1/2+x,1/2-y,1/2-z
-x,1/2+y,-z
-x,-y,-z
1/2+x,y,1/2-z
1/2-x,1/2+y,1/2+z
x,1/2-y,z
loop_
_atom_site_type_symbol
_atom_site_label
_atom_site_fract_x
_atom_site_fract_y
_atom_site_fract_z
Si Si1 0.140874 0.165604 0.765901
Si Si2 0.557502 0.662014 0.382726
Si Si3 0.419111 0.835885 0.865205
Si Si4 0.096985 0.008605 0.238323
Si Si5 0.242816 0.552271 0.475774
Si Si6 0.307683 0.334511 0.271501
O O1 0.186982 0.250000 0.764440
O O2 0.085929 0.157492 0.579264
O O3 0.057757 0.164748 0.916046
O O4 0.221164 0.103909 0.810676
O O5 0.576551 0.750000 0.307266
O O6 0.563402 0.579927 0.276852
O O7 0.628976 0.655357 0.551096
O O8 0.458480 0.750000 0.819938
O O9 0.306498 0.833414 0.811762
O O10 0.463869 0.913845 0.778206
O O11 0.171852 0.010584 0.401512
O O12 0.160128 0.021312 0.062382
O O13 0.185270 0.601537 0.620272
O O14 0.330242 0.250000 0.196143
#
# Coordination Sequence:
#
# PCOD9465897 Si02
#       6
#     8   8   8   8   8   8
#     4  10  21  38  60  86 118 157 197 237 289 350
#     4  10  22  39  58  86 124 158 189 237 297 347
#     4   9  19  37  59  83 114 152 197 243 285 339
#     4  11  22  37  60  87 117 152 196 245 289 343
#     4  11  21  36  59  85 112 151 201 243 285 345
#     4   9  18  35  59  84 113 151 194 241 287 336
#
# _framework density 26.548010000000001
#
# number of rings (size 3 to 8) (size 9 to 14) (size 15 to 20)
#    0.000    2.000    0.000    4.500    0.000    4.667 
#    0.000    3.333    0.000   12.000    0.000    1.167 
#    0.000    0.000    0.000    0.000    0.000    0.000 
#
# Total GULP energy -268250.922238 kJ/mol
# GULP energy per Si atom -5588.560880 kJ/mol
# Density = 2.648759 g / cm^3
# Si number density = 26.548010 Si / 1000 Ang^3
#
#
#
# Elastic Constant Matrix: (Units=GPa)
#
#
# Indices 1 2 3 4 5 6 
#
# 1 78.7650 31.9504 -3.3778 0.0000 0.0000 0.0000
# 2 31.9504 249.1204 51.4122 0.0000 0.0000 0.0000
# 3 -3.3778 51.4122 57.7661 0.0000 0.0000 0.0000
# 4 0.0000 0.0000 0.0000 41.4464 0.0000 0.0000
# 5 0.0000 0.0000 0.0000 0.0000 25.2323 0.0000
# 6 0.0000 0.0000 0.0000 0.0000 0.0000 10.2724
#
#
#
# Elastic Compliance Matrix: (Units=1/GPa)
#
#
# Indices 1 2 3 4 5 6 
#
# 1 0.013782 -0.002369 0.002914 0.000000 0.000000 0.000000
# 2 -0.002369 0.005325 -0.004877 0.000000 0.000000 0.000000
# 3 0.002914 -0.004877 0.021823 0.000000 0.000000 0.000000
# 4 0.000000 0.000000 0.000000 0.024128 0.000000 0.000000
# 5 0.000000 0.000000 0.000000 0.000000 0.039632 0.000000
# 6 0.000000 0.000000 0.000000 0.000000 0.000000 0.097348
#
#
# Mechanical properties :
#
#
# Convention : Reuss Voigt Hill
#
# Bulk Modulus (GPa) = 30.99349 60.62457 45.80903
# Shear Modulus (GPa) = 22.57792 35.76801 29.17297
#
# Velocity S-wave (km/s) = 2.91942 3.67453 3.31853
# Velocity P-wave (km/s) = 4.80249 6.39440 5.65474
#
# Compressibility (1/GPa) = 0.03226484
#
# Stress axis : x y z
#
# Youngs Moduli (GPa) = 72.55868 187.81000 45.82419
#
# Poissons Ratio (x) = 0.44493 -0.13355
# Poissons Ratio (y) = 0.17189 0.22350
# Poissons Ratio (z) = -0.21146 0.91602
#
# Static dielectric constant tensor:
#      x y z
#    x 2.023910 0.000000 0.000000 
#    y 0.000000 2.152440 0.000000 
#    z 0.000000 0.000000 2.115410 
# 
# From -- ./inp_files/6494.got.cif
#   From: 2010.05.17/outbox.cif.g08.bks.cpg/sg62_4_cif.got.tgz:6494.got - 2010.06.03 15:25:27.
