data_PCOD9465995
_publ_section_title
;
Structure prediction by ZEFSAII (Michael W. Deem and Ramdas Pophale) SiO2 
 PCOD9465995
Probable space group: P N M A
;
_chemical_formula_sum "Si O2"
_cell_formula_units_Z 40
_cell_length_a 9.590797
_cell_length_b 14.134344
_cell_length_c 12.669595
_cell_angle_alpha 90.000000
_cell_angle_beta 90.000000
_cell_angle_gamma 90.000000
_cell_volume 1717.485535
_symmetry_space_group_name_H-M "P N M A"
_symmetry_group_IT_number 62
_symmetry_cell_setting 'orthorhombic'
loop_
_space_group_symop_operation_xyz
x,y,z
1/2-x,-y,1/2+z
1/2+x,1/2-y,1/2-z
-x,1/2+y,-z
-x,-y,-z
1/2+x,y,1/2-z
1/2-x,1/2+y,1/2+z
x,1/2-y,z
loop_
_atom_site_type_symbol
_atom_site_label
_atom_site_fract_x
_atom_site_fract_y
_atom_site_fract_z
Si Si1 0.851116 0.031539 0.458808
Si Si2 0.601842 0.356028 0.412762
Si Si3 0.237561 0.642378 0.286019
Si Si4 0.316914 0.149649 0.533705
Si Si5 0.490265 0.514561 0.249599
O O1 0.747901 0.120090 0.470181
O O2 0.757454 0.944927 0.500739
O O3 0.887272 0.035618 0.333132
O O4 0.000000 0.000000 0.500000
O O5 0.607871 0.250000 0.365614
O O6 0.474926 0.355535 0.495545
O O7 0.561012 0.439426 0.329205
O O8 0.232191 0.750000 0.325679
O O9 0.209715 0.649634 0.158970
O O10 0.386179 0.592035 0.300929
O O11 0.109367 0.573493 0.313842
O O12 0.258944 0.250000 0.492360
#
# Coordination Sequence:
#
# PCOD9465995 Si02
#       5
#     8   8   8   8   8
#     4  11  25  41  65  92 132 167 216 276 324 385
#     4  11  24  44  68  95 131 179 226 265 325 399
#     4  10  21  38  64  95 126 162 214 270 331 390
#     4   9  20  40  66  93 127 169 213 268 330 390
#     4  11  22  41  62  96 128 170 212 267 330 379
#
# _framework density 23.289859
#
# number of rings (size 3 to 8) (size 9 to 14) (size 15 to 20)
#    0.000    1.600    4.000    1.200    2.800    2.400 
#    0.000    2.000    0.000    0.000    0.000    0.000 
#    0.000    0.000    0.000    0.000    0.000    0.000 
#
# Total GULP energy -223043.106330 kJ/mol
# GULP energy per Si atom -5576.077658 kJ/mol
# Density = 2.323685 g / cm^3
# Si number density = 23.289859 Si / 1000 Ang^3
#
#
#
# Elastic Constant Matrix: (Units=GPa)
#
#
# Indices 1 2 3 4 5 6 
#
# 1 149.4153 80.7412 23.2370 0.0000 0.0000 0.0000
# 2 80.7412 172.7317 34.7770 0.0000 0.0000 0.0000
# 3 23.2370 34.7770 40.2375 0.0000 0.0000 0.0000
# 4 0.0000 0.0000 0.0000 28.0716 0.0000 0.0000
# 5 0.0000 0.0000 0.0000 0.0000 44.3724 0.0000
# 6 0.0000 0.0000 0.0000 0.0000 0.0000 15.0369
#
#
#
# Elastic Compliance Matrix: (Units=1/GPa)
#
#
# Indices 1 2 3 4 5 6 
#
# 1 0.009074 -0.003858 -0.001906 0.000000 0.000000 0.000000
# 2 -0.003858 0.008649 -0.005248 0.000000 0.000000 0.000000
# 3 -0.001906 -0.005248 0.030488 0.000000 0.000000 0.000000
# 4 0.000000 0.000000 0.000000 0.035623 0.000000 0.000000
# 5 0.000000 0.000000 0.000000 0.000000 0.022537 0.000000
# 6 0.000000 0.000000 0.000000 0.000000 0.000000 0.066503
#
#
# Mechanical properties :
#
#
# Convention : Reuss Voigt Hill
#
# Bulk Modulus (GPa) = 38.18386 71.09944 54.64165
# Shear Modulus (GPa) = 24.55484 32.40481 28.47982
#
# Velocity S-wave (km/s) = 3.25054 3.73415 3.50071
# Velocity P-wave (km/s) = 5.52437 7.01329 6.31288
#
# Compressibility (1/GPa) = 0.02618908
#
# Stress axis : x y z
#
# Youngs Moduli (GPa) = 110.20755 115.61944 32.79933
#
# Poissons Ratio (x) = 0.44603 0.06251
# Poissons Ratio (y) = 0.42515 0.17211
# Poissons Ratio (z) = 0.21004 0.60671
#
# Static dielectric constant tensor:
#      x y z
#    x 1.883580 0.000000 0.000000 
#    y 0.000000 1.898040 0.000000 
#    z 0.000000 0.000000 2.005390 
# 
# From -- ./inp_files/16657.got.cif
#   From: 2010.05.17/outbox.cif.g08.bks.cpg/sg62_9_cif.got.tgz:16657.got - 2010.06.03 15:25:27.
