data_PCOD9465490
_publ_section_title
;
Structure prediction by ZEFSAII (Michael W. Deem and Ramdas Pophale) SiO2 
 PCOD9465490
Probable space group: P N M A
;
_chemical_formula_sum "Si O2"
_cell_formula_units_Z 40
_cell_length_a 17.060631
_cell_length_b 13.902529
_cell_length_c 9.722100
_cell_angle_alpha 90.000000
_cell_angle_beta 90.000000
_cell_angle_gamma 90.000000
_cell_volume 2305.945206
_symmetry_space_group_name_H-M "P N M A"
_symmetry_group_IT_number 62
_symmetry_cell_setting 'orthorhombic'
loop_
_space_group_symop_operation_xyz
x,y,z
1/2-x,-y,1/2+z
1/2+x,1/2-y,1/2-z
-x,1/2+y,-z
-x,-y,-z
1/2+x,y,1/2-z
1/2-x,1/2+y,1/2+z
x,1/2-y,z
loop_
_atom_site_type_symbol
_atom_site_label
_atom_site_fract_x
_atom_site_fract_y
_atom_site_fract_z
Si Si1 0.155713 0.637043 0.573082
Si Si2 0.670146 0.137346 0.504469
Si Si3 0.052942 0.137760 0.231942
Si Si4 0.015431 0.362033 0.544507
Si Si5 0.584022 0.001923 0.719602
O O1 0.156214 0.750000 0.612359
O O2 0.237434 0.616845 0.498871
O O3 0.144545 0.569290 0.704440
O O4 0.077457 0.622596 0.481782
O O5 0.659037 0.250000 0.543544
O O6 0.632698 0.126222 0.352375
O O7 0.624191 0.066434 0.604713
O O8 0.028418 0.250000 0.218206
O O9 0.055373 0.118999 0.395652
O O10 0.987043 0.066867 0.171740
O O11 0.027419 0.250000 0.578091
O O12 0.049021 0.428439 0.662813
#
# Coordination Sequence:
#
# PCOD9465490 Si02
#       5
#     8   8   8   8   8
#     4   9  19  34  50  71 102 136 163 196 248 303
#     4  10  21  35  51  75 106 131 158 206 259 293
#     4   9  18  33  51  72 100 133 165 200 248 303
#     4   9  18  33  53  74  98 132 172 206 241 293
#     4  11  19  31  55  78  96 128 173 212 240 286
#
# _framework density 17.346464999999998
#
# number of rings (size 3 to 8) (size 9 to 14) (size 15 to 20)
#    0.000    2.400    0.000    5.400    0.000    3.200 
#    0.000    0.000    0.000    3.600    0.000    0.000 
#    0.000    0.000    0.000    0.000    0.000    0.000 
#
# Total GULP energy -223015.996351 kJ/mol
# GULP energy per Si atom -5575.399909 kJ/mol
# Density = 1.730698 g / cm^3
# Si number density = 17.346465 Si / 1000 Ang^3
#
#
#
# Elastic Constant Matrix: (Units=GPa)
#
#
# Indices 1 2 3 4 5 6 
#
# 1 64.8614 34.4473 55.6675 0.0000 0.0000 0.0000
# 2 34.4473 75.0161 37.0516 0.0000 0.0000 0.0000
# 3 55.6675 37.0516 67.2290 0.0000 0.0000 0.0000
# 4 0.0000 0.0000 0.0000 21.6057 0.0000 0.0000
# 5 0.0000 0.0000 0.0000 0.0000 15.6336 0.0000
# 6 0.0000 0.0000 0.0000 0.0000 0.0000 25.8053
#
#
#
# Elastic Compliance Matrix: (Units=1/GPa)
#
#
# Indices 1 2 3 4 5 6 
#
# 1 0.054033 -0.003729 -0.042686 0.000000 0.000000 0.000000
# 2 -0.003729 0.018574 -0.007149 0.000000 0.000000 0.000000
# 3 -0.042686 -0.007149 0.054160 0.000000 0.000000 0.000000
# 4 0.000000 0.000000 0.000000 0.046284 0.000000 0.000000
# 5 0.000000 0.000000 0.000000 0.000000 0.063965 0.000000
# 6 0.000000 0.000000 0.000000 0.000000 0.000000 0.038752
#
#
# Mechanical properties :
#
#
# Convention : Reuss Voigt Hill
#
# Bulk Modulus (GPa) = 50.91848 51.27105 51.09477
# Shear Modulus (GPa) = 12.83889 17.93825 15.38857
#
# Velocity S-wave (km/s) = 2.72351 3.21926 2.98170
# Velocity P-wave (km/s) = 6.26957 6.59085 6.43222
#
# Compressibility (1/GPa) = 0.01963923
#
# Stress axis : x y z
#
# Youngs Moduli (GPa) = 18.50708 53.83973 18.46384
#
# Poissons Ratio (x) = 0.20075 0.78815
# Poissons Ratio (y) = 0.06901 0.13200
# Poissons Ratio (z) = 0.79000 0.38490
#
# Static dielectric constant tensor:
#      x y z
#    x 1.585880 0.000000 0.000000 
#    y 0.000000 1.611160 0.000000 
#    z 0.000000 0.000000 1.569420 
# 
# From -- ./inp_files/6116.got.cif
#   From: 2010.05.17/outbox.cif.g08.bks.cpg/sg62_4_cif.got.tgz:6116.got - 2010.06.03 15:25:27.
