data_PCOD9465063
_publ_section_title
;
Structure prediction by ZEFSAII (Michael W. Deem and Ramdas Pophale) SiO2 
 PCOD9465063
Probable space group: P N M A
;
_chemical_formula_sum "Si O2"
_cell_formula_units_Z 60
_cell_length_a 14.296960
_cell_length_b 9.469820
_cell_length_c 21.990232
_cell_angle_alpha 90.000000
_cell_angle_beta 90.000000
_cell_angle_gamma 90.000000
_cell_volume 2977.249544
_symmetry_space_group_name_H-M "P N M A"
_symmetry_group_IT_number 62
_symmetry_cell_setting 'orthorhombic'
loop_
_space_group_symop_operation_xyz
x,y,z
1/2-x,-y,1/2+z
1/2+x,1/2-y,1/2-z
-x,1/2+y,-z
-x,-y,-z
1/2+x,y,1/2-z
1/2-x,1/2+y,1/2+z
x,1/2-y,z
loop_
_atom_site_type_symbol
_atom_site_label
_atom_site_fract_x
_atom_site_fract_y
_atom_site_fract_z
Si Si1 0.220206 0.081459 0.775087
Si Si2 0.057034 0.912251 0.723163
Si Si3 0.629316 0.414789 0.296980
Si Si4 0.700236 0.409020 0.114290
Si Si5 0.038546 0.585198 0.093812
Si Si6 0.623915 0.589692 0.538156
Si Si7 0.023565 0.750000 0.483655
Si Si8 0.015707 0.969654 0.586598
O O1 0.221498 0.250000 0.772632
O O2 0.117588 0.017541 0.764173
O O3 0.283296 0.008176 0.723318
O O4 0.264912 0.023393 0.837454
O O5 0.087386 0.750000 0.733583
O O6 0.949083 0.920971 0.743897
O O7 0.063487 0.948492 0.651996
O O8 0.652675 0.250000 0.306742
O O9 0.582272 0.486486 0.355147
O O10 0.714527 0.250000 0.139843
O O11 0.768145 0.422937 0.056230
O O12 0.592879 0.423166 0.096119
O O13 0.032699 0.750000 0.111765
O O14 0.937946 0.523058 0.074462
O O15 0.101304 0.574979 0.032755
O O16 0.594010 0.750000 0.555815
O O17 0.987257 0.627480 0.436756
O O18 0.055133 0.872023 0.533395
#
# Coordination Sequence:
#
# PCOD9465063 Si02
#       8
#     8   8   8   8   8   8   4   8
#     4  12  27  41  62  98 129 163 216 269 327 388
#     4  11  23  43  68  92 128 174 213 268 332 398
#     4  11  23  42  66  91 125 169 212 259 321 387
#     4  11  21  41  66  92 124 166 217 268 319 394
#     4  10  20  38  58  89 130 165 206 264 322 378
#     4   9  20  37  61  88 121 166 212 256 317 383
#     4  10  24  42  66  98 126 170 216 266 320 388
#     4  11  22  44  68  95 130 170 218 270 331 391
#
# _framework density 20.152826999999998
#
# number of rings (size 3 to 8) (size 9 to 14) (size 15 to 20)
#    0.000    1.333    2.667    2.800    1.867    5.333 
#    4.800    0.000    0.000    0.000    0.000    0.000 
#    0.000    0.000    0.000    0.000    0.000    0.000 
#
# Total GULP energy -334232.621604 kJ/mol
# GULP energy per Si atom -5570.543693 kJ/mol
# Density = 2.010696 g / cm^3
# Si number density = 20.152827 Si / 1000 Ang^3
#
#
#
# Elastic Constant Matrix: (Units=GPa)
#
#
# Indices 1 2 3 4 5 6 
#
# 1 30.7546 8.8844 -6.5367 0.0000 0.0000 0.0000
# 2 8.8844 177.8231 33.8464 0.0000 0.0000 0.0000
# 3 -6.5367 33.8464 40.1908 0.0000 0.0000 0.0000
# 4 0.0000 0.0000 0.0000 141.0016 0.0000 0.0000
# 5 0.0000 0.0000 0.0000 0.0000 20.4147 0.0000
# 6 0.0000 0.0000 0.0000 0.0000 0.0000 16.8299
#
#
#
# Elastic Compliance Matrix: (Units=1/GPa)
#
#
# Indices 1 2 3 4 5 6 
#
# 1 0.035330 -0.003405 0.008613 0.000000 0.000000 0.000000
# 2 -0.003405 0.007025 -0.006470 0.000000 0.000000 0.000000
# 3 0.008613 -0.006470 0.031731 0.000000 0.000000 0.000000
# 4 0.000000 0.000000 0.000000 0.007092 0.000000 0.000000
# 5 0.000000 0.000000 0.000000 0.000000 0.048984 0.000000
# 6 0.000000 0.000000 0.000000 0.000000 0.000000 0.059418
#
#
# Mechanical properties :
#
#
# Convention : Reuss Voigt Hill
#
# Bulk Modulus (GPa) = 13.97372 35.68407 24.82889
# Shear Modulus (GPa) = 23.15278 49.82087 36.48683
#
# Velocity S-wave (km/s) = 3.39316 4.97747 4.25962
# Velocity P-wave (km/s) = 4.72232 7.12592 6.04479
#
# Compressibility (1/GPa) = 0.07156292
#
# Stress axis : x y z
#
# Youngs Moduli (GPa) = 28.30490 142.34626 31.51518
#
# Poissons Ratio (x) = 0.48462 -0.27145
# Poissons Ratio (y) = 0.09636 0.20390
# Poissons Ratio (z) = -0.24379 0.92096
#
# Static dielectric constant tensor:
#      x y z
#    x 1.719160 0.000000 0.000000 
#    y 0.000000 1.686920 0.000000 
#    z 0.000000 0.000000 1.727740 
# 
# From -- ./inp_files/29696.got.cif
#   From: 2010.05.17/outbox.cif.g08.bks.cpg/sg62_15_cif.got.tgz:29696.got - 2010.06.03 15:25:27.
