data_PCOD9465557
_publ_section_title
;
Structure prediction by ZEFSAII (Michael W. Deem and Ramdas Pophale) SiO2 
 PCOD9465557
Probable space group: P N M A
;
_chemical_formula_sum "Si O2"
_cell_formula_units_Z 48
_cell_length_a 8.019437
_cell_length_b 19.447335
_cell_length_c 14.364841
_cell_angle_alpha 90.000000
_cell_angle_beta 90.000000
_cell_angle_gamma 90.000000
_cell_volume 2240.292880
_symmetry_space_group_name_H-M "P N M A"
_symmetry_group_IT_number 62
_symmetry_cell_setting 'orthorhombic'
loop_
_space_group_symop_operation_xyz
x,y,z
1/2-x,-y,1/2+z
1/2+x,1/2-y,1/2-z
-x,1/2+y,-z
-x,-y,-z
1/2+x,y,1/2-z
1/2-x,1/2+y,1/2+z
x,1/2-y,z
loop_
_atom_site_type_symbol
_atom_site_label
_atom_site_fract_x
_atom_site_fract_y
_atom_site_fract_z
Si Si1 0.670871 0.328648 0.605806
Si Si2 0.185218 0.577537 0.549121
Si Si3 0.825675 0.328888 0.105753
Si Si4 0.678278 0.080673 0.951696
Si Si5 0.314440 0.670624 0.702167
Si Si6 0.469762 0.828969 0.205555
O O1 0.646148 0.250000 0.570964
O O2 0.695873 0.382130 0.523356
O O3 0.536413 0.345508 0.684966
O O4 0.845450 0.330115 0.662956
O O5 0.230898 0.497988 0.561233
O O6 0.200578 0.618578 0.644931
O O7 0.999798 0.580765 0.506261
O O8 0.802019 0.250000 0.075203
O O9 0.694023 0.343934 0.188223
O O10 0.002588 0.334589 0.157720
O O11 0.801783 0.377826 0.018465
O O12 0.640518 0.119711 0.855675
O O13 0.256874 0.750000 0.690572
O O14 0.407998 0.750000 0.196634
#
# Coordination Sequence:
#
# PCOD9465557 Si02
#       6
#     8   8   8   8   8   8
#     4   9  18  33  53  75 100 133 172 214 258 305
#     4  10  21  36  54  79 111 144 177 217 269 325
#     4  10  21  37  58  82 107 140 183 229 275 323
#     4  10  21  36  54  79 111 144 177 217 269 325
#     4  10  21  37  58  82 107 140 183 229 275 323
#     4   9  18  33  53  75 100 133 172 214 258 305
#
# _framework density 21.425768999999999
#
# number of rings (size 3 to 8) (size 9 to 14) (size 15 to 20)
#    0.000    2.333    0.000    2.000    0.000    6.667 
#    0.000    6.667    0.000    0.000    0.000    0.000 
#    0.000    0.000    0.000    0.000    0.000    0.000 
#
# Total GULP energy -268345.497681 kJ/mol
# GULP energy per Si atom -5590.531202 kJ/mol
# Density = 2.137700 g / cm^3
# Si number density = 21.425769 Si / 1000 Ang^3
#
#
#
# Elastic Constant Matrix: (Units=GPa)
#
#
# Indices 1 2 3 4 5 6 
#
# 1 46.9792 21.8515 10.4055 0.0000 0.0000 0.0000
# 2 21.8515 83.1903 39.8656 0.0000 0.0000 0.0000
# 3 10.4055 39.8656 61.0564 0.0000 0.0000 0.0000
# 4 0.0000 0.0000 0.0000 6.3932 0.0000 0.0000
# 5 0.0000 0.0000 0.0000 0.0000 38.2020 0.0000
# 6 0.0000 0.0000 0.0000 0.0000 0.0000 16.4094
#
#
#
# Elastic Compliance Matrix: (Units=1/GPa)
#
#
# Indices 1 2 3 4 5 6 
#
# 1 0.024249 -0.006388 0.000038 0.000000 0.000000 0.000000
# 2 -0.006388 0.019177 -0.011433 0.000000 0.000000 0.000000
# 3 0.000038 -0.011433 0.023837 0.000000 0.000000 0.000000
# 4 0.000000 0.000000 0.000000 0.156416 0.000000 0.000000
# 5 0.000000 0.000000 0.000000 0.000000 0.026177 0.000000
# 6 0.000000 0.000000 0.000000 0.000000 0.000000 0.060941
#
#
# Mechanical properties :
#
#
# Convention : Reuss Voigt Hill
#
# Bulk Modulus (GPa) = 31.54784 37.27456 34.41120
# Shear Modulus (GPa) = 14.00851 20.14116 17.07483
#
# Velocity S-wave (km/s) = 2.55976 3.06934 2.82606
# Velocity P-wave (km/s) = 4.84693 5.47686 5.17149
#
# Compressibility (1/GPa) = 0.03169789
#
# Stress axis : x y z
#
# Youngs Moduli (GPa) = 41.23938 52.14540 41.95236
#
# Poissons Ratio (x) = 0.33309 -0.00160
# Poissons Ratio (y) = 0.26342 0.47963
# Poissons Ratio (z) = -0.00157 0.59616
#
# Static dielectric constant tensor:
#      x y z
#    x 1.836770 0.000000 0.000000 
#    y 0.000000 1.724180 0.000000 
#    z 0.000000 0.000000 1.747420 
# 
# From -- ./inp_files/16921.got.cif
#   From: 2010.05.17/outbox.cif.g08.bks.cpg/sg62_9_cif.got.tgz:16921.got - 2010.06.03 15:25:27.
