data_PCOD9465043
_publ_section_title
;
Structure prediction by ZEFSAII (Michael W. Deem and Ramdas Pophale) SiO2 
 PCOD9465043
Probable space group: P N M A
;
_chemical_formula_sum "Si O2"
_cell_formula_units_Z 32
_cell_length_a 17.418657
_cell_length_b 14.863873
_cell_length_c 4.954638
_cell_angle_alpha 90.000000
_cell_angle_beta 90.000000
_cell_angle_gamma 90.000000
_cell_volume 1282.798911
_symmetry_space_group_name_H-M "P N M A"
_symmetry_group_IT_number 62
_symmetry_cell_setting 'orthorhombic'
loop_
_space_group_symop_operation_xyz
x,y,z
1/2-x,-y,1/2+z
1/2+x,1/2-y,1/2-z
-x,1/2+y,-z
-x,-y,-z
1/2+x,y,1/2-z
1/2-x,1/2+y,1/2+z
x,1/2-y,z
loop_
_atom_site_type_symbol
_atom_site_label
_atom_site_fract_x
_atom_site_fract_y
_atom_site_fract_z
Si Si1 0.141696 0.090817 0.169462
Si Si2 0.007658 0.891430 0.535568
Si Si3 0.400761 0.388990 0.543012
Si Si4 0.228525 0.349376 0.638828
O O1 0.201417 0.078490 0.415830
O O2 0.070280 0.138343 0.319787
O O3 0.108405 0.996946 0.061398
O O4 0.185468 0.135803 0.920666
O O5 0.030544 0.858907 0.240119
O O6 0.076714 0.868029 0.738177
O O7 0.000000 0.000000 0.500000
O O8 0.320108 0.353664 0.650465
O O9 0.208569 0.250000 0.533295
#
# Coordination Sequence:
#
# PCOD9465043 Si02
#       4
#     8   8   8   8
#     4  11  21  40  64  88 116 156 201 247 298 354
#     4  10  20  37  64  94 118 146 198 258 300 349
#     4  11  21  39  65  91 118 154 200 249 301 355
#     4  12  25  40  57  87 126 162 199 244 294 356
#
# _framework density 24.945454999999999
#
# number of rings (size 3 to 8) (size 9 to 14) (size 15 to 20)
#    0.000    1.000    0.000   11.250    0.000    0.000 
#    0.000    7.500    0.000    0.000    0.000    0.000 
#    0.000    0.000    0.000    0.000    0.000    0.000 
#
# Total GULP energy -179063.659476 kJ/mol
# GULP energy per Si atom -5595.739359 kJ/mol
# Density = 2.488868 g / cm^3
# Si number density = 24.945455 Si / 1000 Ang^3
#
#
#
# Elastic Constant Matrix: (Units=GPa)
#
#
# Indices 1 2 3 4 5 6 
#
# 1 98.3791 7.4582 20.9976 0.0000 0.0000 0.0000
# 2 7.4582 57.2082 -1.3652 0.0000 0.0000 0.0000
# 3 20.9976 -1.3652 135.4068 0.0000 0.0000 0.0000
# 4 0.0000 0.0000 0.0000 -6.3964 0.0000 0.0000
# 5 0.0000 0.0000 0.0000 0.0000 58.7143 0.0000
# 6 0.0000 0.0000 0.0000 0.0000 0.0000 -15.3123
#
#
#
# Elastic Compliance Matrix: (Units=1/GPa)
#
#
# Indices 1 2 3 4 5 6 
#
# 1 0.010628 -0.001425 -0.001662 0.000000 0.000000 0.000000
# 2 -0.001425 0.017675 0.000399 0.000000 0.000000 0.000000
# 3 -0.001662 0.000399 0.007647 0.000000 0.000000 0.000000
# 4 0.000000 0.000000 0.000000 -0.156338 0.000000 0.000000
# 5 0.000000 0.000000 0.000000 0.000000 0.017032 0.000000
# 6 0.000000 0.000000 0.000000 0.000000 0.000000 -0.065307
#
#
# Mechanical properties :
#
#
# Convention : Reuss Voigt Hill
#
# Bulk Modulus (GPa) = 32.70844 38.35283 35.53063
# Shear Modulus (GPa) = -32.65928 24.99469 -3.83230
#
# Velocity S-wave (km/s) = -3.62225 3.16883 -1.24081
# Velocity P-wave (km/s) = 2.08658 5.36626 3.49592
#
# Compressibility (1/GPa) = 0.03057315
#
# Stress axis : x y z
#
# Youngs Moduli (GPa) = 94.09448 56.57602 130.77079
#
# Poissons Ratio (x) = 0.08063 0.21739
# Poissons Ratio (y) = 0.13410 -0.05221
# Poissons Ratio (z) = 0.15642 -0.02259
#
# Static dielectric constant tensor:
#      x y z
#    x 1.982080 0.000000 0.000000 
#    y 0.000000 2.190860 0.000000 
#    z 0.000000 0.000000 1.892800 
# 
# From -- ./inp_files/922.got.cif
#   From: 2010.05.17/outbox.cif.g08.bks.cpg/sg62_1_cif.got.tgz:922.got - 2010.06.03 15:25:27.
