data_PCOD9465776
_publ_section_title
;
Structure prediction by ZEFSAII (Michael W. Deem and Ramdas Pophale) SiO2 
 PCOD9465776
Probable space group: P N M A
;
_chemical_formula_sum "Si O2"
_cell_formula_units_Z 40
_cell_length_a 5.144477
_cell_length_b 14.013595
_cell_length_c 23.277221
_cell_angle_alpha 90.000000
_cell_angle_beta 90.000000
_cell_angle_gamma 90.000000
_cell_volume 1678.115782
_symmetry_space_group_name_H-M "P N M A"
_symmetry_group_IT_number 62
_symmetry_cell_setting 'orthorhombic'
loop_
_space_group_symop_operation_xyz
x,y,z
1/2-x,-y,1/2+z
1/2+x,1/2-y,1/2-z
-x,1/2+y,-z
-x,-y,-z
1/2+x,y,1/2-z
1/2-x,1/2+y,1/2+z
x,1/2-y,z
loop_
_atom_site_type_symbol
_atom_site_label
_atom_site_fract_x
_atom_site_fract_y
_atom_site_fract_z
Si Si1 0.084181 0.147211 0.968606
Si Si2 0.557216 0.957169 0.710577
Si Si3 0.870052 0.750000 0.287382
Si Si4 0.893476 0.414996 0.636709
Si Si5 0.691585 0.976750 0.947287
Si Si6 0.350101 0.250000 0.288883
O O1 0.955259 0.250000 0.966601
O O2 0.305988 0.142237 0.919995
O O3 0.902682 0.060010 0.951243
O O4 0.186713 0.122683 0.032476
O O5 0.273893 0.962444 0.738564
O O6 0.594995 0.852283 0.682234
O O7 0.644585 0.043090 0.669849
O O8 0.074787 0.750000 0.234319
O O9 0.942602 0.843908 0.323854
O O10 0.048385 0.507059 0.612474
O O11 0.500000 0.000000 0.000000
O O12 0.556794 0.250000 0.235598
#
# Coordination Sequence:
#
# PCOD9465776 Si02
#       6
#     8   8   4   8   8   4
#     4  10  21  41  68  93 126 171 221 280 348 418
#     4  10  21  37  60  88 127 171 215 270 322 393
#     4  12  28  42  62 105 142 190 243 276 332 420
#     4  11  23  38  63  93 132 176 219 282 338 398
#     4   9  22  40  63  94 123 168 220 273 349 415
#     4   8  16  34  56  77 106 158 207 248 314 366
#
# _framework density 23.836259999999999
#
# number of rings (size 3 to 8) (size 9 to 14) (size 15 to 20)
#    0.000    2.000    1.000    1.200    7.000    0.800 
#    1.800    0.000    8.800    0.000    0.000    0.000 
#    0.000    0.000    0.000    0.000    0.000    0.000 
#
# Total GULP energy -223519.802289 kJ/mol
# GULP energy per Si atom -5587.995057 kJ/mol
# Density = 2.378201 g / cm^3
# Si number density = 23.836260 Si / 1000 Ang^3
#
#
#
# Elastic Constant Matrix: (Units=GPa)
#
#
# Indices 1 2 3 4 5 6 
#
# 1 61.7121 -6.7078 15.5878 0.0000 0.0000 0.0000
# 2 -6.7078 102.1427 36.5702 0.0000 0.0000 0.0000
# 3 15.5878 36.5702 79.4873 0.0000 0.0000 0.0000
# 4 0.0000 0.0000 0.0000 22.0909 0.0000 0.0000
# 5 0.0000 0.0000 0.0000 0.0000 29.1731 0.0000
# 6 0.0000 0.0000 0.0000 0.0000 0.0000 23.1049
#
#
#
# Elastic Compliance Matrix: (Units=1/GPa)
#
#
# Indices 1 2 3 4 5 6 
#
# 1 0.017731 0.002885 -0.004804 0.000000 0.000000 0.000000
# 2 0.002885 0.012190 -0.006174 0.000000 0.000000 0.000000
# 3 -0.004804 -0.006174 0.016363 0.000000 0.000000 0.000000
# 4 0.000000 0.000000 0.000000 0.045268 0.000000 0.000000
# 5 0.000000 0.000000 0.000000 0.000000 0.034278 0.000000
# 6 0.000000 0.000000 0.000000 0.000000 0.000000 0.043281
#
#
# Mechanical properties :
#
#
# Convention : Reuss Voigt Hill
#
# Bulk Modulus (GPa) = 33.22578 37.13806 35.18192
# Shear Modulus (GPa) = 25.59753 28.06656 26.83204
#
# Velocity S-wave (km/s) = 3.28058 3.43516 3.35876
# Velocity P-wave (km/s) = 5.32157 5.59893 5.46201
#
# Compressibility (1/GPa) = 0.03009711
#
# Stress axis : x y z
#
# Youngs Moduli (GPa) = 56.39737 82.03339 61.11240
#
# Poissons Ratio (x) = -0.23663 0.29360
# Poissons Ratio (y) = -0.16268 0.37731
# Poissons Ratio (z) = 0.27095 0.50648
#
# Static dielectric constant tensor:
#      x y z
#    x 1.982870 0.000000 0.000000 
#    y 0.000000 1.973180 0.000000 
#    z 0.000000 0.000000 1.959880 
# 
# From -- ./inp_files/28261.got.cif
#   From: 2010.05.17/outbox.cif.g08.bks.cpg/sg62_15_cif.got.tgz:28261.got - 2010.06.03 15:25:27.
