data_PCOD9465762
_publ_section_title
;
Structure prediction by ZEFSAII (Michael W. Deem and Ramdas Pophale) SiO2 
 PCOD9465762
Probable space group: P N M A
;
_chemical_formula_sum "Si O2"
_cell_formula_units_Z 56
_cell_length_a 15.982728
_cell_length_b 7.887876
_cell_length_c 18.787843
_cell_angle_alpha 90.000000
_cell_angle_beta 90.000000
_cell_angle_gamma 90.000000
_cell_volume 2368.579170
_symmetry_space_group_name_H-M "P N M A"
_symmetry_group_IT_number 62
_symmetry_cell_setting 'orthorhombic'
loop_
_space_group_symop_operation_xyz
x,y,z
1/2-x,-y,1/2+z
1/2+x,1/2-y,1/2-z
-x,1/2+y,-z
-x,-y,-z
1/2+x,y,1/2-z
1/2-x,1/2+y,1/2+z
x,1/2-y,z
loop_
_atom_site_type_symbol
_atom_site_label
_atom_site_fract_x
_atom_site_fract_y
_atom_site_fract_z
Si Si1 0.905320 0.555520 0.509858
Si Si2 0.661711 0.941460 0.153583
Si Si3 0.841653 0.946407 0.348352
Si Si4 0.499358 0.058007 0.608695
Si Si5 0.816615 0.454897 0.918923
Si Si6 0.682150 0.455602 0.578954
Si Si7 0.998772 0.939973 0.739215
O O1 0.899098 0.750000 0.535669
O O2 0.867593 0.439837 0.571220
O O3 0.868000 0.550578 0.431206
O O4 0.000000 0.500000 0.500000
O O5 0.667832 0.750000 0.182083
O O6 0.755161 0.015256 0.141915
O O7 0.586282 0.030800 0.194769
O O8 0.838996 0.750000 0.323978
O O9 0.746946 0.016134 0.356889
O O10 0.916612 0.034200 0.306229
O O11 0.498793 0.250000 0.579413
O O12 0.410945 0.977390 0.587998
O O13 0.587480 0.978678 0.586545
O O14 0.500121 0.062553 0.693844
O O15 0.817551 0.250000 0.911330
O O16 0.789576 0.494792 0.999648
O O17 0.681497 0.250000 0.584362
O O18 0.998144 0.750000 0.767581
#
# Coordination Sequence:
#
# PCOD9465762 Si02
#       7
#     8   8   8   8   8   8   8
#     4  11  20  32  55  86 121 156 194 241 298 354
#     4  11  22  37  59  88 123 159 195 242 298 356
#     4  10  21  37  59  89 123 157 194 239 299 360
#     4  10  23  44  64  85 120 163 203 243 294 356
#     4  10  21  39  66  94 120 155 197 246 300 351
#     4  10  22  39  64  94 121 155 198 246 298 351
#     4  12  26  41  60  87 120 161 204 248 298 355
#
# _framework density 23.642865
#
# number of rings (size 3 to 8) (size 9 to 14) (size 15 to 20)
#    0.000    1.429    2.857    2.571    0.000    4.000 
#    0.000    5.714    0.000    0.000    0.000    0.000 
#    0.000    0.000    0.000    0.000    0.000    0.000 
#
# Total GULP energy -312693.164039 kJ/mol
# GULP energy per Si atom -5583.806501 kJ/mol
# Density = 2.358905 g / cm^3
# Si number density = 23.642865 Si / 1000 Ang^3
#
#
#
# Elastic Constant Matrix: (Units=GPa)
#
#
# Indices 1 2 3 4 5 6 
#
# 1 159.5868 3.1828 13.2977 0.0000 0.0000 0.0000
# 2 3.1828 53.7596 -6.5834 0.0000 0.0000 0.0000
# 3 13.2977 -6.5834 49.9990 0.0000 0.0000 0.0000
# 4 0.0000 0.0000 0.0000 21.0307 0.0000 0.0000
# 5 0.0000 0.0000 0.0000 0.0000 23.9732 0.0000
# 6 0.0000 0.0000 0.0000 0.0000 0.0000 -17.4942
#
#
#
# Elastic Compliance Matrix: (Units=1/GPa)
#
#
# Indices 1 2 3 4 5 6 
#
# 1 0.006427 -0.000600 -0.001788 0.000000 0.000000 0.000000
# 2 -0.000600 0.018962 0.002656 0.000000 0.000000 0.000000
# 3 -0.001788 0.002656 0.020826 0.000000 0.000000 0.000000
# 4 0.000000 0.000000 0.000000 0.047549 0.000000 0.000000
# 5 0.000000 0.000000 0.000000 0.000000 0.041713 0.000000
# 6 0.000000 0.000000 0.000000 0.000000 0.000000 -0.057162
#
#
# Mechanical properties :
#
#
# Convention : Reuss Voigt Hill
#
# Bulk Modulus (GPa) = 21.38956 31.45996 26.42476
# Shear Modulus (GPa) = 53.55436 22.39850 37.97643
#
# Velocity S-wave (km/s) = 4.76451 3.08127 4.01216
# Velocity P-wave (km/s) = 6.27168 5.09845 5.71525
#
# Compressibility (1/GPa) = 0.04675178
#
# Stress axis : x y z
#
# Youngs Moduli (GPa) = 155.58997 52.73680 48.01747
#
# Poissons Ratio (x) = 0.03162 0.08587
# Poissons Ratio (y) = 0.09328 -0.12754
# Poissons Ratio (z) = 0.27824 -0.14008
#
# Static dielectric constant tensor:
#      x y z
#    x 2.010900 0.000000 0.000000 
#    y 0.000000 1.863090 0.000000 
#    z 0.000000 0.000000 1.839760 
# 
# From -- ./inp_files/27264.got.cif
#   From: 2010.05.17/outbox.cif.g08.bks.cpg/sg62_14_cif.got.tgz:27264.got - 2010.06.03 15:25:27.
