data_PCOD9465355
_publ_section_title
;
Structure prediction by ZEFSAII (Michael W. Deem and Ramdas Pophale) SiO2 
 PCOD9465355
Probable space group: P N M A
;
_chemical_formula_sum "Si O2"
_cell_formula_units_Z 48
_cell_length_a 11.154246
_cell_length_b 16.481820
_cell_length_c 11.575772
_cell_angle_alpha 90.000000
_cell_angle_beta 90.000000
_cell_angle_gamma 90.000000
_cell_volume 2128.116257
_symmetry_space_group_name_H-M "P N M A"
_symmetry_group_IT_number 62
_symmetry_cell_setting 'orthorhombic'
loop_
_space_group_symop_operation_xyz
x,y,z
1/2-x,-y,1/2+z
1/2+x,1/2-y,1/2-z
-x,1/2+y,-z
-x,-y,-z
1/2+x,y,1/2-z
1/2-x,1/2+y,1/2+z
x,1/2-y,z
loop_
_atom_site_type_symbol
_atom_site_label
_atom_site_fract_x
_atom_site_fract_y
_atom_site_fract_z
Si Si1 0.614755 0.498099 0.082502
Si Si2 0.946917 0.916543 0.249311
Si Si3 0.168183 0.750000 0.376849
Si Si4 0.902589 0.750000 0.284868
Si Si5 0.996814 0.598589 0.993836
Si Si6 0.687587 0.914669 0.689118
Si Si7 0.265190 0.379282 0.060987
O O1 0.565614 0.549697 0.190324
O O2 0.677022 0.421657 0.142169
O O3 0.500000 0.500000 0.000000
O O4 0.715742 0.532566 0.996422
O O5 0.886676 0.844884 0.324789
O O6 0.860687 0.993080 0.220133
O O7 0.985715 0.876392 0.127415
O O8 0.294796 0.750000 0.310090
O O9 0.170896 0.675394 0.465872
O O10 0.050271 0.750000 0.297279
O O11 0.876352 0.632093 0.935781
O O12 0.106167 0.621342 0.911779
O O13 0.000000 0.500000 0.000000
O O14 0.681788 0.871339 0.812252
#
# Coordination Sequence:
#
# PCOD9465355 Si02
#       7
#     8   8   4   4   8   8   8
#     4  12  23  37  64 103 132 165 223 288 330 398
#     4  11  22  38  65  97 131 176 221 280 339 398
#     4  12  26  48  69  97 143 189 224 280 354 412
#     4  12  24  44  67  99 139 183 222 282 348 416
#     4  10  20  40  63  91 127 172 218 267 341 393
#     4  11  23  41  68  96 134 175 228 280 335 404
#     4  12  23  42  66  96 132 178 224 282 337 401
#
# _framework density 22.555159
#
# number of rings (size 3 to 8) (size 9 to 14) (size 15 to 20)
#    0.000    0.667    8.333    2.000    0.000    0.000 
#    0.000    1.667    0.000    1.000    0.000    0.000 
#    0.000    0.000    0.000    0.000    0.000    0.000 
#
# Total GULP energy -267204.207947 kJ/mol
# GULP energy per Si atom -5566.754332 kJ/mol
# Density = 2.250382 g / cm^3
# Si number density = 22.555159 Si / 1000 Ang^3
#
#
#
# Elastic Constant Matrix: (Units=GPa)
#
#
# Indices 1 2 3 4 5 6 
#
# 1 110.4359 12.4009 64.8868 0.0000 0.0000 0.0000
# 2 12.4009 19.8065 -3.0474 0.0000 0.0000 0.0000
# 3 64.8868 -3.0474 116.0898 0.0000 0.0000 0.0000
# 4 0.0000 0.0000 0.0000 17.1974 0.0000 0.0000
# 5 0.0000 0.0000 0.0000 0.0000 45.5299 0.0000
# 6 0.0000 0.0000 0.0000 0.0000 0.0000 19.7177
#
#
#
# Elastic Compliance Matrix: (Units=1/GPa)
#
#
# Indices 1 2 3 4 5 6 
#
# 1 0.015605 -0.011157 -0.009015 0.000000 0.000000 0.000000
# 2 -0.011157 0.058670 0.007776 0.000000 0.000000 0.000000
# 3 -0.009015 0.007776 0.013857 0.000000 0.000000 0.000000
# 4 0.000000 0.000000 0.000000 0.058148 0.000000 0.000000
# 5 0.000000 0.000000 0.000000 0.000000 0.021964 0.000000
# 6 0.000000 0.000000 0.000000 0.000000 0.000000 0.050716
#
#
# Mechanical properties :
#
#
# Convention : Reuss Voigt Hill
#
# Bulk Modulus (GPa) = 15.78769 43.86810 29.82790
# Shear Modulus (GPa) = 18.87758 27.96180 23.41969
#
# Velocity S-wave (km/s) = 2.89615 3.52477 3.22581
# Velocity P-wave (km/s) = 4.26596 6.00473 5.20841
#
# Compressibility (1/GPa) = 0.06334047
#
# Stress axis : x y z
#
# Youngs Moduli (GPa) = 64.08398 17.04435 72.16651
#
# Poissons Ratio (x) = 0.19017 0.65057
# Poissons Ratio (y) = 0.71499 -0.56118
# Poissons Ratio (z) = 0.57770 -0.13254
#
# Static dielectric constant tensor:
#      x y z
#    x 1.885270 0.000000 0.000000 
#    y 0.000000 2.009460 0.000000 
#    z 0.000000 0.000000 1.872370 
# 
# From -- ./inp_files/12280.got.cif
#   From: 2010.05.17/outbox.cif.g08.bks.cpg/sg62_7_cif.got.tgz:12280.got - 2010.06.03 15:25:27.
