data_PCOD9465751
_publ_section_title
;
Structure prediction by ZEFSAII (Michael W. Deem and Ramdas Pophale) SiO2 
 PCOD9465751
Probable space group: P N M A
;
_chemical_formula_sum "Si O2"
_cell_formula_units_Z 40
_cell_length_a 24.019551
_cell_length_b 12.823340
_cell_length_c 7.236753
_cell_angle_alpha 90.000000
_cell_angle_beta 90.000000
_cell_angle_gamma 90.000000
_cell_volume 2228.998581
_symmetry_space_group_name_H-M "P N M A"
_symmetry_group_IT_number 62
_symmetry_cell_setting 'orthorhombic'
loop_
_space_group_symop_operation_xyz
x,y,z
1/2-x,-y,1/2+z
1/2+x,1/2-y,1/2-z
-x,1/2+y,-z
-x,-y,-z
1/2+x,y,1/2-z
1/2-x,1/2+y,1/2+z
x,1/2-y,z
loop_
_atom_site_type_symbol
_atom_site_label
_atom_site_fract_x
_atom_site_fract_y
_atom_site_fract_z
Si Si1 0.362712 0.869596 0.668525
Si Si2 0.315637 0.024104 0.971482
Si Si3 0.435283 0.373624 0.002751
Si Si4 0.292105 0.870997 0.310977
Si Si5 0.518115 0.031580 0.295518
O O1 0.351440 0.750000 0.721867
O O2 0.341877 0.883165 0.458924
O O3 0.427646 0.895250 0.690567
O O4 0.329831 0.948999 0.799192
O O5 0.371513 0.088655 0.013970
O O6 0.300547 0.949586 0.142274
O O7 0.264567 0.097996 0.916520
O O8 0.438657 0.250000 0.983815
O O9 0.469239 0.412089 0.182056
O O10 0.463134 0.432156 0.827528
O O11 0.290186 0.750000 0.251757
O O12 0.500000 0.000000 0.500000
#
# Coordination Sequence:
#
# PCOD9465751 Si02
#       5
#     8   8   8   8   8
#     4  10  21  37  59  85 115 153 196 239 289 347
#     4  11  21  39  58  83 120 152 195 248 291 351
#     4  10  22  38  59  88 120 156 196 243 300 350
#     4  11  22  37  59  84 114 155 197 244 300 351
#     4  10  21  39  61  86 121 154 194 244 289 353
#
# _framework density 17.945277999999998
#
# number of rings (size 3 to 8) (size 9 to 14) (size 15 to 20)
#    0.000    1.600    2.000    3.000    0.000    1.600 
#    0.000    5.000    0.000    0.000    0.000    0.000 
#    0.000    0.000    0.000    0.000    0.000    0.000 
#
# Total GULP energy -223422.258095 kJ/mol
# GULP energy per Si atom -5585.556452 kJ/mol
# Density = 1.790443 g / cm^3
# Si number density = 17.945278 Si / 1000 Ang^3
#
#
#
# Elastic Constant Matrix: (Units=GPa)
#
#
# Indices 1 2 3 4 5 6 
#
# 1 54.5498 25.1604 26.6705 0.0000 0.0000 0.0000
# 2 25.1604 109.7701 29.9934 0.0000 0.0000 0.0000
# 3 26.6705 29.9934 82.3352 0.0000 0.0000 0.0000
# 4 0.0000 0.0000 0.0000 16.5713 0.0000 0.0000
# 5 0.0000 0.0000 0.0000 0.0000 26.4288 0.0000
# 6 0.0000 0.0000 0.0000 0.0000 0.0000 16.2093
#
#
#
# Elastic Compliance Matrix: (Units=1/GPa)
#
#
# Indices 1 2 3 4 5 6 
#
# 1 0.022990 -0.003592 -0.006138 0.000000 0.000000 0.000000
# 2 -0.003592 0.010678 -0.002726 0.000000 0.000000 0.000000
# 3 -0.006138 -0.002726 0.015127 0.000000 0.000000 0.000000
# 4 0.000000 0.000000 0.000000 0.060345 0.000000 0.000000
# 5 0.000000 0.000000 0.000000 0.000000 0.037838 0.000000
# 6 0.000000 0.000000 0.000000 0.000000 0.000000 0.061693
#
#
# Mechanical properties :
#
#
# Convention : Reuss Voigt Hill
#
# Bulk Modulus (GPa) = 41.87387 45.58931 43.73159
# Shear Modulus (GPa) = 20.70003 22.83059 21.76531
#
# Velocity S-wave (km/s) = 3.40002 3.57071 3.48641
# Velocity P-wave (km/s) = 6.22883 6.51611 6.37409
#
# Compressibility (1/GPa) = 0.02388124
#
# Stress axis : x y z
#
# Youngs Moduli (GPa) = 43.49724 93.64812 66.10693
#
# Poissons Ratio (x) = 0.33641 0.40579
# Poissons Ratio (y) = 0.15625 0.18023
# Poissons Ratio (z) = 0.26700 0.25531
#
# Static dielectric constant tensor:
#      x y z
#    x 1.603260 0.000000 0.000000 
#    y 0.000000 1.584230 0.000000 
#    z 0.000000 0.000000 1.589330 
# 
# From -- ./inp_files/3021.got.cif
#   From: 2010.05.17/outbox.cif.g08.bks.cpg/sg62_2_cif.got.tgz:3021.got - 2010.06.03 15:25:27.
