data_PCOD9465905
_publ_section_title
;
Structure prediction by ZEFSAII (Michael W. Deem and Ramdas Pophale) SiO2 
 PCOD9465905
Probable space group: P N M A
;
_chemical_formula_sum "Si O2"
_cell_formula_units_Z 32
_cell_length_a 11.187421
_cell_length_b 7.383434
_cell_length_c 22.111138
_cell_angle_alpha 90.000000
_cell_angle_beta 90.000000
_cell_angle_gamma 90.000000
_cell_volume 1826.415036
_symmetry_space_group_name_H-M "P N M A"
_symmetry_group_IT_number 62
_symmetry_cell_setting 'orthorhombic'
loop_
_space_group_symop_operation_xyz
x,y,z
1/2-x,-y,1/2+z
1/2+x,1/2-y,1/2-z
-x,1/2+y,-z
-x,-y,-z
1/2+x,y,1/2-z
1/2-x,1/2+y,1/2+z
x,1/2-y,z
loop_
_atom_site_type_symbol
_atom_site_label
_atom_site_fract_x
_atom_site_fract_y
_atom_site_fract_z
Si Si1 0.476104 0.250000 0.381811
Si Si2 0.572843 0.958804 0.171070
Si Si3 0.736133 0.545697 0.570228
Si Si4 0.645524 0.250000 0.267826
Si Si5 0.296716 0.750000 0.531161
Si Si6 0.627785 0.750000 0.854362
O O1 0.387431 0.080413 0.393092
O O2 0.539486 0.250000 0.317290
O O3 0.578834 0.250000 0.432489
O O4 0.548720 0.750000 0.186291
O O5 0.664366 0.968163 0.114880
O O6 0.631767 0.074135 0.225432
O O7 0.455590 0.073998 0.153685
O O8 0.773411 0.750000 0.552147
O O9 0.714203 0.422068 0.512681
O O10 0.769637 0.250000 0.303512
O O11 0.192936 0.750000 0.581174
#
# Coordination Sequence:
#
# PCOD9465905 Si02
#       6
#     4   8   8   4   4   4
#     4   9  21  40  62  91 121 161 191 263 304 341
#     4  11  23  41  61  91 119 164 202 246 306 363
#     4  10  21  38  60  88 119 157 201 245 300 357
#     4  10  22  43  62  88 124 157 203 253 307 358
#     4  11  21  40  63  88 124 159 204 246 298 365
#     4  10  24  41  61  89 125 159 200 256 299 358
#
# _framework density 17.520662000000002
#
# number of rings (size 3 to 8) (size 9 to 14) (size 15 to 20)
#    0.750    1.000    3.750    0.750    7.000    3.000 
#    2.250    2.500    0.000    0.000    0.000    0.000 
#    0.000    0.000    0.000    0.000    0.000    0.000 
#
# Total GULP energy -178436.309098 kJ/mol
# GULP energy per Si atom -5576.134659 kJ/mol
# Density = 1.748078 g / cm^3
# Si number density = 17.520662 Si / 1000 Ang^3
#
#
#
# Elastic Constant Matrix: (Units=GPa)
#
#
# Indices 1 2 3 4 5 6 
#
# 1 101.6917 29.6547 21.5780 0.0000 0.0000 0.0000
# 2 29.6547 136.9921 16.0468 0.0000 0.0000 0.0000
# 3 21.5780 16.0468 17.1496 0.0000 0.0000 0.0000
# 4 0.0000 0.0000 0.0000 3.7557 0.0000 0.0000
# 5 0.0000 0.0000 0.0000 0.0000 16.2214 0.0000
# 6 0.0000 0.0000 0.0000 0.0000 0.0000 8.5794
#
#
#
# Elastic Compliance Matrix: (Units=1/GPa)
#
#
# Indices 1 2 3 4 5 6 
#
# 1 0.013549 -0.001051 -0.016064 0.000000 0.000000 0.000000
# 2 -0.001051 0.008280 -0.006425 0.000000 0.000000 0.000000
# 3 -0.016064 -0.006425 0.084534 0.000000 0.000000 0.000000
# 4 0.000000 0.000000 0.000000 0.266261 0.000000 0.000000
# 5 0.000000 0.000000 0.000000 0.000000 0.061647 0.000000
# 6 0.000000 0.000000 0.000000 0.000000 0.000000 0.116559
#
#
# Mechanical properties :
#
#
# Convention : Reuss Voigt Hill
#
# Bulk Modulus (GPa) = 16.86827 43.37694 30.12261
# Shear Modulus (GPa) = 8.09495 18.28156 13.18825
#
# Velocity S-wave (km/s) = 2.15180 3.23372 2.74656
# Velocity P-wave (km/s) = 3.97772 6.22527 5.22380
#
# Compressibility (1/GPa) = 0.05928289
#
# Stress axis : x y z
#
# Youngs Moduli (GPa) = 73.80740 120.77565 11.82963
#
# Poissons Ratio (x) = 0.12697 0.19003
# Poissons Ratio (y) = 0.07759 0.07600
# Poissons Ratio (z) = 1.18562 0.77594
#
# Static dielectric constant tensor:
#      x y z
#    x 1.594250 0.000000 0.000000 
#    y 0.000000 1.587210 0.000000 
#    z 0.000000 0.000000 1.568760 
# 
# From -- ./inp_files/26389.got.cif
#   From: 2010.05.17/outbox.cif.g08.bks.cpg/sg62_14_cif.got.tgz:26389.got - 2010.06.03 15:25:27.
