data_PCOD9465126
_publ_section_title
;
Structure prediction by ZEFSAII (Michael W. Deem and Ramdas Pophale) SiO2 
 PCOD9465126
Probable space group: P N M A
;
_chemical_formula_sum "Si O2"
_cell_formula_units_Z 64
_cell_length_a 25.358256
_cell_length_b 8.273165
_cell_length_c 15.155959
_cell_angle_alpha 90.000000
_cell_angle_beta 90.000000
_cell_angle_gamma 90.000000
_cell_volume 3179.614652
_symmetry_space_group_name_H-M "P N M A"
_symmetry_group_IT_number 62
_symmetry_cell_setting 'orthorhombic'
loop_
_space_group_symop_operation_xyz
x,y,z
1/2-x,-y,1/2+z
1/2+x,1/2-y,1/2-z
-x,1/2+y,-z
-x,-y,-z
1/2+x,y,1/2-z
1/2-x,1/2+y,1/2+z
x,1/2-y,z
loop_
_atom_site_type_symbol
_atom_site_label
_atom_site_fract_x
_atom_site_fract_y
_atom_site_fract_z
Si Si1 0.146905 0.057981 0.874022
Si Si2 0.627278 0.560654 0.440526
Si Si3 0.938708 0.054107 0.248122
Si Si4 0.741008 0.553813 0.374398
Si Si5 0.167780 0.945421 0.492403
Si Si6 0.235863 0.946431 0.329470
Si Si7 0.517146 0.440654 0.403381
Si Si8 0.448076 0.445212 0.051064
O O1 0.143379 0.250000 0.887775
O O2 0.207696 0.009009 0.870194
O O3 0.117443 0.010612 0.784760
O O4 0.119662 0.969210 0.955533
O O5 0.625763 0.750000 0.421382
O O6 0.685614 0.499295 0.417399
O O7 0.578591 0.480597 0.390933
O O8 0.937381 0.250000 0.246770
O O9 0.950943 0.001836 0.347009
O O10 0.981170 0.994182 0.176068
O O11 0.742988 0.750000 0.376030
O O12 0.790941 0.493873 0.430645
O O13 0.737349 0.500323 0.272232
O O14 0.166998 0.750000 0.490615
O O15 0.191017 0.002045 0.397745
O O16 0.108200 0.001721 0.511515
O O17 0.233172 0.750000 0.326859
O O18 0.500000 0.500000 0.500000
O O19 0.510361 0.250000 0.403906
O O20 0.446976 0.250000 0.049777
O O21 0.500000 0.500000 0.000000
#
# Coordination Sequence:
#
# PCOD9465126 Si02
#       8
#     8   8   8   8   8   8   8   8
#     4  11  20  33  58  85 113 153 197 238 288 349
#     4  11  22  35  54  82 118 153 188 237 292 347
#     4  10  22  39  58  84 118 152 194 249 299 344
#     4  10  21  37  57  84 118 153 190 236 290 342
#     4  10  20  38  62  86 115 151 192 239 291 346
#     4   9  19  35  56  84 116 150 190 237 285 341
#     4  11  22  36  56  81 115 155 194 240 293 349
#     4  10  23  42  64  88 116 154 196 246 299 347
#
# _framework density 20.128226000000002
#
# number of rings (size 3 to 8) (size 9 to 14) (size 15 to 20)
#    0.000    1.750    2.500    1.875    0.000    3.000 
#    0.000    2.500    0.000    0.000    0.000    0.000 
#    0.000    0.000    0.000    0.000    0.000    0.000 
#
# Total GULP energy -357359.025008 kJ/mol
# GULP energy per Si atom -5583.734766 kJ/mol
# Density = 2.008241 g / cm^3
# Si number density = 20.128226 Si / 1000 Ang^3
#
#
#
# Elastic Constant Matrix: (Units=GPa)
#
#
# Indices 1 2 3 4 5 6 
#
# 1 158.0240 10.2175 67.1310 0.0000 0.0000 0.0000
# 2 10.2175 9.0020 2.1918 0.0000 0.0000 0.0000
# 3 67.1310 2.1918 114.1240 0.0000 0.0000 0.0000
# 4 0.0000 0.0000 0.0000 18.6046 0.0000 0.0000
# 5 0.0000 0.0000 0.0000 0.0000 34.5109 0.0000
# 6 0.0000 0.0000 0.0000 0.0000 0.0000 26.5041
#
#
#
# Elastic Compliance Matrix: (Units=1/GPa)
#
#
# Indices 1 2 3 4 5 6 
#
# 1 0.009121 -0.009089 -0.005191 0.000000 0.000000 0.000000
# 2 -0.009089 0.120665 0.003029 0.000000 0.000000 0.000000
# 3 -0.005191 0.003029 0.011757 0.000000 0.000000 0.000000
# 4 0.000000 0.000000 0.000000 0.053750 0.000000 0.000000
# 5 0.000000 0.000000 0.000000 0.000000 0.028976 0.000000
# 6 0.000000 0.000000 0.000000 0.000000 0.000000 0.037730
#
#
# Mechanical properties :
#
#
# Convention : Reuss Voigt Hill
#
# Bulk Modulus (GPa) = 8.40035 48.91451 28.65743
# Shear Modulus (GPa) = 15.42345 29.36458 22.39401
#
# Velocity S-wave (km/s) = 2.77114 3.82367 3.33914
# Velocity P-wave (km/s) = 3.79756 6.62179 5.39766
#
# Compressibility (1/GPa) = 0.11904263
#
# Stress axis : x y z
#
# Youngs Moduli (GPa) = 109.63886 8.28739 85.05219
#
# Poissons Ratio (x) = 0.07532 0.44147
# Poissons Ratio (y) = 0.99647 -0.25761
# Poissons Ratio (z) = 0.56909 -0.02510
#
# Static dielectric constant tensor:
#      x y z
#    x 1.719990 0.000000 0.000000 
#    y 0.000000 1.699610 0.000000 
#    z 0.000000 0.000000 1.746000 
# 
# From -- ./inp_files/20856.got.cif
#   From: 2010.05.17/outbox.cif.g08.bks.cpg/sg62_11_cif.got.tgz:20856.got - 2010.06.03 15:25:27.
