data_PCOD9465436
_publ_section_title
;
Structure prediction by ZEFSAII (Michael W. Deem and Ramdas Pophale) SiO2 
 PCOD9465436
Probable space group: P N M A
;
_chemical_formula_sum "Si O2"
_cell_formula_units_Z 48
_cell_length_a 14.642240
_cell_length_b 24.770404
_cell_length_c 5.845112
_cell_angle_alpha 90.000000
_cell_angle_beta 90.000000
_cell_angle_gamma 90.000000
_cell_volume 2119.988222
_symmetry_space_group_name_H-M "P N M A"
_symmetry_group_IT_number 62
_symmetry_cell_setting 'orthorhombic'
loop_
_space_group_symop_operation_xyz
x,y,z
1/2-x,-y,1/2+z
1/2+x,1/2-y,1/2-z
-x,1/2+y,-z
-x,-y,-z
1/2+x,y,1/2-z
1/2-x,1/2+y,1/2+z
x,1/2-y,z
loop_
_atom_site_type_symbol
_atom_site_label
_atom_site_fract_x
_atom_site_fract_y
_atom_site_fract_z
Si Si1 0.291824 0.454311 0.039088
Si Si2 0.829201 0.250000 0.205664
Si Si3 0.899982 0.520646 0.757005
Si Si4 0.151091 0.866431 0.882833
Si Si5 0.729838 0.250000 0.697024
Si Si6 0.491107 0.914783 0.387176
Si Si7 0.688907 0.370105 0.792989
O O1 0.197132 0.482181 0.111038
O O2 0.346697 0.417498 0.217138
O O3 0.359729 0.503979 0.986868
O O4 0.254593 0.409696 0.856592
O O5 0.875371 0.308683 0.219456
O O6 0.772071 0.250000 0.441754
O O7 0.788172 0.250000 0.940711
O O8 0.967267 0.471292 0.806872
O O9 0.945590 0.573769 0.862093
O O10 0.256327 0.865882 0.969403
O O11 0.077878 0.876703 0.081343
O O12 0.682033 0.308418 0.706361
O O13 0.412681 0.893199 0.222587
#
# Coordination Sequence:
#
# PCOD9465436 Si02
#       7
#     8   4   8   8   4   8   8
#     4  11  21  40  65  90 132 175 221 263 350 392
#     4  10  22  39  74  97 135 175 232 277 346 407
#     4  10  22  39  62  96 131 173 220 276 322 414
#     4  11  22  42  66  97 132 177 221 282 340 407
#     4  10  20  43  68 101 127 179 224 279 342 405
#     4  10  22  42  62 100 132 169 228 268 340 403
#     4  10  22  41  67  90 133 173 220 277 336 404
#
# _framework density 22.641635999999998
#
# number of rings (size 3 to 8) (size 9 to 14) (size 15 to 20)
#    0.000    1.667    3.333    1.000    0.000    1.333 
#    6.000    0.000    0.000    2.000    0.000    0.000 
#    0.000    0.000    0.000    0.000    0.000    0.000 
#
# Total GULP energy -267222.668256 kJ/mol
# GULP energy per Si atom -5567.138922 kJ/mol
# Density = 2.259010 g / cm^3
# Si number density = 22.641636 Si / 1000 Ang^3
#
#
#
# Elastic Constant Matrix: (Units=GPa)
#
#
# Indices 1 2 3 4 5 6 
#
# 1 102.7979 18.9245 16.6280 0.0000 0.0000 0.0000
# 2 18.9245 85.4665 5.8863 0.0000 0.0000 0.0000
# 3 16.6280 5.8863 35.3613 0.0000 0.0000 0.0000
# 4 0.0000 0.0000 0.0000 30.4776 0.0000 0.0000
# 5 0.0000 0.0000 0.0000 0.0000 19.9111 0.0000
# 6 0.0000 0.0000 0.0000 0.0000 0.0000 1.4324
#
#
#
# Elastic Compliance Matrix: (Units=1/GPa)
#
#
# Indices 1 2 3 4 5 6 
#
# 1 0.010883 -0.002081 -0.004771 0.000000 0.000000 0.000000
# 2 -0.002081 0.012234 -0.001058 0.000000 0.000000 0.000000
# 3 -0.004771 -0.001058 0.030699 0.000000 0.000000 0.000000
# 4 0.000000 0.000000 0.000000 0.032811 0.000000 0.000000
# 5 0.000000 0.000000 0.000000 0.000000 0.050223 0.000000
# 6 0.000000 0.000000 0.000000 0.000000 0.000000 0.698113
#
#
# Mechanical properties :
#
#
# Convention : Reuss Voigt Hill
#
# Bulk Modulus (GPa) = 26.31861 34.05592 30.18727
# Shear Modulus (GPa) = 5.79073 22.51001 14.15037
#
# Velocity S-wave (km/s) = 1.60097 3.15649 2.50265
# Velocity P-wave (km/s) = 3.88159 5.32527 4.65968
#
# Compressibility (1/GPa) = 0.03799592
#
# Stress axis : x y z
#
# Youngs Moduli (GPa) = 91.88917 81.73829 32.57433
#
# Poissons Ratio (x) = 0.17011 0.15541
# Poissons Ratio (y) = 0.19123 0.03446
# Poissons Ratio (z) = 0.43840 0.08647
#
# Static dielectric constant tensor:
#      x y z
#    x 1.842970 0.000000 0.000000 
#    y 0.000000 1.871450 0.000000 
#    z 0.000000 0.000000 2.050460 
# 
# From -- ./inp_files/1198.got.cif
#   From: 2010.05.17/outbox.cif.g08.bks.cpg/sg62_1_cif.got.tgz:1198.got - 2010.06.03 15:25:27.
