data_PCOD9465935
_publ_section_title
;
Structure prediction by ZEFSAII (Michael W. Deem and Ramdas Pophale) SiO2 
 PCOD9465935
Probable space group: P N M A
;
_chemical_formula_sum "Si O2"
_cell_formula_units_Z 56
_cell_length_a 7.785406
_cell_length_b 16.302934
_cell_length_c 21.410472
_cell_angle_alpha 90.000000
_cell_angle_beta 90.000000
_cell_angle_gamma 90.000000
_cell_volume 2717.523306
_symmetry_space_group_name_H-M "P N M A"
_symmetry_group_IT_number 62
_symmetry_cell_setting 'orthorhombic'
loop_
_space_group_symop_operation_xyz
x,y,z
1/2-x,-y,1/2+z
1/2+x,1/2-y,1/2-z
-x,1/2+y,-z
-x,-y,-z
1/2+x,y,1/2-z
1/2-x,1/2+y,1/2+z
x,1/2-y,z
loop_
_atom_site_type_symbol
_atom_site_label
_atom_site_fract_x
_atom_site_fract_y
_atom_site_fract_z
Si Si1 0.117365 0.652823 0.301598
Si Si2 0.903752 0.419836 0.302978
Si Si3 0.793192 0.519560 0.992585
Si Si4 0.997595 0.548387 0.407148
Si Si5 0.922128 0.909701 0.881518
Si Si6 0.073610 0.750000 0.850325
Si Si7 0.914977 0.750000 0.728235
Si Si8 0.051881 0.050603 0.805566
O O1 0.117959 0.750000 0.293065
O O2 0.994982 0.624628 0.358846
O O3 0.298372 0.613811 0.320820
O O4 0.075750 0.605239 0.236829
O O5 0.711376 0.404336 0.325014
O O6 0.895173 0.476785 0.241646
O O7 0.992152 0.471949 0.358467
O O8 0.993761 0.333958 0.291889
O O9 0.670069 0.456800 0.952399
O O10 0.810662 0.594617 0.944163
O O11 0.670352 0.541113 0.050971
O O12 0.000000 0.500000 0.000000
O O13 0.059386 0.836924 0.884466
O O14 0.994490 0.000719 0.866695
O O15 0.234075 0.750000 0.805191
O O16 0.913764 0.750000 0.802811
#
# Coordination Sequence:
#
# PCOD9465935 Si02
#       8
#     8   8   8   8   8   4   4   8
#     4  11  23  40  63  94 132 166 214 275 338 393
#     4  10  21  38  61  90 128 167 209 260 325 395
#     4  10  21  41  70  89 121 168 224 267 310 378
#     4   9  22  41  66  94 121 170 220 264 322 383
#     4  11  22  39  62  92 124 165 212 263 322 393
#     4  12  26  34  54  96 132 162 208 255 322 401
#     4  12  24  34  58  90 134 170 198 255 320 401
#     4  11  21  36  62  93 125 167 212 263 334 406
#
# _framework density 20.606999999999999
#
# number of rings (size 3 to 8) (size 9 to 14) (size 15 to 20)
#    0.000    1.429    2.857    2.571    6.000    0.000 
#    1.286    0.000    6.286    0.000    0.000    0.000 
#    0.000    0.000    0.000    0.000    0.000    0.000 
#
# Total GULP energy -311884.851025 kJ/mol
# GULP energy per Si atom -5569.372340 kJ/mol
# Density = 2.056010 g / cm^3
# Si number density = 20.607000 Si / 1000 Ang^3
#
#
#
# Elastic Constant Matrix: (Units=GPa)
#
#
# Indices 1 2 3 4 5 6 
#
# 1 87.2167 26.0948 16.3562 0.0000 0.0000 0.0000
# 2 26.0948 140.0696 19.0786 0.0000 0.0000 0.0000
# 3 16.3562 19.0786 75.0998 0.0000 0.0000 0.0000
# 4 0.0000 0.0000 0.0000 9.2265 0.0000 0.0000
# 5 0.0000 0.0000 0.0000 0.0000 36.6612 0.0000
# 6 0.0000 0.0000 0.0000 0.0000 0.0000 36.7800
#
#
#
# Elastic Compliance Matrix: (Units=1/GPa)
#
#
# Indices 1 2 3 4 5 6 
#
# 1 0.012485 -0.002026 -0.002205 0.000000 0.000000 0.000000
# 2 -0.002026 0.007724 -0.001521 0.000000 0.000000 0.000000
# 3 -0.002205 -0.001521 0.014182 0.000000 0.000000 0.000000
# 4 0.000000 0.000000 0.000000 0.108384 0.000000 0.000000
# 5 0.000000 0.000000 0.000000 0.000000 0.027277 0.000000
# 6 0.000000 0.000000 0.000000 0.000000 0.000000 0.027189
#
#
# Mechanical properties :
#
#
# Convention : Reuss Voigt Hill
#
# Bulk Modulus (GPa) = 43.68975 47.27171 45.48073
# Shear Modulus (GPa) = 23.10829 32.59064 27.84946
#
# Velocity S-wave (km/s) = 3.35234 3.98116 3.68020
# Velocity P-wave (km/s) = 6.01927 6.64246 6.33853
#
# Compressibility (1/GPa) = 0.02288866
#
# Stress axis : x y z
#
# Youngs Moduli (GPa) = 80.09483 129.46884 70.51113
#
# Poissons Ratio (x) = 0.26226 0.15545
# Poissons Ratio (y) = 0.16225 0.10725
# Poissons Ratio (z) = 0.17657 0.19692
#
# Static dielectric constant tensor:
#      x y z
#    x 1.856670 0.000000 0.000000 
#    y 0.000000 1.833490 0.000000 
#    z 0.000000 0.000000 1.857350 
# 
# From -- ./inp_files/26037.got.cif
#   From: 2010.05.17/outbox.cif.g08.bks.cpg/sg62_14_cif.got.tgz:26037.got - 2010.06.03 15:25:27.
