data_PCOD9465236
_publ_section_title
;
Structure prediction by ZEFSAII (Michael W. Deem and Ramdas Pophale) SiO2 
 PCOD9465236
Probable space group: P N M A
;
_chemical_formula_sum "Si O2"
_cell_formula_units_Z 64
_cell_length_a 17.895241
_cell_length_b 13.728686
_cell_length_c 11.482698
_cell_angle_alpha 90.000000
_cell_angle_beta 90.000000
_cell_angle_gamma 90.000000
_cell_volume 2821.047939
_symmetry_space_group_name_H-M "P N M A"
_symmetry_group_IT_number 62
_symmetry_cell_setting 'orthorhombic'
loop_
_space_group_symop_operation_xyz
x,y,z
1/2-x,-y,1/2+z
1/2+x,1/2-y,1/2-z
-x,1/2+y,-z
-x,-y,-z
1/2+x,y,1/2-z
1/2-x,1/2+y,1/2+z
x,1/2-y,z
loop_
_atom_site_type_symbol
_atom_site_label
_atom_site_fract_x
_atom_site_fract_y
_atom_site_fract_z
Si Si1 0.240339 0.139167 0.770165
Si Si2 0.419044 0.139314 0.740058
Si Si3 0.150385 0.507910 0.655739
Si Si4 0.382345 0.639338 0.859387
Si Si5 0.105888 0.942993 0.914803
Si Si6 0.055584 0.439310 0.118995
Si Si7 0.541086 0.861071 0.988024
Si Si8 0.750413 0.514868 0.528906
O O1 0.228067 0.250000 0.799774
O O2 0.328464 0.129100 0.736988
O O3 0.175835 0.103940 0.679686
O O4 0.232512 0.069575 0.880376
O O5 0.437105 0.250000 0.702013
O O6 0.454066 0.050658 0.667914
O O7 0.448343 0.128603 0.873220
O O8 0.129211 0.547654 0.780993
O O9 0.087643 0.553689 0.573781
O O10 0.227753 0.536431 0.592018
O O11 0.355448 0.750000 0.862713
O O12 0.402371 0.611884 0.725572
O O13 0.457970 0.633231 0.936295
O O14 0.321405 0.569327 0.916315
O O15 0.182101 0.908706 0.976263
O O16 0.025372 0.893295 0.906667
O O17 0.092391 0.040167 0.993943
O O18 0.568670 0.750000 0.960209
#
# Coordination Sequence:
#
# PCOD9465236 Si02
#       8
#     8   8   8   8   8   8   8   8
#     4  10  21  38  61  96 136 175 218 273 334 400
#     4  10  20  38  68  97 128 178 226 278 347 405
#     4  11  21  39  66  96 133 179 227 276 345 400
#     4  11  24  42  69 101 134 175 225 287 339 396
#     4  10  25  40  66  96 129 184 221 269 342 411
#     4  11  21  45  65  92 139 176 225 277 335 418
#     4  10  21  39  66 102 132 170 232 288 341 402
#     4  11  23  41  68  95 135 172 226 283 345 393
#
# _framework density 22.686603999999999
#
# number of rings (size 3 to 8) (size 9 to 14) (size 15 to 20)
#    0.000    1.500    3.750    0.750    3.500    1.500 
#    0.000   11.875    0.000    0.750    0.000    0.000 
#    0.000    0.000    0.000    0.000    0.000    0.000 
#
# Total GULP energy -356523.670826 kJ/mol
# GULP energy per Si atom -5570.682357 kJ/mol
# Density = 2.263497 g / cm^3
# Si number density = 22.686604 Si / 1000 Ang^3
#
#
#
# Elastic Constant Matrix: (Units=GPa)
#
#
# Indices 1 2 3 4 5 6 
#
# 1 91.8902 16.3421 30.0716 0.0000 0.0000 0.0000
# 2 16.3421 97.6902 33.6846 0.0000 0.0000 0.0000
# 3 30.0716 33.6846 114.7967 0.0000 0.0000 0.0000
# 4 0.0000 0.0000 0.0000 12.1234 0.0000 0.0000
# 5 0.0000 0.0000 0.0000 0.0000 26.2818 0.0000
# 6 0.0000 0.0000 0.0000 0.0000 0.0000 21.2711
#
#
#
# Elastic Compliance Matrix: (Units=1/GPa)
#
#
# Indices 1 2 3 4 5 6 
#
# 1 0.011995 -0.001027 -0.002841 0.000000 0.000000 0.000000
# 2 -0.001027 0.011477 -0.003099 0.000000 0.000000 0.000000
# 3 -0.002841 -0.003099 0.010364 0.000000 0.000000 0.000000
# 4 0.000000 0.000000 0.000000 0.082485 0.000000 0.000000
# 5 0.000000 0.000000 0.000000 0.000000 0.038049 0.000000
# 6 0.000000 0.000000 0.000000 0.000000 0.000000 0.047012
#
#
# Mechanical properties :
#
#
# Convention : Reuss Voigt Hill
#
# Bulk Modulus (GPa) = 50.24304 51.61932 50.93118
# Shear Modulus (GPa) = 22.52767 26.88716 24.70742
#
# Velocity S-wave (km/s) = 3.15460 3.44634 3.30369
# Velocity P-wave (km/s) = 5.95511 6.21603 6.08697
#
# Compressibility (1/GPa) = 0.01990325
#
# Stress axis : x y z
#
# Youngs Moduli (GPa) = 83.36900 87.13332 96.48412
#
# Poissons Ratio (x) = 0.08949 0.27409
# Poissons Ratio (y) = 0.08562 0.29896
# Poissons Ratio (z) = 0.23683 0.26999
#
# Static dielectric constant tensor:
#      x y z
#    x 1.970520 0.000000 0.000000 
#    y 0.000000 1.829200 0.000000 
#    z 0.000000 0.000000 1.912560 
# 
# From -- ./inp_files/14353.got.cif
#   From: 2010.05.17/outbox.cif.g08.bks.cpg/sg62_8_cif.got.tgz:14353.got - 2010.06.03 15:25:27.
