data_PCOD9465152
_publ_section_title
;
Structure prediction by ZEFSAII (Michael W. Deem and Ramdas Pophale) SiO2 
 PCOD9465152
Probable space group: P N M A
;
_chemical_formula_sum "Si O2"
_cell_formula_units_Z 64
_cell_length_a 5.716638
_cell_length_b 26.259511
_cell_length_c 19.090636
_cell_angle_alpha 90.000000
_cell_angle_beta 90.000000
_cell_angle_gamma 90.000000
_cell_volume 2865.812175
_symmetry_space_group_name_H-M "P N M A"
_symmetry_group_IT_number 62
_symmetry_cell_setting 'orthorhombic'
loop_
_space_group_symop_operation_xyz
x,y,z
1/2-x,-y,1/2+z
1/2+x,1/2-y,1/2-z
-x,1/2+y,-z
-x,-y,-z
1/2+x,y,1/2-z
1/2-x,1/2+y,1/2+z
x,1/2-y,z
loop_
_atom_site_type_symbol
_atom_site_label
_atom_site_fract_x
_atom_site_fract_y
_atom_site_fract_z
Si Si1 0.330136 0.115043 0.475575
Si Si2 0.913458 0.551386 0.262444
Si Si3 0.021856 0.448451 0.578837
Si Si4 0.852383 0.665332 0.214420
Si Si5 0.222489 0.447856 0.044452
Si Si6 0.721607 0.808903 0.775014
Si Si7 0.066815 0.838641 0.576754
Si Si8 0.667423 0.307128 0.552250
O O1 0.151810 0.092620 0.531588
O O2 0.452586 0.064719 0.444674
O O3 0.502377 0.150245 0.519239
O O4 0.209030 0.151058 0.418706
O O5 0.657916 0.524759 0.259371
O O6 0.960087 0.567237 0.342060
O O7 0.881307 0.603917 0.219782
O O8 0.154029 0.502453 0.573431
O O9 0.772900 0.451291 0.539568
O O10 0.614961 0.681824 0.257709
O O11 0.803179 0.681384 0.134339
O O12 0.335283 0.396547 0.075666
O O13 0.976489 0.831503 0.755190
O O14 0.731696 0.750000 0.750373
O O15 0.683078 0.810799 0.858639
O O16 0.115149 0.812188 0.501794
O O17 0.573283 0.250000 0.545978
#
# Coordination Sequence:
#
# PCOD9465152 Si02
#       8
#     8   8   8   8   8   8   8   8
#     4  10  21  37  65  91 125 168 215 272 336 389
#     4  10  22  36  60  87 122 170 217 267 321 387
#     4  10  20  38  62  93 125 166 222 272 325 401
#     4  10  23  40  61  88 127 176 224 276 332 388
#     4   9  21  37  63  95 126 165 214 273 333 396
#     4  10  23  43  70  98 129 174 219 267 335 416
#     4  10  23  41  64  96 129 171 214 276 338 401
#     4  11  25  40  62  93 130 175 229 286 334 394
#
# _framework density 22.332236999999999
#
# number of rings (size 3 to 8) (size 9 to 14) (size 15 to 20)
#    0.000    2.000    0.000    2.250   17.500    1.500 
#    0.000    1.250    0.000    0.000    0.000    0.000 
#    0.000    0.000    0.000    0.000    0.000    0.000 
#
# Total GULP energy -356407.414960 kJ/mol
# GULP energy per Si atom -5568.865859 kJ/mol
# Density = 2.228141 g / cm^3
# Si number density = 22.332237 Si / 1000 Ang^3
#
#
#
# Elastic Constant Matrix: (Units=GPa)
#
#
# Indices 1 2 3 4 5 6 
#
# 1 116.1075 4.4074 17.2178 0.0000 0.0000 0.0000
# 2 4.4074 70.4798 0.6736 0.0000 0.0000 0.0000
# 3 17.2178 0.6736 35.2966 0.0000 0.0000 0.0000
# 4 0.0000 0.0000 0.0000 -20.1689 0.0000 0.0000
# 5 0.0000 0.0000 0.0000 0.0000 22.0263 0.0000
# 6 0.0000 0.0000 0.0000 0.0000 0.0000 10.5113
#
#
#
# Elastic Compliance Matrix: (Units=1/GPa)
#
#
# Indices 1 2 3 4 5 6 
#
# 1 0.009305 -0.000539 -0.004529 0.000000 0.000000 0.000000
# 2 -0.000539 0.014222 -0.000009 0.000000 0.000000 0.000000
# 3 -0.004529 -0.000009 0.030541 0.000000 0.000000 0.000000
# 4 0.000000 0.000000 0.000000 -0.049581 0.000000 0.000000
# 5 0.000000 0.000000 0.000000 0.000000 0.045400 0.000000
# 6 0.000000 0.000000 0.000000 0.000000 0.000000 0.095135
#
#
# Mechanical properties :
#
#
# Convention : Reuss Voigt Hill
#
# Bulk Modulus (GPa) = 22.77088 29.60907 26.18997
# Shear Modulus (GPa) = 29.44428 15.77942 22.61185
#
# Velocity S-wave (km/s) = 3.63501 2.66103 3.18547
# Velocity P-wave (km/s) = 5.27601 4.76746 5.02817
#
# Compressibility (1/GPa) = 0.04391574
#
# Stress axis : x y z
#
# Youngs Moduli (GPa) = 107.47251 70.31253 32.74331
#
# Poissons Ratio (x) = 0.03787 0.14828
# Poissons Ratio (y) = 0.05788 0.00029
# Poissons Ratio (z) = 0.48670 0.00061
#
# Static dielectric constant tensor:
#      x y z
#    x 2.110720 0.000000 0.000000 
#    y 0.000000 1.804650 0.000000 
#    z 0.000000 0.000000 1.819500 
# 
# From -- ./inp_files/21679.got.cif
#   From: 2010.05.17/outbox.cif.g08.bks.cpg/sg62_11_cif.got.tgz:21679.got - 2010.06.03 15:25:27.
