data_PCOD9465481
_publ_section_title
;
Structure prediction by ZEFSAII (Michael W. Deem and Ramdas Pophale) SiO2 
 PCOD9465481
Probable space group: P N M A
;
_chemical_formula_sum "Si O2"
_cell_formula_units_Z 40
_cell_length_a 20.105550
_cell_length_b 14.026061
_cell_length_c 7.161015
_cell_angle_alpha 90.000000
_cell_angle_beta 90.000000
_cell_angle_gamma 90.000000
_cell_volume 2019.418194
_symmetry_space_group_name_H-M "P N M A"
_symmetry_group_IT_number 62
_symmetry_cell_setting 'orthorhombic'
loop_
_space_group_symop_operation_xyz
x,y,z
1/2-x,-y,1/2+z
1/2+x,1/2-y,1/2-z
-x,1/2+y,-z
-x,-y,-z
1/2+x,y,1/2-z
1/2-x,1/2+y,1/2+z
x,1/2-y,z
loop_
_atom_site_type_symbol
_atom_site_label
_atom_site_fract_x
_atom_site_fract_y
_atom_site_fract_z
Si Si1 0.031369 0.977568 0.703991
Si Si2 0.888825 0.537478 0.753050
Si Si3 0.124500 0.361082 0.645539
Si Si4 0.632759 0.861027 0.012253
Si Si5 0.211612 0.360648 0.981995
O O1 0.087443 0.899041 0.658880
O O2 0.965658 0.946420 0.813461
O O3 0.069588 0.074682 0.751514
O O4 0.000000 0.000000 0.500000
O O5 0.872851 0.596994 0.563119
O O6 0.883320 0.427383 0.690320
O O7 0.835088 0.569643 0.901859
O O8 0.106663 0.250000 0.639842
O O9 0.192261 0.371686 0.763755
O O10 0.620252 0.750000 0.045466
O O11 0.711066 0.875588 0.976867
O O12 0.195376 0.250000 0.029791
#
# Coordination Sequence:
#
# PCOD9465481 Si02
#       5
#     8   8   8   8   8
#     4   8  18  33  52  81 104 139 180 215 265 313
#     4  10  21  34  58  80 106 146 178 218 271 322
#     4   9  18  34  55  79 108 139 179 221 264 319
#     4   9  19  34  53  79 110 140 177 223 266 315
#     4  10  21  35  54  81 107 139 180 223 267 316
#
# _framework density 19.807684999999999
#
# number of rings (size 3 to 8) (size 9 to 14) (size 15 to 20)
#    0.000    3.200    0.000    0.600    5.600    8.800 
#    0.000    0.000    0.000    4.800    0.000    0.000 
#    0.000    0.000    0.000    0.000    0.000    0.000 
#
# Total GULP energy -222774.290296 kJ/mol
# GULP energy per Si atom -5569.357257 kJ/mol
# Density = 1.976260 g / cm^3
# Si number density = 19.807685 Si / 1000 Ang^3
#
#
#
# Elastic Constant Matrix: (Units=GPa)
#
#
# Indices 1 2 3 4 5 6 
#
# 1 100.5006 66.1947 14.1696 0.0000 0.0000 0.0000
# 2 66.1947 127.5495 29.1607 0.0000 0.0000 0.0000
# 3 14.1696 29.1607 49.7823 0.0000 0.0000 0.0000
# 4 0.0000 0.0000 0.0000 15.3628 0.0000 0.0000
# 5 0.0000 0.0000 0.0000 0.0000 7.0959 0.0000
# 6 0.0000 0.0000 0.0000 0.0000 0.0000 -25.1691
#
#
#
# Elastic Compliance Matrix: (Units=1/GPa)
#
#
# Indices 1 2 3 4 5 6 
#
# 1 0.015123 -0.007926 0.000338 0.000000 0.000000 0.000000
# 2 -0.007926 0.013206 -0.005480 0.000000 0.000000 0.000000
# 3 0.000338 -0.005480 0.023201 0.000000 0.000000 0.000000
# 4 0.000000 0.000000 0.000000 0.065092 0.000000 0.000000
# 5 0.000000 0.000000 0.000000 0.000000 0.140927 0.000000
# 6 0.000000 0.000000 0.000000 0.000000 0.000000 -0.039731
#
#
# Mechanical properties :
#
#
# Convention : Reuss Voigt Hill
#
# Bulk Modulus (GPa) = 39.37722 55.20915 47.29318
# Shear Modulus (GPa) = 19.80848 10.67841 15.24345
#
# Velocity S-wave (km/s) = 3.16577 2.32438 2.77713
# Velocity P-wave (km/s) = 5.76938 5.92763 5.84904
#
# Compressibility (1/GPa) = 0.02539540
#
# Stress axis : x y z
#
# Youngs Moduli (GPa) = 66.12572 75.72286 43.10147
#
# Poissons Ratio (x) = 0.60015 -0.01457
# Poissons Ratio (y) = 0.52408 0.23619
# Poissons Ratio (z) = -0.02236 0.41494
#
# Static dielectric constant tensor:
#      x y z
#    x 1.754250 0.000000 0.000000 
#    y 0.000000 1.699320 0.000000 
#    z 0.000000 0.000000 1.790140 
# 
# From -- ./inp_files/7468.got.cif
#   From: 2010.05.17/outbox.cif.g08.bks.cpg/sg62_4_cif.got.tgz:7468.got - 2010.06.03 15:25:27.
