data_PCOD9465857
_publ_section_title
;
Structure prediction by ZEFSAII (Michael W. Deem and Ramdas Pophale) SiO2 
 PCOD9465857
Probable space group: P N M A
;
_chemical_formula_sum "Si O2"
_cell_formula_units_Z 44
_cell_length_a 5.098437
_cell_length_b 13.273295
_cell_length_c 26.544191
_cell_angle_alpha 90.000000
_cell_angle_beta 90.000000
_cell_angle_gamma 90.000000
_cell_volume 1796.326586
_symmetry_space_group_name_H-M "P N M A"
_symmetry_group_IT_number 62
_symmetry_cell_setting 'orthorhombic'
loop_
_space_group_symop_operation_xyz
x,y,z
1/2-x,-y,1/2+z
1/2+x,1/2-y,1/2-z
-x,1/2+y,-z
-x,-y,-z
1/2+x,y,1/2-z
1/2-x,1/2+y,1/2+z
x,1/2-y,z
loop_
_atom_site_type_symbol
_atom_site_label
_atom_site_fract_x
_atom_site_fract_y
_atom_site_fract_z
Si Si1 0.637061 0.366219 0.645483
Si Si2 0.974714 0.250000 0.216615
Si Si3 0.502928 0.003578 0.094901
Si Si4 0.304284 0.636780 0.466506
Si Si5 0.497766 0.868185 0.576994
Si Si6 0.095795 0.032624 0.215882
O O1 0.656761 0.250000 0.661165
O O2 0.917387 0.422514 0.637733
O O3 0.538836 0.367004 0.586839
O O4 0.475173 0.436793 0.682288
O O5 0.674872 0.250000 0.235320
O O6 0.039776 0.143006 0.191407
O O7 0.234561 0.061571 0.097050
O O8 0.726316 0.089452 0.095160
O O9 0.567593 0.939127 0.044756
O O10 0.197043 0.750000 0.471136
O O11 0.470268 0.617747 0.516133
O O12 0.465418 0.750000 0.586877
O O13 0.887065 0.031031 0.262005
#
# Coordination Sequence:
#
# PCOD9465857 Si02
#       6
#     8   4   8   8   8   8
#     4   9  21  41  61  91 123 157 202 245 299 356
#     4   8  16  34  60  86 110 146 188 232 286 356
#     4  10  21  38  59  81 120 156 198 245 295 352
#     4   8  18  37  59  84 118 159 198 247 297 350
#     4  11  21  37  58  86 118 158 205 246 296 352
#     4  10  21  40  65  87 118 154 196 242 299 355
#
# _framework density 24.494433999999998
#
# number of rings (size 3 to 8) (size 9 to 14) (size 15 to 20)
#    1.091    1.455    0.000    1.636    0.000    2.182 
#    3.273    7.273    4.000    0.000    0.000    0.000 
#    0.000    0.000    0.000    0.000    0.000    0.000 
#
# Total GULP energy -245846.115813 kJ/mol
# GULP energy per Si atom -5587.411723 kJ/mol
# Density = 2.443868 g / cm^3
# Si number density = 24.494434 Si / 1000 Ang^3
#
#
#
# Elastic Constant Matrix: (Units=GPa)
#
#
# Indices 1 2 3 4 5 6 
#
# 1 84.3185 46.5305 15.2923 0.0000 0.0000 0.0000
# 2 46.5305 232.2063 55.0468 0.0000 0.0000 0.0000
# 3 15.2923 55.0468 67.2250 0.0000 0.0000 0.0000
# 4 0.0000 0.0000 0.0000 48.4252 0.0000 0.0000
# 5 0.0000 0.0000 0.0000 0.0000 24.4333 0.0000
# 6 0.0000 0.0000 0.0000 0.0000 0.0000 1.3192
#
#
#
# Elastic Compliance Matrix: (Units=1/GPa)
#
#
# Indices 1 2 3 4 5 6 
#
# 1 0.013394 -0.002434 -0.001054 0.000000 0.000000 0.000000
# 2 -0.002434 0.005786 -0.004184 0.000000 0.000000 0.000000
# 3 -0.001054 -0.004184 0.018541 0.000000 0.000000 0.000000
# 4 0.000000 0.000000 0.000000 0.020650 0.000000 0.000000
# 5 0.000000 0.000000 0.000000 0.000000 0.040928 0.000000
# 6 0.000000 0.000000 0.000000 0.000000 0.000000 0.758041
#
#
# Mechanical properties :
#
#
# Convention : Reuss Voigt Hill
#
# Bulk Modulus (GPa) = 44.68778 68.60991 56.64884
# Shear Modulus (GPa) = 5.68088 32.62754 19.15421
#
# Velocity S-wave (km/s) = 1.52456 3.65367 2.79943
# Velocity P-wave (km/s) = 4.62414 6.77276 5.79884
#
# Compressibility (1/GPa) = 0.02237748
#
# Stress axis : x y z
#
# Youngs Moduli (GPa) = 74.65922 172.82446 53.93337
#
# Poissons Ratio (x) = 0.42069 0.05683
# Poissons Ratio (y) = 0.18174 0.22567
# Poissons Ratio (z) = 0.07867 0.72315
#
# Static dielectric constant tensor:
#      x y z
#    x 1.916820 0.000000 0.000000 
#    y 0.000000 1.932620 0.000000 
#    z 0.000000 0.000000 2.054040 
# 
# From -- ./inp_files/30369.got.cif
#   From: 2010.05.17/outbox.cif.g08.bks.cpg/sg62_16_cif.got.tgz:30369.got - 2010.06.03 15:25:27.
