data_PCOD9465300
_publ_section_title
;
Structure prediction by ZEFSAII (Michael W. Deem and Ramdas Pophale) SiO2 
 PCOD9465300
Probable space group: P N M A
;
_chemical_formula_sum "Si O2"
_cell_formula_units_Z 64
_cell_length_a 19.136934
_cell_length_b 8.664074
_cell_length_c 19.698019
_cell_angle_alpha 90.000000
_cell_angle_beta 90.000000
_cell_angle_gamma 90.000000
_cell_volume 3266.006645
_symmetry_space_group_name_H-M "P N M A"
_symmetry_group_IT_number 62
_symmetry_cell_setting 'orthorhombic'
loop_
_space_group_symop_operation_xyz
x,y,z
1/2-x,-y,1/2+z
1/2+x,1/2-y,1/2-z
-x,1/2+y,-z
-x,-y,-z
1/2+x,y,1/2-z
1/2-x,1/2+y,1/2+z
x,1/2-y,z
loop_
_atom_site_type_symbol
_atom_site_label
_atom_site_fract_x
_atom_site_fract_y
_atom_site_fract_z
Si Si1 0.390988 0.567681 0.033106
Si Si2 0.479539 0.061906 0.626856
Si Si3 0.735214 0.932539 0.885417
Si Si4 0.603929 0.564364 0.239003
Si Si5 0.759569 0.434077 0.231722
Si Si6 0.860235 0.565300 0.115953
Si Si7 0.140097 0.566258 0.031041
Si Si8 0.041676 0.933858 0.404925
O O1 0.377158 0.750000 0.039046
O O2 0.327944 0.473836 0.064994
O O3 0.462511 0.530108 0.073413
O O4 0.406950 0.522706 0.955661
O O5 0.480259 0.250000 0.627212
O O6 0.436475 0.012191 0.693455
O O7 0.559737 0.010335 0.627927
O O8 0.434804 0.013927 0.561039
O O9 0.750039 0.750000 0.886555
O O10 0.716347 0.976854 0.808170
O O11 0.802721 0.022374 0.912546
O O12 0.612902 0.750000 0.243578
O O13 0.679590 0.490255 0.228787
O O14 0.557794 0.530649 0.172711
O O15 0.761868 0.250000 0.225240
O O16 0.807739 0.504636 0.173203
O O17 0.859534 0.750000 0.118150
O O18 0.841156 0.510904 0.040256
O O19 0.138922 0.750000 0.022086
O O20 0.051531 0.750000 0.415508
#
# Coordination Sequence:
#
# PCOD9465300 Si02
#       8
#     8   8   8   8   8   8   8   8
#     4  10  21  37  60  88 119 158 201 249 301 362
#     4   9  20  39  65  94 121 158 206 253 306 366
#     4  11  24  41  61  86 122 163 204 251 305 364
#     4  10  20  39  64  88 118 159 204 250 303 364
#     4  11  25  43  60  89 125 160 204 253 299 357
#     4  11  24  41  66  95 126 162 201 250 305 365
#     4  11  22  41  66  92 123 160 205 257 307 363
#     4   9  20  37  60  88 120 155 198 251 303 361
#
# _framework density 19.595797000000001
#
# number of rings (size 3 to 8) (size 9 to 14) (size 15 to 20)
#    0.000    1.750    1.250    2.250    3.500    2.500 
#    0.000    3.125    0.000    0.000    0.000    0.000 
#    0.000    0.000    0.000    0.000    0.000    0.000 
#
# Total GULP energy -357600.155116 kJ/mol
# GULP energy per Si atom -5587.502424 kJ/mol
# Density = 1.955120 g / cm^3
# Si number density = 19.595797 Si / 1000 Ang^3
#
#
#
# Elastic Constant Matrix: (Units=GPa)
#
#
# Indices 1 2 3 4 5 6 
#
# 1 30.3375 19.4766 31.1354 0.0000 0.0000 0.0000
# 2 19.4766 31.5702 28.4720 0.0000 0.0000 0.0000
# 3 31.1354 28.4720 114.9004 0.0000 0.0000 0.0000
# 4 0.0000 0.0000 0.0000 9.4917 0.0000 0.0000
# 5 0.0000 0.0000 0.0000 0.0000 35.2602 0.0000
# 6 0.0000 0.0000 0.0000 0.0000 0.0000 19.2472
#
#
#
# Elastic Compliance Matrix: (Units=1/GPa)
#
#
# Indices 1 2 3 4 5 6 
#
# 1 0.061508 -0.029509 -0.009355 0.000000 0.000000 0.000000
# 2 -0.029509 0.054949 -0.005620 0.000000 0.000000 0.000000
# 3 -0.009355 -0.005620 0.012631 0.000000 0.000000 0.000000
# 4 0.000000 0.000000 0.000000 0.105355 0.000000 0.000000
# 5 0.000000 0.000000 0.000000 0.000000 0.028361 0.000000
# 6 0.000000 0.000000 0.000000 0.000000 0.000000 0.051956
#
#
# Mechanical properties :
#
#
# Convention : Reuss Voigt Hill
#
# Bulk Modulus (GPa) = 24.92542 37.21956 31.07249
# Shear Modulus (GPa) = 11.98752 19.31477 15.65114
#
# Velocity S-wave (km/s) = 2.47602 3.14293 2.82919
# Velocity P-wave (km/s) = 4.57402 5.67499 5.15399
#
# Compressibility (1/GPa) = 0.04011968
#
# Stress axis : x y z
#
# Youngs Moduli (GPa) = 16.25792 18.19875 79.17171
#
# Poissons Ratio (x) = 0.53703 0.74065
# Poissons Ratio (y) = 0.47976 0.44493
# Poissons Ratio (z) = 0.15209 0.10227
#
# Static dielectric constant tensor:
#      x y z
#    x 1.672960 0.000000 0.000000 
#    y 0.000000 1.657020 0.000000 
#    z 0.000000 0.000000 1.674600 
# 
# From -- ./inp_files/24780.got.cif
#   From: 2010.05.17/outbox.cif.g08.bks.cpg/sg62_13_cif.got.tgz:24780.got - 2010.06.03 15:25:27.
