data_PCOD9465105
_publ_section_title
;
Structure prediction by ZEFSAII (Michael W. Deem and Ramdas Pophale) SiO2 
 PCOD9465105
Probable space group: P N M A
;
_chemical_formula_sum "Si O2"
_cell_formula_units_Z 48
_cell_length_a 9.685430
_cell_length_b 7.824146
_cell_length_c 26.386259
_cell_angle_alpha 90.000000
_cell_angle_beta 90.000000
_cell_angle_gamma 90.000000
_cell_volume 1999.556470
_symmetry_space_group_name_H-M "P N M A"
_symmetry_group_IT_number 62
_symmetry_cell_setting 'orthorhombic'
loop_
_space_group_symop_operation_xyz
x,y,z
1/2-x,-y,1/2+z
1/2+x,1/2-y,1/2-z
-x,1/2+y,-z
-x,-y,-z
1/2+x,y,1/2-z
1/2-x,1/2+y,1/2+z
x,1/2-y,z
loop_
_atom_site_type_symbol
_atom_site_label
_atom_site_fract_x
_atom_site_fract_y
_atom_site_fract_z
Si Si1 0.656118 0.948523 0.239386
Si Si2 0.960352 0.452727 0.632681
Si Si3 0.963329 0.457639 0.083434
Si Si4 0.808128 0.048643 0.533463
Si Si5 0.281243 0.042956 0.076573
Si Si6 0.924199 0.446884 0.195424
O O1 0.619978 0.750000 0.244177
O O2 0.594534 0.019589 0.186220
O O3 0.580418 0.039514 0.285405
O O4 0.819875 0.965192 0.234198
O O5 0.931716 0.250000 0.634037
O O6 0.882643 0.527127 0.583002
O O7 0.121286 0.480919 0.621589
O O8 0.959539 0.250000 0.081892
O O9 0.122096 0.511225 0.079034
O O10 0.855890 0.527119 0.042701
O O11 0.911740 0.517526 0.138831
O O12 0.839727 0.250000 0.532245
O O13 0.840812 0.979288 0.477657
O O14 0.283020 0.250000 0.076837
O O15 0.883897 0.250000 0.193947
#
# Coordination Sequence:
#
# PCOD9465105 Si02
#       6
#     8   8   8   8   8   8
#     4  11  24  43  65  91 122 158 202 253 307 366
#     4  10  22  39  59  87 120 156 200 247 298 357
#     4  10  22  39  59  88 121 155 198 246 299 357
#     4  10  20  38  61  86 120 160 202 248 297 352
#     4  10  22  37  58  89 123 160 201 247 296 352
#     4  11  24  42  64  91 122 159 202 252 308 367
#
# _framework density 24.005324999999999
#
# number of rings (size 3 to 8) (size 9 to 14) (size 15 to 20)
#    0.000    1.667    1.667    2.000    2.333    4.000 
#    0.000    0.000    0.000    0.000    0.000    0.000 
#    0.000    0.000    0.000    0.000    0.000    0.000 
#
# Total GULP energy -268504.182910 kJ/mol
# GULP energy per Si atom -5593.837144 kJ/mol
# Density = 2.395069 g / cm^3
# Si number density = 24.005325 Si / 1000 Ang^3
#
#
#
# Elastic Constant Matrix: (Units=GPa)
#
#
# Indices 1 2 3 4 5 6 
#
# 1 69.9698 -8.7393 -9.4832 0.0000 0.0000 0.0000
# 2 -8.7393 36.3955 5.8674 0.0000 0.0000 0.0000
# 3 -9.4832 5.8674 36.8883 0.0000 0.0000 0.0000
# 4 0.0000 0.0000 0.0000 8.7103 0.0000 0.0000
# 5 0.0000 0.0000 0.0000 0.0000 44.4104 0.0000
# 6 0.0000 0.0000 0.0000 0.0000 0.0000 27.0492
#
#
#
# Elastic Compliance Matrix: (Units=1/GPa)
#
#
# Indices 1 2 3 4 5 6 
#
# 1 0.015138 0.003087 0.003401 0.000000 0.000000 0.000000
# 2 0.003087 0.028828 -0.003792 0.000000 0.000000 0.000000
# 3 0.003401 -0.003792 0.028586 0.000000 0.000000 0.000000
# 4 0.000000 0.000000 0.000000 0.114807 0.000000 0.000000
# 5 0.000000 0.000000 0.000000 0.000000 0.022517 0.000000
# 6 0.000000 0.000000 0.000000 0.000000 0.000000 0.036970
#
#
# Mechanical properties :
#
#
# Convention : Reuss Voigt Hill
#
# Bulk Modulus (GPa) = 12.82968 13.17151 13.00059
# Shear Modulus (GPa) = 18.69597 26.40787 22.55192
#
# Velocity S-wave (km/s) = 2.79377 3.32035 3.06838
# Velocity P-wave (km/s) = 3.97027 4.49427 4.24037
#
# Compressibility (1/GPa) = 0.07794426
#
# Stress axis : x y z
#
# Youngs Moduli (GPa) = 66.05744 34.68797 34.98187
#
# Poissons Ratio (x) = -0.10707 -0.11896
# Poissons Ratio (y) = -0.20390 0.13265
# Poissons Ratio (z) = -0.22465 0.13153
#
# Static dielectric constant tensor:
#      x y z
#    x 1.925050 0.000000 0.000000 
#    y 0.000000 1.850370 0.000000 
#    z 0.000000 0.000000 1.918790 
# 
# From -- ./inp_files/31914.got.cif
#   From: 2010.05.17/outbox.cif.g08.bks.cpg/sg62_16_cif.got.tgz:31914.got - 2010.06.03 15:25:27.
