data_PCOD9465116
_publ_section_title
;
Structure prediction by ZEFSAII (Michael W. Deem and Ramdas Pophale) SiO2 
 PCOD9465116
Probable space group: P N M A
;
_chemical_formula_sum "Si O2"
_cell_formula_units_Z 48
_cell_length_a 20.234803
_cell_length_b 17.662624
_cell_length_c 5.216847
_cell_angle_alpha 90.000000
_cell_angle_beta 90.000000
_cell_angle_gamma 90.000000
_cell_volume 1864.499642
_symmetry_space_group_name_H-M "P N M A"
_symmetry_group_IT_number 62
_symmetry_cell_setting 'orthorhombic'
loop_
_space_group_symop_operation_xyz
x,y,z
1/2-x,-y,1/2+z
1/2+x,1/2-y,1/2-z
-x,1/2+y,-z
-x,-y,-z
1/2+x,y,1/2-z
1/2-x,1/2+y,1/2+z
x,1/2-y,z
loop_
_atom_site_type_symbol
_atom_site_label
_atom_site_fract_x
_atom_site_fract_y
_atom_site_fract_z
Si Si1 0.376916 0.750000 0.654376
Si Si2 0.721090 0.409176 0.788130
Si Si3 0.849187 0.484083 0.935042
Si Si4 0.593439 0.093848 0.124617
Si Si5 0.289629 0.750000 0.157970
Si Si6 0.103069 0.836781 0.809186
Si Si7 0.985694 0.336554 0.690028
O O1 0.414717 0.671549 0.712560
O O2 0.348731 0.750000 0.367817
O O3 0.318313 0.750000 0.870357
O O4 0.784889 0.460523 0.777390
O O5 0.673140 0.438858 0.570393
O O6 0.749100 0.325090 0.775508
O O7 0.668866 0.406817 0.020555
O O8 0.911346 0.513486 0.770622
O O9 0.856415 0.413858 0.131864
O O10 0.542796 0.105476 0.891525
O O11 0.131628 0.750000 0.829632
O O12 0.070234 0.842819 0.530760
O O13 0.048751 0.843160 0.035761
O O14 0.011832 0.250000 0.673588
#
# Coordination Sequence:
#
# PCOD9465116 Si02
#       7
#     4   8   8   8   4   8   8
#     4  10  20  38  62 100 124 172 212 278 337 395
#     4  11  25  43  66 103 139 178 225 287 343 407
#     4  12  25  43  68  98 146 180 226 287 342 413
#     4  11  23  41  70 100 137 175 225 290 349 397
#     4  10  22  40  66  90 132 170 228 258 339 401
#     4  10  26  47  69  98 138 189 232 274 346 415
#     4  10  23  46  71  99 135 178 236 292 333 406
#
# _framework density 25.744173
#
# number of rings (size 3 to 8) (size 9 to 14) (size 15 to 20)
#    0.000    1.333    4.167    0.000    5.833    1.333 
#    0.000    0.000    1.833    0.000    0.000    0.000 
#    0.000    0.000    0.000    0.000    0.000    0.000 
#
# Total GULP energy -268176.962780 kJ/mol
# GULP energy per Si atom -5587.020058 kJ/mol
# Density = 2.568558 g / cm^3
# Si number density = 25.744173 Si / 1000 Ang^3
#
#
#
# Elastic Constant Matrix: (Units=GPa)
#
#
# Indices 1 2 3 4 5 6 
#
# 1 31.0438 1.5959 6.9860 0.0000 0.0000 0.0000
# 2 1.5959 100.8214 -6.7625 0.0000 0.0000 0.0000
# 3 6.9860 -6.7625 57.7187 0.0000 0.0000 0.0000
# 4 0.0000 0.0000 0.0000 19.6645 0.0000 0.0000
# 5 0.0000 0.0000 0.0000 0.0000 26.5587 0.0000
# 6 0.0000 0.0000 0.0000 0.0000 0.0000 14.6953
#
#
#
# Elastic Compliance Matrix: (Units=1/GPa)
#
#
# Indices 1 2 3 4 5 6 
#
# 1 0.033179 -0.000801 -0.004110 0.000000 0.000000 0.000000
# 2 -0.000801 0.010016 0.001270 0.000000 0.000000 0.000000
# 3 -0.004110 0.001270 0.017972 0.000000 0.000000 0.000000
# 4 0.000000 0.000000 0.000000 0.050853 0.000000 0.000000
# 5 0.000000 0.000000 0.000000 0.000000 0.037652 0.000000
# 6 0.000000 0.000000 0.000000 0.000000 0.000000 0.068049
#
#
# Mechanical properties :
#
#
# Convention : Reuss Voigt Hill
#
# Bulk Modulus (GPa) = 18.55744 21.46918 20.01331
# Shear Modulus (GPa) = 20.57922 24.70132 22.64027
#
# Velocity S-wave (km/s) = 2.83039 3.10093 2.96874
# Velocity P-wave (km/s) = 4.23149 4.60201 4.42064
#
# Compressibility (1/GPa) = 0.05388675
#
# Stress axis : x y z
#
# Youngs Moduli (GPa) = 30.13995 99.83606 55.64308
#
# Poissons Ratio (x) = 0.07995 0.22867
# Poissons Ratio (y) = 0.02414 -0.07069
# Poissons Ratio (z) = 0.12386 -0.12684
#
# Static dielectric constant tensor:
#      x y z
#    x 2.026150 0.000000 0.000000 
#    y 0.000000 2.159500 0.000000 
#    z 0.000000 0.000000 2.123810 
# 
# From -- ./inp_files/2772.got.cif
#   From: 2010.05.17/outbox.cif.g08.bks.cpg/sg62_2_cif.got.tgz:2772.got - 2010.06.03 15:25:27.
