data_PCOD9465706
_publ_section_title
;
Structure prediction by ZEFSAII (Michael W. Deem and Ramdas Pophale) SiO2 
 PCOD9465706
Probable space group: P N M A
;
_chemical_formula_sum "Si O2"
_cell_formula_units_Z 64
_cell_length_a 25.309918
_cell_length_b 8.141273
_cell_length_c 15.160817
_cell_angle_alpha 90.000000
_cell_angle_beta 90.000000
_cell_angle_gamma 90.000000
_cell_volume 3123.961420
_symmetry_space_group_name_H-M "P N M A"
_symmetry_group_IT_number 62
_symmetry_cell_setting 'orthorhombic'
loop_
_space_group_symop_operation_xyz
x,y,z
1/2-x,-y,1/2+z
1/2+x,1/2-y,1/2-z
-x,1/2+y,-z
-x,-y,-z
1/2+x,y,1/2-z
1/2-x,1/2+y,1/2+z
x,1/2-y,z
loop_
_atom_site_type_symbol
_atom_site_label
_atom_site_fract_x
_atom_site_fract_y
_atom_site_fract_z
Si Si1 0.843856 0.556926 0.860914
Si Si2 0.481288 0.052444 0.403079
Si Si3 0.948284 0.444994 0.552313
Si Si4 0.270456 0.559404 0.163107
Si Si5 0.168332 0.553378 0.492925
Si Si6 0.739241 0.448380 0.637060
Si Si7 0.369132 0.447221 0.453345
Si Si8 0.440090 0.948907 0.748805
O O1 0.831718 0.750000 0.851658
O O2 0.789752 0.459356 0.869070
O O3 0.875667 0.528588 0.950946
O O4 0.881221 0.500241 0.781395
O O5 0.483864 0.250000 0.400285
O O6 0.419747 0.005315 0.394852
O O7 0.518479 0.990232 0.324694
O O8 0.500000 0.000000 0.500000
O O9 0.945764 0.250000 0.543992
O O10 0.891257 0.511753 0.519016
O O11 0.953295 0.491916 0.654436
O O12 0.000000 0.500000 0.500000
O O13 0.285220 0.750000 0.168592
O O14 0.307856 0.480165 0.089730
O O15 0.267812 0.489401 0.262676
O O16 0.166657 0.750000 0.481805
O O17 0.209871 0.490413 0.418474
O O18 0.743715 0.250000 0.641522
O O19 0.686106 0.493683 0.585628
O O20 0.368553 0.250000 0.462870
O O21 0.440442 0.750000 0.747383
#
# Coordination Sequence:
#
# PCOD9465706 Si02
#       8
#     8   8   8   8   8   8   8   8
#     4  11  21  36  60  88 123 163 202 249 308 362
#     4  10  21  37  57  86 124 161 200 246 299 359
#     4  11  25  45  68  92 121 160 208 262 314 368
#     4  11  23  38  61  93 125 160 206 254 301 365
#     4  10  22  42  65  88 120 163 203 250 310 366
#     4  10  22  40  60  86 124 162 198 246 306 362
#     4  11  22  35  57  88 121 159 202 248 297 356
#     4  10  22  40  63  91 123 164 211 257 306 366
#
# _framework density 20.486809000000001
#
# number of rings (size 3 to 8) (size 9 to 14) (size 15 to 20)
#    0.000    1.500    2.500    2.250    0.000    6.000 
#    0.000    3.750    0.000    0.000    0.000    0.000 
#    0.000    0.000    0.000    0.000    0.000    0.000 
#
# Total GULP energy -357489.877323 kJ/mol
# GULP energy per Si atom -5585.779333 kJ/mol
# Density = 2.044018 g / cm^3
# Si number density = 20.486809 Si / 1000 Ang^3
#
#
#
# Elastic Constant Matrix: (Units=GPa)
#
#
# Indices 1 2 3 4 5 6 
#
# 1 161.1968 9.2985 80.9583 0.0000 0.0000 0.0000
# 2 9.2985 9.1009 7.4270 0.0000 0.0000 0.0000
# 3 80.9583 7.4270 142.2362 0.0000 0.0000 0.0000
# 4 0.0000 0.0000 0.0000 31.1438 0.0000 0.0000
# 5 0.0000 0.0000 0.0000 0.0000 35.9824 0.0000
# 6 0.0000 0.0000 0.0000 0.0000 0.0000 18.2979
#
#
#
# Elastic Compliance Matrix: (Units=1/GPa)
#
#
# Indices 1 2 3 4 5 6 
#
# 1 0.008915 -0.005189 -0.004804 0.000000 0.000000 0.000000
# 2 -0.005189 0.117790 -0.003197 0.000000 0.000000 0.000000
# 3 -0.004804 -0.003197 0.009932 0.000000 0.000000 0.000000
# 4 0.000000 0.000000 0.000000 0.032109 0.000000 0.000000
# 5 0.000000 0.000000 0.000000 0.000000 0.027791 0.000000
# 6 0.000000 0.000000 0.000000 0.000000 0.000000 0.054651
#
#
# Mechanical properties :
#
#
# Convention : Reuss Voigt Hill
#
# Bulk Modulus (GPa) = 9.06963 56.43350 32.75157
# Shear Modulus (GPa) = 15.90733 31.40816 23.65775
#
# Velocity S-wave (km/s) = 2.78954 3.91972 3.40189
# Velocity P-wave (km/s) = 3.84864 6.93482 5.60820
#
# Compressibility (1/GPa) = 0.11025805
#
# Stress axis : x y z
#
# Youngs Moduli (GPa) = 112.16512 8.48967 100.68874
#
# Poissons Ratio (x) = 0.04405 0.48366
# Poissons Ratio (y) = 0.58202 0.32191
# Poissons Ratio (z) = 0.53879 0.02714
#
# Static dielectric constant tensor:
#      x y z
#    x 2.524420 0.000000 0.000000 
#    y 0.000000 1.900130 0.000000 
#    z 0.000000 0.000000 1.704520 
# 
# From -- ./inp_files/20834.got.cif
#   From: 2010.05.17/outbox.cif.g08.bks.cpg/sg62_11_cif.got.tgz:20834.got - 2010.06.03 15:25:27.
