data_PCOD9465283
_publ_section_title
;
Structure prediction by ZEFSAII (Michael W. Deem and Ramdas Pophale) SiO2 
 PCOD9465283
Probable space group: P N M A
;
_chemical_formula_sum "Si O2"
_cell_formula_units_Z 48
_cell_length_a 16.336175
_cell_length_b 16.236956
_cell_length_c 8.601447
_cell_angle_alpha 90.000000
_cell_angle_beta 90.000000
_cell_angle_gamma 90.000000
_cell_volume 2281.531707
_symmetry_space_group_name_H-M "P N M A"
_symmetry_group_IT_number 62
_symmetry_cell_setting 'orthorhombic'
loop_
_space_group_symop_operation_xyz
x,y,z
1/2-x,-y,1/2+z
1/2+x,1/2-y,1/2-z
-x,1/2+y,-z
-x,-y,-z
1/2+x,y,1/2-z
1/2-x,1/2+y,1/2+z
x,1/2-y,z
loop_
_atom_site_type_symbol
_atom_site_label
_atom_site_fract_x
_atom_site_fract_y
_atom_site_fract_z
Si Si1 0.614368 0.250000 0.640737
Si Si2 0.379404 0.415688 0.907603
Si Si3 0.314363 0.923020 0.397760
Si Si4 0.119556 0.750000 0.870379
Si Si5 0.067716 0.250000 0.225181
Si Si6 0.076545 0.427283 0.206575
Si Si7 0.893482 0.418952 0.238146
Si Si8 0.572127 0.750000 0.269698
O O1 0.661328 0.334571 0.673798
O O2 0.598145 0.250000 0.454130
O O3 0.526077 0.250000 0.719686
O O4 0.281939 0.424700 0.923461
O O5 0.412667 0.494052 0.814409
O O6 0.399268 0.331961 0.817252
O O7 0.414313 0.411724 0.080861
O O8 0.363552 0.933207 0.559486
O O9 0.343175 0.998861 0.292734
O O10 0.155305 0.837397 0.816758
O O11 0.030789 0.750000 0.784706
O O12 0.105948 0.750000 0.054259
O O13 0.093593 0.338830 0.289291
O O14 0.981441 0.423578 0.151021
#
# Coordination Sequence:
#
# PCOD9465283 Si02
#       8
#     4   8   8   4   4   8   8   4
#     4   9  19  37  62  84 107 156 210 242 283 362
#     4  12  24  37  58  94 129 155 196 267 321 348
#     4  11  22  40  61  86 123 167 206 248 306 374
#     4   9  19  37  62  86 111 154 208 244 285 364
#     4   7  16  34  60  86 107 144 202 247 282 344
#     4  10  20  39  63  87 119 164 209 250 300 373
#     4  11  22  39  62  91 122 162 209 252 304 370
#     4  11  22  40  64  90 119 158 204 251 304 368
#
# _framework density 21.038499000000002
#
# number of rings (size 3 to 8) (size 9 to 14) (size 15 to 20)
#    0.000    1.667    0.000    6.000    0.000    0.000 
#    0.000    3.333    0.000    2.000    0.000    0.000 
#    0.000    0.000    0.000    0.000    0.000    0.000 
#
# Total GULP energy -268227.494916 kJ/mol
# GULP energy per Si atom -5588.072811 kJ/mol
# Density = 2.099061 g / cm^3
# Si number density = 21.038499 Si / 1000 Ang^3
#
#
#
# Elastic Constant Matrix: (Units=GPa)
#
#
# Indices 1 2 3 4 5 6 
#
# 1 64.1820 17.6830 -3.0493 0.0000 0.0000 0.0000
# 2 17.6830 210.9039 46.7043 0.0000 0.0000 0.0000
# 3 -3.0493 46.7043 60.3788 0.0000 0.0000 0.0000
# 4 0.0000 0.0000 0.0000 -2.7169 0.0000 0.0000
# 5 0.0000 0.0000 0.0000 0.0000 20.3001 0.0000
# 6 0.0000 0.0000 0.0000 0.0000 0.0000 14.4533
#
#
#
# Elastic Compliance Matrix: (Units=1/GPa)
#
#
# Indices 1 2 3 4 5 6 
#
# 1 0.016200 -0.001858 0.002255 0.000000 0.000000 0.000000
# 2 -0.001858 0.005935 -0.004684 0.000000 0.000000 0.000000
# 3 0.002255 -0.004684 0.020299 0.000000 0.000000 0.000000
# 4 0.000000 0.000000 0.000000 -0.368067 0.000000 0.000000
# 5 0.000000 0.000000 0.000000 0.000000 0.049261 0.000000
# 6 0.000000 0.000000 0.000000 0.000000 0.000000 0.069188
#
#
# Mechanical properties :
#
#
# Convention : Reuss Voigt Hill
#
# Bulk Modulus (GPa) = 29.53355 50.90451 40.21903
# Shear Modulus (GPa) = -26.69182 24.68242 -1.00470
#
# Velocity S-wave (km/s) = -3.56576 3.42892 -0.69180
# Velocity P-wave (km/s) = 1.69840 6.31863 4.30352
#
# Compressibility (1/GPa) = 0.03385980
#
# Stress axis : x y z
#
# Youngs Moduli (GPa) = 61.72980 168.50384 49.26250
#
# Poissons Ratio (x) = 0.31301 -0.11109
# Poissons Ratio (y) = 0.11467 0.23076
# Poissons Ratio (z) = -0.13920 0.78933
#
# Static dielectric constant tensor:
#      x y z
#    x 1.735340 0.000000 0.000000 
#    y 0.000000 1.799930 0.000000 
#    z 0.000000 0.000000 1.736300 
# 
# From -- ./inp_files/6581.got.cif
#   From: 2010.05.17/outbox.cif.g08.bks.cpg/sg62_4_cif.got.tgz:6581.got - 2010.06.03 15:25:27.
