data_PCOD9465500
_publ_section_title
;
Structure prediction by ZEFSAII (Michael W. Deem and Ramdas Pophale) SiO2 
 PCOD9465500
Probable space group: P N M A
;
_chemical_formula_sum "Si O2"
_cell_formula_units_Z 64
_cell_length_a 21.067449
_cell_length_b 8.434870
_cell_length_c 16.377584
_cell_angle_alpha 90.000000
_cell_angle_beta 90.000000
_cell_angle_gamma 90.000000
_cell_volume 2910.316224
_symmetry_space_group_name_H-M "P N M A"
_symmetry_group_IT_number 62
_symmetry_cell_setting 'orthorhombic'
loop_
_space_group_symop_operation_xyz
x,y,z
1/2-x,-y,1/2+z
1/2+x,1/2-y,1/2-z
-x,1/2+y,-z
-x,-y,-z
1/2+x,y,1/2-z
1/2-x,1/2+y,1/2+z
x,1/2-y,z
loop_
_atom_site_type_symbol
_atom_site_label
_atom_site_fract_x
_atom_site_fract_y
_atom_site_fract_z
Si Si1 0.942679 0.561601 0.693340
Si Si2 0.414825 0.437340 0.152548
Si Si3 0.376307 0.572056 0.307312
Si Si4 0.570876 0.559650 0.020396
Si Si5 0.759748 0.070709 0.608546
Si Si6 0.802500 0.439806 0.952565
Si Si7 0.825231 0.440334 0.771824
Si Si8 0.066785 0.441518 0.966978
O O1 0.942975 0.750000 0.706188
O O2 0.911745 0.520712 0.605041
O O3 0.899806 0.480470 0.762115
O O4 0.015493 0.502911 0.682616
O O5 0.423142 0.250000 0.144000
O O6 0.368157 0.476236 0.225116
O O7 0.394219 0.492021 0.062780
O O8 0.395044 0.750000 0.283431
O O9 0.311729 0.581338 0.357375
O O10 0.425637 0.503719 0.372628
O O11 0.571673 0.750000 0.030625
O O12 0.500000 0.500000 0.000000
O O13 0.785258 0.250000 0.596180
O O14 0.794213 0.995746 0.687714
O O15 0.749541 0.995514 0.519318
O O16 0.801724 0.250000 0.952113
O O17 0.797104 0.496756 0.858357
O O18 0.872366 0.495131 0.983338
O O19 0.816470 0.250000 0.769759
O O20 0.069750 0.250000 0.966947
O O21 0.000000 0.500000 0.000000
#
# Coordination Sequence:
#
# PCOD9465500 Si02
#       8
#     8   8   8   8   8   8   8   8
#     4  10  21  35  53  82 114 147 190 236 286 341
#     4   9  19  33  51  79 114 146 182 229 278 335
#     4   9  19  34  54  78 106 145 188 227 278 339
#     4   9  17  32  51  73 107 147 184 224 277 333
#     4   9  20  42  62  80 112 152 191 238 291 343
#     4  10  21  38  61  89 117 152 195 242 294 351
#     4  10  22  40  62  85 117 154 192 241 296 352
#     4  10  21  36  55  83 118 155 191 234 287 348
#
# _framework density 21.990738
#
# number of rings (size 3 to 8) (size 9 to 14) (size 15 to 20)
#    0.000    2.500    0.000    3.000    1.750    7.000 
#    2.250    0.000    0.000    0.000    0.000    0.000 
#    0.000    0.000    0.000    0.000    0.000    0.000 
#
# Total GULP energy -356773.512592 kJ/mol
# GULP energy per Si atom -5574.586134 kJ/mol
# Density = 2.194069 g / cm^3
# Si number density = 21.990738 Si / 1000 Ang^3
#
#
#
# Elastic Constant Matrix: (Units=GPa)
#
#
# Indices 1 2 3 4 5 6 
#
# 1 41.4789 7.4492 36.1216 0.0000 0.0000 0.0000
# 2 7.4492 15.5169 17.9048 0.0000 0.0000 0.0000
# 3 36.1216 17.9048 129.5775 0.0000 0.0000 0.0000
# 4 0.0000 0.0000 0.0000 27.1181 0.0000 0.0000
# 5 0.0000 0.0000 0.0000 0.0000 27.3827 0.0000
# 6 0.0000 0.0000 0.0000 0.0000 0.0000 5.9663
#
#
#
# Elastic Compliance Matrix: (Units=1/GPa)
#
#
# Indices 1 2 3 4 5 6 
#
# 1 0.032314 -0.006090 -0.008167 0.000000 0.000000 0.000000
# 2 -0.006090 0.077818 -0.009055 0.000000 0.000000 0.000000
# 3 -0.008167 -0.009055 0.011245 0.000000 0.000000 0.000000
# 4 0.000000 0.000000 0.000000 0.036876 0.000000 0.000000
# 5 0.000000 0.000000 0.000000 0.000000 0.036519 0.000000
# 6 0.000000 0.000000 0.000000 0.000000 0.000000 0.167608
#
#
# Mechanical properties :
#
#
# Convention : Reuss Voigt Hill
#
# Bulk Modulus (GPa) = 13.37709 34.39160 23.88435
# Shear Modulus (GPa) = 11.52282 20.43326 15.97804
#
# Velocity S-wave (km/s) = 2.29156 3.05155 2.69844
# Velocity P-wave (km/s) = 3.61910 5.29990 4.53800
#
# Compressibility (1/GPa) = 0.07475465
#
# Stress axis : x y z
#
# Youngs Moduli (GPa) = 30.94624 12.85046 88.92697
#
# Poissons Ratio (x) = 0.07825 0.72623
# Poissons Ratio (y) = 0.18845 0.80526
# Poissons Ratio (z) = 0.25272 0.11636
#
# Static dielectric constant tensor:
#      x y z
#    x 1.886150 0.000000 0.000000 
#    y 0.000000 1.763380 0.000000 
#    z 0.000000 0.000000 1.881940 
# 
# From -- ./inp_files/20910.got.cif
#   From: 2010.05.17/outbox.cif.g08.bks.cpg/sg62_11_cif.got.tgz:20910.got - 2010.06.03 15:25:27.
