data_PCOD9465074
_publ_section_title
;
Structure prediction by ZEFSAII (Michael W. Deem and Ramdas Pophale) SiO2 
 PCOD9465074
Probable space group: P N M A
;
_chemical_formula_sum "Si O2"
_cell_formula_units_Z 64
_cell_length_a 31.064618
_cell_length_b 7.516843
_cell_length_c 12.106294
_cell_angle_alpha 90.000000
_cell_angle_beta 90.000000
_cell_angle_gamma 90.000000
_cell_volume 2826.914760
_symmetry_space_group_name_H-M "P N M A"
_symmetry_group_IT_number 62
_symmetry_cell_setting 'orthorhombic'
loop_
_space_group_symop_operation_xyz
x,y,z
1/2-x,-y,1/2+z
1/2+x,1/2-y,1/2-z
-x,1/2+y,-z
-x,-y,-z
1/2+x,y,1/2-z
1/2-x,1/2+y,1/2+z
x,1/2-y,z
loop_
_atom_site_type_symbol
_atom_site_label
_atom_site_fract_x
_atom_site_fract_y
_atom_site_fract_z
Si Si1 0.809368 0.461911 0.277564
Si Si2 0.468806 0.046855 0.208648
Si Si3 0.553247 0.465837 0.308343
Si Si4 0.562015 0.043967 0.551487
Si Si5 0.337791 0.033469 0.460769
Si Si6 0.289176 0.463657 0.679233
Si Si7 0.636524 0.959859 0.171194
Si Si8 0.611592 0.969001 0.929706
O O1 0.814955 0.250000 0.273972
O O2 0.760985 0.496066 0.315291
O O3 0.847275 0.527275 0.357447
O O4 0.816512 0.527518 0.153323
O O5 0.475169 0.250000 0.171634
O O6 0.516265 0.967311 0.225141
O O7 0.432536 0.968677 0.128544
O O8 0.450493 0.048130 0.334146
O O9 0.551579 0.250000 0.311664
O O10 0.544647 0.527038 0.434056
O O11 0.599926 0.517647 0.264004
O O12 0.549767 0.250000 0.563146
O O13 0.613375 0.030968 0.537722
O O14 0.339017 0.250000 0.462462
O O15 0.311022 0.972268 0.566391
O O16 0.293180 0.250000 0.679798
O O17 0.318438 0.531566 0.781080
O O18 0.642814 0.750000 0.152673
O O19 0.619033 0.030551 0.054930
O O20 0.610265 0.750000 0.927501
#
# Coordination Sequence:
#
# PCOD9465074 Si02
#       8
#     8   8   8   8   8   8   8   8
#     4  10  21  37  59  82 108 145 187 226 273 332
#     4  10  20  38  60  80 113 153 186 226 281 343
#     4  10  22  37  56  84 114 148 186 230 283 332
#     4  11  21  34  55  87 117 141 185 238 282 327
#     4  10  20  38  60  81 108 152 192 221 278 345
#     4  10  22  37  56  83 112 143 184 229 278 329
#     4  10  21  38  59  81 110 148 187 228 274 332
#     4   9  19  37  59  82 108 146 190 225 271 336
#
# _framework density 22.639524999999999
#
# number of rings (size 3 to 8) (size 9 to 14) (size 15 to 20)
#    0.000    2.000    2.500    0.750    1.750    3.000 
#    0.000    1.250    0.000    0.000    0.000    0.000 
#    0.000    0.000    0.000    0.000    0.000    0.000 
#
# Total GULP energy -357622.462446 kJ/mol
# GULP energy per Si atom -5587.850976 kJ/mol
# Density = 2.258800 g / cm^3
# Si number density = 22.639525 Si / 1000 Ang^3
#
#
#
# Elastic Constant Matrix: (Units=GPa)
#
#
# Indices 1 2 3 4 5 6 
#
# 1 57.8142 -14.4176 -29.9665 0.0000 0.0000 0.0000
# 2 -14.4176 60.4223 -5.2395 0.0000 0.0000 0.0000
# 3 -29.9665 -5.2395 54.8325 0.0000 0.0000 0.0000
# 4 0.0000 0.0000 0.0000 -2.1303 0.0000 0.0000
# 5 0.0000 0.0000 0.0000 0.0000 25.9471 0.0000
# 6 0.0000 0.0000 0.0000 0.0000 0.0000 10.6189
#
#
#
# Elastic Compliance Matrix: (Units=1/GPa)
#
#
# Indices 1 2 3 4 5 6 
#
# 1 0.027432 0.007911 0.015748 0.000000 0.000000 0.000000
# 2 0.007911 0.018970 0.006136 0.000000 0.000000 0.000000
# 3 0.015748 0.006136 0.027430 0.000000 0.000000 0.000000
# 4 0.000000 0.000000 0.000000 -0.469427 0.000000 0.000000
# 5 0.000000 0.000000 0.000000 0.000000 0.038540 0.000000
# 6 0.000000 0.000000 0.000000 0.000000 0.000000 0.094172
#
#
# Mechanical properties :
#
#
# Convention : Reuss Voigt Hill
#
# Bulk Modulus (GPa) = 7.49495 8.20244 7.84869
# Shear Modulus (GPa) = -17.98566 21.73333 1.87383
#
# Velocity S-wave (km/s) = -2.82163 3.10170 0.91076
# Velocity P-wave (km/s) = 2.70143 4.05689 2.14017
#
# Compressibility (1/GPa) = 0.13342313
#
# Stress axis : x y z
#
# Youngs Moduli (GPa) = 36.45353 52.71479 36.45634
#
# Poissons Ratio (x) = -0.41704 -0.57411
# Poissons Ratio (y) = -0.28839 -0.22371
# Poissons Ratio (z) = -0.57407 -0.32347
#
# Static dielectric constant tensor:
#      x y z
#    x 1.816650 0.000000 0.000000 
#    y 0.000000 1.858350 0.000000 
#    z 0.000000 0.000000 1.827200 
# 
# From -- ./inp_files/15761.got.cif
#   From: 2010.05.17/outbox.cif.g08.bks.cpg/sg62_8_cif.got.tgz:15761.got - 2010.06.03 15:25:27.
