data_PCOD9465130
_publ_section_title
;
Structure prediction by ZEFSAII (Michael W. Deem and Ramdas Pophale) SiO2 
 PCOD9465130
Probable space group: P N M A
;
_chemical_formula_sum "Si O2"
_cell_formula_units_Z 64
_cell_length_a 30.413268
_cell_length_b 11.046875
_cell_length_c 10.136010
_cell_angle_alpha 90.000000
_cell_angle_beta 90.000000
_cell_angle_gamma 90.000000
_cell_volume 3405.411193
_symmetry_space_group_name_H-M "P N M A"
_symmetry_group_IT_number 62
_symmetry_cell_setting 'orthorhombic'
loop_
_space_group_symop_operation_xyz
x,y,z
1/2-x,-y,1/2+z
1/2+x,1/2-y,1/2-z
-x,1/2+y,-z
-x,-y,-z
1/2+x,y,1/2-z
1/2-x,1/2+y,1/2+z
x,1/2-y,z
loop_
_atom_site_type_symbol
_atom_site_label
_atom_site_fract_x
_atom_site_fract_y
_atom_site_fract_z
Si Si1 0.802017 0.609406 0.209562
Si Si2 0.528759 0.614251 0.543096
Si Si3 0.069772 0.543926 0.417464
Si Si4 0.266480 0.888948 0.801792
Si Si5 0.013148 0.616933 0.659331
Si Si6 0.346155 0.891410 0.008460
Si Si7 0.835734 0.616332 0.917744
Si Si8 0.889333 0.379705 0.848546
O O1 0.784694 0.750000 0.220932
O O2 0.767105 0.500520 0.194786
O O3 0.829845 0.585510 0.342248
O O4 0.829900 0.607578 0.074545
O O5 0.500000 0.500000 0.500000
O O6 0.508699 0.750000 0.522396
O O7 0.535535 0.599793 0.699155
O O8 0.573106 0.613422 0.459396
O O9 0.048959 0.607714 0.544486
O O10 0.110904 0.465042 0.467318
O O11 0.088078 0.618458 0.294500
O O12 0.027553 0.471972 0.361341
O O13 0.249606 0.750000 0.826218
O O14 0.289132 0.887111 0.657678
O O15 0.305360 0.912030 0.908285
O O16 0.993166 0.750000 0.656302
O O17 0.357156 0.750000 0.998460
O O18 0.855195 0.750000 0.885629
O O19 0.861600 0.501256 0.864100
O O20 0.865414 0.250000 0.864427
#
# Coordination Sequence:
#
# PCOD9465130 Si02
#       8
#     8   8   8   8   8   8   8   8
#     4  10  22  39  59  88 122 153 194 244 293 349
#     4  10  21  39  59  85 116 151 192 238 292 347
#     4  11  21  38  61  84 119 155 203 242 300 351
#     4  10  20  38  62  87 116 154 198 241 291 354
#     4  10  22  38  59  85 118 157 197 247 301 355
#     4  10  21  38  60  87 118 156 199 244 289 353
#     4  10  22  39  60  85 117 154 195 237 287 353
#     4  11  23  38  59  86 117 148 194 248 292 343
#
# _framework density 18.793617999999999
#
# number of rings (size 3 to 8) (size 9 to 14) (size 15 to 20)
#    0.000    1.750    2.500    1.500    1.750    2.000 
#    0.000    1.875    0.000    0.000    0.000    0.000 
#    0.000    0.000    0.000    0.000    0.000    0.000 
#
# Total GULP energy -356694.407986 kJ/mol
# GULP energy per Si atom -5573.350125 kJ/mol
# Density = 1.875084 g / cm^3
# Si number density = 18.793618 Si / 1000 Ang^3
#
#
#
# Elastic Constant Matrix: (Units=GPa)
#
#
# Indices 1 2 3 4 5 6 
#
# 1 51.0854 57.5072 19.4752 0.0000 0.0000 0.0000
# 2 57.5072 149.1813 38.5830 0.0000 0.0000 0.0000
# 3 19.4752 38.5830 118.7607 0.0000 0.0000 0.0000
# 4 0.0000 0.0000 0.0000 21.7768 0.0000 0.0000
# 5 0.0000 0.0000 0.0000 0.0000 19.6296 0.0000
# 6 0.0000 0.0000 0.0000 0.0000 0.0000 24.0361
#
#
#
# Elastic Compliance Matrix: (Units=1/GPa)
#
#
# Indices 1 2 3 4 5 6 
#
# 1 0.034816 -0.013040 -0.001473 0.000000 0.000000 0.000000
# 2 -0.013040 0.012202 -0.001826 0.000000 0.000000 0.000000
# 3 -0.001473 -0.001826 0.009255 0.000000 0.000000 0.000000
# 4 0.000000 0.000000 0.000000 0.045920 0.000000 0.000000
# 5 0.000000 0.000000 0.000000 0.000000 0.050943 0.000000
# 6 0.000000 0.000000 0.000000 0.000000 0.000000 0.041604
#
#
# Mechanical properties :
#
#
# Convention : Reuss Voigt Hill
#
# Bulk Modulus (GPa) = 42.38103 61.12870 51.75486
# Shear Modulus (GPa) = 21.25094 26.65266 23.95180
#
# Velocity S-wave (km/s) = 3.36632 3.76995 3.57384
# Velocity P-wave (km/s) = 6.14078 7.17962 6.68042
#
# Compressibility (1/GPa) = 0.02359546
#
# Stress axis : x y z
#
# Youngs Moduli (GPa) = 28.72254 81.95221 108.04959
#
# Poissons Ratio (x) = 1.06866 0.15915
# Poissons Ratio (y) = 0.37454 0.19728
# Poissons Ratio (z) = 0.04231 0.14963
#
# Static dielectric constant tensor:
#      x y z
#    x 1.613200 0.000000 0.000000 
#    y 0.000000 1.688510 0.000000 
#    z 0.000000 0.000000 1.659870 
# 
# From -- ./inp_files/10454.got.cif
#   From: 2010.05.17/outbox.cif.g08.bks.cpg/sg62_6_cif.got.tgz:10454.got - 2010.06.03 15:25:27.
