data_PCOD9465869
_publ_section_title
;
Structure prediction by ZEFSAII (Michael W. Deem and Ramdas Pophale) SiO2 
 PCOD9465869
Probable space group: P N M A
;
_chemical_formula_sum "Si O2"
_cell_formula_units_Z 32
_cell_length_a 11.763655
_cell_length_b 17.603091
_cell_length_c 6.725444
_cell_angle_alpha 90.000000
_cell_angle_beta 90.000000
_cell_angle_gamma 90.000000
_cell_volume 1392.682679
_symmetry_space_group_name_H-M "P N M A"
_symmetry_group_IT_number 62
_symmetry_cell_setting 'orthorhombic'
loop_
_space_group_symop_operation_xyz
x,y,z
1/2-x,-y,1/2+z
1/2+x,1/2-y,1/2-z
-x,1/2+y,-z
-x,-y,-z
1/2+x,y,1/2-z
1/2-x,1/2+y,1/2+z
x,1/2-y,z
loop_
_atom_site_type_symbol
_atom_site_label
_atom_site_fract_x
_atom_site_fract_y
_atom_site_fract_z
Si Si1 0.168485 0.059375 0.537055
Si Si2 0.770612 0.107483 0.574012
Si Si3 0.590639 0.165061 0.281487
Si Si4 0.128374 0.835657 0.051106
O O1 0.170951 0.082266 0.768040
O O2 0.289338 0.097829 0.475534
O O3 0.174932 0.970330 0.503249
O O4 0.082986 0.102108 0.390612
O O5 0.707443 0.153864 0.404442
O O6 0.861041 0.152105 0.710681
O O7 0.584466 0.250000 0.196847
O O8 0.490440 0.157346 0.441860
O O9 0.171503 0.750000 0.011720
#
# Coordination Sequence:
#
# PCOD9465869 Si02
#       4
#     8   8   8   8
#     4  10  21  38  59  85 117 150 191 235 283 339
#     4  10  21  38  59  85 117 150 191 235 283 339
#     4  11  21  39  62  83 114 155 187 236 294 335
#     4   9  21  39  58  85 118 145 191 242 280 341
#
# _framework density 22.977236999999999
#
# number of rings (size 3 to 8) (size 9 to 14) (size 15 to 20)
#    1.500    0.500    2.500    1.500    0.000    4.000 
#    4.500    2.500    0.000    0.000    0.000    0.000 
#    0.000    0.000    0.000    0.000    0.000    0.000 
#
# Total GULP energy -178409.928698 kJ/mol
# GULP energy per Si atom -5575.310272 kJ/mol
# Density = 2.292494 g / cm^3
# Si number density = 22.977237 Si / 1000 Ang^3
#
#
#
# Elastic Constant Matrix: (Units=GPa)
#
#
# Indices 1 2 3 4 5 6 
#
# 1 37.7762 22.8700 -1.2653 0.0000 0.0000 0.0000
# 2 22.8700 97.2804 -10.0435 0.0000 0.0000 0.0000
# 3 -1.2653 -10.0435 54.6679 0.0000 0.0000 0.0000
# 4 0.0000 0.0000 0.0000 13.4504 0.0000 0.0000
# 5 0.0000 0.0000 0.0000 0.0000 34.9285 0.0000
# 6 0.0000 0.0000 0.0000 0.0000 0.0000 34.6657
#
#
#
# Elastic Compliance Matrix: (Units=1/GPa)
#
#
# Indices 1 2 3 4 5 6 
#
# 1 0.030886 -0.007326 -0.000631 0.000000 0.000000 0.000000
# 2 -0.007326 0.012216 0.002075 0.000000 0.000000 0.000000
# 3 -0.000631 0.002075 0.018659 0.000000 0.000000 0.000000
# 4 0.000000 0.000000 0.000000 0.074347 0.000000 0.000000
# 5 0.000000 0.000000 0.000000 0.000000 0.028630 0.000000
# 6 0.000000 0.000000 0.000000 0.000000 0.000000 0.028847
#
#
# Mechanical properties :
#
#
# Convention : Reuss Voigt Hill
#
# Bulk Modulus (GPa) = 20.00171 23.64966 21.82569
# Shear Modulus (GPa) = 22.52097 28.48648 25.50372
#
# Velocity S-wave (km/s) = 3.13412 3.52486 3.33521
# Velocity P-wave (km/s) = 4.67128 5.18470 4.93467
#
# Compressibility (1/GPa) = 0.04999571
#
# Stress axis : x y z
#
# Youngs Moduli (GPa) = 32.37720 81.85907 53.59388
#
# Poissons Ratio (x) = 0.59972 0.03382
# Poissons Ratio (y) = 0.23720 -0.11119
# Poissons Ratio (z) = 0.02043 -0.16984
#
# Static dielectric constant tensor:
#      x y z
#    x 1.882760 0.000000 0.000000 
#    y 0.000000 1.816390 0.000000 
#    z 0.000000 0.000000 1.881500 
# 
# From -- ./inp_files/4893.got.cif
#   From: 2010.05.17/outbox.cif.g08.bks.cpg/sg62_3_cif.got.tgz:4893.got - 2010.06.03 15:25:27.
