data_PCOD9465199
_publ_section_title
;
Structure prediction by ZEFSAII (Michael W. Deem and Ramdas Pophale) SiO2 
 PCOD9465199
Probable space group: P N M A
;
_chemical_formula_sum "Si O2"
_cell_formula_units_Z 36
_cell_length_a 13.208465
_cell_length_b 22.477184
_cell_length_c 5.121826
_cell_angle_alpha 90.000000
_cell_angle_beta 90.000000
_cell_angle_gamma 90.000000
_cell_volume 1520.614302
_symmetry_space_group_name_H-M "P N M A"
_symmetry_group_IT_number 62
_symmetry_cell_setting 'orthorhombic'
loop_
_space_group_symop_operation_xyz
x,y,z
1/2-x,-y,1/2+z
1/2+x,1/2-y,1/2-z
-x,1/2+y,-z
-x,-y,-z
1/2+x,y,1/2-z
1/2-x,1/2+y,1/2+z
x,1/2-y,z
loop_
_atom_site_type_symbol
_atom_site_label
_atom_site_fract_x
_atom_site_fract_y
_atom_site_fract_z
Si Si1 0.874092 0.250000 0.062090
Si Si2 0.472418 0.860687 0.467712
Si Si3 0.058112 0.576969 0.528994
Si Si4 0.198892 0.022897 0.412639
Si Si5 0.755899 0.643835 0.810578
O O1 0.956448 0.197296 0.982711
O O2 0.793685 0.301260 0.164483
O O3 0.492217 0.895657 0.201910
O O4 0.355732 0.843386 0.519615
O O5 0.507790 0.905497 0.697624
O O6 0.098155 0.509666 0.506593
O O7 0.164918 0.614314 0.522970
O O8 0.209859 0.093065 0.393065
O O9 0.281723 0.000442 0.619669
#
# Coordination Sequence:
#
# PCOD9465199 Si02
#       5
#     4   8   8   8   8
#     4  10  22  44  62  90 128 162 214 262 300 370
#     4  11  24  41  66  95 126 171 214 258 321 378
#     4  10  23  42  63  96 132 161 211 267 313 386
#     4  10  20  38  64  93 128 168 206 258 324 377
#     4  10  23  42  68  94 130 172 209 263 322 372
#
# _framework density 23.674641000000001
#
# number of rings (size 3 to 8) (size 9 to 14) (size 15 to 20)
#    0.000    1.778    0.000    4.667    0.000   12.444 
#    0.000    2.222    0.000    0.000    0.000    0.000 
#    0.000    0.000    0.000    0.000    0.000    0.000 
#
# Total GULP energy -200409.296033 kJ/mol
# GULP energy per Si atom -5566.924890 kJ/mol
# Density = 2.362076 g / cm^3
# Si number density = 23.674641 Si / 1000 Ang^3
#
#
#
# Elastic Constant Matrix: (Units=GPa)
#
#
# Indices 1 2 3 4 5 6 
#
# 1 160.4706 29.3643 25.0711 0.0000 0.0000 0.0000
# 2 29.3643 154.4921 37.9255 0.0000 0.0000 0.0000
# 3 25.0711 37.9255 94.9949 0.0000 0.0000 0.0000
# 4 0.0000 0.0000 0.0000 6.9384 0.0000 0.0000
# 5 0.0000 0.0000 0.0000 0.0000 24.4300 0.0000
# 6 0.0000 0.0000 0.0000 0.0000 0.0000 12.0384
#
#
#
# Elastic Compliance Matrix: (Units=1/GPa)
#
#
# Indices 1 2 3 4 5 6 
#
# 1 0.006615 -0.000919 -0.001379 0.000000 0.000000 0.000000
# 2 -0.000919 0.007304 -0.002673 0.000000 0.000000 0.000000
# 3 -0.001379 -0.002673 0.011958 0.000000 0.000000 0.000000
# 4 0.000000 0.000000 0.000000 0.144125 0.000000 0.000000
# 5 0.000000 0.000000 0.000000 0.000000 0.040933 0.000000
# 6 0.000000 0.000000 0.000000 0.000000 0.000000 0.083067
#
#
# Mechanical properties :
#
#
# Convention : Reuss Voigt Hill
#
# Bulk Modulus (GPa) = 62.75677 66.07549 64.41613
# Shear Modulus (GPa) = 16.16778 29.85448 23.01113
#
# Velocity S-wave (km/s) = 2.61610 3.55495 3.12103
# Velocity P-wave (km/s) = 5.97418 6.69482 6.34474
#
# Compressibility (1/GPa) = 0.01593454
#
# Stress axis : x y z
#
# Youngs Moduli (GPa) = 151.16554 136.91602 83.62480
#
# Poissons Ratio (x) = 0.12580 0.11533
# Poissons Ratio (y) = 0.13889 0.22356
# Poissons Ratio (z) = 0.20847 0.36604
#
# Static dielectric constant tensor:
#      x y z
#    x 1.988420 0.000000 0.000000 
#    y 0.000000 1.867790 0.000000 
#    z 0.000000 0.000000 1.859600 
# 
# From -- ./inp_files/1062.got.cif
#   From: 2010.05.17/outbox.cif.g08.bks.cpg/sg62_1_cif.got.tgz:1062.got - 2010.06.03 15:25:27.
