data_PCOD9465931
_publ_section_title
;
Structure prediction by ZEFSAII (Michael W. Deem and Ramdas Pophale) SiO2 
 PCOD9465931
Probable space group: P N M A
;
_chemical_formula_sum "Si O2"
_cell_formula_units_Z 64
_cell_length_a 19.119036
_cell_length_b 25.559817
_cell_length_c 5.762786
_cell_angle_alpha 90.000000
_cell_angle_beta 90.000000
_cell_angle_gamma 90.000000
_cell_volume 2816.152853
_symmetry_space_group_name_H-M "P N M A"
_symmetry_group_IT_number 62
_symmetry_cell_setting 'orthorhombic'
loop_
_space_group_symop_operation_xyz
x,y,z
1/2-x,-y,1/2+z
1/2+x,1/2-y,1/2-z
-x,1/2+y,-z
-x,-y,-z
1/2+x,y,1/2-z
1/2-x,1/2+y,1/2+z
x,1/2-y,z
loop_
_atom_site_type_symbol
_atom_site_label
_atom_site_fract_x
_atom_site_fract_y
_atom_site_fract_z
Si Si1 0.176040 0.873624 0.076487
Si Si2 0.028470 0.620678 0.288848
Si Si3 0.747147 0.445515 0.580500
Si Si4 0.198600 0.307800 0.550381
Si Si5 0.416024 0.691989 0.409661
Si Si6 0.499100 0.064067 0.287800
Si Si7 0.858251 0.467608 0.249395
Si Si8 0.863211 0.894435 0.758805
O O1 0.108895 0.864071 0.238448
O O2 0.233260 0.909626 0.205776
O O3 0.219605 0.821172 0.029314
O O4 0.150578 0.909685 0.862699
O O5 0.020551 0.597150 0.549048
O O6 0.974409 0.668949 0.264222
O O7 0.011485 0.584656 0.056799
O O8 0.822481 0.465882 0.499206
O O9 0.693223 0.491886 0.625924
O O10 0.706817 0.411919 0.387789
O O11 0.184558 0.250000 0.442856
O O12 0.161590 0.304768 0.799906
O O13 0.160101 0.359021 0.452303
O O14 0.436332 0.750000 0.486470
O O15 0.408485 0.648566 0.603747
O O16 0.439846 0.019203 0.267023
O O17 0.582005 0.057870 0.243729
#
# Coordination Sequence:
#
# PCOD9465931 Si02
#       8
#     8   8   8   8   8   8   8   8
#     4  11  22  39  62  88 128 168 215 271 329 386
#     4  10  21  39  64  88 125 172 211 263 326 386
#     4  12  22  37  65  90 127 169 220 267 334 401
#     4  11  22  37  62  93 124 164 216 271 327 393
#     4  10  21  38  61  89 122 167 218 265 324 396
#     4  10  22  40  64  91 127 167 216 263 322 387
#     4  11  23  39  63  93 123 171 220 267 325 403
#     4  11  22  39  64  91 130 170 217 272 339 387
#
# _framework density 22.726039
#
# number of rings (size 3 to 8) (size 9 to 14) (size 15 to 20)
#    0.000    1.250    6.250    0.375    0.000    1.000 
#    0.000    0.000    0.000    5.250    0.000    0.000 
#    0.000    0.000    0.000    0.000    0.000    0.000 
#
# Total GULP energy -356321.303072 kJ/mol
# GULP energy per Si atom -5567.520360 kJ/mol
# Density = 2.267431 g / cm^3
# Si number density = 22.726039 Si / 1000 Ang^3
#
#
#
# Elastic Constant Matrix: (Units=GPa)
#
#
# Indices 1 2 3 4 5 6 
#
# 1 125.6571 26.5186 19.6483 0.0000 0.0000 0.0000
# 2 26.5186 57.5209 14.5171 0.0000 0.0000 0.0000
# 3 19.6483 14.5171 63.1042 0.0000 0.0000 0.0000
# 4 0.0000 0.0000 0.0000 18.5077 0.0000 0.0000
# 5 0.0000 0.0000 0.0000 0.0000 31.8827 0.0000
# 6 0.0000 0.0000 0.0000 0.0000 0.0000 26.2085
#
#
#
# Elastic Compliance Matrix: (Units=1/GPa)
#
#
# Indices 1 2 3 4 5 6 
#
# 1 0.009041 -0.003671 -0.001971 0.000000 0.000000 0.000000
# 2 -0.003671 0.019947 -0.003446 0.000000 0.000000 0.000000
# 3 -0.001971 -0.003446 0.017253 0.000000 0.000000 0.000000
# 4 0.000000 0.000000 0.000000 0.054032 0.000000 0.000000
# 5 0.000000 0.000000 0.000000 0.000000 0.031365 0.000000
# 6 0.000000 0.000000 0.000000 0.000000 0.000000 0.038156
#
#
# Mechanical properties :
#
#
# Convention : Reuss Voigt Hill
#
# Bulk Modulus (GPa) = 35.62950 40.85003 38.23976
# Shear Modulus (GPa) = 25.33915 27.69299 26.51607
#
# Velocity S-wave (km/s) = 3.34276 3.49457 3.41951
# Velocity P-wave (km/s) = 5.53268 5.85634 5.69681
#
# Compressibility (1/GPa) = 0.02806663
#
# Stress axis : x y z
#
# Youngs Moduli (GPa) = 110.60758 50.13287 57.96069
#
# Poissons Ratio (x) = 0.18403 0.11421
# Poissons Ratio (y) = 0.40602 0.19972
# Poissons Ratio (z) = 0.21796 0.17275
#
# Static dielectric constant tensor:
#      x y z
#    x 1.915130 0.000000 0.000000 
#    y 0.000000 1.921550 0.000000 
#    z 0.000000 0.000000 1.922500 
# 
# From -- ./inp_files/2406.got.cif
#   From: 2010.05.17/outbox.cif.g08.bks.cpg/sg62_2_cif.got.tgz:2406.got - 2010.06.03 15:25:27.
