data_PCOD9465306
_publ_section_title
;
Structure prediction by ZEFSAII (Michael W. Deem and Ramdas Pophale) SiO2 
 PCOD9465306
Probable space group: P N M A
;
_chemical_formula_sum "Si O2"
_cell_formula_units_Z 40
_cell_length_a 7.968057
_cell_length_b 11.223921
_cell_length_c 19.884541
_cell_angle_alpha 90.000000
_cell_angle_beta 90.000000
_cell_angle_gamma 90.000000
_cell_volume 1778.331019
_symmetry_space_group_name_H-M "P N M A"
_symmetry_group_IT_number 62
_symmetry_cell_setting 'orthorhombic'
loop_
_space_group_symop_operation_xyz
x,y,z
1/2-x,-y,1/2+z
1/2+x,1/2-y,1/2-z
-x,1/2+y,-z
-x,-y,-z
1/2+x,y,1/2-z
1/2-x,1/2+y,1/2+z
x,1/2-y,z
loop_
_atom_site_type_symbol
_atom_site_label
_atom_site_fract_x
_atom_site_fract_y
_atom_site_fract_z
Si Si1 0.490104 0.388625 0.783783
Si Si2 0.680703 0.499328 0.331491
Si Si3 0.791526 0.390358 0.457253
Si Si4 0.159148 0.478266 0.407754
Si Si5 0.349173 0.750000 0.723726
Si Si6 0.804896 0.250000 0.142715
O O1 0.450319 0.250000 0.777799
O O2 0.673867 0.407146 0.814730
O O3 0.474540 0.454280 0.712003
O O4 0.370214 0.454819 0.837262
O O5 0.671813 0.470790 0.410021
O O6 0.735700 0.371778 0.300363
O O7 0.757447 0.250000 0.449627
O O8 0.786699 0.431112 0.534201
O O9 0.979806 0.421337 0.430611
O O10 0.286284 0.369211 0.399522
O O11 0.529430 0.750000 0.687964
O O12 0.348979 0.750000 0.803913
#
# Coordination Sequence:
#
# PCOD9465306 Si02
#       6
#     8   8   8   8   4   4
#     4  11  23  40  62  93 130 166 216 268 334 397
#     4  11  23  40  68  94 124 171 215 275 333 390
#     4  10  20  39  64  93 127 171 226 272 322 389
#     4  10  22  37  64  94 128 170 221 272 323 390
#     4  12  24  40  70 100 128 163 219 288 326 393
#     4  12  24  40  66 102 134 167 225 278 334 393
#
# _framework density 22.492999000000001
#
# number of rings (size 3 to 8) (size 9 to 14) (size 15 to 20)
#    0.000    1.200    4.000    2.400    2.800    0.000 
#    3.600    1.000    0.000    0.000    0.000    0.000 
#    0.000    0.000    0.000    0.000    0.000    0.000 
#
# Total GULP energy -223750.583154 kJ/mol
# GULP energy per Si atom -5593.764579 kJ/mol
# Density = 2.244180 g / cm^3
# Si number density = 22.492999 Si / 1000 Ang^3
#
#
#
# Elastic Constant Matrix: (Units=GPa)
#
#
# Indices 1 2 3 4 5 6 
#
# 1 56.1626 16.6635 33.8729 0.0000 0.0000 0.0000
# 2 16.6635 128.8233 27.8337 0.0000 0.0000 0.0000
# 3 33.8729 27.8337 76.9231 0.0000 0.0000 0.0000
# 4 0.0000 0.0000 0.0000 38.0540 0.0000 0.0000
# 5 0.0000 0.0000 0.0000 0.0000 21.0229 0.0000
# 6 0.0000 0.0000 0.0000 0.0000 0.0000 23.9880
#
#
#
# Elastic Compliance Matrix: (Units=1/GPa)
#
#
# Indices 1 2 3 4 5 6 
#
# 1 0.024341 -0.000903 -0.010392 0.000000 0.000000 0.000000
# 2 -0.000903 0.008454 -0.002661 0.000000 0.000000 0.000000
# 3 -0.010392 -0.002661 0.018539 0.000000 0.000000 0.000000
# 4 0.000000 0.000000 0.000000 0.026278 0.000000 0.000000
# 5 0.000000 0.000000 0.000000 0.000000 0.047567 0.000000
# 6 0.000000 0.000000 0.000000 0.000000 0.000000 0.041687
#
#
# Mechanical properties :
#
#
# Convention : Reuss Voigt Hill
#
# Bulk Modulus (GPa) = 42.69555 46.51660 44.60607
# Shear Modulus (GPa) = 24.68075 28.84891 26.76483
#
# Velocity S-wave (km/s) = 3.31609 3.58519 3.45326
# Velocity P-wave (km/s) = 5.80387 6.15333 5.98115
#
# Compressibility (1/GPa) = 0.02342165
#
# Stress axis : x y z
#
# Youngs Moduli (GPa) = 41.08315 118.28114 53.94065
#
# Poissons Ratio (x) = 0.10685 0.56053
# Poissons Ratio (y) = 0.03711 0.14356
# Poissons Ratio (z) = 0.42692 0.31479
#
# Static dielectric constant tensor:
#      x y z
#    x 1.888020 0.000000 0.000000 
#    y 0.000000 1.763230 0.000000 
#    z 0.000000 0.000000 1.826540 
# 
# From -- ./inp_files/21937.got.cif
#   From: 2010.05.17/outbox.cif.g08.bks.cpg/sg62_11_cif.got.tgz:21937.got - 2010.06.03 15:25:27.
