data_PCOD9465285
_publ_section_title
;
Structure prediction by ZEFSAII (Michael W. Deem and Ramdas Pophale) SiO2 
 PCOD9465285
Probable space group: P N M A
;
_chemical_formula_sum "Si O2"
_cell_formula_units_Z 48
_cell_length_a 14.267108
_cell_length_b 9.355007
_cell_length_c 17.637173
_cell_angle_alpha 90.000000
_cell_angle_beta 90.000000
_cell_angle_gamma 90.000000
_cell_volume 2354.013995
_symmetry_space_group_name_H-M "P N M A"
_symmetry_group_IT_number 62
_symmetry_cell_setting 'orthorhombic'
loop_
_space_group_symop_operation_xyz
x,y,z
1/2-x,-y,1/2+z
1/2+x,1/2-y,1/2-z
-x,1/2+y,-z
-x,-y,-z
1/2+x,y,1/2-z
1/2-x,1/2+y,1/2+z
x,1/2-y,z
loop_
_atom_site_type_symbol
_atom_site_label
_atom_site_fract_x
_atom_site_fract_y
_atom_site_fract_z
Si Si1 0.539763 0.086785 0.612499
Si Si2 0.360202 0.580073 0.840846
Si Si3 0.076913 0.583886 0.648094
Si Si4 0.326232 0.419338 0.997890
Si Si5 0.804101 0.578920 0.234658
Si Si6 0.626648 0.087017 0.442816
O O1 0.518690 0.250000 0.633175
O O2 0.621819 0.036392 0.668192
O O3 0.581610 0.085292 0.527335
O O4 0.443762 0.999421 0.610104
O O5 0.342571 0.750000 0.841102
O O6 0.470517 0.557093 0.827069
O O7 0.292924 0.500117 0.782177
O O8 0.338267 0.511434 0.922973
O O9 0.100891 0.750000 0.665542
O O10 0.089629 0.567938 0.557738
O O11 0.146837 0.478088 0.690081
O O12 0.314776 0.250000 0.977769
O O13 0.232226 0.463719 0.043268
O O14 0.792632 0.750000 0.233447
O O15 0.630945 0.250000 0.415701
#
# Coordination Sequence:
#
# PCOD9465285 Si02
#       6
#     8   8   8   8   8   8
#     4   9  18  33  52  80 114 149 192 238 288 347
#     4  11  23  40  64  91 121 159 203 250 306 367
#     4  10  24  42  61  90 124 158 201 255 308 361
#     4  10  20  39  63  88 122 159 201 251 302 360
#     4  11  23  41  63  87 121 164 206 251 306 366
#     4   9  17  31  54  83 113 148 187 238 295 344
#
# _framework density 20.390702000000001
#
# number of rings (size 3 to 8) (size 9 to 14) (size 15 to 20)
#    0.000    2.000    1.667    1.500    0.000    5.333 
#    0.000    5.000    0.000    0.000    0.000    0.000 
#    0.000    0.000    0.000    0.000    0.000    0.000 
#
# Total GULP energy -268119.391151 kJ/mol
# GULP energy per Si atom -5585.820649 kJ/mol
# Density = 2.034429 g / cm^3
# Si number density = 20.390702 Si / 1000 Ang^3
#
#
#
# Elastic Constant Matrix: (Units=GPa)
#
#
# Indices 1 2 3 4 5 6 
#
# 1 97.6258 58.2338 25.4394 0.0000 0.0000 0.0000
# 2 58.2338 71.1299 34.2200 0.0000 0.0000 0.0000
# 3 25.4394 34.2200 31.2254 0.0000 0.0000 0.0000
# 4 0.0000 0.0000 0.0000 25.6076 0.0000 0.0000
# 5 0.0000 0.0000 0.0000 0.0000 20.3460 0.0000
# 6 0.0000 0.0000 0.0000 0.0000 0.0000 29.4796
#
#
#
# Elastic Compliance Matrix: (Units=1/GPa)
#
#
# Indices 1 2 3 4 5 6 
#
# 1 0.020202 -0.018235 0.003526 0.000000 0.000000 0.000000
# 2 -0.018235 0.046198 -0.035772 0.000000 0.000000 0.000000
# 3 0.003526 -0.035772 0.068355 0.000000 0.000000 0.000000
# 4 0.000000 0.000000 0.000000 0.039051 0.000000 0.000000
# 5 0.000000 0.000000 0.000000 0.000000 0.049150 0.000000
# 6 0.000000 0.000000 0.000000 0.000000 0.000000 0.033922
#
#
# Mechanical properties :
#
#
# Convention : Reuss Voigt Hill
#
# Bulk Modulus (GPa) = 29.59288 48.41861 39.00574
# Shear Modulus (GPa) = 13.54634 20.55917 17.05275
#
# Velocity S-wave (km/s) = 2.58027 3.17876 2.89502
# Velocity P-wave (km/s) = 4.83958 6.10489 5.50868
#
# Compressibility (1/GPa) = 0.03379192
#
# Stress axis : x y z
#
# Youngs Moduli (GPa) = 49.50033 21.64617 14.62949
#
# Poissons Ratio (x) = 0.39473 -0.05158
# Poissons Ratio (y) = 0.90266 0.52332
# Poissons Ratio (z) = -0.17453 0.77432
#
# Static dielectric constant tensor:
#      x y z
#    x 1.734410 0.000000 0.000000 
#    y 0.000000 1.698370 0.000000 
#    z 0.000000 0.000000 1.725240 
# 
# From -- ./inp_files/23702.got.cif
#   From: 2010.05.17/outbox.cif.g08.bks.cpg/sg62_12_cif.got.tgz:23702.got - 2010.06.03 15:25:27.
