data_PCOD9465413
_publ_section_title
;
Structure prediction by ZEFSAII (Michael W. Deem and Ramdas Pophale) SiO2 
 PCOD9465413
Probable space group: P N M A
;
_chemical_formula_sum "Si O2"
_cell_formula_units_Z 48
_cell_length_a 20.004774
_cell_length_b 22.159654
_cell_length_c 4.817709
_cell_angle_alpha 90.000000
_cell_angle_beta 90.000000
_cell_angle_gamma 90.000000
_cell_volume 2135.684957
_symmetry_space_group_name_H-M "P N M A"
_symmetry_group_IT_number 62
_symmetry_cell_setting 'orthorhombic'
loop_
_space_group_symop_operation_xyz
x,y,z
1/2-x,-y,1/2+z
1/2+x,1/2-y,1/2-z
-x,1/2+y,-z
-x,-y,-z
1/2+x,y,1/2-z
1/2-x,1/2+y,1/2+z
x,1/2-y,z
loop_
_atom_site_type_symbol
_atom_site_label
_atom_site_fract_x
_atom_site_fract_y
_atom_site_fract_z
Si Si1 0.689742 0.060506 0.361379
Si Si2 0.857186 0.182306 0.127117
Si Si3 0.993031 0.179991 0.434444
Si Si4 0.716586 0.923478 0.356661
Si Si5 0.338134 0.750000 0.098468
Si Si6 0.752241 0.750000 0.915378
Si Si7 0.577859 0.352449 0.595168
O O1 0.717448 0.076886 0.056744
O O2 0.625088 0.095623 0.471685
O O3 0.681713 0.988551 0.391608
O O4 0.752335 0.077228 0.554161
O O5 0.872569 0.250000 0.006538
O O6 0.833532 0.130508 0.922459
O O7 0.793254 0.194872 0.321759
O O8 0.920694 0.165073 0.311263
O O9 0.992029 0.250000 0.534226
O O10 0.018427 0.136953 0.681881
O O11 0.043179 0.176636 0.173356
O O12 0.268197 0.750000 0.263489
O O13 0.376100 0.807617 0.221184
O O14 0.318896 0.750000 0.775842
#
# Coordination Sequence:
#
# PCOD9465413 Si02
#       7
#     8   8   8   8   4   4   8
#     4  10  22  37  63  85 119 148 187 233 301 342
#     4   9  22  40  60  84 117 150 201 230 284 338
#     4  11  22  40  54  82 115 165 183 241 280 335
#     4  10  20  42  60  87 116 151 183 242 292 342
#     4  12  20  32  54  80 114 138 174 242 276 326
#     4  10  22  32  54  84 106 136 184 230 276 328
#     4  12  22  36  58  83 118 148 199 224 291 339
#
# _framework density 22.475223
#
# number of rings (size 3 to 8) (size 9 to 14) (size 15 to 20)
#    0.500    1.000    1.667    4.000    0.000    2.667 
#    0.000    1.667    0.000    0.000    0.000    0.000 
#    0.000    0.000    0.000    0.000    0.000    0.000 
#
# Total GULP energy -268347.046703 kJ/mol
# GULP energy per Si atom -5590.563473 kJ/mol
# Density = 2.242407 g / cm^3
# Si number density = 22.475223 Si / 1000 Ang^3
#
#
#
# Elastic Constant Matrix: (Units=GPa)
#
#
# Indices 1 2 3 4 5 6 
#
# 1 61.1826 26.0408 10.4476 0.0000 0.0000 0.0000
# 2 26.0408 103.9196 13.8429 0.0000 0.0000 0.0000
# 3 10.4476 13.8429 80.3065 0.0000 0.0000 0.0000
# 4 0.0000 0.0000 0.0000 20.5248 0.0000 0.0000
# 5 0.0000 0.0000 0.0000 0.0000 24.9238 0.0000
# 6 0.0000 0.0000 0.0000 0.0000 0.0000 27.9282
#
#
#
# Elastic Compliance Matrix: (Units=1/GPa)
#
#
# Indices 1 2 3 4 5 6 
#
# 1 0.018506 -0.004418 -0.001646 0.000000 0.000000 0.000000
# 2 -0.004418 0.010904 -0.001305 0.000000 0.000000 0.000000
# 3 -0.001646 -0.001305 0.012891 0.000000 0.000000 0.000000
# 4 0.000000 0.000000 0.000000 0.048722 0.000000 0.000000
# 5 0.000000 0.000000 0.000000 0.000000 0.040122 0.000000
# 6 0.000000 0.000000 0.000000 0.000000 0.000000 0.035806
#
#
# Mechanical properties :
#
#
# Convention : Reuss Voigt Hill
#
# Bulk Modulus (GPa) = 36.27998 38.45236 37.36617
# Shear Modulus (GPa) = 26.19493 27.68051 26.93772
#
# Velocity S-wave (km/s) = 3.41765 3.51322 3.46577
# Velocity P-wave (km/s) = 5.63480 5.79680 5.71638
#
# Compressibility (1/GPa) = 0.02756341
#
# Stress axis : x y z
#
# Youngs Moduli (GPa) = 54.03645 91.71160 77.57145
#
# Poissons Ratio (x) = 0.40519 0.12768
# Poissons Ratio (y) = 0.23874 0.10121
# Poissons Ratio (z) = 0.08894 0.11966
#
# Static dielectric constant tensor:
#      x y z
#    x 1.876450 0.000000 0.000000 
#    y 0.000000 1.872940 0.000000 
#    z 0.000000 0.000000 1.822160 
# 
# From -- ./inp_files/1747.got.cif
#   From: 2010.05.17/outbox.cif.g08.bks.cpg/sg62_1_cif.got.tgz:1747.got - 2010.06.03 15:25:27.
