data_PCOD9465780
_publ_section_title
;
Structure prediction by ZEFSAII (Michael W. Deem and Ramdas Pophale) SiO2 
 PCOD9465780
Probable space group: P N M A
;
_chemical_formula_sum "Si O2"
_cell_formula_units_Z 40
_cell_length_a 21.331168
_cell_length_b 8.963353
_cell_length_c 10.456121
_cell_angle_alpha 90.000000
_cell_angle_beta 90.000000
_cell_angle_gamma 90.000000
_cell_volume 1999.197670
_symmetry_space_group_name_H-M "P N M A"
_symmetry_group_IT_number 62
_symmetry_cell_setting 'orthorhombic'
loop_
_space_group_symop_operation_xyz
x,y,z
1/2-x,-y,1/2+z
1/2+x,1/2-y,1/2-z
-x,1/2+y,-z
-x,-y,-z
1/2+x,y,1/2-z
1/2-x,1/2+y,1/2+z
x,1/2-y,z
loop_
_atom_site_type_symbol
_atom_site_label
_atom_site_fract_x
_atom_site_fract_y
_atom_site_fract_z
Si Si1 0.542216 0.426275 0.685806
Si Si2 0.413371 0.926950 0.601390
Si Si3 0.936884 0.072590 0.446356
Si Si4 0.800673 0.071565 0.527970
Si Si5 0.783190 0.428718 0.813155
O O1 0.538063 0.250000 0.711979
O O2 0.577788 0.447292 0.551448
O O3 0.472823 0.493644 0.666446
O O4 0.573502 0.509358 0.804208
O O5 0.414944 0.750000 0.627767
O O6 0.349074 0.998745 0.646789
O O7 0.944760 0.250000 0.442491
O O8 0.874998 0.038649 0.528863
O O9 0.000000 0.000000 0.500000
O O10 0.793508 0.250000 0.509410
O O11 0.771157 0.031485 0.664858
O O12 0.768304 0.988118 0.411154
O O13 0.787809 0.250000 0.820217
#
# Coordination Sequence:
#
# PCOD9465780 Si02
#       5
#     8   8   8   8   8
#     4  10  21  37  60  92 127 163 209 259 311 378
#     4  10  21  38  62  91 127 166 206 258 315 375
#     4  11  23  40  64  91 126 166 210 266 322 380
#     4  10  25  45  63  92 129 166 213 263 316 381
#     4  11  24  42  66  92 125 167 212 264 318 377
#
# _framework density 20.008026999999998
#
# number of rings (size 3 to 8) (size 9 to 14) (size 15 to 20)
#    0.000    1.600    0.000    3.600    2.800    7.200 
#    0.000    0.000    0.000    0.000    0.000    0.000 
#    0.000    0.000    0.000    0.000    0.000    0.000 
#
# Total GULP energy -223719.410318 kJ/mol
# GULP energy per Si atom -5592.985258 kJ/mol
# Density = 1.996249 g / cm^3
# Si number density = 20.008027 Si / 1000 Ang^3
#
#
#
# Elastic Constant Matrix: (Units=GPa)
#
#
# Indices 1 2 3 4 5 6 
#
# 1 57.9686 42.0635 48.7202 0.0000 0.0000 0.0000
# 2 42.0635 68.5735 55.7309 0.0000 0.0000 0.0000
# 3 48.7202 55.7309 102.4657 0.0000 0.0000 0.0000
# 4 0.0000 0.0000 0.0000 33.9334 0.0000 0.0000
# 5 0.0000 0.0000 0.0000 0.0000 29.3600 0.0000
# 6 0.0000 0.0000 0.0000 0.0000 0.0000 36.7125
#
#
#
# Elastic Compliance Matrix: (Units=1/GPa)
#
#
# Indices 1 2 3 4 5 6 
#
# 1 0.035123 -0.014288 -0.008929 0.000000 0.000000 0.000000
# 2 -0.014288 0.031948 -0.010583 0.000000 0.000000 0.000000
# 3 -0.008929 -0.010583 0.019761 0.000000 0.000000 0.000000
# 4 0.000000 0.000000 0.000000 0.029470 0.000000 0.000000
# 5 0.000000 0.000000 0.000000 0.000000 0.034060 0.000000
# 6 0.000000 0.000000 0.000000 0.000000 0.000000 0.027239
#
#
# Mechanical properties :
#
#
# Convention : Reuss Voigt Hill
#
# Bulk Modulus (GPa) = 51.99591 58.00412 55.00001
# Shear Modulus (GPa) = 19.87199 25.50073 22.68636
#
# Velocity S-wave (km/s) = 3.15493 3.57392 3.37094
# Velocity P-wave (km/s) = 6.27020 6.78851 6.53450
#
# Compressibility (1/GPa) = 0.01923228
#
# Stress axis : x y z
#
# Youngs Moduli (GPa) = 28.47150 31.30074 50.60484
#
# Poissons Ratio (x) = 0.44722 0.45185
# Poissons Ratio (y) = 0.40680 0.53555
# Poissons Ratio (z) = 0.25422 0.33125
#
# Static dielectric constant tensor:
#      x y z
#    x 1.689010 0.000000 0.000000 
#    y 0.000000 1.661670 0.000000 
#    z 0.000000 0.000000 1.719740 
# 
# From -- ./inp_files/14627.got.cif
#   From: 2010.05.17/outbox.cif.g08.bks.cpg/sg62_8_cif.got.tgz:14627.got - 2010.06.03 15:25:27.
