data_PCOD9465057
_publ_section_title
;
Structure prediction by ZEFSAII (Michael W. Deem and Ramdas Pophale) SiO2 
 PCOD9465057
Probable space group: P N M A
;
_chemical_formula_sum "Si O2"
_cell_formula_units_Z 48
_cell_length_a 9.802502
_cell_length_b 16.627966
_cell_length_c 15.196004
_cell_angle_alpha 90.000000
_cell_angle_beta 90.000000
_cell_angle_gamma 90.000000
_cell_volume 2476.882853
_symmetry_space_group_name_H-M "P N M A"
_symmetry_group_IT_number 62
_symmetry_cell_setting 'orthorhombic'
loop_
_space_group_symop_operation_xyz
x,y,z
1/2-x,-y,1/2+z
1/2+x,1/2-y,1/2-z
-x,1/2+y,-z
-x,-y,-z
1/2+x,y,1/2-z
1/2-x,1/2+y,1/2+z
x,1/2-y,z
loop_
_atom_site_type_symbol
_atom_site_label
_atom_site_fract_x
_atom_site_fract_y
_atom_site_fract_z
Si Si1 0.270445 0.117382 0.924929
Si Si2 0.539569 0.842237 0.910270
Si Si3 0.362467 0.999678 0.170168
Si Si4 0.044824 0.658339 0.058305
Si Si5 0.383904 0.409851 0.745826
Si Si6 0.286287 0.936623 0.978618
O O1 0.371189 0.149943 0.000053
O O2 0.116355 0.142132 0.946687
O O3 0.319128 0.139376 0.826989
O O4 0.276726 0.020137 0.926919
O O5 0.539626 0.750000 0.881323
O O6 0.388364 0.874654 0.932629
O O7 0.603600 0.906833 0.842791
O O8 0.478569 0.951875 0.221735
O O9 0.220735 0.979388 0.216313
O O10 0.352973 0.961942 0.072182
O O11 0.073746 0.750000 0.034160
O O12 0.087980 0.642463 0.159398
O O13 0.138495 0.600259 0.999257
#
# Coordination Sequence:
#
# PCOD9465057 Si02
#       6
#     8   8   8   8   8   8
#     4  11  20  38  60  83 112 154 191 227 277 343
#     4  11  21  36  60  85 113 145 189 245 280 319
#     4  10  20  38  57  82 108 150 194 219 272 348
#     4  11  24  36  53  89 122 145 181 238 294 330
#     4  11  20  37  59  80 112 153 187 223 272 343
#     4  10  20  38  61  81 111 152 197 224 272 345
#
# _framework density 19.379197000000001
#
# number of rings (size 3 to 8) (size 9 to 14) (size 15 to 20)
#    0.000    1.333    5.000    2.500    0.000    1.333 
#    0.000    0.833    0.000    0.000    0.000    0.000 
#    0.000    0.000    0.000    0.000    0.000    0.000 
#
# Total GULP energy -268189.482278 kJ/mol
# GULP energy per Si atom -5587.280881 kJ/mol
# Density = 1.933509 g / cm^3
# Si number density = 19.379197 Si / 1000 Ang^3
#
#
#
# Elastic Constant Matrix: (Units=GPa)
#
#
# Indices 1 2 3 4 5 6 
#
# 1 68.7489 -0.2510 -6.9287 0.0000 0.0000 0.0000
# 2 -0.2510 80.3879 -21.2819 0.0000 0.0000 0.0000
# 3 -6.9287 -21.2819 17.9622 0.0000 0.0000 0.0000
# 4 0.0000 0.0000 0.0000 11.7934 0.0000 0.0000
# 5 0.0000 0.0000 0.0000 0.0000 11.4687 0.0000
# 6 0.0000 0.0000 0.0000 0.0000 0.0000 22.5214
#
#
#
# Elastic Compliance Matrix: (Units=1/GPa)
#
#
# Indices 1 2 3 4 5 6 
#
# 1 0.015437 0.002367 0.008759 0.000000 0.000000 0.000000
# 2 0.002367 0.018488 0.022818 0.000000 0.000000 0.000000
# 3 0.008759 0.022818 0.086086 0.000000 0.000000 0.000000
# 4 0.000000 0.000000 0.000000 0.084793 0.000000 0.000000
# 5 0.000000 0.000000 0.000000 0.000000 0.087194 0.000000
# 6 0.000000 0.000000 0.000000 0.000000 0.000000 0.044402
#
#
# Mechanical properties :
#
#
# Convention : Reuss Voigt Hill
#
# Bulk Modulus (GPa) = 5.32197 12.24174 8.78186
# Shear Modulus (GPa) = 15.09911 22.19407 18.64659
#
# Velocity S-wave (km/s) = 2.79434 3.38783 3.10529
# Velocity P-wave (km/s) = 3.62812 4.65122 4.17116
#
# Compressibility (1/GPa) = 0.18790017
#
# Stress axis : x y z
#
# Youngs Moduli (GPa) = 64.77891 54.08944 11.61624
#
# Poissons Ratio (x) = -0.12804 -0.10175
# Poissons Ratio (y) = -0.15334 -0.26506
# Poissons Ratio (z) = -0.56742 -1.23421
#
# Static dielectric constant tensor:
#      x y z
#    x 1.670590 0.000000 0.000000 
#    y 0.000000 1.659760 0.000000 
#    z 0.000000 0.000000 1.678110 
# 
# From -- ./inp_files/16924.got.cif
#   From: 2010.05.17/outbox.cif.g08.bks.cpg/sg62_9_cif.got.tgz:16924.got - 2010.06.03 15:25:27.
