data_PCOD9465592
_publ_section_title
;
Structure prediction by ZEFSAII (Michael W. Deem and Ramdas Pophale) SiO2 
 PCOD9465592
Probable space group: P N M A
;
_chemical_formula_sum "Si O2"
_cell_formula_units_Z 48
_cell_length_a 11.877389
_cell_length_b 9.581516
_cell_length_c 22.362923
_cell_angle_alpha 90.000000
_cell_angle_beta 90.000000
_cell_angle_gamma 90.000000
_cell_volume 2544.976509
_symmetry_space_group_name_H-M "P N M A"
_symmetry_group_IT_number 62
_symmetry_cell_setting 'orthorhombic'
loop_
_space_group_symop_operation_xyz
x,y,z
1/2-x,-y,1/2+z
1/2+x,1/2-y,1/2-z
-x,1/2+y,-z
-x,-y,-z
1/2+x,y,1/2-z
1/2-x,1/2+y,1/2+z
x,1/2-y,z
loop_
_atom_site_type_symbol
_atom_site_label
_atom_site_fract_x
_atom_site_fract_y
_atom_site_fract_z
Si Si1 0.385405 0.587970 0.278780
Si Si2 0.738181 0.914529 0.104081
Si Si3 0.080778 0.908474 0.958470
Si Si4 0.784783 0.586082 0.353375
Si Si5 0.008518 0.083921 0.561350
Si Si6 0.434660 0.592924 0.661926
O O1 0.419897 0.750000 0.285879
O O2 0.292397 0.559735 0.330514
O O3 0.334189 0.570609 0.213391
O O4 0.492944 0.491033 0.289483
O O5 0.757592 0.750000 0.090583
O O6 0.605353 0.940785 0.099524
O O7 0.804341 0.009855 0.056399
O O8 0.098803 0.750000 0.980932
O O9 0.015512 0.899604 0.895578
O O10 0.000000 0.000000 0.000000
O O11 0.756883 0.750000 0.361953
O O12 0.675161 0.491685 0.357000
O O13 0.880987 0.546737 0.400747
O O14 0.013281 0.250000 0.549230
O O15 0.000000 0.000000 0.500000
O O16 0.406882 0.750000 0.681247
#
# Coordination Sequence:
#
# PCOD9465592 Si02
#       6
#     8   8   8   8   8   8
#     4   9  19  37  64  89 112 146 191 242 292 342
#     4   9  19  37  59  84 114 148 188 238 290 343
#     4  10  21  36  57  83 112 147 189 235 285 337
#     4  10  22  38  62  89 115 151 196 242 286 345
#     4  10  23  40  58  85 119 156 199 240 289 348
#     4  10  22  38  56  84 120 150 185 235 291 349
#
# _framework density 18.860686000000001
#
# number of rings (size 3 to 8) (size 9 to 14) (size 15 to 20)
#    0.000    2.333    0.000    1.000    4.667    4.000 
#    0.000    0.000    0.000    0.000    0.000    0.000 
#    0.000    0.000    0.000    0.000    0.000    0.000 
#
# Total GULP energy -267934.069177 kJ/mol
# GULP energy per Si atom -5581.959775 kJ/mol
# Density = 1.881776 g / cm^3
# Si number density = 18.860686 Si / 1000 Ang^3
#
#
#
# Elastic Constant Matrix: (Units=GPa)
#
#
# Indices 1 2 3 4 5 6 
#
# 1 119.6031 62.5041 12.3827 0.0000 0.0000 0.0000
# 2 62.5041 77.2540 26.2370 0.0000 0.0000 0.0000
# 3 12.3827 26.2370 45.2705 0.0000 0.0000 0.0000
# 4 0.0000 0.0000 0.0000 22.9703 0.0000 0.0000
# 5 0.0000 0.0000 0.0000 0.0000 7.4115 0.0000
# 6 0.0000 0.0000 0.0000 0.0000 0.0000 28.7744
#
#
#
# Elastic Compliance Matrix: (Units=1/GPa)
#
#
# Indices 1 2 3 4 5 6 
#
# 1 0.014952 -0.013332 0.003637 0.000000 0.000000 0.000000
# 2 -0.013332 0.028005 -0.012584 0.000000 0.000000 0.000000
# 3 0.003637 -0.012584 0.028388 0.000000 0.000000 0.000000
# 4 0.000000 0.000000 0.000000 0.043534 0.000000 0.000000
# 5 0.000000 0.000000 0.000000 0.000000 0.134925 0.000000
# 6 0.000000 0.000000 0.000000 0.000000 0.000000 0.034753
#
#
# Mechanical properties :
#
#
# Convention : Reuss Voigt Hill
#
# Bulk Modulus (GPa) = 37.33229 49.37501 43.35365
# Shear Modulus (GPa) = 14.79099 21.23151 18.01125
#
# Velocity S-wave (km/s) = 2.80344 3.35879 3.09360
# Velocity P-wave (km/s) = 5.50597 6.42476 5.98303
#
# Compressibility (1/GPa) = 0.02678646
#
# Stress axis : x y z
#
# Youngs Moduli (GPa) = 66.88103 35.70796 35.22659
#
# Poissons Ratio (x) = 0.47608 -0.12813
# Poissons Ratio (y) = 0.89169 0.44328
# Poissons Ratio (z) = -0.24326 0.44934
#
# Static dielectric constant tensor:
#      x y z
#    x 1.634280 0.000000 0.000000 
#    y 0.000000 1.656980 0.000000 
#    z 0.000000 0.000000 1.644690 
# 
# From -- ./inp_files/29225.got.cif
#   From: 2010.05.17/outbox.cif.g08.bks.cpg/sg62_15_cif.got.tgz:29225.got - 2010.06.03 15:25:27.
