data_PCOD9465016
_publ_section_title
;
Structure prediction by ZEFSAII (Michael W. Deem and Ramdas Pophale) SiO2 
 PCOD9465016
Probable space group: P N M A
;
_chemical_formula_sum "Si O2"
_cell_formula_units_Z 56
_cell_length_a 5.532099
_cell_length_b 16.235622
_cell_length_c 26.001758
_cell_angle_alpha 90.000000
_cell_angle_beta 90.000000
_cell_angle_gamma 90.000000
_cell_volume 2335.401672
_symmetry_space_group_name_H-M "P N M A"
_symmetry_group_IT_number 62
_symmetry_cell_setting 'orthorhombic'
loop_
_space_group_symop_operation_xyz
x,y,z
1/2-x,-y,1/2+z
1/2+x,1/2-y,1/2-z
-x,1/2+y,-z
-x,-y,-z
1/2+x,y,1/2-z
1/2-x,1/2+y,1/2+z
x,1/2-y,z
loop_
_atom_site_type_symbol
_atom_site_label
_atom_site_fract_x
_atom_site_fract_y
_atom_site_fract_z
Si Si1 0.744288 0.948395 0.563226
Si Si2 0.474947 0.884480 0.460940
Si Si3 0.469303 0.657958 0.638671
Si Si4 0.226486 0.933481 0.304403
Si Si5 0.323458 0.250000 0.825785
Si Si6 0.227582 0.000304 0.189768
Si Si7 0.123176 0.835738 0.540548
Si Si8 0.678801 0.750000 0.390647
O O1 0.609477 0.914642 0.512286
O O2 0.691160 0.892186 0.613270
O O3 0.014581 0.926572 0.547888
O O4 0.648051 0.039616 0.568091
O O5 0.650412 0.829794 0.426875
O O6 0.254707 0.834726 0.486107
O O7 0.525937 0.750000 0.658461
O O8 0.335915 0.594768 0.676947
O O9 0.300251 0.668461 0.588957
O O10 0.179700 0.836566 0.295590
O O11 0.245370 0.981912 0.250458
O O12 0.493391 0.947612 0.327503
O O13 0.986390 0.969769 0.332065
O O14 0.570495 0.250000 0.859442
O O15 0.070568 0.250000 0.857325
O O16 0.969211 0.750000 0.543386
#
# Coordination Sequence:
#
# PCOD9465016 Si02
#       8
#     8   8   8   8   4   8   8   4
#     4  10  22  38  63  87 132 186 228 287 342 415
#     4  10  23  39  57  94 130 183 238 280 352 404
#     4  10  23  40  62 101 132 175 228 288 350 417
#     4  10  24  47  71 103 136 183 223 286 359 415
#     4  12  28  44  71 104 142 184 240 292 351 414
#     4  10  23  44  74 101 136 176 226 285 347 435
#     4  10  20  37  62  91 135 180 234 288 345 412
#     4  12  28  44  69 106 142 186 236 300 339 418
#
# _framework density 23.978746000000001
#
# number of rings (size 3 to 8) (size 9 to 14) (size 15 to 20)
#    0.000    1.714    0.714    1.714   10.000    2.286 
#    0.000    2.857    0.000    0.000    0.000    0.000 
#    0.000    0.000    0.000    0.000    0.000    0.000 
#
# Total GULP energy -312481.002931 kJ/mol
# GULP energy per Si atom -5580.017909 kJ/mol
# Density = 2.392417 g / cm^3
# Si number density = 23.978746 Si / 1000 Ang^3
#
#
#
# Elastic Constant Matrix: (Units=GPa)
#
#
# Indices 1 2 3 4 5 6 
#
# 1 115.2342 16.4871 4.2011 0.0000 0.0000 0.0000
# 2 16.4871 152.2205 24.9491 0.0000 0.0000 0.0000
# 3 4.2011 24.9491 58.2371 0.0000 0.0000 0.0000
# 4 0.0000 0.0000 0.0000 15.4281 0.0000 0.0000
# 5 0.0000 0.0000 0.0000 0.0000 15.9926 0.0000
# 6 0.0000 0.0000 0.0000 0.0000 0.0000 708.7043
#
#
#
# Elastic Compliance Matrix: (Units=1/GPa)
#
#
# Indices 1 2 3 4 5 6 
#
# 1 0.008818 -0.000915 -0.000244 0.000000 0.000000 0.000000
# 2 -0.000915 0.007160 -0.003002 0.000000 0.000000 0.000000
# 3 -0.000244 -0.003002 0.018475 0.000000 0.000000 0.000000
# 4 0.000000 0.000000 0.000000 0.064817 0.000000 0.000000
# 5 0.000000 0.000000 0.000000 0.000000 0.062529 0.000000
# 6 0.000000 0.000000 0.000000 0.000000 0.000000 0.001411
#
#
# Mechanical properties :
#
#
# Convention : Reuss Voigt Hill
#
# Bulk Modulus (GPa) = 38.26794 46.32961 42.29878
# Shear Modulus (GPa) = 27.74052 166.69531 97.21791
#
# Velocity S-wave (km/s) = 3.40498 8.34679 6.37428
# Velocity P-wave (km/s) = 5.60824 10.59504 8.47665
#
# Compressibility (1/GPa) = 0.02613153
#
# Stress axis : x y z
#
# Youngs Moduli (GPa) = 113.40699 139.65530 54.12809
#
# Poissons Ratio (x) = 0.12779 0.01321
# Poissons Ratio (y) = 0.10377 0.16247
# Poissons Ratio (z) = 0.02768 0.41919
#
# Static dielectric constant tensor:
#      x y z
#    x 2.039590 0.000000 0.000000 
#    y 0.000000 1.960430 0.000000 
#    z 0.000000 0.000000 1.927310 
# 
# From -- ./inp_files/31640.got.cif
#   From: 2010.05.17/outbox.cif.g08.bks.cpg/sg62_16_cif.got.tgz:31640.got - 2010.06.03 15:25:27.
