data_PCOD9465862
_publ_section_title
;
Structure prediction by ZEFSAII (Michael W. Deem and Ramdas Pophale) SiO2 
 PCOD9465862
Probable space group: P N M A
;
_chemical_formula_sum "Si O2"
_cell_formula_units_Z 48
_cell_length_a 15.866118
_cell_length_b 8.664468
_cell_length_c 18.339276
_cell_angle_alpha 90.000000
_cell_angle_beta 90.000000
_cell_angle_gamma 90.000000
_cell_volume 2521.127262
_symmetry_space_group_name_H-M "P N M A"
_symmetry_group_IT_number 62
_symmetry_cell_setting 'orthorhombic'
loop_
_space_group_symop_operation_xyz
x,y,z
1/2-x,-y,1/2+z
1/2+x,1/2-y,1/2-z
-x,1/2+y,-z
-x,-y,-z
1/2+x,y,1/2-z
1/2-x,1/2+y,1/2+z
x,1/2-y,z
loop_
_atom_site_type_symbol
_atom_site_label
_atom_site_fract_x
_atom_site_fract_y
_atom_site_fract_z
Si Si1 0.418565 0.563638 0.541119
Si Si2 0.750005 0.936489 0.209748
Si Si3 0.078198 0.436492 0.709399
Si Si4 0.414205 0.564969 0.710026
Si Si5 0.582496 0.064858 0.960351
Si Si6 0.247093 0.936645 0.459904
O O1 0.500000 0.500000 0.500000
O O2 0.421643 0.750000 0.539226
O O3 0.417131 0.514339 0.625514
O O4 0.332841 0.515123 0.500457
O O5 0.745743 0.750000 0.212494
O O6 0.836798 0.984312 0.248714
O O7 0.749331 0.982748 0.124930
O O8 0.669635 0.002944 0.251378
O O9 0.072948 0.250000 0.712541
O O10 0.082459 0.482151 0.624632
O O11 0.996146 0.504447 0.747924
O O12 0.413320 0.750000 0.711673
O O13 0.580909 0.250000 0.963346
O O14 0.500000 0.000000 0.000000
O O15 0.665834 0.004162 0.000152
O O16 0.242313 0.750000 0.462680
#
# Coordination Sequence:
#
# PCOD9465862 Si02
#       6
#     8   8   8   8   8   8
#     4  10  22  39  59  85 116 150 187 229 280 334
#     4  10  21  38  60  83 109 148 193 231 274 333
#     4  10  22  40  60  82 111 151 194 230 272 333
#     4  11  23  37  57  87 118 147 183 232 287 334
#     4  11  23  38  58  84 113 148 190 233 279 333
#     4  10  21  38  59  83 113 148 186 231 282 333
#
# _framework density 19.039100999999999
#
# number of rings (size 3 to 8) (size 9 to 14) (size 15 to 20)
#    0.000    1.667    0.000    4.000    0.000   10.000 
#    0.000    0.000    0.000    0.000    0.000    0.000 
#    0.000    0.000    0.000    0.000    0.000    0.000 
#
# Total GULP energy -268392.590596 kJ/mol
# GULP energy per Si atom -5591.512304 kJ/mol
# Density = 1.899577 g / cm^3
# Si number density = 19.039101 Si / 1000 Ang^3
#
#
#
# Elastic Constant Matrix: (Units=GPa)
#
#
# Indices 1 2 3 4 5 6 
#
# 1 208.6064 39.0807 117.4417 0.0000 0.0000 0.0000
# 2 39.0807 15.1745 44.1925 0.0000 0.0000 0.0000
# 3 117.4417 44.1925 208.3550 0.0000 0.0000 0.0000
# 4 0.0000 0.0000 0.0000 26.8841 0.0000 0.0000
# 5 0.0000 0.0000 0.0000 0.0000 46.4680 0.0000
# 6 0.0000 0.0000 0.0000 0.0000 0.0000 11.2947
#
#
#
# Elastic Compliance Matrix: (Units=1/GPa)
#
#
# Indices 1 2 3 4 5 6 
#
# 1 0.009277 -0.022662 -0.000423 0.000000 0.000000 0.000000
# 2 -0.022662 0.227736 -0.035530 0.000000 0.000000 0.000000
# 3 -0.000423 -0.035530 0.012574 0.000000 0.000000 0.000000
# 4 0.000000 0.000000 0.000000 0.037197 0.000000 0.000000
# 5 0.000000 0.000000 0.000000 0.000000 0.021520 0.000000
# 6 0.000000 0.000000 0.000000 0.000000 0.000000 0.088537
#
#
# Mechanical properties :
#
#
# Convention : Reuss Voigt Hill
#
# Bulk Modulus (GPa) = 7.55524 92.61843 50.08683
# Shear Modulus (GPa) = 8.95755 32.35742 20.65749
#
# Velocity S-wave (km/s) = 2.17141 4.12700 3.29751
# Velocity P-wave (km/s) = 3.20369 8.45349 6.39238
#
# Compressibility (1/GPa) = 0.13235842
#
# Stress axis : x y z
#
# Youngs Moduli (GPa) = 107.79209 4.39105 79.53207
#
# Poissons Ratio (x) = 0.09951 0.03360
# Poissons Ratio (y) = 2.44278 2.82574
# Poissons Ratio (z) = 0.04554 0.15601
#
# Static dielectric constant tensor:
#      x y z
#    x 1.606700 0.000000 0.000000 
#    y 0.000000 1.663890 0.000000 
#    z 0.000000 0.000000 1.645770 
# 
# From -- ./inp_files/23736.got.cif
#   From: 2010.05.17/outbox.cif.g08.bks.cpg/sg62_12_cif.got.tgz:23736.got - 2010.06.03 15:25:27.
