data_PCOD9465508
_publ_section_title
;
Structure prediction by ZEFSAII (Michael W. Deem and Ramdas Pophale) SiO2 
 PCOD9465508
Probable space group: P N M A
;
_chemical_formula_sum "Si O2"
_cell_formula_units_Z 64
_cell_length_a 29.927912
_cell_length_b 7.815638
_cell_length_c 12.891001
_cell_angle_alpha 90.000000
_cell_angle_beta 90.000000
_cell_angle_gamma 90.000000
_cell_volume 3015.278951
_symmetry_space_group_name_H-M "P N M A"
_symmetry_group_IT_number 62
_symmetry_cell_setting 'orthorhombic'
loop_
_space_group_symop_operation_xyz
x,y,z
1/2-x,-y,1/2+z
1/2+x,1/2-y,1/2-z
-x,1/2+y,-z
-x,-y,-z
1/2+x,y,1/2-z
1/2-x,1/2+y,1/2+z
x,1/2-y,z
loop_
_atom_site_type_symbol
_atom_site_label
_atom_site_fract_x
_atom_site_fract_y
_atom_site_fract_z
Si Si1 0.735623 0.956049 0.621769
Si Si2 0.174466 0.055788 0.293310
Si Si3 0.823756 0.555145 0.308845
Si Si4 0.947461 0.046126 0.001984
Si Si5 0.765449 0.043423 0.893775
Si Si6 0.921699 0.049345 0.773978
Si Si7 0.581823 0.044032 0.734883
Si Si8 0.500781 0.543490 0.122266
O O1 0.735095 0.750000 0.642857
O O2 0.787440 0.012325 0.629237
O O3 0.717431 0.984097 0.508232
O O4 0.704972 0.050720 0.703316
O O5 0.163961 0.250000 0.323320
O O6 0.202973 0.047236 0.187505
O O7 0.127975 0.966209 0.271078
O O8 0.832051 0.750000 0.344043
O O9 0.785947 0.481647 0.384847
O O10 0.871232 0.475437 0.280263
O O11 0.942822 0.250000 0.001283
O O12 0.926939 0.991075 0.112973
O O13 0.926864 0.979034 0.892117
O O14 0.000000 0.000000 0.000000
O O15 0.765789 0.250000 0.873736
O O16 0.932514 0.250000 0.784024
O O17 0.956492 0.979183 0.688640
O O18 0.583512 0.250000 0.742003
O O19 0.541965 0.984385 0.810266
O O20 0.500985 0.750000 0.125439
O O21 0.500000 0.500000 0.000000
#
# Coordination Sequence:
#
# PCOD9465508 Si02
#       8
#     8   8   8   8   8   8   8   8
#     4   9  19  35  54  77 109 144 183 230 276 322
#     4  10  21  35  54  83 111 141 187 237 275 325
#     4   9  19  34  55  80 107 143 184 223 272 330
#     4  11  22  38  61  86 116 151 189 235 287 341
#     4   9  18  35  55  76 108 149 184 222 279 336
#     4  10  22  40  58  82 117 154 186 228 288 342
#     4  10  21  39  59  85 118 151 189 236 285 339
#     4  10  22  41  61  83 115 150 188 232 281 336
#
# _framework density 21.225231999999998
#
# number of rings (size 3 to 8) (size 9 to 14) (size 15 to 20)
#    0.000    2.250    1.250    0.750    1.750    4.500 
#    0.000    2.500    0.000    3.000    0.000    0.000 
#    0.000    0.000    0.000    0.000    0.000    0.000 
#
# Total GULP energy -356647.710845 kJ/mol
# GULP energy per Si atom -5572.620482 kJ/mol
# Density = 2.117692 g / cm^3
# Si number density = 21.225232 Si / 1000 Ang^3
#
#
#
# Elastic Constant Matrix: (Units=GPa)
#
#
# Indices 1 2 3 4 5 6 
#
# 1 115.8982 -0.5847 22.9115 0.0000 0.0000 0.0000
# 2 -0.5847 24.2566 4.5970 0.0000 0.0000 0.0000
# 3 22.9115 4.5970 96.6824 0.0000 0.0000 0.0000
# 4 0.0000 0.0000 0.0000 20.4710 0.0000 0.0000
# 5 0.0000 0.0000 0.0000 0.0000 -2.3089 0.0000
# 6 0.0000 0.0000 0.0000 0.0000 0.0000 -38.6016
#
#
#
# Elastic Compliance Matrix: (Units=1/GPa)
#
#
# Indices 1 2 3 4 5 6 
#
# 1 0.009062 0.000631 -0.002177 0.000000 0.000000 0.000000
# 2 0.000631 0.041645 -0.002130 0.000000 0.000000 0.000000
# 3 -0.002177 -0.002130 0.010960 0.000000 0.000000 0.000000
# 4 0.000000 0.000000 0.000000 0.048850 0.000000 0.000000
# 5 0.000000 0.000000 0.000000 0.000000 -0.433109 0.000000
# 6 0.000000 0.000000 0.000000 0.000000 0.000000 -0.025906
#
#
# Mechanical properties :
#
#
# Convention : Reuss Voigt Hill
#
# Bulk Modulus (GPa) = 18.41117 32.29834 25.35476
# Shear Modulus (GPa) = -15.47790 9.90632 -2.78579
#
# Velocity S-wave (km/s) = -2.70334 2.16272 -1.14688
# Velocity P-wave (km/s) = 1.02520 4.63535 3.19652
#
# Compressibility (1/GPa) = 0.05431485
#
# Stress axis : x y z
#
# Youngs Moduli (GPa) = 110.35215 24.01270 91.23743
#
# Poissons Ratio (x) = -0.01515 0.19867
# Poissons Ratio (y) = -0.06964 0.19431
# Poissons Ratio (z) = 0.24029 0.05114
#
# Static dielectric constant tensor:
#      x y z
#    x 1.761250 0.000000 0.000000 
#    y 0.000000 1.803410 0.000000 
#    z 0.000000 0.000000 1.770100 
# 
# From -- ./inp_files/15877.got.cif
#   From: 2010.05.17/outbox.cif.g08.bks.cpg/sg62_8_cif.got.tgz:15877.got - 2010.06.03 15:25:27.
