data_PCOD9465906
_publ_section_title
;
Structure prediction by ZEFSAII (Michael W. Deem and Ramdas Pophale) SiO2 
 PCOD9465906
Probable space group: P N M A
;
_chemical_formula_sum "Si O2"
_cell_formula_units_Z 48
_cell_length_a 28.135893
_cell_length_b 8.563301
_cell_length_c 10.356709
_cell_angle_alpha 90.000000
_cell_angle_beta 90.000000
_cell_angle_gamma 90.000000
_cell_volume 2495.305289
_symmetry_space_group_name_H-M "P N M A"
_symmetry_group_IT_number 62
_symmetry_cell_setting 'orthorhombic'
loop_
_space_group_symop_operation_xyz
x,y,z
1/2-x,-y,1/2+z
1/2+x,1/2-y,1/2-z
-x,1/2+y,-z
-x,-y,-z
1/2+x,y,1/2-z
1/2-x,1/2+y,1/2+z
x,1/2-y,z
loop_
_atom_site_type_symbol
_atom_site_label
_atom_site_fract_x
_atom_site_fract_y
_atom_site_fract_z
Si Si1 0.962415 0.437282 0.397105
Si Si2 0.289726 0.561706 0.253926
Si Si3 0.143029 0.938615 0.976962
Si Si4 0.962809 0.061460 0.103924
Si Si5 0.640730 0.062683 0.975712
Si Si6 0.679838 0.560976 0.243653
O O1 0.962919 0.250000 0.399809
O O2 0.973959 0.488708 0.250485
O O3 0.909805 0.495044 0.432566
O O4 0.000000 0.500000 0.500000
O O5 0.289886 0.750000 0.255667
O O6 0.317636 0.501270 0.378612
O O7 0.318957 0.511375 0.126937
O O8 0.235012 0.510471 0.252404
O O9 0.144373 0.750000 0.972095
O O10 0.154633 0.986725 0.123117
O O11 0.090674 0.989748 0.932263
O O12 0.963474 0.250000 0.100831
O O13 0.000000 0.000000 0.000000
O O14 0.638238 0.250000 0.973471
O O15 0.654686 0.006293 0.117742
O O16 0.678626 0.750000 0.236748
#
# Coordination Sequence:
#
# PCOD9465906 Si02
#       6
#     8   8   8   8   8   8
#     4  11  24  43  65  92 122 158 201 247 302 362
#     4  10  21  38  60  88 121 159 202 247 298 352
#     4  10  21  40  62  86 119 159 199 245 300 356
#     4  10  23  41  63  90 119 156 199 244 299 357
#     4  11  23  40  62  91 124 160 202 250 300 356
#     4  10  22  38  59  89 123 160 202 247 296 353
#
# _framework density 19.236122000000002
#
# number of rings (size 3 to 8) (size 9 to 14) (size 15 to 20)
#    0.000    1.667    1.667    2.000    2.333    5.333 
#    0.000    0.000    0.000    0.000    0.000    0.000 
#    0.000    0.000    0.000    0.000    0.000    0.000 
#
# Total GULP energy -268303.197895 kJ/mol
# GULP energy per Si atom -5589.649956 kJ/mol
# Density = 1.919234 g / cm^3
# Si number density = 19.236122 Si / 1000 Ang^3
#
#
#
# Elastic Constant Matrix: (Units=GPa)
#
#
# Indices 1 2 3 4 5 6 
#
# 1 111.3302 24.5597 79.7457 0.0000 0.0000 0.0000
# 2 24.5597 20.0285 34.9222 0.0000 0.0000 0.0000
# 3 79.7457 34.9222 205.8970 0.0000 0.0000 0.0000
# 4 0.0000 0.0000 0.0000 30.2010 0.0000 0.0000
# 5 0.0000 0.0000 0.0000 0.0000 44.0111 0.0000
# 6 0.0000 0.0000 0.0000 0.0000 0.0000 30.3455
#
#
#
# Elastic Compliance Matrix: (Units=1/GPa)
#
#
# Indices 1 2 3 4 5 6 
#
# 1 0.013925 -0.010893 -0.003546 0.000000 0.000000 0.000000
# 2 -0.010893 0.079416 -0.009251 0.000000 0.000000 0.000000
# 3 -0.003546 -0.009251 0.007799 0.000000 0.000000 0.000000
# 4 0.000000 0.000000 0.000000 0.033112 0.000000 0.000000
# 5 0.000000 0.000000 0.000000 0.000000 0.022722 0.000000
# 6 0.000000 0.000000 0.000000 0.000000 0.000000 0.032954
#
#
# Mechanical properties :
#
#
# Convention : Reuss Voigt Hill
#
# Bulk Modulus (GPa) = 18.60075 68.41233 43.50654
# Shear Modulus (GPa) = 19.59040 34.11338 26.85189
#
# Velocity S-wave (km/s) = 3.19473 4.21575 3.74024
# Velocity P-wave (km/s) = 4.82691 7.70314 6.42797
#
# Compressibility (1/GPa) = 0.05376129
#
# Stress axis : x y z
#
# Youngs Moduli (GPa) = 71.81258 12.59188 128.21936
#
# Poissons Ratio (x) = 0.13716 0.45464
# Poissons Ratio (y) = 0.78226 1.18614
# Poissons Ratio (z) = 0.25463 0.11649
#
# Static dielectric constant tensor:
#      x y z
#    x 1.641390 0.000000 0.000000 
#    y 0.000000 1.660100 0.000000 
#    z 0.000000 0.000000 1.646280 
# 
# From -- ./inp_files/10154.got.cif
#   From: 2010.05.17/outbox.cif.g08.bks.cpg/sg62_6_cif.got.tgz:10154.got - 2010.06.03 15:25:27.
