data_PCOD9465748
_publ_section_title
;
Structure prediction by ZEFSAII (Michael W. Deem and Ramdas Pophale) SiO2 
 PCOD9465748
Probable space group: P N M A
;
_chemical_formula_sum "Si O2"
_cell_formula_units_Z 48
_cell_length_a 10.951844
_cell_length_b 11.833724
_cell_length_c 16.180325
_cell_angle_alpha 90.000000
_cell_angle_beta 90.000000
_cell_angle_gamma 90.000000
_cell_volume 2096.987905
_symmetry_space_group_name_H-M "P N M A"
_symmetry_group_IT_number 62
_symmetry_cell_setting 'orthorhombic'
loop_
_space_group_symop_operation_xyz
x,y,z
1/2-x,-y,1/2+z
1/2+x,1/2-y,1/2-z
-x,1/2+y,-z
-x,-y,-z
1/2+x,y,1/2-z
1/2-x,1/2+y,1/2+z
x,1/2-y,z
loop_
_atom_site_type_symbol
_atom_site_label
_atom_site_fract_x
_atom_site_fract_y
_atom_site_fract_z
Si Si1 0.118570 0.444923 0.658382
Si Si2 0.388617 0.628894 0.338738
Si Si3 0.777642 0.377537 0.986523
Si Si4 0.648571 0.976792 0.126531
Si Si5 0.209595 0.378892 0.210423
Si Si6 0.481947 0.381346 0.398202
O O1 0.101337 0.372869 0.740184
O O2 0.233121 0.403874 0.604865
O O3 0.159554 0.569947 0.687081
O O4 0.990793 0.444522 0.611740
O O5 0.440213 0.750000 0.369281
O O6 0.245631 0.623006 0.361990
O O7 0.435638 0.502144 0.361856
O O8 0.742056 0.250000 0.003628
O O9 0.702105 0.453013 0.050359
O O10 0.920790 0.388115 0.010742
O O11 0.657038 0.047702 0.213060
O O12 0.217180 0.250000 0.237220
O O13 0.122511 0.383104 0.129364
O O14 0.444520 0.250000 0.370938
#
# Coordination Sequence:
#
# PCOD9465748 Si02
#       6
#     8   8   8   8   8   8
#     4  11  22  37  56  90 123 158 200 253 306 373
#     4  10  21  37  60  87 118 160 204 251 304 363
#     4  10  21  37  59  84 119 162 199 246 312 372
#     4  10  21  39  58  86 120 157 201 258 304 361
#     4  10  21  38  63  90 117 158 212 260 303 358
#     4   9  19  40  64  88 120 159 206 256 301 356
#
# _framework density 22.889975
#
# number of rings (size 3 to 8) (size 9 to 14) (size 15 to 20)
#    0.000    2.000    1.667    1.500    0.000    7.333 
#    0.000    4.167    0.000    0.000    0.000    0.000 
#    0.000    0.000    0.000    0.000    0.000    0.000 
#
# Total GULP energy -267375.366458 kJ/mol
# GULP energy per Si atom -5570.320135 kJ/mol
# Density = 2.283788 g / cm^3
# Si number density = 22.889975 Si / 1000 Ang^3
#
#
#
# Elastic Constant Matrix: (Units=GPa)
#
#
# Indices 1 2 3 4 5 6 
#
# 1 55.0998 38.0552 5.0422 0.0000 0.0000 0.0000
# 2 38.0552 165.0756 15.8138 0.0000 0.0000 0.0000
# 3 5.0422 15.8138 50.2560 0.0000 0.0000 0.0000
# 4 0.0000 0.0000 0.0000 -34.0702 0.0000 0.0000
# 5 0.0000 0.0000 0.0000 0.0000 48.2564 0.0000
# 6 0.0000 0.0000 0.0000 0.0000 0.0000 17.3613
#
#
#
# Elastic Compliance Matrix: (Units=1/GPa)
#
#
# Indices 1 2 3 4 5 6 
#
# 1 0.021604 -0.004921 -0.000619 0.000000 0.000000 0.000000
# 2 -0.004921 0.007367 -0.001824 0.000000 0.000000 0.000000
# 3 -0.000619 -0.001824 0.020534 0.000000 0.000000 0.000000
# 4 0.000000 0.000000 0.000000 -0.029351 0.000000 0.000000
# 5 0.000000 0.000000 0.000000 0.000000 0.020723 0.000000
# 6 0.000000 0.000000 0.000000 0.000000 0.000000 0.057599
#
#
# Mechanical properties :
#
#
# Convention : Reuss Voigt Hill
#
# Bulk Modulus (GPa) = 28.75507 43.13931 35.94719
# Shear Modulus (GPa) = 40.06463 20.41082 30.23773
#
# Velocity S-wave (km/s) = 4.18821 2.98936 3.63850
# Velocity P-wave (km/s) = 5.99815 5.54999 5.77841
#
# Compressibility (1/GPa) = 0.03477648
#
# Stress axis : x y z
#
# Youngs Moduli (GPa) = 46.28680 135.73854 48.69898
#
# Poissons Ratio (x) = 0.66800 0.03015
# Poissons Ratio (y) = 0.22779 0.08885
# Poissons Ratio (z) = 0.02865 0.24765
#
# Static dielectric constant tensor:
#      x y z
#    x 1.889660 0.000000 0.000000 
#    y 0.000000 1.936070 0.000000 
#    z 0.000000 0.000000 1.915650 
# 
# From -- ./inp_files/23010.got.cif
#   From: 2010.05.17/outbox.cif.g08.bks.cpg/sg62_12_cif.got.tgz:23010.got - 2010.06.03 15:25:27.
