data_PCOD9465460
_publ_section_title
;
Structure prediction by ZEFSAII (Michael W. Deem and Ramdas Pophale) SiO2 
 PCOD9465460
Probable space group: P N M A
;
_chemical_formula_sum "Si O2"
_cell_formula_units_Z 40
_cell_length_a 7.105302
_cell_length_b 26.978506
_cell_length_c 9.338667
_cell_angle_alpha 90.000000
_cell_angle_beta 90.000000
_cell_angle_gamma 90.000000
_cell_volume 1790.133117
_symmetry_space_group_name_H-M "P N M A"
_symmetry_group_IT_number 62
_symmetry_cell_setting 'orthorhombic'
loop_
_space_group_symop_operation_xyz
x,y,z
1/2-x,-y,1/2+z
1/2+x,1/2-y,1/2-z
-x,1/2+y,-z
-x,-y,-z
1/2+x,y,1/2-z
1/2-x,1/2+y,1/2+z
x,1/2-y,z
loop_
_atom_site_type_symbol
_atom_site_label
_atom_site_fract_x
_atom_site_fract_y
_atom_site_fract_z
Si Si1 0.247794 0.250000 0.460848
Si Si2 0.745760 0.343888 0.538596
Si Si3 0.181030 0.343597 0.631855
Si Si4 0.812303 0.250000 0.368388
Si Si5 0.819885 0.953736 0.367623
Si Si6 0.745337 0.046211 0.539790
O O1 0.287528 0.299343 0.552197
O O2 0.329283 0.250000 0.301942
O O3 0.022110 0.250000 0.433428
O O4 0.666126 0.334477 0.698027
O O5 0.712973 0.299388 0.428826
O O6 0.690206 0.398917 0.486340
O O7 0.970775 0.345342 0.568632
O O8 0.265243 0.398712 0.612258
O O9 0.836930 0.961159 0.198021
O O10 0.028592 0.952313 0.434033
O O11 0.711767 0.999486 0.438393
#
# Coordination Sequence:
#
# PCOD9465460 Si02
#       6
#     4   8   8   4   8   8
#     4  10  21  34  48  70  98 124 153 192 236 278
#     4   9  18  33  51  70  93 123 158 193 230 275
#     4   9  18  33  51  70  93 123 158 193 230 275
#     4  10  21  34  48  70  98 124 153 192 236 278
#     4   9  18  32  49  70  96 124 155 192 232 274
#     4   9  18  32  49  70  96 124 155 192 232 274
#
# _framework density 22.344705999999999
#
# number of rings (size 3 to 8) (size 9 to 14) (size 15 to 20)
#    0.000    2.800    0.000    0.600    0.000    4.000 
#    0.000    0.000    0.000    0.000    0.000    0.000 
#    0.000    0.000    0.000    0.000    0.000    0.000 
#
# Total GULP energy -223462.697484 kJ/mol
# GULP energy per Si atom -5586.567437 kJ/mol
# Density = 2.229385 g / cm^3
# Si number density = 22.344706 Si / 1000 Ang^3
#
#
#
# Elastic Constant Matrix: (Units=GPa)
#
#
# Indices 1 2 3 4 5 6 
#
# 1 54.2973 19.0684 3.6552 0.0000 0.0000 0.0000
# 2 19.0684 244.9019 133.2480 0.0000 0.0000 0.0000
# 3 3.6552 133.2480 95.5621 0.0000 0.0000 0.0000
# 4 0.0000 0.0000 0.0000 74.4388 0.0000 0.0000
# 5 0.0000 0.0000 0.0000 0.0000 18.3251 0.0000
# 6 0.0000 0.0000 0.0000 0.0000 0.0000 -7.6928
#
#
#
# Elastic Compliance Matrix: (Units=1/GPa)
#
#
# Indices 1 2 3 4 5 6 
#
# 1 0.019664 -0.004648 0.005729 0.000000 0.000000 0.000000
# 2 -0.004648 0.018018 -0.024945 0.000000 0.000000 0.000000
# 3 0.005729 -0.024945 0.045028 0.000000 0.000000 0.000000
# 4 0.000000 0.000000 0.000000 0.013434 0.000000 0.000000
# 5 0.000000 0.000000 0.000000 0.000000 0.054570 0.000000
# 6 0.000000 0.000000 0.000000 0.000000 0.000000 -0.129992
#
#
# Mechanical properties :
#
#
# Convention : Reuss Voigt Hill
#
# Bulk Modulus (GPa) = 28.58710 78.52271 53.55490
# Shear Modulus (GPa) = 62.41415 32.93352 47.67383
#
# Velocity S-wave (km/s) = 5.29085 3.84329 4.62406
# Velocity P-wave (km/s) = 7.08135 7.41028 7.24768
#
# Compressibility (1/GPa) = 0.03498081
#
# Stress axis : x y z
#
# Youngs Moduli (GPa) = 50.85473 55.50159 22.20853
#
# Poissons Ratio (x) = 0.25799 -0.12724
# Poissons Ratio (y) = 0.23639 0.55399
# Poissons Ratio (z) = -0.29136 1.38449
#
# Static dielectric constant tensor:
#      x y z
#    x 1.897580 0.000000 0.000000 
#    y 0.000000 1.845720 0.000000 
#    z 0.000000 0.000000 1.746370 
# 
# From -- ./inp_files/3038.got.cif
#   From: 2010.05.17/outbox.cif.g08.bks.cpg/sg62_2_cif.got.tgz:3038.got - 2010.06.03 15:25:27.
