data_PCOD9465890
_publ_section_title
;
Structure prediction by ZEFSAII (Michael W. Deem and Ramdas Pophale) SiO2 
 PCOD9465890
Probable space group: P N M A
;
_chemical_formula_sum "Si O2"
_cell_formula_units_Z 64
_cell_length_a 23.984407
_cell_length_b 9.452466
_cell_length_c 13.886302
_cell_angle_alpha 90.000000
_cell_angle_beta 90.000000
_cell_angle_gamma 90.000000
_cell_volume 3148.188406
_symmetry_space_group_name_H-M "P N M A"
_symmetry_group_IT_number 62
_symmetry_cell_setting 'orthorhombic'
loop_
_space_group_symop_operation_xyz
x,y,z
1/2-x,-y,1/2+z
1/2+x,1/2-y,1/2-z
-x,1/2+y,-z
-x,-y,-z
1/2+x,y,1/2-z
1/2-x,1/2+y,1/2+z
x,1/2-y,z
loop_
_atom_site_type_symbol
_atom_site_label
_atom_site_fract_x
_atom_site_fract_y
_atom_site_fract_z
Si Si1 0.442621 0.088013 0.889624
Si Si2 0.392829 0.082905 0.402300
Si Si3 0.274147 0.090759 0.297251
Si Si4 0.655728 0.081319 0.426549
Si Si5 0.329501 0.412097 0.769608
Si Si6 0.283161 0.090601 0.064593
Si Si7 0.609710 0.413901 0.951020
Si Si8 0.955072 0.916447 0.256553
O O1 0.457214 0.250000 0.916320
O O2 0.382365 0.087329 0.839063
O O3 0.488093 0.042049 0.811043
O O4 0.435278 0.992897 0.983144
O O5 0.402390 0.250000 0.417266
O O6 0.333265 0.066859 0.347548
O O7 0.385738 0.997548 0.501333
O O8 0.438553 0.012260 0.333217
O O9 0.254842 0.250000 0.322924
O O10 0.282585 0.088893 0.181538
O O11 0.225893 0.977731 0.317085
O O12 0.646355 0.250000 0.420670
O O13 0.719536 0.060636 0.463882
O O14 0.655508 0.008294 0.322386
O O15 0.318517 0.250000 0.739281
O O16 0.298342 0.250000 0.033116
O O17 0.329999 0.982097 0.033346
O O18 0.610370 0.250000 0.975569
O O19 0.591865 0.429354 0.839713
O O20 0.958689 0.750000 0.229357
#
# Coordination Sequence:
#
# PCOD9465890 Si02
#       8
#     8   8   8   8   8   8   8   8
#     4  10  23  41  60  82 115 157 198 242 293 348
#     4  11  22  37  60  89 118 152 196 243 291 348
#     4   9  19  35  55  82 116 152 184 231 290 342
#     4  10  22  39  59  84 119 157 191 238 296 349
#     4  10  21  38  60  85 113 151 197 243 289 343
#     4   9  18  35  55  79 115 154 186 223 283 345
#     4  11  22  34  56  88 117 151 194 238 286 344
#     4  10  22  41  60  84 118 155 197 243 292 347
#
# _framework density 20.329152000000001
#
# number of rings (size 3 to 8) (size 9 to 14) (size 15 to 20)
#    0.000    2.000    1.250    2.625    1.750    5.500 
#    0.000    0.625    0.000    0.000    0.000    0.000 
#    0.000    0.000    0.000    0.000    0.000    0.000 
#
# Total GULP energy -357627.031269 kJ/mol
# GULP energy per Si atom -5587.922364 kJ/mol
# Density = 2.028288 g / cm^3
# Si number density = 20.329152 Si / 1000 Ang^3
#
#
#
# Elastic Constant Matrix: (Units=GPa)
#
#
# Indices 1 2 3 4 5 6 
#
# 1 27.0307 18.7084 -15.1579 0.0000 0.0000 0.0000
# 2 18.7084 73.6646 10.2715 0.0000 0.0000 0.0000
# 3 -15.1579 10.2715 30.3386 0.0000 0.0000 0.0000
# 4 0.0000 0.0000 0.0000 20.7791 0.0000 0.0000
# 5 0.0000 0.0000 0.0000 0.0000 28.6852 0.0000
# 6 0.0000 0.0000 0.0000 0.0000 0.0000 26.0521
#
#
#
# Elastic Compliance Matrix: (Units=1/GPa)
#
#
# Indices 1 2 3 4 5 6 
#
# 1 0.088031 -0.029901 0.054106 0.000000 0.000000 0.000000
# 2 -0.029901 0.024404 -0.023202 0.000000 0.000000 0.000000
# 3 0.054106 -0.023202 0.067849 0.000000 0.000000 0.000000
# 4 0.000000 0.000000 0.000000 0.048125 0.000000 0.000000
# 5 0.000000 0.000000 0.000000 0.000000 0.034861 0.000000
# 6 0.000000 0.000000 0.000000 0.000000 0.000000 0.038385
#
#
# Mechanical properties :
#
#
# Convention : Reuss Voigt Hill
#
# Bulk Modulus (GPa) = 5.48579 17.63089 11.55834
# Shear Modulus (GPa) = 13.87301 22.91742 18.39522
#
# Velocity S-wave (km/s) = 2.61515 3.36120 3.01137
# Velocity P-wave (km/s) = 3.43846 4.87392 4.21771
#
# Compressibility (1/GPa) = 0.18228912
#
# Stress axis : x y z
#
# Youngs Moduli (GPa) = 11.35969 40.97671 14.73863
#
# Poissons Ratio (x) = 1.22525 -0.79744
# Poissons Ratio (y) = 0.33967 0.34196
# Poissons Ratio (z) = -0.61462 0.95073
#
# Static dielectric constant tensor:
#      x y z
#    x 1.720340 0.000000 0.000000 
#    y 0.000000 1.697330 0.000000 
#    z 0.000000 0.000000 1.727860 
# 
# From -- ./inp_files/20941.got.cif
#   From: 2010.05.17/outbox.cif.g08.bks.cpg/sg62_11_cif.got.tgz:20941.got - 2010.06.03 15:25:27.
