data_PCOD9465531
_publ_section_title
;
Structure prediction by ZEFSAII (Michael W. Deem and Ramdas Pophale) SiO2 
 PCOD9465531
Probable space group: P N M A
;
_chemical_formula_sum "Si O2"
_cell_formula_units_Z 60
_cell_length_a 12.808781
_cell_length_b 9.189203
_cell_length_c 26.080038
_cell_angle_alpha 90.000000
_cell_angle_beta 90.000000
_cell_angle_gamma 90.000000
_cell_volume 3069.685380
_symmetry_space_group_name_H-M "P N M A"
_symmetry_group_IT_number 62
_symmetry_cell_setting 'orthorhombic'
loop_
_space_group_symop_operation_xyz
x,y,z
1/2-x,-y,1/2+z
1/2+x,1/2-y,1/2-z
-x,1/2+y,-z
-x,-y,-z
1/2+x,y,1/2-z
1/2-x,1/2+y,1/2+z
x,1/2-y,z
loop_
_atom_site_type_symbol
_atom_site_label
_atom_site_fract_x
_atom_site_fract_y
_atom_site_fract_z
Si Si1 0.973250 0.582635 0.683194
Si Si2 0.098543 0.574800 0.217296
Si Si3 0.702964 0.915553 0.435778
Si Si4 0.978971 0.583724 0.121234
Si Si5 0.918873 0.492904 0.568991
Si Si6 0.714829 0.579032 0.840475
Si Si7 0.446067 0.750000 0.015502
Si Si8 0.811284 0.917721 0.042314
O O1 0.949341 0.750000 0.696941
O O2 0.098153 0.565401 0.680059
O O3 0.926614 0.477797 0.726106
O O4 0.932891 0.549700 0.626415
O O5 0.105076 0.750000 0.213612
O O6 0.204647 0.504699 0.196025
O O7 0.008783 0.522734 0.176882
O O8 0.746446 0.750000 0.442279
O O9 0.589020 0.910669 0.409264
O O10 0.773402 0.007470 0.396804
O O11 0.689778 0.990857 0.490187
O O12 0.943606 0.750000 0.130032
O O13 0.891966 0.517891 0.084075
O O14 0.921518 0.623266 0.528074
O O15 0.805407 0.420051 0.563516
O O16 0.007728 0.377788 0.554167
O O17 0.741558 0.750000 0.844032
O O18 0.842393 0.750000 0.030733
#
# Coordination Sequence:
#
# PCOD9465531 Si02
#       8
#     8   8   8   8   8   8   4   8
#     4  11  25  42  63  91 121 158 201 250 300 359
#     4  10  22  42  65  90 121 157 201 254 304 354
#     4  10  21  35  59  89 121 157 205 253 298 358
#     4   8  18  39  58  83 118 154 199 250 295 350
#     4  11  24  40  61  89 122 161 198 248 300 367
#     4  10  22  40  64  89 119 160 204 249 306 363
#     4  10  24  42  60  82 128 162 196 246 302 356
#     4  11  22  36  58  87 121 162 199 242 307 366
#
# _framework density 19.545977000000001
#
# number of rings (size 3 to 8) (size 9 to 14) (size 15 to 20)
#    0.000    1.867    1.333    2.400    5.600    2.133 
#    0.000    4.667    0.000    0.000    0.000    0.000 
#    0.000    0.000    0.000    0.000    0.000    0.000 
#
# Total GULP energy -334025.378041 kJ/mol
# GULP energy per Si atom -5567.089634 kJ/mol
# Density = 1.950149 g / cm^3
# Si number density = 19.545977 Si / 1000 Ang^3
#
#
#
# Elastic Constant Matrix: (Units=GPa)
#
#
# Indices 1 2 3 4 5 6 
#
# 1 15.1099 2.1480 9.9311 0.0000 0.0000 0.0000
# 2 2.1480 74.9675 -1.5540 0.0000 0.0000 0.0000
# 3 9.9311 -1.5540 68.2216 0.0000 0.0000 0.0000
# 4 0.0000 0.0000 0.0000 23.0762 0.0000 0.0000
# 5 0.0000 0.0000 0.0000 0.0000 13.5667 0.0000
# 6 0.0000 0.0000 0.0000 0.0000 0.0000 22.7165
#
#
#
# Elastic Compliance Matrix: (Units=1/GPa)
#
#
# Indices 1 2 3 4 5 6 
#
# 1 0.073589 -0.002332 -0.010766 0.000000 0.000000 0.000000
# 2 -0.002332 0.013419 0.000645 0.000000 0.000000 0.000000
# 3 -0.010766 0.000645 0.016240 0.000000 0.000000 0.000000
# 4 0.000000 0.000000 0.000000 0.043335 0.000000 0.000000
# 5 0.000000 0.000000 0.000000 0.000000 0.073710 0.000000
# 6 0.000000 0.000000 0.000000 0.000000 0.000000 0.044021
#
#
# Mechanical properties :
#
#
# Convention : Reuss Voigt Hill
#
# Bulk Modulus (GPa) = 12.76421 19.92770 16.34595
# Shear Modulus (GPa) = 15.85626 21.72347 18.78986
#
# Velocity S-wave (km/s) = 2.85130 3.33739 3.10387
# Velocity P-wave (km/s) = 4.16946 5.00683 4.60721
#
# Compressibility (1/GPa) = 0.07834404
#
# Stress axis : x y z
#
# Youngs Moduli (GPa) = 13.58896 74.51959 61.57645
#
# Poissons Ratio (x) = 0.17376 0.66291
# Poissons Ratio (y) = 0.03169 -0.03972
# Poissons Ratio (z) = 0.14629 -0.04807
#
# Static dielectric constant tensor:
#      x y z
#    x 1.783100 0.000000 0.000000 
#    y 0.000000 1.681660 0.000000 
#    z 0.000000 0.000000 1.666170 
# 
# From -- ./inp_files/29683.got.cif
#   From: 2010.05.17/outbox.cif.g08.bks.cpg/sg62_15_cif.got.tgz:29683.got - 2010.06.03 15:25:27.
