data_PCOD9465435
_publ_section_title
;
Structure prediction by ZEFSAII (Michael W. Deem and Ramdas Pophale) SiO2 
 PCOD9465435
Probable space group: P N M A
;
_chemical_formula_sum "Si O2"
_cell_formula_units_Z 40
_cell_length_a 9.209935
_cell_length_b 8.044496
_cell_length_c 28.046350
_cell_angle_alpha 90.000000
_cell_angle_beta 90.000000
_cell_angle_gamma 90.000000
_cell_volume 2077.934026
_symmetry_space_group_name_H-M "P N M A"
_symmetry_group_IT_number 62
_symmetry_cell_setting 'orthorhombic'
loop_
_space_group_symop_operation_xyz
x,y,z
1/2-x,-y,1/2+z
1/2+x,1/2-y,1/2-z
-x,1/2+y,-z
-x,-y,-z
1/2+x,y,1/2-z
1/2-x,1/2+y,1/2+z
x,1/2-y,z
loop_
_atom_site_type_symbol
_atom_site_label
_atom_site_fract_x
_atom_site_fract_y
_atom_site_fract_z
Si Si1 0.002313 0.750000 0.429238
Si Si2 0.019701 0.250000 0.909746
Si Si3 0.897847 0.948231 0.723115
Si Si4 0.257415 0.497693 0.583910
Si Si5 0.766443 0.750000 0.000528
Si Si6 0.781690 0.250000 0.660715
Si Si7 0.783302 0.546848 0.311041
O O1 0.890830 0.901161 0.428175
O O2 0.110647 0.750000 0.473565
O O3 0.099441 0.750000 0.381664
O O4 0.125848 0.250000 0.864605
O O5 0.908169 0.098916 0.909922
O O6 0.117071 0.250000 0.957228
O O7 0.875171 0.750000 0.713650
O O8 0.808380 0.081608 0.690860
O O9 0.846052 0.991455 0.776441
O O10 0.065348 0.995959 0.713758
O O11 0.281649 0.601949 0.536631
O O12 0.226586 0.548468 0.638564
O O13 0.781041 0.750000 0.318680
#
# Coordination Sequence:
#
# PCOD9465435 Si02
#       7
#     4   4   8   8   4   4   8
#     4  10  20  43  66  94 124 175 216 266 335 404
#     4  10  24  43  66  89 133 174 223 258 343 400
#     4  12  26  42  67 101 138 171 229 271 326 398
#     4  11  22  41  66  94 127 173 222 266 331 402
#     4  11  24  38  68  96 131 164 219 289 326 382
#     4  11  22  44  68  93 136 181 214 275 330 390
#     4  12  23  44  68  92 136 185 215 268 335 398
#
# _framework density 19.249889
#
# number of rings (size 3 to 8) (size 9 to 14) (size 15 to 20)
#    0.000    0.800    6.000    1.800    5.600    0.000 
#    1.800    0.000    4.400    0.000    0.000    0.000 
#    0.000    0.000    0.000    0.000    0.000    0.000 
#
# Total GULP energy -222973.978416 kJ/mol
# GULP energy per Si atom -5574.349460 kJ/mol
# Density = 1.920608 g / cm^3
# Si number density = 19.249889 Si / 1000 Ang^3
#
#
#
# Elastic Constant Matrix: (Units=GPa)
#
#
# Indices 1 2 3 4 5 6 
#
# 1 121.3397 15.3168 45.3126 0.0000 0.0000 0.0000
# 2 15.3168 90.1290 21.0103 0.0000 0.0000 0.0000
# 3 45.3126 21.0103 110.4756 0.0000 0.0000 0.0000
# 4 0.0000 0.0000 0.0000 72.3889 0.0000 0.0000
# 5 0.0000 0.0000 0.0000 0.0000 35.3881 0.0000
# 6 0.0000 0.0000 0.0000 0.0000 0.0000 32.8247
#
#
#
# Elastic Compliance Matrix: (Units=1/GPa)
#
#
# Indices 1 2 3 4 5 6 
#
# 1 0.009782 -0.000761 -0.003867 0.000000 0.000000 0.000000
# 2 -0.000761 0.011669 -0.001907 0.000000 0.000000 0.000000
# 3 -0.003867 -0.001907 0.011001 0.000000 0.000000 0.000000
# 4 0.000000 0.000000 0.000000 0.013814 0.000000 0.000000
# 5 0.000000 0.000000 0.000000 0.000000 0.028258 0.000000
# 6 0.000000 0.000000 0.000000 0.000000 0.000000 0.030465
#
#
# Mechanical properties :
#
#
# Convention : Reuss Voigt Hill
#
# Bulk Modulus (GPa) = 51.59753 53.91375 52.75564
# Shear Modulus (GPa) = 40.15441 44.14066 42.14753
#
# Velocity S-wave (km/s) = 4.57218 4.79376 4.68428
# Velocity P-wave (km/s) = 7.39834 7.66213 7.53139
#
# Compressibility (1/GPa) = 0.01938077
#
# Stress axis : x y z
#
# Youngs Moduli (GPa) = 102.23321 85.69648 90.90337
#
# Poissons Ratio (x) = 0.06520 0.35155
# Poissons Ratio (y) = 0.07778 0.17337
# Poissons Ratio (z) = 0.39537 0.16344
#
# Static dielectric constant tensor:
#      x y z
#    x 1.637640 0.000000 0.000000 
#    y 0.000000 1.780670 0.000000 
#    z 0.000000 0.000000 1.653690 
# 
# From -- ./inp_files/28665.got.cif
#   From: 2010.05.17/outbox.cif.g08.bks.cpg/sg62_15_cif.got.tgz:28665.got - 2010.06.03 15:25:27.
