data_PCOD9465627
_publ_section_title
;
Structure prediction by ZEFSAII (Michael W. Deem and Ramdas Pophale) SiO2 
 PCOD9465627
Probable space group: P N M A
;
_chemical_formula_sum "Si O2"
_cell_formula_units_Z 64
_cell_length_a 14.423977
_cell_length_b 7.908034
_cell_length_c 25.111496
_cell_angle_alpha 90.000000
_cell_angle_beta 90.000000
_cell_angle_gamma 90.000000
_cell_volume 2864.350338
_symmetry_space_group_name_H-M "P N M A"
_symmetry_group_IT_number 62
_symmetry_cell_setting 'orthorhombic'
loop_
_space_group_symop_operation_xyz
x,y,z
1/2-x,-y,1/2+z
1/2+x,1/2-y,1/2-z
-x,1/2+y,-z
-x,-y,-z
1/2+x,y,1/2-z
1/2-x,1/2+y,1/2+z
x,1/2-y,z
loop_
_atom_site_type_symbol
_atom_site_label
_atom_site_fract_x
_atom_site_fract_y
_atom_site_fract_z
Si Si1 0.041272 0.541555 0.100727
Si Si2 0.641569 0.056318 0.552559
Si Si3 0.276948 0.054699 0.339296
Si Si4 0.765656 0.455835 0.279306
Si Si5 0.431069 0.051780 0.831620
Si Si6 0.551689 0.946855 0.283229
Si Si7 0.890915 0.053110 0.378197
Si Si8 0.766656 0.445858 0.948932
O O1 0.040673 0.750000 0.100755
O O2 0.018528 0.480381 0.160512
O O3 0.143391 0.486415 0.083021
O O4 0.962166 0.485830 0.059836
O O5 0.636700 0.250000 0.534569
O O6 0.682269 0.048650 0.611968
O O7 0.705709 0.962550 0.510441
O O8 0.304106 0.250000 0.345734
O O9 0.302859 0.997482 0.279434
O O10 0.165164 0.040639 0.342058
O O11 0.756346 0.250000 0.280166
O O12 0.663584 0.534252 0.285218
O O13 0.829040 0.510602 0.328357
O O14 0.408848 0.250000 0.824313
O O15 0.472480 0.983873 0.775142
O O16 0.509554 0.033665 0.875873
O O17 0.525180 0.750000 0.283572
O O18 0.908247 0.250000 0.369414
O O19 0.827480 0.031594 0.429993
O O20 0.756624 0.250000 0.935003
#
# Coordination Sequence:
#
# PCOD9465627 Si02
#       8
#     8   8   8   8   8   8   8   8
#     4   9  19  35  57  86 119 155 194 239 288 345
#     4  11  23  39  60  86 118 156 200 247 297 350
#     4  10  21  40  60  84 119 157 198 244 295 350
#     4   9  19  34  54  82 117 153 189 235 290 344
#     4  10  21  36  59  88 119 156 196 242 297 351
#     4   9  17  33  55  83 117 152 191 234 282 341
#     4  11  22  37  58  87 121 157 196 242 296 351
#     4  11  22  40  62  85 117 156 202 248 293 347
#
# _framework density 22.343637000000001
#
# number of rings (size 3 to 8) (size 9 to 14) (size 15 to 20)
#    0.000    2.000    1.250    2.250    1.750    1.500 
#    0.000    3.750    0.000    0.000    0.000    0.000 
#    0.000    0.000    0.000    0.000    0.000    0.000 
#
# Total GULP energy -357587.009214 kJ/mol
# GULP energy per Si atom -5587.297019 kJ/mol
# Density = 2.229278 g / cm^3
# Si number density = 22.343637 Si / 1000 Ang^3
#
#
#
# Elastic Constant Matrix: (Units=GPa)
#
#
# Indices 1 2 3 4 5 6 
#
# 1 32.4612 -3.1649 -1.1867 0.0000 0.0000 0.0000
# 2 -3.1649 43.5203 -2.7956 0.0000 0.0000 0.0000
# 3 -1.1867 -2.7956 62.5957 0.0000 0.0000 0.0000
# 4 0.0000 0.0000 0.0000 15.0584 0.0000 0.0000
# 5 0.0000 0.0000 0.0000 0.0000 33.1414 0.0000
# 6 0.0000 0.0000 0.0000 0.0000 0.0000 18.3245
#
#
#
# Elastic Compliance Matrix: (Units=1/GPa)
#
#
# Indices 1 2 3 4 5 6 
#
# 1 0.031056 0.002303 0.000692 0.000000 0.000000 0.000000
# 2 0.002303 0.023215 0.001080 0.000000 0.000000 0.000000
# 3 0.000692 0.001080 0.016037 0.000000 0.000000 0.000000
# 4 0.000000 0.000000 0.000000 0.066408 0.000000 0.000000
# 5 0.000000 0.000000 0.000000 0.000000 0.030174 0.000000
# 6 0.000000 0.000000 0.000000 0.000000 0.000000 0.054572
#
#
# Mechanical properties :
#
#
# Convention : Reuss Voigt Hill
#
# Bulk Modulus (GPa) = 12.74580 13.80921 13.27751
# Shear Modulus (GPa) = 20.88001 23.01982 21.94991
#
# Velocity S-wave (km/s) = 3.06027 3.21325 3.13769
# Velocity P-wave (km/s) = 4.26659 4.46771 4.36831
#
# Compressibility (1/GPa) = 0.07845719
#
# Stress axis : x y z
#
# Youngs Moduli (GPa) = 32.20013 43.07626 62.35618
#
# Poissons Ratio (x) = -0.09920 -0.04313
# Poissons Ratio (y) = -0.07415 -0.06737
# Poissons Ratio (z) = -0.02227 -0.04654
#
# Static dielectric constant tensor:
#      x y z
#    x 1.821430 0.000000 0.000000 
#    y 0.000000 1.781910 0.000000 
#    z 0.000000 0.000000 1.847280 
# 
# From -- ./inp_files/29728.got.cif
#   From: 2010.05.17/outbox.cif.g08.bks.cpg/sg62_15_cif.got.tgz:29728.got - 2010.06.03 15:25:27.
