data_PCOD9465158
_publ_section_title
;
Structure prediction by ZEFSAII (Michael W. Deem and Ramdas Pophale) SiO2 
 PCOD9465158
Probable space group: P N M A
;
_chemical_formula_sum "Si O2"
_cell_formula_units_Z 48
_cell_length_a 19.145803
_cell_length_b 8.477916
_cell_length_c 15.337487
_cell_angle_alpha 90.000000
_cell_angle_beta 90.000000
_cell_angle_gamma 90.000000
_cell_volume 2489.527356
_symmetry_space_group_name_H-M "P N M A"
_symmetry_group_IT_number 62
_symmetry_cell_setting 'orthorhombic'
loop_
_space_group_symop_operation_xyz
x,y,z
1/2-x,-y,1/2+z
1/2+x,1/2-y,1/2-z
-x,1/2+y,-z
-x,-y,-z
1/2+x,y,1/2-z
1/2-x,1/2+y,1/2+z
x,1/2-y,z
loop_
_atom_site_type_symbol
_atom_site_label
_atom_site_fract_x
_atom_site_fract_y
_atom_site_fract_z
Si Si1 0.085107 0.059129 0.751695
Si Si2 0.216388 0.557805 0.495933
Si Si3 0.019792 0.561209 0.095398
Si Si4 0.563359 0.939170 0.941156
Si Si5 0.741896 0.059158 0.697995
Si Si6 0.172635 0.439114 0.142107
O O1 0.084366 0.250000 0.748889
O O2 0.164687 0.008145 0.771303
O O3 0.035210 0.007555 0.830802
O O4 0.059881 0.996708 0.658521
O O5 0.216254 0.750000 0.496320
O O6 0.138194 0.506362 0.520133
O O7 0.240904 0.507434 0.400209
O O8 0.271467 0.506640 0.569212
O O9 0.017699 0.750000 0.093695
O O10 0.096749 0.505124 0.120915
O O11 0.000000 0.500000 0.000000
O O12 0.562666 0.750000 0.942065
O O13 0.500000 0.000000 0.000000
O O14 0.743119 0.250000 0.699503
O O15 0.798665 0.995614 0.765250
O O16 0.169996 0.250000 0.139903
#
# Coordination Sequence:
#
# PCOD9465158 Si02
#       6
#     8   8   8   8   8   8
#     4  10  22  41  64  89 124 165 204 249 308 370
#     4   9  20  39  62  85 120 161 197 246 308 361
#     4  11  24  42  64  92 124 163 205 254 309 367
#     4  11  23  40  61  88 123 164 208 257 308 364
#     4  10  20  38  63  88 115 157 203 246 300 364
#     4  11  22  40  62  91 125 159 199 250 305 365
#
# _framework density 19.280768999999999
#
# number of rings (size 3 to 8) (size 9 to 14) (size 15 to 20)
#    0.000    1.667    1.667    2.500    2.333    4.000 
#    0.000    4.167    0.000    0.000    0.000    0.000 
#    0.000    0.000    0.000    0.000    0.000    0.000 
#
# Total GULP energy -268297.486738 kJ/mol
# GULP energy per Si atom -5589.530974 kJ/mol
# Density = 1.923688 g / cm^3
# Si number density = 19.280769 Si / 1000 Ang^3
#
#
#
# Elastic Constant Matrix: (Units=GPa)
#
#
# Indices 1 2 3 4 5 6 
#
# 1 115.2827 19.4261 41.9104 0.0000 0.0000 0.0000
# 2 19.4261 25.6458 20.4302 0.0000 0.0000 0.0000
# 3 41.9104 20.4302 141.2180 0.0000 0.0000 0.0000
# 4 0.0000 0.0000 0.0000 32.2018 0.0000 0.0000
# 5 0.0000 0.0000 0.0000 0.0000 42.8144 0.0000
# 6 0.0000 0.0000 0.0000 0.0000 0.0000 29.0827
#
#
#
# Elastic Compliance Matrix: (Units=1/GPa)
#
#
# Indices 1 2 3 4 5 6 
#
# 1 0.010529 -0.006201 -0.002228 0.000000 0.000000 0.000000
# 2 -0.006201 0.047724 -0.005064 0.000000 0.000000 0.000000
# 3 -0.002228 -0.005064 0.008475 0.000000 0.000000 0.000000
# 4 0.000000 0.000000 0.000000 0.031054 0.000000 0.000000
# 5 0.000000 0.000000 0.000000 0.000000 0.023357 0.000000
# 6 0.000000 0.000000 0.000000 0.000000 0.000000 0.034385
#
#
# Mechanical properties :
#
#
# Convention : Reuss Voigt Hill
#
# Bulk Modulus (GPa) = 25.16180 49.51997 37.34089
# Shear Modulus (GPa) = 25.54199 34.17844 29.86022
#
# Velocity S-wave (km/s) = 3.64365 4.21488 3.93963
# Velocity P-wave (km/s) = 5.54798 7.03038 6.33271
#
# Compressibility (1/GPa) = 0.03974278
#
# Stress axis : x y z
#
# Youngs Moduli (GPa) = 94.97494 20.95391 117.99409
#
# Poissons Ratio (x) = 0.12993 0.26286
# Poissons Ratio (y) = 0.58893 0.59752
# Poissons Ratio (z) = 0.21158 0.10611
#
# Static dielectric constant tensor:
#      x y z
#    x 1.647380 0.000000 0.000000 
#    y 0.000000 1.667500 0.000000 
#    z 0.000000 0.000000 1.634030 
# 
# From -- ./inp_files/19652.got.cif
#   From: 2010.05.17/outbox.cif.g08.bks.cpg/sg62_10_cif.got.tgz:19652.got - 2010.06.03 15:25:27.
