data_PCOD9465186
_publ_section_title
;
Structure prediction by ZEFSAII (Michael W. Deem and Ramdas Pophale) SiO2 
 PCOD9465186
Probable space group: P N M A
;
_chemical_formula_sum "Si O2"
_cell_formula_units_Z 64
_cell_length_a 20.094133
_cell_length_b 25.163660
_cell_length_c 5.606416
_cell_angle_alpha 90.000000
_cell_angle_beta 90.000000
_cell_angle_gamma 90.000000
_cell_volume 2834.839011
_symmetry_space_group_name_H-M "P N M A"
_symmetry_group_IT_number 62
_symmetry_cell_setting 'orthorhombic'
loop_
_space_group_symop_operation_xyz
x,y,z
1/2-x,-y,1/2+z
1/2+x,1/2-y,1/2-z
-x,1/2+y,-z
-x,-y,-z
1/2+x,y,1/2-z
1/2-x,1/2+y,1/2+z
x,1/2-y,z
loop_
_atom_site_type_symbol
_atom_site_label
_atom_site_fract_x
_atom_site_fract_y
_atom_site_fract_z
Si Si1 0.284090 0.309586 0.449368
Si Si2 0.699663 0.115388 0.353640
Si Si3 0.917922 0.527075 0.250595
Si Si4 0.650516 0.192845 0.738245
Si Si5 0.570472 0.371094 0.047814
Si Si6 0.638204 0.904428 0.351183
Si Si7 0.311133 0.044603 0.148638
Si Si8 0.492988 0.425931 0.388614
O O1 0.307161 0.250000 0.389263
O O2 0.259691 0.344222 0.221560
O O3 0.216037 0.303941 0.599292
O O4 0.335190 0.344583 0.605247
O O5 0.664513 0.141388 0.579769
O O6 0.642935 0.118327 0.158612
O O7 0.733385 0.058080 0.378345
O O8 0.943543 0.575840 0.401859
O O9 0.843217 0.513521 0.331847
O O10 0.956242 0.470854 0.269815
O O11 0.939732 0.545797 0.985761
O O12 0.644771 0.250000 0.609617
O O13 0.583994 0.180110 0.887631
O O14 0.514841 0.373110 0.250348
O O15 0.670991 0.933900 0.583189
O O16 0.560185 0.911692 0.407023
O O17 0.658370 0.927496 0.092060
#
# Coordination Sequence:
#
# PCOD9465186 Si02
#       8
#     8   8   8   8   8   8   8   8
#     4   9  18  35  62  91 119 158 212 272 334 394
#     4  10  20  39  58  91 130 166 213 273 340 397
#     4  10  23  40  64  88 122 171 221 259 320 391
#     4  10  20  38  64  88 123 169 215 269 333 401
#     4  11  23  39  58  94 126 166 223 269 320 402
#     4  10  21  38  62  94 124 165 215 272 321 387
#     4  10  22  39  63  91 129 165 214 268 329 385
#     4  10  23  39  64  88 126 176 221 270 317 398
#
# _framework density 22.576236999999999
#
# number of rings (size 3 to 8) (size 9 to 14) (size 15 to 20)
#    0.000    2.000    1.250    1.500    8.750    0.500 
#    4.500    0.625    0.000    0.750    0.000    0.000 
#    0.000    0.000    0.000    0.000    0.000    0.000 
#
# Total GULP energy -356477.717052 kJ/mol
# GULP energy per Si atom -5569.964329 kJ/mol
# Density = 2.252485 g / cm^3
# Si number density = 22.576237 Si / 1000 Ang^3
#
#
#
# Elastic Constant Matrix: (Units=GPa)
#
#
# Indices 1 2 3 4 5 6 
#
# 1 49.1951 19.9877 25.9762 0.0000 0.0000 0.0000
# 2 19.9877 48.6369 13.3005 0.0000 0.0000 0.0000
# 3 25.9762 13.3005 80.0036 0.0000 0.0000 0.0000
# 4 0.0000 0.0000 0.0000 20.9108 0.0000 0.0000
# 5 0.0000 0.0000 0.0000 0.0000 35.7178 0.0000
# 6 0.0000 0.0000 0.0000 0.0000 0.0000 -15.9912
#
#
#
# Elastic Compliance Matrix: (Units=1/GPa)
#
#
# Indices 1 2 3 4 5 6 
#
# 1 0.028191 -0.009515 -0.007571 0.000000 0.000000 0.000000
# 2 -0.009515 0.024751 -0.001026 0.000000 0.000000 0.000000
# 3 -0.007571 -0.001026 0.015128 0.000000 0.000000 0.000000
# 4 0.000000 0.000000 0.000000 0.047822 0.000000 0.000000
# 5 0.000000 0.000000 0.000000 0.000000 0.027997 0.000000
# 6 0.000000 0.000000 0.000000 0.000000 0.000000 -0.062534
#
#
# Mechanical properties :
#
#
# Convention : Reuss Voigt Hill
#
# Bulk Modulus (GPa) = 31.40021 32.92938 32.16480
# Shear Modulus (GPa) = 39.00314 16.03221 27.51768
#
# Velocity S-wave (km/s) = 4.16097 2.66773 3.49503
# Velocity P-wave (km/s) = 6.08471 4.90984 5.52857
#
# Compressibility (1/GPa) = 0.03184692
#
# Stress axis : x y z
#
# Youngs Moduli (GPa) = 35.47238 40.40213 66.10135
#
# Poissons Ratio (x) = 0.38442 0.50048
# Poissons Ratio (y) = 0.33751 0.06779
# Poissons Ratio (z) = 0.26858 0.04143
#
# Static dielectric constant tensor:
#      x y z
#    x 1.879390 0.000000 0.000000 
#    y 0.000000 1.949200 0.000000 
#    z 0.000000 0.000000 1.967600 
# 
# From -- ./inp_files/2404.got.cif
#   From: 2010.05.17/outbox.cif.g08.bks.cpg/sg62_2_cif.got.tgz:2404.got - 2010.06.03 15:25:27.
