data_PCOD9465347
_publ_section_title
;
Structure prediction by ZEFSAII (Michael W. Deem and Ramdas Pophale) SiO2 
 PCOD9465347
Probable space group: P N M A
;
_chemical_formula_sum "Si O2"
_cell_formula_units_Z 36
_cell_length_a 22.509055
_cell_length_b 7.568795
_cell_length_c 8.258420
_cell_angle_alpha 90.000000
_cell_angle_beta 90.000000
_cell_angle_gamma 90.000000
_cell_volume 1406.957475
_symmetry_space_group_name_H-M "P N M A"
_symmetry_group_IT_number 62
_symmetry_cell_setting 'orthorhombic'
loop_
_space_group_symop_operation_xyz
x,y,z
1/2-x,-y,1/2+z
1/2+x,1/2-y,1/2-z
-x,1/2+y,-z
-x,-y,-z
1/2+x,y,1/2-z
1/2-x,1/2+y,1/2+z
x,1/2-y,z
loop_
_atom_site_type_symbol
_atom_site_label
_atom_site_fract_x
_atom_site_fract_y
_atom_site_fract_z
Si Si1 0.043266 0.550194 0.325952
Si Si2 0.389880 0.054796 0.512299
Si Si3 0.460007 0.250000 0.234098
Si Si4 0.284493 0.465328 0.310729
Si Si5 0.664239 0.455929 0.039784
O O1 0.021430 0.750000 0.296669
O O2 0.995194 0.404138 0.365806
O O3 0.102697 0.553848 0.434757
O O4 0.069917 0.474312 0.152009
O O5 0.373781 0.250000 0.580082
O O6 0.427874 0.098151 0.351676
O O7 0.329163 0.968667 0.451297
O O8 0.286655 0.250000 0.314989
O O9 0.217260 0.520053 0.344109
O O10 0.310114 0.523614 0.139818
O O11 0.653265 0.250000 0.072813
#
# Coordination Sequence:
#
# PCOD9465347 Si02
#       5
#     8   8   4   8   8
#     4  11  21  38  66  93 129 169 206 261 317 359
#     4   8  19  36  63  88 126 157 211 259 304 364
#     4  10  20  40  62  96 126 162 224 260 290 386
#     4  10  21  41  63  88 124 165 203 259 319 373
#     4  11  23  39  62  93 129 158 210 260 311 388
#
# _framework density 25.587128
#
# number of rings (size 3 to 8) (size 9 to 14) (size 15 to 20)
#    0.667    1.333    1.111    2.667    0.000    3.556 
#    2.000    1.111    0.000    0.000    0.000    0.000 
#    0.000    0.000    0.000    0.000    0.000    0.000 
#
# Total GULP energy -200483.533717 kJ/mol
# GULP energy per Si atom -5568.987048 kJ/mol
# Density = 2.552889 g / cm^3
# Si number density = 25.587128 Si / 1000 Ang^3
#
#
#
# Elastic Constant Matrix: (Units=GPa)
#
#
# Indices 1 2 3 4 5 6 
#
# 1 138.6339 50.1432 42.2989 0.0000 0.0000 0.0000
# 2 50.1432 127.0019 9.1086 0.0000 0.0000 0.0000
# 3 42.2989 9.1086 76.2975 0.0000 0.0000 0.0000
# 4 0.0000 0.0000 0.0000 9.7671 0.0000 0.0000
# 5 0.0000 0.0000 0.0000 0.0000 57.6626 0.0000
# 6 0.0000 0.0000 0.0000 0.0000 0.0000 -9.9879
#
#
#
# Elastic Compliance Matrix: (Units=1/GPa)
#
#
# Indices 1 2 3 4 5 6 
#
# 1 0.010097 -0.003616 -0.005166 0.000000 0.000000 0.000000
# 2 -0.003616 0.009237 0.000902 0.000000 0.000000 0.000000
# 3 -0.005166 0.000902 0.015863 0.000000 0.000000 0.000000
# 4 0.000000 0.000000 0.000000 0.102384 0.000000 0.000000
# 5 0.000000 0.000000 0.000000 0.000000 0.017342 0.000000
# 6 0.000000 0.000000 0.000000 0.000000 0.000000 -0.100121
#
#
# Mechanical properties :
#
#
# Convention : Reuss Voigt Hill
#
# Bulk Modulus (GPa) = 51.44909 60.55942 56.00425
# Shear Modulus (GPa) = 64.89920 27.51387 46.20653
#
# Velocity S-wave (km/s) = 5.04173 3.28274 4.25414
# Velocity P-wave (km/s) = 7.35140 6.17153 6.78715
#
# Compressibility (1/GPa) = 0.01943669
#
# Stress axis : x y z
#
# Youngs Moduli (GPa) = 99.03442 108.26075 63.03952
#
# Poissons Ratio (x) = 0.39149 0.32568
# Poissons Ratio (y) = 0.35813 -0.05687
# Poissons Ratio (z) = 0.51164 -0.09766
#
# Static dielectric constant tensor:
#      x y z
#    x 2.029160 0.000000 0.000000 
#    y 0.000000 1.957410 0.000000 
#    z 0.000000 0.000000 2.112540 
# 
# From -- ./inp_files/8333.got.cif
#   From: 2010.05.17/outbox.cif.g08.bks.cpg/sg62_5_cif.got.tgz:8333.got - 2010.06.03 15:25:27.
