data_PCOD9465468
_publ_section_title
;
Structure prediction by ZEFSAII (Michael W. Deem and Ramdas Pophale) SiO2 
 PCOD9465468
Probable space group: P N M A
;
_chemical_formula_sum "Si O2"
_cell_formula_units_Z 64
_cell_length_a 16.708480
_cell_length_b 7.800789
_cell_length_c 20.596976
_cell_angle_alpha 90.000000
_cell_angle_beta 90.000000
_cell_angle_gamma 90.000000
_cell_volume 2684.595990
_symmetry_space_group_name_H-M "P N M A"
_symmetry_group_IT_number 62
_symmetry_cell_setting 'orthorhombic'
loop_
_space_group_symop_operation_xyz
x,y,z
1/2-x,-y,1/2+z
1/2+x,1/2-y,1/2-z
-x,1/2+y,-z
-x,-y,-z
1/2+x,y,1/2-z
1/2-x,1/2+y,1/2+z
x,1/2-y,z
loop_
_atom_site_type_symbol
_atom_site_label
_atom_site_fract_x
_atom_site_fract_y
_atom_site_fract_z
Si Si1 0.886926 0.946866 0.777060
Si Si2 0.676438 0.452499 0.725508
Si Si3 0.126929 0.452608 0.634298
Si Si4 0.219352 0.543136 0.388661
Si Si5 0.206441 0.045783 0.108917
Si Si6 0.975858 0.951862 0.130120
Si Si7 0.132976 0.459867 0.979792
Si Si8 0.050679 0.451401 0.358638
O O1 0.867319 0.750000 0.761484
O O2 0.814446 0.026583 0.819362
O O3 0.924677 0.028620 0.712291
O O4 0.955687 0.950350 0.831980
O O5 0.690852 0.250000 0.734808
O O6 0.646211 0.527677 0.793599
O O7 0.750915 0.520620 0.682797
O O8 0.602104 0.463860 0.676054
O O9 0.135124 0.250000 0.636964
O O10 0.200886 0.517318 0.591590
O O11 0.035093 0.486347 0.617074
O O12 0.219879 0.750000 0.387247
O O13 0.286948 0.490300 0.439829
O O14 0.129208 0.484978 0.401430
O O15 0.195101 0.250000 0.112578
O O16 0.148045 0.979109 0.052696
O O17 0.997077 0.750000 0.125941
O O18 0.944230 0.018014 0.060764
O O19 0.130187 0.250000 0.979356
O O20 0.040221 0.250000 0.350138
#
# Coordination Sequence:
#
# PCOD9465468 Si02
#       8
#     8   8   8   8   8   8   8   8
#     4  10  21  34  51  80 117 146 172 209 267 331
#     4   8  15  29  51  77 103 130 168 217 267 306
#     4  11  21  35  55  79 104 137 180 225 268 315
#     4   9  17  33  57  80 100 132 179 225 261 306
#     4  10  21  38  55  76 110 148 177 216 270 322
#     4   9  16  31  55  80 106 142 181 218 257 305
#     4   8  17  35  58  79 105 143 186 222 262 312
#     4  11  22  35  51  79 113 142 171 212 271 330
#
# _framework density 23.839711999999999
#
# number of rings (size 3 to 8) (size 9 to 14) (size 15 to 20)
#    0.000    2.500    1.250    3.000    0.000    1.500 
#    0.000    5.000    0.000    0.000    0.000    0.000 
#    0.000    0.000    0.000    0.000    0.000    0.000 
#
# Total GULP energy -357272.194684 kJ/mol
# GULP energy per Si atom -5582.378042 kJ/mol
# Density = 2.378545 g / cm^3
# Si number density = 23.839712 Si / 1000 Ang^3
#
#
#
# Elastic Constant Matrix: (Units=GPa)
#
#
# Indices 1 2 3 4 5 6 
#
# 1 92.0017 8.5678 -25.1247 0.0000 0.0000 0.0000
# 2 8.5678 38.1145 6.0658 0.0000 0.0000 0.0000
# 3 -25.1247 6.0658 32.0673 0.0000 0.0000 0.0000
# 4 0.0000 0.0000 0.0000 8.8750 0.0000 0.0000
# 5 0.0000 0.0000 0.0000 0.0000 29.4796 0.0000
# 6 0.0000 0.0000 0.0000 0.0000 0.0000 23.5090
#
#
#
# Elastic Compliance Matrix: (Units=1/GPa)
#
#
# Indices 1 2 3 4 5 6 
#
# 1 0.014811 -0.005337 0.012614 0.000000 0.000000 0.000000
# 2 -0.005337 0.028974 -0.009662 0.000000 0.000000 0.000000
# 3 0.012614 -0.009662 0.042895 0.000000 0.000000 0.000000
# 4 0.000000 0.000000 0.000000 0.112677 0.000000 0.000000
# 5 0.000000 0.000000 0.000000 0.000000 0.033922 0.000000
# 6 0.000000 0.000000 0.000000 0.000000 0.000000 0.042537
#
#
# Mechanical properties :
#
#
# Convention : Reuss Voigt Hill
#
# Bulk Modulus (GPa) = 12.20849 15.68904 13.94877
# Shear Modulus (GPa) = 16.23962 23.88436 20.06199
#
# Velocity S-wave (km/s) = 2.61281 3.16867 2.90407
# Velocity P-wave (km/s) = 3.77287 4.47020 4.13626
#
# Compressibility (1/GPa) = 0.08191024
#
# Stress axis : x y z
#
# Youngs Moduli (GPa) = 67.51691 34.51358 23.31269
#
# Poissons Ratio (x) = 0.18419 -0.29407
# Poissons Ratio (y) = 0.36033 0.22525
# Poissons Ratio (z) = -0.85166 0.33348
#
# Static dielectric constant tensor:
#      x y z
#    x 1.955730 0.000000 0.000000 
#    y 0.000000 1.831960 0.000000 
#    z 0.000000 0.000000 1.963710 
# 
# From -- ./inp_files/29893.got.cif
#   From: 2010.05.17/outbox.cif.g08.bks.cpg/sg62_15_cif.got.tgz:29893.got - 2010.06.03 15:25:27.
