data_PCOD9465359
_publ_section_title
;
Structure prediction by ZEFSAII (Michael W. Deem and Ramdas Pophale) SiO2 
 PCOD9465359
Probable space group: P N M A
;
_chemical_formula_sum "Si O2"
_cell_formula_units_Z 44
_cell_length_a 12.287599
_cell_length_b 11.400166
_cell_length_c 14.959101
_cell_angle_alpha 90.000000
_cell_angle_beta 90.000000
_cell_angle_gamma 90.000000
_cell_volume 2095.480866
_symmetry_space_group_name_H-M "P N M A"
_symmetry_group_IT_number 62
_symmetry_cell_setting 'orthorhombic'
loop_
_space_group_symop_operation_xyz
x,y,z
1/2-x,-y,1/2+z
1/2+x,1/2-y,1/2-z
-x,1/2+y,-z
-x,-y,-z
1/2+x,y,1/2-z
1/2-x,1/2+y,1/2+z
x,1/2-y,z
loop_
_atom_site_type_symbol
_atom_site_label
_atom_site_fract_x
_atom_site_fract_y
_atom_site_fract_z
Si Si1 0.724016 0.033586 0.003253
Si Si2 0.671019 0.250000 0.897575
Si Si3 0.169394 0.112973 0.159229
Si Si4 0.190473 0.944876 0.317289
Si Si5 0.541748 0.889011 0.559387
Si Si6 0.631787 0.250000 0.695697
Si Si7 0.597791 0.750000 0.302127
O O1 0.828485 0.090044 0.055566
O O2 0.657268 0.972926 0.082295
O O3 0.656243 0.134471 0.954879
O O4 0.771806 0.950696 0.924883
O O5 0.613151 0.250000 0.802404
O O6 0.799673 0.250000 0.868278
O O7 0.194473 0.250000 0.157325
O O8 0.038493 0.098022 0.144938
O O9 0.206152 0.054372 0.251704
O O10 0.298342 0.864396 0.325871
O O11 0.110288 0.862488 0.260609
O O12 0.525322 0.750000 0.535881
O O13 0.500000 0.000000 0.500000
O O14 0.516359 0.250000 0.650102
#
# Coordination Sequence:
#
# PCOD9465359 Si02
#       7
#     8   4   8   8   8   4   4
#     4  11  20  36  61  87 123 153 204 246 305 360
#     4  10  20  40  64  90 120 156 200 254 302 360
#     4  10  21  36  54  86 129 153 194 249 307 358
#     4  10  23  38  59  94 115 163 202 247 310 362
#     4   9  19  32  54  88 117 156 191 246 308 356
#     4  10  22  42  66  83 120 165 203 248 311 353
#     4  10  22  42  62  85 120 159 213 256 289 369
#
# _framework density 20.997568999999999
#
# number of rings (size 3 to 8) (size 9 to 14) (size 15 to 20)
#    0.000    2.182    4.545    0.000    6.364    1.455 
#    0.000    0.909    0.000    0.000    0.000    0.000 
#    0.000    0.000    0.000    0.000    0.000    0.000 
#
# Total GULP energy -245272.690403 kJ/mol
# GULP energy per Si atom -5574.379327 kJ/mol
# Density = 2.094978 g / cm^3
# Si number density = 20.997569 Si / 1000 Ang^3
#
#
#
# Elastic Constant Matrix: (Units=GPa)
#
#
# Indices 1 2 3 4 5 6 
#
# 1 25.7174 -8.7570 -15.0160 0.0000 0.0000 0.0000
# 2 -8.7570 105.8793 17.1980 0.0000 0.0000 0.0000
# 3 -15.0160 17.1980 96.3126 0.0000 0.0000 0.0000
# 4 0.0000 0.0000 0.0000 1.5954 0.0000 0.0000
# 5 0.0000 0.0000 0.0000 0.0000 -4.4848 0.0000
# 6 0.0000 0.0000 0.0000 0.0000 0.0000 -2.8745
#
#
#
# Elastic Compliance Matrix: (Units=1/GPa)
#
#
# Indices 1 2 3 4 5 6 
#
# 1 0.043446 0.002568 0.006315 0.000000 0.000000 0.000000
# 2 0.002568 0.009879 -0.001364 0.000000 0.000000 0.000000
# 3 0.006315 -0.001364 0.011611 0.000000 0.000000 0.000000
# 4 0.000000 0.000000 0.000000 0.626787 0.000000 0.000000
# 5 0.000000 0.000000 0.000000 0.000000 -0.222975 0.000000
# 6 0.000000 0.000000 0.000000 0.000000 0.000000 -0.347883
#
#
# Mechanical properties :
#
#
# Convention : Reuss Voigt Hill
#
# Bulk Modulus (GPa) = 12.50419 23.86215 18.18317
# Shear Modulus (GPa) = 37.74034 14.47951 26.10993
#
# Velocity S-wave (km/s) = 4.24414 2.62883 3.53012
# Velocity P-wave (km/s) = 5.47585 4.53908 5.02932
#
# Compressibility (1/GPa) = 0.07997319
#
# Stress axis : x y z
#
# Youngs Moduli (GPa) = 23.01722 101.22926 86.12562
#
# Poissons Ratio (x) = -0.25991 -0.54389
# Poissons Ratio (y) = -0.05910 0.11745
# Poissons Ratio (z) = -0.14536 0.13804
#
# Static dielectric constant tensor:
#      x y z
#    x 1.778840 0.000000 0.000000 
#    y 0.000000 1.781130 0.000000 
#    z 0.000000 0.000000 1.903190 
# 
# From -- ./inp_files/18844.got.cif
#   From: 2010.05.17/outbox.cif.g08.bks.cpg/sg62_10_cif.got.tgz:18844.got - 2010.06.03 15:25:27.
