data_PCOD9465297
_publ_section_title
;
Structure prediction by ZEFSAII (Michael W. Deem and Ramdas Pophale) SiO2 
 PCOD9465297
Probable space group: P N M A
;
_chemical_formula_sum "Si O2"
_cell_formula_units_Z 48
_cell_length_a 19.161568
_cell_length_b 8.535940
_cell_length_c 15.345645
_cell_angle_alpha 90.000000
_cell_angle_beta 90.000000
_cell_angle_gamma 90.000000
_cell_volume 2509.964307
_symmetry_space_group_name_H-M "P N M A"
_symmetry_group_IT_number 62
_symmetry_cell_setting 'orthorhombic'
loop_
_space_group_symop_operation_xyz
x,y,z
1/2-x,-y,1/2+z
1/2+x,1/2-y,1/2-z
-x,1/2+y,-z
-x,-y,-z
1/2+x,y,1/2-z
1/2-x,1/2+y,1/2+z
x,1/2-y,z
loop_
_atom_site_type_symbol
_atom_site_label
_atom_site_fract_x
_atom_site_fract_y
_atom_site_fract_z
Si Si1 0.021373 0.062308 0.594557
Si Si2 0.084728 0.940979 0.254609
Si Si3 0.326101 0.437559 0.139584
Si Si4 0.712704 0.060713 0.504901
Si Si5 0.936156 0.062414 0.942984
Si Si6 0.742341 0.560524 0.199282
O O1 0.018603 0.250000 0.592645
O O2 0.967424 0.007077 0.669251
O O3 0.098878 0.008275 0.618492
O O4 0.000000 0.000000 0.500000
O O5 0.084506 0.750000 0.254855
O O6 0.061837 0.991891 0.158043
O O7 0.164089 0.990130 0.274714
O O8 0.331059 0.250000 0.136428
O O9 0.296994 0.491728 0.232464
O O10 0.269272 0.488339 0.067285
O O11 0.707894 0.250000 0.502519
O O12 0.738837 0.015156 0.600837
O O13 0.637433 0.991990 0.482545
O O14 0.938769 0.250000 0.942776
O O15 0.000000 0.000000 0.000000
O O16 0.744576 0.750000 0.204470
#
# Coordination Sequence:
#
# PCOD9465297 Si02
#       6
#     8   8   8   8   8   8
#     4  11  23  41  64  91 123 163 205 250 304 365
#     4   9  20  40  64  87 119 163 203 241 298 366
#     4  11  23  40  61  92 126 157 199 253 304 361
#     4  10  22  40  63  88 122 161 199 250 308 362
#     4  11  23  40  62  88 121 161 207 253 301 363
#     4  10  20  39  64  87 115 158 203 245 301 363
#
# _framework density 19.123777
#
# number of rings (size 3 to 8) (size 9 to 14) (size 15 to 20)
#    0.000    1.667    1.667    2.500    2.333    4.000 
#    0.000    5.833    0.000    0.000    0.000    0.000 
#    0.000    0.000    0.000    0.000    0.000    0.000 
#
# Total GULP energy -268292.475590 kJ/mol
# GULP energy per Si atom -5589.426575 kJ/mol
# Density = 1.908025 g / cm^3
# Si number density = 19.123777 Si / 1000 Ang^3
#
#
#
# Elastic Constant Matrix: (Units=GPa)
#
#
# Indices 1 2 3 4 5 6 
#
# 1 128.0166 20.5664 52.9384 0.0000 0.0000 0.0000
# 2 20.5664 24.0668 23.8290 0.0000 0.0000 0.0000
# 3 52.9384 23.8290 146.4079 0.0000 0.0000 0.0000
# 4 0.0000 0.0000 0.0000 31.5698 0.0000 0.0000
# 5 0.0000 0.0000 0.0000 0.0000 42.8510 0.0000
# 6 0.0000 0.0000 0.0000 0.0000 0.0000 34.5329
#
#
#
# Elastic Compliance Matrix: (Units=1/GPa)
#
#
# Indices 1 2 3 4 5 6 
#
# 1 0.009823 -0.005815 -0.002605 0.000000 0.000000 0.000000
# 2 -0.005815 0.052975 -0.006520 0.000000 0.000000 0.000000
# 3 -0.002605 -0.006520 0.008833 0.000000 0.000000 0.000000
# 4 0.000000 0.000000 0.000000 0.031676 0.000000 0.000000
# 5 0.000000 0.000000 0.000000 0.000000 0.023337 0.000000
# 6 0.000000 0.000000 0.000000 0.000000 0.000000 0.028958
#
#
# Mechanical properties :
#
#
# Convention : Reuss Voigt Hill
#
# Bulk Modulus (GPa) = 23.95081 54.79545 39.37313
# Shear Modulus (GPa) = 25.07534 35.20124 30.13829
#
# Velocity S-wave (km/s) = 3.62500 4.29500 3.97414
# Velocity P-wave (km/s) = 5.48380 7.30146 6.45691
#
# Compressibility (1/GPa) = 0.04175224
#
# Stress axis : x y z
#
# Youngs Moduli (GPa) = 101.80128 18.87674 113.20611
#
# Poissons Ratio (x) = 0.10976 0.29495
# Poissons Ratio (y) = 0.59194 0.73807
# Poissons Ratio (z) = 0.26524 0.12307
#
# Static dielectric constant tensor:
#      x y z
#    x 1.621650 0.000000 0.000000 
#    y 0.000000 1.661910 0.000000 
#    z 0.000000 0.000000 1.642880 
# 
# From -- ./inp_files/19634.got.cif
#   From: 2010.05.17/outbox.cif.g08.bks.cpg/sg62_10_cif.got.tgz:19634.got - 2010.06.03 15:25:27.
