data_PCOD9465599
_publ_section_title
;
Structure prediction by ZEFSAII (Michael W. Deem and Ramdas Pophale) SiO2 
 PCOD9465599
Probable space group: P N M A
;
_chemical_formula_sum "Si O2"
_cell_formula_units_Z 64
_cell_length_a 8.391780
_cell_length_b 33.346913
_cell_length_c 11.555775
_cell_angle_alpha 90.000000
_cell_angle_beta 90.000000
_cell_angle_gamma 90.000000
_cell_volume 3233.767586
_symmetry_space_group_name_H-M "P N M A"
_symmetry_group_IT_number 62
_symmetry_cell_setting 'orthorhombic'
loop_
_space_group_symop_operation_xyz
x,y,z
1/2-x,-y,1/2+z
1/2+x,1/2-y,1/2-z
-x,1/2+y,-z
-x,-y,-z
1/2+x,y,1/2-z
1/2-x,1/2+y,1/2+z
x,1/2-y,z
loop_
_atom_site_type_symbol
_atom_site_label
_atom_site_fract_x
_atom_site_fract_y
_atom_site_fract_z
Si Si1 0.450412 0.125035 0.566091
Si Si2 0.190756 0.621295 0.510268
Si Si3 0.247343 0.020591 0.639166
Si Si4 0.805246 0.438397 0.081823
Si Si5 0.449955 0.058774 0.178791
Si Si6 0.127751 0.795232 0.418205
Si Si7 0.491859 0.705327 0.328046
Si Si8 0.051523 0.570785 0.296866
O O1 0.618718 0.123902 0.499522
O O2 0.323225 0.103800 0.484302
O O3 0.417777 0.170205 0.605108
O O4 0.466941 0.099170 0.684604
O O5 0.128980 0.597974 0.621908
O O6 0.119740 0.666095 0.499578
O O7 0.138876 0.595164 0.397602
O O8 0.332183 0.028538 0.517456
O O9 0.359931 0.031045 0.747585
O O10 0.113577 0.055205 0.652223
O O11 0.156951 0.978824 0.638789
O O12 0.933722 0.440937 0.183254
O O13 0.630538 0.443681 0.135368
O O14 0.105603 0.750000 0.465881
O O15 0.306856 0.796746 0.364181
O O16 0.011481 0.800744 0.308890
O O17 0.552369 0.750000 0.354248
#
# Coordination Sequence:
#
# PCOD9465599 Si02
#       8
#     8   8   8   8   8   8   8   8
#     4  10  21  36  57  85 118 152 192 233 292 352
#     4  11  21  35  58  82 117 153 193 235 291 342
#     4  11  24  39  60  83 120 151 196 244 296 343
#     4  11  25  41  59  83 111 153 198 243 293 338
#     4  12  25  41  60  80 114 154 204 246 290 346
#     4   9  18  31  52  84 120 151 186 233 291 353
#     4   9  17  30  52  84 119 150 181 230 291 356
#     4  11  20  35  57  87 114 154 188 237 286 351
#
# _framework density 19.791156000000001
#
# number of rings (size 3 to 8) (size 9 to 14) (size 15 to 20)
#    0.000    1.500    3.750    1.875    1.750    1.000 
#    0.000    3.125    0.000    0.750    0.000    0.000 
#    0.000    0.000    0.000    0.000    0.000    0.000 
#
# Total GULP energy -357625.408307 kJ/mol
# GULP energy per Si atom -5587.897005 kJ/mol
# Density = 1.974611 g / cm^3
# Si number density = 19.791156 Si / 1000 Ang^3
#
#
#
# Elastic Constant Matrix: (Units=GPa)
#
#
# Indices 1 2 3 4 5 6 
#
# 1 36.3817 10.4929 14.8325 0.0000 0.0000 0.0000
# 2 10.4929 109.4104 31.5591 0.0000 0.0000 0.0000
# 3 14.8325 31.5591 73.0987 0.0000 0.0000 0.0000
# 4 0.0000 0.0000 0.0000 32.8381 0.0000 0.0000
# 5 0.0000 0.0000 0.0000 0.0000 29.5592 0.0000
# 6 0.0000 0.0000 0.0000 0.0000 0.0000 20.3602
#
#
#
# Elastic Compliance Matrix: (Units=1/GPa)
#
#
# Indices 1 2 3 4 5 6 
#
# 1 0.030123 -0.001286 -0.005557 0.000000 0.000000 0.000000
# 2 -0.001286 0.010495 -0.004270 0.000000 0.000000 0.000000
# 3 -0.005557 -0.004270 0.016651 0.000000 0.000000 0.000000
# 4 0.000000 0.000000 0.000000 0.030452 0.000000 0.000000
# 5 0.000000 0.000000 0.000000 0.000000 0.033830 0.000000
# 6 0.000000 0.000000 0.000000 0.000000 0.000000 0.049115
#
#
# Mechanical properties :
#
#
# Convention : Reuss Voigt Hill
#
# Bulk Modulus (GPa) = 28.53655 36.96220 32.74937
# Shear Modulus (GPa) = 24.44100 27.35192 25.89646
#
# Velocity S-wave (km/s) = 3.51799 3.72160 3.62123
# Velocity P-wave (km/s) = 5.56344 6.09784 5.83676
#
# Compressibility (1/GPa) = 0.03504278
#
# Stress axis : x y z
#
# Youngs Moduli (GPa) = 33.19749 95.28427 60.05566
#
# Poissons Ratio (x) = 0.12254 0.33373
# Poissons Ratio (y) = 0.04269 0.25644
# Poissons Ratio (z) = 0.18448 0.40687
#
# Static dielectric constant tensor:
#      x y z
#    x 1.720630 0.000000 0.000000 
#    y 0.000000 1.716330 0.000000 
#    z 0.000000 0.000000 1.692760 
# 
# From -- ./inp_files/11547.got.cif
#   From: 2010.05.17/outbox.cif.g08.bks.cpg/sg62_6_cif.got.tgz:11547.got - 2010.06.03 15:25:27.
