data_PCOD9465727
_publ_section_title
;
Structure prediction by ZEFSAII (Michael W. Deem and Ramdas Pophale) SiO2 
 PCOD9465727
Probable space group: P N M A
;
_chemical_formula_sum "Si O2"
_cell_formula_units_Z 40
_cell_length_a 7.858590
_cell_length_b 26.812468
_cell_length_c 8.646665
_cell_angle_alpha 90.000000
_cell_angle_beta 90.000000
_cell_angle_gamma 90.000000
_cell_volume 1821.923157
_symmetry_space_group_name_H-M "P N M A"
_symmetry_group_IT_number 62
_symmetry_cell_setting 'orthorhombic'
loop_
_space_group_symop_operation_xyz
x,y,z
1/2-x,-y,1/2+z
1/2+x,1/2-y,1/2-z
-x,1/2+y,-z
-x,-y,-z
1/2+x,y,1/2-z
1/2-x,1/2+y,1/2+z
x,1/2-y,z
loop_
_atom_site_type_symbol
_atom_site_label
_atom_site_fract_x
_atom_site_fract_y
_atom_site_fract_z
Si Si1 0.763928 0.452258 0.988110
Si Si2 0.323152 0.250000 0.334255
Si Si3 0.323158 0.345827 0.842658
Si Si4 0.809105 0.750000 0.991168
Si Si5 0.803908 0.845261 0.492485
Si Si6 0.642056 0.049636 0.655214
O O1 0.725504 0.399459 0.068877
O O2 0.639805 0.454738 0.840650
O O3 0.954105 0.449946 0.916122
O O4 0.760169 0.501279 0.091226
O O5 0.508652 0.250000 0.409822
O O6 0.324839 0.250000 0.149775
O O7 0.229865 0.299650 0.394787
O O8 0.321640 0.342316 0.656265
O O9 0.509507 0.343457 0.916629
O O10 0.235480 0.398507 0.882325
O O11 0.219667 0.298959 0.907320
#
# Coordination Sequence:
#
# PCOD9465727 Si02
#       6
#     8   4   8   4   8   8
#     4  10  21  37  58  85 116 151 193 238 285 339
#     4  12  25  42  61  86 118 150 190 238 291 344
#     4  11  22  39  62  87 116 153 195 237 285 341
#     4  12  25  42  61  86 118 150 190 238 291 344
#     4  11  22  39  62  87 116 153 195 237 285 341
#     4  10  21  37  58  85 116 151 193 238 285 339
#
# _framework density 21.954823999999999
#
# number of rings (size 3 to 8) (size 9 to 14) (size 15 to 20)
#    0.000    1.200    0.000    9.600    0.000    4.800 
#    0.000    4.000    0.000    0.000    0.000    0.000 
#    0.000    0.000    0.000    0.000    0.000    0.000 
#
# Total GULP energy -223937.648552 kJ/mol
# GULP energy per Si atom -5598.441214 kJ/mol
# Density = 2.190485 g / cm^3
# Si number density = 21.954824 Si / 1000 Ang^3
#
#
#
# Elastic Constant Matrix: (Units=GPa)
#
#
# Indices 1 2 3 4 5 6 
#
# 1 66.1230 11.9770 -13.5459 0.0000 0.0000 0.0000
# 2 11.9770 200.8191 58.5201 0.0000 0.0000 0.0000
# 3 -13.5459 58.5201 33.5527 0.0000 0.0000 0.0000
# 4 0.0000 0.0000 0.0000 37.1132 0.0000 0.0000
# 5 0.0000 0.0000 0.0000 0.0000 29.7978 0.0000
# 6 0.0000 0.0000 0.0000 0.0000 0.0000 25.7238
#
#
#
# Elastic Compliance Matrix: (Units=1/GPa)
#
#
# Indices 1 2 3 4 5 6 
#
# 1 0.020912 -0.007539 0.021592 0.000000 0.000000 0.000000
# 2 -0.007539 0.012844 -0.025446 0.000000 0.000000 0.000000
# 3 0.021592 -0.025446 0.082902 0.000000 0.000000 0.000000
# 4 0.000000 0.000000 0.000000 0.026945 0.000000 0.000000
# 5 0.000000 0.000000 0.000000 0.000000 0.033559 0.000000
# 6 0.000000 0.000000 0.000000 0.000000 0.000000 0.038874
#
#
# Mechanical properties :
#
#
# Convention : Reuss Voigt Hill
#
# Bulk Modulus (GPa) = 10.65270 46.04414 28.34842
# Shear Modulus (GPa) = 18.51064 34.76321 26.63692
#
# Velocity S-wave (km/s) = 2.90681 3.98351 3.48697
# Velocity P-wave (km/s) = 4.01605 6.49427 5.39927
#
# Compressibility (1/GPa) = 0.09387289
#
# Stress axis : x y z
#
# Youngs Moduli (GPa) = 47.81858 77.85469 12.06239
#
# Poissons Ratio (x) = 0.58698 -0.26046
# Poissons Ratio (y) = 0.36052 0.30694
# Poissons Ratio (z) = -1.03252 1.98110
#
# Static dielectric constant tensor:
#      x y z
#    x 1.840430 0.000000 0.000000 
#    y 0.000000 1.794510 0.000000 
#    z 0.000000 0.000000 1.757740 
# 
# From -- ./inp_files/4417.got.cif
#   From: 2010.05.17/outbox.cif.g08.bks.cpg/sg62_3_cif.got.tgz:4417.got - 2010.06.03 15:25:27.
