data_PCOD9465252
_publ_section_title
;
Structure prediction by ZEFSAII (Michael W. Deem and Ramdas Pophale) SiO2 
 PCOD9465252
Probable space group: P N M A
;
_chemical_formula_sum "Si O2"
_cell_formula_units_Z 60
_cell_length_a 19.088776
_cell_length_b 9.331343
_cell_length_c 17.556467
_cell_angle_alpha 90.000000
_cell_angle_beta 90.000000
_cell_angle_gamma 90.000000
_cell_volume 3127.226659
_symmetry_space_group_name_H-M "P N M A"
_symmetry_group_IT_number 62
_symmetry_cell_setting 'orthorhombic'
loop_
_space_group_symop_operation_xyz
x,y,z
1/2-x,-y,1/2+z
1/2+x,1/2-y,1/2-z
-x,1/2+y,-z
-x,-y,-z
1/2+x,y,1/2-z
1/2-x,1/2+y,1/2+z
x,1/2-y,z
loop_
_atom_site_type_symbol
_atom_site_label
_atom_site_fract_x
_atom_site_fract_y
_atom_site_fract_z
Si Si1 0.170554 0.919894 0.362420
Si Si2 0.536717 0.998326 0.900244
Si Si3 0.903458 0.079406 0.798577
Si Si4 0.458156 0.083755 0.275136
Si Si5 0.703475 0.917807 0.709502
Si Si6 0.824182 0.915828 0.482941
Si Si7 0.974563 0.250000 0.527287
Si Si8 0.723934 0.081139 0.373225
O O1 0.169105 0.750000 0.380385
O O2 0.123992 0.950333 0.287669
O O3 0.247813 0.974308 0.337058
O O4 0.155049 0.011173 0.437651
O O5 0.608898 0.073469 0.927408
O O6 0.541905 0.938146 0.815965
O O7 0.524414 0.872724 0.960205
O O8 0.480553 0.123865 0.908055
O O9 0.900532 0.250000 0.810336
O O10 0.848055 0.997895 0.852205
O O11 0.981109 0.016982 0.807452
O O12 0.474192 0.250000 0.291857
O O13 0.378696 0.053520 0.300835
O O14 0.717486 0.750000 0.689223
O O15 0.726231 0.932225 0.798257
O O16 0.805989 0.750000 0.493818
O O17 0.762786 0.005255 0.443114
O O18 0.714004 0.250000 0.387186
#
# Coordination Sequence:
#
# PCOD9465252 Si02
#       8
#     8   8   8   8   8   8   4   8
#     4  10  23  38  57  82 114 152 192 239 289 340
#     4  11  23  36  52  80 117 162 192 232 277 345
#     4  10  23  38  57  85 118 152 192 242 288 338
#     4  11  22  36  58  83 113 154 195 232 285 345
#     4   9  19  38  58  81 111 147 192 240 285 339
#     4  12  24  36  57  84 114 153 195 237 288 342
#     4  10  24  36  48  72 120 158 190 230 276 334
#     4  10  20  39  61  82 112 151 194 241 287 343
#
# _framework density 19.186328
#
# number of rings (size 3 to 8) (size 9 to 14) (size 15 to 20)
#    0.000    1.600    2.667    1.600    6.533    2.667 
#    0.000    0.000    0.000    0.800    0.000    0.000 
#    0.000    0.000    0.000    0.000    0.000    0.000 
#
# Total GULP energy -334246.726380 kJ/mol
# GULP energy per Si atom -5570.778773 kJ/mol
# Density = 1.914266 g / cm^3
# Si number density = 19.186328 Si / 1000 Ang^3
#
#
#
# Elastic Constant Matrix: (Units=GPa)
#
#
# Indices 1 2 3 4 5 6 
#
# 1 89.1476 43.8119 -0.9004 0.0000 0.0000 0.0000
# 2 43.8119 114.2182 11.0994 0.0000 0.0000 0.0000
# 3 -0.9004 11.0994 13.8152 0.0000 0.0000 0.0000
# 4 0.0000 0.0000 0.0000 16.2296 0.0000 0.0000
# 5 0.0000 0.0000 0.0000 0.0000 22.5827 0.0000
# 6 0.0000 0.0000 0.0000 0.0000 0.0000 -7.1092
#
#
#
# Elastic Compliance Matrix: (Units=1/GPa)
#
#
# Indices 1 2 3 4 5 6 
#
# 1 0.014234 -0.006020 0.005764 0.000000 0.000000 0.000000
# 2 -0.006020 0.012043 -0.010068 0.000000 0.000000 0.000000
# 3 0.005764 -0.010068 0.080849 0.000000 0.000000 0.000000
# 4 0.000000 0.000000 0.000000 0.061616 0.000000 0.000000
# 5 0.000000 0.000000 0.000000 0.000000 0.044282 0.000000
# 6 0.000000 0.000000 0.000000 0.000000 0.000000 -0.140663
#
#
# Mechanical properties :
#
#
# Convention : Reuss Voigt Hill
#
# Bulk Modulus (GPa) = 11.56357 36.13365 23.84861
# Shear Modulus (GPa) = 41.03967 17.21863 29.12915
#
# Velocity S-wave (km/s) = 4.62996 2.99898 3.90067
# Velocity P-wave (km/s) = 5.88405 5.55570 5.72223
#
# Compressibility (1/GPa) = 0.08647851
#
# Stress axis : x y z
#
# Youngs Moduli (GPa) = 70.25346 83.03759 12.36880
#
# Poissons Ratio (x) = 0.49990 -0.07130
# Poissons Ratio (y) = 0.42293 0.12453
# Poissons Ratio (z) = -0.40497 0.83601
#
# Static dielectric constant tensor:
#      x y z
#    x 1.741490 0.000000 0.000000 
#    y 0.000000 1.642160 0.000000 
#    z 0.000000 0.000000 1.642710 
# 
# From -- ./inp_files/24364.got.cif
#   From: 2010.05.17/outbox.cif.g08.bks.cpg/sg62_13_cif.got.tgz:24364.got - 2010.06.03 15:25:27.
