data_PCOD9465637
_publ_section_title
;
Structure prediction by ZEFSAII (Michael W. Deem and Ramdas Pophale) SiO2 
 PCOD9465637
Probable space group: P N M A
;
_chemical_formula_sum "Si O2"
_cell_formula_units_Z 40
_cell_length_a 20.716922
_cell_length_b 10.088024
_cell_length_c 9.216984
_cell_angle_alpha 90.000000
_cell_angle_beta 90.000000
_cell_angle_gamma 90.000000
_cell_volume 1926.283352
_symmetry_space_group_name_H-M "P N M A"
_symmetry_group_IT_number 62
_symmetry_cell_setting 'orthorhombic'
loop_
_space_group_symop_operation_xyz
x,y,z
1/2-x,-y,1/2+z
1/2+x,1/2-y,1/2-z
-x,1/2+y,-z
-x,-y,-z
1/2+x,y,1/2-z
1/2-x,1/2+y,1/2+z
x,1/2-y,z
loop_
_atom_site_type_symbol
_atom_site_label
_atom_site_fract_x
_atom_site_fract_y
_atom_site_fract_z
Si Si1 0.397978 0.468470 0.584466
Si Si2 0.598296 0.092142 0.866154
Si Si3 0.517437 0.892206 0.685018
Si Si4 0.645992 0.601230 0.107918
Si Si5 0.703166 0.405629 0.616780
O O1 0.438925 0.396091 0.459994
O O2 0.444469 0.588750 0.632466
O O3 0.383297 0.394163 0.731927
O O4 0.332380 0.513885 0.508730
O O5 0.587231 0.250000 0.884328
O O6 0.661845 0.073547 0.763866
O O7 0.540976 0.016307 0.781010
O O8 0.611328 0.010185 0.011945
O O9 0.526165 0.750000 0.759277
O O10 0.642064 0.750000 0.042775
O O11 0.721428 0.563815 0.125403
O O12 0.697206 0.250000 0.583577
#
# Coordination Sequence:
#
# PCOD9465637 Si02
#       5
#     8   8   8   8   8
#     4  10  21  36  60  89 118 150 192 239 287 340
#     4  10  22  39  58  84 119 154 192 241 294 344
#     4  10  21  39  62  85 113 153 199 242 286 341
#     4  11  22  37  59  87 119 152 190 236 288 347
#     4   9  19  37  59  85 117 153 191 234 285 343
#
# _framework density 20.765377000000001
#
# number of rings (size 3 to 8) (size 9 to 14) (size 15 to 20)
#    0.000    2.000    0.000    3.000    0.000    8.000 
#    0.000    5.000    0.000    0.000    0.000    0.000 
#    0.000    0.000    0.000    0.000    0.000    0.000 
#
# Total GULP energy -223295.154588 kJ/mol
# GULP energy per Si atom -5582.378865 kJ/mol
# Density = 2.071811 g / cm^3
# Si number density = 20.765377 Si / 1000 Ang^3
#
#
#
# Elastic Constant Matrix: (Units=GPa)
#
#
# Indices 1 2 3 4 5 6 
#
# 1 73.5511 27.7803 13.5018 0.0000 0.0000 0.0000
# 2 27.7803 114.2038 47.3400 0.0000 0.0000 0.0000
# 3 13.5018 47.3400 85.1232 0.0000 0.0000 0.0000
# 4 0.0000 0.0000 0.0000 -107.0806 0.0000 0.0000
# 5 0.0000 0.0000 0.0000 0.0000 4.2754 0.0000
# 6 0.0000 0.0000 0.0000 0.0000 0.0000 -6.4996
#
#
#
# Elastic Compliance Matrix: (Units=1/GPa)
#
#
# Indices 1 2 3 4 5 6 
#
# 1 0.014985 -0.003457 -0.000454 0.000000 0.000000 0.000000
# 2 -0.003457 0.012177 -0.006224 0.000000 0.000000 0.000000
# 3 -0.000454 -0.006224 0.015281 0.000000 0.000000 0.000000
# 4 0.000000 0.000000 0.000000 -0.009339 0.000000 0.000000
# 5 0.000000 0.000000 0.000000 0.000000 0.233894 0.000000
# 6 0.000000 0.000000 0.000000 0.000000 0.000000 -0.153856
#
#
# Mechanical properties :
#
#
# Convention : Reuss Voigt Hill
#
# Bulk Modulus (GPa) = 45.09960 50.01359 47.55659
# Shear Modulus (GPa) = 35.51062 -9.57722 12.96670
#
# Velocity S-wave (km/s) = 4.13981 -2.14991 2.50159
# Velocity P-wave (km/s) = 6.67956 4.23964 5.59424
#
# Compressibility (1/GPa) = 0.02217315
#
# Stress axis : x y z
#
# Youngs Moduli (GPa) = 66.73330 82.12175 65.44068
#
# Poissons Ratio (x) = 0.28388 0.02974
# Poissons Ratio (y) = 0.23068 0.40729
# Poissons Ratio (z) = 0.03032 0.51111
#
# Static dielectric constant tensor:
#      x y z
#    x 1.725880 0.000000 0.000000 
#    y 0.000000 1.801370 0.000000 
#    z 0.000000 0.000000 1.734100 
# 
# From -- ./inp_files/7284.got.cif
#   From: 2010.05.17/outbox.cif.g08.bks.cpg/sg62_4_cif.got.tgz:7284.got - 2010.06.03 15:25:27.
