data_PCOD9465268
_publ_section_title
;
Structure prediction by ZEFSAII (Michael W. Deem and Ramdas Pophale) SiO2 
 PCOD9465268
Probable space group: P N M A
;
_chemical_formula_sum "Si O2"
_cell_formula_units_Z 48
_cell_length_a 17.181947
_cell_length_b 15.950775
_cell_length_c 9.027406
_cell_angle_alpha 90.000000
_cell_angle_beta 90.000000
_cell_angle_gamma 90.000000
_cell_volume 2474.099371
_symmetry_space_group_name_H-M "P N M A"
_symmetry_group_IT_number 62
_symmetry_cell_setting 'orthorhombic'
loop_
_space_group_symop_operation_xyz
x,y,z
1/2-x,-y,1/2+z
1/2+x,1/2-y,1/2-z
-x,1/2+y,-z
-x,-y,-z
1/2+x,y,1/2-z
1/2-x,1/2+y,1/2+z
x,1/2-y,z
loop_
_atom_site_type_symbol
_atom_site_label
_atom_site_fract_x
_atom_site_fract_y
_atom_site_fract_z
Si Si1 0.373671 0.654887 0.324863
Si Si2 0.241014 0.845527 0.737821
Si Si3 0.985757 0.055016 0.723355
Si Si4 0.884869 0.049290 0.448811
Si Si5 0.230092 0.401410 0.555655
Si Si6 0.141456 0.464629 0.100114
O O1 0.368759 0.750000 0.384070
O O2 0.461520 0.632340 0.275773
O O3 0.314638 0.647112 0.185926
O O4 0.355728 0.578871 0.438664
O O5 0.241186 0.750000 0.690096
O O6 0.171621 0.892802 0.649941
O O7 0.322043 0.890648 0.698084
O O8 0.236842 0.851852 0.915504
O O9 0.925231 0.084327 0.596350
O O10 0.940080 0.002528 0.848015
O O11 0.046349 0.989468 0.650178
O O12 0.832409 0.970597 0.498501
O O13 0.300180 0.457553 0.615724
#
# Coordination Sequence:
#
# PCOD9465268 Si02
#       6
#     8   8   8   8   8   8
#     4  11  24  39  59  93 131 157 199 263 314 355
#     4  11  22  37  60  90 121 152 199 259 303 343
#     4  10  20  39  63  85 116 164 207 238 302 378
#     4   9  20  37  61  88 115 158 208 248 294 372
#     4  10  20  39  62  86 118 163 207 241 302 371
#     4  11  21  39  63  88 113 166 208 245 292 371
#
# _framework density 19.400998999999999
#
# number of rings (size 3 to 8) (size 9 to 14) (size 15 to 20)
#    0.000    1.667    1.667    4.500    2.333    0.667 
#    0.000    5.000    0.000    0.000    0.000    0.000 
#    0.000    0.000    0.000    0.000    0.000    0.000 
#
# Total GULP energy -267586.351928 kJ/mol
# GULP energy per Si atom -5574.715665 kJ/mol
# Density = 1.935684 g / cm^3
# Si number density = 19.400999 Si / 1000 Ang^3
#
#
#
# Elastic Constant Matrix: (Units=GPa)
#
#
# Indices 1 2 3 4 5 6 
#
# 1 87.4856 36.0420 32.0015 0.0000 0.0000 0.0000
# 2 36.0420 87.9523 32.2514 0.0000 0.0000 0.0000
# 3 32.0015 32.2514 81.6358 0.0000 0.0000 0.0000
# 4 0.0000 0.0000 0.0000 16.9710 0.0000 0.0000
# 5 0.0000 0.0000 0.0000 0.0000 30.2818 0.0000
# 6 0.0000 0.0000 0.0000 0.0000 0.0000 11.3390
#
#
#
# Elastic Compliance Matrix: (Units=1/GPa)
#
#
# Indices 1 2 3 4 5 6 
#
# 1 0.014780 -0.004598 -0.003977 0.000000 0.000000 0.000000
# 2 -0.004598 0.014727 -0.004015 0.000000 0.000000 0.000000
# 3 -0.003977 -0.004015 0.015395 0.000000 0.000000 0.000000
# 4 0.000000 0.000000 0.000000 0.058924 0.000000 0.000000
# 5 0.000000 0.000000 0.000000 0.000000 0.033023 0.000000
# 6 0.000000 0.000000 0.000000 0.000000 0.000000 0.088191
#
#
# Mechanical properties :
#
#
# Convention : Reuss Voigt Hill
#
# Bulk Modulus (GPa) = 50.71080 50.85150 50.78115
# Shear Modulus (GPa) = 19.47088 22.17029 20.82059
#
# Velocity S-wave (km/s) = 3.17140 3.38411 3.27948
# Velocity P-wave (km/s) = 6.29328 6.44494 6.36956
#
# Compressibility (1/GPa) = 0.01971967
#
# Stress axis : x y z
#
# Youngs Moduli (GPa) = 67.66093 67.90475 64.95654
#
# Poissons Ratio (x) = 0.31224 0.25834
# Poissons Ratio (y) = 0.31112 0.26083
# Poissons Ratio (z) = 0.26909 0.27267
#
# Static dielectric constant tensor:
#      x y z
#    x 1.723240 0.000000 0.000000 
#    y 0.000000 1.660230 0.000000 
#    z 0.000000 0.000000 1.762150 
# 
# From -- ./inp_files/7668.got.cif
#   From: 2010.05.17/outbox.cif.g08.bks.cpg/sg62_4_cif.got.tgz:7668.got - 2010.06.03 15:25:27.
