data_PCOD9465227
_publ_section_title
;
Structure prediction by ZEFSAII (Michael W. Deem and Ramdas Pophale) SiO2 
 PCOD9465227
Probable space group: P N M A
;
_chemical_formula_sum "Si O2"
_cell_formula_units_Z 40
_cell_length_a 9.499194
_cell_length_b 19.277573
_cell_length_c 8.277025
_cell_angle_alpha 90.000000
_cell_angle_beta 90.000000
_cell_angle_gamma 90.000000
_cell_volume 1515.700454
_symmetry_space_group_name_H-M "P N M A"
_symmetry_group_IT_number 62
_symmetry_cell_setting 'orthorhombic'
loop_
_space_group_symop_operation_xyz
x,y,z
1/2-x,-y,1/2+z
1/2+x,1/2-y,1/2-z
-x,1/2+y,-z
-x,-y,-z
1/2+x,y,1/2-z
1/2-x,1/2+y,1/2+z
x,1/2-y,z
loop_
_atom_site_type_symbol
_atom_site_label
_atom_site_fract_x
_atom_site_fract_y
_atom_site_fract_z
Si Si1 0.767045 0.036003 0.184946
Si Si2 0.632992 0.584918 0.358369
Si Si3 0.877732 0.674541 0.766818
Si Si4 0.881670 0.133730 0.404185
Si Si5 0.910889 0.831019 0.300978
O O1 0.667748 0.103823 0.178222
O O2 0.858498 0.054454 0.345833
O O3 0.676821 0.968496 0.217245
O O4 0.856476 0.041334 0.023405
O O5 0.482802 0.619621 0.332666
O O6 0.755478 0.642877 0.346365
O O7 0.847407 0.750000 0.693806
O O8 0.773459 0.667289 0.919149
O O9 0.045641 0.667435 0.757966
O O10 0.979771 0.155171 0.550452
O O11 0.912447 0.750000 0.261176
#
# Coordination Sequence:
#
# PCOD9465227 Si02
#       5
#     8   8   8   8   8
#     4  10  26  43  71 104 135 184 231 280 353 402
#     4  12  27  47  73  98 148 180 234 292 341 422
#     4  10  20  38  67 100 133 175 227 281 334 411
#     4  10  22  41  71  97 135 171 230 276 350 410
#     4  12  26  47  71 102 137 186 230 287 352 411
#
# _framework density 26.390436000000001
#
# number of rings (size 3 to 8) (size 9 to 14) (size 15 to 20)
#    1.200    0.000    2.000    3.600    2.800    4.800 
#    0.000    2.000    0.000    0.000    0.000    0.000 
#    0.000    0.000    0.000    0.000    0.000    0.000 
#
# Total GULP energy -223279.013888 kJ/mol
# GULP energy per Si atom -5581.975347 kJ/mol
# Density = 2.633037 g / cm^3
# Si number density = 26.390436 Si / 1000 Ang^3
#
#
#
# Elastic Constant Matrix: (Units=GPa)
#
#
# Indices 1 2 3 4 5 6 
#
# 1 105.9664 30.5229 13.7604 0.0000 0.0000 0.0000
# 2 30.5229 102.3765 13.8628 0.0000 0.0000 0.0000
# 3 13.7604 13.8628 78.8861 0.0000 0.0000 0.0000
# 4 0.0000 0.0000 0.0000 25.1280 0.0000 0.0000
# 5 0.0000 0.0000 0.0000 0.0000 41.1466 0.0000
# 6 0.0000 0.0000 0.0000 0.0000 0.0000 40.8303
#
#
#
# Elastic Compliance Matrix: (Units=1/GPa)
#
#
# Indices 1 2 3 4 5 6 
#
# 1 0.010453 -0.002940 -0.001307 0.000000 0.000000 0.000000
# 2 -0.002940 0.010833 -0.001391 0.000000 0.000000 0.000000
# 3 -0.001307 -0.001391 0.013149 0.000000 0.000000 0.000000
# 4 0.000000 0.000000 0.000000 0.039796 0.000000 0.000000
# 5 0.000000 0.000000 0.000000 0.000000 0.024303 0.000000
# 6 0.000000 0.000000 0.000000 0.000000 0.000000 0.024492
#
#
# Mechanical properties :
#
#
# Convention : Reuss Voigt Hill
#
# Bulk Modulus (GPa) = 43.17751 44.83570 44.00660
# Shear Modulus (GPa) = 35.20608 36.69316 35.94962
#
# Velocity S-wave (km/s) = 3.65642 3.73285 3.69483
# Velocity P-wave (km/s) = 5.85000 5.96700 5.90879
#
# Compressibility (1/GPa) = 0.02316021
#
# Stress axis : x y z
#
# Youngs Moduli (GPa) = 95.66258 92.31353 76.05209
#
# Poissons Ratio (x) = 0.27137 0.09939
# Poissons Ratio (y) = 0.28122 0.10578
# Poissons Ratio (z) = 0.12502 0.12840
#
# Static dielectric constant tensor:
#      x y z
#    x 2.121510 0.000000 0.000000 
#    y 0.000000 1.989330 0.000000 
#    z 0.000000 0.000000 2.234200 
# 
# From -- ./inp_files/5025.got.cif
#   From: 2010.05.17/outbox.cif.g08.bks.cpg/sg62_3_cif.got.tgz:5025.got - 2010.06.03 15:25:27.
