data_PCOD9465365
_publ_section_title
;
Structure prediction by ZEFSAII (Michael W. Deem and Ramdas Pophale) SiO2 
 PCOD9465365
Probable space group: P N M A
;
_chemical_formula_sum "Si O2"
_cell_formula_units_Z 64
_cell_length_a 12.799229
_cell_length_b 15.008857
_cell_length_c 17.270894
_cell_angle_alpha 90.000000
_cell_angle_beta 90.000000
_cell_angle_gamma 90.000000
_cell_volume 3317.769787
_symmetry_space_group_name_H-M "P N M A"
_symmetry_group_IT_number 62
_symmetry_cell_setting 'orthorhombic'
loop_
_space_group_symop_operation_xyz
x,y,z
1/2-x,-y,1/2+z
1/2+x,1/2-y,1/2-z
-x,1/2+y,-z
-x,-y,-z
1/2+x,y,1/2-z
1/2-x,1/2+y,1/2+z
x,1/2-y,z
loop_
_atom_site_type_symbol
_atom_site_label
_atom_site_fract_x
_atom_site_fract_y
_atom_site_fract_z
Si Si1 0.181137 0.350935 0.903694
Si Si2 0.522907 0.058429 0.075625
Si Si3 0.315261 0.350358 0.138617
Si Si4 0.850082 0.057144 0.694159
Si Si5 0.332586 0.088183 0.305972
Si Si6 0.492530 0.448939 0.662631
Si Si7 0.764163 0.851146 0.535481
Si Si8 0.326743 0.515808 0.549555
O O1 0.178974 0.250000 0.931984
O O2 0.286102 0.368431 0.853656
O O3 0.078183 0.373061 0.853449
O O4 0.175150 0.423695 0.972337
O O5 0.421359 0.112157 0.101347
O O6 0.617910 0.126352 0.060811
O O7 0.563042 0.989077 0.140193
O O8 0.500000 0.000000 0.000000
O O9 0.292241 0.250000 0.112113
O O10 0.328855 0.350792 0.230991
O O11 0.227803 0.421118 0.112895
O O12 0.906345 0.079913 0.774468
O O13 0.760128 0.983356 0.706084
O O14 0.308219 0.133395 0.388442
O O15 0.440416 0.033725 0.308339
O O16 0.435125 0.481602 0.584749
O O17 0.753377 0.750000 0.508357
O O18 0.735118 0.926219 0.472980
#
# Coordination Sequence:
#
# PCOD9465365 Si02
#       8
#     8   8   8   8   8   8   8   8
#     4  11  24  43  64  92 128 166 210 260 313 373
#     4  11  20  38  64  89 122 166 203 254 318 363
#     4  12  23  37  64  97 125 162 210 255 310 379
#     4  10  20  40  66  86 123 168 202 258 315 370
#     4  10  21  41  62  91 125 159 204 260 318 369
#     4  11  22  40  68  89 122 172 209 252 318 376
#     4  11  23  41  63  91 125 165 209 257 314 375
#     4  12  23  41  64  91 131 169 204 259 318 373
#
# _framework density 19.290067000000001
#
# number of rings (size 3 to 8) (size 9 to 14) (size 15 to 20)
#    0.000    1.000    7.500    1.500    0.000    1.000 
#    0.000    3.750    0.000    0.000    0.000    0.000 
#    0.000    0.000    0.000    0.000    0.000    0.000 
#
# Total GULP energy -357275.167724 kJ/mol
# GULP energy per Si atom -5582.424496 kJ/mol
# Density = 1.924616 g / cm^3
# Si number density = 19.290067 Si / 1000 Ang^3
#
#
#
# Elastic Constant Matrix: (Units=GPa)
#
#
# Indices 1 2 3 4 5 6 
#
# 1 37.4667 2.6069 -6.6264 0.0000 0.0000 0.0000
# 2 2.6069 107.5014 6.5546 0.0000 0.0000 0.0000
# 3 -6.6264 6.5546 47.8189 0.0000 0.0000 0.0000
# 4 0.0000 0.0000 0.0000 10.3940 0.0000 0.0000
# 5 0.0000 0.0000 0.0000 0.0000 38.2484 0.0000
# 6 0.0000 0.0000 0.0000 0.0000 0.0000 9.2276
#
#
#
# Elastic Compliance Matrix: (Units=1/GPa)
#
#
# Indices 1 2 3 4 5 6 
#
# 1 0.027448 -0.000905 0.003928 0.000000 0.000000 0.000000
# 2 -0.000905 0.009410 -0.001415 0.000000 0.000000 0.000000
# 3 0.003928 -0.001415 0.021650 0.000000 0.000000 0.000000
# 4 0.000000 0.000000 0.000000 0.096209 0.000000 0.000000
# 5 0.000000 0.000000 0.000000 0.000000 0.026145 0.000000
# 6 0.000000 0.000000 0.000000 0.000000 0.000000 0.108370
#
#
# Mechanical properties :
#
#
# Convention : Reuss Voigt Hill
#
# Bulk Modulus (GPa) = 16.20133 21.98413 19.09273
# Shear Modulus (GPa) = 16.30823 24.25746 20.28285
#
# Velocity S-wave (km/s) = 2.91077 3.54999 3.24615
# Velocity P-wave (km/s) = 4.44002 5.31268 4.89583
#
# Compressibility (1/GPa) = 0.06172331
#
# Stress axis : x y z
#
# Youngs Moduli (GPa) = 36.43252 106.26486 46.18832
#
# Poissons Ratio (x) = 0.09618 -0.18141
# Poissons Ratio (y) = 0.03297 0.06537
# Poissons Ratio (z) = -0.14309 0.15040
#
# Static dielectric constant tensor:
#      x y z
#    x 1.670870 0.000000 0.000000 
#    y 0.000000 1.646680 0.000000 
#    z 0.000000 0.000000 1.709080 
# 
# From -- ./inp_files/23235.got.cif
#   From: 2010.05.17/outbox.cif.g08.bks.cpg/sg62_12_cif.got.tgz:23235.got - 2010.06.03 15:25:27.
