data_PCOD9465673
_publ_section_title
;
Structure prediction by ZEFSAII (Michael W. Deem and Ramdas Pophale) SiO2 
 PCOD9465673
Probable space group: P N M A
;
_chemical_formula_sum "Si O2"
_cell_formula_units_Z 40
_cell_length_a 13.680032
_cell_length_b 8.920139
_cell_length_c 18.914460
_cell_angle_alpha 90.000000
_cell_angle_beta 90.000000
_cell_angle_gamma 90.000000
_cell_volume 2308.089695
_symmetry_space_group_name_H-M "P N M A"
_symmetry_group_IT_number 62
_symmetry_cell_setting 'orthorhombic'
loop_
_space_group_symop_operation_xyz
x,y,z
1/2-x,-y,1/2+z
1/2+x,1/2-y,1/2-z
-x,1/2+y,-z
-x,-y,-z
1/2+x,y,1/2-z
1/2-x,1/2+y,1/2+z
x,1/2-y,z
loop_
_atom_site_type_symbol
_atom_site_label
_atom_site_fract_x
_atom_site_fract_y
_atom_site_fract_z
Si Si1 0.305182 0.071119 0.355663
Si Si2 0.606083 0.072014 0.784623
Si Si3 0.711599 0.429469 0.356320
Si Si4 0.892438 0.929787 0.003940
Si Si5 0.401586 0.572183 0.786363
O O1 0.320905 0.250000 0.358087
O O2 0.191462 0.044096 0.336636
O O3 0.366572 0.003691 0.290471
O O4 0.337719 0.996186 0.428209
O O5 0.611384 0.250000 0.778287
O O6 0.687905 0.013093 0.838973
O O7 0.497850 0.019088 0.804752
O O8 0.728896 0.250000 0.352154
O O9 0.665515 0.465700 0.431798
O O10 0.636212 0.465650 0.292782
O O11 0.899548 0.750000 0.009371
O O12 0.000000 0.000000 0.000000
O O13 0.423429 0.750000 0.787989
#
# Coordination Sequence:
#
# PCOD9465673 Si02
#       5
#     8   8   8   8   8
#     4  10  21  37  56  78 108 144 180 219 265 317
#     4  11  21  33  55  83 108 137 177 225 268 313
#     4   9  20  37  55  77 107 143 178 214 262 318
#     4  11  22  36  57  83 111 142 176 218 267 318
#     4   9  18  35  57  77 103 142 181 218 265 318
#
# _framework density 17.330348999999998
#
# number of rings (size 3 to 8) (size 9 to 14) (size 15 to 20)
#    0.000    2.000    0.000    5.400    0.000    7.200 
#    0.000    1.000    0.000    0.000    0.000    0.000 
#    0.000    0.000    0.000    0.000    0.000    0.000 
#
# Total GULP energy -223417.741786 kJ/mol
# GULP energy per Si atom -5585.443545 kJ/mol
# Density = 1.729090 g / cm^3
# Si number density = 17.330349 Si / 1000 Ang^3
#
#
#
# Elastic Constant Matrix: (Units=GPa)
#
#
# Indices 1 2 3 4 5 6 
#
# 1 122.3688 78.1779 75.7618 0.0000 0.0000 0.0000
# 2 78.1779 86.0865 70.1625 0.0000 0.0000 0.0000
# 3 75.7618 70.1625 141.0638 0.0000 0.0000 0.0000
# 4 0.0000 0.0000 0.0000 31.0460 0.0000 0.0000
# 5 0.0000 0.0000 0.0000 0.0000 9.6651 0.0000
# 6 0.0000 0.0000 0.0000 0.0000 0.0000 27.5449
#
#
#
# Elastic Compliance Matrix: (Units=1/GPa)
#
#
# Indices 1 2 3 4 5 6 
#
# 1 0.020144 -0.015936 -0.002893 0.000000 0.000000 0.000000
# 2 -0.015936 0.032142 -0.007428 0.000000 0.000000 0.000000
# 3 -0.002893 -0.007428 0.012337 0.000000 0.000000 0.000000
# 4 0.000000 0.000000 0.000000 0.032210 0.000000 0.000000
# 5 0.000000 0.000000 0.000000 0.000000 0.103465 0.000000
# 6 0.000000 0.000000 0.000000 0.000000 0.000000 0.036304
#
#
# Mechanical properties :
#
#
# Convention : Reuss Voigt Hill
#
# Bulk Modulus (GPa) = 82.57602 88.63596 85.60599
# Shear Modulus (GPa) = 17.05597 22.01232 19.53415
#
# Velocity S-wave (km/s) = 3.14055 3.56780 3.36097
# Velocity P-wave (km/s) = 7.80400 8.26004 8.03525
#
# Compressibility (1/GPa) = 0.01211005
#
# Stress axis : x y z
#
# Youngs Moduli (GPa) = 49.64321 31.11185 81.05565
#
# Poissons Ratio (x) = 0.49579 0.23446
# Poissons Ratio (y) = 0.79110 0.60210
# Poissons Ratio (z) = 0.14360 0.23111
#
# Static dielectric constant tensor:
#      x y z
#    x 1.571810 0.000000 0.000000 
#    y 0.000000 1.574940 0.000000 
#    z 0.000000 0.000000 1.566110 
# 
# From -- ./inp_files/22758.got.cif
#   From: 2010.05.17/outbox.cif.g08.bks.cpg/sg62_12_cif.got.tgz:22758.got - 2010.06.03 15:25:27.
