data_PCOD9465356
_publ_section_title
;
Structure prediction by ZEFSAII (Michael W. Deem and Ramdas Pophale) SiO2 
 PCOD9465356
Probable space group: P N M A
;
_chemical_formula_sum "Si O2"
_cell_formula_units_Z 48
_cell_length_a 17.042776
_cell_length_b 11.769840
_cell_length_c 11.266243
_cell_angle_alpha 90.000000
_cell_angle_beta 90.000000
_cell_angle_gamma 90.000000
_cell_volume 2259.904096
_symmetry_space_group_name_H-M "P N M A"
_symmetry_group_IT_number 62
_symmetry_cell_setting 'orthorhombic'
loop_
_space_group_symop_operation_xyz
x,y,z
1/2-x,-y,1/2+z
1/2+x,1/2-y,1/2-z
-x,1/2+y,-z
-x,-y,-z
1/2+x,y,1/2-z
1/2-x,1/2+y,1/2+z
x,1/2-y,z
loop_
_atom_site_type_symbol
_atom_site_label
_atom_site_fract_x
_atom_site_fract_y
_atom_site_fract_z
Si Si1 0.636134 0.250000 0.709537
Si Si2 0.732009 0.929306 0.262857
Si Si3 0.008020 0.124037 0.248234
Si Si4 0.529399 0.250000 0.475786
Si Si5 0.874680 0.250000 0.872354
Si Si6 0.986270 0.250000 0.637297
Si Si7 0.899980 0.459808 0.575884
Si Si8 0.340945 0.113202 0.165651
O O1 0.691409 0.142066 0.728377
O O2 0.589475 0.250000 0.584756
O O3 0.572319 0.250000 0.813128
O O4 0.682201 0.860125 0.362693
O O5 0.676342 0.924518 0.149308
O O6 0.760286 0.056602 0.291016
O O7 0.014345 0.250000 0.300840
O O8 0.038286 0.141964 0.113432
O O9 0.915080 0.099167 0.245987
O O10 0.057419 0.045936 0.334984
O O11 0.439833 0.250000 0.525003
O O12 0.928948 0.250000 0.753197
O O13 0.963790 0.360111 0.564556
O O14 0.867558 0.468083 0.443632
O O15 0.333265 0.250000 0.139050
#
# Coordination Sequence:
#
# PCOD9465356 Si02
#       8
#     4   8   8   4   4   4   8   8
#     4  10  20  40  63  93 128 164 215 255 331 382
#     4  10  23  38  61  98 130 166 212 260 314 405
#     4   9  22  40  62  95 122 156 225 272 307 374
#     4   9  20  41  70  96 124 173 210 281 324 364
#     4   8  18  40  59  89 130 162 213 259 323 370
#     4   9  18  35  64  84 114 171 216 261 292 382
#     4  11  21  41  63  90 125 168 213 259 324 377
#     4  11  23  42  63  92 131 171 212 262 324 378
#
# _framework density 21.239840000000001
#
# number of rings (size 3 to 8) (size 9 to 14) (size 15 to 20)
#    0.500    1.667    0.833    2.000    0.000    3.333 
#    3.000   11.667    0.000    0.000    0.000    0.000 
#    0.000    0.000    0.000    0.000    0.000    0.000 
#
# Total GULP energy -267368.522928 kJ/mol
# GULP energy per Si atom -5570.177561 kJ/mol
# Density = 2.119150 g / cm^3
# Si number density = 21.239840 Si / 1000 Ang^3
#
#
#
# Elastic Constant Matrix: (Units=GPa)
#
#
# Indices 1 2 3 4 5 6 
#
# 1 113.9523 31.1246 21.2807 0.0000 0.0000 0.0000
# 2 31.1246 53.9198 6.6689 0.0000 0.0000 0.0000
# 3 21.2807 6.6689 71.1849 0.0000 0.0000 0.0000
# 4 0.0000 0.0000 0.0000 17.5346 0.0000 0.0000
# 5 0.0000 0.0000 0.0000 0.0000 23.9135 0.0000
# 6 0.0000 0.0000 0.0000 0.0000 0.0000 68.2414
#
#
#
# Elastic Compliance Matrix: (Units=1/GPa)
#
#
# Indices 1 2 3 4 5 6 
#
# 1 0.010909 -0.005963 -0.002703 0.000000 0.000000 0.000000
# 2 -0.005963 0.022023 -0.000281 0.000000 0.000000 0.000000
# 3 -0.002703 -0.000281 0.014882 0.000000 0.000000 0.000000
# 4 0.000000 0.000000 0.000000 0.057030 0.000000 0.000000
# 5 0.000000 0.000000 0.000000 0.000000 0.041817 0.000000
# 6 0.000000 0.000000 0.000000 0.000000 0.000000 0.014654
#
#
# Mechanical properties :
#
#
# Convention : Reuss Voigt Hill
#
# Bulk Modulus (GPa) = 33.42041 39.68946 36.55494
# Shear Modulus (GPa) = 26.42970 33.93677 30.18324
#
# Velocity S-wave (km/s) = 3.53136 4.00157 3.77379
# Velocity P-wave (km/s) = 5.69177 6.33064 6.01969
#
# Compressibility (1/GPa) = 0.02992183
#
# Stress axis : x y z
#
# Youngs Moduli (GPa) = 91.66753 45.40761 67.19453
#
# Poissons Ratio (x) = 0.27076 0.18160
# Poissons Ratio (y) = 0.54660 0.01885
# Poissons Ratio (z) = 0.24774 0.01274
#
# Static dielectric constant tensor:
#      x y z
#    x 1.775260 0.000000 0.000000 
#    y 0.000000 1.806460 0.000000 
#    z 0.000000 0.000000 1.816670 
# 
# From -- ./inp_files/14178.got.cif
#   From: 2010.05.17/outbox.cif.g08.bks.cpg/sg62_8_cif.got.tgz:14178.got - 2010.06.03 15:25:27.
