data_PCOD9465754
_publ_section_title
;
Structure prediction by ZEFSAII (Michael W. Deem and Ramdas Pophale) SiO2 
 PCOD9465754
Probable space group: P N M A
;
_chemical_formula_sum "Si O2"
_cell_formula_units_Z 48
_cell_length_a 29.257016
_cell_length_b 8.973471
_cell_length_c 8.387695
_cell_angle_alpha 90.000000
_cell_angle_beta 90.000000
_cell_angle_gamma 90.000000
_cell_volume 2202.080153
_symmetry_space_group_name_H-M "P N M A"
_symmetry_group_IT_number 62
_symmetry_cell_setting 'orthorhombic'
loop_
_space_group_symop_operation_xyz
x,y,z
1/2-x,-y,1/2+z
1/2+x,1/2-y,1/2-z
-x,1/2+y,-z
-x,-y,-z
1/2+x,y,1/2-z
1/2-x,1/2+y,1/2+z
x,1/2-y,z
loop_
_atom_site_type_symbol
_atom_site_label
_atom_site_fract_x
_atom_site_fract_y
_atom_site_fract_z
Si Si1 0.853608 0.574479 0.250809
Si Si2 0.433017 0.078531 0.091393
Si Si3 0.813925 0.929049 0.736782
Si Si4 0.903152 0.571601 0.916395
Si Si5 0.225323 0.927040 0.581777
Si Si6 0.983693 0.422226 0.750101
O O1 0.844108 0.750000 0.258349
O O2 0.888913 0.524313 0.387926
O O3 0.807146 0.485242 0.276419
O O4 0.879982 0.542592 0.086737
O O5 0.421029 0.250000 0.125758
O O6 0.471570 0.018470 0.212727
O O7 0.454948 0.071739 0.915790
O O8 0.814445 0.750000 0.719856
O O9 0.864557 0.975876 0.788322
O O10 0.777492 0.965359 0.876047
O O11 0.794351 0.999372 0.576928
O O12 0.910326 0.750000 0.902427
O O13 0.950335 0.488582 0.882983
O O14 0.221935 0.750000 0.568034
O O15 0.996078 0.250000 0.781216
#
# Coordination Sequence:
#
# PCOD9465754 Si02
#       6
#     8   8   8   8   8   8
#     4  11  23  39  59  84 117 155 193 235 286 341
#     4  10  21  38  60  86 115 149 192 238 285 342
#     4  10  22  40  61  85 116 153 191 234 284 337
#     4  10  22  39  58  82 114 153 194 235 282 339
#     4  11  23  39  61  89 118 150 192 238 285 339
#     4  10  21  37  59  86 114 148 190 237 290 343
#
# _framework density 21.797571999999999
#
# number of rings (size 3 to 8) (size 9 to 14) (size 15 to 20)
#    0.000    1.667    0.000    4.000    0.000   10.000 
#    0.000    0.000    0.000    0.000    0.000    0.000 
#    0.000    0.000    0.000    0.000    0.000    0.000 
#
# Total GULP energy -268608.708463 kJ/mol
# GULP energy per Si atom -5596.014760 kJ/mol
# Density = 2.174796 g / cm^3
# Si number density = 21.797572 Si / 1000 Ang^3
#
#
#
# Elastic Constant Matrix: (Units=GPa)
#
#
# Indices 1 2 3 4 5 6 
#
# 1 67.7747 0.8080 -1.5543 0.0000 0.0000 0.0000
# 2 0.8080 12.6560 11.5293 0.0000 0.0000 0.0000
# 3 -1.5543 11.5293 57.9637 0.0000 0.0000 0.0000
# 4 0.0000 0.0000 0.0000 27.7964 0.0000 0.0000
# 5 0.0000 0.0000 0.0000 0.0000 34.3903 0.0000
# 6 0.0000 0.0000 0.0000 0.0000 0.0000 28.6612
#
#
#
# Elastic Compliance Matrix: (Units=1/GPa)
#
#
# Indices 1 2 3 4 5 6 
#
# 1 0.014790 -0.001594 0.000714 0.000000 0.000000 0.000000
# 2 -0.001594 0.096672 -0.019271 0.000000 0.000000 0.000000
# 3 0.000714 -0.019271 0.021104 0.000000 0.000000 0.000000
# 4 0.000000 0.000000 0.000000 0.035976 0.000000 0.000000
# 5 0.000000 0.000000 0.000000 0.000000 0.029078 0.000000
# 6 0.000000 0.000000 0.000000 0.000000 0.000000 0.034890
#
#
# Mechanical properties :
#
#
# Convention : Reuss Voigt Hill
#
# Bulk Modulus (GPa) = 10.83866 17.77337 14.30602
# Shear Modulus (GPa) = 16.47074 26.67699 21.57387
#
# Velocity S-wave (km/s) = 2.75184 3.50215 3.14942
# Velocity P-wave (km/s) = 3.88330 4.95227 4.45000
#
# Compressibility (1/GPa) = 0.09226232
#
# Stress axis : x y z
#
# Youngs Moduli (GPa) = 67.61262 10.34430 47.38332
#
# Poissons Ratio (x) = 0.01649 -0.03382
# Poissons Ratio (y) = 0.10780 0.91314
# Poissons Ratio (z) = -0.04826 0.19935
#
# Static dielectric constant tensor:
#      x y z
#    x 1.790800 0.000000 0.000000 
#    y 0.000000 1.726430 0.000000 
#    z 0.000000 0.000000 1.836490 
# 
# From -- ./inp_files/10172.got.cif
#   From: 2010.05.17/outbox.cif.g08.bks.cpg/sg62_6_cif.got.tgz:10172.got - 2010.06.03 15:25:27.
