data_PCOD9465121
_publ_section_title
;
Structure prediction by ZEFSAII (Michael W. Deem and Ramdas Pophale) SiO2 
 PCOD9465121
Probable space group: P N M A
;
_chemical_formula_sum "Si O2"
_cell_formula_units_Z 64
_cell_length_a 24.018314
_cell_length_b 7.652864
_cell_length_c 15.805875
_cell_angle_alpha 90.000000
_cell_angle_beta 90.000000
_cell_angle_gamma 90.000000
_cell_volume 2905.260348
_symmetry_space_group_name_H-M "P N M A"
_symmetry_group_IT_number 62
_symmetry_cell_setting 'orthorhombic'
loop_
_space_group_symop_operation_xyz
x,y,z
1/2-x,-y,1/2+z
1/2+x,1/2-y,1/2-z
-x,1/2+y,-z
-x,-y,-z
1/2+x,y,1/2-z
1/2-x,1/2+y,1/2+z
x,1/2-y,z
loop_
_atom_site_type_symbol
_atom_site_label
_atom_site_fract_x
_atom_site_fract_y
_atom_site_fract_z
Si Si1 0.867880 0.451691 0.657401
Si Si2 0.509946 0.041078 0.098800
Si Si3 0.688629 0.964950 0.989008
Si Si4 0.686569 0.048852 0.479761
Si Si5 0.604201 0.545123 0.334266
Si Si6 0.108793 0.963761 0.664137
Si Si7 0.511192 0.459735 0.598035
Si Si8 0.366277 0.049337 0.347465
O O1 0.849336 0.250000 0.663423
O O2 0.932580 0.458549 0.629701
O O3 0.832727 0.528602 0.580193
O O4 0.866072 0.530864 0.751280
O O5 0.514948 0.250000 0.108174
O O6 0.455152 0.981167 0.149941
O O7 0.500000 0.000000 0.000000
O O8 0.688467 0.750000 0.990260
O O9 0.751332 0.023743 0.971229
O O10 0.645696 0.017067 0.915942
O O11 0.688219 0.250000 0.453592
O O12 0.641012 0.965633 0.418396
O O13 0.667396 0.039168 0.577071
O O14 0.595585 0.750000 0.316224
O O15 0.542656 0.472721 0.351282
O O16 0.108072 0.750000 0.666492
O O17 0.135041 0.024284 0.752557
O O18 0.500000 0.500000 0.500000
O O19 0.516114 0.250000 0.607399
O O20 0.568775 0.541882 0.627132
O O21 0.347480 0.250000 0.345283
#
# Coordination Sequence:
#
# PCOD9465121 Si02
#       8
#     8   8   8   8   8   8   8   8
#     4  10  20  38  62  85 116 152 187 234 288 344
#     4  11  20  34  59  89 119 151 188 231 283 344
#     4   9  19  38  60  82 111 151 194 231 281 340
#     4  11  23  38  59  82 110 152 196 238 282 337
#     4  10  22  38  59  86 115 150 187 234 291 339
#     4   9  19  36  59  84 113 152 189 227 281 341
#     4  11  21  35  57  85 117 150 186 229 284 347
#     4  11  22  37  59  85 115 149 188 237 286 336
#
# _framework density 22.029005999999999
#
# number of rings (size 3 to 8) (size 9 to 14) (size 15 to 20)
#    0.000    1.750    2.500    2.250    0.000    2.000 
#    0.000    3.125    0.000    0.000    0.000    0.000 
#    0.000    0.000    0.000    0.000    0.000    0.000 
#
# Total GULP energy -357664.772491 kJ/mol
# GULP energy per Si atom -5588.512070 kJ/mol
# Density = 2.197887 g / cm^3
# Si number density = 22.029006 Si / 1000 Ang^3
#
#
#
# Elastic Constant Matrix: (Units=GPa)
#
#
# Indices 1 2 3 4 5 6 
#
# 1 65.9948 -12.4222 -15.0994 0.0000 0.0000 0.0000
# 2 -12.4222 48.0287 -9.9189 0.0000 0.0000 0.0000
# 3 -15.0994 -9.9189 87.2682 0.0000 0.0000 0.0000
# 4 0.0000 0.0000 0.0000 4.1015 0.0000 0.0000
# 5 0.0000 0.0000 0.0000 0.0000 9.8202 0.0000
# 6 0.0000 0.0000 0.0000 0.0000 0.0000 15.4641
#
#
#
# Elastic Compliance Matrix: (Units=1/GPa)
#
#
# Indices 1 2 3 4 5 6 
#
# 1 0.016915 0.005099 0.003506 0.000000 0.000000 0.000000
# 2 0.005099 0.022858 0.003480 0.000000 0.000000 0.000000
# 3 0.003506 0.003480 0.012461 0.000000 0.000000 0.000000
# 4 0.000000 0.000000 0.000000 0.243814 0.000000 0.000000
# 5 0.000000 0.000000 0.000000 0.000000 0.101831 0.000000
# 6 0.000000 0.000000 0.000000 0.000000 0.000000 0.064666
#
#
# Mechanical properties :
#
#
# Convention : Reuss Voigt Hill
#
# Bulk Modulus (GPa) = 13.08812 14.04562 13.56687
# Shear Modulus (GPa) = 10.77952 21.79265 16.28609
#
# Velocity S-wave (km/s) = 2.21449 3.14868 2.72196
# Velocity P-wave (km/s) = 3.53452 4.42817 4.00634
#
# Compressibility (1/GPa) = 0.07640518
#
# Stress axis : x y z
#
# Youngs Moduli (GPa) = 59.12019 43.74754 80.24938
#
# Poissons Ratio (x) = -0.22307 -0.28137
# Poissons Ratio (y) = -0.30145 -0.27929
# Poissons Ratio (z) = -0.20729 -0.15226
#
# Static dielectric constant tensor:
#      x y z
#    x 1.770510 0.000000 0.000000 
#    y 0.000000 1.823430 0.000000 
#    z 0.000000 0.000000 1.813950 
# 
# From -- ./inp_files/20926.got.cif
#   From: 2010.05.17/outbox.cif.g08.bks.cpg/sg62_11_cif.got.tgz:20926.got - 2010.06.03 15:25:27.
