data_PCOD9465405
_publ_section_title
;
Structure prediction by ZEFSAII (Michael W. Deem and Ramdas Pophale) SiO2 
 PCOD9465405
Probable space group: P N M A
;
_chemical_formula_sum "Si O2"
_cell_formula_units_Z 60
_cell_length_a 10.688894
_cell_length_b 12.064942
_cell_length_c 20.908367
_cell_angle_alpha 90.000000
_cell_angle_beta 90.000000
_cell_angle_gamma 90.000000
_cell_volume 2696.361536
_symmetry_space_group_name_H-M "P N M A"
_symmetry_group_IT_number 62
_symmetry_cell_setting 'orthorhombic'
loop_
_space_group_symop_operation_xyz
x,y,z
1/2-x,-y,1/2+z
1/2+x,1/2-y,1/2-z
-x,1/2+y,-z
-x,-y,-z
1/2+x,y,1/2-z
1/2-x,1/2+y,1/2+z
x,1/2-y,z
loop_
_atom_site_type_symbol
_atom_site_label
_atom_site_fract_x
_atom_site_fract_y
_atom_site_fract_z
Si Si1 0.742065 0.879333 0.726683
Si Si2 0.078669 0.081557 0.779718
Si Si3 0.833483 0.373299 0.015345
Si Si4 0.805533 0.876541 0.877746
Si Si5 0.739600 0.750000 0.189168
Si Si6 0.087620 0.943015 0.335478
Si Si7 0.022007 0.451956 0.914756
Si Si8 0.394615 0.516361 0.053846
O O1 0.728084 0.750000 0.711250
O O2 0.776410 0.888450 0.802027
O O3 0.616560 0.952556 0.719207
O O4 0.844968 0.941442 0.682588
O O5 0.199695 0.152938 0.763988
O O6 0.969680 0.103347 0.730771
O O7 0.046287 0.117912 0.851404
O O8 0.825407 0.250000 0.043509
O O9 0.858457 0.476225 0.062970
O O10 0.957047 0.382153 0.970505
O O11 0.709713 0.399278 0.973874
O O12 0.839944 0.750000 0.889886
O O13 0.917542 0.957888 0.895433
O O14 0.687767 0.912252 0.921446
O O15 0.682794 0.651186 0.143524
O O16 0.973132 0.950654 0.383734
O O17 0.500000 0.500000 0.000000
#
# Coordination Sequence:
#
# PCOD9465405 Si02
#       8
#     8   8   8   8   4   8   8   8
#     4  10  22  38  65 101 133 164 203 268 342 400
#     4  11  22  42  66  98 129 167 220 275 329 387
#     4  10  24  44  66  93 127 169 217 265 322 387
#     4  10  20  41  68  97 129 165 212 268 334 392
#     4  10  26  38  64  96 128 178 214 266 328 386
#     4  11  23  45  63  93 138 168 220 272 328 389
#     4  10  22  42  66  97 127 162 215 275 327 383
#     4  11  26  44  63  92 132 178 220 262 315 396
#
# _framework density 22.252208
#
# number of rings (size 3 to 8) (size 9 to 14) (size 15 to 20)
#    0.000    1.600    2.667    0.800    5.600    2.667 
#    2.400    0.000    0.000    0.000    0.000    0.000 
#    0.000    0.000    0.000    0.000    0.000    0.000 
#
# Total GULP energy -334046.668884 kJ/mol
# GULP energy per Si atom -5567.444481 kJ/mol
# Density = 2.220156 g / cm^3
# Si number density = 22.252208 Si / 1000 Ang^3
#
#
#
# Elastic Constant Matrix: (Units=GPa)
#
#
# Indices 1 2 3 4 5 6 
#
# 1 82.1833 17.9899 18.1449 0.0000 0.0000 0.0000
# 2 17.9899 126.5477 8.1211 0.0000 0.0000 0.0000
# 3 18.1449 8.1211 84.6429 0.0000 0.0000 0.0000
# 4 0.0000 0.0000 0.0000 3.8287 0.0000 0.0000
# 5 0.0000 0.0000 0.0000 0.0000 51.4859 0.0000
# 6 0.0000 0.0000 0.0000 0.0000 0.0000 -233.6032
#
#
#
# Elastic Compliance Matrix: (Units=1/GPa)
#
#
# Indices 1 2 3 4 5 6 
#
# 1 0.013124 -0.001696 -0.002651 0.000000 0.000000 0.000000
# 2 -0.001696 0.008170 -0.000420 0.000000 0.000000 0.000000
# 3 -0.002651 -0.000420 0.012423 0.000000 0.000000 0.000000
# 4 0.000000 0.000000 0.000000 0.261182 0.000000 0.000000
# 5 0.000000 0.000000 0.000000 0.000000 0.019423 0.000000
# 6 0.000000 0.000000 0.000000 0.000000 0.000000 -0.004281
#
#
# Mechanical properties :
#
#
# Convention : Reuss Voigt Hill
#
# Bulk Modulus (GPa) = 41.34992 42.43173 41.89083
# Shear Modulus (GPa) = 15.26081 -19.04985 -1.89452
#
# Velocity S-wave (km/s) = 2.62164 -2.92907 -0.92371
# Velocity P-wave (km/s) = 5.27131 2.76960 4.21055
#
# Compressibility (1/GPa) = 0.02418384
#
# Stress axis : x y z
#
# Youngs Moduli (GPa) = 76.19424 122.39618 80.49638
#
# Poissons Ratio (x) = 0.20754 0.21338
# Poissons Ratio (y) = 0.12920 0.03384
# Poissons Ratio (z) = 0.20197 0.05145
#
# Static dielectric constant tensor:
#      x y z
#    x 1.944680 0.000000 0.000000 
#    y 0.000000 1.755380 0.000000 
#    z 0.000000 0.000000 1.879090 
# 
# From -- ./inp_files/26700.got.cif
#   From: 2010.05.17/outbox.cif.g08.bks.cpg/sg62_14_cif.got.tgz:26700.got - 2010.06.03 15:25:27.
