data_PCOD9465273
_publ_section_title
;
Structure prediction by ZEFSAII (Michael W. Deem and Ramdas Pophale) SiO2 
 PCOD9465273
Probable space group: P N M A
;
_chemical_formula_sum "Si O2"
_cell_formula_units_Z 32
_cell_length_a 7.669507
_cell_length_b 12.758082
_cell_length_c 12.453707
_cell_angle_alpha 90.000000
_cell_angle_beta 90.000000
_cell_angle_gamma 90.000000
_cell_volume 1218.572803
_symmetry_space_group_name_H-M "P N M A"
_symmetry_group_IT_number 62
_symmetry_cell_setting 'orthorhombic'
loop_
_space_group_symop_operation_xyz
x,y,z
1/2-x,-y,1/2+z
1/2+x,1/2-y,1/2-z
-x,1/2+y,-z
-x,-y,-z
1/2+x,y,1/2-z
1/2-x,1/2+y,1/2+z
x,1/2-y,z
loop_
_atom_site_type_symbol
_atom_site_label
_atom_site_fract_x
_atom_site_fract_y
_atom_site_fract_z
Si Si1 0.032555 0.131943 0.996702
Si Si2 0.629142 0.924370 0.886098
Si Si3 0.273631 0.370227 0.691009
Si Si4 0.749990 0.555804 0.656594
O O1 0.992736 0.250000 0.033824
O O2 0.910428 0.062157 0.074925
O O3 0.234722 0.114481 0.025959
O O4 0.953503 0.130290 0.876656
O O5 0.426768 0.898771 0.892556
O O6 0.696443 0.888537 0.768291
O O7 0.651835 0.051213 0.877816
O O8 0.217307 0.250000 0.704168
O O9 0.292732 0.438883 0.798383
#
# Coordination Sequence:
#
# PCOD9465273 Si02
#       4
#     8   8   8   8
#     4  11  23  42  66  95 131 174 220 269 325 389
#     4  10  20  39  62  90 130 169 212 265 323 381
#     4   9  21  42  67  94 130 173 220 271 325 384
#     4  10  21  40  63  96 130 171 213 270 327 384
#
# _framework density 26.260228000000001
#
# number of rings (size 3 to 8) (size 9 to 14) (size 15 to 20)
#    1.500    0.500    2.500    0.750    0.000    4.000 
#    0.000    2.500    0.000   10.500    0.000    0.000 
#    0.000    0.000    0.000    0.000    0.000    0.000 
#
# Total GULP energy -178794.951790 kJ/mol
# GULP energy per Si atom -5587.342243 kJ/mol
# Density = 2.620046 g / cm^3
# Si number density = 26.260228 Si / 1000 Ang^3
#
#
#
# Elastic Constant Matrix: (Units=GPa)
#
#
# Indices 1 2 3 4 5 6 
#
# 1 145.8311 2.9369 60.5704 0.0000 0.0000 0.0000
# 2 2.9369 90.0863 -0.4544 0.0000 0.0000 0.0000
# 3 60.5704 -0.4544 166.3423 0.0000 0.0000 0.0000
# 4 0.0000 0.0000 0.0000 27.4228 0.0000 0.0000
# 5 0.0000 0.0000 0.0000 0.0000 35.4763 0.0000
# 6 0.0000 0.0000 0.0000 0.0000 0.0000 9.9472
#
#
#
# Elastic Compliance Matrix: (Units=1/GPa)
#
#
# Indices 1 2 3 4 5 6 
#
# 1 0.008086 -0.000278 -0.002945 0.000000 0.000000 0.000000
# 2 -0.000278 0.011110 0.000132 0.000000 0.000000 0.000000
# 3 -0.002945 0.000132 0.007084 0.000000 0.000000 0.000000
# 4 0.000000 0.000000 0.000000 0.036466 0.000000 0.000000
# 5 0.000000 0.000000 0.000000 0.000000 0.028188 0.000000
# 6 0.000000 0.000000 0.000000 0.000000 0.000000 0.100531
#
#
# Mechanical properties :
#
#
# Convention : Reuss Voigt Hill
#
# Bulk Modulus (GPa) = 49.75856 58.70728 54.23292
# Shear Modulus (GPa) = 24.46806 37.18305 30.82556
#
# Velocity S-wave (km/s) = 3.05578 3.76699 3.42987
# Velocity P-wave (km/s) = 5.60712 6.42843 6.03177
#
# Compressibility (1/GPa) = 0.02009704
#
# Stress axis : x y z
#
# Youngs Moduli (GPa) = 123.66864 90.00726 141.15347
#
# Poissons Ratio (x) = 0.02506 0.41572
# Poissons Ratio (y) = 0.03444 -0.01860
# Poissons Ratio (z) = 0.36423 -0.01186
#
# Static dielectric constant tensor:
#      x y z
#    x 2.041410 0.000000 0.000000 
#    y 0.000000 2.159090 0.000000 
#    z 0.000000 0.000000 2.074370 
# 
# From -- ./inp_files/10986.got.cif
#   From: 2010.05.17/outbox.cif.g08.bks.cpg/sg62_6_cif.got.tgz:10986.got - 2010.06.03 15:25:27.
