data_PCOD9465739
_publ_section_title
;
Structure prediction by ZEFSAII (Michael W. Deem and Ramdas Pophale) SiO2 
 PCOD9465739
Probable space group: P N M A
;
_chemical_formula_sum "Si O2"
_cell_formula_units_Z 48
_cell_length_a 5.323965
_cell_length_b 14.908401
_cell_length_c 23.035249
_cell_angle_alpha 90.000000
_cell_angle_beta 90.000000
_cell_angle_gamma 90.000000
_cell_volume 1828.349295
_symmetry_space_group_name_H-M "P N M A"
_symmetry_group_IT_number 62
_symmetry_cell_setting 'orthorhombic'
loop_
_space_group_symop_operation_xyz
x,y,z
1/2-x,-y,1/2+z
1/2+x,1/2-y,1/2-z
-x,1/2+y,-z
-x,-y,-z
1/2+x,y,1/2-z
1/2-x,1/2+y,1/2+z
x,1/2-y,z
loop_
_atom_site_type_symbol
_atom_site_label
_atom_site_fract_x
_atom_site_fract_y
_atom_site_fract_z
Si Si1 0.529599 0.140680 0.781392
Si Si2 0.794348 0.353179 0.897344
Si Si3 0.181683 0.348196 0.113411
Si Si4 0.876512 0.002063 0.064384
Si Si5 0.475673 0.642754 0.779526
Si Si6 0.954110 0.650938 0.521157
O O1 0.249231 0.113238 0.763739
O O2 0.523551 0.250000 0.782474
O O3 0.634681 0.109792 0.843506
O O4 0.857446 0.250000 0.885055
O O5 0.050912 0.405740 0.910560
O O6 0.616489 0.356331 0.954174
O O7 0.081773 0.250000 0.131452
O O8 0.000198 0.430946 0.111291
O O9 0.416646 0.366363 0.155583
O O10 0.267125 0.341448 0.046046
O O11 0.627614 0.057224 0.049971
O O12 0.000000 0.000000 0.000000
O O13 0.203420 0.607535 0.761059
O O14 0.453892 0.750000 0.770744
O O15 0.842267 0.750000 0.539314
#
# Coordination Sequence:
#
# PCOD9465739 Si02
#       6
#     8   8   8   8   8   8
#     4   9  18  37  62  87 117 159 210 265 326 383
#     4   9  19  38  59  87 120 158 209 260 317 380
#     4  10  21  37  61  89 123 166 209 257 318 383
#     4  10  21  37  58  87 122 159 202 256 313 374
#     4   9  19  35  59  90 125 169 217 263 314 377
#     4   9  19  37  61  90 124 161 205 256 316 383
#
# _framework density 26.253188000000002
#
# number of rings (size 3 to 8) (size 9 to 14) (size 15 to 20)
#    0.000    2.667    0.000    0.500    2.333    3.333 
#    9.000    1.667    0.000    0.000    0.000    0.000 
#    0.000    0.000    0.000    0.000    0.000    0.000 
#
# Total GULP energy -267896.141650 kJ/mol
# GULP energy per Si atom -5581.169618 kJ/mol
# Density = 2.619343 g / cm^3
# Si number density = 26.253188 Si / 1000 Ang^3
#
#
#
# Elastic Constant Matrix: (Units=GPa)
#
#
# Indices 1 2 3 4 5 6 
#
# 1 51.7064 7.7780 9.5400 0.0000 0.0000 0.0000
# 2 7.7780 89.1308 21.8054 0.0000 0.0000 0.0000
# 3 9.5400 21.8054 91.5514 0.0000 0.0000 0.0000
# 4 0.0000 0.0000 0.0000 10.2035 0.0000 0.0000
# 5 0.0000 0.0000 0.0000 0.0000 46.6774 0.0000
# 6 0.0000 0.0000 0.0000 0.0000 0.0000 19.4250
#
#
#
# Elastic Compliance Matrix: (Units=1/GPa)
#
#
# Indices 1 2 3 4 5 6 
#
# 1 0.019861 -0.001303 -0.001759 0.000000 0.000000 0.000000
# 2 -0.001303 0.011999 -0.002722 0.000000 0.000000 0.000000
# 3 -0.001759 -0.002722 0.011754 0.000000 0.000000 0.000000
# 4 0.000000 0.000000 0.000000 0.098005 0.000000 0.000000
# 5 0.000000 0.000000 0.000000 0.000000 0.021424 0.000000
# 6 0.000000 0.000000 0.000000 0.000000 0.000000 0.051480
#
#
# Mechanical properties :
#
#
# Convention : Reuss Voigt Hill
#
# Bulk Modulus (GPa) = 31.20532 34.51505 32.86019
# Shear Modulus (GPa) = 21.11723 28.14552 24.63138
#
# Velocity S-wave (km/s) = 2.83922 3.27782 3.06637
# Velocity P-wave (km/s) = 4.76028 5.24414 5.00806
#
# Compressibility (1/GPa) = 0.03204581
#
# Stress axis : x y z
#
# Youngs Moduli (GPa) = 50.35117 83.33949 85.07380
#
# Poissons Ratio (x) = 0.10857 0.14967
# Poissons Ratio (y) = 0.06559 0.23158
# Poissons Ratio (z) = 0.08858 0.22686
#
# Static dielectric constant tensor:
#      x y z
#    x 2.154980 0.000000 0.000000 
#    y 0.000000 2.163760 0.000000 
#    z 0.000000 0.000000 2.079080 
# 
# From -- ./inp_files/28311.got.cif
#   From: 2010.05.17/outbox.cif.g08.bks.cpg/sg62_15_cif.got.tgz:28311.got - 2010.06.03 15:25:27.
