data_PCOD9465392
_publ_section_title
;
Structure prediction by ZEFSAII (Michael W. Deem and Ramdas Pophale) SiO2 
 PCOD9465392
Probable space group: P N M A
;
_chemical_formula_sum "Si O2"
_cell_formula_units_Z 40
_cell_length_a 5.572720
_cell_length_b 25.722718
_cell_length_c 12.536019
_cell_angle_alpha 90.000000
_cell_angle_beta 90.000000
_cell_angle_gamma 90.000000
_cell_volume 1796.981975
_symmetry_space_group_name_H-M "P N M A"
_symmetry_group_IT_number 62
_symmetry_cell_setting 'orthorhombic'
loop_
_space_group_symop_operation_xyz
x,y,z
1/2-x,-y,1/2+z
1/2+x,1/2-y,1/2-z
-x,1/2+y,-z
-x,-y,-z
1/2+x,y,1/2-z
1/2-x,1/2+y,1/2+z
x,1/2-y,z
loop_
_atom_site_type_symbol
_atom_site_label
_atom_site_fract_x
_atom_site_fract_y
_atom_site_fract_z
Si Si1 0.886332 0.349488 0.881930
Si Si2 0.120666 0.444173 0.989611
Si Si3 0.140255 0.402588 0.227238
Si Si4 0.898502 0.481018 0.693958
Si Si5 0.387815 0.189561 0.857573
O O1 0.945886 0.405850 0.925978
O O2 0.874978 0.342838 0.753187
O O3 0.130289 0.318330 0.912670
O O4 0.626928 0.328776 0.918342
O O5 0.358550 0.454820 0.920279
O O6 0.160713 0.421120 0.105582
O O7 0.000000 0.500000 0.000000
O O8 0.385542 0.374938 0.259022
O O9 0.118535 0.455858 0.298831
O O10 0.654218 0.466014 0.757315
O O11 0.418774 0.250000 0.828829
#
# Coordination Sequence:
#
# PCOD9465392 Si02
#       5
#     8   8   8   8   8
#     4  10  22  33  57  91 116 158 203 230 314 382
#     4  12  24  38  58  85 127 170 216 257 288 371
#     4  10  22  39  53  73 103 161 213 246 303 329
#     4  10  22  36  54  74 105 161 209 247 297 333
#     4  10  20  41  64  88 124 153 194 270 327 371
#
# _framework density 22.259546
#
# number of rings (size 3 to 8) (size 9 to 14) (size 15 to 20)
#    0.000    1.600    4.000    3.000    5.600    6.400 
#    0.000    0.000    0.000    0.000    0.000    0.000 
#    0.000   27.200    0.000    0.000    0.000    0.000 
#
# Total GULP energy -223460.573751 kJ/mol
# GULP energy per Si atom -5586.514344 kJ/mol
# Density = 2.220888 g / cm^3
# Si number density = 22.259546 Si / 1000 Ang^3
#
#
#
# Elastic Constant Matrix: (Units=GPa)
#
#
# Indices 1 2 3 4 5 6 
#
# 1 202.6701 17.1019 13.4533 0.0000 0.0000 0.0000
# 2 17.1019 79.4092 14.9450 0.0000 0.0000 0.0000
# 3 13.4533 14.9450 24.4505 0.0000 0.0000 0.0000
# 4 0.0000 0.0000 0.0000 101.6199 0.0000 0.0000
# 5 0.0000 0.0000 0.0000 0.0000 19.6247 0.0000
# 6 0.0000 0.0000 0.0000 0.0000 0.0000 23.9093
#
#
#
# Elastic Compliance Matrix: (Units=1/GPa)
#
#
# Indices 1 2 3 4 5 6 
#
# 1 0.005151 -0.000651 -0.002436 0.000000 0.000000 0.000000
# 2 -0.000651 0.014312 -0.008390 0.000000 0.000000 0.000000
# 3 -0.002436 -0.008390 0.047368 0.000000 0.000000 0.000000
# 4 0.000000 0.000000 0.000000 0.009841 0.000000 0.000000
# 5 0.000000 0.000000 0.000000 0.000000 0.050956 0.000000
# 6 0.000000 0.000000 0.000000 0.000000 0.000000 0.041825
#
#
# Mechanical properties :
#
#
# Convention : Reuss Voigt Hill
#
# Bulk Modulus (GPa) = 22.79125 44.17005 33.48065
# Shear Modulus (GPa) = 24.15086 46.43277 35.29181
#
# Velocity S-wave (km/s) = 3.29746 4.57220 3.98611
# Velocity P-wave (km/s) = 4.97581 6.91083 6.02156
#
# Compressibility (1/GPa) = 0.04387650
#
# Stress axis : x y z
#
# Youngs Moduli (GPa) = 194.14598 69.87057 21.11137
#
# Poissons Ratio (x) = 0.04547 0.05143
# Poissons Ratio (y) = 0.12634 0.17713
# Poissons Ratio (z) = 0.47300 0.58622
#
# Static dielectric constant tensor:
#      x y z
#    x 1.928400 0.000000 0.000000 
#    y 0.000000 1.813200 0.000000 
#    z 0.000000 0.000000 1.869590 
# 
# From -- ./inp_files/10702.got.cif
#   From: 2010.05.17/outbox.cif.g08.bks.cpg/sg62_6_cif.got.tgz:10702.got - 2010.06.03 15:25:27.
