data_PCOD9465660
_publ_section_title
;
Structure prediction by ZEFSAII (Michael W. Deem and Ramdas Pophale) SiO2 
 PCOD9465660
Probable space group: P N M A
;
_chemical_formula_sum "Si O2"
_cell_formula_units_Z 44
_cell_length_a 5.069469
_cell_length_b 17.057058
_cell_length_c 28.879164
_cell_angle_alpha 90.000000
_cell_angle_beta 90.000000
_cell_angle_gamma 90.000000
_cell_volume 2497.187860
_symmetry_space_group_name_H-M "P N M A"
_symmetry_group_IT_number 62
_symmetry_cell_setting 'orthorhombic'
loop_
_space_group_symop_operation_xyz
x,y,z
1/2-x,-y,1/2+z
1/2+x,1/2-y,1/2-z
-x,1/2+y,-z
-x,-y,-z
1/2+x,y,1/2-z
1/2-x,1/2+y,1/2+z
x,1/2-y,z
loop_
_atom_site_type_symbol
_atom_site_label
_atom_site_fract_x
_atom_site_fract_y
_atom_site_fract_z
Si Si1 0.634458 0.077030 0.218226
Si Si2 0.978976 0.342706 0.093646
Si Si3 0.968115 0.059582 0.378331
Si Si4 0.009603 0.062436 0.541591
Si Si5 0.983611 0.658531 0.016387
Si Si6 0.526758 0.250000 0.221739
O O1 0.917927 0.066548 0.241387
O O2 0.559226 0.030839 0.172309
O O3 0.606963 0.167573 0.200483
O O4 0.967926 0.250000 0.104820
O O5 0.700810 0.385663 0.101103
O O6 0.201499 0.388833 0.122468
O O7 0.052706 0.350123 0.039210
O O8 0.930434 0.986651 0.412507
O O9 0.731252 0.106169 0.542222
O O10 0.231706 0.125667 0.529667
O O11 0.000000 0.000000 0.500000
O O12 0.957248 0.750000 0.027270
O O13 0.715714 0.250000 0.267614
#
# Coordination Sequence:
#
# PCOD9465660 Si02
#       6
#     8   8   8   8   8   4
#     4  10  21  37  50  71 103 137 183 229 268 311
#     4  11  22  34  50  78 110 146 188 221 262 317
#     4  12  23  35  56  78 104 149 182 231 272 314
#     4  12  21  37  57  82 114 141 183 225 268 324
#     4  11  22  38  56  78 114 151 180 220 267 318
#     4   8  16  30  48  62  88 132 170 214 258 282
#
# _framework density 17.619821000000002
#
# number of rings (size 3 to 8) (size 9 to 14) (size 15 to 20)
#    0.000    1.091    3.636    3.818    2.545    2.909 
#    3.273    0.000    0.000    0.000    0.000    0.000 
#    0.000   14.545    0.000    0.000    0.000    0.000 
#
# Total GULP energy -245849.204560 kJ/mol
# GULP energy per Si atom -5587.481922 kJ/mol
# Density = 1.757972 g / cm^3
# Si number density = 17.619821 Si / 1000 Ang^3
#
#
#
# Elastic Constant Matrix: (Units=GPa)
#
#
# Indices 1 2 3 4 5 6 
#
# 1 52.8101 -12.3275 -21.1562 0.0000 0.0000 0.0000
# 2 -12.3275 36.6901 17.5324 0.0000 0.0000 0.0000
# 3 -21.1562 17.5324 48.5419 0.0000 0.0000 0.0000
# 4 0.0000 0.0000 0.0000 16.9694 0.0000 0.0000
# 5 0.0000 0.0000 0.0000 0.0000 12.8836 0.0000
# 6 0.0000 0.0000 0.0000 0.0000 0.0000 28.2026
#
#
#
# Elastic Compliance Matrix: (Units=1/GPa)
#
#
# Indices 1 2 3 4 5 6 
#
# 1 0.023328 0.003601 0.008867 0.000000 0.000000 0.000000
# 2 0.003601 0.033496 -0.010529 0.000000 0.000000 0.000000
# 3 0.008867 -0.010529 0.028268 0.000000 0.000000 0.000000
# 4 0.000000 0.000000 0.000000 0.058929 0.000000 0.000000
# 5 0.000000 0.000000 0.000000 0.000000 0.077618 0.000000
# 6 0.000000 0.000000 0.000000 0.000000 0.000000 0.035458
#
#
# Mechanical properties :
#
#
# Convention : Reuss Voigt Hill
#
# Bulk Modulus (GPa) = 11.23961 11.79328 11.51644
# Shear Modulus (GPa) = 17.67553 21.87736 19.77645
#
# Velocity S-wave (km/s) = 3.17071 3.52751 3.35386
# Velocity P-wave (km/s) = 4.44942 4.82688 4.64199
#
# Compressibility (1/GPa) = 0.08897103
#
# Stress axis : x y z
#
# Youngs Moduli (GPa) = 42.86610 29.85388 35.37581
#
# Poissons Ratio (x) = -0.10751 -0.31366
# Poissons Ratio (y) = -0.15437 0.37246
# Poissons Ratio (z) = -0.38008 0.31432
#
# Static dielectric constant tensor:
#      x y z
#    x 1.603410 0.000000 0.000000 
#    y 0.000000 1.584920 0.000000 
#    z 0.000000 0.000000 1.618500 
# 
# From -- ./inp_files/30368.got.cif
#   From: 2010.05.17/outbox.cif.g08.bks.cpg/sg62_16_cif.got.tgz:30368.got - 2010.06.03 15:25:27.
