data_PCOD9465904
_publ_section_title
;
Structure prediction by ZEFSAII (Michael W. Deem and Ramdas Pophale) SiO2 
 PCOD9465904
Probable space group: P N M A
;
_chemical_formula_sum "Si O2"
_cell_formula_units_Z 56
_cell_length_a 18.164537
_cell_length_b 9.170668
_cell_length_c 16.733627
_cell_angle_alpha 90.000000
_cell_angle_beta 90.000000
_cell_angle_gamma 90.000000
_cell_volume 2787.503285
_symmetry_space_group_name_H-M "P N M A"
_symmetry_group_IT_number 62
_symmetry_cell_setting 'orthorhombic'
loop_
_space_group_symop_operation_xyz
x,y,z
1/2-x,-y,1/2+z
1/2+x,1/2-y,1/2-z
-x,1/2+y,-z
-x,-y,-z
1/2+x,y,1/2-z
1/2-x,1/2+y,1/2+z
x,1/2-y,z
loop_
_atom_site_type_symbol
_atom_site_label
_atom_site_fract_x
_atom_site_fract_y
_atom_site_fract_z
Si Si1 0.595504 0.081418 0.875409
Si Si2 0.149052 0.418828 0.304151
Si Si3 0.765595 0.419338 0.822471
Si Si4 0.558720 0.925193 0.558874
Si Si5 0.635530 0.581268 0.032128
Si Si6 0.490464 0.418867 0.261665
Si Si7 0.693151 0.419485 0.480768
O O1 0.578992 0.250000 0.892546
O O2 0.678986 0.072727 0.841601
O O3 0.544056 0.017629 0.806973
O O4 0.594105 0.988736 0.956716
O O5 0.169380 0.250000 0.315261
O O6 0.213626 0.507924 0.261351
O O7 0.125754 0.489493 0.387720
O O8 0.078319 0.427063 0.246365
O O9 0.787810 0.250000 0.823091
O O10 0.805222 0.506991 0.893614
O O11 0.558163 0.750000 0.548853
O O12 0.536810 0.958527 0.650183
O O13 0.500000 0.000000 0.500000
O O14 0.637814 0.991610 0.536526
O O15 0.614944 0.750000 0.043037
O O16 0.723022 0.575046 0.012225
O O17 0.469061 0.250000 0.246532
O O18 0.670683 0.250000 0.475492
#
# Coordination Sequence:
#
# PCOD9465904 Si02
#       7
#     8   8   8   8   8   8   8
#     4  10  22  40  63  90 119 155 202 251 303 362
#     4  11  23  39  61  88 121 159 203 250 300 362
#     4  10  21  38  61  90 122 155 198 249 303 361
#     4  11  23  39  61  89 123 162 204 250 303 365
#     4  10  22  40  62  88 120 157 200 250 303 359
#     4  10  24  42  59  86 121 160 203 246 301 363
#     4  10  21  38  60  87 119 156 199 247 301 360
#
# _framework density 20.089662000000001
#
# number of rings (size 3 to 8) (size 9 to 14) (size 15 to 20)
#    0.000    1.714    0.000    3.429    2.000    7.429 
#    0.000    0.000    0.000    0.000    0.000    0.000 
#    0.000    0.000    0.000    0.000    0.000    0.000 
#
# Total GULP energy -313158.471537 kJ/mol
# GULP energy per Si atom -5592.115563 kJ/mol
# Density = 2.004394 g / cm^3
# Si number density = 20.089662 Si / 1000 Ang^3
#
#
#
# Elastic Constant Matrix: (Units=GPa)
#
#
# Indices 1 2 3 4 5 6 
#
# 1 26.2125 26.3516 14.4843 0.0000 0.0000 0.0000
# 2 26.3516 114.3422 43.8204 0.0000 0.0000 0.0000
# 3 14.4843 43.8204 81.3002 0.0000 0.0000 0.0000
# 4 0.0000 0.0000 0.0000 39.0075 0.0000 0.0000
# 5 0.0000 0.0000 0.0000 0.0000 36.4059 0.0000
# 6 0.0000 0.0000 0.0000 0.0000 0.0000 26.9000
#
#
#
# Elastic Compliance Matrix: (Units=1/GPa)
#
#
# Indices 1 2 3 4 5 6 
#
# 1 0.050400 -0.010302 -0.003426 0.000000 0.000000 0.000000
# 2 -0.010302 0.013128 -0.005241 0.000000 0.000000 0.000000
# 3 -0.003426 -0.005241 0.015735 0.000000 0.000000 0.000000
# 4 0.000000 0.000000 0.000000 0.025636 0.000000 0.000000
# 5 0.000000 0.000000 0.000000 0.000000 0.027468 0.000000
# 6 0.000000 0.000000 0.000000 0.000000 0.000000 0.037175
#
#
# Mechanical properties :
#
#
# Convention : Reuss Voigt Hill
#
# Bulk Modulus (GPa) = 24.19844 43.46307 33.83076
# Shear Modulus (GPa) = 22.59829 29.60925 26.10377
#
# Velocity S-wave (km/s) = 3.35755 3.84325 3.60858
# Velocity P-wave (km/s) = 5.20598 6.43238 5.85140
#
# Compressibility (1/GPa) = 0.04132497
#
# Stress axis : x y z
#
# Youngs Moduli (GPa) = 19.84137 76.17083 63.55157
#
# Poissons Ratio (x) = 0.78472 0.21775
# Poissons Ratio (y) = 0.20441 0.33306
# Poissons Ratio (z) = 0.06798 0.39919
#
# Static dielectric constant tensor:
#      x y z
#    x 1.724650 0.000000 0.000000 
#    y 0.000000 1.678640 0.000000 
#    z 0.000000 0.000000 1.674060 
# 
# From -- ./inp_files/20339.got.cif
#   From: 2010.05.17/outbox.cif.g08.bks.cpg/sg62_11_cif.got.tgz:20339.got - 2010.06.03 15:25:27.
