data_PCOD9465249
_publ_section_title
;
Structure prediction by ZEFSAII (Michael W. Deem and Ramdas Pophale) SiO2 
 PCOD9465249
Probable space group: P N M A
;
_chemical_formula_sum "Si O2"
_cell_formula_units_Z 40
_cell_length_a 7.729903
_cell_length_b 10.368745
_cell_length_c 21.756867
_cell_angle_alpha 90.000000
_cell_angle_beta 90.000000
_cell_angle_gamma 90.000000
_cell_volume 1743.799685
_symmetry_space_group_name_H-M "P N M A"
_symmetry_group_IT_number 62
_symmetry_cell_setting 'orthorhombic'
loop_
_space_group_symop_operation_xyz
x,y,z
1/2-x,-y,1/2+z
1/2+x,1/2-y,1/2-z
-x,1/2+y,-z
-x,-y,-z
1/2+x,y,1/2-z
1/2-x,1/2+y,1/2+z
x,1/2-y,z
loop_
_atom_site_type_symbol
_atom_site_label
_atom_site_fract_x
_atom_site_fract_y
_atom_site_fract_z
Si Si1 0.358068 0.599475 0.475296
Si Si2 0.344575 0.750000 0.802776
Si Si3 0.690064 0.509574 0.911507
Si Si4 0.251969 0.750000 0.664522
Si Si5 0.793273 0.250000 0.852625
Si Si6 0.438692 0.250000 0.772706
Si Si7 0.810677 0.021182 0.647675
O O1 0.500000 0.500000 0.500000
O O2 0.398372 0.750000 0.484862
O O3 0.196559 0.558732 0.518752
O O4 0.313636 0.575396 0.404568
O O5 0.342082 0.750000 0.729676
O O6 0.544652 0.750000 0.823375
O O7 0.259036 0.619002 0.827408
O O8 0.787066 0.621451 0.873543
O O9 0.781412 0.374607 0.895785
O O10 0.496744 0.495565 0.885710
O O11 0.621934 0.250000 0.808421
O O12 0.942385 0.250000 0.801082
O O13 0.341524 0.377923 0.797370
#
# Coordination Sequence:
#
# PCOD9465249 Si02
#       7
#     8   4   8   4   4   4   8
#     4  12  27  44  64  92 126 160 207 264 318 366
#     4  10  22  35  64  93 125 160 206 248 305 372
#     4  10  22  42  65  90 123 167 210 251 306 370
#     4  10  20  39  60  93 125 164 204 252 305 362
#     4  10  22  35  64  93 125 160 206 248 305 372
#     4  10  20  39  60  93 125 164 204 252 305 362
#     4  10  22  42  65  90 123 167 210 251 306 370
#
# _framework density 22.938414000000002
#
# number of rings (size 3 to 8) (size 9 to 14) (size 15 to 20)
#    0.000    1.600    2.000    1.800    2.800    3.200 
#    0.000    0.000    0.000    0.000    0.000    0.000 
#    0.000    0.000    0.000    0.000    0.000    0.000 
#
# Total GULP energy -223833.590648 kJ/mol
# GULP energy per Si atom -5595.839766 kJ/mol
# Density = 2.288621 g / cm^3
# Si number density = 22.938414 Si / 1000 Ang^3
#
#
#
# Elastic Constant Matrix: (Units=GPa)
#
#
# Indices 1 2 3 4 5 6 
#
# 1 39.5638 25.7646 -4.2880 0.0000 0.0000 0.0000
# 2 25.7646 208.9966 46.7751 0.0000 0.0000 0.0000
# 3 -4.2880 46.7751 91.7483 0.0000 0.0000 0.0000
# 4 0.0000 0.0000 0.0000 42.3817 0.0000 0.0000
# 5 0.0000 0.0000 0.0000 0.0000 31.9026 0.0000
# 6 0.0000 0.0000 0.0000 0.0000 0.0000 10.6533
#
#
#
# Elastic Compliance Matrix: (Units=1/GPa)
#
#
# Indices 1 2 3 4 5 6 
#
# 1 0.028454 -0.004296 0.003520 0.000000 0.000000 0.000000
# 2 -0.004296 0.006050 -0.003285 0.000000 0.000000 0.000000
# 3 0.003520 -0.003285 0.012739 0.000000 0.000000 0.000000
# 4 0.000000 0.000000 0.000000 0.023595 0.000000 0.000000
# 5 0.000000 0.000000 0.000000 0.000000 0.031345 0.000000
# 6 0.000000 0.000000 0.000000 0.000000 0.000000 0.093868
#
#
# Mechanical properties :
#
#
# Convention : Reuss Voigt Hill
#
# Bulk Modulus (GPa) = 25.56154 52.97910 39.27032
# Shear Modulus (GPa) = 23.01892 35.12466 29.07179
#
# Velocity S-wave (km/s) = 3.17126 3.91738 3.56390
# Velocity P-wave (km/s) = 4.95751 6.60360 5.83885
#
# Compressibility (1/GPa) = 0.03912127
#
# Stress axis : x y z
#
# Youngs Moduli (GPa) = 35.14389 165.30290 78.50154
#
# Poissons Ratio (x) = 0.71007 -0.27631
# Poissons Ratio (y) = 0.15096 0.25787
# Poissons Ratio (z) = -0.12370 0.54301
#
# Static dielectric constant tensor:
#      x y z
#    x 1.914560 0.000000 0.000000 
#    y 0.000000 1.810530 0.000000 
#    z 0.000000 0.000000 1.836580 
# 
# From -- ./inp_files/28658.got.cif
#   From: 2010.05.17/outbox.cif.g08.bks.cpg/sg62_15_cif.got.tgz:28658.got - 2010.06.03 15:25:27.
