data_PCOD9465071
_publ_section_title
;
Structure prediction by ZEFSAII (Michael W. Deem and Ramdas Pophale) SiO2 
 PCOD9465071
Probable space group: P N M A
;
_chemical_formula_sum "Si O2"
_cell_formula_units_Z 56
_cell_length_a 14.676393
_cell_length_b 13.376361
_cell_length_c 12.842306
_cell_angle_alpha 90.000000
_cell_angle_beta 90.000000
_cell_angle_gamma 90.000000
_cell_volume 2521.159532
_symmetry_space_group_name_H-M "P N M A"
_symmetry_group_IT_number 62
_symmetry_cell_setting 'orthorhombic'
loop_
_space_group_symop_operation_xyz
x,y,z
1/2-x,-y,1/2+z
1/2+x,1/2-y,1/2-z
-x,1/2+y,-z
-x,-y,-z
1/2+x,y,1/2-z
1/2-x,1/2+y,1/2+z
x,1/2-y,z
loop_
_atom_site_type_symbol
_atom_site_label
_atom_site_fract_x
_atom_site_fract_y
_atom_site_fract_z
Si Si1 0.064277 0.367556 0.906041
Si Si2 0.735881 0.552106 0.121968
Si Si3 0.710664 0.632645 0.338003
Si Si4 0.685891 0.138956 0.218647
Si Si5 0.878984 0.518097 0.421969
Si Si6 0.426075 0.518052 0.612773
Si Si7 0.008071 0.359554 0.425806
O O1 0.043643 0.250000 0.888878
O O2 0.171871 0.387487 0.896690
O O3 0.007950 0.450526 0.839948
O O4 0.040853 0.408102 0.022127
O O5 0.684871 0.607718 0.217930
O O6 0.753861 0.440602 0.167511
O O7 0.676347 0.533765 0.018486
O O8 0.710820 0.750000 0.356921
O O9 0.809501 0.584020 0.356680
O O10 0.643798 0.572450 0.415027
O O11 0.721594 0.250000 0.238122
O O12 0.600587 0.145764 0.139908
O O13 0.638446 0.087700 0.317221
O O14 0.957311 0.589884 0.468091
O O15 0.933211 0.427626 0.370417
O O16 0.971180 0.250000 0.443898
#
# Coordination Sequence:
#
# PCOD9465071 Si02
#       7
#     8   8   8   8   8   8   8
#     4  11  22  39  59  85 121 163 200 251 307 357
#     4  10  22  39  58  90 119 155 200 253 297 368
#     4  11  22  39  62  87 116 159 204 250 303 359
#     4   9  19  39  62  86 117 153 195 250 305 357
#     4  10  20  38  59  86 120 154 195 247 299 363
#     4  10  22  39  60  84 120 158 206 251 293 366
#     4   9  19  35  59  86 115 149 188 241 304 359
#
# _framework density 22.212001999999998
#
# number of rings (size 3 to 8) (size 9 to 14) (size 15 to 20)
#    0.000    2.000    1.429    1.714    2.000    1.714 
#    0.000    2.143    0.000    0.000    0.000    0.000 
#    0.000    0.000    0.000    0.000    0.000    0.000 
#
# Total GULP energy -312094.644711 kJ/mol
# GULP energy per Si atom -5573.118656 kJ/mol
# Density = 2.216145 g / cm^3
# Si number density = 22.212002 Si / 1000 Ang^3
#
#
#
# Elastic Constant Matrix: (Units=GPa)
#
#
# Indices 1 2 3 4 5 6 
#
# 1 37.9931 28.6430 -10.0238 0.0000 0.0000 0.0000
# 2 28.6430 160.8339 19.4045 0.0000 0.0000 0.0000
# 3 -10.0238 19.4045 29.9850 0.0000 0.0000 0.0000
# 4 0.0000 0.0000 0.0000 17.2615 0.0000 0.0000
# 5 0.0000 0.0000 0.0000 0.0000 6.9952 0.0000
# 6 0.0000 0.0000 0.0000 0.0000 0.0000 39.1693
#
#
#
# Elastic Compliance Matrix: (Units=1/GPa)
#
#
# Indices 1 2 3 4 5 6 
#
# 1 0.037995 -0.009002 0.018527 0.000000 0.000000 0.000000
# 2 -0.009002 0.008877 -0.008754 0.000000 0.000000 0.000000
# 3 0.018527 -0.008754 0.045208 0.000000 0.000000 0.000000
# 4 0.000000 0.000000 0.000000 0.057932 0.000000 0.000000
# 5 0.000000 0.000000 0.000000 0.000000 0.142956 0.000000
# 6 0.000000 0.000000 0.000000 0.000000 0.000000 0.025530
#
#
# Mechanical properties :
#
#
# Convention : Reuss Voigt Hill
#
# Bulk Modulus (GPa) = 10.68114 33.87326 22.27720
# Shear Modulus (GPa) = 14.36104 25.40442 19.88273
#
# Velocity S-wave (km/s) = 2.54548 3.38557 2.99513
# Velocity P-wave (km/s) = 3.66858 5.52864 4.69171
#
# Compressibility (1/GPa) = 0.09362301
#
# Stress axis : x y z
#
# Youngs Moduli (GPa) = 26.31919 112.65223 22.11979
#
# Poissons Ratio (x) = 1.01408 -0.40981
# Poissons Ratio (y) = 0.23692 0.19363
# Poissons Ratio (z) = -0.48762 0.98614
#
# Static dielectric constant tensor:
#      x y z
#    x 1.879820 0.000000 0.000000 
#    y 0.000000 1.818930 0.000000 
#    z 0.000000 0.000000 1.916800 
# 
# From -- ./inp_files/19019.got.cif
#   From: 2010.05.17/outbox.cif.g08.bks.cpg/sg62_10_cif.got.tgz:19019.got - 2010.06.03 15:25:27.
