data_PCOD9465733
_publ_section_title
;
Structure prediction by ZEFSAII (Michael W. Deem and Ramdas Pophale) SiO2 
 PCOD9465733
Probable space group: P N M A
;
_chemical_formula_sum "Si O2"
_cell_formula_units_Z 56
_cell_length_a 14.807709
_cell_length_b 8.754259
_cell_length_c 21.529320
_cell_angle_alpha 90.000000
_cell_angle_beta 90.000000
_cell_angle_gamma 90.000000
_cell_volume 2790.856942
_symmetry_space_group_name_H-M "P N M A"
_symmetry_group_IT_number 62
_symmetry_cell_setting 'orthorhombic'
loop_
_space_group_symop_operation_xyz
x,y,z
1/2-x,-y,1/2+z
1/2+x,1/2-y,1/2-z
-x,1/2+y,-z
-x,-y,-z
1/2+x,y,1/2-z
1/2-x,1/2+y,1/2+z
x,1/2-y,z
loop_
_atom_site_type_symbol
_atom_site_label
_atom_site_fract_x
_atom_site_fract_y
_atom_site_fract_z
Si Si1 0.395267 0.430101 0.683237
Si Si2 0.863019 0.931175 0.520279
Si Si3 0.249507 0.926761 0.771802
Si Si4 0.508298 0.065587 0.568743
Si Si5 0.042037 0.925737 0.731515
Si Si6 0.212290 0.432069 0.901428
Si Si7 0.973369 0.930222 0.401741
O O1 0.376850 0.250000 0.679889
O O2 0.312203 0.511377 0.716866
O O3 0.428736 0.484970 0.615523
O O4 0.480290 0.463533 0.727834
O O5 0.872235 0.750000 0.531641
O O6 0.889786 0.957939 0.448681
O O7 0.766247 0.988498 0.542732
O O8 0.937300 0.021179 0.560711
O O9 0.271456 0.750000 0.783993
O O10 0.145774 0.939038 0.751233
O O11 0.257312 0.017316 0.836486
O O12 0.505387 0.250000 0.566350
O O13 0.606737 0.022761 0.596322
O O14 0.500000 0.000000 0.500000
O O15 0.012950 0.750000 0.741260
O O16 0.033113 0.972224 0.660106
O O17 0.218210 0.250000 0.907430
O O18 0.976751 0.750000 0.387251
#
# Coordination Sequence:
#
# PCOD9465733 Si02
#       7
#     8   8   8   8   8   8   8
#     4  11  23  42  65  91 125 163 208 259 312 373
#     4  10  21  37  58  86 119 157 202 247 300 364
#     4  11  24  40  62  92 122 160 206 254 312 369
#     4  10  24  43  65  91 122 163 208 255 311 371
#     4  11  23  39  61  88 121 158 198 251 305 362
#     4  11  22  40  63  89 121 161 208 254 307 373
#     4  10  21  37  58  85 120 160 199 248 305 361
#
# _framework density 20.065521
#
# number of rings (size 3 to 8) (size 9 to 14) (size 15 to 20)
#    0.000    1.429    1.429    3.429    0.000    6.857 
#    0.000    5.714    0.000    0.000    0.000    0.000 
#    0.000    0.000    0.000    0.000    0.000    0.000 
#
# Total GULP energy -313055.996966 kJ/mol
# GULP energy per Si atom -5590.285660 kJ/mol
# Density = 2.001985 g / cm^3
# Si number density = 20.065521 Si / 1000 Ang^3
#
#
#
# Elastic Constant Matrix: (Units=GPa)
#
#
# Indices 1 2 3 4 5 6 
#
# 1 25.1243 -0.3665 -6.8561 0.0000 0.0000 0.0000
# 2 -0.3665 22.3181 -3.0249 0.0000 0.0000 0.0000
# 3 -6.8561 -3.0249 77.3552 0.0000 0.0000 0.0000
# 4 0.0000 0.0000 0.0000 29.6126 0.0000 0.0000
# 5 0.0000 0.0000 0.0000 0.0000 33.7799 0.0000
# 6 0.0000 0.0000 0.0000 0.0000 0.0000 28.1082
#
#
#
# Elastic Compliance Matrix: (Units=1/GPa)
#
#
# Indices 1 2 3 4 5 6 
#
# 1 0.040819 0.001167 0.003663 0.000000 0.000000 0.000000
# 2 0.001167 0.045079 0.001866 0.000000 0.000000 0.000000
# 3 0.003663 0.001866 0.013325 0.000000 0.000000 0.000000
# 4 0.000000 0.000000 0.000000 0.033769 0.000000 0.000000
# 5 0.000000 0.000000 0.000000 0.000000 0.029603 0.000000
# 6 0.000000 0.000000 0.000000 0.000000 0.000000 0.035577
#
#
# Mechanical properties :
#
#
# Convention : Reuss Voigt Hill
#
# Bulk Modulus (GPa) = 8.87976 11.58918 10.23447
# Shear Modulus (GPa) = 22.49033 27.30315 24.89674
#
# Velocity S-wave (km/s) = 3.35153 3.69277 3.52628
# Velocity P-wave (km/s) = 4.40591 4.89594 4.65737
#
# Compressibility (1/GPa) = 0.11261567
#
# Stress axis : x y z
#
# Youngs Moduli (GPa) = 24.49852 22.18341 75.04664
#
# Poissons Ratio (x) = -0.02589 -0.27493
# Poissons Ratio (y) = -0.02859 -0.14005
# Poissons Ratio (z) = -0.08975 -0.04140
#
# Static dielectric constant tensor:
#      x y z
#    x 1.714960 0.000000 0.000000 
#    y 0.000000 1.679340 0.000000 
#    z 0.000000 0.000000 1.694940 
# 
# From -- ./inp_files/27302.got.cif
#   From: 2010.05.17/outbox.cif.g08.bks.cpg/sg62_14_cif.got.tgz:27302.got - 2010.06.03 15:25:27.
