data_PCOD9465209
_publ_section_title
;
Structure prediction by ZEFSAII (Michael W. Deem and Ramdas Pophale) SiO2 
 PCOD9465209
Probable space group: P N M A
;
_chemical_formula_sum "Si O2"
_cell_formula_units_Z 56
_cell_length_a 15.162234
_cell_length_b 8.180741
_cell_length_c 22.228579
_cell_angle_alpha 90.000000
_cell_angle_beta 90.000000
_cell_angle_gamma 90.000000
_cell_volume 2757.195358
_symmetry_space_group_name_H-M "P N M A"
_symmetry_group_IT_number 62
_symmetry_cell_setting 'orthorhombic'
loop_
_space_group_symop_operation_xyz
x,y,z
1/2-x,-y,1/2+z
1/2+x,1/2-y,1/2-z
-x,1/2+y,-z
-x,-y,-z
1/2+x,y,1/2-z
1/2-x,1/2+y,1/2+z
x,1/2-y,z
loop_
_atom_site_type_symbol
_atom_site_label
_atom_site_fract_x
_atom_site_fract_y
_atom_site_fract_z
Si Si1 0.419477 0.552506 0.041562
Si Si2 0.809280 0.441228 0.217810
Si Si3 0.412858 0.049803 0.613352
Si Si4 0.890054 0.558561 0.095312
Si Si5 0.384484 0.447890 0.751609
Si Si6 0.275068 0.444927 0.514076
Si Si7 0.437781 0.552027 0.179649
O O1 0.418359 0.750000 0.041951
O O2 0.431463 0.498435 0.110636
O O3 0.500000 0.500000 0.000000
O O4 0.324745 0.491865 0.017519
O O5 0.819899 0.250000 0.206262
O O6 0.855667 0.535130 0.163031
O O7 0.706691 0.485397 0.222646
O O8 0.858167 0.487889 0.279554
O O9 0.413962 0.250000 0.612992
O O10 0.509676 0.994578 0.592116
O O11 0.396405 0.000445 0.682186
O O12 0.336771 0.992504 0.568320
O O13 0.892150 0.750000 0.081061
O O14 0.824104 0.477645 0.048280
O O15 0.380330 0.250000 0.752674
O O16 0.469958 0.498310 0.789818
O O17 0.269688 0.250000 0.522305
O O18 0.433805 0.750000 0.181062
#
# Coordination Sequence:
#
# PCOD9465209 Si02
#       7
#     8   8   8   8   8   8   8
#     4  10  23  41  63  90 123 162 208 257 304 361
#     4  12  25  39  59  92 130 162 197 253 316 366
#     4   9  18  37  64  91 119 153 197 250 305 361
#     4  11  22  39  62  89 119 159 209 251 297 366
#     4  10  20  38  65  91 119 158 206 251 297 364
#     4  10  21  38  59  88 124 159 196 250 313 359
#     4  10  21  42  68  91 118 162 211 252 300 362
#
# _framework density 20.310493999999998
#
# number of rings (size 3 to 8) (size 9 to 14) (size 15 to 20)
#    0.000    1.714    1.429    3.000    2.000    4.000 
#    0.000    2.857    0.000    0.000    0.000    0.000 
#    0.000    0.000    0.000    0.000    0.000    0.000 
#
# Total GULP energy -313032.707245 kJ/mol
# GULP energy per Si atom -5589.869772 kJ/mol
# Density = 2.026427 g / cm^3
# Si number density = 20.310494 Si / 1000 Ang^3
#
#
#
# Elastic Constant Matrix: (Units=GPa)
#
#
# Indices 1 2 3 4 5 6 
#
# 1 144.9906 13.8326 33.3790 0.0000 0.0000 0.0000
# 2 13.8326 9.7944 0.9716 0.0000 0.0000 0.0000
# 3 33.3790 0.9716 74.9819 0.0000 0.0000 0.0000
# 4 0.0000 0.0000 0.0000 9.6288 0.0000 0.0000
# 5 0.0000 0.0000 0.0000 0.0000 24.3501 0.0000
# 6 0.0000 0.0000 0.0000 0.0000 0.0000 12.4780
#
#
#
# Elastic Compliance Matrix: (Units=1/GPa)
#
#
# Indices 1 2 3 4 5 6 
#
# 1 0.008947 -0.012256 -0.003824 0.000000 0.000000 0.000000
# 2 -0.012256 0.119020 0.003914 0.000000 0.000000 0.000000
# 3 -0.003824 0.003914 0.014988 0.000000 0.000000 0.000000
# 4 0.000000 0.000000 0.000000 0.103855 0.000000 0.000000
# 5 0.000000 0.000000 0.000000 0.000000 0.041068 0.000000
# 6 0.000000 0.000000 0.000000 0.000000 0.000000 0.080141
#
#
# Mechanical properties :
#
#
# Convention : Reuss Voigt Hill
#
# Bulk Modulus (GPa) = 8.43012 36.23702 22.33357
# Shear Modulus (GPa) = 11.57701 21.39698 16.48699
#
# Velocity S-wave (km/s) = 2.39006 3.24928 2.85221
# Velocity P-wave (km/s) = 3.43164 5.65308 4.67619
#
# Compressibility (1/GPa) = 0.11862234
#
# Stress axis : x y z
#
# Youngs Moduli (GPa) = 111.77487 8.40196 66.71975
#
# Poissons Ratio (x) = 0.10297 0.25513
# Poissons Ratio (y) = 1.36990 -0.26112
# Poissons Ratio (z) = 0.42741 -0.03288
#
# Static dielectric constant tensor:
#      x y z
#    x 1.702960 0.000000 0.000000 
#    y 0.000000 1.718230 0.000000 
#    z 0.000000 0.000000 1.683760 
# 
# From -- ./inp_files/27109.got.cif
#   From: 2010.05.17/outbox.cif.g08.bks.cpg/sg62_14_cif.got.tgz:27109.got - 2010.06.03 15:25:27.
