data_PCOD9465150
_publ_section_title
;
Structure prediction by ZEFSAII (Michael W. Deem and Ramdas Pophale) SiO2 
 PCOD9465150
Probable space group: P N M A
;
_chemical_formula_sum "Si O2"
_cell_formula_units_Z 64
_cell_length_a 13.142229
_cell_length_b 13.876332
_cell_length_c 16.435635
_cell_angle_alpha 90.000000
_cell_angle_beta 90.000000
_cell_angle_gamma 90.000000
_cell_volume 2997.299908
_symmetry_space_group_name_H-M "P N M A"
_symmetry_group_IT_number 62
_symmetry_cell_setting 'orthorhombic'
loop_
_space_group_symop_operation_xyz
x,y,z
1/2-x,-y,1/2+z
1/2+x,1/2-y,1/2-z
-x,1/2+y,-z
-x,-y,-z
1/2+x,y,1/2-z
1/2-x,1/2+y,1/2+z
x,1/2-y,z
loop_
_atom_site_type_symbol
_atom_site_label
_atom_site_fract_x
_atom_site_fract_y
_atom_site_fract_z
Si Si1 0.272664 0.503101 0.893718
Si Si2 0.547024 0.968146 0.586011
Si Si3 0.367461 0.644059 0.658054
Si Si4 0.824029 0.358623 0.462771
Si Si5 0.287399 0.445220 0.717051
Si Si6 0.046982 0.136040 0.437783
Si Si7 0.495056 0.141767 0.706716
Si Si8 0.397573 0.864069 0.124725
O O1 0.166588 0.554696 0.917464
O O2 0.253783 0.445209 0.810325
O O3 0.367909 0.575690 0.891180
O O4 0.301111 0.428686 0.963888
O O5 0.535394 0.059566 0.646569
O O6 0.500000 0.000000 0.500000
O O7 0.476160 0.882178 0.618916
O O8 0.370370 0.750000 0.697184
O O9 0.276151 0.645418 0.592370
O O10 0.337239 0.550664 0.709015
O O11 0.844348 0.250000 0.493725
O O12 0.929172 0.386527 0.417214
O O13 0.373894 0.367103 0.701514
O O14 0.199189 0.426747 0.651978
O O15 0.063350 0.250000 0.425141
O O16 0.060975 0.115032 0.534770
O O17 0.530343 0.250000 0.686143
O O18 0.524241 0.121937 0.800742
O O19 0.370330 0.750000 0.125161
#
# Coordination Sequence:
#
# PCOD9465150 Si02
#       8
#     8   8   8   8   8   8   8   8
#     4  12  23  39  64  93 127 163 202 260 308 367
#     4  11  23  41  61  92 129 164 213 254 305 377
#     4  10  23  43  64  83 118 170 215 258 305 362
#     4  10  21  40  65  92 119 155 206 258 315 375
#     4  11  23  38  60  89 123 157 209 249 307 366
#     4  10  23  40  62  94 124 159 205 256 316 373
#     4  10  22  40  63  92 125 162 200 254 318 376
#     4  10  20  38  62  91 127 156 194 251 317 379
#
# _framework density 21.352551999999999
#
# number of rings (size 3 to 8) (size 9 to 14) (size 15 to 20)
#    0.000    1.500    2.500    2.250    1.750    5.000 
#    0.000    0.000    0.000    0.000    0.000    0.000 
#    0.000    0.000    0.000    0.000    0.000    0.000 
#
# Total GULP energy -357502.440016 kJ/mol
# GULP energy per Si atom -5585.975625 kJ/mol
# Density = 2.130395 g / cm^3
# Si number density = 21.352552 Si / 1000 Ang^3
#
#
#
# Elastic Constant Matrix: (Units=GPa)
#
#
# Indices 1 2 3 4 5 6 
#
# 1 139.7159 28.8343 -0.4769 0.0000 0.0000 0.0000
# 2 28.8343 82.8811 12.0124 0.0000 0.0000 0.0000
# 3 -0.4769 12.0124 45.9427 0.0000 0.0000 0.0000
# 4 0.0000 0.0000 0.0000 16.8572 0.0000 0.0000
# 5 0.0000 0.0000 0.0000 0.0000 25.3581 0.0000
# 6 0.0000 0.0000 0.0000 0.0000 0.0000 29.7389
#
#
#
# Elastic Compliance Matrix: (Units=1/GPa)
#
#
# Indices 1 2 3 4 5 6 
#
# 1 0.007740 -0.002811 0.000815 0.000000 0.000000 0.000000
# 2 -0.002811 0.013562 -0.003575 0.000000 0.000000 0.000000
# 3 0.000815 -0.003575 0.022709 0.000000 0.000000 0.000000
# 4 0.000000 0.000000 0.000000 0.059322 0.000000 0.000000
# 5 0.000000 0.000000 0.000000 0.000000 0.039435 0.000000
# 6 0.000000 0.000000 0.000000 0.000000 0.000000 0.033626
#
#
# Mechanical properties :
#
#
# Convention : Reuss Voigt Hill
#
# Bulk Modulus (GPa) = 30.42302 38.80881 34.61591
# Shear Modulus (GPa) = 25.18987 29.60216 27.39601
#
# Velocity S-wave (km/s) = 3.43842 3.72741 3.58583
# Velocity P-wave (km/s) = 5.48111 6.06131 5.77850
#
# Compressibility (1/GPa) = 0.03286985
#
# Stress axis : x y z
#
# Youngs Moduli (GPa) = 129.19406 73.73778 44.03452
#
# Poissons Ratio (x) = 0.20728 -0.03590
# Poissons Ratio (y) = 0.36317 0.15743
# Poissons Ratio (z) = -0.10534 0.26362
#
# Static dielectric constant tensor:
#      x y z
#    x 1.808940 0.000000 0.000000 
#    y 0.000000 1.771620 0.000000 
#    z 0.000000 0.000000 1.752950 
# 
# From -- ./inp_files/23213.got.cif
#   From: 2010.05.17/outbox.cif.g08.bks.cpg/sg62_12_cif.got.tgz:23213.got - 2010.06.03 15:25:27.
