data_PCOD9465353
_publ_section_title
;
Structure prediction by ZEFSAII (Michael W. Deem and Ramdas Pophale) SiO2 
 PCOD9465353
Probable space group: P N M A
;
_chemical_formula_sum "Si O2"
_cell_formula_units_Z 40
_cell_length_a 8.276675
_cell_length_b 15.794042
_cell_length_c 12.286490
_cell_angle_alpha 90.000000
_cell_angle_beta 90.000000
_cell_angle_gamma 90.000000
_cell_volume 1606.116420
_symmetry_space_group_name_H-M "P N M A"
_symmetry_group_IT_number 62
_symmetry_cell_setting 'orthorhombic'
loop_
_space_group_symop_operation_xyz
x,y,z
1/2-x,-y,1/2+z
1/2+x,1/2-y,1/2-z
-x,1/2+y,-z
-x,-y,-z
1/2+x,y,1/2-z
1/2-x,1/2+y,1/2+z
x,1/2-y,z
loop_
_atom_site_type_symbol
_atom_site_label
_atom_site_fract_x
_atom_site_fract_y
_atom_site_fract_z
Si Si1 0.013391 0.848640 0.413626
Si Si2 0.204472 0.414277 0.750861
Si Si3 0.346829 0.410645 0.116800
Si Si4 0.962895 0.905097 0.030732
Si Si5 0.224340 0.250000 0.226270
Si Si6 0.103588 0.750000 0.918927
O O1 0.059352 0.750000 0.432516
O O2 0.141751 0.892694 0.328363
O O3 0.008005 0.900584 0.528777
O O4 0.845855 0.852362 0.346763
O O5 0.187281 0.505624 0.689054
O O6 0.065598 0.404280 0.841986
O O7 0.330211 0.332423 0.197494
O O8 0.202382 0.390972 0.033593
O O9 0.082382 0.834333 0.988339
O O10 0.000000 0.000000 0.000000
O O11 0.226710 0.250000 0.356358
O O12 0.056007 0.250000 0.161693
#
# Coordination Sequence:
#
# PCOD9465353 Si02
#       6
#     8   8   8   8   4   4
#     4  11  23  41  64  92 129 171 213 262 319 380
#     4  11  23  38  65  92 126 166 214 259 322 370
#     4  10  21  40  64  92 125 171 214 261 317 384
#     4  10  21  38  62  94 128 164 213 265 315 378
#     4  10  20  40  63  88 128 168 209 262 324 372
#     4  10  22  38  65  94 128 168 215 260 320 384
#
# _framework density 24.904793999999999
#
# number of rings (size 3 to 8) (size 9 to 14) (size 15 to 20)
#    0.000    1.600    1.000    3.600    5.600    1.600 
#    0.000    4.000    0.000    0.000    0.000    0.000 
#    0.000    0.000    0.000    0.000    0.000    0.000 
#
# Total GULP energy -223109.573276 kJ/mol
# GULP energy per Si atom -5577.739332 kJ/mol
# Density = 2.484811 g / cm^3
# Si number density = 24.904794 Si / 1000 Ang^3
#
#
#
# Elastic Constant Matrix: (Units=GPa)
#
#
# Indices 1 2 3 4 5 6 
#
# 1 42.7834 16.3232 49.3999 0.0000 0.0000 0.0000
# 2 16.3232 174.1948 58.5654 0.0000 0.0000 0.0000
# 3 49.3999 58.5654 146.2156 0.0000 0.0000 0.0000
# 4 0.0000 0.0000 0.0000 48.6910 0.0000 0.0000
# 5 0.0000 0.0000 0.0000 0.0000 64.9300 0.0000
# 6 0.0000 0.0000 0.0000 0.0000 0.0000 12.3407
#
#
#
# Elastic Compliance Matrix: (Units=1/GPa)
#
#
# Indices 1 2 3 4 5 6 
#
# 1 0.038441 0.000883 -0.013341 0.000000 0.000000 0.000000
# 2 0.000883 0.006654 -0.002964 0.000000 0.000000 0.000000
# 3 -0.013341 -0.002964 0.012534 0.000000 0.000000 0.000000
# 4 0.000000 0.000000 0.000000 0.020538 0.000000 0.000000
# 5 0.000000 0.000000 0.000000 0.000000 0.015401 0.000000
# 6 0.000000 0.000000 0.000000 0.000000 0.000000 0.081033
#
#
# Mechanical properties :
#
#
# Convention : Reuss Voigt Hill
#
# Bulk Modulus (GPa) = 37.33353 67.97456 52.65405
# Shear Modulus (GPa) = 23.32379 41.11935 32.22157
#
# Velocity S-wave (km/s) = 3.06358 4.06773 3.60083
# Velocity P-wave (km/s) = 5.24758 7.02958 6.20290
#
# Compressibility (1/GPa) = 0.02678557
#
# Stress axis : x y z
#
# Youngs Moduli (GPa) = 26.01374 150.27721 79.78414
#
# Poissons Ratio (x) = -0.13274 1.06443
# Poissons Ratio (y) = -0.02298 0.23646
# Poissons Ratio (z) = 0.34706 0.44539
#
# Static dielectric constant tensor:
#      x y z
#    x 2.269350 0.000000 0.000000 
#    y 0.000000 1.183540 0.000000 
#    z 0.000000 0.000000 1.892930 
# 
# From -- ./inp_files/12080.got.cif
#   From: 2010.05.17/outbox.cif.g08.bks.cpg/sg62_7_cif.got.tgz:12080.got - 2010.06.03 15:25:27.
