data_PCOD9465366
_publ_section_title
;
Structure prediction by ZEFSAII (Michael W. Deem and Ramdas Pophale) SiO2 
 PCOD9465366
Probable space group: P N M A
;
_chemical_formula_sum "Si O2"
_cell_formula_units_Z 64
_cell_length_a 27.748350
_cell_length_b 18.339965
_cell_length_c 6.610677
_cell_angle_alpha 90.000000
_cell_angle_beta 90.000000
_cell_angle_gamma 90.000000
_cell_volume 3364.198433
_symmetry_space_group_name_H-M "P N M A"
_symmetry_group_IT_number 62
_symmetry_cell_setting 'orthorhombic'
loop_
_space_group_symop_operation_xyz
x,y,z
1/2-x,-y,1/2+z
1/2+x,1/2-y,1/2-z
-x,1/2+y,-z
-x,-y,-z
1/2+x,y,1/2-z
1/2-x,1/2+y,1/2+z
x,1/2-y,z
loop_
_atom_site_type_symbol
_atom_site_label
_atom_site_fract_x
_atom_site_fract_y
_atom_site_fract_z
Si Si1 0.860447 0.665800 0.393887
Si Si2 0.180139 0.447461 0.885000
Si Si3 0.392756 0.442121 0.602919
Si Si4 0.325090 0.166834 0.819479
Si Si5 0.563617 0.447201 0.065099
Si Si6 0.248674 0.170242 0.474803
Si Si7 0.278733 0.434421 0.131979
Si Si8 0.525783 0.960310 0.688438
O O1 0.875852 0.750000 0.368552
O O2 0.898253 0.615967 0.515560
O O3 0.808577 0.666903 0.504136
O O4 0.848052 0.624944 0.182324
O O5 0.144907 0.502248 0.000502
O O6 0.227941 0.436898 0.016988
O O7 0.198461 0.487520 0.680247
O O8 0.365634 0.371561 0.685392
O O9 0.415451 0.488554 0.789862
O O10 0.430858 0.420890 0.428204
O O11 0.336364 0.250000 0.872132
O O12 0.275467 0.167019 0.689762
O O13 0.315506 0.114651 0.007425
O O14 0.515846 0.419705 0.184333
O O15 0.547846 0.483191 0.851803
O O16 0.261101 0.250000 0.384326
O O17 0.268567 0.105386 0.341898
O O18 0.500000 0.000000 0.500000
#
# Coordination Sequence:
#
# PCOD9465366 Si02
#       8
#     8   8   8   8   8   8   8   8
#     4  11  22  38  58  86 125 160 199 251 302 362
#     4  12  22  35  57  87 118 159 211 247 291 353
#     4  11  21  38  62  92 117 150 198 250 298 357
#     4  11  23  38  56  84 122 162 202 244 296 356
#     4  10  20  40  66  91 115 151 199 245 307 366
#     4  10  21  38  56  82 123 168 203 241 298 356
#     4  12  22  37  55  83 119 168 206 256 286 341
#     4   9  20  38  67  92 115 144 192 251 305 361
#
# _framework density 19.023847
#
# number of rings (size 3 to 8) (size 9 to 14) (size 15 to 20)
#    0.000    1.250    3.750    3.375    0.000    0.500 
#    0.000    1.250    0.000    6.750    0.000    0.000 
#    0.000    0.000    0.000    0.000    0.000    0.000 
#
# Total GULP energy -357214.979737 kJ/mol
# GULP energy per Si atom -5581.484058 kJ/mol
# Density = 1.898055 g / cm^3
# Si number density = 19.023847 Si / 1000 Ang^3
#
#
#
# Elastic Constant Matrix: (Units=GPa)
#
#
# Indices 1 2 3 4 5 6 
#
# 1 69.4107 17.0437 19.0162 0.0000 0.0000 0.0000
# 2 17.0437 71.3166 17.2531 0.0000 0.0000 0.0000
# 3 19.0162 17.2531 72.8181 0.0000 0.0000 0.0000
# 4 0.0000 0.0000 0.0000 21.3063 0.0000 0.0000
# 5 0.0000 0.0000 0.0000 0.0000 41.6349 0.0000
# 6 0.0000 0.0000 0.0000 0.0000 0.0000 17.2145
#
#
#
# Elastic Compliance Matrix: (Units=1/GPa)
#
#
# Indices 1 2 3 4 5 6 
#
# 1 0.016101 -0.003003 -0.003493 0.000000 0.000000 0.000000
# 2 -0.003003 0.015435 -0.002873 0.000000 0.000000 0.000000
# 3 -0.003493 -0.002873 0.015326 0.000000 0.000000 0.000000
# 4 0.000000 0.000000 0.000000 0.046935 0.000000 0.000000
# 5 0.000000 0.000000 0.000000 0.000000 0.024018 0.000000
# 6 0.000000 0.000000 0.000000 0.000000 0.000000 0.058091
#
#
# Mechanical properties :
#
#
# Convention : Reuss Voigt Hill
#
# Bulk Modulus (GPa) = 35.55714 35.57462 35.56588
# Shear Modulus (GPa) = 24.50765 26.71330 25.61048
#
# Velocity S-wave (km/s) = 3.59313 3.75133 3.67308
# Velocity P-wave (km/s) = 5.99546 6.12405 6.06009
#
# Compressibility (1/GPa) = 0.02812375
#
# Stress axis : x y z
#
# Youngs Moduli (GPa) = 62.10634 64.78941 65.24950
#
# Poissons Ratio (x) = 0.19456 0.22794
# Poissons Ratio (y) = 0.18650 0.18745
# Poissons Ratio (z) = 0.21696 0.18613
#
# Static dielectric constant tensor:
#      x y z
#    x 1.694040 0.000000 0.000000 
#    y 0.000000 1.651360 0.000000 
#    z 0.000000 0.000000 1.680150 
# 
# From -- ./inp_files/3701.got.cif
#   From: 2010.05.17/outbox.cif.g08.bks.cpg/sg62_2_cif.got.tgz:3701.got - 2010.06.03 15:25:27.
