data_PCOD9465338
_publ_section_title
;
Structure prediction by ZEFSAII (Michael W. Deem and Ramdas Pophale) SiO2 
 PCOD9465338
Probable space group: P N M A
;
_chemical_formula_sum "Si O2"
_cell_formula_units_Z 44
_cell_length_a 11.030304
_cell_length_b 14.420756
_cell_length_c 13.194148
_cell_angle_alpha 90.000000
_cell_angle_beta 90.000000
_cell_angle_gamma 90.000000
_cell_volume 2098.731408
_symmetry_space_group_name_H-M "P N M A"
_symmetry_group_IT_number 62
_symmetry_cell_setting 'orthorhombic'
loop_
_space_group_symop_operation_xyz
x,y,z
1/2-x,-y,1/2+z
1/2+x,1/2-y,1/2-z
-x,1/2+y,-z
-x,-y,-z
1/2+x,y,1/2-z
1/2-x,1/2+y,1/2+z
x,1/2-y,z
loop_
_atom_site_type_symbol
_atom_site_label
_atom_site_fract_x
_atom_site_fract_y
_atom_site_fract_z
Si Si1 0.134205 0.750000 0.822823
Si Si2 0.269595 0.890946 0.521262
Si Si3 0.500000 0.109988 0.008434
Si Si4 0.634205 0.250000 0.322823
Si Si5 0.730405 0.609054 0.521262
Si Si6 0.359927 0.250000 0.633466
Si Si7 0.859926 0.750000 0.133466
Si Si8 0.500000 0.750000 0.171845
O O1 0.250000 0.750000 0.750000
O O2 0.148066 0.840632 0.895312
O O3 1.000000 0.750000 0.775659
O O4 0.130952 0.868236 0.554745
O O5 0.351934 0.840632 0.604688
O O6 0.285185 0.000000 0.500000
O O7 0.296132 0.838498 0.415738
O O8 0.500000 0.161520 0.900463
O O9 0.630952 0.131764 0.054745
O O10 0.500000 0.000000 0.000000
O O11 0.703868 0.661502 0.415738
O O12 0.500000 0.250000 0.594082
O O13 0.115346 0.250000 0.746857
O O14 0.615346 0.750000 0.246857
#
# Coordination Sequence:
#
# PCOD9465338 Si02
#       8
#     4   8   8   4   8   4   4   4
#     4  11  26  44  68  97 129 176 223 264 328 398
#     4  10  21  42  64  90 131 170 211 267 329 381
#     4  10  22  38  62  91 127 172 205 260 335 380
#     4  11  26  44  68  97 129 176 223 264 328 398
#     4  10  21  42  64  90 131 170 211 267 329 381
#     4   9  21  36  60  92 117 157 210 266 319 368
#     4   9  21  36  60  92 117 157 210 266 319 368
#     4  10  20  40  60  92 122 158 216 268 302 392
#
# _framework density 20.965046000000001
#
# number of rings (size 3 to 8) (size 9 to 14) (size 15 to 20)
#    0.545    1.455    0.000    4.364    2.545    5.818 
#   13.091    0.000    0.000    0.000    0.000    0.000 
#    0.000    0.000    0.000    0.000    0.000    0.000 
#
# Total GULP energy -245311.248371 kJ/mol
# GULP energy per Si atom -5575.255645 kJ/mol
# Density = 2.091733 g / cm^3
# Si number density = 20.965046 Si / 1000 Ang^3
#
#
#
# Elastic Constant Matrix: (Units=GPa)
#
#
# Indices 1 2 3 4 5 6 
#
# 1 143.8670 31.8661 14.1761 0.0000 0.0000 0.0000
# 2 31.8661 181.0547 55.1493 0.0000 0.0000 0.0000
# 3 14.1761 55.1493 75.1113 0.0000 0.0000 0.0000
# 4 0.0000 0.0000 0.0000 -0.9629 0.0000 0.0000
# 5 0.0000 0.0000 0.0000 0.0000 47.3042 0.0000
# 6 0.0000 0.0000 0.0000 0.0000 0.0000 24.2006
#
#
#
# Elastic Compliance Matrix: (Units=1/GPa)
#
#
# Indices 1 2 3 4 5 6 
#
# 1 0.007251 -0.001107 -0.000556 0.000000 0.000000 0.000000
# 2 -0.001107 0.007283 -0.005139 0.000000 0.000000 0.000000
# 3 -0.000556 -0.005139 0.017191 0.000000 0.000000 0.000000
# 4 0.000000 0.000000 0.000000 -1.038555 0.000000 0.000000
# 5 0.000000 0.000000 0.000000 0.000000 0.021140 0.000000
# 6 0.000000 0.000000 0.000000 0.000000 0.000000 0.041321
#
#
# Mechanical properties :
#
#
# Convention : Reuss Voigt Hill
#
# Bulk Modulus (GPa) = 55.17904 66.93513 61.05709
# Shear Modulus (GPa) = -5.40701 34.03116 14.31207
#
# Velocity S-wave (km/s) = -1.60769 4.03331 2.61562
# Velocity P-wave (km/s) = 4.78858 7.32710 6.18938
#
# Compressibility (1/GPa) = 0.01812282
#
# Stress axis : x y z
#
# Youngs Moduli (GPa) = 137.91586 137.30123 58.16832
#
# Poissons Ratio (x) = 0.15197 0.03233
# Poissons Ratio (y) = 0.15266 0.29891
# Poissons Ratio (z) = 0.07665 0.70555
#
# Static dielectric constant tensor:
#      x y z
#    x 1.853650 0.000000 0.000000 
#    y 0.000000 1.700300 0.000000 
#    z 0.000000 0.000000 1.743850 
# 
# From -- ./inp_files/16904.got.cif
#   From: 2010.05.17/outbox.cif.g08.bks.cpg/sg62_9_cif.got.tgz:16904.got - 2010.06.03 15:25:27.
