data_PCOD9465010
_publ_section_title
;
Structure prediction by ZEFSAII (Michael W. Deem and Ramdas Pophale) SiO2 
 PCOD9465010
Probable space group: P N M A
;
_chemical_formula_sum "Si O2"
_cell_formula_units_Z 64
_cell_length_a 21.807789
_cell_length_b 13.913902
_cell_length_c 9.395722
_cell_angle_alpha 90.000000
_cell_angle_beta 90.000000
_cell_angle_gamma 90.000000
_cell_volume 2850.957447
_symmetry_space_group_name_H-M "P N M A"
_symmetry_group_IT_number 62
_symmetry_cell_setting 'orthorhombic'
loop_
_space_group_symop_operation_xyz
x,y,z
1/2-x,-y,1/2+z
1/2+x,1/2-y,1/2-z
-x,1/2+y,-z
-x,-y,-z
1/2+x,y,1/2-z
1/2-x,1/2+y,1/2+z
x,1/2-y,z
loop_
_atom_site_type_symbol
_atom_site_label
_atom_site_fract_x
_atom_site_fract_y
_atom_site_fract_z
Si Si1 0.034286 0.861148 0.370329
Si Si2 0.544547 0.456442 0.619779
Si Si3 0.256122 0.135104 0.088731
Si Si4 0.861927 0.357656 0.824811
Si Si5 0.378791 0.573261 0.623373
Si Si6 0.226762 0.358493 0.776002
Si Si7 0.131499 0.998074 0.647269
Si Si8 0.436135 0.866477 0.917345
O O1 0.020749 0.750000 0.359391
O O2 0.105720 0.870145 0.330811
O O3 0.005406 0.885399 0.523542
O O4 0.997541 0.905657 0.238260
O O5 0.500000 0.500000 0.500000
O O6 0.591599 0.391386 0.525322
O O7 0.584766 0.523506 0.723662
O O8 0.260989 0.250000 0.094674
O O9 0.190953 0.105046 0.159832
O O10 0.320604 0.088644 0.130445
O O11 0.244434 0.099807 0.928229
O O12 0.881075 0.250000 0.876475
O O13 0.878271 0.457514 0.899194
O O14 0.789195 0.356868 0.812879
O O15 0.421145 0.605616 0.755333
O O16 0.206079 0.250000 0.798314
O O17 0.175340 0.418100 0.703276
O O18 0.100499 0.054514 0.513535
O O19 0.422409 0.750000 0.934856
#
# Coordination Sequence:
#
# PCOD9465010 Si02
#       8
#     8   8   8   8   8   8   8   8
#     4   9  20  40  62  89 125 165 213 264 313 379
#     4  11  23  41  64  95 125 173 219 258 319 396
#     4  11  24  41  63  95 131 166 211 270 329 386
#     4  10  20  37  62  89 122 163 210 259 314 380
#     4  12  22  40  65  90 130 166 213 266 330 374
#     4  10  20  37  63  92 121 164 213 256 316 389
#     4  11  22  41  67  90 129 173 211 263 325 387
#     4  10  23  40  62  96 126 162 216 265 317 383
#
# _framework density 22.448599000000002
#
# number of rings (size 3 to 8) (size 9 to 14) (size 15 to 20)
#    0.000    1.500    3.750    1.500    0.000    2.000 
#    2.250    1.250    0.000    0.000    0.000    0.000 
#    0.000    0.000    0.000    0.000    0.000    0.000 
#
# Total GULP energy -356578.083917 kJ/mol
# GULP energy per Si atom -5571.532561 kJ/mol
# Density = 2.239750 g / cm^3
# Si number density = 22.448599 Si / 1000 Ang^3
#
#
#
# Elastic Constant Matrix: (Units=GPa)
#
#
# Indices 1 2 3 4 5 6 
#
# 1 61.9263 15.4844 13.8491 0.0000 0.0000 0.0000
# 2 15.4844 71.4323 14.8899 0.0000 0.0000 0.0000
# 3 13.8491 14.8899 86.7217 0.0000 0.0000 0.0000
# 4 0.0000 0.0000 0.0000 21.9623 0.0000 0.0000
# 5 0.0000 0.0000 0.0000 0.0000 24.0792 0.0000
# 6 0.0000 0.0000 0.0000 0.0000 0.0000 15.3011
#
#
#
# Elastic Compliance Matrix: (Units=1/GPa)
#
#
# Indices 1 2 3 4 5 6 
#
# 1 0.017476 -0.003326 -0.002220 0.000000 0.000000 0.000000
# 2 -0.003326 0.015152 -0.002070 0.000000 0.000000 0.000000
# 3 -0.002220 -0.002070 0.012241 0.000000 0.000000 0.000000
# 4 0.000000 0.000000 0.000000 0.045533 0.000000 0.000000
# 5 0.000000 0.000000 0.000000 0.000000 0.041530 0.000000
# 6 0.000000 0.000000 0.000000 0.000000 0.000000 0.065355
#
#
# Mechanical properties :
#
#
# Convention : Reuss Voigt Hill
#
# Bulk Modulus (GPa) = 33.74129 34.28078 34.01104
# Shear Modulus (GPa) = 22.48233 23.99232 23.23732
#
# Velocity S-wave (km/s) = 3.16809 3.27275 3.22084
# Velocity P-wave (km/s) = 5.33343 5.43922 5.38658
#
# Compressibility (1/GPa) = 0.02963728
#
# Stress axis : x y z
#
# Youngs Moduli (GPa) = 57.22064 65.99902 81.69179
#
# Poissons Ratio (x) = 0.21949 0.18135
# Poissons Ratio (y) = 0.19029 0.16914
# Poissons Ratio (z) = 0.12702 0.13665
#
# Static dielectric constant tensor:
#      x y z
#    x 1.922640 0.000000 0.000000 
#    y 0.000000 1.854940 0.000000 
#    z 0.000000 0.000000 1.859920 
# 
# From -- ./inp_files/9479.got.cif
#   From: 2010.05.17/outbox.cif.g08.bks.cpg/sg62_5_cif.got.tgz:9479.got - 2010.06.03 15:25:27.
