data_PCOD9465653
_publ_section_title
;
Structure prediction by ZEFSAII (Michael W. Deem and Ramdas Pophale) SiO2 
 PCOD9465653
Probable space group: P N M A
;
_chemical_formula_sum "Si O2"
_cell_formula_units_Z 28
_cell_length_a 5.105697
_cell_length_b 11.091939
_cell_length_c 24.459999
_cell_angle_alpha 90.000000
_cell_angle_beta 90.000000
_cell_angle_gamma 90.000000
_cell_volume 1385.220612
_symmetry_space_group_name_H-M "P N M A"
_symmetry_group_IT_number 62
_symmetry_cell_setting 'orthorhombic'
loop_
_space_group_symop_operation_xyz
x,y,z
1/2-x,-y,1/2+z
1/2+x,1/2-y,1/2-z
-x,1/2+y,-z
-x,-y,-z
1/2+x,y,1/2-z
1/2-x,1/2+y,1/2+z
x,1/2-y,z
loop_
_atom_site_type_symbol
_atom_site_label
_atom_site_fract_x
_atom_site_fract_y
_atom_site_fract_z
Si Si1 0.272392 0.750000 0.714134
Si Si2 0.345914 0.387670 0.893137
Si Si3 0.320121 0.883718 0.509751
Si Si4 0.677426 0.037341 0.371118
O O1 0.477139 0.750000 0.763823
O O2 0.323282 0.632898 0.677145
O O3 0.283717 0.250000 0.878572
O O4 0.605010 0.434706 0.864162
O O5 0.103877 0.475119 0.879549
O O6 0.383741 0.389334 0.959517
O O7 0.447687 0.750000 0.503685
O O8 0.236856 0.895450 0.572523
O O9 0.500000 0.000000 0.500000
#
# Coordination Sequence:
#
# PCOD9465653 Si02
#       4
#     4   8   8   8
#     4  12  26  44  66  90 118 164 222 276 308 346
#     4  10  21  36  62  94 128 160 195 241 313 395
#     4   9  18  34  56  92 128 167 201 243 309 390
#     4  11  21  40  61  88 123 164 204 259 309 361
#
# _framework density 20.213387000000001
#
# number of rings (size 3 to 8) (size 9 to 14) (size 15 to 20)
#    0.000    1.714    1.429    3.429    0.000    1.143 
#    2.571    2.857    0.000   17.143    0.000    0.000 
#    0.000    0.000    0.000    0.000    0.000    0.000 
#
# Total GULP energy -156232.736691 kJ/mol
# GULP energy per Si atom -5579.740596 kJ/mol
# Density = 2.016738 g / cm^3
# Si number density = 20.213387 Si / 1000 Ang^3
#
#
#
# Elastic Constant Matrix: (Units=GPa)
#
#
# Indices 1 2 3 4 5 6 
#
# 1 45.4251 -8.7303 -3.2443 0.0000 0.0000 0.0000
# 2 -8.7303 110.1855 24.4498 0.0000 0.0000 0.0000
# 3 -3.2443 24.4498 48.8980 0.0000 0.0000 0.0000
# 4 0.0000 0.0000 0.0000 34.9036 0.0000 0.0000
# 5 0.0000 0.0000 0.0000 0.0000 23.0706 0.0000
# 6 0.0000 0.0000 0.0000 0.0000 0.0000 30.1556
#
#
#
# Elastic Compliance Matrix: (Units=1/GPa)
#
#
# Indices 1 2 3 4 5 6 
#
# 1 0.022374 0.001623 0.000673 0.000000 0.000000 0.000000
# 2 0.001623 0.010326 -0.005055 0.000000 0.000000 0.000000
# 3 0.000673 -0.005055 0.023023 0.000000 0.000000 0.000000
# 4 0.000000 0.000000 0.000000 0.028650 0.000000 0.000000
# 5 0.000000 0.000000 0.000000 0.000000 0.043345 0.000000
# 6 0.000000 0.000000 0.000000 0.000000 0.000000 0.033161
#
#
# Mechanical properties :
#
#
# Convention : Reuss Voigt Hill
#
# Bulk Modulus (GPa) = 19.91831 25.49545 22.70688
# Shear Modulus (GPa) = 27.30242 30.42819 28.86530
#
# Velocity S-wave (km/s) = 3.67919 3.88409 3.78303
# Velocity P-wave (km/s) = 5.28431 5.72323 5.50815
#
# Compressibility (1/GPa) = 0.05020506
#
# Stress axis : x y z
#
# Youngs Moduli (GPa) = 44.69412 96.84261 43.43445
#
# Poissons Ratio (x) = -0.15722 -0.02922
# Poissons Ratio (y) = -0.07256 0.21958
# Poissons Ratio (z) = -0.03007 0.48959
#
# Static dielectric constant tensor:
#      x y z
#    x 1.702520 0.000000 0.000000 
#    y 0.000000 1.733170 0.000000 
#    z 0.000000 0.000000 1.731360 
# 
# From -- ./inp_files/28102.got.cif
#   From: 2010.05.17/outbox.cif.g08.bks.cpg/sg62_15_cif.got.tgz:28102.got - 2010.06.03 15:25:27.
