data_PCOD9465483
_publ_section_title
;
Structure prediction by ZEFSAII (Michael W. Deem and Ramdas Pophale) SiO2 
 PCOD9465483
Probable space group: P N M A
;
_chemical_formula_sum "Si O2"
_cell_formula_units_Z 44
_cell_length_a 15.059996
_cell_length_b 12.624029
_cell_length_c 8.190706
_cell_angle_alpha 90.000000
_cell_angle_beta 90.000000
_cell_angle_gamma 90.000000
_cell_volume 1557.199220
_symmetry_space_group_name_H-M "P N M A"
_symmetry_group_IT_number 62
_symmetry_cell_setting 'orthorhombic'
loop_
_space_group_symop_operation_xyz
x,y,z
1/2-x,-y,1/2+z
1/2+x,1/2-y,1/2-z
-x,1/2+y,-z
-x,-y,-z
1/2+x,y,1/2-z
1/2-x,1/2+y,1/2+z
x,1/2-y,z
loop_
_atom_site_type_symbol
_atom_site_label
_atom_site_fract_x
_atom_site_fract_y
_atom_site_fract_z
Si Si1 0.382501 0.750000 0.654013
Si Si2 0.284903 0.750000 0.201323
Si Si3 0.536598 0.250000 0.002765
Si Si4 0.284272 0.436268 0.935913
Si Si5 0.391271 0.250000 0.540284
Si Si6 0.038203 0.925028 0.298423
Si Si7 0.683118 0.750000 0.805697
Si Si8 0.095820 0.460200 0.935840
O O1 0.286978 0.750000 0.737661
O O2 0.396191 0.650318 0.534772
O O3 0.443972 0.750000 0.809315
O O4 0.380389 0.750000 0.121607
O O5 0.260674 0.647522 0.309128
O O6 0.212587 0.750000 0.064422
O O7 0.481119 0.148327 0.952136
O O8 0.371730 0.487455 0.850410
O O9 0.195224 0.507415 0.963282
O O10 0.314380 0.358732 0.083708
O O11 0.430317 0.153658 0.650275
O O12 0.389091 0.250000 0.342011
O O13 0.939329 0.964142 0.250457
O O14 0.000000 0.500000 0.000000
#
# Coordination Sequence:
#
# PCOD9465483 Si02
#       8
#     4   4   4   8   4   8   4   8
#     4  10  22  37  64  94 120 159 207 262 306 365
#     4   9  14  29  57  85 114 156 199 242 296 365
#     4  11  17  33  62  92 121 164 211 253 303 376
#     4   9  19  35  55  83 118 159 204 252 303 366
#     4   9  17  29  54  92 119 157 206 247 309 366
#     4  10  21  34  59  85 120 168 205 249 313 374
#     4   9  16  30  55  89 122 150 201 260 304 358
#     4  11  23  43  64  90 125 164 205 253 317 369
#
# _framework density 28.255858
#
# number of rings (size 3 to 8) (size 9 to 14) (size 15 to 20)
#    0.000    2.182    2.727    3.273    0.000    2.909 
#    0.000    6.364    0.000    0.000    0.000    0.000 
#    0.000    0.000    0.000    0.000    0.000    0.000 
#
# Total GULP energy -245247.493201 kJ/mol
# GULP energy per Si atom -5573.806664 kJ/mol
# Density = 2.819155 g / cm^3
# Si number density = 28.255858 Si / 1000 Ang^3
#
#
#
# Elastic Constant Matrix: (Units=GPa)
#
#
# Indices 1 2 3 4 5 6 
#
# 1 181.8386 35.0666 95.1030 0.0000 0.0000 0.0000
# 2 35.0666 56.8382 23.1530 0.0000 0.0000 0.0000
# 3 95.1030 23.1530 153.8033 0.0000 0.0000 0.0000
# 4 0.0000 0.0000 0.0000 19.5462 0.0000 0.0000
# 5 0.0000 0.0000 0.0000 0.0000 69.8735 0.0000
# 6 0.0000 0.0000 0.0000 0.0000 0.0000 39.4566
#
#
#
# Elastic Compliance Matrix: (Units=1/GPa)
#
#
# Indices 1 2 3 4 5 6 
#
# 1 0.008699 -0.003383 -0.004869 0.000000 0.000000 0.000000
# 2 -0.003383 0.020059 -0.000928 0.000000 0.000000 0.000000
# 3 -0.004869 -0.000928 0.009652 0.000000 0.000000 0.000000
# 4 0.000000 0.000000 0.000000 0.051161 0.000000 0.000000
# 5 0.000000 0.000000 0.000000 0.000000 0.014312 0.000000
# 6 0.000000 0.000000 0.000000 0.000000 0.000000 0.025344
#
#
# Mechanical properties :
#
#
# Convention : Reuss Voigt Hill
#
# Bulk Modulus (GPa) = 49.87648 77.68059 63.77853
# Shear Modulus (GPa) = 32.41070 41.71910 37.06490
#
# Velocity S-wave (km/s) = 3.39048 3.84666 3.62575
# Velocity P-wave (km/s) = 5.74606 6.87609 6.33632
#
# Compressibility (1/GPa) = 0.02004953
#
# Stress axis : x y z
#
# Youngs Moduli (GPa) = 114.96230 49.85320 103.60121
#
# Poissons Ratio (x) = 0.16866 0.50447
# Poissons Ratio (y) = 0.38892 0.09611
# Poissons Ratio (z) = 0.55979 0.04625
#
# Static dielectric constant tensor:
#      x y z
#    x 2.619430 0.000000 0.000000 
#    y 0.000000 2.026540 0.000000 
#    z 0.000000 0.000000 2.759510 
# 
# From -- ./inp_files/6409.got.cif
#   From: 2010.05.17/outbox.cif.g08.bks.cpg/sg62_4_cif.got.tgz:6409.got - 2010.06.03 15:25:27.
