data_PCOD9465549
_publ_section_title
;
Structure prediction by ZEFSAII (Michael W. Deem and Ramdas Pophale) SiO2 
 PCOD9465549
Probable space group: P N M A
;
_chemical_formula_sum "Si O2"
_cell_formula_units_Z 64
_cell_length_a 8.654684
_cell_length_b 22.378658
_cell_length_c 18.805749
_cell_angle_alpha 90.000000
_cell_angle_beta 90.000000
_cell_angle_gamma 90.000000
_cell_volume 3642.301478
_symmetry_space_group_name_H-M "P N M A"
_symmetry_group_IT_number 62
_symmetry_cell_setting 'orthorhombic'
loop_
_space_group_symop_operation_xyz
x,y,z
1/2-x,-y,1/2+z
1/2+x,1/2-y,1/2-z
-x,1/2+y,-z
-x,-y,-z
1/2+x,y,1/2-z
1/2-x,1/2+y,1/2+z
x,1/2-y,z
loop_
_atom_site_type_symbol
_atom_site_label
_atom_site_fract_x
_atom_site_fract_y
_atom_site_fract_z
Si Si1 0.704958 0.141472 0.841942
Si Si2 0.736616 0.466163 0.474752
Si Si3 0.408862 0.992671 0.157701
Si Si4 0.189535 0.388763 0.893955
Si Si5 0.095786 0.819538 0.033539
Si Si6 0.228794 0.504844 0.809434
Si Si7 0.889766 0.318634 0.717376
Si Si8 0.893744 0.074446 0.065037
O O1 0.759904 0.172927 0.913433
O O2 0.568081 0.175281 0.801704
O O3 0.845443 0.142284 0.785816
O O4 0.643561 0.075338 0.855904
O O5 0.862369 0.471729 0.413225
O O6 0.773238 0.420542 0.538882
O O7 0.573046 0.444975 0.441688
O O8 0.699330 0.529944 0.511680
O O9 0.589060 0.996349 0.176880
O O10 0.313686 0.012176 0.227491
O O11 0.149533 0.444569 0.842001
O O12 0.294452 0.344181 0.849060
O O13 0.044051 0.353654 0.925829
O O14 0.062081 0.750000 0.022012
O O15 0.122745 0.858450 0.962929
O O16 0.167518 0.559188 0.857162
O O17 0.852166 0.250000 0.732506
#
# Coordination Sequence:
#
# PCOD9465549 Si02
#       8
#     8   8   8   8   8   8   8   8
#     4  12  23  36  49  76 105 149 187 221 258 316
#     4   9  19  34  57  75 109 136 173 221 271 319
#     4  12  21  36  55  82 110 146 176 223 278 324
#     4  10  21  36  53  80 103 144 180 221 266 312
#     4  11  22  37  57  78 107 146 184 219 264 316
#     4  11  23  34  55  79 111 142 179 223 274 320
#     4  12  23  36  49  70 107 148 189 223 255 302
#     4   9  19  36  54  79 106 140 178 220 268 322
#
# _framework density 17.571308999999999
#
# number of rings (size 3 to 8) (size 9 to 14) (size 15 to 20)
#    0.000    1.250    3.750    3.750    1.750    3.000 
#    0.000    0.000    0.000    0.000    0.000    8.750 
#    0.000    0.000    0.000    0.000    0.000    0.000 
#
# Total GULP energy -357581.178412 kJ/mol
# GULP energy per Si atom -5587.205913 kJ/mol
# Density = 1.753132 g / cm^3
# Si number density = 17.571309 Si / 1000 Ang^3
#
#
#
# Elastic Constant Matrix: (Units=GPa)
#
#
# Indices 1 2 3 4 5 6 
#
# 1 33.8378 15.7507 3.1274 0.0000 0.0000 0.0000
# 2 15.7507 56.2590 13.6297 0.0000 0.0000 0.0000
# 3 3.1274 13.6297 48.5792 0.0000 0.0000 0.0000
# 4 0.0000 0.0000 0.0000 21.4732 0.0000 0.0000
# 5 0.0000 0.0000 0.0000 0.0000 30.9942 0.0000
# 6 0.0000 0.0000 0.0000 0.0000 0.0000 22.8906
#
#
#
# Elastic Compliance Matrix: (Units=1/GPa)
#
#
# Indices 1 2 3 4 5 6 
#
# 1 0.033993 -0.009642 0.000517 0.000000 0.000000 0.000000
# 2 -0.009642 0.021806 -0.005497 0.000000 0.000000 0.000000
# 3 0.000517 -0.005497 0.022094 0.000000 0.000000 0.000000
# 4 0.000000 0.000000 0.000000 0.046570 0.000000 0.000000
# 5 0.000000 0.000000 0.000000 0.000000 0.032264 0.000000
# 6 0.000000 0.000000 0.000000 0.000000 0.000000 0.043686
#
#
# Mechanical properties :
#
#
# Convention : Reuss Voigt Hill
#
# Bulk Modulus (GPa) = 20.55578 22.63240 21.59409
# Shear Modulus (GPa) = 20.33557 22.14950 21.24253
#
# Velocity S-wave (km/s) = 3.40563 3.55427 3.48074
# Velocity P-wave (km/s) = 5.21424 5.45455 5.33575
#
# Compressibility (1/GPa) = 0.04864812
#
# Stress axis : x y z
#
# Youngs Moduli (GPa) = 29.41764 45.85838 45.26107
#
# Poissons Ratio (x) = 0.44218 -0.02340
# Poissons Ratio (y) = 0.28365 0.24882
# Poissons Ratio (z) = -0.01521 0.25210
#
# Static dielectric constant tensor:
#      x y z
#    x 1.634500 0.000000 0.000000 
#    y 0.000000 1.587090 0.000000 
#    z 0.000000 0.000000 1.612350 
# 
# From -- ./inp_files/22635.got.cif
#   From: 2010.05.17/outbox.cif.g08.bks.cpg/sg62_12_cif.got.tgz:22635.got - 2010.06.03 15:25:27.
