data_PCOD9465388
_publ_section_title
;
Structure prediction by ZEFSAII (Michael W. Deem and Ramdas Pophale) SiO2 
 PCOD9465388
Probable space group: P N M A
;
_chemical_formula_sum "Si O2"
_cell_formula_units_Z 64
_cell_length_a 13.041235
_cell_length_b 17.011021
_cell_length_c 15.496736
_cell_angle_alpha 90.000000
_cell_angle_beta 90.000000
_cell_angle_gamma 90.000000
_cell_volume 3437.869097
_symmetry_space_group_name_H-M "P N M A"
_symmetry_group_IT_number 62
_symmetry_cell_setting 'orthorhombic'
loop_
_space_group_symop_operation_xyz
x,y,z
1/2-x,-y,1/2+z
1/2+x,1/2-y,1/2-z
-x,1/2+y,-z
-x,-y,-z
1/2+x,y,1/2-z
1/2-x,1/2+y,1/2+z
x,1/2-y,z
loop_
_atom_site_type_symbol
_atom_site_label
_atom_site_fract_x
_atom_site_fract_y
_atom_site_fract_z
Si Si1 0.592021 0.050509 0.890311
Si Si2 0.625237 0.157285 0.304566
Si Si3 0.551720 0.968224 0.710970
Si Si4 0.734237 0.657756 0.456369
Si Si5 0.515818 0.926254 0.435326
Si Si6 0.735911 0.408857 0.142322
Si Si7 0.870684 0.446881 0.560146
Si Si8 0.683913 0.342942 0.499496
O O1 0.681807 0.114445 0.896808
O O2 0.479224 0.086609 0.908300
O O3 0.587797 0.001606 0.802387
O O4 0.611832 0.989902 0.968569
O O5 0.601585 0.250000 0.307571
O O6 0.524776 0.105500 0.286060
O O7 0.702007 0.138068 0.226755
O O8 0.672004 0.134762 0.397988
O O9 0.650430 0.941699 0.656584
O O10 0.495254 0.037595 0.659458
O O11 0.726493 0.750000 0.438886
O O12 0.624832 0.614948 0.446987
O O13 0.768139 0.642727 0.555676
O O14 0.422678 0.867806 0.456352
O O15 0.500000 0.000000 0.500000
O O16 0.663501 0.484222 0.125688
O O17 0.777700 0.387483 0.544792
O O18 0.699126 0.250000 0.503908
#
# Coordination Sequence:
#
# PCOD9465388 Si02
#       8
#     8   8   8   8   8   8   8   8
#     4  10  23  39  64  88 122 165 217 252 298 371
#     4  11  24  38  59  98 133 158 197 256 320 371
#     4  12  23  38  66  92 123 163 208 260 307 371
#     4  11  24  42  64  91 125 164 208 261 316 371
#     4  12  21  40  65  93 118 163 214 248 309 376
#     4  11  21  39  66  90 127 162 204 251 310 380
#     4  10  20  41  62  92 119 169 215 245 299 383
#     4  11  22  39  63  95 130 158 201 263 317 363
#
# _framework density 18.616181999999998
#
# number of rings (size 3 to 8) (size 9 to 14) (size 15 to 20)
#    0.000    1.000    5.000    2.250    1.750    2.500 
#    0.000    1.875    0.000    0.000    0.000    0.000 
#    0.000    0.000    0.000    0.000    0.000    0.000 
#
# Total GULP energy -357589.133756 kJ/mol
# GULP energy per Si atom -5587.330215 kJ/mol
# Density = 1.857381 g / cm^3
# Si number density = 18.616182 Si / 1000 Ang^3
#
#
#
# Elastic Constant Matrix: (Units=GPa)
#
#
# Indices 1 2 3 4 5 6 
#
# 1 118.3683 43.6930 5.6111 0.0000 0.0000 0.0000
# 2 43.6930 83.0503 25.5021 0.0000 0.0000 0.0000
# 3 5.6111 25.5021 44.6946 0.0000 0.0000 0.0000
# 4 0.0000 0.0000 0.0000 27.1353 0.0000 0.0000
# 5 0.0000 0.0000 0.0000 0.0000 31.1815 0.0000
# 6 0.0000 0.0000 0.0000 0.0000 0.0000 26.6792
#
#
#
# Elastic Compliance Matrix: (Units=1/GPa)
#
#
# Indices 1 2 3 4 5 6 
#
# 1 0.010669 -0.006307 0.002259 0.000000 0.000000 0.000000
# 2 -0.006307 0.018327 -0.009665 0.000000 0.000000 0.000000
# 3 0.002259 -0.009665 0.027605 0.000000 0.000000 0.000000
# 4 0.000000 0.000000 0.000000 0.036852 0.000000 0.000000
# 5 0.000000 0.000000 0.000000 0.000000 0.032070 0.000000
# 6 0.000000 0.000000 0.000000 0.000000 0.000000 0.037482
#
#
# Mechanical properties :
#
#
# Convention : Reuss Voigt Hill
#
# Bulk Modulus (GPa) = 34.27540 43.96950 39.12245
# Shear Modulus (GPa) = 24.98038 28.41967 26.70002
#
# Velocity S-wave (km/s) = 3.66712 3.91143 3.79124
# Velocity P-wave (km/s) = 6.03174 6.63847 6.34236
#
# Compressibility (1/GPa) = 0.02917544
#
# Stress axis : x y z
#
# Youngs Moduli (GPa) = 93.72842 54.56494 36.22498
#
# Poissons Ratio (x) = 0.34413 -0.08184
# Poissons Ratio (y) = 0.59112 0.35012
# Poissons Ratio (z) = -0.21174 0.52738
#
# Static dielectric constant tensor:
#      x y z
#    x 1.656430 0.000000 0.000000 
#    y 0.000000 1.613840 0.000000 
#    z 0.000000 0.000000 1.647410 
# 
# From -- ./inp_files/18298.got.cif
#   From: 2010.05.17/outbox.cif.g08.bks.cpg/sg62_10_cif.got.tgz:18298.got - 2010.06.03 15:25:27.
