data_PCOD9465606
_publ_section_title
;
Structure prediction by ZEFSAII (Michael W. Deem and Ramdas Pophale) SiO2 
 PCOD9465606
Probable space group: P N M A
;
_chemical_formula_sum "Si O2"
_cell_formula_units_Z 48
_cell_length_a 14.035447
_cell_length_b 9.823490
_cell_length_c 18.009346
_cell_angle_alpha 90.000000
_cell_angle_beta 90.000000
_cell_angle_gamma 90.000000
_cell_volume 2483.075918
_symmetry_space_group_name_H-M "P N M A"
_symmetry_group_IT_number 62
_symmetry_cell_setting 'orthorhombic'
loop_
_space_group_symop_operation_xyz
x,y,z
1/2-x,-y,1/2+z
1/2+x,1/2-y,1/2-z
-x,1/2+y,-z
-x,-y,-z
1/2+x,y,1/2-z
1/2-x,1/2+y,1/2+z
x,1/2-y,z
loop_
_atom_site_type_symbol
_atom_site_label
_atom_site_fract_x
_atom_site_fract_y
_atom_site_fract_z
Si Si1 0.201273 0.907364 0.683101
Si Si2 0.992524 0.471707 0.911004
Si Si3 0.221094 0.594675 0.061866
Si Si4 0.667183 0.593169 0.214699
Si Si5 0.298570 0.897111 0.427772
Si Si6 0.006592 0.100059 0.244119
O O1 0.229816 0.750000 0.671080
O O2 0.099153 0.906382 0.722686
O O3 0.210362 0.995719 0.608450
O O4 0.271008 0.990305 0.736426
O O5 0.093621 0.399273 0.895414
O O6 0.991729 0.584273 0.845687
O O7 0.887195 0.407097 0.905024
O O8 0.000000 0.500000 0.000000
O O9 0.253896 0.750000 0.059595
O O10 0.211946 0.524715 0.981720
O O11 0.666871 0.750000 0.241437
O O12 0.718818 0.595161 0.135218
O O13 0.564201 0.524366 0.219713
O O14 0.289139 0.750000 0.467341
O O15 0.046448 0.250000 0.262986
#
# Coordination Sequence:
#
# PCOD9465606 Si02
#       6
#     8   8   8   8   8   8
#     4  11  23  40  62  88 121 162 205 249 300 360
#     4  10  21  36  57  91 126 159 196 244 300 357
#     4  11  23  38  61  92 123 161 203 249 306 362
#     4  11  23  39  62  91 122 160 203 250 304 358
#     4  10  22  40  61  88 124 163 201 248 303 361
#     4  11  24  41  63  90 122 163 207 250 299 360
#
# _framework density 19.330863999999998
#
# number of rings (size 3 to 8) (size 9 to 14) (size 15 to 20)
#    0.000    1.333    3.333    2.000    0.000    8.667 
#    0.000    0.833    0.000    0.000    0.000    0.000 
#    0.000    0.000    0.000    0.000    0.000    0.000 
#
# Total GULP energy -267379.590131 kJ/mol
# GULP energy per Si atom -5570.408128 kJ/mol
# Density = 1.928687 g / cm^3
# Si number density = 19.330864 Si / 1000 Ang^3
#
#
#
# Elastic Constant Matrix: (Units=GPa)
#
#
# Indices 1 2 3 4 5 6 
#
# 1 61.3262 41.1570 23.7790 0.0000 0.0000 0.0000
# 2 41.1570 187.9541 43.9300 0.0000 0.0000 0.0000
# 3 23.7790 43.9300 62.8774 0.0000 0.0000 0.0000
# 4 0.0000 0.0000 0.0000 29.6242 0.0000 0.0000
# 5 0.0000 0.0000 0.0000 0.0000 32.8919 0.0000
# 6 0.0000 0.0000 0.0000 0.0000 0.0000 -8.4949
#
#
#
# Elastic Compliance Matrix: (Units=1/GPa)
#
#
# Indices 1 2 3 4 5 6 
#
# 1 0.020617 -0.003218 -0.005549 0.000000 0.000000 0.000000
# 2 -0.003218 0.006861 -0.003577 0.000000 0.000000 0.000000
# 3 -0.005549 -0.003577 0.020501 0.000000 0.000000 0.000000
# 4 0.000000 0.000000 0.000000 0.033756 0.000000 0.000000
# 5 0.000000 0.000000 0.000000 0.000000 0.030403 0.000000
# 6 0.000000 0.000000 0.000000 0.000000 0.000000 -0.117718
#
#
# Mechanical properties :
#
#
# Convention : Reuss Voigt Hill
#
# Bulk Modulus (GPa) = 42.93139 58.87663 50.90401
# Shear Modulus (GPa) = 186.06862 24.35703 105.21282
#
# Velocity S-wave (km/s) = 9.82159 3.55351 7.38549
# Velocity P-wave (km/s) = 12.28312 6.88186 9.95578
#
# Compressibility (1/GPa) = 0.02329298
#
# Stress axis : x y z
#
# Youngs Moduli (GPa) = 48.50299 145.75141 48.77730
#
# Poissons Ratio (x) = 0.46898 0.27066
# Poissons Ratio (y) = 0.15607 0.17446
# Poissons Ratio (z) = 0.26914 0.52130
#
# Static dielectric constant tensor:
#      x y z
#    x 1.674600 0.000000 0.000000 
#    y 0.000000 1.657210 0.000000 
#    z 0.000000 0.000000 1.701650 
# 
# From -- ./inp_files/26844.got.cif
#   From: 2010.05.17/outbox.cif.g08.bks.cpg/sg62_14_cif.got.tgz:26844.got - 2010.06.03 15:25:27.
