data_PCOD9465454
_publ_section_title
;
Structure prediction by ZEFSAII (Michael W. Deem and Ramdas Pophale) SiO2 
 PCOD9465454
Probable space group: P N M A
;
_chemical_formula_sum "Si O2"
_cell_formula_units_Z 64
_cell_length_a 9.532439
_cell_length_b 21.326756
_cell_length_c 18.708121
_cell_angle_alpha 90.000000
_cell_angle_beta 90.000000
_cell_angle_gamma 90.000000
_cell_volume 3803.286179
_symmetry_space_group_name_H-M "P N M A"
_symmetry_group_IT_number 62
_symmetry_cell_setting 'orthorhombic'
loop_
_space_group_symop_operation_xyz
x,y,z
1/2-x,-y,1/2+z
1/2+x,1/2-y,1/2-z
-x,1/2+y,-z
-x,-y,-z
1/2+x,y,1/2-z
1/2-x,1/2+y,1/2+z
x,1/2-y,z
loop_
_atom_site_type_symbol
_atom_site_label
_atom_site_fract_x
_atom_site_fract_y
_atom_site_fract_z
Si Si1 0.547059 0.482029 0.315027
Si Si2 0.145287 0.475458 0.033151
Si Si3 0.779804 0.985156 0.672121
Si Si4 0.509038 0.628534 0.311420
Si Si5 0.263894 0.884966 0.406463
Si Si6 0.484372 0.679226 0.049429
Si Si7 0.182795 0.179730 0.694203
Si Si8 0.112783 0.053717 0.480443
O O1 0.619684 0.454280 0.385801
O O2 0.381821 0.466265 0.314362
O O3 0.627303 0.470806 0.241230
O O4 0.550950 0.557037 0.325893
O O5 0.202271 0.421750 0.979992
O O6 0.253778 0.533191 0.027974
O O7 0.000000 0.500000 0.000000
O O8 0.840969 0.952491 0.601598
O O9 0.777927 0.059333 0.649724
O O10 0.403582 0.646995 0.375366
O O11 0.652580 0.665829 0.302378
O O12 0.412674 0.633723 0.241052
O O13 0.135748 0.838246 0.417458
O O14 0.485661 0.750000 0.019965
O O15 0.372145 0.676945 0.113573
O O16 0.444915 0.622212 0.997528
O O17 0.155848 0.250000 0.722131
O O18 0.000000 0.000000 0.500000
#
# Coordination Sequence:
#
# PCOD9465454 Si02
#       8
#     8   8   8   8   8   8   8   8
#     4  11  21  32  53  83 113 142 179 234 287 337
#     4  11  19  37  56  85 116 148 182 235 287 337
#     4  10  21  33  51  84 112 142 184 226 286 333
#     4  11  20  33  52  71 110 149 193 230 276 320
#     4  10  21  36  53  80 110 153 188 230 283 334
#     4  11  23  38  55  80 110 149 192 233 277 339
#     4  11  23  34  49  72 106 154 197 230 269 321
#     4  11  21  36  61  82 113 149 191 229 286 331
#
# _framework density 16.827552000000001
#
# number of rings (size 3 to 8) (size 9 to 14) (size 15 to 20)
#    0.000    1.250    6.250    4.125    1.750    2.000 
#    0.000    0.000    0.000    0.000    0.000    3.500 
#    0.000    0.000    0.000    0.000    0.000    0.000 
#
# Total GULP energy -357127.251041 kJ/mol
# GULP energy per Si atom -5580.113298 kJ/mol
# Density = 1.678925 g / cm^3
# Si number density = 16.827552 Si / 1000 Ang^3
#
#
#
# Elastic Constant Matrix: (Units=GPa)
#
#
# Indices 1 2 3 4 5 6 
#
# 1 113.1138 24.3558 51.7211 0.0000 0.0000 0.0000
# 2 24.3558 58.4450 19.9636 0.0000 0.0000 0.0000
# 3 51.7211 19.9636 113.8328 0.0000 0.0000 0.0000
# 4 0.0000 0.0000 0.0000 15.6021 0.0000 0.0000
# 5 0.0000 0.0000 0.0000 0.0000 36.7644 0.0000
# 6 0.0000 0.0000 0.0000 0.0000 0.0000 8.3933
#
#
#
# Elastic Compliance Matrix: (Units=1/GPa)
#
#
# Indices 1 2 3 4 5 6 
#
# 1 0.011715 -0.003259 -0.004751 0.000000 0.000000 0.000000
# 2 -0.003259 0.019107 -0.001870 0.000000 0.000000 0.000000
# 3 -0.004751 -0.001870 0.011272 0.000000 0.000000 0.000000
# 4 0.000000 0.000000 0.000000 0.064094 0.000000 0.000000
# 5 0.000000 0.000000 0.000000 0.000000 0.027200 0.000000
# 6 0.000000 0.000000 0.000000 0.000000 0.000000 0.119143
#
#
# Mechanical properties :
#
#
# Convention : Reuss Voigt Hill
#
# Bulk Modulus (GPa) = 44.77743 53.05251 48.91497
# Shear Modulus (GPa) = 17.87400 24.77534 21.32467
#
# Velocity S-wave (km/s) = 3.26266 3.84123 3.56370
# Velocity P-wave (km/s) = 6.39223 7.16024 6.78711
#
# Compressibility (1/GPa) = 0.02233268
#
# Stress axis : x y z
#
# Youngs Moduli (GPa) = 85.36150 52.33674 88.71879
#
# Poissons Ratio (x) = 0.17057 0.42152
# Poissons Ratio (y) = 0.27820 0.16592
# Poissons Ratio (z) = 0.40557 0.09788
#
# Static dielectric constant tensor:
#      x y z
#    x 1.644460 0.000000 0.000000 
#    y 0.000000 1.565180 0.000000 
#    z 0.000000 0.000000 1.581960 
# 
# From -- ./inp_files/22560.got.cif
#   From: 2010.05.17/outbox.cif.g08.bks.cpg/sg62_12_cif.got.tgz:22560.got - 2010.06.03 15:25:27.
