data_PCOD9465646
_publ_section_title
;
Structure prediction by ZEFSAII (Michael W. Deem and Ramdas Pophale) SiO2 
 PCOD9465646
Probable space group: P N M A
;
_chemical_formula_sum "Si O2"
_cell_formula_units_Z 56
_cell_length_a 32.451112
_cell_length_b 13.594197
_cell_length_c 5.425147
_cell_angle_alpha 90.000000
_cell_angle_beta 90.000000
_cell_angle_gamma 90.000000
_cell_volume 2393.286290
_symmetry_space_group_name_H-M "P N M A"
_symmetry_group_IT_number 62
_symmetry_cell_setting 'orthorhombic'
loop_
_space_group_symop_operation_xyz
x,y,z
1/2-x,-y,1/2+z
1/2+x,1/2-y,1/2-z
-x,1/2+y,-z
-x,-y,-z
1/2+x,y,1/2-z
1/2-x,1/2+y,1/2+z
x,1/2-y,z
loop_
_atom_site_type_symbol
_atom_site_label
_atom_site_fract_x
_atom_site_fract_y
_atom_site_fract_z
Si Si1 0.699519 0.630035 0.972080
Si Si2 0.067541 0.539193 0.913636
Si Si3 0.172258 0.365640 0.314029
Si Si4 0.512515 0.080444 0.198812
Si Si5 0.789111 0.630106 0.178124
Si Si6 0.845811 0.368836 0.966018
Si Si7 0.586975 0.355435 0.923814
O O1 0.699943 0.750000 0.967234
O O2 0.745144 0.601454 0.063423
O O3 0.682960 0.601605 0.700770
O O4 0.670095 0.598547 0.197224
O O5 0.083976 0.454390 0.731750
O O6 0.031758 0.611175 0.806360
O O7 0.041344 0.476093 0.107885
O O8 0.107485 0.596064 0.002199
O O9 0.184042 0.250000 0.300309
O O10 0.179277 0.401384 0.036493
O O11 0.124888 0.369264 0.391276
O O12 0.198857 0.405295 0.547187
O O13 0.543637 0.151694 0.063448
O O14 0.500000 0.000000 0.000000
O O15 0.789549 0.750000 0.198274
O O16 0.844805 0.250000 0.964959
O O17 0.594503 0.250000 0.790275
#
# Coordination Sequence:
#
# PCOD9465646 Si02
#       7
#     8   8   8   8   8   8   8
#     4   9  18  33  56  89 123 161 211 259 313 372
#     4  10  22  40  64  88 123 163 206 256 323 378
#     4   9  18  30  52  85 119 160 206 250 304 363
#     4   9  21  41  61  85 115 159 206 252 315 384
#     4   9  16  30  52  82 122 160 203 255 301 364
#     4  10  21  36  61  94 124 161 213 262 312 376
#     4  10  22  38  61  93 125 163 212 259 310 382
#
# _framework density 23.398790000000002
#
# number of rings (size 3 to 8) (size 9 to 14) (size 15 to 20)
#    0.000    2.571    0.000    0.857    6.000    4.571 
#    0.000    5.714    0.000    3.429    0.000    0.000 
#    0.000    0.000    0.000    0.000    0.000    0.000 
#
# Total GULP energy -312757.434565 kJ/mol
# GULP energy per Si atom -5584.954189 kJ/mol
# Density = 2.334553 g / cm^3
# Si number density = 23.398790 Si / 1000 Ang^3
#
#
#
# Elastic Constant Matrix: (Units=GPa)
#
#
# Indices 1 2 3 4 5 6 
#
# 1 110.7852 11.9237 39.7982 0.0000 0.0000 0.0000
# 2 11.9237 67.7876 27.6342 0.0000 0.0000 0.0000
# 3 39.7982 27.6342 117.5784 0.0000 0.0000 0.0000
# 4 0.0000 0.0000 0.0000 22.1352 0.0000 0.0000
# 5 0.0000 0.0000 0.0000 0.0000 39.7453 0.0000
# 6 0.0000 0.0000 0.0000 0.0000 0.0000 28.9065
#
#
#
# Elastic Compliance Matrix: (Units=1/GPa)
#
#
# Indices 1 2 3 4 5 6 
#
# 1 0.010287 -0.000431 -0.003381 0.000000 0.000000 0.000000
# 2 -0.000431 0.016333 -0.003693 0.000000 0.000000 0.000000
# 3 -0.003381 -0.003693 0.010517 0.000000 0.000000 0.000000
# 4 0.000000 0.000000 0.000000 0.045177 0.000000 0.000000
# 5 0.000000 0.000000 0.000000 0.000000 0.025160 0.000000
# 6 0.000000 0.000000 0.000000 0.000000 0.000000 0.034594
#
#
# Mechanical properties :
#
#
# Convention : Reuss Voigt Hill
#
# Bulk Modulus (GPa) = 45.19137 50.54039 47.86588
# Shear Modulus (GPa) = 30.40347 32.61040 31.50694
#
# Velocity S-wave (km/s) = 3.60858 3.73725 3.67348
# Velocity P-wave (km/s) = 6.05953 6.34580 6.20432
#
# Compressibility (1/GPa) = 0.02212812
#
# Stress axis : x y z
#
# Youngs Moduli (GPa) = 97.20643 61.22492 95.08254
#
# Poissons Ratio (x) = 0.02641 0.32145
# Poissons Ratio (y) = 0.04193 0.35112
# Poissons Ratio (z) = 0.32863 0.22609
#
# Static dielectric constant tensor:
#      x y z
#    x 1.835490 0.000000 0.000000 
#    y 0.000000 1.931370 0.000000 
#    z 0.000000 0.000000 1.878490 
# 
# From -- ./inp_files/3602.got.cif
#   From: 2010.05.17/outbox.cif.g08.bks.cpg/sg62_2_cif.got.tgz:3602.got - 2010.06.03 15:25:27.
