data_PCOD9465974
_publ_section_title
;
Structure prediction by ZEFSAII (Michael W. Deem and Ramdas Pophale) SiO2 
 PCOD9465974
Probable space group: P N M A
;
_chemical_formula_sum "Si O2"
_cell_formula_units_Z 64
_cell_length_a 24.477955
_cell_length_b 8.006412
_cell_length_c 15.716737
_cell_angle_alpha 90.000000
_cell_angle_beta 90.000000
_cell_angle_gamma 90.000000
_cell_volume 3080.175432
_symmetry_space_group_name_H-M "P N M A"
_symmetry_group_IT_number 62
_symmetry_cell_setting 'orthorhombic'
loop_
_space_group_symop_operation_xyz
x,y,z
1/2-x,-y,1/2+z
1/2+x,1/2-y,1/2-z
-x,1/2+y,-z
-x,-y,-z
1/2+x,y,1/2-z
1/2-x,1/2+y,1/2+z
x,1/2-y,z
loop_
_atom_site_type_symbol
_atom_site_label
_atom_site_fract_x
_atom_site_fract_y
_atom_site_fract_z
Si Si1 0.145546 0.452461 0.589529
Si Si2 0.248809 0.557058 0.839420
Si Si3 0.119601 0.444667 0.108013
Si Si4 0.138330 0.452051 0.920207
Si Si5 0.239017 0.556573 0.152212
Si Si6 0.425622 0.954608 0.252105
Si Si7 0.633937 0.948639 0.097030
Si Si8 0.951142 0.053376 0.735713
O O1 0.146173 0.250000 0.588257
O O2 0.208461 0.507881 0.601034
O O3 0.110810 0.505485 0.671475
O O4 0.121723 0.516421 0.501175
O O5 0.242379 0.750000 0.816228
O O6 0.200300 0.506958 0.902493
O O7 0.245795 0.454008 0.751904
O O8 0.307957 0.529127 0.880196
O O9 0.104523 0.250000 0.108469
O O10 0.182706 0.462104 0.136429
O O11 0.081431 0.533342 0.176362
O O12 0.116949 0.510835 0.011650
O O13 0.137889 0.250000 0.922245
O O14 0.102130 0.508742 0.840270
O O15 0.229602 0.750000 0.129364
O O16 0.425638 0.750000 0.253700
O O17 0.487702 0.015075 0.242525
O O18 0.639690 0.750000 0.110943
O O19 0.587321 0.015185 0.160597
O O20 0.957383 0.250000 0.717611
#
# Coordination Sequence:
#
# PCOD9465974 Si02
#       8
#     8   8   8   8   8   8   8   8
#     4  10  21  38  63  89 117 154 197 243 294 352
#     4  12  23  36  60  91 121 153 193 240 294 354
#     4  11  23  37  59  90 121 154 194 244 295 344
#     4  10  21  40  63  88 120 156 193 241 297 352
#     4  11  21  37  61  87 118 156 192 234 295 357
#     4   9  19  40  64  85 113 157 205 244 292 351
#     4  11  23  38  58  87 122 158 197 240 292 349
#     4  10  22  40  62  83 114 162 205 243 291 349
#
# _framework density 20.778039
#
# number of rings (size 3 to 8) (size 9 to 14) (size 15 to 20)
#    0.000    1.500    2.500    3.000    0.000    5.500 
#    0.000    1.250    0.000    0.000    0.000    0.000 
#    0.000    0.000    0.000    0.000    0.000    0.000 
#
# Total GULP energy -357790.395392 kJ/mol
# GULP energy per Si atom -5590.474928 kJ/mol
# Density = 2.073075 g / cm^3
# Si number density = 20.778039 Si / 1000 Ang^3
#
#
#
# Elastic Constant Matrix: (Units=GPa)
#
#
# Indices 1 2 3 4 5 6 
#
# 1 109.1630 -2.2521 20.2672 0.0000 0.0000 0.0000
# 2 -2.2521 19.4978 -10.7526 0.0000 0.0000 0.0000
# 3 20.2672 -10.7526 90.1802 0.0000 0.0000 0.0000
# 4 0.0000 0.0000 0.0000 9.6220 0.0000 0.0000
# 5 0.0000 0.0000 0.0000 0.0000 2.1086 0.0000
# 6 0.0000 0.0000 0.0000 0.0000 0.0000 -0.1133
#
#
#
# Elastic Compliance Matrix: (Units=1/GPa)
#
#
# Indices 1 2 3 4 5 6 
#
# 1 0.009560 -0.000086 -0.002159 0.000000 0.000000 0.000000
# 2 -0.000086 0.054898 0.006565 0.000000 0.000000 0.000000
# 3 -0.002159 0.006565 0.012357 0.000000 0.000000 0.000000
# 4 0.000000 0.000000 0.000000 0.103928 0.000000 0.000000
# 5 0.000000 0.000000 0.000000 0.000000 0.474250 0.000000
# 6 0.000000 0.000000 0.000000 0.000000 0.000000 -8.828442
#
#
# Mechanical properties :
#
#
# Convention : Reuss Voigt Hill
#
# Bulk Modulus (GPa) = 11.70205 25.92955 18.81580
# Shear Modulus (GPa) = -0.61323 16.42872 7.90775
#
# Velocity S-wave (km/s) = -0.54385 2.81495 1.95297
# Velocity P-wave (km/s) = 2.29124 4.80330 3.76307
#
# Compressibility (1/GPa) = 0.08545508
#
# Stress axis : x y z
#
# Youngs Moduli (GPa) = 104.60670 18.21550 80.92673
#
# Poissons Ratio (x) = 0.00157 0.17470
# Poissons Ratio (y) = 0.00903 -0.53130
# Poissons Ratio (z) = 0.22582 -0.11959
#
# Static dielectric constant tensor:
#      x y z
#    x 1.714590 0.000000 0.000000 
#    y 0.000000 1.728260 0.000000 
#    z 0.000000 0.000000 1.736390 
# 
# From -- ./inp_files/20808.got.cif
#   From: 2010.05.17/outbox.cif.g08.bks.cpg/sg62_11_cif.got.tgz:20808.got - 2010.06.03 15:25:27.
