data_PCOD9465122
_publ_section_title
;
Structure prediction by ZEFSAII (Michael W. Deem and Ramdas Pophale) SiO2 
 PCOD9465122
Probable space group: P N M A
;
_chemical_formula_sum "Si O2"
_cell_formula_units_Z 56
_cell_length_a 14.979136
_cell_length_b 8.185735
_cell_length_c 21.839062
_cell_angle_alpha 90.000000
_cell_angle_beta 90.000000
_cell_angle_gamma 90.000000
_cell_volume 2677.801781
_symmetry_space_group_name_H-M "P N M A"
_symmetry_group_IT_number 62
_symmetry_cell_setting 'orthorhombic'
loop_
_space_group_symop_operation_xyz
x,y,z
1/2-x,-y,1/2+z
1/2+x,1/2-y,1/2-z
-x,1/2+y,-z
-x,-y,-z
1/2+x,y,1/2-z
1/2-x,1/2+y,1/2+z
x,1/2-y,z
loop_
_atom_site_type_symbol
_atom_site_label
_atom_site_fract_x
_atom_site_fract_y
_atom_site_fract_z
Si Si1 0.775603 0.440283 0.527279
Si Si2 0.837461 0.446172 0.657962
Si Si3 0.046770 0.562014 0.131226
Si Si4 0.580756 0.562207 0.542403
Si Si5 0.803454 0.447497 0.262256
Si Si6 0.260653 0.948216 0.603030
Si Si7 0.510590 0.444718 0.241181
O O1 0.801086 0.250000 0.525335
O O2 0.817212 0.511286 0.589441
O O3 0.669087 0.456371 0.536866
O O4 0.790576 0.506578 0.458271
O O5 0.838514 0.250000 0.656051
O O6 0.760613 0.494433 0.707267
O O7 0.932605 0.509906 0.681729
O O8 0.027892 0.750000 0.117732
O O9 0.137364 0.506976 0.098773
O O10 0.059352 0.532870 0.202745
O O11 0.962954 0.455914 0.109318
O O12 0.500000 0.500000 0.500000
O O13 0.602211 0.750000 0.529365
O O14 0.798952 0.250000 0.261712
O O15 0.773534 0.502260 0.330415
O O16 0.907240 0.495479 0.256868
O O17 0.260246 0.750000 0.602388
O O18 0.515642 0.250000 0.249882
#
# Coordination Sequence:
#
# PCOD9465122 Si02
#       7
#     8   8   8   8   8   8   8
#     4  10  22  39  59  85 121 161 201 252 310 365
#     4  11  23  39  61  91 125 160 200 254 312 367
#     4  12  23  36  57  87 118 154 198 247 306 367
#     4  12  23  35  54  83 120 158 197 244 300 368
#     4  10  22  40  64  90 117 158 209 256 303 362
#     4  10  20  38  62  85 116 157 200 247 301 358
#     4  11  23  40  62  89 121 160 205 254 308 366
#
# _framework density 20.912676000000001
#
# number of rings (size 3 to 8) (size 9 to 14) (size 15 to 20)
#    0.000    1.143    2.857    4.286    0.000    4.571 
#    0.000    0.714    0.000    0.000    0.000    0.000 
#    0.000    0.000    0.000    0.000    0.000    0.000 
#
# Total GULP energy -312771.543928 kJ/mol
# GULP energy per Si atom -5585.206142 kJ/mol
# Density = 2.086508 g / cm^3
# Si number density = 20.912676 Si / 1000 Ang^3
#
#
#
# Elastic Constant Matrix: (Units=GPa)
#
#
# Indices 1 2 3 4 5 6 
#
# 1 49.7388 7.3570 7.2877 0.0000 0.0000 0.0000
# 2 7.3570 37.8550 12.9529 0.0000 0.0000 0.0000
# 3 7.2877 12.9529 115.5658 0.0000 0.0000 0.0000
# 4 0.0000 0.0000 0.0000 20.5663 0.0000 0.0000
# 5 0.0000 0.0000 0.0000 0.0000 36.4215 0.0000
# 6 0.0000 0.0000 0.0000 0.0000 0.0000 22.6109
#
#
#
# Elastic Compliance Matrix: (Units=1/GPa)
#
#
# Indices 1 2 3 4 5 6 
#
# 1 0.020788 -0.003735 -0.000892 0.000000 0.000000 0.000000
# 2 -0.003735 0.028141 -0.002919 0.000000 0.000000 0.000000
# 3 -0.000892 -0.002919 0.009036 0.000000 0.000000 0.000000
# 4 0.000000 0.000000 0.000000 0.048623 0.000000 0.000000
# 5 0.000000 0.000000 0.000000 0.000000 0.027456 0.000000
# 6 0.000000 0.000000 0.000000 0.000000 0.000000 0.044226
#
#
# Mechanical properties :
#
#
# Convention : Reuss Voigt Hill
#
# Bulk Modulus (GPa) = 23.32398 28.70608 26.01503
# Shear Modulus (GPa) = 24.07844 27.62388 25.85116
#
# Velocity S-wave (km/s) = 3.39688 3.63838 3.51970
# Velocity P-wave (km/s) = 5.15386 5.60418 5.38373
#
# Compressibility (1/GPa) = 0.04287433
#
# Stress axis : x y z
#
# Youngs Moduli (GPa) = 48.10426 35.53522 110.66267
#
# Poissons Ratio (x) = 0.13272 0.09875
# Poissons Ratio (y) = 0.17966 0.32298
# Poissons Ratio (z) = 0.04292 0.10371
#
# Static dielectric constant tensor:
#      x y z
#    x 1.723660 0.000000 0.000000 
#    y 0.000000 1.748520 0.000000 
#    z 0.000000 0.000000 1.864600 
# 
# From -- ./inp_files/27128.got.cif
#   From: 2010.05.17/outbox.cif.g08.bks.cpg/sg62_14_cif.got.tgz:27128.got - 2010.06.03 15:25:27.
