data_PCOD9465791
_publ_section_title
;
Structure prediction by ZEFSAII (Michael W. Deem and Ramdas Pophale) SiO2 
 PCOD9465791
Probable space group: P N M A
;
_chemical_formula_sum "Si O2"
_cell_formula_units_Z 56
_cell_length_a 14.580020
_cell_length_b 7.718174
_cell_length_c 21.734917
_cell_angle_alpha 90.000000
_cell_angle_beta 90.000000
_cell_angle_gamma 90.000000
_cell_volume 2445.854798
_symmetry_space_group_name_H-M "P N M A"
_symmetry_group_IT_number 62
_symmetry_cell_setting 'orthorhombic'
loop_
_space_group_symop_operation_xyz
x,y,z
1/2-x,-y,1/2+z
1/2+x,1/2-y,1/2-z
-x,1/2+y,-z
-x,-y,-z
1/2+x,y,1/2-z
1/2-x,1/2+y,1/2+z
x,1/2-y,z
loop_
_atom_site_type_symbol
_atom_site_label
_atom_site_fract_x
_atom_site_fract_y
_atom_site_fract_z
Si Si1 0.582214 0.039205 0.403437
Si Si2 0.118352 0.450979 0.868621
Si Si3 0.707787 0.040343 0.288330
Si Si4 0.710007 0.043716 0.513725
Si Si5 0.593729 0.455765 0.033768
Si Si6 0.098626 0.452779 0.328378
Si Si7 0.591406 0.045973 0.767924
O O1 0.575269 0.250000 0.404371
O O2 0.637754 0.989121 0.342016
O O3 0.640147 0.978927 0.462252
O O4 0.480937 0.963306 0.400377
O O5 0.143823 0.250000 0.858653
O O6 0.188148 0.529095 0.918232
O O7 0.106875 0.529199 0.800881
O O8 0.708885 0.250000 0.287247
O O9 0.668647 0.974594 0.222760
O O10 0.810903 0.979171 0.300425
O O11 0.695014 0.250000 0.517075
O O12 0.815534 0.013949 0.498027
O O13 0.596902 0.250000 0.038231
O O14 0.598777 0.530221 0.103271
O O15 0.500000 0.500000 0.000000
O O16 0.121756 0.250000 0.333607
O O17 0.996006 0.465171 0.301024
O O18 0.570769 0.250000 0.763147
#
# Coordination Sequence:
#
# PCOD9465791 Si02
#       7
#     8   8   8   8   8   8   8
#     4  10  21  37  61  89 118 157 201 243 293 350
#     4  10  21  38  59  89 126 159 194 242 300 355
#     4  10  21  38  60  87 118 156 201 247 292 347
#     4  10  22  40  61  88 123 160 197 243 296 352
#     4  11  25  43  64  89 117 156 203 248 298 353
#     4  10  22  42  64  86 116 156 200 244 290 349
#     4  11  23  36  58  90 121 156 194 241 302 354
#
# _framework density 22.895880999999999
#
# number of rings (size 3 to 8) (size 9 to 14) (size 15 to 20)
#    0.000    1.714    1.429    2.143    2.000    4.000 
#    0.000    0.000    0.000    0.000    0.000    0.000 
#    0.000    0.000    0.000    0.000    0.000    0.000 
#
# Total GULP energy -313156.142938 kJ/mol
# GULP energy per Si atom -5592.073981 kJ/mol
# Density = 2.284377 g / cm^3
# Si number density = 22.895881 Si / 1000 Ang^3
#
#
#
# Elastic Constant Matrix: (Units=GPa)
#
#
# Indices 1 2 3 4 5 6 
#
# 1 102.4944 -20.5886 -0.4021 0.0000 0.0000 0.0000
# 2 -20.5886 41.5733 5.6828 0.0000 0.0000 0.0000
# 3 -0.4021 5.6828 61.0321 0.0000 0.0000 0.0000
# 4 0.0000 0.0000 0.0000 8.9472 0.0000 0.0000
# 5 0.0000 0.0000 0.0000 0.0000 29.8360 0.0000
# 6 0.0000 0.0000 0.0000 0.0000 0.0000 23.4915
#
#
#
# Elastic Compliance Matrix: (Units=1/GPa)
#
#
# Indices 1 2 3 4 5 6 
#
# 1 0.010846 0.005431 -0.000434 0.000000 0.000000 0.000000
# 2 0.005431 0.027083 -0.002486 0.000000 0.000000 0.000000
# 3 -0.000434 -0.002486 0.016613 0.000000 0.000000 0.000000
# 4 0.000000 0.000000 0.000000 0.111766 0.000000 0.000000
# 5 0.000000 0.000000 0.000000 0.000000 0.033517 0.000000
# 6 0.000000 0.000000 0.000000 0.000000 0.000000 0.042569
#
#
# Mechanical properties :
#
#
# Convention : Reuss Voigt Hill
#
# Bulk Modulus (GPa) = 16.78891 19.38712 18.08802
# Shear Modulus (GPa) = 19.43806 27.14880 23.29343
#
# Velocity S-wave (km/s) = 2.91688 3.44721 3.19307
# Velocity P-wave (km/s) = 4.32353 4.93257 4.63806
#
# Compressibility (1/GPa) = 0.05956312
#
# Stress axis : x y z
#
# Youngs Moduli (GPa) = 92.20167 36.92335 60.19225
#
# Poissons Ratio (x) = -0.20051 0.02613
# Poissons Ratio (y) = -0.50071 0.14964
# Poissons Ratio (z) = 0.04003 0.09179
#
# Static dielectric constant tensor:
#      x y z
#    x 1.764230 0.000000 0.000000 
#    y 0.000000 1.838780 0.000000 
#    z 0.000000 0.000000 1.886730 
# 
# From -- ./inp_files/27232.got.cif
#   From: 2010.05.17/outbox.cif.g08.bks.cpg/sg62_14_cif.got.tgz:27232.got - 2010.06.03 15:25:27.
