data_PCOD9465120
_publ_section_title
;
Structure prediction by ZEFSAII (Michael W. Deem and Ramdas Pophale) SiO2 
 PCOD9465120
Probable space group: P N M A
;
_chemical_formula_sum "Si O2"
_cell_formula_units_Z 44
_cell_length_a 15.020390
_cell_length_b 22.871946
_cell_length_c 6.516031
_cell_angle_alpha 90.000000
_cell_angle_beta 90.000000
_cell_angle_gamma 90.000000
_cell_volume 2238.553447
_symmetry_space_group_name_H-M "P N M A"
_symmetry_group_IT_number 62
_symmetry_cell_setting 'orthorhombic'
loop_
_space_group_symop_operation_xyz
x,y,z
1/2-x,-y,1/2+z
1/2+x,1/2-y,1/2-z
-x,1/2+y,-z
-x,-y,-z
1/2+x,y,1/2-z
1/2-x,1/2+y,1/2+z
x,1/2-y,z
loop_
_atom_site_type_symbol
_atom_site_label
_atom_site_fract_x
_atom_site_fract_y
_atom_site_fract_z
Si Si1 0.472008 0.957940 0.814621
Si Si2 0.303537 0.750000 0.841859
Si Si3 0.938219 0.873844 0.332087
Si Si4 0.987540 0.750000 0.485688
Si Si5 0.684564 0.750000 0.043797
Si Si6 0.411566 0.060108 0.566533
Si Si7 0.757425 0.149958 0.845660
O O1 0.555356 0.944906 0.666963
O O2 0.405673 0.995914 0.671448
O O3 0.439026 0.901323 0.937332
O O4 0.500000 0.000000 0.000000
O O5 0.410287 0.750000 0.845125
O O6 0.262464 0.750000 0.619784
O O7 0.269850 0.693148 0.967663
O O8 0.970338 0.807368 0.350517
O O9 0.836101 0.874541 0.259889
O O10 0.006937 0.908108 0.187526
O O11 0.088223 0.750000 0.561935
O O12 0.695054 0.807477 0.183089
O O13 0.323816 0.098525 0.591416
#
# Coordination Sequence:
#
# PCOD9465120 Si02
#       7
#     8   4   8   4   4   8   8
#     4   9  21  40  59  86 124 156 204 250 299 371
#     4   9  23  37  55  96 122 156 210 255 304 381
#     4  10  21  40  59  90 125 155 207 262 301 372
#     4  10  20  38  62  84 127 165 199 257 318 363
#     4  11  21  41  61  90 129 161 201 264 308 368
#     4  10  20  40  63  86 119 169 199 249 317 359
#     4  10  22  39  61  93 120 156 214 252 306 377
#
# _framework density 19.655550999999999
#
# number of rings (size 3 to 8) (size 9 to 14) (size 15 to 20)
#    0.000    2.182    1.818    0.545    2.545    2.909 
#    9.818    0.909    0.000    0.000    0.000    0.000 
#    0.000    0.000    0.000    0.000    0.000    0.000 
#
# Total GULP energy -245438.883682 kJ/mol
# GULP energy per Si atom -5578.156447 kJ/mol
# Density = 1.961081 g / cm^3
# Si number density = 19.655551 Si / 1000 Ang^3
#
#
#
# Elastic Constant Matrix: (Units=GPa)
#
#
# Indices 1 2 3 4 5 6 
#
# 1 99.0827 19.5437 19.6017 0.0000 0.0000 0.0000
# 2 19.5437 82.4700 19.6823 0.0000 0.0000 0.0000
# 3 19.6017 19.6823 66.4177 0.0000 0.0000 0.0000
# 4 0.0000 0.0000 0.0000 3.1253 0.0000 0.0000
# 5 0.0000 0.0000 0.0000 0.0000 23.9425 0.0000
# 6 0.0000 0.0000 0.0000 0.0000 0.0000 603.8172
#
#
#
# Elastic Compliance Matrix: (Units=1/GPa)
#
#
# Indices 1 2 3 4 5 6 
#
# 1 0.011009 -0.001973 -0.002664 0.000000 0.000000 0.000000
# 2 -0.001973 0.013402 -0.003389 0.000000 0.000000 0.000000
# 3 -0.002664 -0.003389 0.016847 0.000000 0.000000 0.000000
# 4 0.000000 0.000000 0.000000 0.319972 0.000000 0.000000
# 5 0.000000 0.000000 0.000000 0.000000 0.041767 0.000000
# 6 0.000000 0.000000 0.000000 0.000000 0.000000 0.001656
#
#
# Mechanical properties :
#
#
# Convention : Reuss Voigt Hill
#
# Bulk Modulus (GPa) = 39.67532 40.62508 40.15020
# Shear Modulus (GPa) = 11.65208 138.78651 75.21930
#
# Velocity S-wave (km/s) = 2.43742 8.41205 6.19288
# Velocity P-wave (km/s) = 5.30570 10.72677 8.46209
#
# Compressibility (1/GPa) = 0.02520459
#
# Stress axis : x y z
#
# Youngs Moduli (GPa) = 90.83615 74.61538 59.35800
#
# Poissons Ratio (x) = 0.14722 0.15815
# Poissons Ratio (y) = 0.17922 0.20118
# Poissons Ratio (z) = 0.24202 0.25289
#
# Static dielectric constant tensor:
#      x y z
#    x 1.686030 0.000000 0.000000 
#    y 0.000000 1.725610 0.000000 
#    z 0.000000 0.000000 1.680920 
# 
# From -- ./inp_files/1686.got.cif
#   From: 2010.05.17/outbox.cif.g08.bks.cpg/sg62_1_cif.got.tgz:1686.got - 2010.06.03 15:25:27.
