data_PCOD9465104
_publ_section_title
;
Structure prediction by ZEFSAII (Michael W. Deem and Ramdas Pophale) SiO2 
 PCOD9465104
Probable space group: P N M A
;
_chemical_formula_sum "Si O2"
_cell_formula_units_Z 48
_cell_length_a 27.938833
_cell_length_b 8.529084
_cell_length_c 10.353526
_cell_angle_alpha 90.000000
_cell_angle_beta 90.000000
_cell_angle_gamma 90.000000
_cell_volume 2467.169184
_symmetry_space_group_name_H-M "P N M A"
_symmetry_group_IT_number 62
_symmetry_cell_setting 'orthorhombic'
loop_
_space_group_symop_operation_xyz
x,y,z
1/2-x,-y,1/2+z
1/2+x,1/2-y,1/2-z
-x,1/2+y,-z
-x,-y,-z
1/2+x,y,1/2-z
1/2-x,1/2+y,1/2+z
x,1/2-y,z
loop_
_atom_site_type_symbol
_atom_site_label
_atom_site_fract_x
_atom_site_fract_y
_atom_site_fract_z
Si Si1 0.288479 0.560563 0.251707
Si Si2 0.321997 0.060581 0.752358
Si Si3 0.858128 0.560874 0.476936
Si Si4 0.964153 0.437993 0.108349
Si Si5 0.964321 0.561948 0.391237
Si Si6 0.142410 0.939485 0.972631
O O1 0.288795 0.750000 0.252363
O O2 0.233469 0.508303 0.251640
O O3 0.317234 0.501634 0.375998
O O4 0.317335 0.508135 0.124049
O O5 0.322493 0.250000 0.754958
O O6 0.346981 0.009969 0.619202
O O7 0.347576 0.999906 0.880405
O O8 0.857568 0.750000 0.479344
O O9 0.910131 0.510648 0.425559
O O10 0.964962 0.250000 0.108301
O O11 0.977354 0.499314 0.249943
O O12 0.909959 0.490676 0.075064
O O13 0.000000 0.500000 0.000000
O O14 0.965501 0.750000 0.389523
O O15 0.000000 0.500000 0.500000
O O16 0.143737 0.750000 0.969547
#
# Coordination Sequence:
#
# PCOD9465104 Si02
#       6
#     8   8   8   8   8   8
#     4  10  20  38  61  86 119 158 201 248 299 353
#     4  10  22  37  58  89 122 158 200 247 296 353
#     4  10  22  40  61  87 121 159 198 246 302 357
#     4  11  24  42  65  93 123 162 205 252 308 365
#     4  11  24  43  66  92 122 160 203 254 310 367
#     4  10  22  40  61  87 121 159 199 247 301 355
#
# _framework density 19.455496
#
# number of rings (size 3 to 8) (size 9 to 14) (size 15 to 20)
#    0.000    1.667    1.667    2.000    2.333    5.333 
#    0.000    0.000    0.000    0.000    0.000    0.000 
#    0.000    0.000    0.000    0.000    0.000    0.000 
#
# Total GULP energy -268330.153673 kJ/mol
# GULP energy per Si atom -5590.211535 kJ/mol
# Density = 1.941121 g / cm^3
# Si number density = 19.455496 Si / 1000 Ang^3
#
#
#
# Elastic Constant Matrix: (Units=GPa)
#
#
# Indices 1 2 3 4 5 6 
#
# 1 86.0762 22.2641 57.8258 0.0000 0.0000 0.0000
# 2 22.2641 18.0203 24.9098 0.0000 0.0000 0.0000
# 3 57.8258 24.9098 192.5643 0.0000 0.0000 0.0000
# 4 0.0000 0.0000 0.0000 34.0319 0.0000 0.0000
# 5 0.0000 0.0000 0.0000 0.0000 43.5677 0.0000
# 6 0.0000 0.0000 0.0000 0.0000 0.0000 22.1494
#
#
#
# Elastic Compliance Matrix: (Units=1/GPa)
#
#
# Indices 1 2 3 4 5 6 
#
# 1 0.018539 -0.018521 -0.003171 0.000000 0.000000 0.000000
# 2 -0.018521 0.086080 -0.005573 0.000000 0.000000 0.000000
# 3 -0.003171 -0.005573 0.006866 0.000000 0.000000 0.000000
# 4 0.000000 0.000000 0.000000 0.029384 0.000000 0.000000
# 5 0.000000 0.000000 0.000000 0.000000 0.022953 0.000000
# 6 0.000000 0.000000 0.000000 0.000000 0.000000 0.045148
#
#
# Mechanical properties :
#
#
# Convention : Reuss Voigt Hill
#
# Bulk Modulus (GPa) = 17.55806 56.29557 36.92682
# Shear Modulus (GPa) = 17.70001 32.72721 25.21361
#
# Velocity S-wave (km/s) = 3.01951 4.10586 3.60385
# Velocity P-wave (km/s) = 4.60444 7.17467 6.02813
#
# Compressibility (1/GPa) = 0.05695389
#
# Stress axis : x y z
#
# Youngs Moduli (GPa) = 53.94164 11.61708 145.63821
#
# Poissons Ratio (x) = 0.21516 0.46184
# Poissons Ratio (y) = 0.99905 0.81171
# Poissons Ratio (z) = 0.17106 0.06475
#
# Static dielectric constant tensor:
#      x y z
#    x 1.668810 0.000000 0.000000 
#    y 0.000000 1.669570 0.000000 
#    z 0.000000 0.000000 1.635800 
# 
# From -- ./inp_files/10216.got.cif
#   From: 2010.05.17/outbox.cif.g08.bks.cpg/sg62_6_cif.got.tgz:10216.got - 2010.06.03 15:25:27.
