data_PCOD9465241
_publ_section_title
;
Structure prediction by ZEFSAII (Michael W. Deem and Ramdas Pophale) SiO2 
 PCOD9465241
Probable space group: P N M A
;
_chemical_formula_sum "Si O2"
_cell_formula_units_Z 40
_cell_length_a 13.796590
_cell_length_b 28.092118
_cell_length_c 4.992139
_cell_angle_alpha 90.000000
_cell_angle_beta 90.000000
_cell_angle_gamma 90.000000
_cell_volume 1934.830441
_symmetry_space_group_name_H-M "P N M A"
_symmetry_group_IT_number 62
_symmetry_cell_setting 'orthorhombic'
loop_
_space_group_symop_operation_xyz
x,y,z
1/2-x,-y,1/2+z
1/2+x,1/2-y,1/2-z
-x,1/2+y,-z
-x,-y,-z
1/2+x,y,1/2-z
1/2-x,1/2+y,1/2+z
x,1/2-y,z
loop_
_atom_site_type_symbol
_atom_site_label
_atom_site_fract_x
_atom_site_fract_y
_atom_site_fract_z
Si Si1 0.865530 0.839708 0.886228
Si Si2 0.367858 0.250000 0.678132
Si Si3 0.242435 0.750000 0.674811
Si Si4 0.468919 0.804766 0.083093
Si Si5 0.884724 0.506490 0.532377
Si Si6 0.703671 0.056962 0.528758
O O1 0.794798 0.799572 0.766788
O O2 0.813740 0.889282 0.938661
O O3 0.952608 0.839131 0.668029
O O4 0.904357 0.821536 0.170046
O O5 0.352455 0.250000 0.362737
O O6 0.425884 0.296215 0.784165
O O7 0.272530 0.250000 0.855612
O O8 0.445931 0.750000 0.000145
O O9 0.860014 0.525093 0.827252
O O10 0.815335 0.460041 0.500467
O O11 0.000000 0.500000 0.500000
O O12 0.839422 0.544437 0.321028
#
# Coordination Sequence:
#
# PCOD9465241 Si02
#       6
#     8   4   4   8   8   8
#     4  12  21  39  62  87 120 171 206 248 319 375
#     4  10  22  36  54  82 116 170 208 258 294 350
#     4  12  20  36  58  86 128 160 210 262 300 360
#     4  10  20  39  56  76 121 169 204 245 307 360
#     4  10  21  45  68  93 128 164 201 272 333 382
#     4  10  23  40  67  96 128 160 214 262 321 395
#
# _framework density 20.673646000000002
#
# number of rings (size 3 to 8) (size 9 to 14) (size 15 to 20)
#    0.600    0.800    2.000    4.200    0.000    0.000 
#   10.800    0.000    0.000    0.000    0.000    0.000 
#    0.000    0.000    0.000    0.000    0.000    0.000 
#
# Total GULP energy -222946.187051 kJ/mol
# GULP energy per Si atom -5573.654676 kJ/mol
# Density = 2.062659 g / cm^3
# Si number density = 20.673646 Si / 1000 Ang^3
#
#
#
# Elastic Constant Matrix: (Units=GPa)
#
#
# Indices 1 2 3 4 5 6 
#
# 1 91.9546 10.9928 -5.4121 0.0000 0.0000 0.0000
# 2 10.9928 49.2757 -9.5604 0.0000 0.0000 0.0000
# 3 -5.4121 -9.5604 72.9510 0.0000 0.0000 0.0000
# 4 0.0000 0.0000 0.0000 18.8527 0.0000 0.0000
# 5 0.0000 0.0000 0.0000 0.0000 27.0979 0.0000
# 6 0.0000 0.0000 0.0000 0.0000 0.0000 7.7603
#
#
#
# Elastic Compliance Matrix: (Units=1/GPa)
#
#
# Indices 1 2 3 4 5 6 
#
# 1 0.011192 -0.002397 0.000516 0.000000 0.000000 0.000000
# 2 -0.002397 0.021337 0.002618 0.000000 0.000000 0.000000
# 3 0.000516 0.002618 0.014089 0.000000 0.000000 0.000000
# 4 0.000000 0.000000 0.000000 0.053043 0.000000 0.000000
# 5 0.000000 0.000000 0.000000 0.000000 0.036903 0.000000
# 6 0.000000 0.000000 0.000000 0.000000 0.000000 0.128861
#
#
# Mechanical properties :
#
#
# Convention : Reuss Voigt Hill
#
# Bulk Modulus (GPa) = 20.79269 22.91355 21.85312
# Shear Modulus (GPa) = 17.85843 25.28625 21.57234
#
# Velocity S-wave (km/s) = 2.94228 3.50110 3.23378
# Velocity P-wave (km/s) = 4.64996 5.23938 4.95344
#
# Compressibility (1/GPa) = 0.04809383
#
# Stress axis : x y z
#
# Youngs Moduli (GPa) = 89.35099 46.86771 70.97592
#
# Poissons Ratio (x) = 0.11232 -0.03664
# Poissons Ratio (y) = 0.21414 -0.18584
# Poissons Ratio (z) = -0.04612 -0.12272
#
# Static dielectric constant tensor:
#      x y z
#    x 1.836740 0.000000 0.000000 
#    y 0.000000 1.724070 0.000000 
#    z 0.000000 0.000000 1.735280 
# 
# From -- ./inp_files/1057.got.cif
#   From: 2010.05.17/outbox.cif.g08.bks.cpg/sg62_1_cif.got.tgz:1057.got - 2010.06.03 15:25:27.
