data_PCOD9465031
_publ_section_title
;
Structure prediction by ZEFSAII (Michael W. Deem and Ramdas Pophale) SiO2 
 PCOD9465031
Probable space group: P N M A
;
_chemical_formula_sum "Si O2"
_cell_formula_units_Z 40
_cell_length_a 21.809907
_cell_length_b 14.265512
_cell_length_c 6.858260
_cell_angle_alpha 90.000000
_cell_angle_beta 90.000000
_cell_angle_gamma 90.000000
_cell_volume 2133.806936
_symmetry_space_group_name_H-M "P N M A"
_symmetry_group_IT_number 62
_symmetry_cell_setting 'orthorhombic'
loop_
_space_group_symop_operation_xyz
x,y,z
1/2-x,-y,1/2+z
1/2+x,1/2-y,1/2-z
-x,1/2+y,-z
-x,-y,-z
1/2+x,y,1/2-z
1/2-x,1/2+y,1/2+z
x,1/2-y,z
loop_
_atom_site_type_symbol
_atom_site_label
_atom_site_fract_x
_atom_site_fract_y
_atom_site_fract_z
Si Si1 0.820512 0.515482 0.023018
Si Si2 0.646631 0.353230 0.173718
Si Si3 0.457132 0.508192 0.309860
Si Si4 0.755873 0.641191 0.337309
Si Si5 0.491601 0.857663 0.972630
O O1 0.886433 0.514485 0.128072
O O2 0.773171 0.576522 0.152554
O O3 0.830808 0.569161 0.820819
O O4 0.794632 0.413287 0.966988
O O5 0.657558 0.250000 0.261745
O O6 0.575000 0.362462 0.129666
O O7 0.683626 0.357535 0.972798
O O8 0.500000 0.500000 0.500000
O O9 0.465175 0.421057 0.161769
O O10 0.481190 0.596370 0.183844
O O11 0.740571 0.750000 0.291288
O O12 0.510981 0.750000 0.985339
#
# Coordination Sequence:
#
# PCOD9465031 Si02
#       5
#     8   8   8   8   8
#     4  12  22  40  66  88 125 164 203 260 312 366
#     4  10  20  37  63  91 116 154 206 253 297 359
#     4  11  23  38  63  93 126 160 205 254 316 369
#     4  11  24  40  61  91 122 160 208 255 311 369
#     4  10  22  40  62  90 125 162 205 253 301 369
#
# _framework density 18.745837999999999
#
# number of rings (size 3 to 8) (size 9 to 14) (size 15 to 20)
#    0.000    1.200    6.000    0.600    0.000    2.400 
#    0.000    0.000    0.000    0.000    0.000    0.000 
#    0.000    0.000    0.000    0.000    0.000    0.000 
#
# Total GULP energy -223266.829272 kJ/mol
# GULP energy per Si atom -5581.670732 kJ/mol
# Density = 1.870317 g / cm^3
# Si number density = 18.745838 Si / 1000 Ang^3
#
#
#
# Elastic Constant Matrix: (Units=GPa)
#
#
# Indices 1 2 3 4 5 6 
#
# 1 38.0477 25.4151 18.9006 0.0000 0.0000 0.0000
# 2 25.4151 132.4725 41.4182 0.0000 0.0000 0.0000
# 3 18.9006 41.4182 70.2498 0.0000 0.0000 0.0000
# 4 0.0000 0.0000 0.0000 22.4851 0.0000 0.0000
# 5 0.0000 0.0000 0.0000 0.0000 26.2085 0.0000
# 6 0.0000 0.0000 0.0000 0.0000 0.0000 22.8650
#
#
#
# Elastic Compliance Matrix: (Units=1/GPa)
#
#
# Indices 1 2 3 4 5 6 
#
# 1 0.032178 -0.004250 -0.006152 0.000000 0.000000 0.000000
# 2 -0.004250 0.009816 -0.004644 0.000000 0.000000 0.000000
# 3 -0.006152 -0.004644 0.018628 0.000000 0.000000 0.000000
# 4 0.000000 0.000000 0.000000 0.044474 0.000000 0.000000
# 5 0.000000 0.000000 0.000000 0.000000 0.038156 0.000000
# 6 0.000000 0.000000 0.000000 0.000000 0.000000 0.043735
#
#
# Mechanical properties :
#
#
# Convention : Reuss Voigt Hill
#
# Bulk Modulus (GPa) = 32.75408 45.80421 39.27914
# Shear Modulus (GPa) = 22.00183 24.64747 23.32465
#
# Velocity S-wave (km/s) = 3.42964 3.62998 3.53123
# Velocity P-wave (km/s) = 5.76141 6.48509 6.13393
#
# Compressibility (1/GPa) = 0.03053055
#
# Stress axis : x y z
#
# Youngs Moduli (GPa) = 31.07758 101.87378 53.68266
#
# Poissons Ratio (x) = 0.43297 0.33023
# Poissons Ratio (y) = 0.13208 0.24930
# Poissons Ratio (z) = 0.19118 0.47310
#
# Static dielectric constant tensor:
#      x y z
#    x 1.634210 0.000000 0.000000 
#    y 0.000000 1.667230 0.000000 
#    z 0.000000 0.000000 1.634840 
# 
# From -- ./inp_files/2643.got.cif
#   From: 2010.05.17/outbox.cif.g08.bks.cpg/sg62_2_cif.got.tgz:2643.got - 2010.06.03 15:25:27.
