data_PCOD9465382
_publ_section_title
;
Structure prediction by ZEFSAII (Michael W. Deem and Ramdas Pophale) SiO2 
 PCOD9465382
Probable space group: P N M A
;
_chemical_formula_sum "Si O2"
_cell_formula_units_Z 48
_cell_length_a 18.982129
_cell_length_b 21.221959
_cell_length_c 5.283136
_cell_angle_alpha 90.000000
_cell_angle_beta 90.000000
_cell_angle_gamma 90.000000
_cell_volume 2128.247746
_symmetry_space_group_name_H-M "P N M A"
_symmetry_group_IT_number 62
_symmetry_cell_setting 'orthorhombic'
loop_
_space_group_symop_operation_xyz
x,y,z
1/2-x,-y,1/2+z
1/2+x,1/2-y,1/2-z
-x,1/2+y,-z
-x,-y,-z
1/2+x,y,1/2-z
1/2-x,1/2+y,1/2+z
x,1/2-y,z
loop_
_atom_site_type_symbol
_atom_site_label
_atom_site_fract_x
_atom_site_fract_y
_atom_site_fract_z
Si Si1 0.134353 0.679791 0.681126
Si Si2 0.431473 0.527248 0.233851
Si Si3 0.058653 0.588110 0.401887
Si Si4 0.210613 0.321359 0.959530
Si Si5 0.681493 0.398885 0.044615
Si Si6 0.331775 0.057619 0.524532
O O1 0.125505 0.750000 0.790193
O O2 0.068912 0.657690 0.507720
O O3 0.205632 0.681190 0.514876
O O4 0.146069 0.622719 0.879219
O O5 0.498547 0.570535 0.301330
O O6 0.389982 0.565982 0.020766
O O7 0.371847 0.504562 0.427944
O O8 0.457940 0.460385 0.126658
O O9 0.135796 0.568374 0.300645
O O10 0.183600 0.250000 0.978446
O O11 0.181259 0.364557 0.186101
O O12 0.195370 0.349452 0.683946
O O13 0.748669 0.445643 0.019529
#
# Coordination Sequence:
#
# PCOD9465382 Si02
#       6
#     8   8   8   8   8   8
#     4   9  19  36  59  87 115 155 208 255 296 363
#     4  10  24  36  60  86 127 157 200 253 311 375
#     4  10  20  41  57  86 120 164 198 247 318 368
#     4  10  21  40  63  90 123 160 207 260 310 359
#     4  11  23  38  63  95 119 163 209 257 309 364
#     4  10  21  35  60  87 119 155 207 253 307 366
#
# _framework density 22.553766
#
# number of rings (size 3 to 8) (size 9 to 14) (size 15 to 20)
#    0.000    2.000    1.667    1.000    4.667    1.333 
#    0.000    1.667    0.000    0.000    0.000    0.000 
#    0.000    0.000    0.000    0.000    0.000    0.000 
#
# Total GULP energy -267815.171945 kJ/mol
# GULP energy per Si atom -5579.482749 kJ/mol
# Density = 2.250243 g / cm^3
# Si number density = 22.553766 Si / 1000 Ang^3
#
#
#
# Elastic Constant Matrix: (Units=GPa)
#
#
# Indices 1 2 3 4 5 6 
#
# 1 67.7030 31.9851 -6.6270 0.0000 0.0000 0.0000
# 2 31.9851 101.6139 22.2472 0.0000 0.0000 0.0000
# 3 -6.6270 22.2472 60.6749 0.0000 0.0000 0.0000
# 4 0.0000 0.0000 0.0000 25.0010 0.0000 0.0000
# 5 0.0000 0.0000 0.0000 0.0000 23.6330 0.0000
# 6 0.0000 0.0000 0.0000 0.0000 0.0000 21.2604
#
#
#
# Elastic Compliance Matrix: (Units=1/GPa)
#
#
# Indices 1 2 3 4 5 6 
#
# 1 0.018414 -0.006781 0.004498 0.000000 0.000000 0.000000
# 2 -0.006781 0.013197 -0.005580 0.000000 0.000000 0.000000
# 3 0.004498 -0.005580 0.019018 0.000000 0.000000 0.000000
# 4 0.000000 0.000000 0.000000 0.039998 0.000000 0.000000
# 5 0.000000 0.000000 0.000000 0.000000 0.042314 0.000000
# 6 0.000000 0.000000 0.000000 0.000000 0.000000 0.047036
#
#
# Mechanical properties :
#
#
# Convention : Reuss Voigt Hill
#
# Bulk Modulus (GPa) = 28.65020 36.13362 32.39191
# Shear Modulus (GPa) = 24.11522 26.13799 25.12661
#
# Velocity S-wave (km/s) = 3.27346 3.40798 3.34140
# Velocity P-wave (km/s) = 5.19789 5.61620 5.41109
#
# Compressibility (1/GPa) = 0.03490377
#
# Stress axis : x y z
#
# Youngs Moduli (GPa) = 54.30610 75.77380 52.58092
#
# Poissons Ratio (x) = 0.51382 -0.23648
# Poissons Ratio (y) = 0.36824 0.29338
# Poissons Ratio (z) = -0.24424 0.42278
#
# Static dielectric constant tensor:
#      x y z
#    x 1.879800 0.000000 0.000000 
#    y 0.000000 1.839190 0.000000 
#    z 0.000000 0.000000 1.923190 
# 
# From -- ./inp_files/1703.got.cif
#   From: 2010.05.17/outbox.cif.g08.bks.cpg/sg62_1_cif.got.tgz:1703.got - 2010.06.03 15:25:27.
