data_PCOD9465887
_publ_section_title
;
Structure prediction by ZEFSAII (Michael W. Deem and Ramdas Pophale) SiO2 
 PCOD9465887
Probable space group: P N M A
;
_chemical_formula_sum "Si O2"
_cell_formula_units_Z 48
_cell_length_a 14.027520
_cell_length_b 13.621145
_cell_length_c 10.413879
_cell_angle_alpha 90.000000
_cell_angle_beta 90.000000
_cell_angle_gamma 90.000000
_cell_volume 1989.789065
_symmetry_space_group_name_H-M "P N M A"
_symmetry_group_IT_number 62
_symmetry_cell_setting 'orthorhombic'
loop_
_space_group_symop_operation_xyz
x,y,z
1/2-x,-y,1/2+z
1/2+x,1/2-y,1/2-z
-x,1/2+y,-z
-x,-y,-z
1/2+x,y,1/2-z
1/2-x,1/2+y,1/2+z
x,1/2-y,z
loop_
_atom_site_type_symbol
_atom_site_label
_atom_site_fract_x
_atom_site_fract_y
_atom_site_fract_z
Si Si1 0.097894 0.131181 0.871994
Si Si2 0.607200 0.869619 0.468809
Si Si3 0.797760 0.134352 0.515894
Si Si4 0.582023 0.867779 0.759565
Si Si5 0.808412 0.632974 0.389961
Si Si6 0.079933 0.470248 0.396825
O O1 0.090998 0.250000 0.865757
O O2 0.186202 0.111956 0.967414
O O3 0.994426 0.096694 0.915409
O O4 0.117512 0.895940 0.881274
O O5 0.607300 0.750000 0.463086
O O6 0.700410 0.904022 0.393671
O O7 0.642809 0.931943 0.115672
O O8 0.811558 0.250000 0.543523
O O9 0.629649 0.096263 0.769553
O O10 0.566682 0.750000 0.760457
O O11 0.480355 0.918791 0.786621
O O12 0.657576 0.886095 0.875219
O O13 0.806034 0.750000 0.377236
O O14 0.854480 0.605974 0.525851
O O15 0.000000 0.500000 0.500000
#
# Coordination Sequence:
#
# PCOD9465887 Si02
#       6
#     8   8   8   8   8   8
#     4   9  19  38  63  88 121 165 212 257 313 379
#     4   9  19  36  60  95 128 162 211 263 316 379
#     4   9  19  38  62  86 118 167 210 256 311 369
#     4   9  18  35  61  92 130 164 203 258 318 376
#     4  10  21  39  64  92 126 165 207 262 322 376
#     4  10  21  38  59  90 123 161 211 258 305 381
#
# _framework density 24.123159999999999
#
# number of rings (size 3 to 8) (size 9 to 14) (size 15 to 20)
#    0.000    2.667    0.000    0.500    0.000    4.667 
#    9.000   14.167    0.000    0.000    0.000    0.000 
#    0.000    0.000    0.000    0.000    0.000    0.000 
#
# Total GULP energy -268521.305512 kJ/mol
# GULP energy per Si atom -5594.193865 kJ/mol
# Density = 2.406825 g / cm^3
# Si number density = 24.123160 Si / 1000 Ang^3
#
#
#
# Elastic Constant Matrix: (Units=GPa)
#
#
# Indices 1 2 3 4 5 6 
#
# 1 166.2268 15.6750 64.4042 0.0000 0.0000 0.0000
# 2 15.6750 71.6668 33.5100 0.0000 0.0000 0.0000
# 3 64.4042 33.5100 121.1277 0.0000 0.0000 0.0000
# 4 0.0000 0.0000 0.0000 21.9308 0.0000 0.0000
# 5 0.0000 0.0000 0.0000 0.0000 35.1682 0.0000
# 6 0.0000 0.0000 0.0000 0.0000 0.0000 24.7453
#
#
#
# Elastic Compliance Matrix: (Units=1/GPa)
#
#
# Indices 1 2 3 4 5 6 
#
# 1 0.007581 0.000260 -0.004103 0.000000 0.000000 0.000000
# 2 0.000260 0.016036 -0.004575 0.000000 0.000000 0.000000
# 3 -0.004103 -0.004575 0.011703 0.000000 0.000000 0.000000
# 4 0.000000 0.000000 0.000000 0.045598 0.000000 0.000000
# 5 0.000000 0.000000 0.000000 0.000000 0.028435 0.000000
# 6 0.000000 0.000000 0.000000 0.000000 0.000000 0.040412
#
#
# Mechanical properties :
#
#
# Convention : Reuss Voigt Hill
#
# Bulk Modulus (GPa) = 54.09804 65.13330 59.61567
# Shear Modulus (GPa) = 28.94192 32.73101 30.83647
#
# Velocity S-wave (km/s) = 3.46751 3.68751 3.57920
# Velocity P-wave (km/s) = 6.20532 6.72230 6.46897
#
# Compressibility (1/GPa) = 0.01848496
#
# Stress axis : x y z
#
# Youngs Moduli (GPa) = 131.90917 62.36153 85.44945
#
# Poissons Ratio (x) = -0.01623 0.35059
# Poissons Ratio (y) = -0.03434 0.39090
# Poissons Ratio (z) = 0.54120 0.28528
#
# Static dielectric constant tensor:
#      x y z
#    x 1.889530 0.000000 0.000000 
#    y 0.000000 1.969800 0.000000 
#    z 0.000000 0.000000 1.916620 
# 
# From -- ./inp_files/23858.got.cif
#   From: 2010.05.17/outbox.cif.g08.bks.cpg/sg62_12_cif.got.tgz:23858.got - 2010.06.03 15:25:27.
