data_PCOD9465510
_publ_section_title
;
Structure prediction by ZEFSAII (Michael W. Deem and Ramdas Pophale) SiO2 
 PCOD9465510
Probable space group: P N M A
;
_chemical_formula_sum "Si O2"
_cell_formula_units_Z 48
_cell_length_a 11.093734
_cell_length_b 10.545300
_cell_length_c 19.070353
_cell_angle_alpha 90.000000
_cell_angle_beta 90.000000
_cell_angle_gamma 90.000000
_cell_volume 2230.978679
_symmetry_space_group_name_H-M "P N M A"
_symmetry_group_IT_number 62
_symmetry_cell_setting 'orthorhombic'
loop_
_space_group_symop_operation_xyz
x,y,z
1/2-x,-y,1/2+z
1/2+x,1/2-y,1/2-z
-x,1/2+y,-z
-x,-y,-z
1/2+x,y,1/2-z
1/2-x,1/2+y,1/2+z
x,1/2-y,z
loop_
_atom_site_type_symbol
_atom_site_label
_atom_site_fract_x
_atom_site_fract_y
_atom_site_fract_z
Si Si1 0.063341 0.886195 0.460538
Si Si2 0.178574 0.098817 0.111620
Si Si3 0.578512 0.474760 0.833069
Si Si4 0.183333 0.397735 0.810673
Si Si5 0.854524 0.895525 0.038815
Si Si6 0.124184 0.390521 0.268244
O O1 0.035560 0.750000 0.493619
O O2 0.003835 0.892921 0.384210
O O3 0.207258 0.899740 0.459231
O O4 0.000000 0.000000 0.500000
O O5 0.205164 0.250000 0.101230
O O6 0.107211 0.091433 0.184784
O O7 0.300872 0.021361 0.127945
O O8 0.118687 0.050526 0.038925
O O9 0.607239 0.404206 0.760624
O O10 0.500150 0.595409 0.809310
O O11 0.221849 0.250000 0.820715
O O12 0.116358 0.439799 0.882405
O O13 0.288801 0.498807 0.795720
O O14 0.897826 0.750000 0.036574
O O15 0.177112 0.250000 0.278463
#
# Coordination Sequence:
#
# PCOD9465510 Si02
#       6
#     8   8   8   8   8   8
#     4  11  21  33  52  80 110 140 176 222 275 327
#     4   9  18  33  53  77 107 142 178 218 268 323
#     4  11  20  33  53  82 113 143 177 223 275 324
#     4  10  21  36  56  80 109 146 185 226 273 329
#     4   9  17  33  53  75 105 142 178 218 269 324
#     4  10  21  35  55  82 112 145 181 227 275 327
#
# _framework density 21.515221
#
# number of rings (size 3 to 8) (size 9 to 14) (size 15 to 20)
#    0.000    2.000    3.333    1.000    0.000    2.000 
#    0.000    0.833    0.000    0.000    0.000    0.000 
#    0.000    0.000    0.000    0.000    0.000    0.000 
#
# Total GULP energy -267534.401306 kJ/mol
# GULP energy per Si atom -5573.633361 kJ/mol
# Density = 2.146625 g / cm^3
# Si number density = 21.515221 Si / 1000 Ang^3
#
#
#
# Elastic Constant Matrix: (Units=GPa)
#
#
# Indices 1 2 3 4 5 6 
#
# 1 16.2498 14.2941 7.3547 0.0000 0.0000 0.0000
# 2 14.2941 100.1011 29.5243 0.0000 0.0000 0.0000
# 3 7.3547 29.5243 162.3388 0.0000 0.0000 0.0000
# 4 0.0000 0.0000 0.0000 32.2389 0.0000 0.0000
# 5 0.0000 0.0000 0.0000 0.0000 41.4782 0.0000
# 6 0.0000 0.0000 0.0000 0.0000 0.0000 14.4525
#
#
#
# Elastic Compliance Matrix: (Units=1/GPa)
#
#
# Indices 1 2 3 4 5 6 
#
# 1 0.070699 -0.009669 -0.001444 0.000000 0.000000 0.000000
# 2 -0.009669 0.011879 -0.001722 0.000000 0.000000 0.000000
# 3 -0.001444 -0.001722 0.006539 0.000000 0.000000 0.000000
# 4 0.000000 0.000000 0.000000 0.031018 0.000000 0.000000
# 5 0.000000 0.000000 0.000000 0.000000 0.024109 0.000000
# 6 0.000000 0.000000 0.000000 0.000000 0.000000 0.069192
#
#
# Mechanical properties :
#
#
# Convention : Reuss Voigt Hill
#
# Bulk Modulus (GPa) = 15.76206 42.33731 29.04969
# Shear Modulus (GPa) = 19.21187 32.80169 26.00678
#
# Velocity S-wave (km/s) = 2.99146 3.90882 3.48050
# Velocity P-wave (km/s) = 4.39018 6.33186 5.44822
#
# Compressibility (1/GPa) = 0.06344348
#
# Stress axis : x y z
#
# Youngs Moduli (GPa) = 14.14457 84.18465 152.93738
#
# Poissons Ratio (x) = 0.81402 0.22090
# Poissons Ratio (y) = 0.13677 0.26340
# Poissons Ratio (z) = 0.02043 0.14499
#
# Static dielectric constant tensor:
#      x y z
#    x 1.784710 0.000000 0.000000 
#    y 0.000000 1.787410 0.000000 
#    z 0.000000 0.000000 1.851750 
# 
# From -- ./inp_files/23014.got.cif
#   From: 2010.05.17/outbox.cif.g08.bks.cpg/sg62_12_cif.got.tgz:23014.got - 2010.06.03 15:25:27.
