data_PCOD9465839
_publ_section_title
;
Structure prediction by ZEFSAII (Michael W. Deem and Ramdas Pophale) SiO2 
 PCOD9465839
Probable space group: P N M A
;
_chemical_formula_sum "Si O2"
_cell_formula_units_Z 64
_cell_length_a 30.906468
_cell_length_b 11.827623
_cell_length_c 9.165130
_cell_angle_alpha 90.000000
_cell_angle_beta 90.000000
_cell_angle_gamma 90.000000
_cell_volume 3350.313746
_symmetry_space_group_name_H-M "P N M A"
_symmetry_group_IT_number 62
_symmetry_cell_setting 'orthorhombic'
loop_
_space_group_symop_operation_xyz
x,y,z
1/2-x,-y,1/2+z
1/2+x,1/2-y,1/2-z
-x,1/2+y,-z
-x,-y,-z
1/2+x,y,1/2-z
1/2-x,1/2+y,1/2+z
x,1/2-y,z
loop_
_atom_site_type_symbol
_atom_site_label
_atom_site_fract_x
_atom_site_fract_y
_atom_site_fract_z
Si Si1 0.421775 0.878163 0.716136
Si Si2 0.505171 0.881096 0.910896
Si Si3 0.605611 0.880892 0.826319
Si Si4 0.848863 0.970679 0.572716
Si Si5 0.318341 0.367833 0.681885
Si Si6 0.214518 0.115547 0.937423
Si Si7 0.374165 0.009048 0.480093
Si Si8 0.769728 0.549911 0.389989
O O1 0.415524 0.750000 0.667569
O O2 0.469155 0.890108 0.784783
O O3 0.412049 0.957934 0.578937
O O4 0.386998 0.903742 0.845439
O O5 0.498571 0.750000 0.974800
O O6 0.554314 0.881534 0.855643
O O7 0.500000 0.000000 0.000000
O O8 0.619351 0.750000 0.808262
O O9 0.629411 0.939335 0.963025
O O10 0.614980 0.955304 0.682926
O O11 0.823468 0.033193 0.702419
O O12 0.811779 0.910019 0.478001
O O13 0.321119 0.250000 0.762934
O O14 0.356368 0.382571 0.566642
O O15 0.273298 0.375330 0.597241
O O16 0.217291 0.250000 0.920184
O O17 0.166580 0.077829 0.987679
O O18 0.251718 0.068661 0.045730
O O19 0.220356 0.054011 0.781459
#
# Coordination Sequence:
#
# PCOD9465839 Si02
#       8
#     8   8   8   8   8   8   8   8
#     4  10  22  41  63  86 121 161 201 250 308 368
#     4  10  21  41  66  95 128 163 202 257 315 376
#     4  11  22  38  63  93 124 155 198 257 310 367
#     4  11  21  37  60  86 117 152 209 249 296 364
#     4  10  21  38  58  79 116 162 199 246 299 350
#     4  11  23  41  60  82 121 159 199 254 301 351
#     4  10  22  40  58  89 122 155 204 244 298 367
#     4  11  22  37  56  86 115 154 204 246 294 361
#
# _framework density 19.102688000000001
#
# number of rings (size 3 to 8) (size 9 to 14) (size 15 to 20)
#    0.000    1.500    3.750    1.500    0.000    2.000 
#    0.000    3.125    0.000    0.000    0.000    0.000 
#    0.000    0.000    0.000    0.000    0.000    0.000 
#
# Total GULP energy -356594.576448 kJ/mol
# GULP energy per Si atom -5571.790257 kJ/mol
# Density = 1.905921 g / cm^3
# Si number density = 19.102688 Si / 1000 Ang^3
#
#
#
# Elastic Constant Matrix: (Units=GPa)
#
#
# Indices 1 2 3 4 5 6 
#
# 1 68.1437 21.6343 16.2080 0.0000 0.0000 0.0000
# 2 21.6343 76.4265 35.5287 0.0000 0.0000 0.0000
# 3 16.2080 35.5287 82.8962 0.0000 0.0000 0.0000
# 4 0.0000 0.0000 0.0000 17.7036 0.0000 0.0000
# 5 0.0000 0.0000 0.0000 0.0000 24.9329 0.0000
# 6 0.0000 0.0000 0.0000 0.0000 0.0000 -11.1124
#
#
#
# Elastic Compliance Matrix: (Units=1/GPa)
#
#
# Indices 1 2 3 4 5 6 
#
# 1 0.016273 -0.003906 -0.001508 0.000000 0.000000 0.000000
# 2 -0.003906 0.017277 -0.006641 0.000000 0.000000 0.000000
# 3 -0.001508 -0.006641 0.015205 0.000000 0.000000 0.000000
# 4 0.000000 0.000000 0.000000 0.056486 0.000000 0.000000
# 5 0.000000 0.000000 0.000000 0.000000 0.040108 0.000000
# 6 0.000000 0.000000 0.000000 0.000000 0.000000 -0.089989
#
#
# Mechanical properties :
#
#
# Convention : Reuss Voigt Hill
#
# Bulk Modulus (GPa) = 40.57498 41.57872 41.07685
# Shear Modulus (GPa) = 57.02260 16.57783 36.80022
#
# Velocity S-wave (km/s) = 5.46949 2.94909 4.39389
# Velocity P-wave (km/s) = 7.82136 5.78008 6.87688
#
# Compressibility (1/GPa) = 0.02464573
#
# Stress axis : x y z
#
# Youngs Moduli (GPa) = 61.44968 57.87902 65.76990
#
# Poissons Ratio (x) = 0.22605 0.09917
# Poissons Ratio (y) = 0.24000 0.43680
# Poissons Ratio (z) = 0.09266 0.38439
#
# Static dielectric constant tensor:
#      x y z
#    x 1.676620 0.000000 0.000000 
#    y 0.000000 1.707310 0.000000 
#    z 0.000000 0.000000 1.652060 
# 
# From -- ./inp_files/10496.got.cif
#   From: 2010.05.17/outbox.cif.g08.bks.cpg/sg62_6_cif.got.tgz:10496.got - 2010.06.03 15:25:27.
