data_PCOD9465192
_publ_section_title
;
Structure prediction by ZEFSAII (Michael W. Deem and Ramdas Pophale) SiO2 
 PCOD9465192
Probable space group: P N M A
;
_chemical_formula_sum "Si O2"
_cell_formula_units_Z 56
_cell_length_a 15.779605
_cell_length_b 14.811358
_cell_length_c 10.751021
_cell_angle_alpha 90.000000
_cell_angle_beta 90.000000
_cell_angle_gamma 90.000000
_cell_volume 2512.700447
_symmetry_space_group_name_H-M "P N M A"
_symmetry_group_IT_number 62
_symmetry_cell_setting 'orthorhombic'
loop_
_space_group_symop_operation_xyz
x,y,z
1/2-x,-y,1/2+z
1/2+x,1/2-y,1/2-z
-x,1/2+y,-z
-x,-y,-z
1/2+x,y,1/2-z
1/2-x,1/2+y,1/2+z
x,1/2-y,z
loop_
_atom_site_type_symbol
_atom_site_label
_atom_site_fract_x
_atom_site_fract_y
_atom_site_fract_z
Si Si1 0.088890 0.349855 0.022678
Si Si2 0.315742 0.504868 0.662830
Si Si3 0.544332 0.612680 0.745210
Si Si4 0.010652 0.909769 0.219025
Si Si5 0.792484 0.850344 0.411390
Si Si6 0.764703 0.151309 0.176132
Si Si7 0.981533 0.607508 0.487917
O O1 0.127203 0.250000 0.024752
O O2 0.157788 0.429011 0.048356
O O3 0.019382 0.357336 0.134652
O O4 0.038753 0.362063 0.892857
O O5 0.396026 0.440593 0.680253
O O6 0.235321 0.438792 0.661767
O O7 0.297610 0.574943 0.773258
O O8 0.539000 0.503921 0.740121
O O9 0.640841 0.640785 0.726714
O O10 0.514362 0.644389 0.881159
O O11 0.018114 0.863122 0.353671
O O12 0.790535 0.750000 0.352593
O O13 0.728889 0.851498 0.527892
O O14 0.883760 0.867452 0.470959
O O15 0.730299 0.250000 0.210102
O O16 0.000000 0.500000 0.500000
#
# Coordination Sequence:
#
# PCOD9465192 Si02
#       7
#     8   8   8   8   8   8   8
#     4  11  22  38  61  90 124 165 212 259 308 370
#     4  11  22  38  61  89 123 163 208 258 314 372
#     4  10  20  38  64  91 121 159 208 259 309 370
#     4  10  21  38  61  88 119 162 208 257 311 368
#     4  11  24  41  63  91 127 169 210 253 313 383
#     4  11  22  37  61  93 124 158 205 261 314 372
#     4  10  21  40  64  90 120 158 205 259 314 369
#
# _framework density 22.286778999999999
#
# number of rings (size 3 to 8) (size 9 to 14) (size 15 to 20)
#    0.000    1.429    0.000    8.571    0.000    4.571 
#    0.000    0.000    0.000    4.286    0.000    0.000 
#    0.000    0.000    0.000    0.000    0.000    0.000 
#
# Total GULP energy -312659.799190 kJ/mol
# GULP energy per Si atom -5583.210700 kJ/mol
# Density = 2.223605 g / cm^3
# Si number density = 22.286779 Si / 1000 Ang^3
#
#
#
# Elastic Constant Matrix: (Units=GPa)
#
#
# Indices 1 2 3 4 5 6 
#
# 1 43.9848 14.9589 -8.6847 0.0000 0.0000 0.0000
# 2 14.9589 106.4446 20.6686 0.0000 0.0000 0.0000
# 3 -8.6847 20.6686 91.6450 0.0000 0.0000 0.0000
# 4 0.0000 0.0000 0.0000 1.1287 0.0000 0.0000
# 5 0.0000 0.0000 0.0000 0.0000 28.8521 0.0000
# 6 0.0000 0.0000 0.0000 0.0000 0.0000 -8.1338
#
#
#
# Elastic Compliance Matrix: (Units=1/GPa)
#
#
# Indices 1 2 3 4 5 6 
#
# 1 0.024783 -0.004119 0.003278 0.000000 0.000000 0.000000
# 2 -0.004119 0.010509 -0.002761 0.000000 0.000000 0.000000
# 3 0.003278 -0.002761 0.011845 0.000000 0.000000 0.000000
# 4 0.000000 0.000000 0.000000 0.885964 0.000000 0.000000
# 5 0.000000 0.000000 0.000000 0.000000 0.034660 0.000000
# 6 0.000000 0.000000 0.000000 0.000000 0.000000 -0.122944
#
#
# Mechanical properties :
#
#
# Convention : Reuss Voigt Hill
#
# Bulk Modulus (GPa) = 25.04188 32.88443 28.96315
# Shear Modulus (GPa) = 5.77812 18.71150 12.24481
#
# Velocity S-wave (km/s) = 1.61191 2.90069 2.34651
# Velocity P-wave (km/s) = 3.83731 5.09959 4.51280
#
# Compressibility (1/GPa) = 0.03993310
#
# Stress axis : x y z
#
# Youngs Moduli (GPa) = 40.34990 95.15229 84.42487
#
# Poissons Ratio (x) = 0.39196 -0.27671
# Poissons Ratio (y) = 0.16621 0.23306
# Poissons Ratio (z) = -0.13225 0.26267
#
# Static dielectric constant tensor:
#      x y z
#    x 1.815970 0.000000 0.000000 
#    y 0.000000 1.830000 0.000000 
#    z 0.000000 0.000000 1.865860 
# 
# From -- ./inp_files/13399.got.cif
#   From: 2010.05.17/outbox.cif.g08.bks.cpg/sg62_7_cif.got.tgz:13399.got - 2010.06.03 15:25:27.
