data_PCOD9465459
_publ_section_title
;
Structure prediction by ZEFSAII (Michael W. Deem and Ramdas Pophale) SiO2 
 PCOD9465459
Probable space group: P N M A
;
_chemical_formula_sum "Si O2"
_cell_formula_units_Z 64
_cell_length_a 25.450233
_cell_length_b 7.390012
_cell_length_c 14.668216
_cell_angle_alpha 90.000000
_cell_angle_beta 90.000000
_cell_angle_gamma 90.000000
_cell_volume 2758.761795
_symmetry_space_group_name_H-M "P N M A"
_symmetry_group_IT_number 62
_symmetry_cell_setting 'orthorhombic'
loop_
_space_group_symop_operation_xyz
x,y,z
1/2-x,-y,1/2+z
1/2+x,1/2-y,1/2-z
-x,1/2+y,-z
-x,-y,-z
1/2+x,y,1/2-z
1/2-x,1/2+y,1/2+z
x,1/2-y,z
loop_
_atom_site_type_symbol
_atom_site_label
_atom_site_fract_x
_atom_site_fract_y
_atom_site_fract_z
Si Si1 0.246599 0.971928 0.981412
Si Si2 0.846751 0.468376 0.888164
Si Si3 0.993056 0.028198 0.194295
Si Si4 0.135081 0.035168 0.478232
Si Si5 0.175915 0.960452 0.822809
Si Si6 0.398158 0.466917 0.175500
Si Si7 0.598571 0.462113 0.214357
Si Si8 0.576322 0.539172 0.537384
O O1 0.245312 0.750000 0.980998
O O2 0.205933 0.028240 0.060278
O O3 0.305879 0.033897 0.994279
O O4 0.222969 0.034498 0.884092
O O5 0.847881 0.250000 0.893532
O O6 0.852849 0.520990 0.783577
O O7 0.897357 0.538929 0.946269
O O8 0.993183 0.250000 0.189478
O O9 0.949195 0.973714 0.268575
O O10 0.972807 0.964910 0.094889
O O11 0.048485 0.961946 0.231664
O O12 0.140585 0.250000 0.464474
O O13 0.110355 0.961403 0.385130
O O14 0.101985 0.008704 0.569465
O O15 0.188865 0.750000 0.806547
O O16 0.153924 0.037807 0.728223
O O17 0.125118 0.966620 0.890305
O O18 0.396897 0.250000 0.184620
O O19 0.586844 0.250000 0.202096
O O20 0.565705 0.750000 0.519872
#
# Coordination Sequence:
#
# PCOD9465459 Si02
#       8
#     8   8   8   8   8   8   8   8
#     4   8  15  30  50  69  93 124 153 187 237 292
#     4   9  17  31  52  74  94 121 159 199 238 283
#     4   8  15  30  50  71  97 128 158 192 240 289
#     4  10  21  34  46  65  95 129 161 192 235 288
#     4   7  11  23  46  71  87 107 148 193 226 266
#     4   9  17  31  53  74  89 116 164 209 234 266
#     4  10  21  34  47  68 101 134 159 190 238 292
#     4   7  11  23  46  72  92 114 150 189 224 273
#
# _framework density 23.198813000000001
#
# number of rings (size 3 to 8) (size 9 to 14) (size 15 to 20)
#    0.000    3.500    0.000    3.000    0.000    2.500 
#    0.000    2.500    0.000    7.500    0.000    0.000 
#    0.000    0.000    0.000    0.000    0.000    0.000 
#
# Total GULP energy -357053.728102 kJ/mol
# GULP energy per Si atom -5578.964502 kJ/mol
# Density = 2.314601 g / cm^3
# Si number density = 23.198813 Si / 1000 Ang^3
#
#
#
# Elastic Constant Matrix: (Units=GPa)
#
#
# Indices 1 2 3 4 5 6 
#
# 1 69.5998 2.1204 31.1394 0.0000 0.0000 0.0000
# 2 2.1204 75.8475 -1.9898 0.0000 0.0000 0.0000
# 3 31.1394 -1.9898 150.6201 0.0000 0.0000 0.0000
# 4 0.0000 0.0000 0.0000 -238.9896 0.0000 0.0000
# 5 0.0000 0.0000 0.0000 0.0000 17.3968 0.0000
# 6 0.0000 0.0000 0.0000 0.0000 0.0000 -3.3508
#
#
#
# Elastic Compliance Matrix: (Units=1/GPa)
#
#
# Indices 1 2 3 4 5 6 
#
# 1 0.015854 -0.000529 -0.003285 0.000000 0.000000 0.000000
# 2 -0.000529 0.013207 0.000284 0.000000 0.000000 0.000000
# 3 -0.003285 0.000284 0.007322 0.000000 0.000000 0.000000
# 4 0.000000 0.000000 0.000000 -0.004184 0.000000 0.000000
# 5 0.000000 0.000000 0.000000 0.000000 0.057482 0.000000
# 6 0.000000 0.000000 0.000000 0.000000 0.000000 -0.298433
#
#
# Mechanical properties :
#
#
# Convention : Reuss Voigt Hill
#
# Bulk Modulus (GPa) = 34.10395 39.84523 36.97459
# Shear Modulus (GPa) = -26.05265 -27.33556 -26.69410
#
# Velocity S-wave (km/s) = -3.35478 -3.43639 -3.39583
# Velocity P-wave (km/s) = 0.52289 1.21154 0.77279
#
# Compressibility (1/GPa) = 0.02932211
#
# Stress axis : x y z
#
# Youngs Moduli (GPa) = 63.07744 75.71969 136.57415
#
# Poissons Ratio (x) = 0.04008 0.44859
# Poissons Ratio (y) = 0.03339 -0.03878
# Poissons Ratio (z) = 0.20718 -0.02150
#
# Static dielectric constant tensor:
#      x y z
#    x 1.888650 0.000000 0.000000 
#    y 0.000000 1.890870 0.000000 
#    z 0.000000 0.000000 1.879810 
# 
# From -- ./inp_files/15589.got.cif
#   From: 2010.05.17/outbox.cif.g08.bks.cpg/sg62_8_cif.got.tgz:15589.got - 2010.06.03 15:25:27.
