data_PCOD9465655
_publ_section_title
;
Structure prediction by ZEFSAII (Michael W. Deem and Ramdas Pophale) SiO2 
 PCOD9465655
Probable space group: P N M A
;
_chemical_formula_sum "Si O2"
_cell_formula_units_Z 48
_cell_length_a 30.467796
_cell_length_b 13.837393
_cell_length_c 5.527620
_cell_angle_alpha 90.000000
_cell_angle_beta 90.000000
_cell_angle_gamma 90.000000
_cell_volume 2330.416219
_symmetry_space_group_name_H-M "P N M A"
_symmetry_group_IT_number 62
_symmetry_cell_setting 'orthorhombic'
loop_
_space_group_symop_operation_xyz
x,y,z
1/2-x,-y,1/2+z
1/2+x,1/2-y,1/2-z
-x,1/2+y,-z
-x,-y,-z
1/2+x,y,1/2-z
1/2-x,1/2+y,1/2+z
x,1/2-y,z
loop_
_atom_site_type_symbol
_atom_site_label
_atom_site_fract_x
_atom_site_fract_y
_atom_site_fract_z
Si Si1 0.519579 0.956857 0.248239
Si Si2 0.243567 0.144433 0.405223
Si Si3 0.477732 0.750000 0.204052
Si Si4 0.341350 0.861577 0.253192
Si Si5 0.111102 0.450674 0.359199
Si Si6 0.196078 0.510675 0.139230
Si Si7 0.921134 0.750000 0.804192
O O1 0.507512 0.844859 0.231186
O O2 0.500000 0.000000 0.500000
O O3 0.570439 0.985753 0.223683
O O4 0.500000 0.000000 0.000000
O O5 0.248828 0.250000 0.290824
O O6 0.198212 0.146710 0.555735
O O7 0.236959 0.053822 0.229897
O O8 0.284902 0.113643 0.566210
O O9 0.446990 0.750000 0.443456
O O10 0.452712 0.750000 0.940075
O O11 0.347512 0.750000 0.331505
O O12 0.323989 0.941965 0.433997
O O13 0.384648 0.907474 0.129842
O O14 0.155504 0.511631 0.322836
O O15 0.106730 0.348778 0.215789
#
# Coordination Sequence:
#
# PCOD9465655 Si02
#       7
#     8   8   4   8   8   8   4
#     4  12  25  45  70  99 135 180 224 276 345 410
#     4  10  21  40  61  89 122 167 218 258 328 400
#     4  12  24  46  72  98 132 184 224 278 342 420
#     4  10  21  36  63  92 122 161 210 273 328 382
#     4  11  25  38  62 101 129 165 221 280 336 396
#     4  11  22  39  62  92 130 167 214 277 328 393
#     4  12  24  42  72 104 132 170 230 284 350 398
#
# _framework density 20.597180999999999
#
# number of rings (size 3 to 8) (size 9 to 14) (size 15 to 20)
#    0.000    1.000    5.833    0.500    7.000    0.000 
#    1.500    0.000    1.833    0.000    0.000    0.000 
#    0.000    0.000    0.000    0.000    0.000    0.000 
#
# Total GULP energy -267661.743725 kJ/mol
# GULP energy per Si atom -5576.286328 kJ/mol
# Density = 2.055030 g / cm^3
# Si number density = 20.597181 Si / 1000 Ang^3
#
#
#
# Elastic Constant Matrix: (Units=GPa)
#
#
# Indices 1 2 3 4 5 6 
#
# 1 92.6965 35.9442 12.6215 0.0000 0.0000 0.0000
# 2 35.9442 96.6175 18.7439 0.0000 0.0000 0.0000
# 3 12.6215 18.7439 75.1880 0.0000 0.0000 0.0000
# 4 0.0000 0.0000 0.0000 28.9494 0.0000 0.0000
# 5 0.0000 0.0000 0.0000 0.0000 37.1995 0.0000
# 6 0.0000 0.0000 0.0000 0.0000 0.0000 24.7301
#
#
#
# Elastic Compliance Matrix: (Units=1/GPa)
#
#
# Indices 1 2 3 4 5 6 
#
# 1 0.012678 -0.004522 -0.001001 0.000000 0.000000 0.000000
# 2 -0.004522 0.012489 -0.002354 0.000000 0.000000 0.000000
# 3 -0.001001 -0.002354 0.014055 0.000000 0.000000 0.000000
# 4 0.000000 0.000000 0.000000 0.034543 0.000000 0.000000
# 5 0.000000 0.000000 0.000000 0.000000 0.026882 0.000000
# 6 0.000000 0.000000 0.000000 0.000000 0.000000 0.040436
#
#
# Mechanical properties :
#
#
# Convention : Reuss Voigt Hill
#
# Bulk Modulus (GPa) = 42.61294 44.34680 43.47987
# Shear Modulus (GPa) = 30.36550 31.32199 30.84374
#
# Velocity S-wave (km/s) = 3.84377 3.90384 3.87392
# Velocity P-wave (km/s) = 6.35870 6.47280 6.41600
#
# Compressibility (1/GPa) = 0.02346705
#
# Stress axis : x y z
#
# Youngs Moduli (GPa) = 78.87851 80.06893 71.14953
#
# Poissons Ratio (x) = 0.36209 0.07120
# Poissons Ratio (y) = 0.35671 0.16751
# Poissons Ratio (z) = 0.07894 0.18851
#
# Static dielectric constant tensor:
#      x y z
#    x 1.785260 0.000000 0.000000 
#    y 0.000000 1.668620 0.000000 
#    z 0.000000 0.000000 1.958570 
# 
# From -- ./inp_files/3572.got.cif
#   From: 2010.05.17/outbox.cif.g08.bks.cpg/sg62_2_cif.got.tgz:3572.got - 2010.06.03 15:25:27.
