data_PCOD9465800
_publ_section_title
;
Structure prediction by ZEFSAII (Michael W. Deem and Ramdas Pophale) SiO2 
 PCOD9465800
Probable space group: P N M A
;
_chemical_formula_sum "Si O2"
_cell_formula_units_Z 48
_cell_length_a 8.037112
_cell_length_b 19.351065
_cell_length_c 13.093641
_cell_angle_alpha 90.000000
_cell_angle_beta 90.000000
_cell_angle_gamma 90.000000
_cell_volume 2036.410471
_symmetry_space_group_name_H-M "P N M A"
_symmetry_group_IT_number 62
_symmetry_cell_setting 'orthorhombic'
loop_
_space_group_symop_operation_xyz
x,y,z
1/2-x,-y,1/2+z
1/2+x,1/2-y,1/2-z
-x,1/2+y,-z
-x,-y,-z
1/2+x,y,1/2-z
1/2-x,1/2+y,1/2+z
x,1/2-y,z
loop_
_atom_site_type_symbol
_atom_site_label
_atom_site_fract_x
_atom_site_fract_y
_atom_site_fract_z
Si Si1 0.678394 0.329674 0.472364
Si Si2 0.119902 0.891120 0.704915
Si Si3 0.504769 0.057184 0.587649
Si Si4 0.528959 0.171407 0.907616
Si Si5 0.161924 0.454213 0.711490
Si Si6 0.292754 0.829421 0.883263
O O1 0.638388 0.250000 0.452592
O O2 0.728067 0.368306 0.368096
O O3 0.536488 0.369698 0.533368
O O4 0.846976 0.331862 0.540964
O O5 0.168157 0.878346 0.822122
O O6 0.968885 0.842874 0.672390
O O7 0.084429 0.971281 0.682921
O O8 0.657895 0.046501 0.666051
O O9 0.340185 0.050652 0.656776
O O10 0.500000 0.000000 0.500000
O O11 0.552493 0.250000 0.868987
O O12 0.559031 0.112107 0.825999
O O13 0.660907 0.158542 0.999192
O O14 0.242498 0.750000 0.869563
#
# Coordination Sequence:
#
# PCOD9465800 Si02
#       6
#     8   8   8   8   8   8
#     4  10  22  44  70  99 139 185 236 299 357 425
#     4  11  22  37  63  99 140 181 231 285 360 423
#     4  12  27  48  69 107 141 186 240 291 357 432
#     4   9  22  44  70 101 136 187 243 293 357 426
#     4  12  26  44  71 100 143 183 234 296 355 426
#     4  10  21  37  61  94 136 181 233 289 351 425
#
# _framework density 23.570886000000002
#
# number of rings (size 3 to 8) (size 9 to 14) (size 15 to 20)
#    0.000    1.333    1.667    4.500    2.333    4.000 
#    0.000    1.667    0.000    0.000    0.000    0.000 
#    0.000    0.000    0.000    0.000    0.000    0.000 
#
# Total GULP energy -268713.699519 kJ/mol
# GULP energy per Si atom -5598.202073 kJ/mol
# Density = 2.351724 g / cm^3
# Si number density = 23.570886 Si / 1000 Ang^3
#
#
#
# Elastic Constant Matrix: (Units=GPa)
#
#
# Indices 1 2 3 4 5 6 
#
# 1 89.0391 11.9304 29.0782 0.0000 0.0000 0.0000
# 2 11.9304 157.0031 69.7340 0.0000 0.0000 0.0000
# 3 29.0782 69.7340 108.5211 0.0000 0.0000 0.0000
# 4 0.0000 0.0000 0.0000 34.8029 0.0000 0.0000
# 5 0.0000 0.0000 0.0000 0.0000 43.8665 0.0000
# 6 0.0000 0.0000 0.0000 0.0000 0.0000 20.4617
#
#
#
# Elastic Compliance Matrix: (Units=1/GPa)
#
#
# Indices 1 2 3 4 5 6 
#
# 1 0.012370 0.000745 -0.003793 0.000000 0.000000 0.000000
# 2 0.000745 0.008958 -0.005956 0.000000 0.000000 0.000000
# 3 -0.003793 -0.005956 0.014058 0.000000 0.000000 0.000000
# 4 0.000000 0.000000 0.000000 0.028733 0.000000 0.000000
# 5 0.000000 0.000000 0.000000 0.000000 0.022796 0.000000
# 6 0.000000 0.000000 0.000000 0.000000 0.000000 0.048872
#
#
# Mechanical properties :
#
#
# Convention : Reuss Voigt Hill
#
# Bulk Modulus (GPa) = 57.54430 64.00539 60.77485
# Shear Modulus (GPa) = 31.33050 36.08093 33.70572
#
# Velocity S-wave (km/s) = 3.64978 3.91671 3.78560
# Velocity P-wave (km/s) = 6.49827 6.90417 6.70429
#
# Compressibility (1/GPa) = 0.01737791
#
# Stress axis : x y z
#
# Youngs Moduli (GPa) = 80.84095 111.63153 71.13239
#
# Poissons Ratio (x) = -0.08314 0.26981
# Poissons Ratio (y) = -0.06021 0.42365
# Poissons Ratio (z) = 0.30664 0.66486
#
# Static dielectric constant tensor:
#      x y z
#    x 1.939090 0.000000 0.000000 
#    y 0.000000 1.840270 0.000000 
#    z 0.000000 0.000000 1.879160 
# 
# From -- ./inp_files/16951.got.cif
#   From: 2010.05.17/outbox.cif.g08.bks.cpg/sg62_9_cif.got.tgz:16951.got - 2010.06.03 15:25:27.
