data_PCOD9465387
_publ_section_title
;
Structure prediction by ZEFSAII (Michael W. Deem and Ramdas Pophale) SiO2 
 PCOD9465387
Probable space group: P N M A
;
_chemical_formula_sum "Si O2"
_cell_formula_units_Z 40
_cell_length_a 7.577156
_cell_length_b 16.144532
_cell_length_c 15.339641
_cell_angle_alpha 90.000000
_cell_angle_beta 90.000000
_cell_angle_gamma 90.000000
_cell_volume 1876.492723
_symmetry_space_group_name_H-M "P N M A"
_symmetry_group_IT_number 62
_symmetry_cell_setting 'orthorhombic'
loop_
_space_group_symop_operation_xyz
x,y,z
1/2-x,-y,1/2+z
1/2+x,1/2-y,1/2-z
-x,1/2+y,-z
-x,-y,-z
1/2+x,y,1/2-z
1/2-x,1/2+y,1/2+z
x,1/2-y,z
loop_
_atom_site_type_symbol
_atom_site_label
_atom_site_fract_x
_atom_site_fract_y
_atom_site_fract_z
Si Si1 0.065445 0.385051 0.016038
Si Si2 0.566547 0.586570 0.086366
Si Si3 0.799756 0.750000 0.853779
Si Si4 0.630701 0.750000 0.189706
Si Si5 0.381462 0.750000 0.849000
Si Si6 0.792491 0.575617 0.569155
Si Si7 0.527538 0.750000 0.382378
O O1 0.119070 0.328496 0.097716
O O2 0.913175 0.444959 0.053068
O O3 0.255732 0.402623 0.972381
O O4 0.960491 0.329684 0.944240
O O5 0.548663 0.664957 0.150459
O O6 0.607906 0.495490 0.125441
O O7 0.401561 0.580018 0.021427
O O8 0.590031 0.750000 0.867172
O O9 0.845608 0.750000 0.753144
O O10 0.638274 0.750000 0.294167
O O11 0.828067 0.750000 0.153251
O O12 0.304002 0.833891 0.889130
#
# Coordination Sequence:
#
# PCOD9465387 Si02
#       7
#     8   8   4   4   4   8   4
#     4  10  20  41  62  90 123 163 212 249 305 373
#     4  10  22  40  62  92 122 163 203 256 298 373
#     4  11  22  39  65  90 124 163 209 259 316 372
#     4  10  21  39  59  85 128 150 206 253 296 356
#     4  12  22  40  62  94 128 159 205 267 310 371
#     4  11  22  38  66  90 122 164 204 245 320 359
#     4   9  21  34  62  91 114 166 202 247 308 355
#
# _framework density 21.316361000000001
#
# number of rings (size 3 to 8) (size 9 to 14) (size 15 to 20)
#    0.000    1.600    2.000    4.200    2.800    0.000 
#    0.000   10.000    0.000    0.000    0.000    0.000 
#    0.000    0.000    0.000    0.000    0.000    0.000 
#
# Total GULP energy -223172.484970 kJ/mol
# GULP energy per Si atom -5579.312124 kJ/mol
# Density = 2.126784 g / cm^3
# Si number density = 21.316361 Si / 1000 Ang^3
#
#
#
# Elastic Constant Matrix: (Units=GPa)
#
#
# Indices 1 2 3 4 5 6 
#
# 1 105.1969 8.8030 9.3479 0.0000 0.0000 0.0000
# 2 8.8030 87.6884 20.7012 0.0000 0.0000 0.0000
# 3 9.3479 20.7012 70.5108 0.0000 0.0000 0.0000
# 4 0.0000 0.0000 0.0000 -6.8725 0.0000 0.0000
# 5 0.0000 0.0000 0.0000 0.0000 28.2948 0.0000
# 6 0.0000 0.0000 0.0000 0.0000 0.0000 29.5773
#
#
#
# Elastic Compliance Matrix: (Units=1/GPa)
#
#
# Indices 1 2 3 4 5 6 
#
# 1 0.009661 -0.000717 -0.001070 0.000000 0.000000 0.000000
# 2 -0.000717 0.012307 -0.003518 0.000000 0.000000 0.000000
# 3 -0.001070 -0.003518 0.015357 0.000000 0.000000 0.000000
# 4 0.000000 0.000000 0.000000 -0.145507 0.000000 0.000000
# 5 0.000000 0.000000 0.000000 0.000000 0.035342 0.000000
# 6 0.000000 0.000000 0.000000 0.000000 0.000000 0.033810
#
#
# Mechanical properties :
#
#
# Convention : Reuss Voigt Hill
#
# Bulk Modulus (GPa) = 37.43396 37.90004 37.66700
# Shear Modulus (GPa) = -256.20921 25.16952 -115.51984
#
# Velocity S-wave (km/s) = -10.97518 3.43995 -7.36958
# Velocity P-wave (km/s) = 11.95855 5.79621 7.39631
#
# Compressibility (1/GPa) = 0.02671371
#
# Stress axis : x y z
#
# Youngs Moduli (GPa) = 103.50787 81.25772 65.11710
#
# Poissons Ratio (x) = 0.05828 0.06969
# Poissons Ratio (y) = 0.07424 0.22908
# Poissons Ratio (z) = 0.11078 0.28586
#
# Static dielectric constant tensor:
#      x y z
#    x 1.786980 0.000000 0.000000 
#    y 0.000000 1.910650 0.000000 
#    z 0.000000 0.000000 1.701880 
# 
# From -- ./inp_files/16822.got.cif
#   From: 2010.05.17/outbox.cif.g08.bks.cpg/sg62_9_cif.got.tgz:16822.got - 2010.06.03 15:25:27.
