data_PCOD9465799
_publ_section_title
;
Structure prediction by ZEFSAII (Michael W. Deem and Ramdas Pophale) SiO2 
 PCOD9465799
Probable space group: P N M A
;
_chemical_formula_sum "Si O2"
_cell_formula_units_Z 40
_cell_length_a 11.700776
_cell_length_b 10.407281
_cell_length_c 15.975699
_cell_angle_alpha 90.000000
_cell_angle_beta 90.000000
_cell_angle_gamma 90.000000
_cell_volume 1945.413008
_symmetry_space_group_name_H-M "P N M A"
_symmetry_group_IT_number 62
_symmetry_cell_setting 'orthorhombic'
loop_
_space_group_symop_operation_xyz
x,y,z
1/2-x,-y,1/2+z
1/2+x,1/2-y,1/2-z
-x,1/2+y,-z
-x,-y,-z
1/2+x,y,1/2-z
1/2-x,1/2+y,1/2+z
x,1/2-y,z
loop_
_atom_site_type_symbol
_atom_site_label
_atom_site_fract_x
_atom_site_fract_y
_atom_site_fract_z
Si Si1 0.304413 0.597102 0.941941
Si Si2 0.525050 0.611543 0.101311
Si Si3 0.648580 0.604468 0.721434
Si Si4 0.733703 0.468527 0.882302
Si Si5 0.459443 0.387751 0.708222
O O1 0.314011 0.750000 0.959960
O O2 0.423606 0.520577 0.934132
O O3 0.238600 0.589677 0.854003
O O4 0.243279 0.520509 0.018150
O O5 0.553863 0.750000 0.060044
O O6 0.388624 0.604019 0.114236
O O7 0.575747 0.615629 0.194752
O O8 0.604516 0.750000 0.720884
O O9 0.705080 0.576789 0.812496
O O10 0.547661 0.504347 0.702509
O O11 0.845724 0.402025 0.845761
O O12 0.515958 0.250000 0.688784
#
# Coordination Sequence:
#
# PCOD9465799 Si02
#       5
#     8   8   8   8   8
#     4  11  23  41  65  93 128 165 206 258 313 370
#     4  10  21  37  61  93 126 161 206 257 309 370
#     4  10  24  43  62  92 131 166 206 260 315 369
#     4  11  22  40  64  92 123 166 207 256 311 372
#     4  10  21  39  65  92 123 166 211 256 308 372
#
# _framework density 20.561185999999999
#
# number of rings (size 3 to 8) (size 9 to 14) (size 15 to 20)
#    0.000    1.600    2.000    2.400    0.000    8.000 
#    0.000    0.000    0.000    0.000    0.000    0.000 
#    0.000    0.000    0.000    0.000    0.000    0.000 
#
# Total GULP energy -222674.400465 kJ/mol
# GULP energy per Si atom -5566.860012 kJ/mol
# Density = 2.051439 g / cm^3
# Si number density = 20.561186 Si / 1000 Ang^3
#
#
#
# Elastic Constant Matrix: (Units=GPa)
#
#
# Indices 1 2 3 4 5 6 
#
# 1 53.5520 67.2193 17.6367 0.0000 0.0000 0.0000
# 2 67.2193 155.8012 39.1507 0.0000 0.0000 0.0000
# 3 17.6367 39.1507 95.2832 0.0000 0.0000 0.0000
# 4 0.0000 0.0000 0.0000 20.3623 0.0000 0.0000
# 5 0.0000 0.0000 0.0000 0.0000 36.5749 0.0000
# 6 0.0000 0.0000 0.0000 0.0000 0.0000 18.8117
#
#
#
# Elastic Compliance Matrix: (Units=1/GPa)
#
#
# Indices 1 2 3 4 5 6 
#
# 1 0.040743 -0.017489 -0.000355 0.000000 0.000000 0.000000
# 2 -0.017489 0.014665 -0.002788 0.000000 0.000000 0.000000
# 3 -0.000355 -0.002788 0.011707 0.000000 0.000000 0.000000
# 4 0.000000 0.000000 0.000000 0.049110 0.000000 0.000000
# 5 0.000000 0.000000 0.000000 0.000000 0.027341 0.000000
# 6 0.000000 0.000000 0.000000 0.000000 0.000000 0.053159
#
#
# Mechanical properties :
#
#
# Convention : Reuss Voigt Hill
#
# Bulk Modulus (GPa) = 38.68680 61.40552 50.04616
# Shear Modulus (GPa) = 20.27531 27.19175 23.73353
#
# Velocity S-wave (km/s) = 3.14362 3.64054 3.40117
# Velocity P-wave (km/s) = 5.65975 6.89934 6.31006
#
# Compressibility (1/GPa) = 0.02584861
#
# Stress axis : x y z
#
# Youngs Moduli (GPa) = 24.54419 68.19163 85.42252
#
# Poissons Ratio (x) = 1.19260 0.03036
# Poissons Ratio (y) = 0.42925 0.23819
# Poissons Ratio (z) = 0.00872 0.19014
#
# Static dielectric constant tensor:
#      x y z
#    x 1.704390 0.000000 0.000000 
#    y 0.000000 1.771900 0.000000 
#    z 0.000000 0.000000 1.831040 
# 
# From -- ./inp_files/17804.got.cif
#   From: 2010.05.17/outbox.cif.g08.bks.cpg/sg62_9_cif.got.tgz:17804.got - 2010.06.03 15:25:27.
