data_PCOD9465918
_publ_section_title
;
Structure prediction by ZEFSAII (Michael W. Deem and Ramdas Pophale) SiO2 
 PCOD9465918
Probable space group: P N M A
;
_chemical_formula_sum "Si O2"
_cell_formula_units_Z 48
_cell_length_a 18.109113
_cell_length_b 8.973119
_cell_length_c 16.896437
_cell_angle_alpha 90.000000
_cell_angle_beta 90.000000
_cell_angle_gamma 90.000000
_cell_volume 2745.590348
_symmetry_space_group_name_H-M "P N M A"
_symmetry_group_IT_number 62
_symmetry_cell_setting 'orthorhombic'
loop_
_space_group_symop_operation_xyz
x,y,z
1/2-x,-y,1/2+z
1/2+x,1/2-y,1/2-z
-x,1/2+y,-z
-x,-y,-z
1/2+x,y,1/2-z
1/2-x,1/2+y,1/2+z
x,1/2-y,z
loop_
_atom_site_type_symbol
_atom_site_label
_atom_site_fract_x
_atom_site_fract_y
_atom_site_fract_z
Si Si1 0.398591 0.925367 0.185355
Si Si2 0.080907 0.071644 0.504685
Si Si3 0.826543 0.428924 0.636630
Si Si4 0.170630 0.573013 0.832691
Si Si5 0.015562 0.927976 0.915355
Si Si6 0.556041 0.573394 0.266354
O O1 0.382651 0.750000 0.199390
O O2 0.484270 0.949212 0.210103
O O3 0.350086 0.023965 0.243773
O O4 0.389053 0.957496 0.093080
O O5 0.075593 0.250000 0.494753
O O6 0.131755 0.001078 0.437550
O O7 0.000000 0.000000 0.500000
O O8 0.829157 0.250000 0.630469
O O9 0.743520 0.487404 0.640984
O O10 0.872320 0.471043 0.716043
O O11 0.182041 0.750000 0.837534
O O12 0.098312 0.534013 0.884847
O O13 0.010133 0.750000 0.920350
O O14 0.960449 0.987788 0.847396
O O15 0.000000 0.000000 0.000000
O O16 0.560417 0.750000 0.283403
#
# Coordination Sequence:
#
# PCOD9465918 Si02
#       6
#     8   8   8   8   8   8
#     4   9  18  36  58  81 110 149 187 225 277 335
#     4  11  21  35  58  88 120 153 192 236 282 339
#     4  11  22  38  58  85 118 154 190 234 290 342
#     4  10  22  39  58  84 114 148 189 238 289 339
#     4  10  21  38  61  86 111 145 192 239 284 336
#     4   9  18  35  58  82 110 145 186 228 277 336
#
# _framework density 17.482578
#
# number of rings (size 3 to 8) (size 9 to 14) (size 15 to 20)
#    0.000    2.000    1.667    2.000    0.000    4.667 
#    3.000    0.000    0.000    0.000    0.000    0.000 
#    0.000    0.000    0.000    0.000    0.000    0.000 
#
# Total GULP energy -267973.266239 kJ/mol
# GULP energy per Si atom -5582.776380 kJ/mol
# Density = 1.744279 g / cm^3
# Si number density = 17.482578 Si / 1000 Ang^3
#
#
#
# Elastic Constant Matrix: (Units=GPa)
#
#
# Indices 1 2 3 4 5 6 
#
# 1 94.7110 56.9712 69.4889 0.0000 0.0000 0.0000
# 2 56.9712 69.6781 76.0618 0.0000 0.0000 0.0000
# 3 69.4889 76.0618 156.4832 0.0000 0.0000 0.0000
# 4 0.0000 0.0000 0.0000 36.7984 0.0000 0.0000
# 5 0.0000 0.0000 0.0000 0.0000 19.9022 0.0000
# 6 0.0000 0.0000 0.0000 0.0000 0.0000 31.9179
#
#
#
# Elastic Compliance Matrix: (Units=1/GPa)
#
#
# Indices 1 2 3 4 5 6 
#
# 1 0.021095 -0.014960 -0.002096 0.000000 0.000000 0.000000
# 2 -0.014960 0.041184 -0.013375 0.000000 0.000000 0.000000
# 3 -0.002096 -0.013375 0.013822 0.000000 0.000000 0.000000
# 4 0.000000 0.000000 0.000000 0.027175 0.000000 0.000000
# 5 0.000000 0.000000 0.000000 0.000000 0.050246 0.000000
# 6 0.000000 0.000000 0.000000 0.000000 0.000000 0.031330
#
#
# Mechanical properties :
#
#
# Convention : Reuss Voigt Hill
#
# Bulk Modulus (GPa) = 65.61960 80.65732 73.13846
# Shear Modulus (GPa) = 19.93660 25.61373 22.77517
#
# Velocity S-wave (km/s) = 3.38060 3.83182 3.61326
# Velocity P-wave (km/s) = 7.27006 8.11252 7.70282
#
# Compressibility (1/GPa) = 0.01523935
#
# Stress axis : x y z
#
# Youngs Moduli (GPa) = 47.40433 24.28123 72.34610
#
# Poissons Ratio (x) = 0.36325 0.15164
# Poissons Ratio (y) = 0.70917 0.96764
# Poissons Ratio (z) = 0.09936 0.32476
#
# Static dielectric constant tensor:
#      x y z
#    x 1.576380 0.000000 0.000000 
#    y 0.000000 1.587700 0.000000 
#    z 0.000000 0.000000 1.577820 
# 
# From -- ./inp_files/19656.got.cif
#   From: 2010.05.17/outbox.cif.g08.bks.cpg/sg62_10_cif.got.tgz:19656.got - 2010.06.03 15:25:27.
