data_PCOD9465740
_publ_section_title
;
Structure prediction by ZEFSAII (Michael W. Deem and Ramdas Pophale) SiO2 
 PCOD9465740
Probable space group: P N M A
;
_chemical_formula_sum "Si O2"
_cell_formula_units_Z 40
_cell_length_a 28.478169
_cell_length_b 8.802403
_cell_length_c 7.875139
_cell_angle_alpha 90.000000
_cell_angle_beta 90.000000
_cell_angle_gamma 90.000000
_cell_volume 1974.110866
_symmetry_space_group_name_H-M "P N M A"
_symmetry_group_IT_number 62
_symmetry_cell_setting 'orthorhombic'
loop_
_space_group_symop_operation_xyz
x,y,z
1/2-x,-y,1/2+z
1/2+x,1/2-y,1/2-z
-x,1/2+y,-z
-x,-y,-z
1/2+x,y,1/2-z
1/2-x,1/2+y,1/2+z
x,1/2-y,z
loop_
_atom_site_type_symbol
_atom_site_label
_atom_site_fract_x
_atom_site_fract_y
_atom_site_fract_z
Si Si1 0.111073 0.931504 0.733665
Si Si2 0.296828 0.570627 0.126111
Si Si3 0.694079 0.930913 0.239706
Si Si4 0.407271 0.068332 0.606792
Si Si5 0.451071 0.569162 0.937590
O O1 0.107902 0.750000 0.715691
O O2 0.165528 0.980051 0.738252
O O3 0.087619 0.009263 0.571122
O O4 0.086212 0.976228 0.910457
O O5 0.303662 0.750000 0.151520
O O6 0.242837 0.533243 0.167011
O O7 0.306951 0.524177 0.933342
O O8 0.694076 0.750000 0.200071
O O9 0.647265 0.961532 0.346279
O O10 0.414725 0.250000 0.620331
O O11 0.438160 0.986783 0.748776
O O12 0.452826 0.750000 0.941176
O O13 0.500000 0.500000 0.000000
#
# Coordination Sequence:
#
# PCOD9465740 Si02
#       5
#     8   8   8   8   8
#     4  11  23  42  67  95 132 173 213 266 326 386
#     4  11  22  36  58  92 128 171 221 266 318 380
#     4  10  21  37  58  87 128 172 215 265 320 379
#     4  10  22  42  67  94 129 173 216 265 324 384
#     4  12  26  45  70  98 129 169 216 272 329 390
#
# _framework density 20.262284999999999
#
# number of rings (size 3 to 8) (size 9 to 14) (size 15 to 20)
#    0.000    1.200    2.000    4.200    0.000    5.600 
#    0.000    0.000    0.000    0.000    0.000    0.000 
#    0.000    0.000    0.000    0.000    0.000    0.000 
#
# Total GULP energy -223702.407852 kJ/mol
# GULP energy per Si atom -5592.560196 kJ/mol
# Density = 2.021617 g / cm^3
# Si number density = 20.262285 Si / 1000 Ang^3
#
#
#
# Elastic Constant Matrix: (Units=GPa)
#
#
# Indices 1 2 3 4 5 6 
#
# 1 39.9117 2.6347 -31.8277 0.0000 0.0000 0.0000
# 2 2.6347 43.3706 14.5205 0.0000 0.0000 0.0000
# 3 -31.8277 14.5205 59.4745 0.0000 0.0000 0.0000
# 4 0.0000 0.0000 0.0000 25.0182 0.0000 0.0000
# 5 0.0000 0.0000 0.0000 0.0000 23.1807 0.0000
# 6 0.0000 0.0000 0.0000 0.0000 0.0000 29.5193
#
#
#
# Elastic Compliance Matrix: (Units=1/GPa)
#
#
# Indices 1 2 3 4 5 6 
#
# 1 0.049602 -0.012960 0.029709 0.000000 0.000000 0.000000
# 2 -0.012960 0.028496 -0.013893 0.000000 0.000000 0.000000
# 3 0.029709 -0.013893 0.036104 0.000000 0.000000 0.000000
# 4 0.000000 0.000000 0.000000 0.039971 0.000000 0.000000
# 5 0.000000 0.000000 0.000000 0.000000 0.043139 0.000000
# 6 0.000000 0.000000 0.000000 0.000000 0.000000 0.033876
#
#
# Mechanical properties :
#
#
# Convention : Reuss Voigt Hill
#
# Bulk Modulus (GPa) = 8.33925 12.60129 10.47027
# Shear Modulus (GPa) = 18.83614 26.03893 22.43753
#
# Velocity S-wave (km/s) = 3.05227 3.58871 3.33130
# Velocity P-wave (km/s) = 4.06772 4.83781 4.46938
#
# Compressibility (1/GPa) = 0.11991485
#
# Stress axis : x y z
#
# Youngs Moduli (GPa) = 20.16043 35.09311 27.69752
#
# Poissons Ratio (x) = 0.45480 -0.82286
# Poissons Ratio (y) = 0.26127 0.38479
# Poissons Ratio (z) = -0.59894 0.48753
#
# Static dielectric constant tensor:
#      x y z
#    x 1.744440 0.000000 0.000000 
#    y 0.000000 1.674710 0.000000 
#    z 0.000000 0.000000 1.707110 
# 
# From -- ./inp_files/9718.got.cif
#   From: 2010.05.17/outbox.cif.g08.bks.cpg/sg62_5_cif.got.tgz:9718.got - 2010.06.03 15:25:27.
