data_PCOD9465210
_publ_section_title
;
Structure prediction by ZEFSAII (Michael W. Deem and Ramdas Pophale) SiO2 
 PCOD9465210
Probable space group: P N M A
;
_chemical_formula_sum "Si O2"
_cell_formula_units_Z 64
_cell_length_a 13.723338
_cell_length_b 24.753390
_cell_length_c 9.390595
_cell_angle_alpha 90.000000
_cell_angle_beta 90.000000
_cell_angle_gamma 90.000000
_cell_volume 3189.977023
_symmetry_space_group_name_H-M "P N M A"
_symmetry_group_IT_number 62
_symmetry_cell_setting 'orthorhombic'
loop_
_space_group_symop_operation_xyz
x,y,z
1/2-x,-y,1/2+z
1/2+x,1/2-y,1/2-z
-x,1/2+y,-z
-x,-y,-z
1/2+x,y,1/2-z
1/2-x,1/2+y,1/2+z
x,1/2-y,z
loop_
_atom_site_type_symbol
_atom_site_label
_atom_site_fract_x
_atom_site_fract_y
_atom_site_fract_z
Si Si1 0.064980 0.968194 0.682371
Si Si2 0.527465 0.402995 0.443722
Si Si3 0.989008 0.082902 0.609672
Si Si4 0.640962 0.576493 0.342740
Si Si5 0.759471 0.870392 0.593737
Si Si6 0.069333 0.687122 0.785029
Si Si7 0.206752 0.047077 0.166951
Si Si8 0.053936 0.188655 0.497915
O O1 0.013380 0.937420 0.552941
O O2 0.178133 0.958374 0.652692
O O3 0.025759 0.942060 0.827432
O O4 0.042164 0.031683 0.681167
O O5 0.463113 0.411117 0.582827
O O6 0.510182 0.343153 0.383046
O O7 0.640086 0.419760 0.443969
O O8 0.881995 0.090050 0.679000
O O9 0.038200 0.141224 0.611549
O O10 0.717537 0.608008 0.442543
O O11 0.666396 0.513472 0.340709
O O12 0.669543 0.844572 0.681965
O O13 0.802728 0.920780 0.683206
O O14 0.842753 0.826177 0.572758
O O15 0.080167 0.750000 0.820566
O O16 0.029661 0.683467 0.623696
O O17 0.053042 0.250000 0.551035
#
# Coordination Sequence:
#
# PCOD9465210 Si02
#       8
#     8   8   8   8   8   8   8   8
#     4  11  22  38  63  85 131 160 205 248 317 374
#     4  11  21  41  57  94 126 160 207 259 307 382
#     4  11  23  41  58  91 123 173 202 258 307 385
#     4  11  25  37  61  94 130 164 207 255 324 370
#     4  11  22  41  61  99 124 165 219 258 313 378
#     4  10  20  38  65  92 121 158 211 270 306 355
#     4  12  21  35  61  89 127 166 199 255 310 369
#     4  11  22  41  66  89 121 170 215 256 314 379
#
# _framework density 20.062840000000001
#
# number of rings (size 3 to 8) (size 9 to 14) (size 15 to 20)
#    0.000    1.000    6.250    1.500    3.500    0.000 
#    2.250    3.125    0.000    0.000    0.000    0.000 
#    0.000    0.000    0.000    0.000    0.000    0.000 
#
# Total GULP energy -357104.684854 kJ/mol
# GULP energy per Si atom -5579.760701 kJ/mol
# Density = 2.001718 g / cm^3
# Si number density = 20.062840 Si / 1000 Ang^3
#
#
#
# Elastic Constant Matrix: (Units=GPa)
#
#
# Indices 1 2 3 4 5 6 
#
# 1 55.7985 17.7656 -0.5319 0.0000 0.0000 0.0000
# 2 17.7656 150.0636 23.7429 0.0000 0.0000 0.0000
# 3 -0.5319 23.7429 31.6644 0.0000 0.0000 0.0000
# 4 0.0000 0.0000 0.0000 16.5358 0.0000 0.0000
# 5 0.0000 0.0000 0.0000 0.0000 25.8192 0.0000
# 6 0.0000 0.0000 0.0000 0.0000 0.0000 14.5819
#
#
#
# Elastic Compliance Matrix: (Units=1/GPa)
#
#
# Indices 1 2 3 4 5 6 
#
# 1 0.018764 -0.002577 0.002247 0.000000 0.000000 0.000000
# 2 -0.002577 0.007915 -0.005978 0.000000 0.000000 0.000000
# 3 0.002247 -0.005978 0.036101 0.000000 0.000000 0.000000
# 4 0.000000 0.000000 0.000000 0.060475 0.000000 0.000000
# 5 0.000000 0.000000 0.000000 0.000000 0.038731 0.000000
# 6 0.000000 0.000000 0.000000 0.000000 0.000000 0.068578
#
#
# Mechanical properties :
#
#
# Convention : Reuss Voigt Hill
#
# Bulk Modulus (GPa) = 19.93433 35.49774 27.71603
# Shear Modulus (GPa) = 19.23814 24.49069 21.86441
#
# Velocity S-wave (km/s) = 3.09996 3.49764 3.30479
# Velocity P-wave (km/s) = 4.77185 5.83464 5.32980
#
# Compressibility (1/GPa) = 0.05016473
#
# Stress axis : x y z
#
# Youngs Moduli (GPa) = 53.29485 126.34633 27.69973
#
# Poissons Ratio (x) = 0.32559 -0.06225
# Poissons Ratio (y) = 0.13734 0.16559
# Poissons Ratio (z) = -0.11978 0.75530
#
# Static dielectric constant tensor:
#      x y z
#    x 1.751650 0.000000 0.000000 
#    y 0.000000 1.698650 0.000000 
#    z 0.000000 0.000000 1.737390 
# 
# From -- ./inp_files/6926.got.cif
#   From: 2010.05.17/outbox.cif.g08.bks.cpg/sg62_4_cif.got.tgz:6926.got - 2010.06.03 15:25:27.
