data_PCOD9465888
_publ_section_title
;
Structure prediction by ZEFSAII (Michael W. Deem and Ramdas Pophale) SiO2 
 PCOD9465888
Probable space group: P N M A
;
_chemical_formula_sum "Si O2"
_cell_formula_units_Z 56
_cell_length_a 32.637231
_cell_length_b 15.151862
_cell_length_c 5.193421
_cell_angle_alpha 90.000000
_cell_angle_beta 90.000000
_cell_angle_gamma 90.000000
_cell_volume 2568.223652
_symmetry_space_group_name_H-M "P N M A"
_symmetry_group_IT_number 62
_symmetry_cell_setting 'orthorhombic'
loop_
_space_group_symop_operation_xyz
x,y,z
1/2-x,-y,1/2+z
1/2+x,1/2-y,1/2-z
-x,1/2+y,-z
-x,-y,-z
1/2+x,y,1/2-z
1/2-x,1/2+y,1/2+z
x,1/2-y,z
loop_
_atom_site_type_symbol
_atom_site_label
_atom_site_fract_x
_atom_site_fract_y
_atom_site_fract_z
Si Si1 0.795450 0.548495 0.736643
Si Si2 0.126906 0.849320 0.538808
Si Si3 0.504752 0.403609 0.726310
Si Si4 0.952086 0.845737 0.703926
Si Si5 0.292783 0.426983 0.262559
Si Si6 0.436760 0.440861 0.362187
Si Si7 0.118365 0.027721 0.216278
O O1 0.754318 0.606089 0.764874
O O2 0.795082 0.503379 0.455607
O O3 0.840810 0.585719 0.775882
O O4 0.794800 0.472352 0.957712
O O5 0.127334 0.750000 0.430897
O O6 0.168744 0.863899 0.705997
O O7 0.126700 0.932028 0.342436
O O8 0.085524 0.864981 0.705014
O O9 0.528413 0.360449 0.484234
O O10 0.458288 0.409951 0.628368
O O11 0.526434 0.500041 0.754115
O O12 0.513541 0.352209 0.985069
O O13 0.932591 0.750000 0.694450
O O14 0.918417 0.919965 0.651524
O O15 0.399247 0.506076 0.434102
#
# Coordination Sequence:
#
# PCOD9465888 Si02
#       7
#     8   8   8   8   8   8   8
#     4   9  17  33  60  78 109 145 192 225 288 337
#     4  11  22  36  56  88 124 159 198 243 297 359
#     4  10  23  39  62  83 115 154 203 251 301 357
#     4  11  23  40  61  86 116 155 203 255 301 351
#     4   9  18  34  53  84 107 150 187 231 274 350
#     4  10  21  38  60  82 116 158 202 244 302 353
#     4  10  21  38  60  87 119 158 198 246 300 356
#
# _framework density 21.804953999999999
#
# number of rings (size 3 to 8) (size 9 to 14) (size 15 to 20)
#    0.000    2.000    2.857    0.429    2.000    3.429 
#    0.000    0.714    0.000    0.000    0.000    7.000 
#    0.000    0.000    0.000    0.000    0.000    0.000 
#
# Total GULP energy -312202.915304 kJ/mol
# GULP energy per Si atom -5575.052059 kJ/mol
# Density = 2.175533 g / cm^3
# Si number density = 21.804954 Si / 1000 Ang^3
#
#
#
# Elastic Constant Matrix: (Units=GPa)
#
#
# Indices 1 2 3 4 5 6 
#
# 1 133.6950 14.0847 18.8974 0.0000 0.0000 0.0000
# 2 14.0847 86.8244 19.7035 0.0000 0.0000 0.0000
# 3 18.8974 19.7035 77.6849 0.0000 0.0000 0.0000
# 4 0.0000 0.0000 0.0000 5.5200 0.0000 0.0000
# 5 0.0000 0.0000 0.0000 0.0000 33.2908 0.0000
# 6 0.0000 0.0000 0.0000 0.0000 0.0000 11.1514
#
#
#
# Elastic Compliance Matrix: (Units=1/GPa)
#
#
# Indices 1 2 3 4 5 6 
#
# 1 0.007810 -0.000887 -0.001675 0.000000 0.000000 0.000000
# 2 -0.000887 0.012322 -0.002909 0.000000 0.000000 0.000000
# 3 -0.001675 -0.002909 0.014018 0.000000 0.000000 0.000000
# 4 0.000000 0.000000 0.000000 0.181160 0.000000 0.000000
# 5 0.000000 0.000000 0.000000 0.000000 0.030038 0.000000
# 6 0.000000 0.000000 0.000000 0.000000 0.000000 0.089675
#
#
# Mechanical properties :
#
#
# Convention : Reuss Voigt Hill
#
# Bulk Modulus (GPa) = 43.09036 44.84173 43.96604
# Shear Modulus (GPa) = 14.13623 26.36033 20.24828
#
# Velocity S-wave (km/s) = 2.54894 3.48072 3.05061
# Velocity P-wave (km/s) = 5.33549 6.06329 5.71099
#
# Compressibility (1/GPa) = 0.02320705
#
# Stress axis : x y z
#
# Youngs Moduli (GPa) = 128.04291 81.15819 71.33749
#
# Poissons Ratio (x) = 0.07197 0.11948
# Poissons Ratio (y) = 0.11355 0.20755
# Poissons Ratio (z) = 0.21446 0.23613
#
# Static dielectric constant tensor:
#      x y z
#    x 1.906100 0.000000 0.000000 
#    y 0.000000 1.800480 0.000000 
#    z 0.000000 0.000000 1.858880 
# 
# From -- ./inp_files/3615.got.cif
#   From: 2010.05.17/outbox.cif.g08.bks.cpg/sg62_2_cif.got.tgz:3615.got - 2010.06.03 15:25:27.
