data_PCOD9465807
_publ_section_title
;
Structure prediction by ZEFSAII (Michael W. Deem and Ramdas Pophale) SiO2 
 PCOD9465807
Probable space group: P N M A
;
_chemical_formula_sum "Si O2"
_cell_formula_units_Z 64
_cell_length_a 14.588663
_cell_length_b 15.121009
_cell_length_c 10.705761
_cell_angle_alpha 90.000000
_cell_angle_beta 90.000000
_cell_angle_gamma 90.000000
_cell_volume 2361.640608
_symmetry_space_group_name_H-M "P N M A"
_symmetry_group_IT_number 62
_symmetry_cell_setting 'orthorhombic'
loop_
_space_group_symop_operation_xyz
x,y,z
1/2-x,-y,1/2+z
1/2+x,1/2-y,1/2-z
-x,1/2+y,-z
-x,-y,-z
1/2+x,y,1/2-z
1/2-x,1/2+y,1/2+z
x,1/2-y,z
loop_
_atom_site_type_symbol
_atom_site_label
_atom_site_fract_x
_atom_site_fract_y
_atom_site_fract_z
Si Si1 0.095487 0.149960 0.699243
Si Si2 0.755587 0.582255 0.468116
Si Si3 0.300810 0.394782 0.922541
Si Si4 0.984441 0.103348 0.462185
Si Si5 0.087422 0.855789 0.170955
Si Si6 0.634199 0.354000 0.434341
Si Si7 0.537891 0.856147 0.688277
Si Si8 0.260887 0.350732 0.283248
O O1 0.122404 0.250000 0.730909
O O2 0.182602 0.093258 0.655619
O O3 0.039423 0.153162 0.568552
O O4 0.016931 0.117086 0.795427
O O5 0.784289 0.496643 0.545751
O O6 0.649713 0.593712 0.429344
O O7 0.776424 0.653525 0.575700
O O8 0.352227 0.370011 0.796458
O O9 0.377963 0.368049 0.024171
O O10 0.198907 0.358891 0.945224
O O11 0.010540 0.123281 0.320622
O O12 0.000000 0.000000 0.500000
O O13 0.085350 0.750000 0.142063
O O14 0.622008 0.250000 0.410521
O O15 0.531464 0.389277 0.418479
O O16 0.696256 0.393684 0.321467
O O17 0.550546 0.750000 0.673536
O O18 0.639501 0.894960 0.700396
O O19 0.273080 0.250000 0.239329
#
# Coordination Sequence:
#
# PCOD9465807 Si02
#       8
#     8   8   8   8   8   8   8   8
#     4  10  21  39  65  93 122 169 223 267 321 385
#     4  12  24  42  66  95 131 168 220 273 325 392
#     4  11  24  39  64  92 127 169 212 267 324 389
#     4  11  20  35  58  92 129 164 205 267 315 376
#     4  10  24  43  65  93 131 176 220 271 332 399
#     4  10  21  39  63  92 126 167 213 262 321 388
#     4  10  21  37  62  94 127 163 210 266 324 383
#     4  10  21  38  64  93 125 163 209 271 327 377
#
# _framework density 27.099806000000001
#
# number of rings (size 3 to 8) (size 9 to 14) (size 15 to 20)
#    0.000    1.500    2.500    2.625    1.750    3.000 
#    2.250    0.625    0.000    0.000    0.000    0.000 
#    0.000    0.000    0.000    0.000    0.000    0.000 
#
# Total GULP energy -357864.651688 kJ/mol
# GULP energy per Si atom -5591.635183 kJ/mol
# Density = 2.703813 g / cm^3
# Si number density = 27.099806 Si / 1000 Ang^3
#
#
#
# Elastic Constant Matrix: (Units=GPa)
#
#
# Indices 1 2 3 4 5 6 
#
# 1 152.4680 20.0481 6.2890 0.0000 0.0000 0.0000
# 2 20.0481 69.3469 -3.8821 0.0000 0.0000 0.0000
# 3 6.2890 -3.8821 108.3178 0.0000 0.0000 0.0000
# 4 0.0000 0.0000 0.0000 3.8802 0.0000 0.0000
# 5 0.0000 0.0000 0.0000 0.0000 49.5478 0.0000
# 6 0.0000 0.0000 0.0000 0.0000 0.0000 25.4500
#
#
#
# Elastic Compliance Matrix: (Units=1/GPa)
#
#
# Indices 1 2 3 4 5 6 
#
# 1 0.006842 -0.002004 -0.000469 0.000000 0.000000 0.000000
# 2 -0.002004 0.015036 0.000655 0.000000 0.000000 0.000000
# 3 -0.000469 0.000655 0.009283 0.000000 0.000000 0.000000
# 4 0.000000 0.000000 0.000000 0.257718 0.000000 0.000000
# 5 0.000000 0.000000 0.000000 0.000000 0.020183 0.000000
# 6 0.000000 0.000000 0.000000 0.000000 0.000000 0.039293
#
#
# Mechanical properties :
#
#
# Convention : Reuss Voigt Hill
#
# Bulk Modulus (GPa) = 36.33082 41.67143 39.00112
# Shear Modulus (GPa) = 13.84409 36.28745 25.06577
#
# Velocity S-wave (km/s) = 2.26266 3.66325 3.04459
# Velocity P-wave (km/s) = 4.50129 5.77087 5.17516
#
# Compressibility (1/GPa) = 0.02752484
#
# Stress axis : x y z
#
# Youngs Moduli (GPa) = 146.16405 66.50558 107.72603
#
# Poissons Ratio (x) = 0.13329 0.05053
# Poissons Ratio (y) = 0.29294 -0.07059
# Poissons Ratio (z) = 0.06856 -0.04358
#
# Static dielectric constant tensor:
#      x y z
#    x 2.181000 0.000000 0.000000 
#    y 0.000000 2.149180 0.000000 
#    z 0.000000 0.000000 2.234250 
# 
# From -- ./inp_files/13560.got.cif
#   From: 2010.05.17/outbox.cif.g08.bks.cpg/sg62_7_cif.got.tgz:13560.got - 2010.06.03 15:25:27.
