data_PCOD9465892
_publ_section_title
;
Structure prediction by ZEFSAII (Michael W. Deem and Ramdas Pophale) SiO2 
 PCOD9465892
Probable space group: P N M A
;
_chemical_formula_sum "Si O2"
_cell_formula_units_Z 48
_cell_length_a 18.345017
_cell_length_b 8.578428
_cell_length_c 15.900384
_cell_angle_alpha 90.000000
_cell_angle_beta 90.000000
_cell_angle_gamma 90.000000
_cell_volume 2502.265810
_symmetry_space_group_name_H-M "P N M A"
_symmetry_group_IT_number 62
_symmetry_cell_setting 'orthorhombic'
loop_
_space_group_symop_operation_xyz
x,y,z
1/2-x,-y,1/2+z
1/2+x,1/2-y,1/2-z
-x,1/2+y,-z
-x,-y,-z
1/2+x,y,1/2-z
1/2-x,1/2+y,1/2+z
x,1/2-y,z
loop_
_atom_site_type_symbol
_atom_site_label
_atom_site_fract_x
_atom_site_fract_y
_atom_site_fract_z
Si Si1 0.956042 0.061512 0.249880
Si Si2 0.458878 0.938406 0.581864
Si Si3 0.294670 0.438509 0.915139
Si Si4 0.458693 0.937042 0.918237
Si Si5 0.209808 0.061401 0.084094
Si Si6 0.292017 0.563108 0.247896
O O1 0.953300 0.250000 0.249897
O O2 0.999570 0.011211 0.166528
O O3 0.998889 0.012224 0.333853
O O4 0.874314 0.998350 0.249737
O O5 0.459533 0.750000 0.579692
O O6 0.374535 0.988789 0.583019
O O7 0.500000 0.000000 0.500000
O O8 0.298381 0.250000 0.915197
O O9 0.376019 0.503911 0.916342
O O10 0.251638 0.488082 0.831385
O O11 0.250746 0.486658 0.998654
O O12 0.458964 0.750000 0.920502
O O13 0.500000 0.000000 0.000000
O O14 0.211171 0.250000 0.087768
O O15 0.251238 0.997392 0.165190
O O16 0.293299 0.750000 0.246942
#
# Coordination Sequence:
#
# PCOD9465892 Si02
#       6
#     8   8   8   8   8   8
#     4  10  22  39  58  82 114 152 189 227 281 344
#     4  10  21  38  60  85 114 150 190 232 280 335
#     4  10  22  39  58  83 116 151 187 231 283 336
#     4  11  23  39  60  85 114 150 191 234 281 335
#     4  10  21  39  60  82 114 153 188 227 282 343
#     4  11  23  38  59  87 115 146 189 239 283 327
#
# _framework density 19.182614000000001
#
# number of rings (size 3 to 8) (size 9 to 14) (size 15 to 20)
#    0.000    1.667    0.000    4.000    0.000   11.333 
#    0.000    0.000    0.000    0.000    0.000    0.000 
#    0.000    0.000    0.000    0.000    0.000    0.000 
#
# Total GULP energy -268389.355396 kJ/mol
# GULP energy per Si atom -5591.444904 kJ/mol
# Density = 1.913895 g / cm^3
# Si number density = 19.182614 Si / 1000 Ang^3
#
#
#
# Elastic Constant Matrix: (Units=GPa)
#
#
# Indices 1 2 3 4 5 6 
#
# 1 237.5854 36.7914 144.3090 0.0000 0.0000 0.0000
# 2 36.7914 13.0503 39.3361 0.0000 0.0000 0.0000
# 3 144.3090 39.3361 237.9611 0.0000 0.0000 0.0000
# 4 0.0000 0.0000 0.0000 29.8320 0.0000 0.0000
# 5 0.0000 0.0000 0.0000 0.0000 46.6145 0.0000
# 6 0.0000 0.0000 0.0000 0.0000 0.0000 33.0525
#
#
#
# Elastic Compliance Matrix: (Units=1/GPa)
#
#
# Indices 1 2 3 4 5 6 
#
# 1 0.008031 -0.015867 -0.002248 0.000000 0.000000 0.000000
# 2 -0.015867 0.184069 -0.020805 0.000000 0.000000 0.000000
# 3 -0.002248 -0.020805 0.009005 0.000000 0.000000 0.000000
# 4 0.000000 0.000000 0.000000 0.033521 0.000000 0.000000
# 5 0.000000 0.000000 0.000000 0.000000 0.021453 0.000000
# 6 0.000000 0.000000 0.000000 0.000000 0.000000 0.030255
#
#
# Mechanical properties :
#
#
# Convention : Reuss Voigt Hill
#
# Bulk Modulus (GPa) = 8.11256 103.27444 55.69350
# Shear Modulus (GPa) = 12.33769 39.77714 26.05742
#
# Velocity S-wave (km/s) = 2.53883 4.55862 3.68963
# Velocity P-wave (km/s) = 3.58225 9.03673 6.87368
#
# Compressibility (1/GPa) = 0.12326562
#
# Stress axis : x y z
#
# Youngs Moduli (GPa) = 124.51264 5.43273 111.05466
#
# Poissons Ratio (x) = 0.08620 0.24960
# Poissons Ratio (y) = 1.97567 2.31050
# Poissons Ratio (z) = 0.27985 0.11303
#
# Static dielectric constant tensor:
#      x y z
#    x 1.622240 0.000000 0.000000 
#    y 0.000000 1.660810 0.000000 
#    z 0.000000 0.000000 1.642550 
# 
# From -- ./inp_files/19528.got.cif
#   From: 2010.05.17/outbox.cif.g08.bks.cpg/sg62_10_cif.got.tgz:19528.got - 2010.06.03 15:25:27.
