data_PCOD9465037
_publ_section_title
;
Structure prediction by ZEFSAII (Michael W. Deem and Ramdas Pophale) SiO2 
 PCOD9465037
Probable space group: P N M A
;
_chemical_formula_sum "Si O2"
_cell_formula_units_Z 56
_cell_length_a 20.315343
_cell_length_b 14.915716
_cell_length_c 9.210324
_cell_angle_alpha 90.000000
_cell_angle_beta 90.000000
_cell_angle_gamma 90.000000
_cell_volume 2790.892914
_symmetry_space_group_name_H-M "P N M A"
_symmetry_group_IT_number 62
_symmetry_cell_setting 'orthorhombic'
loop_
_space_group_symop_operation_xyz
x,y,z
1/2-x,-y,1/2+z
1/2+x,1/2-y,1/2-z
-x,1/2+y,-z
-x,-y,-z
1/2+x,y,1/2-z
1/2-x,1/2+y,1/2+z
x,1/2-y,z
loop_
_atom_site_type_symbol
_atom_site_label
_atom_site_fract_x
_atom_site_fract_y
_atom_site_fract_z
Si Si1 0.252895 0.930826 0.091658
Si Si2 0.984105 0.486329 0.833310
Si Si3 0.280633 0.600706 0.759733
Si Si4 0.619672 0.850249 0.427979
Si Si5 0.133351 0.650285 0.727621
Si Si6 0.576165 0.352769 0.163532
Si Si7 0.103058 0.456094 0.635745
O O1 0.197318 0.856073 0.108068
O O2 0.323053 0.921485 0.171771
O O3 0.218156 0.020443 0.146167
O O4 0.270243 0.937866 0.922156
O O5 0.921182 0.420855 0.834068
O O6 0.967740 0.582111 0.761766
O O7 0.046063 0.442376 0.752532
O O8 0.000000 0.500000 0.000000
O O9 0.213111 0.652007 0.725965
O O10 0.350295 0.649075 0.768073
O O11 0.594927 0.750000 0.403771
O O12 0.615183 0.868545 0.602564
O O13 0.109252 0.750000 0.688185
O O14 0.111448 0.565118 0.631131
O O15 0.553797 0.250000 0.147568
O O16 0.582063 0.405778 0.010829
#
# Coordination Sequence:
#
# PCOD9465037 Si02
#       7
#     8   8   8   8   8   8   8
#     4   9  18  34  61  89 121 160 208 262 312 364
#     4  12  24  42  65  92 129 169 213 264 322 379
#     4   9  17  33  60  90 120 160 206 257 311 369
#     4  10  20  37  63  93 122 166 217 258 308 376
#     4   9  17  33  61  94 123 158 209 257 309 370
#     4  11  24  41  63  89 125 170 216 260 319 385
#     4  10  22  39  63  95 127 164 208 265 326 378
#
# _framework density 20.065263000000002
#
# number of rings (size 3 to 8) (size 9 to 14) (size 15 to 20)
#    0.000    2.000    2.857    0.857    0.000    5.143 
#    0.000    0.714    0.000    2.571    0.000    0.000 
#    0.000    0.000    0.000    0.000    0.000    0.000 
#
# Total GULP energy -312208.365441 kJ/mol
# GULP energy per Si atom -5575.149383 kJ/mol
# Density = 2.001959 g / cm^3
# Si number density = 20.065263 Si / 1000 Ang^3
#
#
#
# Elastic Constant Matrix: (Units=GPa)
#
#
# Indices 1 2 3 4 5 6 
#
# 1 103.6724 40.5461 42.7755 0.0000 0.0000 0.0000
# 2 40.5461 125.3198 43.7158 0.0000 0.0000 0.0000
# 3 42.7755 43.7158 48.8511 0.0000 0.0000 0.0000
# 4 0.0000 0.0000 0.0000 21.5901 0.0000 0.0000
# 5 0.0000 0.0000 0.0000 0.0000 26.8553 0.0000
# 6 0.0000 0.0000 0.0000 0.0000 0.0000 -7.2418
#
#
#
# Elastic Compliance Matrix: (Units=1/GPa)
#
#
# Indices 1 2 3 4 5 6 
#
# 1 0.015116 -0.000398 -0.012880 0.000000 0.000000 0.000000
# 2 -0.000398 0.011611 -0.010043 0.000000 0.000000 0.000000
# 3 -0.012880 -0.010043 0.040735 0.000000 0.000000 0.000000
# 4 0.000000 0.000000 0.000000 0.046318 0.000000 0.000000
# 5 0.000000 0.000000 0.000000 0.000000 0.037237 0.000000
# 6 0.000000 0.000000 0.000000 0.000000 0.000000 -0.138087
#
#
# Mechanical properties :
#
#
# Convention : Reuss Voigt Hill
#
# Bulk Modulus (GPa) = 48.02595 59.10204 53.56400
# Shear Modulus (GPa) = 75.17639 18.29443 46.73541
#
# Velocity S-wave (km/s) = 6.12758 3.02279 4.83138
# Velocity P-wave (km/s) = 8.60522 6.45770 7.60762
#
# Compressibility (1/GPa) = 0.02082208
#
# Stress axis : x y z
#
# Youngs Moduli (GPa) = 66.15718 86.12175 24.54870
#
# Poissons Ratio (x) = 0.03424 0.31618
# Poissons Ratio (y) = 0.02630 0.24654
# Poissons Ratio (z) = 0.85209 0.86490
#
# Static dielectric constant tensor:
#      x y z
#    x 1.768770 0.000000 0.000000 
#    y 0.000000 1.707680 0.000000 
#    z 0.000000 0.000000 1.681640 
# 
# From -- ./inp_files/8750.got.cif
#   From: 2010.05.17/outbox.cif.g08.bks.cpg/sg62_5_cif.got.tgz:8750.got - 2010.06.03 15:25:27.
