data_PCOD9465096
_publ_section_title
;
Structure prediction by ZEFSAII (Michael W. Deem and Ramdas Pophale) SiO2 
 PCOD9465096
Probable space group: P N M A
;
_chemical_formula_sum "Si O2"
_cell_formula_units_Z 64
_cell_length_a 24.963018
_cell_length_b 7.550699
_cell_length_c 14.564955
_cell_angle_alpha 90.000000
_cell_angle_beta 90.000000
_cell_angle_gamma 90.000000
_cell_volume 2745.322662
_symmetry_space_group_name_H-M "P N M A"
_symmetry_group_IT_number 62
_symmetry_cell_setting 'orthorhombic'
loop_
_space_group_symop_operation_xyz
x,y,z
1/2-x,-y,1/2+z
1/2+x,1/2-y,1/2-z
-x,1/2+y,-z
-x,-y,-z
1/2+x,y,1/2-z
1/2-x,1/2+y,1/2+z
x,1/2-y,z
loop_
_atom_site_type_symbol
_atom_site_label
_atom_site_fract_x
_atom_site_fract_y
_atom_site_fract_z
Si Si1 0.695974 0.546754 0.898965
Si Si2 0.450775 0.960050 0.566056
Si Si3 0.914789 0.047271 0.746981
Si Si4 0.202101 0.963911 0.215032
Si Si5 0.098524 0.045441 0.726582
Si Si6 0.363720 0.967172 0.423766
Si Si7 0.258525 0.465389 0.918176
Si Si8 0.501245 0.536538 0.107817
O O1 0.678174 0.750000 0.905058
O O2 0.755700 0.540105 0.856803
O O3 0.653707 0.458257 0.831165
O O4 0.702374 0.471086 0.001201
O O5 0.447372 0.750000 0.579459
O O6 0.398654 0.023712 0.510398
O O7 0.500000 0.000000 0.500000
O O8 0.454489 0.044097 0.666224
O O9 0.901195 0.250000 0.722244
O O10 0.859077 0.970555 0.784735
O O11 0.945651 0.968642 0.660206
O O12 0.203881 0.750000 0.202686
O O13 0.223091 0.009335 0.316483
O O14 0.084312 0.250000 0.743118
O O15 0.110395 0.969643 0.827610
O O16 0.050927 0.969805 0.663657
O O17 0.363757 0.750000 0.422029
O O18 0.302444 0.025266 0.431204
O O19 0.258448 0.250000 0.924519
O O20 0.501845 0.750000 0.116498
O O21 0.500000 0.500000 0.000000
#
# Coordination Sequence:
#
# PCOD9465096 Si02
#       8
#     8   8   8   8   8   8   8   8
#     4  11  22  35  57  90 121 150 194 248 295 346
#     4  11  22  37  61  89 118 155 195 245 300 355
#     4  10  22  40  62  88 118 156 201 247 297 361
#     4  10  20  38  62  84 115 158 196 233 288 358
#     4  10  20  38  61  82 112 156 200 239 290 357
#     4   9  17  34  60  83 109 149 193 231 282 354
#     4   9  18  33  56  82 109 149 191 228 283 351
#     4  10  23  41  62  87 118 159 206 252 302 358
#
# _framework density 23.312376
#
# number of rings (size 3 to 8) (size 9 to 14) (size 15 to 20)
#    0.000    2.000    1.250    2.250    1.750    4.500 
#    0.000    3.750    0.000    0.000    0.000    0.000 
#    0.000    0.000    0.000    0.000    0.000    0.000 
#
# Total GULP energy -357740.661096 kJ/mol
# GULP energy per Si atom -5589.697830 kJ/mol
# Density = 2.325932 g / cm^3
# Si number density = 23.312376 Si / 1000 Ang^3
#
#
#
# Elastic Constant Matrix: (Units=GPa)
#
#
# Indices 1 2 3 4 5 6 
#
# 1 71.4353 -6.3884 -4.3740 0.0000 0.0000 0.0000
# 2 -6.3884 62.6160 -8.5514 0.0000 0.0000 0.0000
# 3 -4.3740 -8.5514 90.1859 0.0000 0.0000 0.0000
# 4 0.0000 0.0000 0.0000 13.7807 0.0000 0.0000
# 5 0.0000 0.0000 0.0000 0.0000 40.1691 0.0000
# 6 0.0000 0.0000 0.0000 0.0000 0.0000 21.6390
#
#
#
# Elastic Compliance Matrix: (Units=1/GPa)
#
#
# Indices 1 2 3 4 5 6 
#
# 1 0.014190 0.001562 0.000836 0.000000 0.000000 0.000000
# 2 0.001562 0.016352 0.001626 0.000000 0.000000 0.000000
# 3 0.000836 0.001626 0.011283 0.000000 0.000000 0.000000
# 4 0.000000 0.000000 0.000000 0.072565 0.000000 0.000000
# 5 0.000000 0.000000 0.000000 0.000000 0.024895 0.000000
# 6 0.000000 0.000000 0.000000 0.000000 0.000000 0.046213
#
#
# Mechanical properties :
#
#
# Convention : Reuss Voigt Hill
#
# Bulk Modulus (GPa) = 20.05087 20.62329 20.33708
# Shear Modulus (GPa) = 25.76351 31.35449 28.55900
#
# Velocity S-wave (km/s) = 3.32798 3.67136 3.50388
# Velocity P-wave (km/s) = 4.83600 5.18050 5.01121
#
# Compressibility (1/GPa) = 0.04987316
#
# Stress axis : x y z
#
# Youngs Moduli (GPa) = 70.47436 61.15533 88.62915
#
# Poissons Ratio (x) = -0.09552 -0.07412
# Poissons Ratio (y) = -0.11007 -0.14413
# Poissons Ratio (z) = -0.05894 -0.09945
#
# Static dielectric constant tensor:
#      x y z
#    x 1.922320 0.000000 0.000000 
#    y 0.000000 1.838830 0.000000 
#    z 0.000000 0.000000 1.844060 
# 
# From -- ./inp_files/20880.got.cif
#   From: 2010.05.17/outbox.cif.g08.bks.cpg/sg62_11_cif.got.tgz:20880.got - 2010.06.03 15:25:27.
