data_PCOD9465559
_publ_section_title
;
Structure prediction by ZEFSAII (Michael W. Deem and Ramdas Pophale) SiO2 
 PCOD9465559
Probable space group: P N M A
;
_chemical_formula_sum "Si O2"
_cell_formula_units_Z 32
_cell_length_a 10.532163
_cell_length_b 10.266934
_cell_length_c 13.604480
_cell_angle_alpha 90.000000
_cell_angle_beta 90.000000
_cell_angle_gamma 90.000000
_cell_volume 1471.093541
_symmetry_space_group_name_H-M "P N M A"
_symmetry_group_IT_number 62
_symmetry_cell_setting 'orthorhombic'
loop_
_space_group_symop_operation_xyz
x,y,z
1/2-x,-y,1/2+z
1/2+x,1/2-y,1/2-z
-x,1/2+y,-z
-x,-y,-z
1/2+x,y,1/2-z
1/2-x,1/2+y,1/2+z
x,1/2-y,z
loop_
_atom_site_type_symbol
_atom_site_label
_atom_site_fract_x
_atom_site_fract_y
_atom_site_fract_z
Si Si1 0.370308 0.461146 0.206654
Si Si2 0.063025 0.250000 0.650413
Si Si3 0.066726 0.750000 0.547579
Si Si4 0.941143 0.250000 0.840383
Si Si5 0.402361 0.960268 0.644811
Si Si6 0.151496 0.250000 0.984191
O O1 0.375428 0.613310 0.179890
O O2 0.428479 0.375301 0.118083
O O3 0.464661 0.439966 0.298439
O O4 0.221262 0.423439 0.211500
O O5 0.039910 0.250000 0.534548
O O6 0.938996 0.250000 0.722282
O O7 0.197865 0.750000 0.486525
O O8 0.889290 0.386491 0.877964
O O9 0.086742 0.250000 0.878951
O O10 0.393309 0.874086 0.547771
#
# Coordination Sequence:
#
# PCOD9465559 Si02
#       6
#     8   4   4   4   8   4
#     4  10  21  38  60  87 116 149 188 232 283 339
#     4  10  21  36  55  81 112 150 189 231 278 330
#     4  10  21  38  60  85 115 150 190 235 284 336
#     4  10  21  36  55  81 112 150 189 231 278 330
#     4  10  21  38  60  87 116 149 188 232 283 339
#     4  10  21  38  60  85 115 150 190 235 284 336
#
# _framework density 21.752526
#
# number of rings (size 3 to 8) (size 9 to 14) (size 15 to 20)
#    0.000    2.000    0.000    3.000    0.000    8.000 
#    0.000    5.000    0.000    0.000    0.000    0.000 
#    0.000    0.000    0.000    0.000    0.000    0.000 
#
# Total GULP energy -178533.465441 kJ/mol
# GULP energy per Si atom -5579.170795 kJ/mol
# Density = 2.170302 g / cm^3
# Si number density = 21.752526 Si / 1000 Ang^3
#
#
#
# Elastic Constant Matrix: (Units=GPa)
#
#
# Indices 1 2 3 4 5 6 
#
# 1 60.1178 -9.6897 17.3664 0.0000 0.0000 0.0000
# 2 -9.6897 117.4899 30.4403 0.0000 0.0000 0.0000
# 3 17.3664 30.4403 66.5065 0.0000 0.0000 0.0000
# 4 0.0000 0.0000 0.0000 6.0966 0.0000 0.0000
# 5 0.0000 0.0000 0.0000 0.0000 36.6721 0.0000
# 6 0.0000 0.0000 0.0000 0.0000 0.0000 13.1368
#
#
#
# Elastic Compliance Matrix: (Units=1/GPa)
#
#
# Indices 1 2 3 4 5 6 
#
# 1 0.019019 0.003239 -0.006449 0.000000 0.000000 0.000000
# 2 0.003239 0.010208 -0.005518 0.000000 0.000000 0.000000
# 3 -0.006449 -0.005518 0.019246 0.000000 0.000000 0.000000
# 4 0.000000 0.000000 0.000000 0.164025 0.000000 0.000000
# 5 0.000000 0.000000 0.000000 0.000000 0.027269 0.000000
# 6 0.000000 0.000000 0.000000 0.000000 0.000000 0.076122
#
#
# Mechanical properties :
#
#
# Convention : Reuss Voigt Hill
#
# Bulk Modulus (GPa) = 32.23990 35.59427 33.91708
# Shear Modulus (GPa) = 14.54823 24.91424 19.73124
#
# Velocity S-wave (km/s) = 2.58894 3.38797 3.01504
# Velocity P-wave (km/s) = 4.87752 5.63057 5.26752
#
# Compressibility (1/GPa) = 0.03101747
#
# Stress axis : x y z
#
# Youngs Moduli (GPa) = 52.57875 97.96003 51.95932
#
# Poissons Ratio (x) = -0.31733 0.33509
# Poissons Ratio (y) = -0.17032 0.28672
# Poissons Ratio (z) = 0.33908 0.54057
#
# Static dielectric constant tensor:
#      x y z
#    x 1.841900 0.000000 0.000000 
#    y 0.000000 1.788270 0.000000 
#    z 0.000000 0.000000 1.744500 
# 
# From -- ./inp_files/11817.got.cif
#   From: 2010.05.17/outbox.cif.g08.bks.cpg/sg62_6_cif.got.tgz:11817.got - 2010.06.03 15:25:27.
