data_PCOD9465056
_publ_section_title
;
Structure prediction by ZEFSAII (Michael W. Deem and Ramdas Pophale) SiO2 
 PCOD9465056
Probable space group: P N M A
;
_chemical_formula_sum "Si O2"
_cell_formula_units_Z 40
_cell_length_a 5.351171
_cell_length_b 12.667961
_cell_length_c 30.408854
_cell_angle_alpha 90.000000
_cell_angle_beta 90.000000
_cell_angle_gamma 90.000000
_cell_volume 2061.368335
_symmetry_space_group_name_H-M "P N M A"
_symmetry_group_IT_number 62
_symmetry_cell_setting 'orthorhombic'
loop_
_space_group_symop_operation_xyz
x,y,z
1/2-x,-y,1/2+z
1/2+x,1/2-y,1/2-z
-x,1/2+y,-z
-x,-y,-z
1/2+x,y,1/2-z
1/2-x,1/2+y,1/2+z
x,1/2-y,z
loop_
_atom_site_type_symbol
_atom_site_label
_atom_site_fract_x
_atom_site_fract_y
_atom_site_fract_z
Si Si1 0.054096 0.627328 0.945412
Si Si2 0.302151 0.551585 0.031866
Si Si3 0.309077 0.629846 0.123947
Si Si4 0.795306 0.501381 0.135556
Si Si5 0.405722 0.376851 0.276206
O O1 0.016029 0.750000 0.935380
O O2 0.226870 0.571127 0.908564
O O3 0.817676 0.550305 0.944483
O O4 0.134555 0.614138 0.996440
O O5 0.374702 0.626165 0.071719
O O6 0.500000 0.500000 0.000000
O O7 0.314050 0.750000 0.139716
O O8 0.533464 0.560483 0.144062
O O9 0.029859 0.581927 0.129487
O O10 0.866041 0.428573 0.176541
O O11 0.670946 0.406839 0.254697
O O12 0.402665 0.250000 0.280604
#
# Coordination Sequence:
#
# PCOD9465056 Si02
#       5
#     8   8   8   8   8
#     4  10  21  35  55  81 116 154 194 246 293 340
#     4  10  20  38  51  81 116 157 205 240 286 344
#     4  11  23  39  61  84 119 164 202 244 289 341
#     4  11  22  40  61  89 120 148 200 245 291 354
#     4  10  21  39  65  94 122 153 185 232 306 370
#
# _framework density 19.404585000000001
#
# number of rings (size 3 to 8) (size 9 to 14) (size 15 to 20)
#    0.000    1.600    2.000    3.000    0.000    1.600 
#    0.000    2.000    0.000   12.000    0.000    0.000 
#    0.000    0.000    0.000    0.000    0.000    0.000 
#
# Total GULP energy -222892.874401 kJ/mol
# GULP energy per Si atom -5572.321860 kJ/mol
# Density = 1.936042 g / cm^3
# Si number density = 19.404585 Si / 1000 Ang^3
#
#
#
# Elastic Constant Matrix: (Units=GPa)
#
#
# Indices 1 2 3 4 5 6 
#
# 1 55.3645 13.1912 -3.0744 0.0000 0.0000 0.0000
# 2 13.1912 98.7691 5.4606 0.0000 0.0000 0.0000
# 3 -3.0744 5.4606 42.1112 0.0000 0.0000 0.0000
# 4 0.0000 0.0000 0.0000 18.1805 0.0000 0.0000
# 5 0.0000 0.0000 0.0000 0.0000 28.3309 0.0000
# 6 0.0000 0.0000 0.0000 0.0000 0.0000 11.0803
#
#
#
# Elastic Compliance Matrix: (Units=1/GPa)
#
#
# Indices 1 2 3 4 5 6 
#
# 1 0.018777 -0.002602 0.001708 0.000000 0.000000 0.000000
# 2 -0.002602 0.010558 -0.001559 0.000000 0.000000 0.000000
# 3 0.001708 -0.001559 0.024074 0.000000 0.000000 0.000000
# 4 0.000000 0.000000 0.000000 0.055004 0.000000 0.000000
# 5 0.000000 0.000000 0.000000 0.000000 0.035297 0.000000
# 6 0.000000 0.000000 0.000000 0.000000 0.000000 0.090250
#
#
# Mechanical properties :
#
#
# Convention : Reuss Voigt Hill
#
# Bulk Modulus (GPa) = 20.61736 25.26661 22.94198
# Shear Modulus (GPa) = 19.60525 23.56284 21.58404
#
# Velocity S-wave (km/s) = 3.18203 3.48845 3.33876
# Velocity P-wave (km/s) = 4.91411 5.41063 5.16834
#
# Compressibility (1/GPa) = 0.04850282
#
# Stress axis : x y z
#
# Youngs Moduli (GPa) = 53.25666 94.71164 41.53940
#
# Poissons Ratio (x) = 0.24646 -0.07096
# Poissons Ratio (y) = 0.13859 0.06476
# Poissons Ratio (z) = -0.09098 0.14766
#
# Static dielectric constant tensor:
#      x y z
#    x 1.757430 0.000000 0.000000 
#    y 0.000000 1.682410 0.000000 
#    z 0.000000 0.000000 1.721930 
# 
# From -- ./inp_files/30236.got.cif
#   From: 2010.05.17/outbox.cif.g08.bks.cpg/sg62_16_cif.got.tgz:30236.got - 2010.06.03 15:25:27.
