data_PCOD9465221
_publ_section_title
;
Structure prediction by ZEFSAII (Michael W. Deem and Ramdas Pophale) SiO2 
 PCOD9465221
Probable space group: P N M A
;
_chemical_formula_sum "Si O2"
_cell_formula_units_Z 40
_cell_length_a 9.298610
_cell_length_b 23.849408
_cell_length_c 7.779457
_cell_angle_alpha 90.000000
_cell_angle_beta 90.000000
_cell_angle_gamma 90.000000
_cell_volume 1725.221735
_symmetry_space_group_name_H-M "P N M A"
_symmetry_group_IT_number 62
_symmetry_cell_setting 'orthorhombic'
loop_
_space_group_symop_operation_xyz
x,y,z
1/2-x,-y,1/2+z
1/2+x,1/2-y,1/2-z
-x,1/2+y,-z
-x,-y,-z
1/2+x,y,1/2-z
1/2-x,1/2+y,1/2+z
x,1/2-y,z
loop_
_atom_site_type_symbol
_atom_site_label
_atom_site_fract_x
_atom_site_fract_y
_atom_site_fract_z
Si Si1 0.598722 0.625281 0.217539
Si Si2 0.179687 0.935790 0.731232
Si Si3 0.039178 0.250000 0.999150
Si Si4 0.151460 0.441521 0.588377
Si Si5 0.686688 0.750000 0.224277
Si Si6 0.932537 0.870500 0.921339
O O1 0.500650 0.590121 0.088097
O O2 0.737944 0.593237 0.290614
O O3 0.631728 0.689023 0.159896
O O4 0.498061 0.627375 0.387961
O O5 0.282152 0.901874 0.601407
O O6 0.046248 0.900112 0.798027
O O7 0.135138 0.996496 0.663751
O O8 0.276804 0.945056 0.902179
O O9 0.876531 0.250000 0.920661
O O10 0.145799 0.250000 0.831418
O O11 0.074459 0.304434 0.110102
#
# Coordination Sequence:
#
# PCOD9465221 Si02
#       6
#     8   8   4   8   4   8
#     4  10  21  39  61  91 122 158 206 260 307 367
#     4  11  24  41  61  89 124 166 209 259 313 371
#     4  10  22  42  66  94 128 162 202 256 306 366
#     4  11  23  38  61  89 123 162 210 258 311 371
#     4  10  20  38  66  92 122 160 200 244 304 366
#     4  10  23  41  61  89 126 162 206 256 310 366
#
# _framework density 23.185426
#
# number of rings (size 3 to 8) (size 9 to 14) (size 15 to 20)
#    0.000    1.600    0.000    4.800    0.000   10.400 
#    0.000    2.000    0.000    0.000    0.000    0.000 
#    0.000    0.000    0.000    0.000    0.000    0.000 
#
# Total GULP energy -223847.809642 kJ/mol
# GULP energy per Si atom -5596.195241 kJ/mol
# Density = 2.313265 g / cm^3
# Si number density = 23.185426 Si / 1000 Ang^3
#
#
#
# Elastic Constant Matrix: (Units=GPa)
#
#
# Indices 1 2 3 4 5 6 
#
# 1 123.0873 64.6589 15.4873 0.0000 0.0000 0.0000
# 2 64.6589 215.2896 34.9944 0.0000 0.0000 0.0000
# 3 15.4873 34.9944 69.9241 0.0000 0.0000 0.0000
# 4 0.0000 0.0000 0.0000 26.8965 0.0000 0.0000
# 5 0.0000 0.0000 0.0000 0.0000 38.0318 0.0000
# 6 0.0000 0.0000 0.0000 0.0000 0.0000 39.9064
#
#
#
# Elastic Compliance Matrix: (Units=1/GPa)
#
#
# Indices 1 2 3 4 5 6 
#
# 1 0.009682 -0.002786 -0.000750 0.000000 0.000000 0.000000
# 2 -0.002786 0.005858 -0.002315 0.000000 0.000000 0.000000
# 3 -0.000750 -0.002315 0.015626 0.000000 0.000000 0.000000
# 4 0.000000 0.000000 0.000000 0.037180 0.000000 0.000000
# 5 0.000000 0.000000 0.000000 0.000000 0.026294 0.000000
# 6 0.000000 0.000000 0.000000 0.000000 0.000000 0.025059
#
#
# Mechanical properties :
#
#
# Convention : Reuss Voigt Hill
#
# Bulk Modulus (GPa) = 51.37616 70.95358 61.16487
# Shear Modulus (GPa) = 36.26147 40.51096 38.38622
#
# Velocity S-wave (km/s) = 3.95901 4.18456 4.07334
# Velocity P-wave (km/s) = 6.56546 7.34959 6.96856
#
# Compressibility (1/GPa) = 0.01946428
#
# Stress axis : x y z
#
# Youngs Moduli (GPa) = 103.28232 170.71114 63.99694
#
# Poissons Ratio (x) = 0.47559 0.04801
# Poissons Ratio (y) = 0.28774 0.14813
# Poissons Ratio (z) = 0.07748 0.39513
#
# Static dielectric constant tensor:
#      x y z
#    x 1.871480 0.000000 0.000000 
#    y 0.000000 1.856770 0.000000 
#    z 0.000000 0.000000 1.895230 
# 
# From -- ./inp_files/4313.got.cif
#   From: 2010.05.17/outbox.cif.g08.bks.cpg/sg62_3_cif.got.tgz:4313.got - 2010.06.03 15:25:27.
