data_PCOD9465564
_publ_section_title
;
Structure prediction by ZEFSAII (Michael W. Deem and Ramdas Pophale) SiO2 
 PCOD9465564
Probable space group: P N M A
;
_chemical_formula_sum "Si O2"
_cell_formula_units_Z 56
_cell_length_a 16.291674
_cell_length_b 8.456555
_cell_length_c 20.662845
_cell_angle_alpha 90.000000
_cell_angle_beta 90.000000
_cell_angle_gamma 90.000000
_cell_volume 2846.749853
_symmetry_space_group_name_H-M "P N M A"
_symmetry_group_IT_number 62
_symmetry_cell_setting 'orthorhombic'
loop_
_space_group_symop_operation_xyz
x,y,z
1/2-x,-y,1/2+z
1/2+x,1/2-y,1/2-z
-x,1/2+y,-z
-x,-y,-z
1/2+x,y,1/2-z
1/2-x,1/2+y,1/2+z
x,1/2-y,z
loop_
_atom_site_type_symbol
_atom_site_label
_atom_site_fract_x
_atom_site_fract_y
_atom_site_fract_z
Si Si1 0.753050 0.439056 0.534113
Si Si2 0.005849 0.939171 0.820306
Si Si3 0.173610 0.058641 0.594221
Si Si4 0.425715 0.439237 0.456365
Si Si5 0.520827 0.059315 0.821090
Si Si6 0.321319 0.441406 0.687981
Si Si7 0.666993 0.942442 0.166414
O O1 0.752444 0.250000 0.535088
O O2 0.813187 0.496228 0.477695
O O3 0.661757 0.499453 0.520068
O O4 0.782034 0.498211 0.604719
O O5 0.007176 0.750000 0.817641
O O6 0.057528 0.992474 0.882506
O O7 0.911542 0.994626 0.828500
O O8 0.037515 0.005911 0.752261
O O9 0.173522 0.250000 0.592688
O O10 0.090232 0.004959 0.629203
O O11 0.251003 0.008039 0.638469
O O12 0.500000 0.500000 0.500000
O O13 0.425424 0.250000 0.458058
O O14 0.520935 0.250000 0.821424
O O15 0.428363 0.007378 0.838275
O O16 0.325657 0.250000 0.686638
O O17 0.302343 0.489928 0.762234
O O18 0.668135 0.750000 0.165333
#
# Coordination Sequence:
#
# PCOD9465564 Si02
#       7
#     8   8   8   8   8   8   8
#     4  11  23  37  57  83 116 155 192 236 288 342
#     4  10  21  36  55  83 114 143 182 236 291 340
#     4  10  21  36  58  85 113 148 193 238 285 339
#     4  11  24  40  58  83 117 152 192 236 288 351
#     4   9  19  37  61  84 109 148 195 237 278 339
#     4   9  18  35  58  81 109 146 188 233 277 338
#     4   8  17  35  56  81 111 145 191 235 279 336
#
# _framework density 19.671558000000001
#
# number of rings (size 3 to 8) (size 9 to 14) (size 15 to 20)
#    0.000    2.286    0.000    3.000    2.000    6.286 
#    0.000    5.714    0.000    0.000    0.000    0.000 
#    0.000    0.000    0.000    0.000    0.000    0.000 
#
# Total GULP energy -312734.291077 kJ/mol
# GULP energy per Si atom -5584.540912 kJ/mol
# Density = 1.962678 g / cm^3
# Si number density = 19.671558 Si / 1000 Ang^3
#
#
#
# Elastic Constant Matrix: (Units=GPa)
#
#
# Indices 1 2 3 4 5 6 
#
# 1 28.0074 5.9154 13.5772 0.0000 0.0000 0.0000
# 2 5.9154 11.8239 9.0704 0.0000 0.0000 0.0000
# 3 13.5772 9.0704 67.9517 0.0000 0.0000 0.0000
# 4 0.0000 0.0000 0.0000 29.3488 0.0000 0.0000
# 5 0.0000 0.0000 0.0000 0.0000 37.0472 0.0000
# 6 0.0000 0.0000 0.0000 0.0000 0.0000 17.6665
#
#
#
# Elastic Compliance Matrix: (Units=1/GPa)
#
#
# Indices 1 2 3 4 5 6 
#
# 1 0.042179 -0.016306 -0.006251 0.000000 0.000000 0.000000
# 2 -0.016306 0.100527 -0.010160 0.000000 0.000000 0.000000
# 3 -0.006251 -0.010160 0.017322 0.000000 0.000000 0.000000
# 4 0.000000 0.000000 0.000000 0.034073 0.000000 0.000000
# 5 0.000000 0.000000 0.000000 0.000000 0.026993 0.000000
# 6 0.000000 0.000000 0.000000 0.000000 0.000000 0.056604
#
#
# Mechanical properties :
#
#
# Convention : Reuss Voigt Hill
#
# Bulk Modulus (GPa) = 10.57174 18.32321 14.44747
# Shear Modulus (GPa) = 13.34527 22.09383 17.71955
#
# Velocity S-wave (km/s) = 2.60745 3.35496 3.00454
# Velocity P-wave (km/s) = 3.80142 4.93381 4.40416
#
# Compressibility (1/GPa) = 0.09459179
#
# Stress axis : x y z
#
# Youngs Moduli (GPa) = 23.70831 9.94758 57.73138
#
# Poissons Ratio (x) = 0.16221 0.36088
# Poissons Ratio (y) = 0.38660 0.58658
# Poissons Ratio (z) = 0.14820 0.10107
#
# Static dielectric constant tensor:
#      x y z
#    x 1.677490 0.000000 0.000000 
#    y 0.000000 1.677320 0.000000 
#    z 0.000000 0.000000 1.693510 
# 
# From -- ./inp_files/27183.got.cif
#   From: 2010.05.17/outbox.cif.g08.bks.cpg/sg62_14_cif.got.tgz:27183.got - 2010.06.03 15:25:27.
