data_PCOD9465442
_publ_section_title
;
Structure prediction by ZEFSAII (Michael W. Deem and Ramdas Pophale) SiO2 
 PCOD9465442
Probable space group: P N M A
;
_chemical_formula_sum "Si O2"
_cell_formula_units_Z 40
_cell_length_a 14.218124
_cell_length_b 13.624599
_cell_length_c 9.800629
_cell_angle_alpha 90.000000
_cell_angle_beta 90.000000
_cell_angle_gamma 90.000000
_cell_volume 1898.540980
_symmetry_space_group_name_H-M "P N M A"
_symmetry_group_IT_number 62
_symmetry_cell_setting 'orthorhombic'
loop_
_space_group_symop_operation_xyz
x,y,z
1/2-x,-y,1/2+z
1/2+x,1/2-y,1/2-z
-x,1/2+y,-z
-x,-y,-z
1/2+x,y,1/2-z
1/2-x,1/2+y,1/2+z
x,1/2-y,z
loop_
_atom_site_type_symbol
_atom_site_label
_atom_site_fract_x
_atom_site_fract_y
_atom_site_fract_z
Si Si1 0.864671 0.750000 0.854550
Si Si2 0.064755 0.750000 0.008376
Si Si3 0.611080 0.750000 0.164484
Si Si4 0.067616 0.537422 0.614868
Si Si5 0.584411 0.533401 0.593667
Si Si6 0.743303 0.907321 0.009353
Si Si7 0.503215 0.250000 0.095724
O O1 0.799476 0.841166 0.899090
O O2 0.905345 0.750000 0.697990
O O3 0.954868 0.750000 0.957836
O O4 0.086215 0.750000 0.173286
O O5 0.102276 0.851661 0.941097
O O6 0.676988 0.841660 0.110943
O O7 0.514267 0.750000 0.070867
O O8 0.044652 0.498818 0.760866
O O9 0.173167 0.521319 0.570244
O O10 0.052907 0.653288 0.634545
O O11 0.000000 0.500000 0.500000
O O12 0.500000 0.500000 0.500000
O O13 0.679433 0.472932 0.580391
#
# Coordination Sequence:
#
# PCOD9465442 Si02
#       7
#     4   4   4   8   8   8   4
#     4  11  20  45  74  94 134 186 231 285 366 420
#     4  12  24  43  72 102 140 187 235 293 364 422
#     4   9  24  42  71  98 146 177 238 291 353 426
#     4  11  25  44  69  98 137 183 235 284 352 418
#     4  12  25  42  72 100 143 187 237 290 360 423
#     4  10  24  42  70 101 142 182 231 294 351 423
#     4  10  20  44  67  94 126 178 226 285 345 408
#
# _framework density 21.068809000000002
#
# number of rings (size 3 to 8) (size 9 to 14) (size 15 to 20)
#    0.000    1.200    4.000    0.600    8.400    1.600 
#    0.000    2.000    8.800    0.000    0.000    0.000 
#    0.000    0.000    0.000    0.000    0.000    0.000 
#
# Total GULP energy -222696.448838 kJ/mol
# GULP energy per Si atom -5567.411221 kJ/mol
# Density = 2.102086 g / cm^3
# Si number density = 21.068809 Si / 1000 Ang^3
#
#
#
# Elastic Constant Matrix: (Units=GPa)
#
#
# Indices 1 2 3 4 5 6 
#
# 1 104.0397 28.2567 74.5157 0.0000 0.0000 0.0000
# 2 28.2567 55.4175 29.0486 0.0000 0.0000 0.0000
# 3 74.5157 29.0486 204.1389 0.0000 0.0000 0.0000
# 4 0.0000 0.0000 0.0000 14.2516 0.0000 0.0000
# 5 0.0000 0.0000 0.0000 0.0000 35.9525 0.0000
# 6 0.0000 0.0000 0.0000 0.0000 0.0000 -17.8895
#
#
#
# Elastic Compliance Matrix: (Units=1/GPa)
#
#
# Indices 1 2 3 4 5 6 
#
# 1 0.014132 -0.004865 -0.004466 0.000000 0.000000 0.000000
# 2 -0.004865 0.021174 -0.001237 0.000000 0.000000 0.000000
# 3 -0.004466 -0.001237 0.006705 0.000000 0.000000 0.000000
# 4 0.000000 0.000000 0.000000 0.070168 0.000000 0.000000
# 5 0.000000 0.000000 0.000000 0.000000 0.027814 0.000000
# 6 0.000000 0.000000 0.000000 0.000000 0.000000 -0.055899
#
#
# Mechanical properties :
#
#
# Convention : Reuss Voigt Hill
#
# Bulk Modulus (GPa) = 47.90565 69.69312 58.79939
# Shear Modulus (GPa) = 44.56806 21.91459 33.24132
#
# Velocity S-wave (km/s) = 4.60429 3.22862 3.97640
# Velocity P-wave (km/s) = 7.14514 6.85925 7.00366
#
# Compressibility (1/GPa) = 0.02087436
#
# Stress axis : x y z
#
# Youngs Moduli (GPa) = 70.76289 47.22824 149.14309
#
# Poissons Ratio (x) = 0.22974 0.66610
# Poissons Ratio (y) = 0.34423 0.18454
# Poissons Ratio (z) = 0.31604 0.05844
#
# Static dielectric constant tensor:
#      x y z
#    x 1.723940 0.000000 0.000000 
#    y 0.000000 1.843080 0.000000 
#    z 0.000000 0.000000 1.760720 
# 
# From -- ./inp_files/6149.got.cif
#   From: 2010.05.17/outbox.cif.g08.bks.cpg/sg62_4_cif.got.tgz:6149.got - 2010.06.03 15:25:27.
