data_PCOD9465486
_publ_section_title
;
Structure prediction by ZEFSAII (Michael W. Deem and Ramdas Pophale) SiO2 
 PCOD9465486
Probable space group: P N M A
;
_chemical_formula_sum "Si O2"
_cell_formula_units_Z 56
_cell_length_a 9.622581
_cell_length_b 19.823043
_cell_length_c 15.790168
_cell_angle_alpha 90.000000
_cell_angle_beta 90.000000
_cell_angle_gamma 90.000000
_cell_volume 3011.956181
_symmetry_space_group_name_H-M "P N M A"
_symmetry_group_IT_number 62
_symmetry_cell_setting 'orthorhombic'
loop_
_space_group_symop_operation_xyz
x,y,z
1/2-x,-y,1/2+z
1/2+x,1/2-y,1/2-z
-x,1/2+y,-z
-x,-y,-z
1/2+x,y,1/2-z
1/2-x,1/2+y,1/2+z
x,1/2-y,z
loop_
_atom_site_type_symbol
_atom_site_label
_atom_site_fract_x
_atom_site_fract_y
_atom_site_fract_z
Si Si1 0.214292 0.907587 0.648809
Si Si2 0.522597 0.049215 0.256005
Si Si3 0.137783 0.465903 0.537894
Si Si4 0.715954 0.330291 0.675537
Si Si5 0.914175 0.445998 0.056763
Si Si6 0.619462 0.170931 0.484263
Si Si7 0.511502 0.100978 0.809701
O O1 0.331771 0.918015 0.719529
O O2 0.262648 0.851202 0.583063
O O3 0.066461 0.903629 0.693875
O O4 0.210430 0.977548 0.596471
O O5 0.440709 0.039563 0.344692
O O6 0.533948 0.975241 0.214984
O O7 0.253175 0.447040 0.469100
O O8 0.000000 0.500000 0.500000
O O9 0.088785 0.406256 0.599974
O O10 0.704049 0.250000 0.689587
O O11 0.669406 0.345143 0.579286
O O12 0.874105 0.354160 0.686166
O O13 0.617459 0.369875 0.740595
O O14 0.986094 0.374451 0.036920
O O15 0.000000 0.500000 0.000000
O O16 0.591373 0.250000 0.478371
#
# Coordination Sequence:
#
# PCOD9465486 Si02
#       7
#     8   8   8   8   8   8   8
#     4  10  21  38  56  92 118 155 200 253 303 368
#     4  10  21  34  60  88 120 149 198 257 311 354
#     4  11  23  36  60  93 124 159 200 259 313 361
#     4  11  24  40  59  84 122 168 206 248 304 379
#     4  11  21  38  63  92 123 157 206 254 308 371
#     4  10  22  41  64  85 120 165 205 250 313 376
#     4  11  23  36  59  89 121 156 203 253 309 363
#
# _framework density 18.592568
#
# number of rings (size 3 to 8) (size 9 to 14) (size 15 to 20)
#    0.000    1.429    2.857    3.857    8.000    0.000 
#    0.000    3.571    0.000    0.857    0.000    0.000 
#    0.000    0.000    0.000    0.000    0.000    0.000 
#
# Total GULP energy -312835.690092 kJ/mol
# GULP energy per Si atom -5586.351609 kJ/mol
# Density = 1.855025 g / cm^3
# Si number density = 18.592568 Si / 1000 Ang^3
#
#
#
# Elastic Constant Matrix: (Units=GPa)
#
#
# Indices 1 2 3 4 5 6 
#
# 1 84.2340 19.6480 11.1408 0.0000 0.0000 0.0000
# 2 19.6480 47.4124 11.9340 0.0000 0.0000 0.0000
# 3 11.1408 11.9340 40.3735 0.0000 0.0000 0.0000
# 4 0.0000 0.0000 0.0000 26.3633 0.0000 0.0000
# 5 0.0000 0.0000 0.0000 0.0000 40.6242 0.0000
# 6 0.0000 0.0000 0.0000 0.0000 0.0000 24.4908
#
#
#
# Elastic Compliance Matrix: (Units=1/GPa)
#
#
# Indices 1 2 3 4 5 6 
#
# 1 0.013322 -0.004965 -0.002209 0.000000 0.000000 0.000000
# 2 -0.004965 0.024637 -0.005912 0.000000 0.000000 0.000000
# 3 -0.002209 -0.005912 0.027126 0.000000 0.000000 0.000000
# 4 0.000000 0.000000 0.000000 0.037932 0.000000 0.000000
# 5 0.000000 0.000000 0.000000 0.000000 0.024616 0.000000
# 6 0.000000 0.000000 0.000000 0.000000 0.000000 0.040832
#
#
# Mechanical properties :
#
#
# Convention : Reuss Voigt Hill
#
# Bulk Modulus (GPa) = 25.69817 28.60726 27.15272
# Shear Modulus (GPa) = 24.08401 26.91545 25.49973
#
# Velocity S-wave (km/s) = 3.60301 3.80892 3.70740
# Velocity P-wave (km/s) = 5.58217 5.89607 5.74127
#
# Compressibility (1/GPa) = 0.03891327
#
# Stress axis : x y z
#
# Youngs Moduli (GPa) = 75.06468 40.58908 36.86523
#
# Poissons Ratio (x) = 0.20151 0.08142
# Poissons Ratio (y) = 0.37268 0.21796
# Poissons Ratio (z) = 0.16578 0.23998
#
# Static dielectric constant tensor:
#      x y z
#    x 1.656490 0.000000 0.000000 
#    y 0.000000 1.615260 0.000000 
#    z 0.000000 0.000000 1.656320 
# 
# From -- ./inp_files/17208.got.cif
#   From: 2010.05.17/outbox.cif.g08.bks.cpg/sg62_9_cif.got.tgz:17208.got - 2010.06.03 15:25:27.
