data_PCOD9465421
_publ_section_title
;
Structure prediction by ZEFSAII (Michael W. Deem and Ramdas Pophale) SiO2 
 PCOD9465421
Probable space group: P N M A
;
_chemical_formula_sum "Si O2"
_cell_formula_units_Z 32
_cell_length_a 13.255092
_cell_length_b 19.821324
_cell_length_c 4.973270
_cell_angle_alpha 90.000000
_cell_angle_beta 90.000000
_cell_angle_gamma 90.000000
_cell_volume 1306.644500
_symmetry_space_group_name_H-M "P N M A"
_symmetry_group_IT_number 62
_symmetry_cell_setting 'orthorhombic'
loop_
_space_group_symop_operation_xyz
x,y,z
1/2-x,-y,1/2+z
1/2+x,1/2-y,1/2-z
-x,1/2+y,-z
-x,-y,-z
1/2+x,y,1/2-z
1/2-x,1/2+y,1/2+z
x,1/2-y,z
loop_
_atom_site_type_symbol
_atom_site_label
_atom_site_fract_x
_atom_site_fract_y
_atom_site_fract_z
Si Si1 0.818890 0.674271 0.296957
Si Si2 0.008555 0.112357 0.997057
Si Si3 0.716448 0.088416 0.330603
Si Si4 0.918477 0.440172 0.496274
O O1 0.796457 0.750000 0.383158
O O2 0.932049 0.669826 0.167687
O O3 0.803287 0.622054 0.541757
O O4 0.756147 0.649314 0.038551
O O5 0.924132 0.085580 0.798745
O O6 0.107531 0.065196 0.056139
O O7 0.958430 0.116837 0.287459
O O8 0.809014 0.038856 0.385259
O O9 0.000000 0.500000 0.500000
#
# Coordination Sequence:
#
# PCOD9465421 Si02
#       4
#     8   8   8   8
#     4  10  20  42  66  86 125 167 201 261 322 364
#     4  10  22  42  61  92 130 157 215 259 303 383
#     4  10  22  40  65  88 131 157 210 261 307 382
#     4  12  24  40  65  93 127 169 211 258 314 373
#
# _framework density 24.490210000000001
#
# number of rings (size 3 to 8) (size 9 to 14) (size 15 to 20)
#    1.500    0.000    2.500    3.000    0.000    2.000 
#    0.000    7.500    0.000    0.000    0.000    0.000 
#    0.000    0.000    0.000    0.000    0.000    0.000 
#
# Total GULP energy -178147.244006 kJ/mol
# GULP energy per Si atom -5567.101375 kJ/mol
# Density = 2.443447 g / cm^3
# Si number density = 24.490210 Si / 1000 Ang^3
#
#
#
# Elastic Constant Matrix: (Units=GPa)
#
#
# Indices 1 2 3 4 5 6 
#
# 1 122.6531 3.9311 37.2592 0.0000 0.0000 0.0000
# 2 3.9311 67.8978 41.2092 0.0000 0.0000 0.0000
# 3 37.2592 41.2092 172.5833 0.0000 0.0000 0.0000
# 4 0.0000 0.0000 0.0000 15.5228 0.0000 0.0000
# 5 0.0000 0.0000 0.0000 0.0000 46.1503 0.0000
# 6 0.0000 0.0000 0.0000 0.0000 0.0000 15.8193
#
#
#
# Elastic Compliance Matrix: (Units=1/GPa)
#
#
# Indices 1 2 3 4 5 6 
#
# 1 0.008758 0.000749 -0.002070 0.000000 0.000000 0.000000
# 2 0.000749 0.017288 -0.004290 0.000000 0.000000 0.000000
# 3 -0.002070 -0.004290 0.007265 0.000000 0.000000 0.000000
# 4 0.000000 0.000000 0.000000 0.064421 0.000000 0.000000
# 5 0.000000 0.000000 0.000000 0.000000 0.021668 0.000000
# 6 0.000000 0.000000 0.000000 0.000000 0.000000 0.063214
#
#
# Mechanical properties :
#
#
# Convention : Reuss Voigt Hill
#
# Bulk Modulus (GPa) = 45.26773 58.65923 51.96348
# Shear Modulus (GPa) = 24.85099 34.21414 29.53256
#
# Velocity S-wave (km/s) = 3.18894 3.74177 3.47636
# Velocity P-wave (km/s) = 5.66421 6.53238 6.11372
#
# Compressibility (1/GPa) = 0.02209079
#
# Stress axis : x y z
#
# Youngs Moduli (GPa) = 114.18450 57.84278 137.63845
#
# Poissons Ratio (x) = -0.04333 0.28485
# Poissons Ratio (y) = -0.08553 0.59044
# Poissons Ratio (z) = 0.23631 0.24813
#
# Static dielectric constant tensor:
#      x y z
#    x 2.092130 0.000000 0.000000 
#    y 0.000000 2.010670 0.000000 
#    z 0.000000 0.000000 1.939220 
# 
# From -- ./inp_files/492.got.cif
#   From: 2010.05.17/outbox.cif.g08.bks.cpg/sg62_1_cif.got.tgz:492.got - 2010.06.03 15:25:27.
