data_PCOD9465360
_publ_section_title
;
Structure prediction by ZEFSAII (Michael W. Deem and Ramdas Pophale) SiO2 
 PCOD9465360
Probable space group: P N M A
;
_chemical_formula_sum "Si O2"
_cell_formula_units_Z 56
_cell_length_a 14.995794
_cell_length_b 8.722633
_cell_length_c 22.033698
_cell_angle_alpha 90.000000
_cell_angle_beta 90.000000
_cell_angle_gamma 90.000000
_cell_volume 2882.069560
_symmetry_space_group_name_H-M "P N M A"
_symmetry_group_IT_number 62
_symmetry_cell_setting 'orthorhombic'
loop_
_space_group_symop_operation_xyz
x,y,z
1/2-x,-y,1/2+z
1/2+x,1/2-y,1/2-z
-x,1/2+y,-z
-x,-y,-z
1/2+x,y,1/2-z
1/2-x,1/2+y,1/2+z
x,1/2-y,z
loop_
_atom_site_type_symbol
_atom_site_label
_atom_site_fract_x
_atom_site_fract_y
_atom_site_fract_z
Si Si1 0.612690 0.566655 0.744570
Si Si2 0.721238 0.065425 0.987752
Si Si3 0.197078 0.566319 0.276544
Si Si4 0.905532 0.564675 0.379228
Si Si5 0.394287 0.065973 0.903152
Si Si6 0.930032 0.566077 0.824763
Si Si7 0.920079 0.065674 0.959976
O O1 0.621439 0.750000 0.742894
O O2 0.701902 0.491038 0.718351
O O3 0.603601 0.510333 0.813659
O O4 0.523651 0.524039 0.707625
O O5 0.718910 0.250000 0.989531
O O6 0.672056 0.018203 0.925507
O O7 0.824072 0.016958 0.986830
O O8 0.665701 0.004078 0.044330
O O9 0.195337 0.750000 0.270859
O O10 0.142577 0.521412 0.336864
O O11 0.149232 0.494315 0.218036
O O12 0.903211 0.750000 0.371944
O O13 0.001821 0.522448 0.406984
O O14 0.389121 0.250000 0.907296
O O15 0.925336 0.750000 0.828957
O O16 0.925736 0.493918 0.891237
O O17 0.923733 0.250000 0.960132
O O18 0.000000 0.000000 0.000000
#
# Coordination Sequence:
#
# PCOD9465360 Si02
#       7
#     8   8   8   8   8   8   8
#     4  11  24  39  62  94 126 163 206 258 315 371
#     4  10  23  40  62  89 121 162 206 256 311 369
#     4  11  23  40  63  93 127 167 210 257 314 379
#     4  10  20  40  64  92 126 161 205 254 309 378
#     4  10  22  38  61  93 125 160 205 253 310 375
#     4  11  24  43  66  95 127 163 209 263 319 375
#     4  11  25  44  65  92 125 168 216 263 317 375
#
# _framework density 19.430482999999999
#
# number of rings (size 3 to 8) (size 9 to 14) (size 15 to 20)
#    0.000    1.429    1.429    3.000    2.000    6.286 
#    0.000    0.000    0.000    0.000    0.000    0.000 
#    0.000    0.000    0.000    0.000    0.000    0.000 
#
# Total GULP energy -313185.860817 kJ/mol
# GULP energy per Si atom -5592.604657 kJ/mol
# Density = 1.938626 g / cm^3
# Si number density = 19.430483 Si / 1000 Ang^3
#
#
#
# Elastic Constant Matrix: (Units=GPa)
#
#
# Indices 1 2 3 4 5 6 
#
# 1 99.8422 19.1987 -5.2382 0.0000 0.0000 0.0000
# 2 19.1987 28.1724 8.0267 0.0000 0.0000 0.0000
# 3 -5.2382 8.0267 35.5947 0.0000 0.0000 0.0000
# 4 0.0000 0.0000 0.0000 36.1334 0.0000 0.0000
# 5 0.0000 0.0000 0.0000 0.0000 27.0154 0.0000
# 6 0.0000 0.0000 0.0000 0.0000 0.0000 31.0250
#
#
#
# Elastic Compliance Matrix: (Units=1/GPa)
#
#
# Indices 1 2 3 4 5 6 
#
# 1 0.012002 -0.009279 0.003859 0.000000 0.000000 0.000000
# 2 -0.009279 0.045106 -0.011537 0.000000 0.000000 0.000000
# 3 0.003859 -0.011537 0.031264 0.000000 0.000000 0.000000
# 4 0.000000 0.000000 0.000000 0.027675 0.000000 0.000000
# 5 0.000000 0.000000 0.000000 0.000000 0.037016 0.000000
# 6 0.000000 0.000000 0.000000 0.000000 0.000000 0.032232
#
#
# Mechanical properties :
#
#
# Convention : Reuss Voigt Hill
#
# Bulk Modulus (GPa) = 18.36280 23.06484 20.71382
# Shear Modulus (GPa) = 21.06488 28.27623 24.67055
#
# Velocity S-wave (km/s) = 3.29616 3.81891 3.56713
# Velocity P-wave (km/s) = 4.89462 5.59836 5.25828
#
# Compressibility (1/GPa) = 0.05445793
#
# Stress axis : x y z
#
# Youngs Moduli (GPa) = 83.31627 22.17004 31.98611
#
# Poissons Ratio (x) = 0.20571 -0.12342
# Poissons Ratio (y) = 0.77307 0.36902
# Poissons Ratio (z) = -0.32149 0.25578
#
# Static dielectric constant tensor:
#      x y z
#    x 1.671910 0.000000 0.000000 
#    y 0.000000 1.655010 0.000000 
#    z 0.000000 0.000000 1.639060 
# 
# From -- ./inp_files/27107.got.cif
#   From: 2010.05.17/outbox.cif.g08.bks.cpg/sg62_14_cif.got.tgz:27107.got - 2010.06.03 15:25:27.
