data_PCOD9465232
_publ_section_title
;
Structure prediction by ZEFSAII (Michael W. Deem and Ramdas Pophale) SiO2 
 PCOD9465232
Probable space group: P N M A
;
_chemical_formula_sum "Si O2"
_cell_formula_units_Z 48
_cell_length_a 8.786195
_cell_length_b 28.161555
_cell_length_c 9.856197
_cell_angle_alpha 90.000000
_cell_angle_beta 90.000000
_cell_angle_gamma 90.000000
_cell_volume 2438.747542
_symmetry_space_group_name_H-M "P N M A"
_symmetry_group_IT_number 62
_symmetry_cell_setting 'orthorhombic'
loop_
_space_group_symop_operation_xyz
x,y,z
1/2-x,-y,1/2+z
1/2+x,1/2-y,1/2-z
-x,1/2+y,-z
-x,-y,-z
1/2+x,y,1/2-z
1/2-x,1/2+y,1/2+z
x,1/2-y,z
loop_
_atom_site_type_symbol
_atom_site_label
_atom_site_fract_x
_atom_site_fract_y
_atom_site_fract_z
Si Si1 0.446565 0.915741 0.634055
Si Si2 0.040991 0.396576 0.600357
Si Si3 0.099757 0.471191 0.389436
Si Si4 0.205458 0.060025 0.861933
Si Si5 0.695147 0.651637 0.738219
Si Si6 0.047959 0.195158 0.443225
O O1 0.472928 0.956380 0.746726
O O2 0.410099 0.935098 0.486645
O O3 0.296850 0.887163 0.683387
O O4 0.580297 0.877705 0.643338
O O5 0.117575 0.421861 0.469255
O O6 0.126669 0.418371 0.729436
O O7 0.052992 0.340847 0.570398
O O8 0.863377 0.411437 0.610470
O O9 0.239342 0.505462 0.355322
O O10 0.000000 0.500000 0.500000
O O11 0.804338 0.684898 0.650120
O O12 0.594361 0.679547 0.848687
O O13 0.038495 0.250000 0.480712
#
# Coordination Sequence:
#
# PCOD9465232 Si02
#       6
#     8   8   8   8   8   8
#     4  11  20  39  64  90 128 169 208 260 328 376
#     4  11  23  42  60  91 132 165 219 267 322 383
#     4  10  20  40  62  91 127 166 212 264 317 380
#     4  11  24  38  61  91 129 174 209 261 319 390
#     4  10  20  38  67  92 121 159 213 269 325 387
#     4  11  22  41  67  94 127 165 214 278 335 387
#
# _framework density 19.682234000000001
#
# number of rings (size 3 to 8) (size 9 to 14) (size 15 to 20)
#    0.000    1.333    5.000    2.500    2.333    1.333 
#    0.000    5.833    0.000    0.000    0.000    0.000 
#    0.000    0.000    0.000    0.000    0.000    0.000 
#
# Total GULP energy -268141.750073 kJ/mol
# GULP energy per Si atom -5586.286460 kJ/mol
# Density = 1.963744 g / cm^3
# Si number density = 19.682234 Si / 1000 Ang^3
#
#
#
# Elastic Constant Matrix: (Units=GPa)
#
#
# Indices 1 2 3 4 5 6 
#
# 1 91.6975 35.9735 36.1493 0.0000 0.0000 0.0000
# 2 35.9735 98.3048 26.8170 0.0000 0.0000 0.0000
# 3 36.1493 26.8170 116.4510 0.0000 0.0000 0.0000
# 4 0.0000 0.0000 0.0000 28.4015 0.0000 0.0000
# 5 0.0000 0.0000 0.0000 0.0000 32.8652 0.0000
# 6 0.0000 0.0000 0.0000 0.0000 0.0000 20.1147
#
#
#
# Elastic Compliance Matrix: (Units=1/GPa)
#
#
# Indices 1 2 3 4 5 6 
#
# 1 0.013855 -0.004158 -0.003343 0.000000 0.000000 0.000000
# 2 -0.004158 0.012102 -0.001496 0.000000 0.000000 0.000000
# 3 -0.003343 -0.001496 0.009970 0.000000 0.000000 0.000000
# 4 0.000000 0.000000 0.000000 0.035209 0.000000 0.000000
# 5 0.000000 0.000000 0.000000 0.000000 0.030427 0.000000
# 6 0.000000 0.000000 0.000000 0.000000 0.000000 0.049715
#
#
# Mechanical properties :
#
#
# Convention : Reuss Voigt Hill
#
# Bulk Modulus (GPa) = 55.76757 56.03700 55.90228
# Shear Modulus (GPa) = 28.53065 30.11051 29.32058
#
# Velocity S-wave (km/s) = 3.81144 3.91555 3.86385
# Velocity P-wave (km/s) = 6.91122 6.99819 6.95484
#
# Compressibility (1/GPa) = 0.01793157
#
# Stress axis : x y z
#
# Youngs Moduli (GPa) = 72.17810 82.62999 100.30378
#
# Poissons Ratio (x) = 0.34357 0.33535
# Poissons Ratio (y) = 0.30011 0.15008
# Poissons Ratio (z) = 0.24131 0.12363
#
# Static dielectric constant tensor:
#      x y z
#    x 1.719360 0.000000 0.000000 
#    y 0.000000 1.704900 0.000000 
#    z 0.000000 0.000000 1.672440 
# 
# From -- ./inp_files/4503.got.cif
#   From: 2010.05.17/outbox.cif.g08.bks.cpg/sg62_3_cif.got.tgz:4503.got - 2010.06.03 15:25:27.
