data_PCOD9465131
_publ_section_title
;
Structure prediction by ZEFSAII (Michael W. Deem and Ramdas Pophale) SiO2 
 PCOD9465131
Probable space group: P N M A
;
_chemical_formula_sum "Si O2"
_cell_formula_units_Z 48
_cell_length_a 12.228650
_cell_length_b 8.372441
_cell_length_c 23.292367
_cell_angle_alpha 90.000000
_cell_angle_beta 90.000000
_cell_angle_gamma 90.000000
_cell_volume 2384.757565
_symmetry_space_group_name_H-M "P N M A"
_symmetry_group_IT_number 62
_symmetry_cell_setting 'orthorhombic'
loop_
_space_group_symop_operation_xyz
x,y,z
1/2-x,-y,1/2+z
1/2+x,1/2-y,1/2-z
-x,1/2+y,-z
-x,-y,-z
1/2+x,y,1/2-z
1/2-x,1/2+y,1/2+z
x,1/2-y,z
loop_
_atom_site_type_symbol
_atom_site_label
_atom_site_fract_x
_atom_site_fract_y
_atom_site_fract_z
Si Si1 0.004667 0.559985 0.137533
Si Si2 0.713229 0.439416 0.418180
Si Si3 0.654548 0.936975 0.733747
Si Si4 0.414265 0.937934 0.145281
Si Si5 0.834884 0.443413 0.647578
Si Si6 0.172883 0.056459 0.953320
O O1 0.990402 0.750000 0.145059
O O2 0.945932 0.475484 0.190728
O O3 0.937261 0.509099 0.080280
O O4 0.129847 0.518216 0.126785
O O5 0.694749 0.250000 0.416866
O O6 0.836670 0.476181 0.400256
O O7 0.686709 0.502480 0.482100
O O8 0.657994 0.750000 0.746915
O O9 0.636334 0.032379 0.792049
O O10 0.763669 0.987870 0.699756
O O11 0.415039 0.750000 0.132400
O O12 0.539631 0.995275 0.146631
O O13 0.831538 0.250000 0.652133
O O14 0.771811 0.489375 0.589077
O O15 0.172814 0.250000 0.956078
#
# Coordination Sequence:
#
# PCOD9465131 Si02
#       6
#     8   8   8   8   8   8
#     4  10  20  38  62  87 118 158 200 239 291 354
#     4  11  22  36  57  89 124 154 194 247 296 340
#     4  11  23  39  61  87 117 149 192 248 301 347
#     4  11  24  40  59  84 117 159 200 238 290 356
#     4   9  20  41  64  84 112 154 200 238 288 355
#     4   8  17  36  61  87 117 153 194 244 293 344
#
# _framework density 20.127832000000001
#
# number of rings (size 3 to 8) (size 9 to 14) (size 15 to 20)
#    0.000    2.000    0.000    4.500    2.333    2.000 
#    0.000    7.500    0.000    0.000    0.000    0.000 
#    0.000    0.000    0.000    0.000    0.000    0.000 
#
# Total GULP energy -268212.880040 kJ/mol
# GULP energy per Si atom -5587.768334 kJ/mol
# Density = 2.008202 g / cm^3
# Si number density = 20.127832 Si / 1000 Ang^3
#
#
#
# Elastic Constant Matrix: (Units=GPa)
#
#
# Indices 1 2 3 4 5 6 
#
# 1 95.7877 -3.4143 1.0146 0.0000 0.0000 0.0000
# 2 -3.4143 18.8429 -12.4823 0.0000 0.0000 0.0000
# 3 1.0146 -12.4823 38.5003 0.0000 0.0000 0.0000
# 4 0.0000 0.0000 0.0000 17.4760 0.0000 0.0000
# 5 0.0000 0.0000 0.0000 0.0000 6.1687 0.0000
# 6 0.0000 0.0000 0.0000 0.0000 0.0000 26.5677
#
#
#
# Elastic Compliance Matrix: (Units=1/GPa)
#
#
# Indices 1 2 3 4 5 6 
#
# 1 0.010513 0.002192 0.000434 0.000000 0.000000 0.000000
# 2 0.002192 0.068043 0.022003 0.000000 0.000000 0.000000
# 3 0.000434 0.022003 0.033096 0.000000 0.000000 0.000000
# 4 0.000000 0.000000 0.000000 0.057221 0.000000 0.000000
# 5 0.000000 0.000000 0.000000 0.000000 0.162109 0.000000
# 6 0.000000 0.000000 0.000000 0.000000 0.000000 0.037640
#
#
# Mechanical properties :
#
#
# Convention : Reuss Voigt Hill
#
# Bulk Modulus (GPa) = 6.21463 13.70742 9.96103
# Shear Modulus (GPa) = 13.40476 21.24333 17.32405
#
# Velocity S-wave (km/s) = 2.58346 3.25225 2.93695
# Velocity P-wave (km/s) = 3.46314 4.57469 4.05716
#
# Compressibility (1/GPa) = 0.16091054
#
# Stress axis : x y z
#
# Youngs Moduli (GPa) = 95.11760 14.69650 30.21510
#
# Poissons Ratio (x) = -0.03222 -0.01311
# Poissons Ratio (y) = -0.20853 -0.66482
# Poissons Ratio (z) = -0.04125 -0.32337
#
# Static dielectric constant tensor:
#      x y z
#    x 1.705190 0.000000 0.000000 
#    y 0.000000 1.685350 0.000000 
#    z 0.000000 0.000000 1.698770 
# 
# From -- ./inp_files/29254.got.cif
#   From: 2010.05.17/outbox.cif.g08.bks.cpg/sg62_15_cif.got.tgz:29254.got - 2010.06.03 15:25:27.
