data_PCOD9465797
_publ_section_title
;
Structure prediction by ZEFSAII (Michael W. Deem and Ramdas Pophale) SiO2 
 PCOD9465797
Probable space group: P N M A
;
_chemical_formula_sum "Si O2"
_cell_formula_units_Z 56
_cell_length_a 14.523455
_cell_length_b 13.768886
_cell_length_c 13.644220
_cell_angle_alpha 90.000000
_cell_angle_beta 90.000000
_cell_angle_gamma 90.000000
_cell_volume 2728.459181
_symmetry_space_group_name_H-M "P N M A"
_symmetry_group_IT_number 62
_symmetry_cell_setting 'orthorhombic'
loop_
_space_group_symop_operation_xyz
x,y,z
1/2-x,-y,1/2+z
1/2+x,1/2-y,1/2-z
-x,1/2+y,-z
-x,-y,-z
1/2+x,y,1/2-z
1/2-x,1/2+y,1/2+z
x,1/2-y,z
loop_
_atom_site_type_symbol
_atom_site_label
_atom_site_fract_x
_atom_site_fract_y
_atom_site_fract_z
Si Si1 0.488159 0.984275 0.743940
Si Si2 0.141262 0.364928 0.502666
Si Si3 0.557325 0.865024 0.928693
Si Si4 0.425971 0.571766 0.545779
Si Si5 0.872955 0.858961 0.153243
Si Si6 0.227025 0.522838 0.610790
Si Si7 0.790005 0.506703 0.679492
O O1 0.532102 0.921306 0.829488
O O2 0.465137 0.910376 0.654203
O O3 0.553657 0.070898 0.707763
O O4 0.390869 0.025081 0.783076
O O5 0.155663 0.250000 0.498505
O O6 0.030861 0.383843 0.498273
O O7 0.183704 0.416260 0.597669
O O8 0.189262 0.417946 0.408773
O O9 0.563011 0.750000 0.915865
O O10 0.657680 0.908419 0.950400
O O11 0.500000 0.500000 0.500000
O O12 0.406481 0.646884 0.459980
O O13 0.327881 0.521837 0.564998
O O14 0.866761 0.750000 0.193619
O O15 0.776824 0.917833 0.153580
O O16 0.241187 0.553404 0.723808
#
# Coordination Sequence:
#
# PCOD9465797 Si02
#       7
#     8   8   8   8   8   8   8
#     4   9  20  40  61  82 123 159 203 257 308 372
#     4  10  22  41  63  90 123 166 211 255 316 383
#     4  10  21  37  61  91 123 160 203 254 314 372
#     4   9  20  38  60  83 118 160 204 254 310 361
#     4  11  21  37  60  87 121 160 204 255 318 379
#     4  11  20  38  65  90 121 160 203 261 314 367
#     4  10  21  39  62  88 122 160 204 263 307 367
#
# _framework density 20.524405999999999
#
# number of rings (size 3 to 8) (size 9 to 14) (size 15 to 20)
#    0.000    2.000    2.857    0.429    0.000    2.857 
#    0.000    8.571    0.000    0.000    0.000    0.000 
#    0.000    0.000    0.000    0.000    0.000    0.000 
#
# Total GULP energy -312154.432613 kJ/mol
# GULP energy per Si atom -5574.186297 kJ/mol
# Density = 2.047769 g / cm^3
# Si number density = 20.524406 Si / 1000 Ang^3
#
#
#
# Elastic Constant Matrix: (Units=GPa)
#
#
# Indices 1 2 3 4 5 6 
#
# 1 118.6238 37.3953 13.5508 0.0000 0.0000 0.0000
# 2 37.3953 98.0202 3.0012 0.0000 0.0000 0.0000
# 3 13.5508 3.0012 50.2990 0.0000 0.0000 0.0000
# 4 0.0000 0.0000 0.0000 17.2975 0.0000 0.0000
# 5 0.0000 0.0000 0.0000 0.0000 27.5362 0.0000
# 6 0.0000 0.0000 0.0000 0.0000 0.0000 5.9773
#
#
#
# Elastic Compliance Matrix: (Units=1/GPa)
#
#
# Indices 1 2 3 4 5 6 
#
# 1 0.009872 -0.003692 -0.002439 0.000000 0.000000 0.000000
# 2 -0.003692 0.011601 0.000302 0.000000 0.000000 0.000000
# 3 -0.002439 0.000302 0.020520 0.000000 0.000000 0.000000
# 4 0.000000 0.000000 0.000000 0.057812 0.000000 0.000000
# 5 0.000000 0.000000 0.000000 0.000000 0.036316 0.000000
# 6 0.000000 0.000000 0.000000 0.000000 0.000000 0.167300
#
#
# Mechanical properties :
#
#
# Convention : Reuss Voigt Hill
#
# Bulk Modulus (GPa) = 32.96380 41.64862 37.30621
# Shear Modulus (GPa) = 15.37558 24.36192 19.86875
#
# Velocity S-wave (km/s) = 2.74001 3.44899 3.11473
# Velocity P-wave (km/s) = 5.10939 6.01639 5.58134
#
# Compressibility (1/GPa) = 0.03033631
#
# Stress axis : x y z
#
# Youngs Moduli (GPa) = 101.29190 86.19850 48.73235
#
# Poissons Ratio (x) = 0.31822 0.11888
# Poissons Ratio (y) = 0.37394 -0.01473
# Poissons Ratio (z) = 0.24709 -0.02606
#
# Static dielectric constant tensor:
#      x y z
#    x 1.765890 0.000000 0.000000 
#    y 0.000000 1.704740 0.000000 
#    z 0.000000 0.000000 1.824290 
# 
# From -- ./inp_files/19035.got.cif
#   From: 2010.05.17/outbox.cif.g08.bks.cpg/sg62_10_cif.got.tgz:19035.got - 2010.06.03 15:25:27.
