data_PCOD9465513
_publ_section_title
;
Structure prediction by ZEFSAII (Michael W. Deem and Ramdas Pophale) SiO2 
 PCOD9465513
Probable space group: P N M A
;
_chemical_formula_sum "Si O2"
_cell_formula_units_Z 56
_cell_length_a 23.835224
_cell_length_b 8.906660
_cell_length_c 14.017852
_cell_angle_alpha 90.000000
_cell_angle_beta 90.000000
_cell_angle_gamma 90.000000
_cell_volume 2975.881148
_symmetry_space_group_name_H-M "P N M A"
_symmetry_group_IT_number 62
_symmetry_cell_setting 'orthorhombic'
loop_
_space_group_symop_operation_xyz
x,y,z
1/2-x,-y,1/2+z
1/2+x,1/2-y,1/2-z
-x,1/2+y,-z
-x,-y,-z
1/2+x,y,1/2-z
1/2-x,1/2+y,1/2+z
x,1/2-y,z
loop_
_atom_site_type_symbol
_atom_site_label
_atom_site_fract_x
_atom_site_fract_y
_atom_site_fract_z
Si Si1 0.125669 0.570007 0.717953
Si Si2 0.663891 0.429339 0.291281
Si Si3 0.268710 0.570302 0.111678
Si Si4 0.936515 0.071557 0.893558
Si Si5 0.068560 0.428976 0.900156
Si Si6 0.059041 0.928809 0.527607
Si Si7 0.335216 0.929800 0.925816
O O1 0.130945 0.750000 0.725239
O O2 0.183743 0.500400 0.680091
O O3 0.105880 0.500081 0.817187
O O4 0.079761 0.535324 0.635261
O O5 0.664840 0.250000 0.301097
O O6 0.709072 0.503117 0.360978
O O7 0.602722 0.491614 0.316862
O O8 0.679108 0.469207 0.182361
O O9 0.268406 0.750000 0.121883
O O10 0.287940 0.532905 0.003851
O O11 0.927129 0.250000 0.892847
O O12 0.002618 0.044041 0.877236
O O13 0.921465 0.004647 0.997326
O O14 0.077205 0.250000 0.906551
O O15 0.055649 0.750000 0.519285
O O16 0.107939 0.990791 0.459453
O O17 0.000000 0.000000 0.500000
O O18 0.344137 0.750000 0.930032
#
# Coordination Sequence:
#
# PCOD9465513 Si02
#       7
#     8   8   8   8   8   8   8
#     4  10  21  37  58  84 115 153 193 239 296 354
#     4  11  23  39  61  87 118 156 199 247 303 357
#     4  10  21  40  61  83 115 153 200 248 293 348
#     4  10  22  39  58  85 118 152 195 244 295 353
#     4  10  21  38  60  86 117 154 195 242 294 352
#     4  10  21  35  55  84 117 152 190 235 288 348
#     4   9  21  40  59  82 114 152 193 242 291 343
#
# _framework density 18.817955999999999
#
# number of rings (size 3 to 8) (size 9 to 14) (size 15 to 20)
#    0.000    2.000    0.000    2.571    2.000    6.286 
#    0.000    4.286    0.000    0.000    0.000    0.000 
#    0.000    0.000    0.000    0.000    0.000    0.000 
#
# Total GULP energy -312875.539181 kJ/mol
# GULP energy per Si atom -5587.063200 kJ/mol
# Density = 1.877513 g / cm^3
# Si number density = 18.817956 Si / 1000 Ang^3
#
#
#
# Elastic Constant Matrix: (Units=GPa)
#
#
# Indices 1 2 3 4 5 6 
#
# 1 22.6301 16.5172 15.6464 0.0000 0.0000 0.0000
# 2 16.5172 46.1570 29.0369 0.0000 0.0000 0.0000
# 3 15.6464 29.0369 71.2701 0.0000 0.0000 0.0000
# 4 0.0000 0.0000 0.0000 30.1506 0.0000 0.0000
# 5 0.0000 0.0000 0.0000 0.0000 18.2928 0.0000
# 6 0.0000 0.0000 0.0000 0.0000 0.0000 34.5166
#
#
#
# Elastic Compliance Matrix: (Units=1/GPa)
#
#
# Indices 1 2 3 4 5 6 
#
# 1 0.061735 -0.018241 -0.006121 0.000000 0.000000 0.000000
# 2 -0.018241 0.034521 -0.010060 0.000000 0.000000 0.000000
# 3 -0.006121 -0.010060 0.019474 0.000000 0.000000 0.000000
# 4 0.000000 0.000000 0.000000 0.033167 0.000000 0.000000
# 5 0.000000 0.000000 0.000000 0.000000 0.054666 0.000000
# 6 0.000000 0.000000 0.000000 0.000000 0.000000 0.028972
#
#
# Mechanical properties :
#
#
# Convention : Reuss Voigt Hill
#
# Bulk Modulus (GPa) = 21.32869 29.16204 25.24537
# Shear Modulus (GPa) = 15.77246 21.84911 18.81078
#
# Velocity S-wave (km/s) = 2.89824 3.41116 3.16510
# Velocity P-wave (km/s) = 4.74958 5.57182 5.17705
#
# Compressibility (1/GPa) = 0.04688521
#
# Stress axis : x y z
#
# Youngs Moduli (GPa) = 16.19825 28.96753 51.35122
#
# Poissons Ratio (x) = 0.52839 0.31434
# Poissons Ratio (y) = 0.29547 0.51660
# Poissons Ratio (z) = 0.09916 0.29142
#
# Static dielectric constant tensor:
#      x y z
#    x 1.623580 0.000000 0.000000 
#    y 0.000000 1.622610 0.000000 
#    z 0.000000 0.000000 1.644930 
# 
# From -- ./inp_files/20321.got.cif
#   From: 2010.05.17/outbox.cif.g08.bks.cpg/sg62_11_cif.got.tgz:20321.got - 2010.06.03 15:25:27.
