data_PCOD9465342
_publ_section_title
;
Structure prediction by ZEFSAII (Michael W. Deem and Ramdas Pophale) SiO2 
 PCOD9465342
Probable space group: P N M A
;
_chemical_formula_sum "Si O2"
_cell_formula_units_Z 48
_cell_length_a 14.793232
_cell_length_b 15.061407
_cell_length_c 11.117360
_cell_angle_alpha 90.000000
_cell_angle_beta 90.000000
_cell_angle_gamma 90.000000
_cell_volume 2477.024384
_symmetry_space_group_name_H-M "P N M A"
_symmetry_group_IT_number 62
_symmetry_cell_setting 'orthorhombic'
loop_
_space_group_symop_operation_xyz
x,y,z
1/2-x,-y,1/2+z
1/2+x,1/2-y,1/2-z
-x,1/2+y,-z
-x,-y,-z
1/2+x,y,1/2-z
1/2-x,1/2+y,1/2+z
x,1/2-y,z
loop_
_atom_site_type_symbol
_atom_site_label
_atom_site_fract_x
_atom_site_fract_y
_atom_site_fract_z
Si Si1 0.978460 0.056029 0.620012
Si Si2 0.075453 0.569456 0.020136
Si Si3 0.201744 0.938174 0.236331
Si Si4 0.624649 0.938907 0.747588
Si Si5 0.563649 0.750000 0.514091
Si Si6 0.249001 0.750000 0.129727
Si Si7 0.937441 0.250000 0.300328
Si Si8 0.046142 0.250000 0.542500
O O1 0.007313 0.158559 0.599948
O O2 0.872813 0.054010 0.657901
O O3 0.040855 0.003343 0.716877
O O4 0.000000 0.000000 0.500000
O O5 0.145185 0.539215 0.117710
O O6 0.121802 0.585655 0.892586
O O7 0.028900 0.662500 0.051525
O O8 0.000000 0.500000 0.000000
O O9 0.235206 0.837581 0.211505
O O10 0.284933 0.004879 0.238347
O O11 0.615085 0.844067 0.815687
O O12 0.670266 0.750000 0.473226
O O13 0.537894 0.750000 0.656315
O O14 0.346487 0.750000 0.066529
O O15 0.016313 0.250000 0.401025
#
# Coordination Sequence:
#
# PCOD9465342 Si02
#       8
#     8   8   8   8   4   4   4   4
#     4  12  25  41  66 100 133 178 218 276 337 398
#     4  10  20  40  62  87 120 170 212 262 320 378
#     4  11  24  42  66  93 134 170 220 276 328 395
#     4  11  23  42  63  93 131 172 223 265 334 393
#     4   8  20  37  60  87 128 163 213 260 312 389
#     4  10  21  41  66  98 127 180 218 265 339 400
#     4  10  22  41  58  91 136 165 215 278 312 393
#     4  12  23  39  70  98 137 170 222 273 343 398
#
# _framework density 19.378088000000002
#
# number of rings (size 3 to 8) (size 9 to 14) (size 15 to 20)
#    0.000    1.333    5.000    0.500    2.333    1.333 
#    0.000    1.667    0.000    0.000    0.000    0.000 
#    0.000    0.000    0.000    0.000    0.000    0.000 
#
# Total GULP energy -267431.319650 kJ/mol
# GULP energy per Si atom -5571.485826 kJ/mol
# Density = 1.933398 g / cm^3
# Si number density = 19.378088 Si / 1000 Ang^3
#
#
#
# Elastic Constant Matrix: (Units=GPa)
#
#
# Indices 1 2 3 4 5 6 
#
# 1 103.4617 74.8466 19.9675 0.0000 0.0000 0.0000
# 2 74.8466 162.9342 14.9436 0.0000 0.0000 0.0000
# 3 19.9675 14.9436 64.2731 0.0000 0.0000 0.0000
# 4 0.0000 0.0000 0.0000 20.5563 0.0000 0.0000
# 5 0.0000 0.0000 0.0000 0.0000 32.0213 0.0000
# 6 0.0000 0.0000 0.0000 0.0000 0.0000 30.8980
#
#
#
# Elastic Compliance Matrix: (Units=1/GPa)
#
#
# Indices 1 2 3 4 5 6 
#
# 1 0.015072 -0.006635 -0.003139 0.000000 0.000000 0.000000
# 2 -0.006635 0.009192 -0.000076 0.000000 0.000000 0.000000
# 3 -0.003139 -0.000076 0.016552 0.000000 0.000000 0.000000
# 4 0.000000 0.000000 0.000000 0.048647 0.000000 0.000000
# 5 0.000000 0.000000 0.000000 0.000000 0.031229 0.000000
# 6 0.000000 0.000000 0.000000 0.000000 0.000000 0.032365
#
#
# Mechanical properties :
#
#
# Convention : Reuss Voigt Hill
#
# Bulk Modulus (GPa) = 47.36178 61.13159 54.24669
# Shear Modulus (GPa) = 27.80931 31.42254 29.61592
#
# Velocity S-wave (km/s) = 3.79237 4.03122 3.91361
# Velocity P-wave (km/s) = 6.60833 7.29951 6.96250
#
# Compressibility (1/GPa) = 0.02111407
#
# Stress axis : x y z
#
# Youngs Moduli (GPa) = 66.35022 108.78436 60.41723
#
# Poissons Ratio (x) = 0.72183 0.18968
# Poissons Ratio (y) = 0.44026 0.00458
# Poissons Ratio (z) = 0.20831 0.00825
#
# Static dielectric constant tensor:
#      x y z
#    x 1.658420 0.000000 0.000000 
#    y 0.000000 1.763950 0.000000 
#    z 0.000000 0.000000 1.746640 
# 
# From -- ./inp_files/13332.got.cif
#   From: 2010.05.17/outbox.cif.g08.bks.cpg/sg62_7_cif.got.tgz:13332.got - 2010.06.03 15:25:27.
