data_PCOD9465601
_publ_section_title
;
Structure prediction by ZEFSAII (Michael W. Deem and Ramdas Pophale) SiO2 
 PCOD9465601
Probable space group: P N M A
;
_chemical_formula_sum "Si O2"
_cell_formula_units_Z 64
_cell_length_a 13.489432
_cell_length_b 16.788447
_cell_length_c 11.663868
_cell_angle_alpha 90.000000
_cell_angle_beta 90.000000
_cell_angle_gamma 90.000000
_cell_volume 2641.476694
_symmetry_space_group_name_H-M "P N M A"
_symmetry_group_IT_number 62
_symmetry_cell_setting 'orthorhombic'
loop_
_space_group_symop_operation_xyz
x,y,z
1/2-x,-y,1/2+z
1/2+x,1/2-y,1/2-z
-x,1/2+y,-z
-x,-y,-z
1/2+x,y,1/2-z
1/2-x,1/2+y,1/2+z
x,1/2-y,z
loop_
_atom_site_type_symbol
_atom_site_label
_atom_site_fract_x
_atom_site_fract_y
_atom_site_fract_z
Si Si1 0.136288 0.843684 0.881054
Si Si2 0.795547 0.111606 0.558957
Si Si3 0.096769 0.929770 0.098337
Si Si4 0.214058 0.343839 0.698746
Si Si5 0.003339 0.160172 0.304988
Si Si6 0.155101 0.096967 0.135949
Si Si7 0.490364 0.157126 0.812074
Si Si8 0.830525 0.565351 0.614593
O O1 0.124917 0.750000 0.882699
O O2 0.249653 0.866703 0.904634
O O3 0.096213 0.869788 0.756064
O O4 0.074198 0.882927 0.982433
O O5 0.725469 0.134881 0.666455
O O6 0.738610 0.135123 0.443394
O O7 0.903266 0.145698 0.594360
O O8 0.810975 0.016370 0.551322
O O9 0.203989 0.895417 0.135824
O O10 0.030897 0.902911 0.206433
O O11 0.102647 0.023278 0.071722
O O12 0.237386 0.250000 0.685609
O O13 0.103552 0.357488 0.652641
O O14 0.993864 0.250000 0.349448
O O15 0.080976 0.158613 0.197014
O O16 0.058200 0.099520 0.389742
O O17 0.189570 0.049165 0.250083
O O18 0.484963 0.250000 0.773261
#
# Coordination Sequence:
#
# PCOD9465601 Si02
#       8
#     8   8   8   8   8   8   8   8
#     4  11  22  37  63  86 110 154 194 240 289 332
#     4  11  20  38  59  80 117 150 190 233 286 344
#     4  11  20  39  58  87 120 145 196 237 279 346
#     4  10  21  37  59  85 117 151 186 237 289 337
#     4   9  21  38  56  86 116 143 192 236 283 342
#     4  10  22  38  56  85 112 150 187 232 286 338
#     4  10  21  36  57  86 116 150 190 232 286 345
#     4  10  21  39  56  81 118 149 188 239 290 332
#
# _framework density 24.228871000000002
#
# number of rings (size 3 to 8) (size 9 to 14) (size 15 to 20)
#    0.750    1.000    3.750    2.625    1.750    3.500 
#    0.000    1.875    0.000    3.000    0.000    0.000 
#    0.000    0.000    0.000    0.000    0.000    0.000 
#
# Total GULP energy -357302.232907 kJ/mol
# GULP energy per Si atom -5582.847389 kJ/mol
# Density = 2.417372 g / cm^3
# Si number density = 24.228871 Si / 1000 Ang^3
#
#
#
# Elastic Constant Matrix: (Units=GPa)
#
#
# Indices 1 2 3 4 5 6 
#
# 1 85.3578 18.8680 8.4919 0.0000 0.0000 0.0000
# 2 18.8680 80.0304 -7.8514 0.0000 0.0000 0.0000
# 3 8.4919 -7.8514 45.6995 0.0000 0.0000 0.0000
# 4 0.0000 0.0000 0.0000 18.7980 0.0000 0.0000
# 5 0.0000 0.0000 0.0000 0.0000 28.8524 0.0000
# 6 0.0000 0.0000 0.0000 0.0000 0.0000 33.3377
#
#
#
# Elastic Compliance Matrix: (Units=1/GPa)
#
#
# Indices 1 2 3 4 5 6 
#
# 1 0.012734 -0.003290 -0.002931 0.000000 0.000000 0.000000
# 2 -0.003290 0.013559 0.002941 0.000000 0.000000 0.000000
# 3 -0.002931 0.002941 0.022932 0.000000 0.000000 0.000000
# 4 0.000000 0.000000 0.000000 0.053197 0.000000 0.000000
# 5 0.000000 0.000000 0.000000 0.000000 0.034659 0.000000
# 6 0.000000 0.000000 0.000000 0.000000 0.000000 0.029996
#
#
# Mechanical properties :
#
#
# Convention : Reuss Voigt Hill
#
# Bulk Modulus (GPa) = 23.43850 27.78941 25.61396
# Shear Modulus (GPa) = 26.61547 28.96955 27.79251
#
# Velocity S-wave (km/s) = 3.31796 3.46159 3.39053
# Velocity P-wave (km/s) = 4.93693 5.24130 5.09139
#
# Compressibility (1/GPa) = 0.04266485
#
# Stress axis : x y z
#
# Youngs Moduli (GPa) = 78.52853 73.74973 43.60702
#
# Poissons Ratio (x) = 0.24262 0.12783
# Poissons Ratio (y) = 0.25834 -0.12824
# Poissons Ratio (z) = 0.23021 -0.21689
#
# Static dielectric constant tensor:
#      x y z
#    x 1.989670 0.000000 0.000000 
#    y 0.000000 1.444480 0.000000 
#    z 0.000000 0.000000 2.053540 
# 
# From -- ./inp_files/19237.got.cif
#   From: 2010.05.17/outbox.cif.g08.bks.cpg/sg62_10_cif.got.tgz:19237.got - 2010.06.03 15:25:27.
