data_PCOD9465148
_publ_section_title
;
Structure prediction by ZEFSAII (Michael W. Deem and Ramdas Pophale) SiO2 
 PCOD9465148
Probable space group: P N M A
;
_chemical_formula_sum "Si O2"
_cell_formula_units_Z 48
_cell_length_a 11.030417
_cell_length_b 12.356841
_cell_length_c 17.422965
_cell_angle_alpha 90.000000
_cell_angle_beta 90.000000
_cell_angle_gamma 90.000000
_cell_volume 2374.769452
_symmetry_space_group_name_H-M "P N M A"
_symmetry_group_IT_number 62
_symmetry_cell_setting 'orthorhombic'
loop_
_space_group_symop_operation_xyz
x,y,z
1/2-x,-y,1/2+z
1/2+x,1/2-y,1/2-z
-x,1/2+y,-z
-x,-y,-z
1/2+x,y,1/2-z
1/2-x,1/2+y,1/2+z
x,1/2-y,z
loop_
_atom_site_type_symbol
_atom_site_label
_atom_site_fract_x
_atom_site_fract_y
_atom_site_fract_z
Si Si1 0.200602 0.991549 0.726595
Si Si2 0.769699 0.631977 0.413735
Si Si3 0.741228 0.131717 0.632750
Si Si4 0.902292 0.551709 0.557101
Si Si5 0.997811 0.374578 0.965481
Si Si6 0.450150 0.874203 0.774732
O O1 0.325621 0.925226 0.740607
O O2 0.076537 0.930680 0.749359
O O3 0.187412 0.035099 0.640370
O O4 0.214994 0.094761 0.781285
O O5 0.810061 0.750000 0.385467
O O6 0.815311 0.618321 0.500680
O O7 0.624781 0.627222 0.416499
O O8 0.796572 0.250000 0.630297
O O9 0.616972 0.129916 0.585855
O O10 0.828876 0.046617 0.593844
O O11 0.945790 0.616474 0.632041
O O12 0.000000 0.500000 0.500000
O O13 0.996274 0.250000 0.005735
O O14 0.000000 0.500000 0.000000
O O15 0.454293 0.750000 0.751588
#
# Coordination Sequence:
#
# PCOD9465148 Si02
#       6
#     8   8   8   8   8   8
#     4  11  23  43  64  92 129 161 216 258 314 390
#     4  11  22  39  65  94 126 163 208 264 322 377
#     4  10  22  40  64  91 125 164 208 260 317 377
#     4  11  22  41  62  94 128 162 213 259 313 388
#     4  10  20  38  62  91 123 160 208 259 316 378
#     4  11  24  43  66  92 128 171 210 263 320 386
#
# _framework density 20.212489000000001
#
# number of rings (size 3 to 8) (size 9 to 14) (size 15 to 20)
#    0.000    1.333    3.333    2.500    0.000    1.333 
#    0.000    5.833    0.000    0.000    0.000    0.000 
#    0.000    0.000    0.000    0.000    0.000    0.000 
#
# Total GULP energy -267417.717819 kJ/mol
# GULP energy per Si atom -5571.202455 kJ/mol
# Density = 2.016648 g / cm^3
# Si number density = 20.212489 Si / 1000 Ang^3
#
#
#
# Elastic Constant Matrix: (Units=GPa)
#
#
# Indices 1 2 3 4 5 6 
#
# 1 68.9962 20.2931 -3.9973 0.0000 0.0000 0.0000
# 2 20.2931 131.0916 11.2677 0.0000 0.0000 0.0000
# 3 -3.9973 11.2677 51.7565 0.0000 0.0000 0.0000
# 4 0.0000 0.0000 0.0000 16.9807 0.0000 0.0000
# 5 0.0000 0.0000 0.0000 0.0000 15.8276 0.0000
# 6 0.0000 0.0000 0.0000 0.0000 0.0000 -124.2884
#
#
#
# Elastic Compliance Matrix: (Units=1/GPa)
#
#
# Indices 1 2 3 4 5 6 
#
# 1 0.015336 -0.002523 0.001734 0.000000 0.000000 0.000000
# 2 -0.002523 0.008189 -0.001978 0.000000 0.000000 0.000000
# 3 0.001734 -0.001978 0.019886 0.000000 0.000000 0.000000
# 4 0.000000 0.000000 0.000000 0.058890 0.000000 0.000000
# 5 0.000000 0.000000 0.000000 0.000000 0.063181 0.000000
# 6 0.000000 0.000000 0.000000 0.000000 0.000000 -0.008046
#
#
# Mechanical properties :
#
#
# Convention : Reuss Voigt Hill
#
# Bulk Modulus (GPa) = 26.40146 34.10793 30.25470
# Shear Modulus (GPa) = 28.47458 -3.34396 12.56531
#
# Velocity S-wave (km/s) = 3.75742 -1.28763 2.49602
# Velocity P-wave (km/s) = 5.64930 3.83414 4.82780
#
# Compressibility (1/GPa) = 0.03787669
#
# Stress axis : x y z
#
# Youngs Moduli (GPa) = 65.20575 122.11786 50.28743
#
# Poissons Ratio (x) = 0.30811 -0.08719
# Poissons Ratio (y) = 0.16452 0.09945
# Poissons Ratio (z) = -0.11305 0.24150
#
# Static dielectric constant tensor:
#      x y z
#    x 1.712870 0.000000 0.000000 
#    y 0.000000 1.758530 0.000000 
#    z 0.000000 0.000000 1.761510 
# 
# From -- ./inp_files/22998.got.cif
#   From: 2010.05.17/outbox.cif.g08.bks.cpg/sg62_12_cif.got.tgz:22998.got - 2010.06.03 15:25:27.
