data_PCOD9465014
_publ_section_title
;
Structure prediction by ZEFSAII (Michael W. Deem and Ramdas Pophale) SiO2 
 PCOD9465014
Probable space group: P N M A
;
_chemical_formula_sum "Si O2"
_cell_formula_units_Z 40
_cell_length_a 19.198558
_cell_length_b 8.616666
_cell_length_c 11.008675
_cell_angle_alpha 90.000000
_cell_angle_beta 90.000000
_cell_angle_gamma 90.000000
_cell_volume 1821.138266
_symmetry_space_group_name_H-M "P N M A"
_symmetry_group_IT_number 62
_symmetry_cell_setting 'orthorhombic'
loop_
_space_group_symop_operation_xyz
x,y,z
1/2-x,-y,1/2+z
1/2+x,1/2-y,1/2-z
-x,1/2+y,-z
-x,-y,-z
1/2+x,y,1/2-z
1/2-x,1/2+y,1/2+z
x,1/2-y,z
loop_
_atom_site_type_symbol
_atom_site_label
_atom_site_fract_x
_atom_site_fract_y
_atom_site_fract_z
Si Si1 0.831216 0.566752 0.472156
Si Si2 0.462390 0.068275 0.616835
Si Si3 0.656955 0.934577 0.224080
Si Si4 0.415100 0.068331 0.252270
Si Si5 0.795039 0.568261 0.101278
O O1 0.828031 0.750000 0.450695
O O2 0.865501 0.527997 0.603582
O O3 0.874710 0.483136 0.368255
O O4 0.753564 0.497668 0.494309
O O5 0.457108 0.250000 0.596114
O O6 0.386537 0.010376 0.659975
O O7 0.500000 0.000000 0.500000
O O8 0.515139 0.029025 0.726438
O O9 0.642515 0.750000 0.207236
O O10 0.740717 0.946392 0.215832
O O11 0.430445 0.250000 0.251763
O O12 0.362544 0.027480 0.363138
O O13 0.811048 0.750000 0.084792
#
# Coordination Sequence:
#
# PCOD9465014 Si02
#       5
#     8   8   8   8   8
#     4  10  20  37  62  91 120 156 202 252 310 366
#     4  11  24  43  63  90 125 164 207 257 314 373
#     4   8  19  40  63  86 119 159 202 250 306 365
#     4  12  24  39  61  93 127 164 210 255 305 370
#     4   9  19  39  61  88 121 158 202 255 309 363
#
# _framework density 21.964285
#
# number of rings (size 3 to 8) (size 9 to 14) (size 15 to 20)
#    1.200    0.800    0.000    4.200    0.000    4.000 
#    0.000    6.000    0.000    0.000    0.000    0.000 
#    0.000    0.000    0.000    0.000    0.000    0.000 
#
# Total GULP energy -223213.346832 kJ/mol
# GULP energy per Si atom -5580.333671 kJ/mol
# Density = 2.191429 g / cm^3
# Si number density = 21.964285 Si / 1000 Ang^3
#
#
#
# Elastic Constant Matrix: (Units=GPa)
#
#
# Indices 1 2 3 4 5 6 
#
# 1 71.2847 -5.7850 8.1744 0.0000 0.0000 0.0000
# 2 -5.7850 37.0444 1.9637 0.0000 0.0000 0.0000
# 3 8.1744 1.9637 60.9356 0.0000 0.0000 0.0000
# 4 0.0000 0.0000 0.0000 33.2767 0.0000 0.0000
# 5 0.0000 0.0000 0.0000 0.0000 35.3676 0.0000
# 6 0.0000 0.0000 0.0000 0.0000 0.0000 21.3316
#
#
#
# Elastic Compliance Matrix: (Units=1/GPa)
#
#
# Indices 1 2 3 4 5 6 
#
# 1 0.014451 0.002364 -0.002015 0.000000 0.000000 0.000000
# 2 0.002364 0.027427 -0.001201 0.000000 0.000000 0.000000
# 3 -0.002015 -0.001201 0.016720 0.000000 0.000000 0.000000
# 4 0.000000 0.000000 0.000000 0.030051 0.000000 0.000000
# 5 0.000000 0.000000 0.000000 0.000000 0.028274 0.000000
# 6 0.000000 0.000000 0.000000 0.000000 0.000000 0.046879
#
#
# Mechanical properties :
#
#
# Convention : Reuss Voigt Hill
#
# Bulk Modulus (GPa) = 17.57656 19.77454 18.67555
# Shear Modulus (GPa) = 27.10445 28.98928 28.04686
#
# Velocity S-wave (km/s) = 3.51668 3.63690 3.57729
# Velocity P-wave (km/s) = 4.95066 5.16320 5.05805
#
# Compressibility (1/GPa) = 0.05689396
#
# Stress axis : x y z
#
# Youngs Moduli (GPa) = 69.19888 36.45990 59.80952
#
# Poissons Ratio (x) = -0.08617 0.12050
# Poissons Ratio (y) = -0.16355 0.07183
# Poissons Ratio (z) = 0.13942 0.04379
#
# Static dielectric constant tensor:
#      x y z
#    x 1.846020 0.000000 0.000000 
#    y 0.000000 1.723740 0.000000 
#    z 0.000000 0.000000 1.889130 
# 
# From -- ./inp_files/14616.got.cif
#   From: 2010.05.17/outbox.cif.g08.bks.cpg/sg62_8_cif.got.tgz:14616.got - 2010.06.03 15:25:27.
