data_PCOD9465766
_publ_section_title
;
Structure prediction by ZEFSAII (Michael W. Deem and Ramdas Pophale) SiO2 
 PCOD9465766
Probable space group: P N M A
;
_chemical_formula_sum "Si O2"
_cell_formula_units_Z 56
_cell_length_a 7.651707
_cell_length_b 15.189770
_cell_length_c 22.857771
_cell_angle_alpha 90.000000
_cell_angle_beta 90.000000
_cell_angle_gamma 90.000000
_cell_volume 2656.705452
_symmetry_space_group_name_H-M "P N M A"
_symmetry_group_IT_number 62
_symmetry_cell_setting 'orthorhombic'
loop_
_space_group_symop_operation_xyz
x,y,z
1/2-x,-y,1/2+z
1/2+x,1/2-y,1/2-z
-x,1/2+y,-z
-x,-y,-z
1/2+x,y,1/2-z
1/2-x,1/2+y,1/2+z
x,1/2-y,z
loop_
_atom_site_type_symbol
_atom_site_label
_atom_site_fract_x
_atom_site_fract_y
_atom_site_fract_z
Si Si1 0.061839 0.645711 0.183106
Si Si2 0.090484 0.848726 0.667395
Si Si3 0.902624 0.061842 0.566211
Si Si4 0.206944 0.940688 0.552298
Si Si5 0.989282 0.851231 0.789180
Si Si6 0.522435 0.147322 0.815515
Si Si7 0.572466 0.981800 0.611098
O O1 0.013266 0.750000 0.176468
O O2 0.270163 0.637969 0.175334
O O3 0.021369 0.616541 0.249876
O O4 0.972410 0.577472 0.138957
O O5 0.024016 0.750000 0.658434
O O6 0.105508 0.896809 0.606426
O O7 0.992422 0.888321 0.723250
O O8 0.290458 0.846755 0.689767
O O9 0.823339 0.109651 0.508826
O O10 0.925851 0.105612 0.629390
O O11 0.753363 0.988262 0.576896
O O12 0.096725 0.030997 0.547699
O O13 0.407318 0.954401 0.570678
O O14 0.057522 0.750000 0.787680
O O15 0.084648 0.912556 0.835760
O O16 0.476353 0.250000 0.815000
#
# Coordination Sequence:
#
# PCOD9465766 Si02
#       7
#     8   8   8   8   8   8   8
#     4  10  21  37  59  92 125 153 197 251 307 370
#     4   9  19  36  57  81 115 151 188 243 297 348
#     4  11  23  38  60  84 114 160 202 244 295 353
#     4  10  23  40  55  85 119 152 206 245 284 364
#     4   9  20  35  56  89 118 147 193 244 299 361
#     4  10  21  38  59  87 123 155 197 253 301 362
#     4  11  22  38  65  86 120 161 195 251 312 348
#
# _framework density 21.078738999999999
#
# number of rings (size 3 to 8) (size 9 to 14) (size 15 to 20)
#    0.000    2.000    1.429    1.286    4.000    3.429 
#    0.000    0.000    0.000    3.429    0.000    0.000 
#    0.000    0.000    0.000    0.000    0.000    0.000 
#
# Total GULP energy -312351.999538 kJ/mol
# GULP energy per Si atom -5577.714277 kJ/mol
# Density = 2.103076 g / cm^3
# Si number density = 21.078739 Si / 1000 Ang^3
#
#
#
# Elastic Constant Matrix: (Units=GPa)
#
#
# Indices 1 2 3 4 5 6 
#
# 1 70.7839 12.0497 19.0121 0.0000 0.0000 0.0000
# 2 12.0497 40.1201 12.9795 0.0000 0.0000 0.0000
# 3 19.0121 12.9795 72.4534 0.0000 0.0000 0.0000
# 4 0.0000 0.0000 0.0000 -43.2555 0.0000 0.0000
# 5 0.0000 0.0000 0.0000 0.0000 35.2005 0.0000
# 6 0.0000 0.0000 0.0000 0.0000 0.0000 30.7616
#
#
#
# Elastic Compliance Matrix: (Units=1/GPa)
#
#
# Indices 1 2 3 4 5 6 
#
# 1 0.015670 -0.003584 -0.003470 0.000000 0.000000 0.000000
# 2 -0.003584 0.027278 -0.003946 0.000000 0.000000 0.000000
# 3 -0.003470 -0.003946 0.015419 0.000000 0.000000 0.000000
# 4 0.000000 0.000000 0.000000 -0.023118 0.000000 0.000000
# 5 0.000000 0.000000 0.000000 0.000000 0.028409 0.000000
# 6 0.000000 0.000000 0.000000 0.000000 0.000000 0.032508
#
#
# Mechanical properties :
#
#
# Convention : Reuss Voigt Hill
#
# Bulk Modulus (GPa) = 27.49701 30.16000 28.82850
# Shear Modulus (GPa) = 38.37668 13.82905 26.10286
#
# Velocity S-wave (km/s) = 4.27152 2.56416 3.52284
# Velocity P-wave (km/s) = 6.11564 4.80686 5.50031
#
# Compressibility (1/GPa) = 0.03636759
#
# Stress axis : x y z
#
# Youngs Moduli (GPa) = 63.81820 36.65936 64.85329
#
# Poissons Ratio (x) = 0.13137 0.22503
# Poissons Ratio (y) = 0.22870 0.25593
# Poissons Ratio (z) = 0.22143 0.14467
#
# Static dielectric constant tensor:
#      x y z
#    x 1.766070 0.000000 0.000000 
#    y 0.000000 1.797320 0.000000 
#    z 0.000000 0.000000 1.826660 
# 
# From -- ./inp_files/26002.got.cif
#   From: 2010.05.17/outbox.cif.g08.bks.cpg/sg62_14_cif.got.tgz:26002.got - 2010.06.03 15:25:27.
