data_PCOD9465501
_publ_section_title
;
Structure prediction by ZEFSAII (Michael W. Deem and Ramdas Pophale) SiO2 
 PCOD9465501
Probable space group: P N M A
;
_chemical_formula_sum "Si O2"
_cell_formula_units_Z 64
_cell_length_a 14.586552
_cell_length_b 20.748600
_cell_length_c 9.592418
_cell_angle_alpha 90.000000
_cell_angle_beta 90.000000
_cell_angle_gamma 90.000000
_cell_volume 2903.150419
_symmetry_space_group_name_H-M "P N M A"
_symmetry_group_IT_number 62
_symmetry_cell_setting 'orthorhombic'
loop_
_space_group_symop_operation_xyz
x,y,z
1/2-x,-y,1/2+z
1/2+x,1/2-y,1/2-z
-x,1/2+y,-z
-x,-y,-z
1/2+x,y,1/2-z
1/2-x,1/2+y,1/2+z
x,1/2-y,z
loop_
_atom_site_type_symbol
_atom_site_label
_atom_site_fract_x
_atom_site_fract_y
_atom_site_fract_z
Si Si1 0.521780 0.038747 0.638951
Si Si2 0.746252 0.176969 0.950961
Si Si3 0.022583 0.679758 0.724404
Si Si4 0.486689 0.048782 0.123508
Si Si5 0.532584 0.678133 0.449000
Si Si6 0.774000 0.941647 0.251055
Si Si7 0.246084 0.822414 0.726324
Si Si8 0.775177 0.058227 0.439546
O O1 0.495591 0.113580 0.630921
O O2 0.627797 0.039061 0.685159
O O3 0.500000 0.000000 0.500000
O O4 0.474407 0.992864 0.750922
O O5 0.712880 0.250000 0.923941
O O6 0.857094 0.178815 0.943024
O O7 0.715532 0.124492 0.837879
O O8 0.728784 0.160796 0.113939
O O9 0.989620 0.750000 0.679567
O O10 0.980456 0.622050 0.634363
O O11 0.134302 0.681433 0.718551
O O12 0.003672 0.670137 0.888846
O O13 0.377472 0.059346 0.122205
O O14 0.500000 0.000000 0.000000
O O15 0.501126 0.750000 0.402701
O O16 0.738237 0.993153 0.366119
O O17 0.717354 0.939218 0.106824
O O18 0.279675 0.750000 0.693962
O O19 0.274927 0.878318 0.619918
#
# Coordination Sequence:
#
# PCOD9465501 Si02
#       8
#     8   8   8   8   8   8   8   8
#     4  11  23  38  59  86 116 157 201 244 298 357
#     4   9  19  36  62  88 115 153 193 240 299 359
#     4   8  14  30  55  81 109 146 192 237 278 343
#     4  10  21  35  53  85 118 150 192 244 304 354
#     4   9  18  35  62  88 110 149 199 240 288 363
#     4  11  24  37  56  86 119 157 195 251 297 352
#     4   8  15  32  58  84 112 147 189 235 286 350
#     4  10  22  36  54  84 117 154 194 243 294 353
#
# _framework density 22.045017999999999
#
# number of rings (size 3 to 8) (size 9 to 14) (size 15 to 20)
#    0.000    2.500    1.250    2.250    5.250    1.000 
#    0.000    0.625    0.000    0.750    0.000    0.000 
#    0.000    0.000    0.000    0.000    0.000    0.000 
#
# Total GULP energy -356644.577234 kJ/mol
# GULP energy per Si atom -5572.571519 kJ/mol
# Density = 2.199484 g / cm^3
# Si number density = 22.045018 Si / 1000 Ang^3
#
#
#
# Elastic Constant Matrix: (Units=GPa)
#
#
# Indices 1 2 3 4 5 6 
#
# 1 38.0024 9.4436 -19.6146 0.0000 0.0000 0.0000
# 2 9.4436 202.5196 88.1737 0.0000 0.0000 0.0000
# 3 -19.6146 88.1737 115.4153 0.0000 0.0000 0.0000
# 4 0.0000 0.0000 0.0000 39.4354 0.0000 0.0000
# 5 0.0000 0.0000 0.0000 0.0000 15.3835 0.0000
# 6 0.0000 0.0000 0.0000 0.0000 0.0000 19.7204
#
#
#
# Elastic Compliance Matrix: (Units=1/GPa)
#
#
# Indices 1 2 3 4 5 6 
#
# 1 0.033054 -0.005974 0.010182 0.000000 0.000000 0.000000
# 2 -0.005974 0.008479 -0.007493 0.000000 0.000000 0.000000
# 3 0.010182 -0.007493 0.016119 0.000000 0.000000 0.000000
# 4 0.000000 0.000000 0.000000 0.025358 0.000000 0.000000
# 5 0.000000 0.000000 0.000000 0.000000 0.065005 0.000000
# 6 0.000000 0.000000 0.000000 0.000000 0.000000 0.050709
#
#
# Mechanical properties :
#
#
# Convention : Reuss Voigt Hill
#
# Bulk Modulus (GPa) = 19.57693 56.88254 38.22973
# Shear Modulus (GPa) = 22.49007 33.43682 27.96345
#
# Velocity S-wave (km/s) = 3.19750 3.89878 3.56542
# Velocity P-wave (km/s) = 4.74676 6.79163 5.85909
#
# Compressibility (1/GPa) = 0.05108054
#
# Stress axis : x y z
#
# Youngs Moduli (GPa) = 30.25371 117.94467 62.03922
#
# Poissons Ratio (x) = 0.70462 -0.63165
# Poissons Ratio (y) = 0.18074 0.46484
# Poissons Ratio (z) = -0.30803 0.88372
#
# Static dielectric constant tensor:
#      x y z
#    x 1.884860 0.000000 0.000000 
#    y 0.000000 1.826990 0.000000 
#    z 0.000000 0.000000 1.780700 
# 
# From -- ./inp_files/8129.got.cif
#   From: 2010.05.17/outbox.cif.g08.bks.cpg/sg62_5_cif.got.tgz:8129.got - 2010.06.03 15:25:27.
