data_PCOD9465128
_publ_section_title
;
Structure prediction by ZEFSAII (Michael W. Deem and Ramdas Pophale) SiO2 
 PCOD9465128
Probable space group: P N M A
;
_chemical_formula_sum "Si O2"
_cell_formula_units_Z 64
_cell_length_a 12.651470
_cell_length_b 11.021557
_cell_length_c 23.549051
_cell_angle_alpha 90.000000
_cell_angle_beta 90.000000
_cell_angle_gamma 90.000000
_cell_volume 3283.653714
_symmetry_space_group_name_H-M "P N M A"
_symmetry_group_IT_number 62
_symmetry_cell_setting 'orthorhombic'
loop_
_space_group_symop_operation_xyz
x,y,z
1/2-x,-y,1/2+z
1/2+x,1/2-y,1/2-z
-x,1/2+y,-z
-x,-y,-z
1/2+x,y,1/2-z
1/2-x,1/2+y,1/2+z
x,1/2-y,z
loop_
_atom_site_type_symbol
_atom_site_label
_atom_site_fract_x
_atom_site_fract_y
_atom_site_fract_z
Si Si1 0.020139 0.391786 0.378148
Si Si2 0.936550 0.110317 0.250133
Si Si3 0.437281 0.119012 0.551129
Si Si4 0.168715 0.428718 0.984380
Si Si5 0.390776 0.999539 0.667644
Si Si6 0.766702 0.887773 0.246770
Si Si7 0.679820 0.612443 0.118841
Si Si8 0.294796 0.383450 0.096059
O O1 0.046509 0.250000 0.394212
O O2 0.995044 0.391696 0.310879
O O3 0.910979 0.438437 0.406985
O O4 0.105249 0.496011 0.389808
O O5 0.896023 0.250000 0.241440
O O6 0.849896 0.000573 0.251499
O O7 0.024520 0.078880 0.202487
O O8 0.399795 0.250000 0.568269
O O9 0.550303 0.121653 0.520632
O O10 0.446884 0.048263 0.610510
O O11 0.354732 0.063907 0.506605
O O12 0.225846 0.405174 0.925843
O O13 0.239380 0.378652 0.035327
O O14 0.333545 0.091344 0.711371
O O15 0.288758 0.935307 0.640059
O O16 0.810400 0.750000 0.256918
O O17 0.724043 0.891329 0.182603
O O18 0.634939 0.750000 0.110074
O O19 0.319160 0.250000 0.117825
#
# Coordination Sequence:
#
# PCOD9465128 Si02
#       8
#     8   8   8   8   8   8   8   8
#     4  10  22  39  59  87 120 160 206 258 308 368
#     4  11  23  39  61  91 127 164 207 257 313 379
#     4  10  21  39  63  92 125 157 205 266 319 376
#     4  10  22  39  62  88 120 162 208 255 314 373
#     4  11  21  38  62  91 121 162 206 250 317 377
#     4  11  24  39  60  89 125 165 206 255 314 378
#     4  11  23  41  61  89 126 169 212 258 313 374
#     4  10  20  38  62  86 116 156 202 252 307 364
#
# _framework density 19.490485
#
# number of rings (size 3 to 8) (size 9 to 14) (size 15 to 20)
#    0.000    1.500    2.500    2.625    0.000    4.500 
#    0.000    5.000    0.000    0.000    0.000    0.000 
#    0.000    0.000    0.000    0.000    0.000    0.000 
#
# Total GULP energy -356331.430144 kJ/mol
# GULP energy per Si atom -5567.678596 kJ/mol
# Density = 1.944612 g / cm^3
# Si number density = 19.490485 Si / 1000 Ang^3
#
#
#
# Elastic Constant Matrix: (Units=GPa)
#
#
# Indices 1 2 3 4 5 6 
#
# 1 40.2653 36.9911 -11.3661 0.0000 0.0000 0.0000
# 2 36.9911 98.0158 -12.1805 0.0000 0.0000 0.0000
# 3 -11.3661 -12.1805 53.0562 0.0000 0.0000 0.0000
# 4 0.0000 0.0000 0.0000 16.1111 0.0000 0.0000
# 5 0.0000 0.0000 0.0000 0.0000 24.2702 0.0000
# 6 0.0000 0.0000 0.0000 0.0000 0.0000 28.5056
#
#
#
# Elastic Compliance Matrix: (Units=1/GPa)
#
#
# Indices 1 2 3 4 5 6 
#
# 1 0.039345 -0.014207 0.005167 0.000000 0.000000 0.000000
# 2 -0.014207 0.015632 0.000545 0.000000 0.000000 0.000000
# 3 0.005167 0.000545 0.020080 0.000000 0.000000 0.000000
# 4 0.000000 0.000000 0.000000 0.062069 0.000000 0.000000
# 5 0.000000 0.000000 0.000000 0.000000 0.041203 0.000000
# 6 0.000000 0.000000 0.000000 0.000000 0.000000 0.035081
#
#
# Mechanical properties :
#
#
# Convention : Reuss Voigt Hill
#
# Bulk Modulus (GPa) = 17.22096 24.24738 20.73417
# Shear Modulus (GPa) = 20.01963 25.63688 22.82825
#
# Velocity S-wave (km/s) = 3.20839 3.63071 3.42607
# Velocity P-wave (km/s) = 4.75182 5.48122 5.12950
#
# Compressibility (1/GPa) = 0.05806878
#
# Stress axis : x y z
#
# Youngs Moduli (GPa) = 25.41595 63.97210 49.80060
#
# Poissons Ratio (x) = 0.90884 -0.25733
# Poissons Ratio (y) = 0.36108 -0.02715
# Poissons Ratio (z) = -0.13133 -0.03488
#
# Static dielectric constant tensor:
#      x y z
#    x 1.724060 0.000000 0.000000 
#    y 0.000000 1.785140 0.000000 
#    z 0.000000 0.000000 1.663900 
# 
# From -- ./inp_files/29452.got.cif
#   From: 2010.05.17/outbox.cif.g08.bks.cpg/sg62_15_cif.got.tgz:29452.got - 2010.06.03 15:25:27.
