data_PCOD9465165
_publ_section_title
;
Structure prediction by ZEFSAII (Michael W. Deem and Ramdas Pophale) SiO2 
 PCOD9465165
Probable space group: P N M A
;
_chemical_formula_sum "Si O2"
_cell_formula_units_Z 64
_cell_length_a 12.776778
_cell_length_b 16.799476
_cell_length_c 14.478881
_cell_angle_alpha 90.000000
_cell_angle_beta 90.000000
_cell_angle_gamma 90.000000
_cell_volume 3107.792994
_symmetry_space_group_name_H-M "P N M A"
_symmetry_group_IT_number 62
_symmetry_cell_setting 'orthorhombic'
loop_
_space_group_symop_operation_xyz
x,y,z
1/2-x,-y,1/2+z
1/2+x,1/2-y,1/2-z
-x,1/2+y,-z
-x,-y,-z
1/2+x,y,1/2-z
1/2-x,1/2+y,1/2+z
x,1/2-y,z
loop_
_atom_site_type_symbol
_atom_site_label
_atom_site_fract_x
_atom_site_fract_y
_atom_site_fract_z
Si Si1 0.883343 0.904620 0.618810
Si Si2 0.755274 0.841053 0.910320
Si Si3 0.650874 0.918014 0.182360
Si Si4 0.653627 0.161422 0.614615
Si Si5 0.452052 0.155047 0.992234
Si Si6 0.050438 0.155796 0.195501
Si Si7 0.906111 0.156140 0.873078
Si Si8 0.651356 0.653700 0.581208
O O1 0.948168 0.855728 0.695482
O O2 0.763783 0.876171 0.613966
O O3 0.942836 0.889126 0.522732
O O4 0.883611 0.994766 0.652634
O O5 0.733607 0.750000 0.878770
O O6 0.838061 0.879128 0.840166
O O7 0.819420 0.838012 0.006169
O O8 0.643194 0.874718 0.940971
O O9 0.772758 0.903321 0.160614
O O10 0.586758 0.861049 0.111796
O O11 0.633111 0.895227 0.287783
O O12 0.682382 0.250000 0.650349
O O13 0.531556 0.149894 0.626491
O O14 0.464244 0.250000 0.003591
O O15 0.054540 0.250000 0.173915
O O16 0.947088 0.125123 0.143357
O O17 0.879299 0.250000 0.860194
O O18 0.866300 0.131170 0.974206
O O19 0.652099 0.750000 0.585668
#
# Coordination Sequence:
#
# PCOD9465165 Si02
#       8
#     8   8   8   8   8   8   8   8
#     4  12  26  40  56  95 138 172 200 253 322 389
#     4   8  15  32  60  87 108 144 203 264 302 345
#     4  11  24  41  59  93 131 172 205 248 322 396
#     4   9  17  36  63  90 115 151 211 265 308 364
#     4  10  21  41  67  88 116 164 219 262 301 359
#     4  10  20  38  63  89 119 162 216 263 307 367
#     4  10  20  40  69  94 119 157 216 278 314 358
#     4  10  22  42  67  94 123 160 214 271 317 364
#
# _framework density 20.593392000000001
#
# number of rings (size 3 to 8) (size 9 to 14) (size 15 to 20)
#    0.000    2.000    1.250    3.375    1.750    2.000 
#    4.500    2.500    0.000    0.000    0.000    0.000 
#    0.000    0.000    0.000    0.000    0.000    0.000 
#
# Total GULP energy -357195.396718 kJ/mol
# GULP energy per Si atom -5581.178074 kJ/mol
# Density = 2.054652 g / cm^3
# Si number density = 20.593392 Si / 1000 Ang^3
#
#
#
# Elastic Constant Matrix: (Units=GPa)
#
#
# Indices 1 2 3 4 5 6 
#
# 1 62.6978 14.0530 45.3998 0.0000 0.0000 0.0000
# 2 14.0530 34.1077 26.5033 0.0000 0.0000 0.0000
# 3 45.3998 26.5033 82.2008 0.0000 0.0000 0.0000
# 4 0.0000 0.0000 0.0000 5.6468 0.0000 0.0000
# 5 0.0000 0.0000 0.0000 0.0000 25.0417 0.0000
# 6 0.0000 0.0000 0.0000 0.0000 0.0000 1.0294
#
#
#
# Elastic Compliance Matrix: (Units=1/GPa)
#
#
# Indices 1 2 3 4 5 6 
#
# 1 0.026589 0.000608 -0.014881 0.000000 0.000000 0.000000
# 2 0.000608 0.039134 -0.012954 0.000000 0.000000 0.000000
# 3 -0.014881 -0.012954 0.024561 0.000000 0.000000 0.000000
# 4 0.000000 0.000000 0.000000 0.177090 0.000000 0.000000
# 5 0.000000 0.000000 0.000000 0.000000 0.039933 0.000000
# 6 0.000000 0.000000 0.000000 0.000000 0.000000 0.971485
#
#
# Mechanical properties :
#
#
# Convention : Reuss Voigt Hill
#
# Bulk Modulus (GPa) = 27.90922 38.99096 33.45009
# Shear Modulus (GPa) = 3.71695 12.54693 8.13194
#
# Velocity S-wave (km/s) = 1.34493 2.47102 1.98932
# Velocity P-wave (km/s) = 3.99922 5.20731 4.64272
#
# Compressibility (1/GPa) = 0.03583046
#
# Stress axis : x y z
#
# Youngs Moduli (GPa) = 37.60998 25.55335 40.71535
#
# Poissons Ratio (x) = -0.01555 0.60589
# Poissons Ratio (y) = -0.02288 0.52741
# Poissons Ratio (z) = 0.55968 0.33101
#
# Static dielectric constant tensor:
#      x y z
#    x 1.744730 0.000000 0.000000 
#    y 0.000000 1.740790 0.000000 
#    z 0.000000 0.000000 1.743630 
# 
# From -- ./inp_files/18247.got.cif
#   From: 2010.05.17/outbox.cif.g08.bks.cpg/sg62_10_cif.got.tgz:18247.got - 2010.06.03 15:25:27.
