data_PCOD9465758
_publ_section_title
;
Structure prediction by ZEFSAII (Michael W. Deem and Ramdas Pophale) SiO2 
 PCOD9465758
Probable space group: P N M A
;
_chemical_formula_sum "Si O2"
_cell_formula_units_Z 40
_cell_length_a 11.116079
_cell_length_b 18.021539
_cell_length_c 9.150056
_cell_angle_alpha 90.000000
_cell_angle_beta 90.000000
_cell_angle_gamma 90.000000
_cell_volume 1833.020207
_symmetry_space_group_name_H-M "P N M A"
_symmetry_group_IT_number 62
_symmetry_cell_setting 'orthorhombic'
loop_
_space_group_symop_operation_xyz
x,y,z
1/2-x,-y,1/2+z
1/2+x,1/2-y,1/2-z
-x,1/2+y,-z
-x,-y,-z
1/2+x,y,1/2-z
1/2-x,1/2+y,1/2+z
x,1/2-y,z
loop_
_atom_site_type_symbol
_atom_site_label
_atom_site_fract_x
_atom_site_fract_y
_atom_site_fract_z
Si Si1 0.146151 0.335389 0.478442
Si Si2 0.938756 0.161228 0.715546
Si Si3 0.514719 0.063042 0.209250
Si Si4 0.684107 0.950245 0.036901
Si Si5 0.381328 0.435186 0.509555
O O1 0.174571 0.250000 0.482077
O O2 0.267782 0.380920 0.483653
O O3 0.056689 0.352156 0.614482
O O4 0.071854 0.358446 0.335023
O O5 0.928283 0.250000 0.743553
O O6 0.826786 0.128940 0.618606
O O7 0.944640 0.107950 0.856411
O O8 0.469239 0.058920 0.372445
O O9 0.614514 0.004918 0.150866
O O10 0.398600 0.051348 0.106611
O O11 0.809528 0.986010 0.989844
#
# Coordination Sequence:
#
# PCOD9465758 Si02
#       5
#     8   8   8   8   8
#     4   9  20  38  55  79 121 162 196 245 307 364
#     4  10  21  37  59  88 124 163 202 249 308 369
#     4   9  19  35  58  85 113 148 195 246 293 352
#     4   9  19  37  57  84 119 155 193 240 301 363
#     4  11  20  35  62  88 113 154 204 249 296 353
#
# _framework density 21.821909999999999
#
# number of rings (size 3 to 8) (size 9 to 14) (size 15 to 20)
#    0.000    2.400    0.000    3.000    0.000    2.400 
#    0.000    8.000    0.000    0.000    0.000    0.000 
#    0.000    0.000    0.000    0.000    0.000    0.000 
#
# Total GULP energy -223241.173270 kJ/mol
# GULP energy per Si atom -5581.029332 kJ/mol
# Density = 2.177224 g / cm^3
# Si number density = 21.821910 Si / 1000 Ang^3
#
#
#
# Elastic Constant Matrix: (Units=GPa)
#
#
# Indices 1 2 3 4 5 6 
#
# 1 101.7564 45.9316 32.6708 0.0000 0.0000 0.0000
# 2 45.9316 89.1306 35.5071 0.0000 0.0000 0.0000
# 3 32.6708 35.5071 71.2269 0.0000 0.0000 0.0000
# 4 0.0000 0.0000 0.0000 24.6373 0.0000 0.0000
# 5 0.0000 0.0000 0.0000 0.0000 16.4525 0.0000
# 6 0.0000 0.0000 0.0000 0.0000 0.0000 24.5129
#
#
#
# Elastic Compliance Matrix: (Units=1/GPa)
#
#
# Indices 1 2 3 4 5 6 
#
# 1 0.013429 -0.005573 -0.003381 0.000000 0.000000 0.000000
# 2 -0.005573 0.016313 -0.005576 0.000000 0.000000 0.000000
# 3 -0.003381 -0.005576 0.018370 0.000000 0.000000 0.000000
# 4 0.000000 0.000000 0.000000 0.040589 0.000000 0.000000
# 5 0.000000 0.000000 0.000000 0.000000 0.060781 0.000000
# 6 0.000000 0.000000 0.000000 0.000000 0.000000 0.040795
#
#
# Mechanical properties :
#
#
# Convention : Reuss Voigt Hill
#
# Bulk Modulus (GPa) = 52.49005 54.48145 53.48575
# Shear Modulus (GPa) = 22.15459 22.98749 22.57104
#
# Velocity S-wave (km/s) = 3.18975 3.24915 3.21959
# Velocity P-wave (km/s) = 6.13776 6.25273 6.19551
#
# Compressibility (1/GPa) = 0.01905123
#
# Stress axis : x y z
#
# Youngs Moduli (GPa) = 74.46742 61.30189 54.43626
#
# Poissons Ratio (x) = 0.34165 0.18406
# Poissons Ratio (y) = 0.41502 0.30352
# Poissons Ratio (z) = 0.25180 0.34180
#
# Static dielectric constant tensor:
#      x y z
#    x 1.784170 0.000000 0.000000 
#    y 0.000000 1.836030 0.000000 
#    z 0.000000 0.000000 1.849640 
# 
# From -- ./inp_files/5174.got.cif
#   From: 2010.05.17/outbox.cif.g08.bks.cpg/sg62_3_cif.got.tgz:5174.got - 2010.06.03 15:25:27.
