data_PCOD9465741
_publ_section_title
;
Structure prediction by ZEFSAII (Michael W. Deem and Ramdas Pophale) SiO2 
 PCOD9465741
Probable space group: P N M A
;
_chemical_formula_sum "Si O2"
_cell_formula_units_Z 48
_cell_length_a 23.072530
_cell_length_b 14.786989
_cell_length_c 5.266466
_cell_angle_alpha 90.000000
_cell_angle_beta 90.000000
_cell_angle_gamma 90.000000
_cell_volume 1796.777307
_symmetry_space_group_name_H-M "P N M A"
_symmetry_group_IT_number 62
_symmetry_cell_setting 'orthorhombic'
loop_
_space_group_symop_operation_xyz
x,y,z
1/2-x,-y,1/2+z
1/2+x,1/2-y,1/2-z
-x,1/2+y,-z
-x,-y,-z
1/2+x,y,1/2-z
1/2-x,1/2+y,1/2+z
x,1/2-y,z
loop_
_atom_site_type_symbol
_atom_site_label
_atom_site_fract_x
_atom_site_fract_y
_atom_site_fract_z
Si Si1 0.899261 0.646340 0.738882
Si Si2 0.025107 0.849550 0.962966
Si Si3 0.724464 0.642037 0.527918
Si Si4 0.119171 0.849187 0.328511
Si Si5 0.286399 0.639651 0.472762
Si Si6 0.934858 0.000100 0.380319
O O1 0.885225 0.750000 0.679276
O O2 0.847318 0.608114 0.910231
O O3 0.911479 0.596052 0.474662
O O4 0.957333 0.644187 0.909792
O O5 0.042497 0.750000 0.844746
O O6 0.051690 0.944800 0.874368
O O7 0.052033 0.841619 0.240461
O O8 0.733300 0.750000 0.539637
O O9 0.660582 0.631424 0.410524
O O10 0.740127 0.611726 0.810324
O O11 0.767301 0.607423 0.305019
O O12 0.137997 0.750000 0.427518
O O13 0.114527 0.933423 0.507952
O O14 0.288464 0.750000 0.457106
O O15 0.000000 0.000000 0.500000
#
# Coordination Sequence:
#
# PCOD9465741 Si02
#       6
#     8   8   8   8   8   8
#     4   9  19  38  59  85 123 167 215 261 315 382
#     4   9  19  37  61  91 125 161 205 260 324 388
#     4   9  19  35  62  90 123 164 211 267 323 381
#     4  10  21  37  61  93 123 161 208 263 326 388
#     4   9  18  37  59  89 123 166 217 263 319 381
#     4  10  21  37  58  88 122 161 204 257 316 377
#
# _framework density 26.714494999999999
#
# number of rings (size 3 to 8) (size 9 to 14) (size 15 to 20)
#    0.000    2.667    0.000    0.500    2.333    3.333 
#    9.000    1.667    0.000    0.000    0.000    0.000 
#    0.000    0.000    0.000    0.000    0.000    0.000 
#
# Total GULP energy -267894.564101 kJ/mol
# GULP energy per Si atom -5581.136752 kJ/mol
# Density = 2.665369 g / cm^3
# Si number density = 26.714495 Si / 1000 Ang^3
#
#
#
# Elastic Constant Matrix: (Units=GPa)
#
#
# Indices 1 2 3 4 5 6 
#
# 1 99.7485 26.7814 12.9403 0.0000 0.0000 0.0000
# 2 26.7814 105.0520 7.9814 0.0000 0.0000 0.0000
# 3 12.9403 7.9814 53.5000 0.0000 0.0000 0.0000
# 4 0.0000 0.0000 0.0000 19.5545 0.0000 0.0000
# 5 0.0000 0.0000 0.0000 0.0000 48.0662 0.0000
# 6 0.0000 0.0000 0.0000 0.0000 0.0000 10.5331
#
#
#
# Elastic Compliance Matrix: (Units=1/GPa)
#
#
# Indices 1 2 3 4 5 6 
#
# 1 0.011029 -0.002639 -0.002274 0.000000 0.000000 0.000000
# 2 -0.002639 0.010260 -0.000892 0.000000 0.000000 0.000000
# 3 -0.002274 -0.000892 0.019375 0.000000 0.000000 0.000000
# 4 0.000000 0.000000 0.000000 0.051139 0.000000 0.000000
# 5 0.000000 0.000000 0.000000 0.000000 0.020805 0.000000
# 6 0.000000 0.000000 0.000000 0.000000 0.000000 0.094939
#
#
# Mechanical properties :
#
#
# Convention : Reuss Voigt Hill
#
# Bulk Modulus (GPa) = 34.41990 39.30074 36.86032
# Shear Modulus (GPa) = 21.84936 29.67061 25.75998
#
# Velocity S-wave (km/s) = 2.86297 3.33627 3.10864
# Velocity P-wave (km/s) = 4.88274 5.43914 5.16843
#
# Compressibility (1/GPa) = 0.02905296
#
# Stress axis : x y z
#
# Youngs Moduli (GPa) = 90.67254 97.46953 51.61365
#
# Poissons Ratio (x) = 0.25721 0.11736
# Poissons Ratio (y) = 0.23927 0.04606
# Poissons Ratio (z) = 0.20618 0.08697
#
# Static dielectric constant tensor:
#      x y z
#    x 2.085400 0.000000 0.000000 
#    y 0.000000 2.205990 0.000000 
#    z 0.000000 0.000000 2.195130 
# 
# From -- ./inp_files/2747.got.cif
#   From: 2010.05.17/outbox.cif.g08.bks.cpg/sg62_2_cif.got.tgz:2747.got - 2010.06.03 15:25:27.
