data_PCOD9465189
_publ_section_title
;
Structure prediction by ZEFSAII (Michael W. Deem and Ramdas Pophale) SiO2 
 PCOD9465189
Probable space group: P N M A
;
_chemical_formula_sum "Si O2"
_cell_formula_units_Z 64
_cell_length_a 27.829487
_cell_length_b 12.773076
_cell_length_c 9.315184
_cell_angle_alpha 90.000000
_cell_angle_beta 90.000000
_cell_angle_gamma 90.000000
_cell_volume 3311.251247
_symmetry_space_group_name_H-M "P N M A"
_symmetry_group_IT_number 62
_symmetry_cell_setting 'orthorhombic'
loop_
_space_group_symop_operation_xyz
x,y,z
1/2-x,-y,1/2+z
1/2+x,1/2-y,1/2-z
-x,1/2+y,-z
-x,-y,-z
1/2+x,y,1/2-z
1/2-x,1/2+y,1/2+z
x,1/2-y,z
loop_
_atom_site_type_symbol
_atom_site_label
_atom_site_fract_x
_atom_site_fract_y
_atom_site_fract_z
Si Si1 0.206468 0.520376 0.910498
Si Si2 0.504014 0.369612 0.174634
Si Si3 0.366763 0.132138 0.945329
Si Si4 0.934896 0.537113 0.426082
Si Si5 0.948250 0.959798 0.945329
Si Si6 0.378038 0.868178 0.320153
Si Si7 0.366761 0.130492 0.615993
Si Si8 0.268838 0.372835 0.119043
O O1 0.176402 0.599062 0.011150
O O2 0.238897 0.447035 0.011983
O O3 0.166037 0.446003 0.841573
O O4 0.232442 0.580958 0.780416
O O5 0.487143 0.250000 0.181560
O O6 0.462687 0.457678 0.180800
O O7 0.540762 0.392648 0.303223
O O8 0.529378 0.395170 0.023016
O O9 0.387634 0.250000 0.958743
O O10 0.349775 0.121328 0.781109
O O11 0.323334 0.123881 0.057832
O O12 0.404932 0.042075 0.975049
O O13 0.900831 0.610666 0.334568
O O14 0.912383 0.055357 0.908175
O O15 0.919461 0.893605 0.063718
O O16 0.000000 0.000000 0.000000
O O17 0.361657 0.750000 0.337064
O O18 0.381294 0.250000 0.589809
O O19 0.253836 0.250000 0.115837
#
# Coordination Sequence:
#
# PCOD9465189 Si02
#       8
#     8   8   8   8   8   8   8   8
#     4  11  23  42  66  92 131 157 205 254 306 373
#     4  11  23  38  60  86 121 162 206 252 300 354
#     4  10  20  38  64  90 120 158 199 252 307 359
#     4  11  21  40  59  88 122 157 209 247 301 361
#     4  11  22  40  56  87 121 161 207 255 297 357
#     4  11  23  40  62  87 122 164 201 250 310 365
#     4  10  22  40  64  88 120 162 207 253 305 359
#     4  11  23  41  68  97 125 161 202 251 313 373
#
# _framework density 19.328042
#
# number of rings (size 3 to 8) (size 9 to 14) (size 15 to 20)
#    0.000    1.250    3.750    2.625    0.000    1.000 
#    0.000    1.875    0.000    0.000    0.000    0.000 
#    0.000    0.000    0.000    0.000    0.000    0.000 
#
# Total GULP energy -357410.498919 kJ/mol
# GULP energy per Si atom -5584.539046 kJ/mol
# Density = 1.928405 g / cm^3
# Si number density = 19.328042 Si / 1000 Ang^3
#
#
#
# Elastic Constant Matrix: (Units=GPa)
#
#
# Indices 1 2 3 4 5 6 
#
# 1 31.9721 2.0862 7.2836 0.0000 0.0000 0.0000
# 2 2.0862 77.0271 32.9726 0.0000 0.0000 0.0000
# 3 7.2836 32.9726 86.4964 0.0000 0.0000 0.0000
# 4 0.0000 0.0000 0.0000 25.1551 0.0000 0.0000
# 5 0.0000 0.0000 0.0000 0.0000 33.4622 0.0000
# 6 0.0000 0.0000 0.0000 0.0000 0.0000 10.3595
#
#
#
# Elastic Compliance Matrix: (Units=1/GPa)
#
#
# Indices 1 2 3 4 5 6 
#
# 1 0.031897 0.000342 -0.002816 0.000000 0.000000 0.000000
# 2 0.000342 0.015518 -0.005944 0.000000 0.000000 0.000000
# 3 -0.002816 -0.005944 0.014064 0.000000 0.000000 0.000000
# 4 0.000000 0.000000 0.000000 0.039753 0.000000 0.000000
# 5 0.000000 0.000000 0.000000 0.000000 0.029884 0.000000
# 6 0.000000 0.000000 0.000000 0.000000 0.000000 0.096530
#
#
# Mechanical properties :
#
#
# Convention : Reuss Voigt Hill
#
# Bulk Modulus (GPa) = 22.40087 31.13116 26.76601
# Shear Modulus (GPa) = 19.27796 24.00558 21.64177
#
# Velocity S-wave (km/s) = 3.16160 3.52804 3.34983
# Velocity P-wave (km/s) = 4.99426 5.72169 5.37031
#
# Compressibility (1/GPa) = 0.04464113
#
# Stress axis : x y z
#
# Youngs Moduli (GPa) = 31.35134 64.44267 71.10238
#
# Poissons Ratio (x) = -0.02201 0.20023
# Poissons Ratio (y) = -0.01071 0.42264
# Poissons Ratio (z) = 0.08829 0.38306
#
# Static dielectric constant tensor:
#      x y z
#    x 1.655570 0.000000 0.000000 
#    y 0.000000 1.650780 0.000000 
#    z 0.000000 0.000000 1.681620 
# 
# From -- ./inp_files/10473.got.cif
#   From: 2010.05.17/outbox.cif.g08.bks.cpg/sg62_6_cif.got.tgz:10473.got - 2010.06.03 15:25:27.
