data_PCOD9465971
_publ_section_title
;
Structure prediction by ZEFSAII (Michael W. Deem and Ramdas Pophale) SiO2 
 PCOD9465971
Probable space group: P N M A
;
_chemical_formula_sum "Si O2"
_cell_formula_units_Z 48
_cell_length_a 13.328188
_cell_length_b 10.124359
_cell_length_c 15.017219
_cell_angle_alpha 90.000000
_cell_angle_beta 90.000000
_cell_angle_gamma 90.000000
_cell_volume 2026.413923
_symmetry_space_group_name_H-M "P N M A"
_symmetry_group_IT_number 62
_symmetry_cell_setting 'orthorhombic'
loop_
_space_group_symop_operation_xyz
x,y,z
1/2-x,-y,1/2+z
1/2+x,1/2-y,1/2-z
-x,1/2+y,-z
-x,-y,-z
1/2+x,y,1/2-z
1/2-x,1/2+y,1/2+z
x,1/2-y,z
loop_
_atom_site_type_symbol
_atom_site_label
_atom_site_fract_x
_atom_site_fract_y
_atom_site_fract_z
Si Si1 0.998672 0.605553 0.228327
Si Si2 0.760195 0.964250 0.562039
Si Si3 0.024308 0.041269 0.398856
Si Si4 0.761991 0.608788 0.233274
Si Si5 0.205561 0.901052 0.627152
Si Si6 0.031016 0.599195 0.921449
O O1 0.026063 0.750000 0.190237
O O2 0.042403 0.573663 0.325485
O O3 0.880819 0.615305 0.244615
O O4 0.240413 0.480114 0.207372
O O5 0.754346 0.087467 0.629337
O O6 0.769383 0.015984 0.461571
O O7 0.653078 0.896027 0.578271
O O8 0.865090 0.894631 0.589877
O O9 0.917767 0.102888 0.366632
O O10 0.000000 0.000000 0.500000
O O11 0.722078 0.750000 0.264577
O O12 0.239256 0.750000 0.622023
O O13 0.490431 0.978948 0.664879
O O14 0.994414 0.750000 0.929433
O O15 0.000000 0.500000 0.000000
#
# Coordination Sequence:
#
# PCOD9465971 Si02
#       6
#     8   8   8   8   8   8
#     4   9  19  38  63  91 124 163 208 259 316 378
#     4  10  22  40  63  93 126 166 213 260 312 375
#     4   9  20  37  60  96 133 166 206 258 315 376
#     4   9  19  36  58  85 120 162 208 256 307 368
#     4  10  21  38  62  93 129 165 204 256 316 375
#     4  11  25  45  68  94 126 168 218 271 325 380
#
# _framework density 23.687163999999999
#
# number of rings (size 3 to 8) (size 9 to 14) (size 15 to 20)
#    0.000    2.333    0.000    1.000    0.000   14.000 
#    0.000    5.000    0.000    0.000    0.000    0.000 
#    0.000    0.000    0.000    0.000    0.000    0.000 
#
# Total GULP energy -267357.169390 kJ/mol
# GULP energy per Si atom -5569.941029 kJ/mol
# Density = 2.363325 g / cm^3
# Si number density = 23.687164 Si / 1000 Ang^3
#
#
#
# Elastic Constant Matrix: (Units=GPa)
#
#
# Indices 1 2 3 4 5 6 
#
# 1 105.6028 -0.6510 -11.9606 0.0000 0.0000 0.0000
# 2 -0.6510 177.0378 43.0771 0.0000 0.0000 0.0000
# 3 -11.9606 43.0771 103.4245 0.0000 0.0000 0.0000
# 4 0.0000 0.0000 0.0000 -3.2353 0.0000 0.0000
# 5 0.0000 0.0000 0.0000 0.0000 23.3707 0.0000
# 6 0.0000 0.0000 0.0000 0.0000 0.0000 102.9834
#
#
#
# Elastic Compliance Matrix: (Units=1/GPa)
#
#
# Indices 1 2 3 4 5 6 
#
# 1 0.009606 -0.000261 0.001220 0.000000 0.000000 0.000000
# 2 -0.000261 0.006293 -0.002651 0.000000 0.000000 0.000000
# 3 0.001220 -0.002651 0.010914 0.000000 0.000000 0.000000
# 4 0.000000 0.000000 0.000000 -0.309086 0.000000 0.000000
# 5 0.000000 0.000000 0.000000 0.000000 0.042789 0.000000
# 6 0.000000 0.000000 0.000000 0.000000 0.000000 0.009710
#
#
# Mechanical properties :
#
#
# Convention : Reuss Voigt Hill
#
# Bulk Modulus (GPa) = 42.68559 49.66623 46.17591
# Shear Modulus (GPa) = -22.87492 48.33039 12.72773
#
# Velocity S-wave (km/s) = -3.11096 4.52194 2.32054
# Velocity P-wave (km/s) = 2.27059 6.94816 5.16878
#
# Compressibility (1/GPa) = 0.02342711
#
# Stress axis : x y z
#
# Youngs Moduli (GPa) = 104.10169 158.91592 91.62391
#
# Poissons Ratio (x) = 0.04155 -0.11176
# Poissons Ratio (y) = 0.02722 0.24291
# Poissons Ratio (z) = -0.12698 0.42131
#
# Static dielectric constant tensor:
#      x y z
#    x 2.046040 0.000000 0.000000 
#    y 0.000000 1.935550 0.000000 
#    z 0.000000 0.000000 1.857150 
# 
# From -- ./inp_files/23017.got.cif
#   From: 2010.05.17/outbox.cif.g08.bks.cpg/sg62_12_cif.got.tgz:23017.got - 2010.06.03 15:25:27.
