data_PCOD9465369
_publ_section_title
;
Structure prediction by ZEFSAII (Michael W. Deem and Ramdas Pophale) SiO2 
 PCOD9465369
Probable space group: P N M A
;
_chemical_formula_sum "Si O2"
_cell_formula_units_Z 60
_cell_length_a 25.469782
_cell_length_b 11.969889
_cell_length_c 8.335207
_cell_angle_alpha 90.000000
_cell_angle_beta 90.000000
_cell_angle_gamma 90.000000
_cell_volume 2541.158421
_symmetry_space_group_name_H-M "P N M A"
_symmetry_group_IT_number 62
_symmetry_cell_setting 'orthorhombic'
loop_
_space_group_symop_operation_xyz
x,y,z
1/2-x,-y,1/2+z
1/2+x,1/2-y,1/2-z
-x,1/2+y,-z
-x,-y,-z
1/2+x,y,1/2-z
1/2-x,1/2+y,1/2+z
x,1/2-y,z
loop_
_atom_site_type_symbol
_atom_site_label
_atom_site_fract_x
_atom_site_fract_y
_atom_site_fract_z
Si Si1 0.157936 0.419995 0.703432
Si Si2 0.212023 0.885646 0.561478
Si Si3 0.436084 0.869300 0.976776
Si Si4 0.487274 0.446071 0.769000
Si Si5 0.244381 0.750000 0.137776
Si Si6 0.888951 0.874787 0.946628
Si Si7 0.806901 0.029902 0.804468
Si Si8 0.016644 0.631674 0.930470
O O1 0.170533 0.550699 0.675255
O O2 0.118930 0.381113 0.564217
O O3 0.211101 0.347883 0.682635
O O4 0.132175 0.394921 0.873837
O O5 0.210975 0.750000 0.554739
O O6 0.202189 0.935917 0.382502
O O7 0.266652 0.934827 0.629684
O O8 0.438617 0.750000 0.889524
O O9 0.449314 0.977246 0.873201
O O10 0.480683 0.868746 0.113226
O O11 0.464750 0.386738 0.611987
O O12 0.528914 0.534840 0.693304
O O13 0.202104 0.647747 0.105598
O O14 0.871001 0.750000 0.899346
O O15 0.952532 0.872938 0.943765
O O16 0.861969 0.969450 0.839010
O O17 0.034119 0.750000 0.869026
#
# Coordination Sequence:
#
# PCOD9465369 Si02
#       8
#     8   8   8   8   4   8   8   8
#     4  11  22  42  71  94 127 174 220 268 317 388
#     4  11  25  45  62  94 136 167 210 274 329 388
#     4  11  21  40  69  96 127 168 219 267 320 385
#     4  10  22  37  64  96 131 160 212 267 325 378
#     4  10  20  40  66  94 122 172 206 262 322 378
#     4  11  22  41  70  98 127 173 227 272 316 387
#     4  11  23  42  69  91 134 169 215 269 328 380
#     4  10  21  41  65  94 128 172 217 269 318 383
#
# _framework density 23.611280000000001
#
# number of rings (size 3 to 8) (size 9 to 14) (size 15 to 20)
#    0.000    1.333    3.333    2.800    1.867    0.000 
#   15.600    4.000    8.800    0.000    0.000    0.000 
#    0.000    0.000    0.000    0.000    0.000    0.000 
#
# Total GULP energy -334240.805974 kJ/mol
# GULP energy per Si atom -5570.680100 kJ/mol
# Density = 2.355754 g / cm^3
# Si number density = 23.611280 Si / 1000 Ang^3
#
#
#
# Elastic Constant Matrix: (Units=GPa)
#
#
# Indices 1 2 3 4 5 6 
#
# 1 73.5843 46.4976 20.4795 0.0000 0.0000 0.0000
# 2 46.4976 205.1519 48.6005 0.0000 0.0000 0.0000
# 3 20.4795 48.6005 99.1527 0.0000 0.0000 0.0000
# 4 0.0000 0.0000 0.0000 9.0647 0.0000 0.0000
# 5 0.0000 0.0000 0.0000 0.0000 30.1436 0.0000
# 6 0.0000 0.0000 0.0000 0.0000 0.0000 31.1752
#
#
#
# Elastic Compliance Matrix: (Units=1/GPa)
#
#
# Indices 1 2 3 4 5 6 
#
# 1 0.016123 -0.003242 -0.001741 0.000000 0.000000 0.000000
# 2 -0.003242 0.006167 -0.002353 0.000000 0.000000 0.000000
# 3 -0.001741 -0.002353 0.011598 0.000000 0.000000 0.000000
# 4 0.000000 0.000000 0.000000 0.110318 0.000000 0.000000
# 5 0.000000 0.000000 0.000000 0.000000 0.033174 0.000000
# 6 0.000000 0.000000 0.000000 0.000000 0.000000 0.032077
#
#
# Mechanical properties :
#
#
# Convention : Reuss Voigt Hill
#
# Bulk Modulus (GPa) = 52.03975 67.67156 59.85565
# Shear Modulus (GPa) = 21.68876 31.56414 26.62645
#
# Velocity S-wave (km/s) = 3.03409 3.66023 3.36177
# Velocity P-wave (km/s) = 5.86194 6.82539 6.36193
#
# Compressibility (1/GPa) = 0.01921608
#
# Stress axis : x y z
#
# Youngs Moduli (GPa) = 62.02357 162.16332 86.21849
#
# Poissons Ratio (x) = 0.52570 0.15012
# Poissons Ratio (y) = 0.20107 0.20288
# Poissons Ratio (z) = 0.10799 0.38158
#
# Static dielectric constant tensor:
#      x y z
#    x 1.922620 0.000000 0.000000 
#    y 0.000000 2.013780 0.000000 
#    z 0.000000 0.000000 1.978470 
# 
# From -- ./inp_files/10427.got.cif
#   From: 2010.05.17/outbox.cif.g08.bks.cpg/sg62_6_cif.got.tgz:10427.got - 2010.06.03 15:25:27.
