data_PCOD9465768
_publ_section_title
;
Structure prediction by ZEFSAII (Michael W. Deem and Ramdas Pophale) SiO2 
 PCOD9465768
Probable space group: P N M A
;
_chemical_formula_sum "Si O2"
_cell_formula_units_Z 40
_cell_length_a 11.021629
_cell_length_b 20.759599
_cell_length_c 8.562761
_cell_angle_alpha 90.000000
_cell_angle_beta 90.000000
_cell_angle_gamma 90.000000
_cell_volume 1959.199092
_symmetry_space_group_name_H-M "P N M A"
_symmetry_group_IT_number 62
_symmetry_cell_setting 'orthorhombic'
loop_
_space_group_symop_operation_xyz
x,y,z
1/2-x,-y,1/2+z
1/2+x,1/2-y,1/2-z
-x,1/2+y,-z
-x,-y,-z
1/2+x,y,1/2-z
1/2-x,1/2+y,1/2+z
x,1/2-y,z
loop_
_atom_site_type_symbol
_atom_site_label
_atom_site_fract_x
_atom_site_fract_y
_atom_site_fract_z
Si Si1 0.989912 0.073189 0.120875
Si Si2 0.897352 0.054804 0.801961
Si Si3 0.435728 0.324818 0.119062
Si Si4 0.777403 0.887276 0.085371
Si Si5 0.551271 0.177356 0.807649
O O1 0.959264 0.132022 0.231336
O O2 0.020980 0.008859 0.218438
O O3 0.111687 0.089363 0.021948
O O4 0.887287 0.060181 0.989692
O O5 0.780896 0.055836 0.690662
O O6 0.964544 0.120514 0.752209
O O7 0.415667 0.250000 0.156428
O O8 0.321234 0.354201 0.026104
O O9 0.547338 0.328539 0.994999
O O10 0.825903 0.836578 0.214433
O O11 0.508615 0.250000 0.772252
#
# Coordination Sequence:
#
# PCOD9465768 Si02
#       5
#     8   8   8   8   8
#     4  10  22  38  59  88 117 147 193 243 284 334
#     4   9  21  39  58  82 113 151 191 231 285 346
#     4  10  22  38  58  86 115 146 190 240 285 333
#     4  10  21  37  60  82 115 156 190 231 286 345
#     4   9  19  37  59  83 113 150 190 232 285 349
#
# _framework density 20.416505999999998
#
# number of rings (size 3 to 8) (size 9 to 14) (size 15 to 20)
#    0.000    2.400    0.000    0.600    0.000   16.000 
#    0.000    2.000    0.000    0.000    0.000    0.000 
#    0.000    0.000    0.000    0.000    0.000    0.000 
#
# Total GULP energy -222890.881694 kJ/mol
# GULP energy per Si atom -5572.272042 kJ/mol
# Density = 2.037004 g / cm^3
# Si number density = 20.416506 Si / 1000 Ang^3
#
#
#
# Elastic Constant Matrix: (Units=GPa)
#
#
# Indices 1 2 3 4 5 6 
#
# 1 64.3424 19.8595 51.6855 0.0000 0.0000 0.0000
# 2 19.8595 110.5955 49.8405 0.0000 0.0000 0.0000
# 3 51.6855 49.8405 96.0107 0.0000 0.0000 0.0000
# 4 0.0000 0.0000 0.0000 37.4426 0.0000 0.0000
# 5 0.0000 0.0000 0.0000 0.0000 45.0113 0.0000
# 6 0.0000 0.0000 0.0000 0.0000 0.0000 20.7309
#
#
#
# Elastic Compliance Matrix: (Units=1/GPa)
#
#
# Indices 1 2 3 4 5 6 
#
# 1 0.027820 0.002289 -0.016165 0.000000 0.000000 0.000000
# 2 0.002289 0.011992 -0.007457 0.000000 0.000000 0.000000
# 3 -0.016165 -0.007457 0.022989 0.000000 0.000000 0.000000
# 4 0.000000 0.000000 0.000000 0.026708 0.000000 0.000000
# 5 0.000000 0.000000 0.000000 0.000000 0.022217 0.000000
# 6 0.000000 0.000000 0.000000 0.000000 0.000000 0.048237
#
#
# Mechanical properties :
#
#
# Convention : Reuss Voigt Hill
#
# Bulk Modulus (GPa) = 49.66578 57.07996 53.37287
# Shear Modulus (GPa) = 23.88462 30.60783 27.24623
#
# Velocity S-wave (km/s) = 3.42404 3.87611 3.65707
# Velocity P-wave (km/s) = 6.32544 6.93187 6.63559
#
# Compressibility (1/GPa) = 0.02013459
#
# Stress axis : x y z
#
# Youngs Moduli (GPa) = 35.94488 83.39188 43.49959
#
# Poissons Ratio (x) = -0.19089 0.70317
# Poissons Ratio (y) = -0.08228 0.32439
# Poissons Ratio (z) = 0.58104 0.62188
#
# Static dielectric constant tensor:
#      x y z
#    x 1.814760 0.000000 0.000000 
#    y 0.000000 1.724470 0.000000 
#    z 0.000000 0.000000 1.741070 
# 
# From -- ./inp_files/5013.got.cif
#   From: 2010.05.17/outbox.cif.g08.bks.cpg/sg62_3_cif.got.tgz:5013.got - 2010.06.03 15:25:27.
