data_PCOD9465386
_publ_section_title
;
Structure prediction by ZEFSAII (Michael W. Deem and Ramdas Pophale) SiO2 
 PCOD9465386
Probable space group: P N M A
;
_chemical_formula_sum "Si O2"
_cell_formula_units_Z 64
_cell_length_a 15.567990
_cell_length_b 12.132240
_cell_length_c 15.856952
_cell_angle_alpha 90.000000
_cell_angle_beta 90.000000
_cell_angle_gamma 90.000000
_cell_volume 2994.975323
_symmetry_space_group_name_H-M "P N M A"
_symmetry_group_IT_number 62
_symmetry_cell_setting 'orthorhombic'
loop_
_space_group_symop_operation_xyz
x,y,z
1/2-x,-y,1/2+z
1/2+x,1/2-y,1/2-z
-x,1/2+y,-z
-x,-y,-z
1/2+x,y,1/2-z
1/2-x,1/2+y,1/2+z
x,1/2-y,z
loop_
_atom_site_type_symbol
_atom_site_label
_atom_site_fract_x
_atom_site_fract_y
_atom_site_fract_z
Si Si1 0.730196 0.961443 0.231285
Si Si2 0.604804 0.094003 0.658257
Si Si3 0.486654 0.057438 0.089126
Si Si4 0.433536 0.122422 0.416052
Si Si5 0.674268 0.124889 0.079641
Si Si6 0.114107 0.071055 0.027838
Si Si7 0.203709 0.966319 0.584371
Si Si8 0.542283 0.629838 0.216100
O O1 0.713075 0.054979 0.158447
O O2 0.769400 0.993836 0.322070
O O3 0.802164 0.880229 0.193857
O O4 0.637022 0.907122 0.242804
O O5 0.598272 0.126714 0.561766
O O6 0.523306 0.134968 0.707232
O O7 0.600878 0.958967 0.656294
O O8 0.571646 0.130709 0.096959
O O9 0.387785 0.095934 0.091469
O O10 0.499768 0.960605 0.156431
O O11 0.500000 0.000000 0.000000
O O12 0.411539 0.250000 0.411805
O O13 0.536710 0.107123 0.413112
O O14 0.400166 0.058775 0.501077
O O15 0.707584 0.250000 0.074614
O O16 0.690521 0.058425 0.991068
O O17 0.209785 0.095291 0.056172
O O18 0.547230 0.750000 0.174152
#
# Coordination Sequence:
#
# PCOD9465386 Si02
#       8
#     8   8   8   8   8   8   8   8
#     4  11  23  40  67  99 134 168 219 278 328 381
#     4  10  20  41  61  91 132 167 208 269 327 386
#     4   9  21  40  64  85 125 169 212 275 321 374
#     4   9  19  38  63  89 124 169 208 253 328 397
#     4  10  22  43  69  96 130 175 223 270 329 401
#     4   9  20  36  62  94 126 165 210 265 328 387
#     4  11  20  40  68  90 128 170 218 270 325 382
#     4  11  24  42  63  92 128 168 210 265 332 392
#
# _framework density 21.369122999999998
#
# number of rings (size 3 to 8) (size 9 to 14) (size 15 to 20)
#    0.750    1.250    2.500    0.750    0.000    5.500 
#    0.000    6.875    0.000    3.000    0.000    0.000 
#    0.000    0.000    0.000    0.000    0.000    0.000 
#
# Total GULP energy -356353.328176 kJ/mol
# GULP energy per Si atom -5568.020753 kJ/mol
# Density = 2.132049 g / cm^3
# Si number density = 21.369123 Si / 1000 Ang^3
#
#
#
# Elastic Constant Matrix: (Units=GPa)
#
#
# Indices 1 2 3 4 5 6 
#
# 1 205.3732 12.9676 33.9102 0.0000 0.0000 0.0000
# 2 12.9676 104.1645 23.8926 0.0000 0.0000 0.0000
# 3 33.9102 23.8926 84.5806 0.0000 0.0000 0.0000
# 4 0.0000 0.0000 0.0000 -1.1330 0.0000 0.0000
# 5 0.0000 0.0000 0.0000 0.0000 37.1405 0.0000
# 6 0.0000 0.0000 0.0000 0.0000 0.0000 -16.3812
#
#
#
# Elastic Compliance Matrix: (Units=1/GPa)
#
#
# Indices 1 2 3 4 5 6 
#
# 1 0.005218 -0.000181 -0.002041 0.000000 0.000000 0.000000
# 2 -0.000181 0.010272 -0.002829 0.000000 0.000000 0.000000
# 3 -0.002041 -0.002829 0.013440 0.000000 0.000000 0.000000
# 4 0.000000 0.000000 0.000000 -0.882578 0.000000 0.000000
# 5 0.000000 0.000000 0.000000 0.000000 0.026925 0.000000
# 6 0.000000 0.000000 0.000000 0.000000 0.000000 -0.061046
#
#
# Mechanical properties :
#
#
# Convention : Reuss Voigt Hill
#
# Bulk Modulus (GPa) = 53.11313 59.51765 56.31539
# Shear Modulus (GPa) = -5.73795 25.48179 9.87192
#
# Velocity S-wave (km/s) = -1.64042 3.45695 2.15168
# Velocity P-wave (km/s) = 4.61747 6.62168 5.70822
#
# Compressibility (1/GPa) = 0.01882774
#
# Stress axis : x y z
#
# Youngs Moduli (GPa) = 191.66003 97.35535 74.40350
#
# Poissons Ratio (x) = 0.01767 0.15183
# Poissons Ratio (y) = 0.03478 0.21047
# Poissons Ratio (z) = 0.39109 0.27540
#
# Static dielectric constant tensor:
#      x y z
#    x 1.776850 0.000000 0.000000 
#    y 0.000000 1.798560 0.000000 
#    z 0.000000 0.000000 1.668180 
# 
# From -- ./inp_files/24014.got.cif
#   From: 2010.05.17/outbox.cif.g08.bks.cpg/sg62_13_cif.got.tgz:24014.got - 2010.06.03 15:25:27.
