data_PCOD9465230
_publ_section_title
;
Structure prediction by ZEFSAII (Michael W. Deem and Ramdas Pophale) SiO2 
 PCOD9465230
Probable space group: P N M A
;
_chemical_formula_sum "Si O2"
_cell_formula_units_Z 32
_cell_length_a 11.199843
_cell_length_b 18.752633
_cell_length_c 6.904234
_cell_angle_alpha 90.000000
_cell_angle_beta 90.000000
_cell_angle_gamma 90.000000
_cell_volume 1450.072416
_symmetry_space_group_name_H-M "P N M A"
_symmetry_group_IT_number 62
_symmetry_cell_setting 'orthorhombic'
loop_
_space_group_symop_operation_xyz
x,y,z
1/2-x,-y,1/2+z
1/2+x,1/2-y,1/2-z
-x,1/2+y,-z
-x,-y,-z
1/2+x,y,1/2-z
1/2-x,1/2+y,1/2+z
x,1/2-y,z
loop_
_atom_site_type_symbol
_atom_site_label
_atom_site_fract_x
_atom_site_fract_y
_atom_site_fract_z
Si Si1 0.822439 0.088114 0.078951
Si Si2 0.038292 0.581127 0.549568
Si Si3 0.150012 0.333972 0.691557
Si Si4 0.691300 0.072444 0.460746
O O1 0.935827 0.098553 0.222277
O O2 0.772862 0.141334 0.917288
O O3 0.711009 0.085131 0.233246
O O4 0.841369 0.009500 0.993364
O O5 0.172158 0.582740 0.468164
O O6 0.000000 0.500000 0.500000
O O7 0.955586 0.637915 0.446090
O O8 0.150357 0.250000 0.717834
O O9 0.125998 0.374549 0.894546
#
# Coordination Sequence:
#
# PCOD9465230 Si02
#       4
#     8   8   8   8
#     4  10  20  38  67  91 115 159 213 242 294 374
#     4  10  20  38  67  91 115 159 213 242 294 374
#     4  12  24  42  60  90 133 158 193 267 306 333
#     4  10  20  38  67  91 115 159 213 242 294 374
#
# _framework density 22.067865000000001
#
# number of rings (size 3 to 8) (size 9 to 14) (size 15 to 20)
#    1.500    0.000    7.500    0.000    0.000    3.000 
#    4.500    3.750    0.000    0.000    0.000    0.000 
#    0.000    0.000    0.000    0.000    0.000    0.000 
#
# Total GULP energy -178300.815427 kJ/mol
# GULP energy per Si atom -5571.900482 kJ/mol
# Density = 2.201764 g / cm^3
# Si number density = 22.067865 Si / 1000 Ang^3
#
#
#
# Elastic Constant Matrix: (Units=GPa)
#
#
# Indices 1 2 3 4 5 6 
#
# 1 21.8824 -7.1233 -9.4059 0.0000 0.0000 0.0000
# 2 -7.1233 121.6945 19.4463 0.0000 0.0000 0.0000
# 3 -9.4059 19.4463 91.7404 0.0000 0.0000 0.0000
# 4 0.0000 0.0000 0.0000 16.0950 0.0000 0.0000
# 5 0.0000 0.0000 0.0000 0.0000 41.6379 0.0000
# 6 0.0000 0.0000 0.0000 0.0000 0.0000 22.1891
#
#
#
# Elastic Compliance Matrix: (Units=1/GPa)
#
#
# Indices 1 2 3 4 5 6 
#
# 1 0.048323 0.002108 0.004507 0.000000 0.000000 0.000000
# 2 0.002108 0.008597 -0.001606 0.000000 0.000000 0.000000
# 3 0.004507 -0.001606 0.011703 0.000000 0.000000 0.000000
# 4 0.000000 0.000000 0.000000 0.062131 0.000000 0.000000
# 5 0.000000 0.000000 0.000000 0.000000 0.024017 0.000000
# 6 0.000000 0.000000 0.000000 0.000000 0.000000 0.045067
#
#
# Mechanical properties :
#
#
# Convention : Reuss Voigt Hill
#
# Bulk Modulus (GPa) = 12.71587 26.79462 19.75525
# Shear Modulus (GPa) = 23.14466 31.47775 27.31120
#
# Velocity S-wave (km/s) = 3.24202 3.78088 3.52177
# Velocity P-wave (km/s) = 4.44848 5.58823 5.05061
#
# Compressibility (1/GPa) = 0.07864186
#
# Stress axis : x y z
#
# Youngs Moduli (GPa) = 20.69427 116.31455 85.44864
#
# Poissons Ratio (x) = -0.24522 -0.38516
# Poissons Ratio (y) = -0.04363 0.13725
# Poissons Ratio (z) = -0.09328 0.18683
#
# Static dielectric constant tensor:
#      x y z
#    x 1.974170 0.000000 0.000000 
#    y 0.000000 1.730410 0.000000 
#    z 0.000000 0.000000 1.879830 
# 
# From -- ./inp_files/5112.got.cif
#   From: 2010.05.17/outbox.cif.g08.bks.cpg/sg62_3_cif.got.tgz:5112.got - 2010.06.03 15:25:27.
