data_PCOD9465979
_publ_section_title
;
Structure prediction by ZEFSAII (Michael W. Deem and Ramdas Pophale) SiO2 
 PCOD9465979
Probable space group: P N M A
;
_chemical_formula_sum "Si O2"
_cell_formula_units_Z 64
_cell_length_a 13.887532
_cell_length_b 7.967829
_cell_length_c 24.681240
_cell_angle_alpha 90.000000
_cell_angle_beta 90.000000
_cell_angle_gamma 90.000000
_cell_volume 2731.065102
_symmetry_space_group_name_H-M "P N M A"
_symmetry_group_IT_number 62
_symmetry_cell_setting 'orthorhombic'
loop_
_space_group_symop_operation_xyz
x,y,z
1/2-x,-y,1/2+z
1/2+x,1/2-y,1/2-z
-x,1/2+y,-z
-x,-y,-z
1/2+x,y,1/2-z
1/2-x,1/2+y,1/2+z
x,1/2-y,z
loop_
_atom_site_type_symbol
_atom_site_label
_atom_site_fract_x
_atom_site_fract_y
_atom_site_fract_z
Si Si1 0.849525 0.951828 0.330852
Si Si2 0.905703 0.952311 0.533435
Si Si3 0.368077 0.558367 0.368541
Si Si4 0.659215 0.556848 0.265085
Si Si5 0.457780 0.047817 0.558162
Si Si6 0.737592 0.044582 0.942781
Si Si7 0.163152 0.443521 0.355690
Si Si8 0.953912 0.064364 0.233655
O O1 0.858179 0.750000 0.330624
O O2 0.755290 0.999121 0.295371
O O3 0.828028 0.007934 0.391734
O O4 0.937789 0.024550 0.296824
O O5 0.900882 0.750000 0.536868
O O6 0.813880 0.009808 0.498037
O O7 0.902038 0.013016 0.595458
O O8 0.000000 0.000000 0.500000
O O9 0.350493 0.750000 0.385996
O O10 0.462839 0.489861 0.398504
O O11 0.272349 0.453308 0.378230
O O12 0.393595 0.556610 0.304856
O O13 0.642224 0.750000 0.281055
O O14 0.666103 0.543027 0.200322
O O15 0.565169 0.454108 0.280557
O O16 0.453309 0.250000 0.563203
O O17 0.347822 0.986904 0.563897
O O18 0.500000 0.000000 0.500000
O O19 0.739040 0.250000 0.942374
O O20 0.138533 0.250000 0.343337
O O21 0.917973 0.250000 0.222277
#
# Coordination Sequence:
#
# PCOD9465979 Si02
#       8
#     8   8   8   8   8   8   8   8
#     4  10  21  40  65  91 120 159 211 257 306 371
#     4  10  23  41  62  88 121 162 210 258 314 371
#     4  11  22  39  63  93 125 164 210 253 307 383
#     4  11  23  40  64  91 124 166 211 258 311 382
#     4  10  21  38  63  92 123 157 203 254 308 372
#     4   9  19  39  63  87 117 159 203 254 309 366
#     4  11  23  40  62  91 127 164 207 262 316 368
#     4  12  25  39  60  90 127 163 203 259 319 376
#
# _framework density 23.434080999999999
#
# number of rings (size 3 to 8) (size 9 to 14) (size 15 to 20)
#    0.000    1.500    1.250    3.750    1.750    5.500 
#    0.000    1.250    0.000    0.000    0.000    0.000 
#    0.000    0.000    0.000    0.000    0.000    0.000 
#
# Total GULP energy -357994.211021 kJ/mol
# GULP energy per Si atom -5593.659547 kJ/mol
# Density = 2.338074 g / cm^3
# Si number density = 23.434081 Si / 1000 Ang^3
#
#
#
# Elastic Constant Matrix: (Units=GPa)
#
#
# Indices 1 2 3 4 5 6 
#
# 1 48.1069 -2.9832 -16.6108 0.0000 0.0000 0.0000
# 2 -2.9832 36.4803 -8.0259 0.0000 0.0000 0.0000
# 3 -16.6108 -8.0259 83.8075 0.0000 0.0000 0.0000
# 4 0.0000 0.0000 0.0000 20.6052 0.0000 0.0000
# 5 0.0000 0.0000 0.0000 0.0000 39.6865 0.0000
# 6 0.0000 0.0000 0.0000 0.0000 0.0000 26.3153
#
#
#
# Elastic Compliance Matrix: (Units=1/GPa)
#
#
# Indices 1 2 3 4 5 6 
#
# 1 0.022610 0.002896 0.004759 0.000000 0.000000 0.000000
# 2 0.002896 0.028373 0.003291 0.000000 0.000000 0.000000
# 3 0.004759 0.003291 0.013190 0.000000 0.000000 0.000000
# 4 0.000000 0.000000 0.000000 0.048531 0.000000 0.000000
# 5 0.000000 0.000000 0.000000 0.000000 0.025197 0.000000
# 6 0.000000 0.000000 0.000000 0.000000 0.000000 0.038001
#
#
# Mechanical properties :
#
#
# Convention : Reuss Voigt Hill
#
# Bulk Modulus (GPa) = 11.61921 12.57276 12.09599
# Shear Modulus (GPa) = 27.36731 30.38904 28.87817
#
# Velocity S-wave (km/s) = 3.42108 3.60500 3.51424
# Velocity P-wave (km/s) = 4.53586 4.76496 4.65182
#
# Compressibility (1/GPa) = 0.08606434
#
# Stress axis : x y z
#
# Youngs Moduli (GPa) = 44.22872 35.24483 75.81242
#
# Poissons Ratio (x) = -0.10206 -0.36076
# Poissons Ratio (y) = -0.12808 -0.24951
# Poissons Ratio (z) = -0.21047 -0.11599
#
# Static dielectric constant tensor:
#      x y z
#    x 1.879840 0.000000 0.000000 
#    y 0.000000 1.858540 0.000000 
#    z 0.000000 0.000000 1.896100 
# 
# From -- ./inp_files/29885.got.cif
#   From: 2010.05.17/outbox.cif.g08.bks.cpg/sg62_15_cif.got.tgz:29885.got - 2010.06.03 15:25:27.
