data_PCOD9465175
_publ_section_title
;
Structure prediction by ZEFSAII (Michael W. Deem and Ramdas Pophale) SiO2 
 PCOD9465175
Probable space group: P N M A
;
_chemical_formula_sum "Si O2"
_cell_formula_units_Z 64
_cell_length_a 22.521275
_cell_length_b 16.416893
_cell_length_c 8.866637
_cell_angle_alpha 90.000000
_cell_angle_beta 90.000000
_cell_angle_gamma 90.000000
_cell_volume 3278.256040
_symmetry_space_group_name_H-M "P N M A"
_symmetry_group_IT_number 62
_symmetry_cell_setting 'orthorhombic'
loop_
_space_group_symop_operation_xyz
x,y,z
1/2-x,-y,1/2+z
1/2+x,1/2-y,1/2-z
-x,1/2+y,-z
-x,-y,-z
1/2+x,y,1/2-z
1/2-x,1/2+y,1/2+z
x,1/2-y,z
loop_
_atom_site_type_symbol
_atom_site_label
_atom_site_fract_x
_atom_site_fract_y
_atom_site_fract_z
Si Si1 0.544027 0.508149 0.138378
Si Si2 0.555331 0.843839 0.358403
Si Si3 0.777789 0.152531 0.321675
Si Si4 0.468102 0.580970 0.566730
Si Si5 0.676833 0.973104 0.030086
Si Si6 0.677532 0.844684 0.496870
Si Si7 0.840948 0.652806 0.996212
Si Si8 0.768046 0.585552 0.271761
O O1 0.536825 0.594642 0.225620
O O2 0.530742 0.435748 0.256018
O O3 0.612052 0.504536 0.085900
O O4 0.500000 0.500000 0.000000
O O5 0.563161 0.750000 0.309037
O O6 0.507183 0.848531 0.491862
O O7 0.616496 0.879082 0.429653
O O8 0.780299 0.250000 0.323522
O O9 0.820150 0.115178 0.449444
O O10 0.799025 0.122893 0.157067
O O11 0.710327 0.131668 0.372881
O O12 0.500000 0.500000 0.500000
O O13 0.400037 0.599635 0.524414
O O14 0.723372 0.966733 0.166981
O O15 0.698647 0.031932 0.896463
O O16 0.664825 0.750000 0.522668
O O17 0.727103 0.854881 0.369922
O O18 0.853112 0.750000 0.985856
O O19 0.811732 0.631202 0.157303
#
# Coordination Sequence:
#
# PCOD9465175 Si02
#       8
#     8   8   8   8   8   8   8   8
#     4  11  26  43  61  93 125 166 207 269 313 366
#     4  10  22  43  69  91 120 167 215 261 313 380
#     4   9  21  38  62  93 126 162 202 255 317 382
#     4  10  24  41  65  85 123 164 215 259 308 370
#     4  11  24  37  61  91 128 162 207 249 314 369
#     4  10  20  38  63  92 124 157 202 258 315 371
#     4  10  22  42  66  94 127 166 210 258 318 380
#     4  11  23  36  62  94 129 164 203 254 310 383
#
# _framework density 19.522575
#
# number of rings (size 3 to 8) (size 9 to 14) (size 15 to 20)
#    0.000    1.750    1.250    1.500   10.500    2.000 
#    0.000    1.250    0.000    0.000    0.000    0.000 
#    0.000    0.000    0.000    0.000    0.000    0.000 
#
# Total GULP energy -357103.970705 kJ/mol
# GULP energy per Si atom -5579.749542 kJ/mol
# Density = 1.947814 g / cm^3
# Si number density = 19.522575 Si / 1000 Ang^3
#
#
#
# Elastic Constant Matrix: (Units=GPa)
#
#
# Indices 1 2 3 4 5 6 
#
# 1 96.6938 21.9849 61.0387 0.0000 0.0000 0.0000
# 2 21.9849 51.3531 27.8152 0.0000 0.0000 0.0000
# 3 61.0387 27.8152 131.5686 0.0000 0.0000 0.0000
# 4 0.0000 0.0000 0.0000 29.3060 0.0000 0.0000
# 5 0.0000 0.0000 0.0000 0.0000 31.8127 0.0000
# 6 0.0000 0.0000 0.0000 0.0000 0.0000 28.0006
#
#
#
# Elastic Compliance Matrix: (Units=1/GPa)
#
#
# Indices 1 2 3 4 5 6 
#
# 1 0.015023 -0.003000 -0.006336 0.000000 0.000000 0.000000
# 2 -0.003000 0.022590 -0.003384 0.000000 0.000000 0.000000
# 3 -0.006336 -0.003384 0.011255 0.000000 0.000000 0.000000
# 4 0.000000 0.000000 0.000000 0.034123 0.000000 0.000000
# 5 0.000000 0.000000 0.000000 0.000000 0.031434 0.000000
# 6 0.000000 0.000000 0.000000 0.000000 0.000000 0.035713
#
#
# Mechanical properties :
#
#
# Convention : Reuss Voigt Hill
#
# Bulk Modulus (GPa) = 42.68095 55.69923 49.19009
# Shear Modulus (GPa) = 27.26454 29.07566 28.17010
#
# Velocity S-wave (km/s) = 3.74112 3.86338 3.80274
# Velocity P-wave (km/s) = 6.36955 6.96373 6.67325
#
# Compressibility (1/GPa) = 0.02342965
#
# Stress axis : x y z
#
# Youngs Moduli (GPa) = 66.56277 44.26672 88.84709
#
# Poissons Ratio (x) = 0.13280 0.56290
# Poissons Ratio (y) = 0.19969 0.30066
# Poissons Ratio (z) = 0.42171 0.14980
#
# Static dielectric constant tensor:
#      x y z
#    x 1.675710 0.000000 0.000000 
#    y 0.000000 1.738810 0.000000 
#    z 0.000000 0.000000 1.676340 
# 
# From -- ./inp_files/8912.got.cif
#   From: 2010.05.17/outbox.cif.g08.bks.cpg/sg62_5_cif.got.tgz:8912.got - 2010.06.03 15:25:27.
