data_PCOD9465172
_publ_section_title
;
Structure prediction by ZEFSAII (Michael W. Deem and Ramdas Pophale) SiO2 
 PCOD9465172
Probable space group: P N M A
;
_chemical_formula_sum "Si O2"
_cell_formula_units_Z 60
_cell_length_a 11.887784
_cell_length_b 9.569532
_cell_length_c 25.897578
_cell_angle_alpha 90.000000
_cell_angle_beta 90.000000
_cell_angle_gamma 90.000000
_cell_volume 2946.122183
_symmetry_space_group_name_H-M "P N M A"
_symmetry_group_IT_number 62
_symmetry_cell_setting 'orthorhombic'
loop_
_space_group_symop_operation_xyz
x,y,z
1/2-x,-y,1/2+z
1/2+x,1/2-y,1/2-z
-x,1/2+y,-z
-x,-y,-z
1/2+x,y,1/2-z
1/2-x,1/2+y,1/2+z
x,1/2-y,z
loop_
_atom_site_type_symbol
_atom_site_label
_atom_site_fract_x
_atom_site_fract_y
_atom_site_fract_z
Si Si1 0.012795 0.584005 0.185619
Si Si2 0.072322 0.087064 0.285193
Si Si3 0.181996 0.409828 0.116308
Si Si4 0.510152 0.750000 0.480783
Si Si5 0.559703 0.913040 0.893761
Si Si6 0.755897 0.909687 0.165075
Si Si7 0.872874 0.412114 0.555525
Si Si8 0.654172 0.023085 0.499555
O O1 0.032809 0.750000 0.190122
O O2 0.018871 0.506211 0.240415
O O3 0.105717 0.512251 0.149538
O O4 0.888182 0.563198 0.162976
O O5 0.080264 0.250000 0.270651
O O6 0.000186 0.077616 0.337844
O O7 0.193159 0.019900 0.298370
O O8 0.177653 0.250000 0.136156
O O9 0.311466 0.457425 0.113640
O O10 0.140127 0.410254 0.057381
O O11 0.417676 0.627457 0.465077
O O12 0.599893 0.627755 0.497766
O O13 0.560492 0.750000 0.909430
O O14 0.486252 0.002355 0.933693
O O15 0.739590 0.750000 0.184366
O O16 0.696158 0.918269 0.109619
O O17 0.895707 0.250000 0.543568
O O18 0.784862 0.473348 0.514553
#
# Coordination Sequence:
#
# PCOD9465172 Si02
#       8
#     8   8   8   4   8   8   8   8
#     4  11  25  39  62  91 122 157 204 255 311 375
#     4  10  21  41  62  87 118 159 202 253 311 369
#     4  11  24  42  61  92 129 166 206 256 313 368
#     4  10  24  38  62  88 128 164 208 248 312 368
#     4   9  22  42  63  87 124 163 209 257 307 369
#     4   9  21  38  60  88 120 153 200 252 301 366
#     4  10  20  38  63  91 121 164 209 254 302 362
#     4  11  23  40  62  93 126 174 204 261 308 368
#
# _framework density 20.365753000000002
#
# number of rings (size 3 to 8) (size 9 to 14) (size 15 to 20)
#    0.000    1.867    1.333    0.800    7.467    2.667 
#    0.000    0.000    0.000    0.000    0.000    0.000 
#    0.000    0.000    0.000    0.000    0.000    0.000 
#
# Total GULP energy -334242.778712 kJ/mol
# GULP energy per Si atom -5570.712979 kJ/mol
# Density = 2.031940 g / cm^3
# Si number density = 20.365753 Si / 1000 Ang^3
#
#
#
# Elastic Constant Matrix: (Units=GPa)
#
#
# Indices 1 2 3 4 5 6 
#
# 1 120.3962 63.5905 8.5375 0.0000 0.0000 0.0000
# 2 63.5905 117.4013 12.1703 0.0000 0.0000 0.0000
# 3 8.5375 12.1703 38.7325 0.0000 0.0000 0.0000
# 4 0.0000 0.0000 0.0000 6.2557 0.0000 0.0000
# 5 0.0000 0.0000 0.0000 0.0000 19.0792 0.0000
# 6 0.0000 0.0000 0.0000 0.0000 0.0000 32.0717
#
#
#
# Elastic Compliance Matrix: (Units=1/GPa)
#
#
# Indices 1 2 3 4 5 6 
#
# 1 0.011648 -0.006246 -0.000605 0.000000 0.000000 0.000000
# 2 -0.006246 0.012154 -0.002442 0.000000 0.000000 0.000000
# 3 -0.000605 -0.002442 0.026719 0.000000 0.000000 0.000000
# 4 0.000000 0.000000 0.000000 0.159855 0.000000 0.000000
# 5 0.000000 0.000000 0.000000 0.000000 0.052413 0.000000
# 6 0.000000 0.000000 0.000000 0.000000 0.000000 0.031180
#
#
# Mechanical properties :
#
#
# Convention : Reuss Voigt Hill
#
# Bulk Modulus (GPa) = 31.31426 49.45851 40.38638
# Shear Modulus (GPa) = 15.47026 24.29677 19.88352
#
# Velocity S-wave (km/s) = 2.75911 3.45776 3.12800
# Velocity P-wave (km/s) = 5.05565 6.34660 5.73755
#
# Compressibility (1/GPa) = 0.03193433
#
# Stress axis : x y z
#
# Youngs Moduli (GPa) = 85.85136 82.27489 37.42682
#
# Poissons Ratio (x) = 0.51393 0.02263
# Poissons Ratio (y) = 0.53627 0.09140
# Poissons Ratio (z) = 0.05192 0.20093
#
# Static dielectric constant tensor:
#      x y z
#    x 1.724110 0.000000 0.000000 
#    y 0.000000 1.684220 0.000000 
#    z 0.000000 0.000000 1.764720 
# 
# From -- ./inp_files/31129.got.cif
#   From: 2010.05.17/outbox.cif.g08.bks.cpg/sg62_16_cif.got.tgz:31129.got - 2010.06.03 15:25:27.
