data_PCOD9465112
_publ_section_title
;
Structure prediction by ZEFSAII (Michael W. Deem and Ramdas Pophale) SiO2 
 PCOD9465112
Probable space group: P N M A
;
_chemical_formula_sum "Si O2"
_cell_formula_units_Z 48
_cell_length_a 9.656974
_cell_length_b 8.523325
_cell_length_c 28.979638
_cell_angle_alpha 90.000000
_cell_angle_beta 90.000000
_cell_angle_gamma 90.000000
_cell_volume 2385.300323
_symmetry_space_group_name_H-M "P N M A"
_symmetry_group_IT_number 62
_symmetry_cell_setting 'orthorhombic'
loop_
_space_group_symop_operation_xyz
x,y,z
1/2-x,-y,1/2+z
1/2+x,1/2-y,1/2-z
-x,1/2+y,-z
-x,-y,-z
1/2+x,y,1/2-z
1/2-x,1/2+y,1/2+z
x,1/2-y,z
loop_
_atom_site_type_symbol
_atom_site_label
_atom_site_fract_x
_atom_site_fract_y
_atom_site_fract_z
Si Si1 0.595973 0.938471 0.040609
Si Si2 0.682383 0.561881 0.380445
Si Si3 0.854487 0.937933 0.983223
Si Si4 0.003229 0.436548 0.198089
Si Si5 0.803491 0.438899 0.721487
Si Si6 0.509813 0.441201 0.860324
O O1 0.585922 0.750000 0.041987
O O2 0.549986 0.996447 0.090579
O O3 0.747920 0.981730 0.023706
O O4 0.500000 0.000000 0.000000
O O5 0.673640 0.750000 0.377935
O O6 0.684484 0.511197 0.433841
O O7 0.553815 0.490442 0.352541
O O8 0.829346 0.511055 0.357820
O O9 0.853561 0.750000 0.978252
O O10 0.000000 0.000000 0.000000
O O11 0.998862 0.250000 0.200519
O O12 0.852375 0.501951 0.212480
O O13 0.121820 0.501058 0.232436
O O14 0.798622 0.250000 0.722954
O O15 0.907512 0.490252 0.680385
O O16 0.509816 0.250000 0.859994
#
# Coordination Sequence:
#
# PCOD9465112 Si02
#       6
#     8   8   8   8   8   8
#     4  10  20  38  61  90 123 164 210 257 308 366
#     4  11  22  41  67  92 124 168 215 264 319 383
#     4  11  24  39  60  91 129 169 213 263 321 380
#     4  12  26  44  65  96 134 166 207 266 327 381
#     4  11  23  43  70  97 125 168 218 260 314 387
#     4   9  20  38  64  93 122 159 211 262 308 371
#
# _framework density 20.123252999999998
#
# number of rings (size 3 to 8) (size 9 to 14) (size 15 to 20)
#    0.000    1.333    1.667    4.000    2.333    2.000 
#    0.000    4.167    0.000    0.000    0.000    0.000 
#    0.000    0.000    0.000    0.000    0.000    0.000 
#
# Total GULP energy -268272.266582 kJ/mol
# GULP energy per Si atom -5589.005554 kJ/mol
# Density = 2.007745 g / cm^3
# Si number density = 20.123253 Si / 1000 Ang^3
#
#
#
# Elastic Constant Matrix: (Units=GPa)
#
#
# Indices 1 2 3 4 5 6 
#
# 1 127.1926 32.8150 15.4493 0.0000 0.0000 0.0000
# 2 32.8150 62.4976 12.4943 0.0000 0.0000 0.0000
# 3 15.4493 12.4943 75.5896 0.0000 0.0000 0.0000
# 4 0.0000 0.0000 0.0000 32.3535 0.0000 0.0000
# 5 0.0000 0.0000 0.0000 0.0000 42.3746 0.0000
# 6 0.0000 0.0000 0.0000 0.0000 0.0000 26.5551
#
#
#
# Elastic Compliance Matrix: (Units=1/GPa)
#
#
# Indices 1 2 3 4 5 6 
#
# 1 0.009184 -0.004599 -0.001117 0.000000 0.000000 0.000000
# 2 -0.004599 0.018850 -0.002176 0.000000 0.000000 0.000000
# 3 -0.001117 -0.002176 0.013817 0.000000 0.000000 0.000000
# 4 0.000000 0.000000 0.000000 0.030909 0.000000 0.000000
# 5 0.000000 0.000000 0.000000 0.000000 0.023599 0.000000
# 6 0.000000 0.000000 0.000000 0.000000 0.000000 0.037658
#
#
# Mechanical properties :
#
#
# Convention : Reuss Voigt Hill
#
# Bulk Modulus (GPa) = 38.36074 42.97745 40.66909
# Shear Modulus (GPa) = 31.54773 33.89140 32.71957
#
# Velocity S-wave (km/s) = 3.96375 4.10834 4.03669
# Velocity P-wave (km/s) = 6.32872 6.62632 6.47923
#
# Compressibility (1/GPa) = 0.02606832
#
# Stress axis : x y z
#
# Youngs Moduli (GPa) = 108.88175 53.04940 72.37327
#
# Poissons Ratio (x) = 0.24397 0.08084
# Poissons Ratio (y) = 0.50075 0.15747
# Poissons Ratio (z) = 0.12161 0.11543
#
# Static dielectric constant tensor:
#      x y z
#    x 1.652940 0.000000 0.000000 
#    y 0.000000 1.661880 0.000000 
#    z 0.000000 0.000000 1.669880 
# 
# From -- ./inp_files/31935.got.cif
#   From: 2010.05.17/outbox.cif.g08.bks.cpg/sg62_16_cif.got.tgz:31935.got - 2010.06.03 15:25:27.
