data_PCOD9465396
_publ_section_title
;
Structure prediction by ZEFSAII (Michael W. Deem and Ramdas Pophale) SiO2 
 PCOD9465396
Probable space group: P N M A
;
_chemical_formula_sum "Si O2"
_cell_formula_units_Z 64
_cell_length_a 15.635986
_cell_length_b 24.259728
_cell_length_c 8.958326
_cell_angle_alpha 90.000000
_cell_angle_beta 90.000000
_cell_angle_gamma 90.000000
_cell_volume 3398.114926
_symmetry_space_group_name_H-M "P N M A"
_symmetry_group_IT_number 62
_symmetry_cell_setting 'orthorhombic'
loop_
_space_group_symop_operation_xyz
x,y,z
1/2-x,-y,1/2+z
1/2+x,1/2-y,1/2-z
-x,1/2+y,-z
-x,-y,-z
1/2+x,y,1/2-z
1/2-x,1/2+y,1/2+z
x,1/2-y,z
loop_
_atom_site_type_symbol
_atom_site_label
_atom_site_fract_x
_atom_site_fract_y
_atom_site_fract_z
Si Si1 0.660910 0.890596 0.595760
Si Si2 0.411315 0.190064 0.174377
Si Si3 0.743920 0.314966 0.864481
Si Si4 0.427663 0.479583 0.609897
Si Si5 0.202389 0.872394 0.446109
Si Si6 0.468445 0.443622 0.923363
Si Si7 0.817005 0.914757 0.799473
Si Si8 0.917095 0.652796 0.554752
O O1 0.595938 0.860235 0.708305
O O2 0.699967 0.841539 0.496704
O O3 0.625710 0.935194 0.482078
O O4 0.731998 0.920601 0.697989
O O5 0.390115 0.250000 0.239448
O O6 0.505918 0.191083 0.107399
O O7 0.344348 0.175129 0.043305
O O8 0.759167 0.250000 0.841064
O O9 0.767707 0.349189 0.714236
O O10 0.648601 0.323499 0.932789
O O11 0.500000 0.500000 0.500000
O O12 0.474318 0.451454 0.747916
O O13 0.370137 0.529566 0.674239
O O14 0.129348 0.920864 0.444439
O O15 0.283212 0.892850 0.541951
O O16 0.500000 0.500000 0.000000
O O17 0.533351 0.398225 0.981741
O O18 0.869781 0.870225 0.702715
#
# Coordination Sequence:
#
# PCOD9465396 Si02
#       8
#     8   8   8   8   8   8   8   8
#     4  10  23  40  62  91 123 159 209 253 298 370
#     4  10  20  41  65  86 118 166 207 250 305 365
#     4  11  22  40  63  92 123 160 205 263 314 353
#     4  12  25  38  62  90 126 162 199 247 310 365
#     4  10  23  40  64  89 126 155 208 252 305 369
#     4  11  23  42  62  90 123 164 199 250 311 372
#     4  10  23  40  61  89 122 163 200 244 302 374
#     4  10  22  40  63  90 123 159 207 255 304 368
#
# _framework density 18.833970999999998
#
# number of rings (size 3 to 8) (size 9 to 14) (size 15 to 20)
#    0.000    1.500    2.500    1.875    7.000    0.000 
#    0.000    1.875    0.000    0.000    0.000    0.000 
#    0.000    0.000    0.000    0.000    0.000    0.000 
#
# Total GULP energy -356884.099427 kJ/mol
# GULP energy per Si atom -5576.314054 kJ/mol
# Density = 1.879110 g / cm^3
# Si number density = 18.833971 Si / 1000 Ang^3
#
#
#
# Elastic Constant Matrix: (Units=GPa)
#
#
# Indices 1 2 3 4 5 6 
#
# 1 63.5207 26.5027 28.0458 0.0000 0.0000 0.0000
# 2 26.5027 98.1487 32.4259 0.0000 0.0000 0.0000
# 3 28.0458 32.4259 113.6601 0.0000 0.0000 0.0000
# 4 0.0000 0.0000 0.0000 8.7040 0.0000 0.0000
# 5 0.0000 0.0000 0.0000 0.0000 29.8581 0.0000
# 6 0.0000 0.0000 0.0000 0.0000 0.0000 -1.9999
#
#
#
# Elastic Compliance Matrix: (Units=1/GPa)
#
#
# Indices 1 2 3 4 5 6 
#
# 1 0.018957 -0.003945 -0.003552 0.000000 0.000000 0.000000
# 2 -0.003945 0.012070 -0.002470 0.000000 0.000000 0.000000
# 3 -0.003552 -0.002470 0.010379 0.000000 0.000000 0.000000
# 4 0.000000 0.000000 0.000000 0.114890 0.000000 0.000000
# 5 0.000000 0.000000 0.000000 0.000000 0.033492 0.000000
# 6 0.000000 0.000000 0.000000 0.000000 0.000000 -0.500026
#
#
# Mechanical properties :
#
#
# Convention : Reuss Voigt Hill
#
# Bulk Modulus (GPa) = 46.57294 49.91978 48.24636
# Shear Modulus (GPa) = -17.65875 19.86946 1.10536
#
# Velocity S-wave (km/s) = -3.06535 3.25157 0.76692
# Velocity P-wave (km/s) = 3.50048 6.37649 5.14359
#
# Compressibility (1/GPa) = 0.02147170
#
# Stress axis : x y z
#
# Youngs Moduli (GPa) = 52.74979 82.85013 96.34567
#
# Poissons Ratio (x) = 0.32688 0.34224
# Poissons Ratio (y) = 0.20812 0.23796
# Poissons Ratio (z) = 0.18738 0.20463
#
# Static dielectric constant tensor:
#      x y z
#    x 1.666930 0.000000 0.000000 
#    y 0.000000 1.699510 0.000000 
#    z 0.000000 0.000000 1.644460 
# 
# From -- ./inp_files/6959.got.cif
#   From: 2010.05.17/outbox.cif.g08.bks.cpg/sg62_4_cif.got.tgz:6959.got - 2010.06.03 15:25:27.
