data_PCOD9465423
_publ_section_title
;
Structure prediction by ZEFSAII (Michael W. Deem and Ramdas Pophale) SiO2 
 PCOD9465423
Probable space group: P N M A
;
_chemical_formula_sum "Si O2"
_cell_formula_units_Z 60
_cell_length_a 9.610091
_cell_length_b 12.535499
_cell_length_c 21.877864
_cell_angle_alpha 90.000000
_cell_angle_beta 90.000000
_cell_angle_gamma 90.000000
_cell_volume 2635.566902
_symmetry_space_group_name_H-M "P N M A"
_symmetry_group_IT_number 62
_symmetry_cell_setting 'orthorhombic'
loop_
_space_group_symop_operation_xyz
x,y,z
1/2-x,-y,1/2+z
1/2+x,1/2-y,1/2-z
-x,1/2+y,-z
-x,-y,-z
1/2+x,y,1/2-z
1/2-x,1/2+y,1/2+z
x,1/2-y,z
loop_
_atom_site_type_symbol
_atom_site_label
_atom_site_fract_x
_atom_site_fract_y
_atom_site_fract_z
Si Si1 0.986006 0.630864 0.367857
Si Si2 0.417320 0.868224 0.448758
Si Si3 0.980366 0.489544 0.760316
Si Si4 0.747957 0.872186 0.708022
Si Si5 0.747269 0.631119 0.932885
Si Si6 0.690716 0.037915 0.079692
Si Si7 0.326228 0.422861 0.624874
Si Si8 0.000000 0.000000 0.500000
O O1 0.043577 0.750000 0.375082
O O2 0.820651 0.634209 0.372262
O O3 0.017415 0.579367 0.301900
O O4 0.054005 0.545910 0.416230
O O5 0.377531 0.750000 0.425788
O O6 0.377361 0.869220 0.519865
O O7 0.323120 0.961570 0.420727
O O8 0.575247 0.888496 0.430581
O O9 0.878659 0.588555 0.747078
O O10 0.918761 0.416554 0.814149
O O11 0.127146 0.542012 0.777767
O O12 0.707988 0.750000 0.719386
O O13 0.794825 0.887156 0.637210
O O14 0.725849 0.750000 0.909547
O O15 0.784056 0.546529 0.881639
O O16 0.613416 0.590202 0.969463
O O17 0.640114 0.081165 0.015626
#
# Coordination Sequence:
#
# PCOD9465423 Si02
#       8
#     8   8   8   8   8   8   8   4
#     4  11  24  42  64  92 127 167 215 269 324 377
#     4  10  21  39  65  94 128 169 206 259 327 378
#     4  11  24  44  61  93 126 166 216 265 320 379
#     4  11  23  42  64  90 125 166 211 262 320 374
#     4  10  23  41  65  95 133 176 210 260 325 380
#     4  10  21  41  63  92 126 164 212 256 310 379
#     4  12  22  43  65  94 128 164 219 268 312 388
#     4  10  20  42  66  92 130 162 212 256 298 388
#
# _framework density 22.765498999999998
#
# number of rings (size 3 to 8) (size 9 to 14) (size 15 to 20)
#    0.000    1.333    4.000    1.600    0.000    3.200 
#    0.000    0.000    0.000    0.000    0.000    0.000 
#    0.000    0.000    0.000    0.000    0.000    0.000 
#
# Total GULP energy -334533.573784 kJ/mol
# GULP energy per Si atom -5575.559563 kJ/mol
# Density = 2.271368 g / cm^3
# Si number density = 22.765499 Si / 1000 Ang^3
#
#
#
# Elastic Constant Matrix: (Units=GPa)
#
#
# Indices 1 2 3 4 5 6 
#
# 1 98.0337 -0.6412 15.8024 0.0000 0.0000 0.0000
# 2 -0.6412 85.0041 22.0491 0.0000 0.0000 0.0000
# 3 15.8024 22.0491 58.4173 0.0000 0.0000 0.0000
# 4 0.0000 0.0000 0.0000 7.7442 0.0000 0.0000
# 5 0.0000 0.0000 0.0000 0.0000 34.2331 0.0000
# 6 0.0000 0.0000 0.0000 0.0000 0.0000 8.3111
#
#
#
# Elastic Compliance Matrix: (Units=1/GPa)
#
#
# Indices 1 2 3 4 5 6 
#
# 1 0.010731 0.000924 -0.003252 0.000000 0.000000 0.000000
# 2 0.000924 0.013121 -0.005202 0.000000 0.000000 0.000000
# 3 -0.003252 -0.005202 0.019961 0.000000 0.000000 0.000000
# 4 0.000000 0.000000 0.000000 0.129128 0.000000 0.000000
# 5 0.000000 0.000000 0.000000 0.000000 0.029211 0.000000
# 6 0.000000 0.000000 0.000000 0.000000 0.000000 0.120322
#
#
# Mechanical properties :
#
#
# Convention : Reuss Voigt Hill
#
# Bulk Modulus (GPa) = 34.77831 35.09729 34.93780
# Shear Modulus (GPa) = 14.40434 23.67400 19.03917
#
# Velocity S-wave (km/s) = 2.51813 3.22826 2.89505
# Velocity P-wave (km/s) = 4.87489 5.41718 5.15318
#
# Compressibility (1/GPa) = 0.02875355
#
# Stress axis : x y z
#
# Youngs Moduli (GPa) = 93.18998 76.21642 50.09669
#
# Poissons Ratio (x) = -0.07045 0.16290
# Poissons Ratio (y) = -0.08614 0.26062
# Poissons Ratio (z) = 0.30302 0.39650
#
# Static dielectric constant tensor:
#      x y z
#    x 1.905620 0.000000 0.000000 
#    y 0.000000 1.914230 0.000000 
#    z 0.000000 0.000000 2.176830 
# 
# From -- ./inp_files/30883.got.cif
#   From: 2010.05.17/outbox.cif.g08.bks.cpg/sg62_16_cif.got.tgz:30883.got - 2010.06.03 15:25:27.
