data_PCOD9465110
_publ_section_title
;
Structure prediction by ZEFSAII (Michael W. Deem and Ramdas Pophale) SiO2 
 PCOD9465110
Probable space group: P N M A
;
_chemical_formula_sum "Si O2"
_cell_formula_units_Z 48
_cell_length_a 8.591444
_cell_length_b 17.391125
_cell_length_c 18.361562
_cell_angle_alpha 90.000000
_cell_angle_beta 90.000000
_cell_angle_gamma 90.000000
_cell_volume 2743.490519
_symmetry_space_group_name_H-M "P N M A"
_symmetry_group_IT_number 62
_symmetry_cell_setting 'orthorhombic'
loop_
_space_group_symop_operation_xyz
x,y,z
1/2-x,-y,1/2+z
1/2+x,1/2-y,1/2-z
-x,1/2+y,-z
-x,-y,-z
1/2+x,y,1/2-z
1/2-x,1/2+y,1/2+z
x,1/2-y,z
loop_
_atom_site_type_symbol
_atom_site_label
_atom_site_fract_x
_atom_site_fract_y
_atom_site_fract_z
Si Si1 0.363127 0.466250 0.164247
Si Si2 0.156565 0.839499 0.411533
Si Si3 0.219849 0.515552 0.317546
Si Si4 0.297148 0.840824 0.571121
Si Si5 0.383350 0.933769 0.033117
Si Si6 0.413955 0.057232 0.443228
O O1 0.280046 0.492156 0.238176
O O2 0.549811 0.476544 0.171197
O O3 0.313837 0.385155 0.128463
O O4 0.308468 0.525994 0.102775
O O5 0.171595 0.750000 0.393570
O O6 0.196363 0.895968 0.344315
O O7 0.252952 0.856153 0.486012
O O8 0.984913 0.863236 0.438824
O O9 0.351708 0.486390 0.372686
O O10 0.290041 0.750000 0.582278
O O11 0.467667 0.876512 0.579299
O O12 0.245466 0.912986 0.979539
O O13 0.500000 0.000000 0.000000
O O14 0.500000 0.000000 0.500000
#
# Coordination Sequence:
#
# PCOD9465110 Si02
#       6
#     8   8   8   8   8   8
#     4  11  21  38  58  87 117 161 203 247 296 367
#     4  10  20  38  61  88 123 155 194 252 301 352
#     4  11  22  37  61  88 115 163 208 243 304 365
#     4  11  22  37  60  92 122 153 195 254 307 352
#     4  11  18  37  61  88 117 159 206 240 291 369
#     4  12  19  35  62  88 122 155 205 249 288 372
#
# _framework density 17.495958999999999
#
# number of rings (size 3 to 8) (size 9 to 14) (size 15 to 20)
#    0.000    1.000    8.333    1.000    0.000    0.667 
#    0.000    7.500    0.000    0.000    0.000    0.000 
#    0.000    0.000    0.000    0.000    0.000    0.000 
#
# Total GULP energy -267507.028315 kJ/mol
# GULP energy per Si atom -5573.063090 kJ/mol
# Density = 1.745614 g / cm^3
# Si number density = 17.495959 Si / 1000 Ang^3
#
#
#
# Elastic Constant Matrix: (Units=GPa)
#
#
# Indices 1 2 3 4 5 6 
#
# 1 81.3801 52.7414 29.9621 0.0000 0.0000 0.0000
# 2 52.7414 106.8965 45.5723 0.0000 0.0000 0.0000
# 3 29.9621 45.5723 101.1716 0.0000 0.0000 0.0000
# 4 0.0000 0.0000 0.0000 21.1924 0.0000 0.0000
# 5 0.0000 0.0000 0.0000 0.0000 36.5316 0.0000
# 6 0.0000 0.0000 0.0000 0.0000 0.0000 24.3492
#
#
#
# Elastic Compliance Matrix: (Units=1/GPa)
#
#
# Indices 1 2 3 4 5 6 
#
# 1 0.018290 -0.008311 -0.001673 0.000000 0.000000 0.000000
# 2 -0.008311 0.015355 -0.004455 0.000000 0.000000 0.000000
# 3 -0.001673 -0.004455 0.012386 0.000000 0.000000 0.000000
# 4 0.000000 0.000000 0.000000 0.047187 0.000000 0.000000
# 5 0.000000 0.000000 0.000000 0.000000 0.027374 0.000000
# 6 0.000000 0.000000 0.000000 0.000000 0.000000 0.041069
#
#
# Mechanical properties :
#
#
# Convention : Reuss Voigt Hill
#
# Bulk Modulus (GPa) = 58.29847 60.66666 59.48256
# Shear Modulus (GPa) = 25.47683 27.15946 26.31815
#
# Velocity S-wave (km/s) = 3.82010 3.94423 3.88266
# Velocity P-wave (km/s) = 7.26987 7.44933 7.36015
#
# Compressibility (1/GPa) = 0.01715311
#
# Stress axis : x y z
#
# Youngs Moduli (GPa) = 54.67417 65.12677 80.73317
#
# Poissons Ratio (x) = 0.54126 0.13507
# Poissons Ratio (y) = 0.45439 0.35968
# Poissons Ratio (z) = 0.09147 0.29015
#
# Static dielectric constant tensor:
#      x y z
#    x 1.635250 0.000000 0.000000 
#    y 0.000000 1.591440 0.000000 
#    z 0.000000 0.000000 1.673670 
# 
# From -- ./inp_files/22347.got.cif
#   From: 2010.05.17/outbox.cif.g08.bks.cpg/sg62_12_cif.got.tgz:22347.got - 2010.06.03 15:25:27.
