data_PCOD9465737
_publ_section_title
;
Structure prediction by ZEFSAII (Michael W. Deem and Ramdas Pophale) SiO2 
 PCOD9465737
Probable space group: P N M A
;
_chemical_formula_sum "Si O2"
_cell_formula_units_Z 36
_cell_length_a 4.815786
_cell_length_b 21.061585
_cell_length_c 14.299325
_cell_angle_alpha 90.000000
_cell_angle_beta 90.000000
_cell_angle_gamma 90.000000
_cell_volume 1450.353168
_symmetry_space_group_name_H-M "P N M A"
_symmetry_group_IT_number 62
_symmetry_cell_setting 'orthorhombic'
loop_
_space_group_symop_operation_xyz
x,y,z
1/2-x,-y,1/2+z
1/2+x,1/2-y,1/2-z
-x,1/2+y,-z
-x,-y,-z
1/2+x,y,1/2-z
1/2-x,1/2+y,1/2+z
x,1/2-y,z
loop_
_atom_site_type_symbol
_atom_site_label
_atom_site_fract_x
_atom_site_fract_y
_atom_site_fract_z
Si Si1 0.699231 0.750000 0.684922
Si Si2 0.076798 0.825385 0.190151
Si Si3 0.753685 0.904260 0.036822
Si Si4 0.449826 0.998374 0.811181
Si Si5 0.742973 0.881222 0.586762
O O1 0.513179 0.750000 0.777880
O O2 0.648838 0.813715 0.626371
O O3 0.890676 0.840807 0.281972
O O4 0.057738 0.750000 0.174834
O O5 0.934947 0.860366 0.105012
O O6 0.641448 0.962683 0.097792
O O7 0.484070 0.872509 0.990395
O O8 0.976332 0.918060 0.955038
O O9 0.758301 0.013578 0.778320
O O10 0.385839 0.925305 0.835043
#
# Coordination Sequence:
#
# PCOD9465737 Si02
#       5
#     4   8   8   8   8
#     4  12  26  48  70  96 132 178 222 262 320 390
#     4  10  21  37  58  86 124 169 213 254 309 385
#     4  12  24  41  66  97 134 164 218 271 335 377
#     4  12  24  44  69  95 131 175 217 267 328 396
#     4  12  26  42  68  98 133 168 221 275 324 377
#
# _framework density 24.821538
#
# number of rings (size 3 to 8) (size 9 to 14) (size 15 to 20)
#    0.000    0.444    0.000    9.333    3.111    0.000 
#    0.000    0.000    0.000    0.000    0.000    0.000 
#    0.000    0.000    0.000    0.000    0.000    0.000 
#
# Total GULP energy -201924.319828 kJ/mol
# GULP energy per Si atom -5609.008884 kJ/mol
# Density = 2.476504 g / cm^3
# Si number density = 24.821538 Si / 1000 Ang^3
#
#
#
# Elastic Constant Matrix: (Units=GPa)
#
#
# Indices 1 2 3 4 5 6 
#
# 1 95.8462 -22.8782 15.4367 0.0000 0.0000 0.0000
# 2 -22.8782 83.8651 22.7487 0.0000 0.0000 0.0000
# 3 15.4367 22.7487 74.4132 0.0000 0.0000 0.0000
# 4 0.0000 0.0000 0.0000 32.4541 0.0000 0.0000
# 5 0.0000 0.0000 0.0000 0.0000 39.6397 0.0000
# 6 0.0000 0.0000 0.0000 0.0000 0.0000 26.8522
#
#
#
# Elastic Compliance Matrix: (Units=1/GPa)
#
#
# Indices 1 2 3 4 5 6 
#
# 1 0.012086 0.004337 -0.003833 0.000000 0.000000 0.000000
# 2 0.004337 0.014558 -0.005350 0.000000 0.000000 0.000000
# 3 -0.003833 -0.005350 0.015869 0.000000 0.000000 0.000000
# 4 0.000000 0.000000 0.000000 0.030813 0.000000 0.000000
# 5 0.000000 0.000000 0.000000 0.000000 0.025227 0.000000
# 6 0.000000 0.000000 0.000000 0.000000 0.000000 0.037241
#
#
# Mechanical properties :
#
#
# Convention : Reuss Voigt Hill
#
# Bulk Modulus (GPa) = 30.46885 31.63766 31.05326
# Shear Modulus (GPa) = 31.96378 35.71035 33.83706
#
# Velocity S-wave (km/s) = 3.59241 3.79711 3.69618
# Velocity P-wave (km/s) = 5.43222 5.65666 5.54558
#
# Compressibility (1/GPa) = 0.03282040
#
# Stress axis : x y z
#
# Youngs Moduli (GPa) = 82.74138 68.68987 63.01519
#
# Poissons Ratio (x) = -0.29789 0.24153
# Poissons Ratio (y) = -0.35882 0.33714
# Poissons Ratio (z) = 0.31714 0.36750
#
# Static dielectric constant tensor:
#      x y z
#    x 1.905940 0.000000 0.000000 
#    y 0.000000 1.937330 0.000000 
#    z 0.000000 0.000000 1.998040 
# 
# From -- ./inp_files/10688.got.cif
#   From: 2010.05.17/outbox.cif.g08.bks.cpg/sg62_6_cif.got.tgz:10688.got - 2010.06.03 15:25:27.
