data_PCOD9465348
_publ_section_title
;
Structure prediction by ZEFSAII (Michael W. Deem and Ramdas Pophale) SiO2 
 PCOD9465348
Probable space group: P N M A
;
_chemical_formula_sum "Si O2"
_cell_formula_units_Z 64
_cell_length_a 24.543165
_cell_length_b 8.726362
_cell_length_c 15.606329
_cell_angle_alpha 90.000000
_cell_angle_beta 90.000000
_cell_angle_gamma 90.000000
_cell_volume 3342.447160
_symmetry_space_group_name_H-M "P N M A"
_symmetry_group_IT_number 62
_symmetry_cell_setting 'orthorhombic'
loop_
_space_group_symop_operation_xyz
x,y,z
1/2-x,-y,1/2+z
1/2+x,1/2-y,1/2-z
-x,1/2+y,-z
-x,-y,-z
1/2+x,y,1/2-z
1/2-x,1/2+y,1/2+z
x,1/2-y,z
loop_
_atom_site_type_symbol
_atom_site_label
_atom_site_fract_x
_atom_site_fract_y
_atom_site_fract_z
Si Si1 0.427308 0.062681 0.247169
Si Si2 0.271058 0.568974 0.567119
Si Si3 0.878541 0.427957 0.647766
Si Si4 0.501636 0.066797 0.404828
Si Si5 0.507672 0.067608 0.094155
Si Si6 0.232991 0.431816 0.395380
Si Si7 0.879684 0.570767 0.826946
Si Si8 0.198148 0.936558 0.728831
O O1 0.427814 0.250000 0.248081
O O2 0.456298 0.012440 0.335924
O O3 0.464006 0.014001 0.165805
O O4 0.364612 0.013221 0.237118
O O5 0.261200 0.750000 0.549703
O O6 0.264802 0.473777 0.481141
O O7 0.331611 0.554917 0.604927
O O8 0.228546 0.518522 0.641160
O O9 0.887817 0.250000 0.631063
O O10 0.932423 0.521066 0.624650
O O11 0.825315 0.486868 0.599355
O O12 0.867772 0.462694 0.747260
O O13 0.495705 0.250000 0.411643
O O14 0.561074 0.036440 0.364680
O O15 0.500000 0.000000 0.500000
O O16 0.502872 0.250000 0.089546
O O17 0.500000 0.000000 0.000000
O O18 0.224782 0.250000 0.387618
O O19 0.266354 0.484181 0.311269
O O20 0.879347 0.750000 0.797988
O O21 0.197985 0.750000 0.729135
#
# Coordination Sequence:
#
# PCOD9465348 Si02
#       8
#     8   8   8   8   8   8   8   8
#     4   9  19  37  60  85 119 160 199 240 295 360
#     4  10  21  38  61  87 120 157 200 249 304 365
#     4  12  24  40  64  90 119 158 210 262 308 362
#     4  10  21  37  59  86 120 160 201 246 300 358
#     4  11  23  41  64  91 125 162 205 254 309 369
#     4  11  23  40  62  89 123 161 202 250 307 367
#     4  10  20  40  63  85 119 163 203 250 310 363
#     4   9  19  37  60  85 118 159 197 241 300 360
#
# _framework density 19.147648
#
# number of rings (size 3 to 8) (size 9 to 14) (size 15 to 20)
#    0.000    1.750    2.500    1.875    3.500    1.000 
#    0.000    0.000    0.000    3.750    0.000    0.000 
#    0.000    0.000    0.000    0.000    0.000    0.000 
#
# Total GULP energy -357430.181983 kJ/mol
# GULP energy per Si atom -5584.846593 kJ/mol
# Density = 1.910407 g / cm^3
# Si number density = 19.147648 Si / 1000 Ang^3
#
#
#
# Elastic Constant Matrix: (Units=GPa)
#
#
# Indices 1 2 3 4 5 6 
#
# 1 76.8233 5.6041 -6.0327 0.0000 0.0000 0.0000
# 2 5.6041 14.5134 11.0833 0.0000 0.0000 0.0000
# 3 -6.0327 11.0833 66.7008 0.0000 0.0000 0.0000
# 4 0.0000 0.0000 0.0000 34.1409 0.0000 0.0000
# 5 0.0000 0.0000 0.0000 0.0000 22.3960 0.0000
# 6 0.0000 0.0000 0.0000 0.0000 0.0000 13.2770
#
#
#
# Elastic Compliance Matrix: (Units=1/GPa)
#
#
# Indices 1 2 3 4 5 6 
#
# 1 0.013730 -0.007158 0.002431 0.000000 0.000000 0.000000
# 2 -0.007158 0.082648 -0.014381 0.000000 0.000000 0.000000
# 3 0.002431 -0.014381 0.017602 0.000000 0.000000 0.000000
# 4 0.000000 0.000000 0.000000 0.029290 0.000000 0.000000
# 5 0.000000 0.000000 0.000000 0.000000 0.044651 0.000000
# 6 0.000000 0.000000 0.000000 0.000000 0.000000 0.075318
#
#
# Mechanical properties :
#
#
# Convention : Reuss Voigt Hill
#
# Bulk Modulus (GPa) = 13.19881 19.92744 16.56312
# Shear Modulus (GPa) = 15.30415 23.78831 19.54623
#
# Velocity S-wave (km/s) = 2.83020 3.52854 3.19849
# Velocity P-wave (km/s) = 4.19383 5.19910 4.72329
#
# Compressibility (1/GPa) = 0.07576441
#
# Stress axis : x y z
#
# Youngs Moduli (GPa) = 72.83335 12.09954 56.81249
#
# Poissons Ratio (x) = 0.08661 -0.13812
# Poissons Ratio (y) = 0.52136 0.81700
# Poissons Ratio (z) = -0.17708 0.17400
#
# Static dielectric constant tensor:
#      x y z
#    x 1.743070 0.000000 0.000000 
#    y 0.000000 1.645590 0.000000 
#    z 0.000000 0.000000 1.667830 
# 
# From -- ./inp_files/20785.got.cif
#   From: 2010.05.17/outbox.cif.g08.bks.cpg/sg62_11_cif.got.tgz:20785.got - 2010.06.03 15:25:27.
