data_PCOD9465417
_publ_section_title
;
Structure prediction by ZEFSAII (Michael W. Deem and Ramdas Pophale) SiO2 
 PCOD9465417
Probable space group: P N M A
;
_chemical_formula_sum "Si O2"
_cell_formula_units_Z 56
_cell_length_a 11.130948
_cell_length_b 19.635793
_cell_length_c 11.820586
_cell_angle_alpha 90.000000
_cell_angle_beta 90.000000
_cell_angle_gamma 90.000000
_cell_volume 2583.566271
_symmetry_space_group_name_H-M "P N M A"
_symmetry_group_IT_number 62
_symmetry_cell_setting 'orthorhombic'
loop_
_space_group_symop_operation_xyz
x,y,z
1/2-x,-y,1/2+z
1/2+x,1/2-y,1/2-z
-x,1/2+y,-z
-x,-y,-z
1/2+x,y,1/2-z
1/2-x,1/2+y,1/2+z
x,1/2-y,z
loop_
_atom_site_type_symbol
_atom_site_label
_atom_site_fract_x
_atom_site_fract_y
_atom_site_fract_z
Si Si1 0.256634 0.750000 0.642990
Si Si2 0.494452 0.750000 0.761048
Si Si3 0.196101 0.896912 0.305108
Si Si4 0.465720 0.937029 0.082004
Si Si5 0.582202 0.874296 0.610362
Si Si6 0.795938 0.024369 0.281085
Si Si7 0.670114 0.391388 0.471102
Si Si8 0.233187 0.171964 0.573164
O O1 0.344867 0.750000 0.757926
O O2 0.110467 0.750000 0.652906
O O3 0.297346 0.816417 0.574629
O O4 0.526612 0.818013 0.693023
O O5 0.301433 0.893586 0.397169
O O6 0.220769 0.848518 0.198929
O O7 0.075123 0.890166 0.376869
O O8 0.192111 0.974541 0.260882
O O9 0.366182 0.884005 0.037040
O O10 0.404940 0.974526 0.188317
O O11 0.500000 0.000000 0.000000
O O12 0.664891 0.922899 0.685923
O O13 0.467218 0.909974 0.554795
O O14 0.658341 0.837831 0.513787
O O15 0.754313 0.059644 0.396660
O O16 0.190255 0.250000 0.571345
#
# Coordination Sequence:
#
# PCOD9465417 Si02
#       8
#     4   4   8   8   8   8   8   8
#     4  10  22  42  67  96 132 176 227 283 352 413
#     4  10  20  42  63  98 134 172 225 287 348 417
#     4  11  26  44  66  98 135 179 229 283 347 420
#     4  11  23  47  70 102 141 179 232 298 352 424
#     4  11  23  42  67  96 137 176 229 283 345 420
#     4  11  23  42  71 101 132 174 233 282 351 412
#     4  11  24  43  68  98 132 179 224 285 348 413
#     4  11  27  46  69 101 138 187 238 289 361 430
#
# _framework density 21.675466
#
# number of rings (size 3 to 8) (size 9 to 14) (size 15 to 20)
#    0.000    1.143    3.571    1.714    7.000    1.143 
#    2.571    0.000    0.000    0.000    0.000    0.000 
#    0.000    0.000    0.000    0.000    0.000    0.000 
#
# Total GULP energy -312548.331813 kJ/mol
# GULP energy per Si atom -5581.220211 kJ/mol
# Density = 2.162613 g / cm^3
# Si number density = 21.675466 Si / 1000 Ang^3
#
#
#
# Elastic Constant Matrix: (Units=GPa)
#
#
# Indices 1 2 3 4 5 6 
#
# 1 56.5983 10.3453 1.1464 0.0000 0.0000 0.0000
# 2 10.3453 91.0041 15.0334 0.0000 0.0000 0.0000
# 3 1.1464 15.0334 62.8184 0.0000 0.0000 0.0000
# 4 0.0000 0.0000 0.0000 93.0404 0.0000 0.0000
# 5 0.0000 0.0000 0.0000 0.0000 25.0248 0.0000
# 6 0.0000 0.0000 0.0000 0.0000 0.0000 20.6217
#
#
#
# Elastic Compliance Matrix: (Units=1/GPa)
#
#
# Indices 1 2 3 4 5 6 
#
# 1 0.018045 -0.002079 0.000168 0.000000 0.000000 0.000000
# 2 -0.002079 0.011680 -0.002757 0.000000 0.000000 0.000000
# 3 0.000168 -0.002757 0.016576 0.000000 0.000000 0.000000
# 4 0.000000 0.000000 0.000000 0.010748 0.000000 0.000000
# 5 0.000000 0.000000 0.000000 0.000000 0.039960 0.000000
# 6 0.000000 0.000000 0.000000 0.000000 0.000000 0.048493
#
#
# Mechanical properties :
#
#
# Convention : Reuss Voigt Hill
#
# Bulk Modulus (GPa) = 27.05290 29.27455 28.16372
# Shear Modulus (GPa) = 29.91145 39.99709 34.95427
#
# Velocity S-wave (km/s) = 3.71882 4.30032 4.02010
# Velocity P-wave (km/s) = 5.56305 6.17998 5.87961
#
# Compressibility (1/GPa) = 0.03696462
#
# Stress axis : x y z
#
# Youngs Moduli (GPa) = 55.41703 85.61367 60.32926
#
# Poissons Ratio (x) = 0.17800 -0.01015
# Poissons Ratio (y) = 0.11522 0.16635
# Poissons Ratio (z) = -0.00933 0.23607
#
# Static dielectric constant tensor:
#      x y z
#    x 1.900500 0.000000 0.000000 
#    y 0.000000 1.766440 0.000000 
#    z 0.000000 0.000000 1.817800 
# 
# From -- ./inp_files/12431.got.cif
#   From: 2010.05.17/outbox.cif.g08.bks.cpg/sg62_7_cif.got.tgz:12431.got - 2010.06.03 15:25:27.
