data_PCOD9465511
_publ_section_title
;
Structure prediction by ZEFSAII (Michael W. Deem and Ramdas Pophale) SiO2 
 PCOD9465511
Probable space group: P N M A
;
_chemical_formula_sum "Si O2"
_cell_formula_units_Z 48
_cell_length_a 15.674949
_cell_length_b 8.463892
_cell_length_c 19.502452
_cell_angle_alpha 90.000000
_cell_angle_beta 90.000000
_cell_angle_gamma 90.000000
_cell_volume 2587.411281
_symmetry_space_group_name_H-M "P N M A"
_symmetry_group_IT_number 62
_symmetry_cell_setting 'orthorhombic'
loop_
_space_group_symop_operation_xyz
x,y,z
1/2-x,-y,1/2+z
1/2+x,1/2-y,1/2-z
-x,1/2+y,-z
-x,-y,-z
1/2+x,y,1/2-z
1/2-x,1/2+y,1/2+z
x,1/2-y,z
loop_
_atom_site_type_symbol
_atom_site_label
_atom_site_fract_x
_atom_site_fract_y
_atom_site_fract_z
Si Si1 0.151447 0.558695 0.324885
Si Si2 0.501708 0.059008 0.922671
Si Si3 0.659180 0.441190 0.829324
Si Si4 0.845302 0.557986 0.172364
Si Si5 0.000215 0.060580 0.922633
Si Si6 0.848954 0.937833 0.828376
O O1 0.150539 0.750000 0.322314
O O2 0.248070 0.508308 0.343003
O O3 0.131684 0.499030 0.248467
O O4 0.081027 0.506516 0.379408
O O5 0.501400 0.250000 0.922925
O O6 0.586636 0.007375 0.882147
O O7 0.500000 0.000000 0.000000
O O8 0.663859 0.250000 0.830268
O O9 0.635968 0.488177 0.751137
O O10 0.752804 0.506745 0.844894
O O11 0.846316 0.750000 0.170696
O O12 0.916639 0.502105 0.119527
O O13 0.002619 0.250000 0.923417
O O14 0.916828 0.006465 0.881458
O O15 0.000000 0.000000 0.000000
O O16 0.852843 0.750000 0.829343
#
# Coordination Sequence:
#
# PCOD9465511 Si02
#       6
#     8   8   8   8   8   8
#     4   9  18  37  60  80 104 141 182 222 270 329
#     4  10  21  35  55  82 114 149 183 220 272 329
#     4   9  18  36  58  80 105 141 184 224 268 324
#     4   8  16  33  59  81 101 135 181 222 263 318
#     4  11  22  37  55  80 114 150 183 221 269 328
#     4  11  22  36  56  83 108 138 181 231 279 322
#
# _framework density 18.551359999999999
#
# number of rings (size 3 to 8) (size 9 to 14) (size 15 to 20)
#    0.000    2.333    0.000    4.000    0.000    5.333 
#    0.000   11.667    0.000    0.000    0.000    0.000 
#    0.000    0.000    0.000    0.000    0.000    0.000 
#
# Total GULP energy -267967.469967 kJ/mol
# GULP energy per Si atom -5582.655624 kJ/mol
# Density = 1.850914 g / cm^3
# Si number density = 18.551360 Si / 1000 Ang^3
#
#
#
# Elastic Constant Matrix: (Units=GPa)
#
#
# Indices 1 2 3 4 5 6 
#
# 1 166.1947 33.4712 149.2198 0.0000 0.0000 0.0000
# 2 33.4712 32.7427 32.7365 0.0000 0.0000 0.0000
# 3 149.2198 32.7365 180.9250 0.0000 0.0000 0.0000
# 4 0.0000 0.0000 0.0000 33.0181 0.0000 0.0000
# 5 0.0000 0.0000 0.0000 0.0000 -3.0889 0.0000
# 6 0.0000 0.0000 0.0000 0.0000 0.0000 12.5794
#
#
#
# Elastic Compliance Matrix: (Units=1/GPa)
#
#
# Indices 1 2 3 4 5 6 
#
# 1 0.024060 -0.005806 -0.018793 0.000000 0.000000 0.000000
# 2 -0.005806 0.038687 -0.002212 0.000000 0.000000 0.000000
# 3 -0.018793 -0.002212 0.021427 0.000000 0.000000 0.000000
# 4 0.000000 0.000000 0.000000 0.030286 0.000000 0.000000
# 5 0.000000 0.000000 0.000000 0.000000 -0.323738 0.000000
# 6 0.000000 0.000000 0.000000 0.000000 0.000000 0.079495
#
#
# Mechanical properties :
#
#
# Convention : Reuss Voigt Hill
#
# Bulk Modulus (GPa) = 32.72974 90.07969 61.40471
# Shear Modulus (GPa) = -75.78537 19.46405 -28.16066
#
# Velocity S-wave (km/s) = -6.39846 3.24265 -3.90036
# Velocity P-wave (km/s) = 6.07503 7.91720 3.58998
#
# Compressibility (1/GPa) = 0.03055325
#
# Stress axis : x y z
#
# Youngs Moduli (GPa) = 41.56259 25.84821 46.66929
#
# Poissons Ratio (x) = 0.15007 0.87707
# Poissons Ratio (y) = 0.24130 0.10322
# Poissons Ratio (z) = 0.78110 0.05717
#
# Static dielectric constant tensor:
#      x y z
#    x 1.639610 0.000000 0.000000 
#    y 0.000000 1.640740 0.000000 
#    z 0.000000 0.000000 1.604190 
# 
# From -- ./inp_files/23763.got.cif
#   From: 2010.05.17/outbox.cif.g08.bks.cpg/sg62_12_cif.got.tgz:23763.got - 2010.06.03 15:25:27.
