data_PCOD9465584
_publ_section_title
;
Structure prediction by ZEFSAII (Michael W. Deem and Ramdas Pophale) SiO2 
 PCOD9465584
Probable space group: P N M A
;
_chemical_formula_sum "Si O2"
_cell_formula_units_Z 32
_cell_length_a 14.711218
_cell_length_b 10.961053
_cell_length_c 8.815209
_cell_angle_alpha 90.000000
_cell_angle_beta 90.000000
_cell_angle_gamma 90.000000
_cell_volume 1421.456332
_symmetry_space_group_name_H-M "P N M A"
_symmetry_group_IT_number 62
_symmetry_cell_setting 'orthorhombic'
loop_
_space_group_symop_operation_xyz
x,y,z
1/2-x,-y,1/2+z
1/2+x,1/2-y,1/2-z
-x,1/2+y,-z
-x,-y,-z
1/2+x,y,1/2-z
1/2-x,1/2+y,1/2+z
x,1/2-y,z
loop_
_atom_site_type_symbol
_atom_site_label
_atom_site_fract_x
_atom_site_fract_y
_atom_site_fract_z
Si Si1 0.434818 0.250000 0.626734
Si Si2 0.089661 0.989902 0.299417
Si Si3 0.618290 0.250000 0.814455
Si Si4 0.126826 0.989536 0.641900
Si Si5 0.663711 0.750000 0.671905
Si Si6 0.865994 0.750000 0.653193
O O1 0.392997 0.375718 0.691745
O O2 0.537682 0.250000 0.690740
O O3 0.417360 0.250000 0.448643
O O4 0.116006 0.127342 0.253602
O O5 0.981152 0.995747 0.327323
O O6 0.137244 0.972352 0.462276
O O7 0.667195 0.380578 0.804630
O O8 0.578961 0.250000 0.991575
O O9 0.159105 0.871398 0.728760
O O10 0.762453 0.750000 0.596259
#
# Coordination Sequence:
#
# PCOD9465584 Si02
#       6
#     4   8   4   8   4   4
#     4  10  21  36  58  88 114 148 193 242 286 336
#     4   9  18  37  62  79 105 154 200 224 271 350
#     4   8  18  37  60  79 107 150 196 230 274 337
#     4   9  18  36  61  85 108 145 194 239 275 334
#     4  12  24  33  52  91 128 142 176 246 304 327
#     4  10  21  36  56  84 115 152 191 236 284 342
#
# _framework density 22.512122000000002
#
# number of rings (size 3 to 8) (size 9 to 14) (size 15 to 20)
#    0.000    2.500    0.000    3.000    0.000   10.000 
#    0.000    1.250    0.000    6.000    0.000    0.000 
#    0.000    0.000    0.000    0.000    0.000    0.000 
#
# Total GULP energy -178594.477472 kJ/mol
# GULP energy per Si atom -5581.077421 kJ/mol
# Density = 2.246088 g / cm^3
# Si number density = 22.512122 Si / 1000 Ang^3
#
#
#
# Elastic Constant Matrix: (Units=GPa)
#
#
# Indices 1 2 3 4 5 6 
#
# 1 39.2220 -0.7888 -1.0086 0.0000 0.0000 0.0000
# 2 -0.7888 239.5279 57.1333 0.0000 0.0000 0.0000
# 3 -1.0086 57.1333 36.8313 0.0000 0.0000 0.0000
# 4 0.0000 0.0000 0.0000 -23.3039 0.0000 0.0000
# 5 0.0000 0.0000 0.0000 0.0000 8.8531 0.0000
# 6 0.0000 0.0000 0.0000 0.0000 0.0000 1.9343
#
#
#
# Elastic Compliance Matrix: (Units=1/GPa)
#
#
# Indices 1 2 3 4 5 6 
#
# 1 0.025516 -0.000131 0.000902 0.000000 0.000000 0.000000
# 2 -0.000131 0.006627 -0.010284 0.000000 0.000000 0.000000
# 3 0.000902 -0.010284 0.043129 0.000000 0.000000 0.000000
# 4 0.000000 0.000000 0.000000 -0.042911 0.000000 0.000000
# 5 0.000000 0.000000 0.000000 0.000000 0.112955 0.000000
# 6 0.000000 0.000000 0.000000 0.000000 0.000000 0.516978
#
#
# Mechanical properties :
#
#
# Convention : Reuss Voigt Hill
#
# Bulk Modulus (GPa) = 17.77899 47.36144 32.57022
# Shear Modulus (GPa) = 7.14215 14.84639 10.99427
#
# Velocity S-wave (km/s) = 1.78311 2.57083 2.21231
# Velocity P-wave (km/s) = 3.48625 5.46773 4.58530
#
# Compressibility (1/GPa) = 0.05624615
#
# Stress axis : x y z
#
# Youngs Moduli (GPa) = 39.19036 150.88660 23.18646
#
# Poissons Ratio (x) = 0.01979 -0.02092
# Poissons Ratio (y) = 0.00514 0.23846
# Poissons Ratio (z) = -0.03536 1.55176
#
# Static dielectric constant tensor:
#      x y z
#    x 1.890970 0.000000 0.000000 
#    y 0.000000 1.874620 0.000000 
#    z 0.000000 0.000000 1.799380 
# 
# From -- ./inp_files/5889.got.cif
#   From: 2010.05.17/outbox.cif.g08.bks.cpg/sg62_3_cif.got.tgz:5889.got - 2010.06.03 15:25:27.
