data_PCOD9465583
_publ_section_title
;
Structure prediction by ZEFSAII (Michael W. Deem and Ramdas Pophale) SiO2 
 PCOD9465583
Probable space group: P N M A
;
_chemical_formula_sum "Si O2"
_cell_formula_units_Z 48
_cell_length_a 17.577755
_cell_length_b 7.596546
_cell_length_c 17.211364
_cell_angle_alpha 90.000000
_cell_angle_beta 90.000000
_cell_angle_gamma 90.000000
_cell_volume 2298.237298
_symmetry_space_group_name_H-M "P N M A"
_symmetry_group_IT_number 62
_symmetry_cell_setting 'orthorhombic'
loop_
_space_group_symop_operation_xyz
x,y,z
1/2-x,-y,1/2+z
1/2+x,1/2-y,1/2-z
-x,1/2+y,-z
-x,-y,-z
1/2+x,y,1/2-z
1/2-x,1/2+y,1/2+z
x,1/2-y,z
loop_
_atom_site_type_symbol
_atom_site_label
_atom_site_fract_x
_atom_site_fract_y
_atom_site_fract_z
Si Si1 0.845482 0.463044 0.678168
Si Si2 0.317533 0.034249 0.646572
Si Si3 0.504148 0.961696 0.090953
Si Si4 0.851291 0.954226 0.331499
Si Si5 0.410987 0.038666 0.497519
Si Si6 0.826962 0.456804 0.155642
O O1 0.844982 0.250000 0.677101
O O2 0.848458 0.518293 0.768655
O O3 0.763648 0.520544 0.645712
O O4 0.917867 0.527458 0.629904
O O5 0.316640 0.250000 0.646592
O O6 0.230037 0.971554 0.641325
O O7 0.368150 0.973899 0.574699
O O8 0.505415 0.750000 0.101338
O O9 0.428128 0.031530 0.133023
O O10 0.500000 0.000000 0.000000
O O11 0.850166 0.750000 0.355518
O O12 0.850146 0.961166 0.238031
O O13 0.401409 0.250000 0.497001
O O14 0.372042 0.971575 0.418526
O O15 0.500000 0.000000 0.500000
O O16 0.843330 0.250000 0.162943
#
# Coordination Sequence:
#
# PCOD9465583 Si02
#       6
#     8   8   8   8   8   8
#     4   9  19  37  58  81 108 145 190 224 264 330
#     4   8  16  34  57  77 102 139 183 222 257 316
#     4  10  22  36  57  87 113 145 186 228 276 330
#     4   9  19  37  61  81 105 148 190 221 269 334
#     4  10  22  36  55  82 110 142 181 226 275 325
#     4  10  21  36  56  84 114 143 180 229 283 325
#
# _framework density 20.885570999999999
#
# number of rings (size 3 to 8) (size 9 to 14) (size 15 to 20)
#    0.000    2.667    0.000    1.500    4.667    2.667 
#    0.000    3.333    0.000    0.000    0.000    0.000 
#    0.000    0.000    0.000    0.000    0.000    0.000 
#
# Total GULP energy -267964.129817 kJ/mol
# GULP energy per Si atom -5582.586038 kJ/mol
# Density = 2.083803 g / cm^3
# Si number density = 20.885571 Si / 1000 Ang^3
#
#
#
# Elastic Constant Matrix: (Units=GPa)
#
#
# Indices 1 2 3 4 5 6 
#
# 1 192.0061 -10.8858 131.8627 0.0000 0.0000 0.0000
# 2 -10.8858 41.6487 -13.7323 0.0000 0.0000 0.0000
# 3 131.8627 -13.7323 134.6510 0.0000 0.0000 0.0000
# 4 0.0000 0.0000 0.0000 19.4097 0.0000 0.0000
# 5 0.0000 0.0000 0.0000 0.0000 35.2148 0.0000
# 6 0.0000 0.0000 0.0000 0.0000 0.0000 17.1620
#
#
#
# Elastic Compliance Matrix: (Units=1/GPa)
#
#
# Indices 1 2 3 4 5 6 
#
# 1 0.015946 -0.001015 -0.015720 0.000000 0.000000 0.000000
# 2 -0.001015 0.024910 0.003535 0.000000 0.000000 0.000000
# 3 -0.015720 0.003535 0.023181 0.000000 0.000000 0.000000
# 4 0.000000 0.000000 0.000000 0.051521 0.000000 0.000000
# 5 0.000000 0.000000 0.000000 0.000000 0.028397 0.000000
# 6 0.000000 0.000000 0.000000 0.000000 0.000000 0.058268
#
#
# Mechanical properties :
#
#
# Convention : Reuss Voigt Hill
#
# Bulk Modulus (GPa) = 26.56916 64.75501 45.66208
# Shear Modulus (GPa) = 20.73228 31.76137 26.24683
#
# Velocity S-wave (km/s) = 3.15407 3.90389 3.54884
# Velocity P-wave (km/s) = 5.10031 7.16885 6.22116
#
# Compressibility (1/GPa) = 0.03763763
#
# Stress axis : x y z
#
# Youngs Moduli (GPa) = 62.71088 40.14377 43.13864
#
# Poissons Ratio (x) = 0.04075 0.67812
# Poissons Ratio (y) = 0.06366 -0.15248
# Poissons Ratio (z) = 0.98578 -0.14189
#
# Static dielectric constant tensor:
#      x y z
#    x 1.731340 0.000000 0.000000 
#    y 0.000000 1.765170 0.000000 
#    z 0.000000 0.000000 1.716210 
# 
# From -- ./inp_files/19551.got.cif
#   From: 2010.05.17/outbox.cif.g08.bks.cpg/sg62_10_cif.got.tgz:19551.got - 2010.06.03 15:25:27.
