data_PCOD9465493
_publ_section_title
;
Structure prediction by ZEFSAII (Michael W. Deem and Ramdas Pophale) SiO2 
 PCOD9465493
Probable space group: P N M A
;
_chemical_formula_sum "Si O2"
_cell_formula_units_Z 56
_cell_length_a 24.000610
_cell_length_b 8.374347
_cell_length_c 14.330475
_cell_angle_alpha 90.000000
_cell_angle_beta 90.000000
_cell_angle_gamma 90.000000
_cell_volume 2880.274093
_symmetry_space_group_name_H-M "P N M A"
_symmetry_group_IT_number 62
_symmetry_cell_setting 'orthorhombic'
loop_
_space_group_symop_operation_xyz
x,y,z
1/2-x,-y,1/2+z
1/2+x,1/2-y,1/2-z
-x,1/2+y,-z
-x,-y,-z
1/2+x,y,1/2-z
1/2-x,1/2+y,1/2+z
x,1/2-y,z
loop_
_atom_site_type_symbol
_atom_site_label
_atom_site_fract_x
_atom_site_fract_y
_atom_site_fract_z
Si Si1 0.440690 0.942129 0.035293
Si Si2 0.567757 0.056642 0.595129
Si Si3 0.123693 0.444705 0.716855
Si Si4 0.766779 0.942354 0.393258
Si Si5 0.170189 0.444895 0.426508
Si Si6 0.836744 0.939860 0.782191
Si Si7 0.439220 0.059964 0.610062
O O1 0.441418 0.750000 0.036035
O O2 0.422147 0.993741 0.139378
O O3 0.390250 0.991854 0.967040
O O4 0.500000 0.000000 0.000000
O O5 0.569336 0.250000 0.589880
O O6 0.607079 0.002569 0.679751
O O7 0.503774 0.008767 0.617510
O O8 0.581100 0.989589 0.493243
O O9 0.123792 0.250000 0.717879
O O10 0.183732 0.495411 0.677184
O O11 0.767516 0.750000 0.393894
O O12 0.784474 0.996820 0.496889
O O13 0.707742 0.998019 0.356509
O O14 0.171160 0.250000 0.425310
O O15 0.177443 0.502641 0.321317
O O16 0.833091 0.750000 0.779838
O O17 0.898498 0.987281 0.813541
O O18 0.437614 0.250000 0.618250
#
# Coordination Sequence:
#
# PCOD9465493 Si02
#       7
#     8   8   8   8   8   8   8
#     4   9  17  31  51  77 106 138 172 209 259 318
#     4   9  18  35  56  78 107 141 178 221 267 318
#     4   8  16  32  55  77 102 138 175 215 268 322
#     4   9  18  37  58  76 102 137 180 222 266 318
#     4   8  18  36  54  74 106 142 172 211 267 323
#     4  11  22  36  55  78 107 143 180 220 268 319
#     4  10  21  35  52  78 109 140 178 221 267 319
#
# _framework density 19.442595000000001
#
# number of rings (size 3 to 8) (size 9 to 14) (size 15 to 20)
#    0.000    2.857    0.000    2.571    2.000    1.714 
#    0.000    9.286    0.000    0.000    0.000    0.000 
#    0.000    0.000    0.000    0.000    0.000    0.000 
#
# Total GULP energy -312342.394161 kJ/mol
# GULP energy per Si atom -5577.542753 kJ/mol
# Density = 1.939834 g / cm^3
# Si number density = 19.442595 Si / 1000 Ang^3
#
#
#
# Elastic Constant Matrix: (Units=GPa)
#
#
# Indices 1 2 3 4 5 6 
#
# 1 29.2939 6.4966 19.3591 0.0000 0.0000 0.0000
# 2 6.4966 6.6374 9.1966 0.0000 0.0000 0.0000
# 3 19.3591 9.1966 91.4406 0.0000 0.0000 0.0000
# 4 0.0000 0.0000 0.0000 19.3867 0.0000 0.0000
# 5 0.0000 0.0000 0.0000 0.0000 19.9589 0.0000
# 6 0.0000 0.0000 0.0000 0.0000 0.0000 25.3257
#
#
#
# Elastic Compliance Matrix: (Units=1/GPa)
#
#
# Indices 1 2 3 4 5 6 
#
# 1 0.046356 -0.036919 -0.006101 0.000000 0.000000 0.000000
# 2 -0.036919 0.204459 -0.012747 0.000000 0.000000 0.000000
# 3 -0.006101 -0.012747 0.013510 0.000000 0.000000 0.000000
# 4 0.000000 0.000000 0.000000 0.051582 0.000000 0.000000
# 5 0.000000 0.000000 0.000000 0.000000 0.050103 0.000000
# 6 0.000000 0.000000 0.000000 0.000000 0.000000 0.039486
#
#
# Mechanical properties :
#
#
# Convention : Reuss Voigt Hill
#
# Bulk Modulus (GPa) = 6.54492 21.94183 14.24337
# Shear Modulus (GPa) = 8.80343 19.08890 13.94616
#
# Velocity S-wave (km/s) = 2.13020 3.13678 2.68115
# Velocity P-wave (km/s) = 3.06984 4.94258 4.11419
#
# Compressibility (1/GPa) = 0.15279035
#
# Stress axis : x y z
#
# Youngs Moduli (GPa) = 21.57200 4.89095 74.02043
#
# Poissons Ratio (x) = 0.18057 0.45161
# Poissons Ratio (y) = 0.79642 0.94355
# Poissons Ratio (z) = 0.13161 0.06235
#
# Static dielectric constant tensor:
#      x y z
#    x 1.660510 0.000000 0.000000 
#    y 0.000000 1.674630 0.000000 
#    z 0.000000 0.000000 1.691400 
# 
# From -- ./inp_files/20334.got.cif
#   From: 2010.05.17/outbox.cif.g08.bks.cpg/sg62_11_cif.got.tgz:20334.got - 2010.06.03 15:25:27.
