data_PCOD9465485
_publ_section_title
;
Structure prediction by ZEFSAII (Michael W. Deem and Ramdas Pophale) SiO2 
 PCOD9465485
Probable space group: P N M A
;
_chemical_formula_sum "Si O2"
_cell_formula_units_Z 56
_cell_length_a 13.789015
_cell_length_b 15.745967
_cell_length_c 11.836194
_cell_angle_alpha 90.000000
_cell_angle_beta 90.000000
_cell_angle_gamma 90.000000
_cell_volume 2569.890718
_symmetry_space_group_name_H-M "P N M A"
_symmetry_group_IT_number 62
_symmetry_cell_setting 'orthorhombic'
loop_
_space_group_symop_operation_xyz
x,y,z
1/2-x,-y,1/2+z
1/2+x,1/2-y,1/2-z
-x,1/2+y,-z
-x,-y,-z
1/2+x,y,1/2-z
1/2-x,1/2+y,1/2+z
x,1/2-y,z
loop_
_atom_site_type_symbol
_atom_site_label
_atom_site_fract_x
_atom_site_fract_y
_atom_site_fract_z
Si Si1 0.445718 0.657496 0.242835
Si Si2 0.232299 0.024938 0.134793
Si Si3 0.750385 0.656212 0.406234
Si Si4 0.465562 0.007884 0.126841
Si Si5 0.257376 0.847111 0.832771
Si Si6 0.527091 0.845650 0.704495
Si Si7 0.881371 0.652575 0.001250
O O1 0.492992 0.750000 0.228605
O O2 0.342920 0.661197 0.176082
O O3 0.498428 0.577031 0.191124
O O4 0.422319 0.642744 0.373635
O O5 0.208608 0.080766 0.245829
O O6 0.192552 0.928674 0.128213
O O7 0.348347 0.014536 0.129292
O O8 0.196898 0.081707 0.030071
O O9 0.701671 0.750000 0.404033
O O10 0.784721 0.642601 0.536086
O O11 0.498312 0.089509 0.196859
O O12 0.500000 0.000000 0.000000
O O13 0.283222 0.750000 0.797138
O O14 0.140195 0.853136 0.827631
O O15 0.510742 0.750000 0.745048
O O16 0.465249 0.858883 0.591696
O O17 0.844320 0.750000 0.991234
#
# Coordination Sequence:
#
# PCOD9465485 Si02
#       7
#     8   8   8   8   8   8   8
#     4   9  20  39  58  81 120 157 193 244 301 361
#     4  10  21  34  60  85 118 149 196 245 296 342
#     4   9  19  35  57  81 113 154 192 234 292 354
#     4  10  22  40  57  88 121 156 202 245 294 357
#     4   9  18  36  58  84 116 151 195 243 290 350
#     4   9  20  38  61  87 118 154 196 247 299 352
#     4  10  21  38  60  88 117 153 199 249 305 359
#
# _framework density 21.790808999999999
#
# number of rings (size 3 to 8) (size 9 to 14) (size 15 to 20)
#    0.000    2.571    0.000    0.429    6.000    4.000 
#    0.000    4.286    0.000    0.000    0.000    0.000 
#    0.000    0.000    0.000    0.000    0.000    0.000 
#
# Total GULP energy -312766.696380 kJ/mol
# GULP energy per Si atom -5585.119578 kJ/mol
# Density = 2.174121 g / cm^3
# Si number density = 21.790809 Si / 1000 Ang^3
#
#
#
# Elastic Constant Matrix: (Units=GPa)
#
#
# Indices 1 2 3 4 5 6 
#
# 1 44.6603 11.8408 15.2275 0.0000 0.0000 0.0000
# 2 11.8408 192.6600 114.1481 0.0000 0.0000 0.0000
# 3 15.2275 114.1481 161.4542 0.0000 0.0000 0.0000
# 4 0.0000 0.0000 0.0000 39.6187 0.0000 0.0000
# 5 0.0000 0.0000 0.0000 0.0000 13.7292 0.0000
# 6 0.0000 0.0000 0.0000 0.0000 0.0000 -10.8981
#
#
#
# Elastic Compliance Matrix: (Units=1/GPa)
#
#
# Indices 1 2 3 4 5 6 
#
# 1 0.023141 -0.000222 -0.002025 0.000000 0.000000 0.000000
# 2 -0.000222 0.008934 -0.006295 0.000000 0.000000 0.000000
# 3 -0.002025 -0.006295 0.010836 0.000000 0.000000 0.000000
# 4 0.000000 0.000000 0.000000 0.025241 0.000000 0.000000
# 5 0.000000 0.000000 0.000000 0.000000 0.072838 0.000000
# 6 0.000000 0.000000 0.000000 0.000000 0.000000 -0.091760
#
#
# Mechanical properties :
#
#
# Convention : Reuss Voigt Hill
#
# Bulk Modulus (GPa) = 38.72313 75.68969 57.20641
# Shear Modulus (GPa) = 66.73469 25.66050 46.19759
#
# Velocity S-wave (km/s) = 5.54000 3.43532 4.60939
# Velocity P-wave (km/s) = 7.66363 7.10952 7.39177
#
# Compressibility (1/GPa) = 0.02582436
#
# Stress axis : x y z
#
# Youngs Moduli (GPa) = 43.21375 111.93050 92.28811
#
# Poissons Ratio (x) = 0.02487 0.18692
# Poissons Ratio (y) = 0.00960 0.58100
# Poissons Ratio (z) = 0.08753 0.70465
#
# Static dielectric constant tensor:
#      x y z
#    x 1.816990 0.000000 0.000000 
#    y 0.000000 1.862250 0.000000 
#    z 0.000000 0.000000 1.745380 
# 
# From -- ./inp_files/13364.got.cif
#   From: 2010.05.17/outbox.cif.g08.bks.cpg/sg62_7_cif.got.tgz:13364.got - 2010.06.03 15:25:27.
