data_PCOD9465337
_publ_section_title
;
Structure prediction by ZEFSAII (Michael W. Deem and Ramdas Pophale) SiO2 
 PCOD9465337
Probable space group: P N M A
;
_chemical_formula_sum "Si O2"
_cell_formula_units_Z 40
_cell_length_a 7.739172
_cell_length_b 19.759115
_cell_length_c 11.476819
_cell_angle_alpha 90.000000
_cell_angle_beta 90.000000
_cell_angle_gamma 90.000000
_cell_volume 1755.025860
_symmetry_space_group_name_H-M "P N M A"
_symmetry_group_IT_number 62
_symmetry_cell_setting 'orthorhombic'
loop_
_space_group_symop_operation_xyz
x,y,z
1/2-x,-y,1/2+z
1/2+x,1/2-y,1/2-z
-x,1/2+y,-z
-x,-y,-z
1/2+x,y,1/2-z
1/2-x,1/2+y,1/2+z
x,1/2-y,z
loop_
_atom_site_type_symbol
_atom_site_label
_atom_site_fract_x
_atom_site_fract_y
_atom_site_fract_z
Si Si1 0.387246 0.107918 0.763356
Si Si2 0.558298 0.406503 0.127171
Si Si3 0.722087 0.170687 0.340931
Si Si4 0.177847 0.460743 0.602093
Si Si5 0.098481 0.173434 0.912973
O O1 0.553568 0.095754 0.841210
O O2 0.345295 0.042609 0.683288
O O3 0.237771 0.124422 0.854014
O O4 0.427840 0.163431 0.664614
O O5 0.415237 0.346542 0.112378
O O6 0.666047 0.379311 0.237255
O O7 0.425472 0.470319 0.121049
O O8 0.692944 0.433920 0.029169
O O9 0.714703 0.250000 0.306031
O O10 0.592084 0.160094 0.449917
O O11 0.161201 0.250000 0.900111
#
# Coordination Sequence:
#
# PCOD9465337 Si02
#       5
#     8   8   8   8   8
#     4  10  20  40  60  91 119 158 209 254 316 368
#     4  11  23  42  61  91 123 164 206 256 316 375
#     4  11  24  42  62  91 127 165 211 260 314 379
#     4  10  22  40  65  89 123 159 207 260 312 375
#     4  10  21  38  61  88 123 161 206 257 307 373
#
# _framework density 22.791688000000001
#
# number of rings (size 3 to 8) (size 9 to 14) (size 15 to 20)
#    0.000    1.600    2.000    2.400    2.800    0.000 
#    0.000    5.000    0.000    0.000    0.000    0.000 
#    0.000    0.000    0.000    0.000    0.000    0.000 
#
# Total GULP energy -222753.270967 kJ/mol
# GULP energy per Si atom -5568.831774 kJ/mol
# Density = 2.273981 g / cm^3
# Si number density = 22.791688 Si / 1000 Ang^3
#
#
#
# Elastic Constant Matrix: (Units=GPa)
#
#
# Indices 1 2 3 4 5 6 
#
# 1 25.9793 -3.8094 6.7527 0.0000 0.0000 0.0000
# 2 -3.8094 78.5746 49.9183 0.0000 0.0000 0.0000
# 3 6.7527 49.9183 112.8679 0.0000 0.0000 0.0000
# 4 0.0000 0.0000 0.0000 7.6769 0.0000 0.0000
# 5 0.0000 0.0000 0.0000 0.0000 23.4344 0.0000
# 6 0.0000 0.0000 0.0000 0.0000 0.0000 27.7959
#
#
#
# Elastic Compliance Matrix: (Units=1/GPa)
#
#
# Indices 1 2 3 4 5 6 
#
# 1 0.040391 0.004859 -0.004565 0.000000 0.000000 0.000000
# 2 0.004859 0.018284 -0.008377 0.000000 0.000000 0.000000
# 3 -0.004565 -0.008377 0.012838 0.000000 0.000000 0.000000
# 4 0.000000 0.000000 0.000000 0.130261 0.000000 0.000000
# 5 0.000000 0.000000 0.000000 0.000000 0.042672 0.000000
# 6 0.000000 0.000000 0.000000 0.000000 0.000000 0.035977
#
#
# Mechanical properties :
#
#
# Convention : Reuss Voigt Hill
#
# Bulk Modulus (GPa) = 18.06830 35.90500 26.98665
# Shear Modulus (GPa) = 15.87099 22.75212 19.31155
#
# Velocity S-wave (km/s) = 2.64171 3.16296 2.91401
# Velocity P-wave (km/s) = 4.15327 5.39693 4.81542
#
# Compressibility (1/GPa) = 0.05534556
#
# Stress axis : x y z
#
# Youngs Moduli (GPa) = 24.75780 54.69133 77.89303
#
# Poissons Ratio (x) = -0.26572 0.35561
# Poissons Ratio (y) = -0.12029 0.65254
# Poissons Ratio (z) = 0.11303 0.45817
#
# Static dielectric constant tensor:
#      x y z
#    x 1.988110 0.000000 0.000000 
#    y 0.000000 1.879960 0.000000 
#    z 0.000000 0.000000 1.882750 
# 
# From -- ./inp_files/4272.got.cif
#   From: 2010.05.17/outbox.cif.g08.bks.cpg/sg62_3_cif.got.tgz:4272.got - 2010.06.03 15:25:27.
