data_PCOD9465878
_publ_section_title
;
Structure prediction by ZEFSAII (Michael W. Deem and Ramdas Pophale) SiO2 
 PCOD9465878
Probable space group: P N M A
;
_chemical_formula_sum "Si O2"
_cell_formula_units_Z 40
_cell_length_a 22.031482
_cell_length_b 13.952545
_cell_length_c 4.955094
_cell_angle_alpha 90.000000
_cell_angle_beta 90.000000
_cell_angle_gamma 90.000000
_cell_volume 1523.172329
_symmetry_space_group_name_H-M "P N M A"
_symmetry_group_IT_number 62
_symmetry_cell_setting 'orthorhombic'
loop_
_space_group_symop_operation_xyz
x,y,z
1/2-x,-y,1/2+z
1/2+x,1/2-y,1/2-z
-x,1/2+y,-z
-x,-y,-z
1/2+x,y,1/2-z
1/2-x,1/2+y,1/2+z
x,1/2-y,z
loop_
_atom_site_type_symbol
_atom_site_label
_atom_site_fract_x
_atom_site_fract_y
_atom_site_fract_z
Si Si1 0.908248 0.142986 0.621792
Si Si2 0.483411 0.610902 0.500851
Si Si3 0.727032 0.636501 0.329621
Si Si4 0.585497 0.424348 0.997673
Si Si5 0.297642 0.864307 0.670041
O O1 0.905531 0.250000 0.486070
O O2 0.841651 0.121996 0.741700
O O3 0.957597 0.153165 0.860332
O O4 0.923366 0.040341 0.479271
O O5 0.500000 0.500000 0.500000
O O6 0.462790 0.629503 0.804407
O O7 0.426229 0.620714 0.295649
O O8 0.736494 0.750000 0.306991
O O9 0.739699 0.615418 0.639353
O O10 0.777473 0.596856 0.121002
O O11 0.647264 0.407083 0.159223
O O12 0.308424 0.750000 0.657549
#
# Coordination Sequence:
#
# PCOD9465878 Si02
#       5
#     8   8   8   8   8
#     4  10  22  40  62  88 120 156 195 243 296 351
#     4  10  22  41  60  85 118 153 195 246 295 350
#     4   9  20  37  58  86 119 156 198 242 292 350
#     4  11  23  40  63  89 119 155 199 245 294 354
#     4  10  21  38  59  86 121 158 199 246 293 347
#
# _framework density 26.260981000000001
#
# number of rings (size 3 to 8) (size 9 to 14) (size 15 to 20)
#    0.000    2.000    0.000    3.600    0.000    8.000 
#    0.000   14.000    0.000    0.000    0.000    0.000 
#    0.000    0.000    0.000    0.000    0.000    0.000 
#
# Total GULP energy -223396.479839 kJ/mol
# GULP energy per Si atom -5584.911996 kJ/mol
# Density = 2.620121 g / cm^3
# Si number density = 26.260981 Si / 1000 Ang^3
#
#
#
# Elastic Constant Matrix: (Units=GPa)
#
#
# Indices 1 2 3 4 5 6 
#
# 1 79.9448 4.3066 -5.9272 0.0000 0.0000 0.0000
# 2 4.3066 149.6561 4.5059 0.0000 0.0000 0.0000
# 3 -5.9272 4.5059 83.2791 0.0000 0.0000 0.0000
# 4 0.0000 0.0000 0.0000 9.1258 0.0000 0.0000
# 5 0.0000 0.0000 0.0000 0.0000 -8.7648 0.0000
# 6 0.0000 0.0000 0.0000 0.0000 0.0000 36.5481
#
#
#
# Elastic Compliance Matrix: (Units=1/GPa)
#
#
# Indices 1 2 3 4 5 6 
#
# 1 0.012598 -0.000390 0.000918 0.000000 0.000000 0.000000
# 2 -0.000390 0.006705 -0.000391 0.000000 0.000000 0.000000
# 3 0.000918 -0.000391 0.012094 0.000000 0.000000 0.000000
# 4 0.000000 0.000000 0.000000 0.109580 0.000000 0.000000
# 5 0.000000 0.000000 0.000000 0.000000 -0.114093 0.000000
# 6 0.000000 0.000000 0.000000 0.000000 0.000000 0.027361
#
#
# Mechanical properties :
#
#
# Convention : Reuss Voigt Hill
#
# Bulk Modulus (GPa) = 31.57468 35.40565 33.49017
# Shear Modulus (GPa) = 77.48595 28.04813 52.76704
#
# Velocity S-wave (km/s) = 5.43785 3.27165 4.48742
# Velocity P-wave (km/s) = 7.17471 5.27097 6.29522
#
# Compressibility (1/GPa) = 0.03167094
#
# Stress axis : x y z
#
# Youngs Moduli (GPa) = 79.37964 149.14308 82.68386
#
# Poissons Ratio (x) = 0.05819 -0.07588
# Poissons Ratio (y) = 0.03097 0.03229
# Poissons Ratio (z) = -0.07285 0.05825
#
# Static dielectric constant tensor:
#      x y z
#    x 2.062180 0.000000 0.000000 
#    y 0.000000 2.077300 0.000000 
#    z 0.000000 0.000000 2.092210 
# 
# From -- ./inp_files/2139.got.cif
#   From: 2010.05.17/outbox.cif.g08.bks.cpg/sg62_2_cif.got.tgz:2139.got - 2010.06.03 15:25:27.
