data_PCOD9465310
_publ_section_title
;
Structure prediction by ZEFSAII (Michael W. Deem and Ramdas Pophale) SiO2 
 PCOD9465310
Probable space group: P N M A
;
_chemical_formula_sum "Si O2"
_cell_formula_units_Z 64
_cell_length_a 25.682665
_cell_length_b 12.618378
_cell_length_c 8.046855
_cell_angle_alpha 90.000000
_cell_angle_beta 90.000000
_cell_angle_gamma 90.000000
_cell_volume 2607.773067
_symmetry_space_group_name_H-M "P N M A"
_symmetry_group_IT_number 62
_symmetry_cell_setting 'orthorhombic'
loop_
_space_group_symop_operation_xyz
x,y,z
1/2-x,-y,1/2+z
1/2+x,1/2-y,1/2-z
-x,1/2+y,-z
-x,-y,-z
1/2+x,y,1/2-z
1/2-x,1/2+y,1/2+z
x,1/2-y,z
loop_
_atom_site_type_symbol
_atom_site_label
_atom_site_fract_x
_atom_site_fract_y
_atom_site_fract_z
Si Si1 0.456460 0.867914 0.138302
Si Si2 0.577562 0.631967 0.636645
Si Si3 0.759235 0.551321 0.397694
Si Si4 0.466659 0.877111 0.521541
Si Si5 0.676687 0.018768 0.618992
Si Si6 0.864757 0.874195 0.795930
Si Si7 0.432060 0.089181 0.986880
Si Si8 0.678731 0.934699 0.114905
O O1 0.439956 0.750000 0.086857
O O2 0.445427 0.883833 0.333321
O O3 0.434891 0.963230 0.027900
O O4 0.518969 0.876874 0.120922
O O5 0.589386 0.750000 0.574097
O O6 0.526468 0.587121 0.543939
O O7 0.627664 0.558054 0.629366
O O8 0.561763 0.636800 0.829722
O O9 0.808630 0.585344 0.283198
O O10 0.726861 0.555432 0.571347
O O11 0.786499 0.436888 0.449318
O O12 0.713250 0.591407 0.274265
O O13 0.471044 0.750000 0.552162
O O14 0.423454 0.911739 0.656100
O O15 0.666928 0.095795 0.463361
O O16 0.863918 0.750000 0.764165
O O17 0.837718 0.942718 0.653101
O O18 0.376545 0.119641 0.910562
#
# Coordination Sequence:
#
# PCOD9465310 Si02
#       8
#     8   8   8   8   8   8   8   8
#     4  10  23  40  58  91 134 168 213 256 304 388
#     4  11  23  40  63  93 127 164 212 256 309 382
#     4   9  20  40  63  86 120 158 207 268 318 369
#     4   9  21  38  58  87 125 163 199 249 300 367
#     4  10  20  39  65  88 120 166 203 259 325 371
#     4  10  22  39  62  92 125 162 204 253 310 378
#     4  11  23  37  63  94 122 174 206 257 329 368
#     4  10  21  39  64  90 117 164 210 257 320 377
#
# _framework density 24.542012
#
# number of rings (size 3 to 8) (size 9 to 14) (size 15 to 20)
#    0.000    2.000    1.250    1.125    7.000    1.500 
#    0.000    6.875    0.000    1.500    0.000    0.000 
#    0.000    0.000    0.000    0.000    0.000    0.000 
#
# Total GULP energy -356491.419097 kJ/mol
# GULP energy per Si atom -5570.178423 kJ/mol
# Density = 2.448615 g / cm^3
# Si number density = 24.542012 Si / 1000 Ang^3
#
#
#
# Elastic Constant Matrix: (Units=GPa)
#
#
# Indices 1 2 3 4 5 6 
#
# 1 143.9825 21.9620 14.8935 0.0000 0.0000 0.0000
# 2 21.9620 100.0597 6.9273 0.0000 0.0000 0.0000
# 3 14.8935 6.9273 85.6331 0.0000 0.0000 0.0000
# 4 0.0000 0.0000 0.0000 9.6036 0.0000 0.0000
# 5 0.0000 0.0000 0.0000 0.0000 50.5991 0.0000
# 6 0.0000 0.0000 0.0000 0.0000 0.0000 4.7048
#
#
#
# Elastic Compliance Matrix: (Units=1/GPa)
#
#
# Indices 1 2 3 4 5 6 
#
# 1 0.007296 -0.001522 -0.001146 0.000000 0.000000 0.000000
# 2 -0.001522 0.010368 -0.000574 0.000000 0.000000 0.000000
# 3 -0.001146 -0.000574 0.011923 0.000000 0.000000 0.000000
# 4 0.000000 0.000000 0.000000 0.104127 0.000000 0.000000
# 5 0.000000 0.000000 0.000000 0.000000 0.019763 0.000000
# 6 0.000000 0.000000 0.000000 0.000000 0.000000 0.212551
#
#
# Mechanical properties :
#
#
# Convention : Reuss Voigt Hill
#
# Bulk Modulus (GPa) = 43.28338 46.36010 44.82174
# Shear Modulus (GPa) = 13.15050 32.04099 22.59575
#
# Velocity S-wave (km/s) = 2.31733 3.61717 3.03759
# Velocity P-wave (km/s) = 4.98345 6.03128 5.53223
#
# Compressibility (1/GPa) = 0.02310356
#
# Stress axis : x y z
#
# Youngs Moduli (GPa) = 137.06187 96.45200 83.86845
#
# Poissons Ratio (x) = 0.14681 0.09610
# Poissons Ratio (y) = 0.20862 0.04814
# Poissons Ratio (z) = 0.15705 0.05536
#
# Static dielectric constant tensor:
#      x y z
#    x 2.040870 0.000000 0.000000 
#    y 0.000000 2.017330 0.000000 
#    z 0.000000 0.000000 1.990140 
# 
# From -- ./inp_files/9499.got.cif
#   From: 2010.05.17/outbox.cif.g08.bks.cpg/sg62_5_cif.got.tgz:9499.got - 2010.06.03 15:25:27.
