data_PCOD9465332
_publ_section_title
;
Structure prediction by ZEFSAII (Michael W. Deem and Ramdas Pophale) SiO2 
 PCOD9465332
Probable space group: P N M A
;
_chemical_formula_sum "Si O2"
_cell_formula_units_Z 48
_cell_length_a 13.106239
_cell_length_b 28.633351
_cell_length_c 5.200833
_cell_angle_alpha 90.000000
_cell_angle_beta 90.000000
_cell_angle_gamma 90.000000
_cell_volume 1951.745421
_symmetry_space_group_name_H-M "P N M A"
_symmetry_group_IT_number 62
_symmetry_cell_setting 'orthorhombic'
loop_
_space_group_symop_operation_xyz
x,y,z
1/2-x,-y,1/2+z
1/2+x,1/2-y,1/2-z
-x,1/2+y,-z
-x,-y,-z
1/2+x,y,1/2-z
1/2-x,1/2+y,1/2+z
x,1/2-y,z
loop_
_atom_site_type_symbol
_atom_site_label
_atom_site_fract_x
_atom_site_fract_y
_atom_site_fract_z
Si Si1 0.685079 0.994296 0.577045
Si Si2 0.770393 0.856381 0.284174
Si Si3 0.741954 0.750000 0.191120
Si Si4 0.442138 0.919284 0.251402
Si Si5 0.868603 0.086264 0.443016
Si Si6 0.443548 0.347242 0.408119
Si Si7 0.099080 0.750000 0.815306
O O1 0.604684 0.035245 0.616306
O O2 0.726332 0.993051 0.287514
O O3 0.647862 0.945260 0.692575
O O4 0.793657 0.802730 0.190834
O O5 0.859208 0.888508 0.411117
O O6 0.667766 0.851255 0.455172
O O7 0.734039 0.893100 0.062947
O O8 0.686460 0.750000 0.467382
O O9 0.658096 0.750000 0.958408
O O10 0.478099 0.880141 0.451512
O O11 0.544794 0.937467 0.114262
O O12 0.926218 0.133847 0.374807
O O13 0.470143 0.294201 0.373459
#
# Coordination Sequence:
#
# PCOD9465332 Si02
#       7
#     8   8   4   8   8   8   4
#     4  12  27  46  72  99 137 185 229 286 350 419
#     4  10  21  43  64  97 135 181 228 281 350 409
#     4  10  20  39  71  94 131 182 226 274 336 415
#     4  11  25  42  66 102 136 179 233 290 342 420
#     4  11  23  42  69  95 136 182 226 288 349 412
#     4  10  23  40  69  97 136 181 225 285 345 416
#     4  10  20  41  67  98 133 178 222 272 348 397
#
# _framework density 24.593374000000001
#
# number of rings (size 3 to 8) (size 9 to 14) (size 15 to 20)
#    0.000    1.333    3.333    1.500    4.667    2.667 
#    0.000    1.667    0.000    0.000    0.000    0.000 
#    0.000    0.000    0.000    0.000    0.000    0.000 
#
# Total GULP energy -267781.861742 kJ/mol
# GULP energy per Si atom -5578.788786 kJ/mol
# Density = 2.453740 g / cm^3
# Si number density = 24.593374 Si / 1000 Ang^3
#
#
#
# Elastic Constant Matrix: (Units=GPa)
#
#
# Indices 1 2 3 4 5 6 
#
# 1 68.1813 38.4981 7.2958 0.0000 0.0000 0.0000
# 2 38.4981 172.5833 -7.5879 0.0000 0.0000 0.0000
# 3 7.2958 -7.5879 19.6323 0.0000 0.0000 0.0000
# 4 0.0000 0.0000 0.0000 31.3437 0.0000 0.0000
# 5 0.0000 0.0000 0.0000 0.0000 17.7694 0.0000
# 6 0.0000 0.0000 0.0000 0.0000 0.0000 38.8875
#
#
#
# Elastic Compliance Matrix: (Units=1/GPa)
#
#
# Indices 1 2 3 4 5 6 
#
# 1 0.018048 -0.004396 -0.008406 0.000000 0.000000 0.000000
# 2 -0.004396 0.006965 0.004326 0.000000 0.000000 0.000000
# 3 -0.008406 0.004326 0.055732 0.000000 0.000000 0.000000
# 4 0.000000 0.000000 0.000000 0.031904 0.000000 0.000000
# 5 0.000000 0.000000 0.000000 0.000000 0.056276 0.000000
# 6 0.000000 0.000000 0.000000 0.000000 0.000000 0.025715
#
#
# Mechanical properties :
#
#
# Convention : Reuss Voigt Hill
#
# Bulk Modulus (GPa) = 15.67565 37.42321 26.54943
# Shear Modulus (GPa) = 21.47230 32.41286 26.94258
#
# Velocity S-wave (km/s) = 2.95802 3.63430 3.31346
# Velocity P-wave (km/s) = 4.24903 5.73242 5.04554
#
# Compressibility (1/GPa) = 0.06379322
#
# Stress axis : x y z
#
# Youngs Moduli (GPa) = 55.40714 143.57487 17.94291
#
# Poissons Ratio (x) = 0.63110 0.15083
# Poissons Ratio (y) = 0.24355 -0.07761
# Poissons Ratio (z) = 0.46576 -0.62104
#
# Static dielectric constant tensor:
#      x y z
#    x 2.138020 0.000000 0.000000 
#    y 0.000000 1.992010 0.000000 
#    z 0.000000 0.000000 1.992630 
# 
# From -- ./inp_files/1193.got.cif
#   From: 2010.05.17/outbox.cif.g08.bks.cpg/sg62_1_cif.got.tgz:1193.got - 2010.06.03 15:25:27.
