data_PCOD9465216
_publ_section_title
;
Structure prediction by ZEFSAII (Michael W. Deem and Ramdas Pophale) SiO2 
 PCOD9465216
Probable space group: P N M A
;
_chemical_formula_sum "Si O2"
_cell_formula_units_Z 48
_cell_length_a 8.206475
_cell_length_b 27.283685
_cell_length_c 9.593609
_cell_angle_alpha 90.000000
_cell_angle_beta 90.000000
_cell_angle_gamma 90.000000
_cell_volume 2148.036674
_symmetry_space_group_name_H-M "P N M A"
_symmetry_group_IT_number 62
_symmetry_cell_setting 'orthorhombic'
loop_
_space_group_symop_operation_xyz
x,y,z
1/2-x,-y,1/2+z
1/2+x,1/2-y,1/2-z
-x,1/2+y,-z
-x,-y,-z
1/2+x,y,1/2-z
1/2-x,1/2+y,1/2+z
x,1/2-y,z
loop_
_atom_site_type_symbol
_atom_site_label
_atom_site_fract_x
_atom_site_fract_y
_atom_site_fract_z
Si Si1 0.484212 0.404363 0.545103
Si Si2 0.074626 0.695615 0.581476
Si Si3 0.184116 0.553486 0.803495
Si Si4 0.203675 0.942721 0.303427
Si Si5 0.533890 0.304346 0.402960
Si Si6 0.498192 0.409093 0.040948
O O1 0.465491 0.439903 0.411361
O O2 0.657530 0.411917 0.618444
O O3 0.351639 0.419372 0.659320
O O4 0.463882 0.349467 0.489156
O O5 0.024723 0.750000 0.532007
O O6 0.012920 0.690247 0.740729
O O7 0.270555 0.693873 0.584240
O O8 0.009910 0.648120 0.501555
O O9 0.230525 0.497298 0.782820
O O10 0.136362 0.579578 0.660369
O O11 0.333594 0.578605 0.883751
O O12 0.048827 0.941725 0.408214
O O13 0.477967 0.250000 0.447283
#
# Coordination Sequence:
#
# PCOD9465216 Si02
#       6
#     8   8   8   8   8   8
#     4  12  24  44  62  91 128 171 216 267 325 385
#     4  10  20  38  65  96 125 158 207 263 319 370
#     4  12  24  40  66  92 129 168 222 265 313 383
#     4  12  25  42  62  91 131 176 211 264 322 383
#     4  10  21  40  66  96 125 163 209 267 321 380
#     4  12  22  40  63  97 125 164 216 263 322 375
#
# _framework density 22.345988999999999
#
# number of rings (size 3 to 8) (size 9 to 14) (size 15 to 20)
#    0.000    0.667    3.333    6.000    0.000    0.000 
#    0.000    1.667    0.000    0.000    0.000    0.000 
#    0.000    0.000    0.000    0.000    0.000    0.000 
#
# Total GULP energy -268903.010502 kJ/mol
# GULP energy per Si atom -5602.146052 kJ/mol
# Density = 2.229513 g / cm^3
# Si number density = 22.345989 Si / 1000 Ang^3
#
#
#
# Elastic Constant Matrix: (Units=GPa)
#
#
# Indices 1 2 3 4 5 6 
#
# 1 50.3678 1.4595 -1.4489 0.0000 0.0000 0.0000
# 2 1.4595 113.4934 -1.3498 0.0000 0.0000 0.0000
# 3 -1.4489 -1.3498 39.6267 0.0000 0.0000 0.0000
# 4 0.0000 0.0000 0.0000 -39.9522 0.0000 0.0000
# 5 0.0000 0.0000 0.0000 0.0000 34.6882 0.0000
# 6 0.0000 0.0000 0.0000 0.0000 0.0000 31.9667
#
#
#
# Elastic Compliance Matrix: (Units=1/GPa)
#
#
# Indices 1 2 3 4 5 6 
#
# 1 0.019882 -0.000247 0.000719 0.000000 0.000000 0.000000
# 2 -0.000247 0.008818 0.000291 0.000000 0.000000 0.000000
# 3 0.000719 0.000291 0.025272 0.000000 0.000000 0.000000
# 4 0.000000 0.000000 0.000000 -0.025030 0.000000 0.000000
# 5 0.000000 0.000000 0.000000 0.000000 0.028828 0.000000
# 6 0.000000 0.000000 0.000000 0.000000 0.000000 0.031283
#
#
# Mechanical properties :
#
#
# Convention : Reuss Voigt Hill
#
# Bulk Modulus (GPa) = 18.01912 22.31219 20.16566
# Shear Modulus (GPa) = 47.15844 18.99568 33.07706
#
# Velocity S-wave (km/s) = 4.59887 2.91876 3.85154
# Velocity P-wave (km/s) = 6.02334 4.62228 5.36871
#
# Compressibility (1/GPa) = 0.05549659
#
# Stress axis : x y z
#
# Youngs Moduli (GPa) = 50.29734 113.40794 39.56996
#
# Poissons Ratio (x) = 0.02803 -0.02843
# Poissons Ratio (y) = 0.01243 -0.01153
# Poissons Ratio (z) = -0.03614 -0.03304
#
# Static dielectric constant tensor:
#      x y z
#    x 1.895820 0.000000 0.000000 
#    y 0.000000 1.812470 0.000000 
#    z 0.000000 0.000000 1.779520 
# 
# From -- ./inp_files/4505.got.cif
#   From: 2010.05.17/outbox.cif.g08.bks.cpg/sg62_3_cif.got.tgz:4505.got - 2010.06.03 15:25:27.
