data_PCOD9465850
_publ_section_title
;
Structure prediction by ZEFSAII (Michael W. Deem and Ramdas Pophale) SiO2 
 PCOD9465850
Probable space group: P N M A
;
_chemical_formula_sum "Si O2"
_cell_formula_units_Z 48
_cell_length_a 22.074193
_cell_length_b 21.219654
_cell_length_c 5.312609
_cell_angle_alpha 90.000000
_cell_angle_beta 90.000000
_cell_angle_gamma 90.000000
_cell_volume 2488.461851
_symmetry_space_group_name_H-M "P N M A"
_symmetry_group_IT_number 62
_symmetry_cell_setting 'orthorhombic'
loop_
_space_group_symop_operation_xyz
x,y,z
1/2-x,-y,1/2+z
1/2+x,1/2-y,1/2-z
-x,1/2+y,-z
-x,-y,-z
1/2+x,y,1/2-z
1/2-x,1/2+y,1/2+z
x,1/2-y,z
loop_
_atom_site_type_symbol
_atom_site_label
_atom_site_fract_x
_atom_site_fract_y
_atom_site_fract_z
Si Si1 0.460446 0.037271 0.701135
Si Si2 0.464149 0.595496 0.912296
Si Si3 0.345773 0.676412 0.805525
Si Si4 0.864491 0.137567 0.787443
Si Si5 0.428725 0.320338 0.227076
Si Si6 0.267888 0.675893 0.315063
O O1 0.396465 0.070522 0.657429
O O2 0.500000 0.000000 0.500000
O O3 0.446890 0.977833 0.881871
O O4 0.504161 0.091629 0.814523
O O5 0.405979 0.636657 0.855309
O O6 0.519208 0.626258 0.750893
O O7 0.361521 0.750000 0.765119
O O8 0.307017 0.656357 0.559709
O O9 0.306675 0.672010 0.060140
O O10 0.894388 0.166321 0.534812
O O11 0.793501 0.137697 0.732361
O O12 0.882908 0.175612 0.038227
O O13 0.455587 0.250000 0.218889
O O14 0.251243 0.750000 0.353642
#
# Coordination Sequence:
#
# PCOD9465850 Si02
#       6
#     8   8   8   8   8   8
#     4  10  21  40  61  87 119 161 200 251 305 356
#     4  10  22  38  59  88 120 156 202 246 303 364
#     4  10  22  39  61  88 122 161 197 246 303 361
#     4  11  22  38  60  87 120 157 201 247 301 358
#     4  11  21  34  59  90 118 149 193 253 308 359
#     4  10  21  38  58  85 120 158 198 243 302 360
#
# _framework density 19.289024000000001
#
# number of rings (size 3 to 8) (size 9 to 14) (size 15 to 20)
#    0.000    1.667    1.667    3.000    2.333    1.333 
#    0.000    5.000    0.000    0.000    0.000    0.000 
#    0.000    0.000    0.000    0.000    0.000    0.000 
#
# Total GULP energy -267335.324544 kJ/mol
# GULP energy per Si atom -5569.485928 kJ/mol
# Density = 1.924512 g / cm^3
# Si number density = 19.289024 Si / 1000 Ang^3
#
#
#
# Elastic Constant Matrix: (Units=GPa)
#
#
# Indices 1 2 3 4 5 6 
#
# 1 136.1057 43.7329 47.2009 0.0000 0.0000 0.0000
# 2 43.7329 57.1935 23.6878 0.0000 0.0000 0.0000
# 3 47.2009 23.6878 121.2950 0.0000 0.0000 0.0000
# 4 0.0000 0.0000 0.0000 -13.7607 0.0000 0.0000
# 5 0.0000 0.0000 0.0000 0.0000 22.9566 0.0000
# 6 0.0000 0.0000 0.0000 0.0000 0.0000 31.7767
#
#
#
# Elastic Compliance Matrix: (Units=1/GPa)
#
#
# Indices 1 2 3 4 5 6 
#
# 1 0.010518 -0.006906 -0.002744 0.000000 0.000000 0.000000
# 2 -0.006906 0.023557 -0.001913 0.000000 0.000000 0.000000
# 3 -0.002744 -0.001913 0.009686 0.000000 0.000000 0.000000
# 4 0.000000 0.000000 0.000000 -0.072671 0.000000 0.000000
# 5 0.000000 0.000000 0.000000 0.000000 0.043560 0.000000
# 6 0.000000 0.000000 0.000000 0.000000 0.000000 0.031470
#
#
# Mechanical properties :
#
#
# Convention : Reuss Voigt Hill
#
# Bulk Modulus (GPa) = 48.46243 60.42636 54.44440
# Shear Modulus (GPa) = 65.68083 21.52602 43.60342
#
# Velocity S-wave (km/s) = 5.84164 3.34424 4.75966
# Velocity P-wave (km/s) = 8.40706 6.80491 7.64805
#
# Compressibility (1/GPa) = 0.02063454
#
# Stress axis : x y z
#
# Youngs Moduli (GPa) = 95.07580 42.44937 103.24276
#
# Poissons Ratio (x) = 0.29315 0.28333
# Poissons Ratio (y) = 0.65658 0.19752
# Poissons Ratio (z) = 0.26092 0.08121
#
# Static dielectric constant tensor:
#      x y z
#    x 1.674190 0.000000 0.000000 
#    y 0.000000 1.710920 0.000000 
#    z 0.000000 0.000000 1.762430 
# 
# From -- ./inp_files/1691.got.cif
#   From: 2010.05.17/outbox.cif.g08.bks.cpg/sg62_1_cif.got.tgz:1691.got - 2010.06.03 15:25:27.
