data_PCOD9465866
_publ_section_title
;
Structure prediction by ZEFSAII (Michael W. Deem and Ramdas Pophale) SiO2 
 PCOD9465866
Probable space group: P N M A
;
_chemical_formula_sum "Si O2"
_cell_formula_units_Z 56
_cell_length_a 21.590699
_cell_length_b 9.013677
_cell_length_c 14.775121
_cell_angle_alpha 90.000000
_cell_angle_beta 90.000000
_cell_angle_gamma 90.000000
_cell_volume 2875.409746
_symmetry_space_group_name_H-M "P N M A"
_symmetry_group_IT_number 62
_symmetry_cell_setting 'orthorhombic'
loop_
_space_group_symop_operation_xyz
x,y,z
1/2-x,-y,1/2+z
1/2+x,1/2-y,1/2-z
-x,1/2+y,-z
-x,-y,-z
1/2+x,y,1/2-z
1/2-x,1/2+y,1/2+z
x,1/2-y,z
loop_
_atom_site_type_symbol
_atom_site_label
_atom_site_fract_x
_atom_site_fract_y
_atom_site_fract_z
Si Si1 0.636606 0.075037 0.890575
Si Si2 0.723065 0.425957 0.591376
Si Si3 0.504841 0.423704 0.402800
Si Si4 0.283715 0.424401 0.594310
Si Si5 0.378927 0.421658 0.289392
Si Si6 0.641675 0.072140 0.094702
Si Si7 0.605343 0.573483 0.273833
O O1 0.624805 0.250000 0.876693
O O2 0.711263 0.052400 0.885315
O O3 0.607118 0.980231 0.811029
O O4 0.618525 0.035180 0.993336
O O5 0.730922 0.250000 0.595512
O O6 0.699023 0.477552 0.492552
O O7 0.675331 0.481093 0.666598
O O8 0.789222 0.505461 0.602376
O O9 0.500000 0.500000 0.500000
O O10 0.520905 0.250000 0.412494
O O11 0.439122 0.433575 0.352072
O O12 0.555129 0.506506 0.341579
O O13 0.291338 0.250000 0.569716
O O14 0.327777 0.454453 0.679129
O O15 0.359397 0.250000 0.286364
O O16 0.644776 0.250000 0.101205
O O17 0.603122 0.003939 0.176569
O O18 0.597795 0.750000 0.264883
#
# Coordination Sequence:
#
# PCOD9465866 Si02
#       7
#     8   8   8   8   8   8   8
#     4   9  19  36  58  84 114 147 184 230 282 336
#     4  11  21  33  55  86 117 150 189 231 279 338
#     4  11  25  43  61  84 114 149 191 237 285 337
#     4   9  19  35  54  82 118 149 181 227 281 335
#     4  11  23  38  57  81 112 150 191 236 284 335
#     4  10  21  38  59  84 117 151 184 229 282 335
#     4  11  22  37  60  87 115 150 192 236 283 338
#
# _framework density 19.475486
#
# number of rings (size 3 to 8) (size 9 to 14) (size 15 to 20)
#    0.000    1.714    0.000    5.571    0.000   10.857 
#    0.000    0.714    0.000    0.000    0.000    0.000 
#    0.000    0.000    0.000    0.000    0.000    0.000 
#
# Total GULP energy -313053.560818 kJ/mol
# GULP energy per Si atom -5590.242157 kJ/mol
# Density = 1.943116 g / cm^3
# Si number density = 19.475486 Si / 1000 Ang^3
#
#
#
# Elastic Constant Matrix: (Units=GPa)
#
#
# Indices 1 2 3 4 5 6 
#
# 1 13.1090 23.6129 28.2282 0.0000 0.0000 0.0000
# 2 23.6129 101.6149 85.0189 0.0000 0.0000 0.0000
# 3 28.2282 85.0189 162.2183 0.0000 0.0000 0.0000
# 4 0.0000 0.0000 0.0000 35.4958 0.0000 0.0000
# 5 0.0000 0.0000 0.0000 0.0000 22.1796 0.0000
# 6 0.0000 0.0000 0.0000 0.0000 0.0000 21.5288
#
#
#
# Elastic Compliance Matrix: (Units=1/GPa)
#
#
# Indices 1 2 3 4 5 6 
#
# 1 0.146329 -0.022616 -0.013610 0.000000 0.000000 0.000000
# 2 -0.022616 0.021022 -0.007082 0.000000 0.000000 0.000000
# 3 -0.013610 -0.007082 0.012245 0.000000 0.000000 0.000000
# 4 0.000000 0.000000 0.000000 0.028172 0.000000 0.000000
# 5 0.000000 0.000000 0.000000 0.000000 0.045086 0.000000
# 6 0.000000 0.000000 0.000000 0.000000 0.000000 0.046449
#
#
# Mechanical properties :
#
#
# Convention : Reuss Voigt Hill
#
# Bulk Modulus (GPa) = 10.75513 61.18467 35.96990
# Shear Modulus (GPa) = 11.99290 25.17967 18.58629
#
# Velocity S-wave (km/s) = 2.48421 3.59958 3.09260
# Velocity P-wave (km/s) = 3.70983 6.98287 5.59121
#
# Compressibility (1/GPa) = 0.09297886
#
# Stress axis : x y z
#
# Youngs Moduli (GPa) = 6.83392 47.56918 81.66850
#
# Poissons Ratio (x) = 1.07583 1.11151
# Poissons Ratio (y) = 0.15456 0.57839
# Poissons Ratio (z) = 0.09301 0.33689
#
# Static dielectric constant tensor:
#      x y z
#    x 1.668640 0.000000 0.000000 
#    y 0.000000 1.650640 0.000000 
#    z 0.000000 0.000000 1.692830 
# 
# From -- ./inp_files/20186.got.cif
#   From: 2010.05.17/outbox.cif.g08.bks.cpg/sg62_11_cif.got.tgz:20186.got - 2010.06.03 15:25:27.
