data_PCOD9465362
_publ_section_title
;
Structure prediction by ZEFSAII (Michael W. Deem and Ramdas Pophale) SiO2 
 PCOD9465362
Probable space group: P N M A
;
_chemical_formula_sum "Si O2"
_cell_formula_units_Z 64
_cell_length_a 14.642206
_cell_length_b 8.654674
_cell_length_c 25.280089
_cell_angle_alpha 90.000000
_cell_angle_beta 90.000000
_cell_angle_gamma 90.000000
_cell_volume 3203.581853
_symmetry_space_group_name_H-M "P N M A"
_symmetry_group_IT_number 62
_symmetry_cell_setting 'orthorhombic'
loop_
_space_group_symop_operation_xyz
x,y,z
1/2-x,-y,1/2+z
1/2+x,1/2-y,1/2-z
-x,1/2+y,-z
-x,-y,-z
1/2+x,y,1/2-z
1/2-x,1/2+y,1/2+z
x,1/2-y,z
loop_
_atom_site_type_symbol
_atom_site_label
_atom_site_fract_x
_atom_site_fract_y
_atom_site_fract_z
Si Si1 0.215406 0.937259 0.605656
Si Si2 0.914568 0.432459 0.744632
Si Si3 0.581757 0.063433 0.361347
Si Si4 0.399387 0.062865 0.209923
Si Si5 0.232798 0.566930 0.804020
Si Si6 0.102545 0.937267 0.501670
Si Si7 0.246713 0.065954 0.920826
Si Si8 0.059225 0.934068 0.952620
O O1 0.216385 0.750000 0.603713
O O2 0.321628 0.983410 0.611599
O O3 0.161024 0.981150 0.659007
O O4 0.160199 0.988568 0.553606
O O5 0.899433 0.250000 0.739729
O O6 0.928678 0.480458 0.805466
O O7 0.826886 0.524645 0.724482
O O8 0.002403 0.484607 0.711251
O O9 0.584685 0.250000 0.352879
O O10 0.496505 0.029032 0.399076
O O11 0.408834 0.250000 0.209665
O O12 0.346874 0.017550 0.263773
O O13 0.224028 0.750000 0.810997
O O14 0.234770 0.491184 0.861262
O O15 0.098610 0.750000 0.502831
O O16 0.160960 0.986131 0.450218
O O17 0.000000 0.000000 0.500000
O O18 0.246772 0.250000 0.921368
O O19 0.159057 0.006362 0.952460
O O20 0.065913 0.750000 0.956319
O O21 0.000000 0.000000 0.000000
#
# Coordination Sequence:
#
# PCOD9465362 Si02
#       8
#     8   8   8   8   8   8   8   8
#     4   9  18  38  65  88 113 154 206 256 301 351
#     4  12  25  38  58  91 129 162 196 253 321 377
#     4  10  20  40  65  90 121 162 211 255 304 374
#     4  10  21  39  64  90 117 159 211 258 300 359
#     4  11  23  42  66  91 122 165 214 257 304 373
#     4  10  23  42  64  90 121 162 208 258 310 362
#     4  11  24  42  62  91 132 167 205 262 321 376
#     4  11  23  39  65  96 128 167 210 257 313 376
#
# _framework density 19.977637999999999
#
# number of rings (size 3 to 8) (size 9 to 14) (size 15 to 20)
#    0.000    1.500    1.250    3.750    1.750    8.000 
#    0.000    0.625    0.000    0.000    0.000    0.000 
#    0.000    0.000    0.000    0.000    0.000    0.000 
#
# Total GULP energy -357812.350661 kJ/mol
# GULP energy per Si atom -5590.817979 kJ/mol
# Density = 1.993217 g / cm^3
# Si number density = 19.977638 Si / 1000 Ang^3
#
#
#
# Elastic Constant Matrix: (Units=GPa)
#
#
# Indices 1 2 3 4 5 6 
#
# 1 59.2762 0.0362 -16.9412 0.0000 0.0000 0.0000
# 2 0.0362 8.8938 10.6571 0.0000 0.0000 0.0000
# 3 -16.9412 10.6571 58.4493 0.0000 0.0000 0.0000
# 4 0.0000 0.0000 0.0000 28.7422 0.0000 0.0000
# 5 0.0000 0.0000 0.0000 0.0000 28.8008 0.0000
# 6 0.0000 0.0000 0.0000 0.0000 0.0000 21.8178
#
#
#
# Elastic Compliance Matrix: (Units=1/GPa)
#
#
# Indices 1 2 3 4 5 6 
#
# 1 0.018882 -0.008490 0.007021 0.000000 0.000000 0.000000
# 2 -0.008490 0.147689 -0.029389 0.000000 0.000000 0.000000
# 3 0.007021 -0.029389 0.024502 0.000000 0.000000 0.000000
# 4 0.000000 0.000000 0.000000 0.034792 0.000000 0.000000
# 5 0.000000 0.000000 0.000000 0.000000 0.034721 0.000000
# 6 0.000000 0.000000 0.000000 0.000000 0.000000 0.045834
#
#
# Mechanical properties :
#
#
# Convention : Reuss Voigt Hill
#
# Bulk Modulus (GPa) = 7.73052 12.68039 10.20546
# Shear Modulus (GPa) = 12.15790 24.72999 18.44394
#
# Velocity S-wave (km/s) = 2.46961 3.52217 3.04177
# Velocity P-wave (km/s) = 3.46554 4.78561 4.17804
#
# Compressibility (1/GPa) = 0.12935744
#
# Stress axis : x y z
#
# Youngs Moduli (GPa) = 52.96079 6.77098 40.81252
#
# Poissons Ratio (x) = 0.05748 -0.28653
# Poissons Ratio (y) = 0.44962 1.19944
# Poissons Ratio (z) = -0.37182 0.19899
#
# Static dielectric constant tensor:
#      x y z
#    x 1.684170 0.000000 0.000000 
#    y 0.000000 1.673280 0.000000 
#    z 0.000000 0.000000 1.608180 
# 
# From -- ./inp_files/29939.got.cif
#   From: 2010.05.17/outbox.cif.g08.bks.cpg/sg62_15_cif.got.tgz:29939.got - 2010.06.03 15:25:27.
