data_PCOD9465669
_publ_section_title
;
Structure prediction by ZEFSAII (Michael W. Deem and Ramdas Pophale) SiO2 
 PCOD9465669
Probable space group: P N M A
;
_chemical_formula_sum "Si O2"
_cell_formula_units_Z 40
_cell_length_a 17.550714
_cell_length_b 9.782930
_cell_length_c 10.850589
_cell_angle_alpha 90.000000
_cell_angle_beta 90.000000
_cell_angle_gamma 90.000000
_cell_volume 1863.017990
_symmetry_space_group_name_H-M "P N M A"
_symmetry_group_IT_number 62
_symmetry_cell_setting 'orthorhombic'
loop_
_space_group_symop_operation_xyz
x,y,z
1/2-x,-y,1/2+z
1/2+x,1/2-y,1/2-z
-x,1/2+y,-z
-x,-y,-z
1/2+x,y,1/2-z
1/2-x,1/2+y,1/2+z
x,1/2-y,z
loop_
_atom_site_type_symbol
_atom_site_label
_atom_site_fract_x
_atom_site_fract_y
_atom_site_fract_z
Si Si1 0.744392 0.250000 0.534528
Si Si2 0.864238 0.750000 0.544938
Si Si3 0.687550 0.518994 0.404812
Si Si4 0.921214 0.250000 0.586697
Si Si5 0.943710 0.969631 0.709685
Si Si6 0.686125 0.750000 0.597079
Si Si7 0.795017 0.750000 0.294564
Si Si8 0.565380 0.750000 0.793158
O O1 0.730029 0.385732 0.455728
O O2 0.828726 0.250000 0.594374
O O3 0.687044 0.250000 0.651220
O O4 0.904575 0.881383 0.601108
O O5 0.777653 0.750000 0.595558
O O6 0.860266 0.750000 0.397780
O O7 0.616157 0.478561 0.321209
O O8 0.663388 0.616263 0.518453
O O9 0.744672 0.615468 0.326553
O O10 0.954907 0.381788 0.653491
O O11 0.933442 0.250000 0.440634
O O12 0.018076 0.884303 0.746138
O O13 0.646926 0.750000 0.728840
#
# Coordination Sequence:
#
# PCOD9465669 Si02
#       8
#     4   4   8   4   8   4   4   4
#     4  12  22  36  68 101 122 167 210 265 330 372
#     4   9  21  39  65  89 133 153 206 267 315 377
#     4  10  22  39  63  90 129 160 211 260 324 375
#     4  12  22  40  64  89 127 165 214 262 310 381
#     4  11  22  44  63  92 125 171 207 261 321 379
#     4  10  23  43  59  95 127 165 210 271 310 385
#     4  10  21  37  56 100 122 162 206 263 315 379
#     4  11  27  39  64  88 125 174 218 250 320 374
#
# _framework density 21.470538999999999
#
# number of rings (size 3 to 8) (size 9 to 14) (size 15 to 20)
#    0.000    1.600    2.000    4.800    2.800    2.400 
#    0.000    1.000    0.000    0.000    0.000    0.000 
#    0.000    0.000    0.000    0.000    0.000    0.000 
#
# Total GULP energy -223786.628204 kJ/mol
# GULP energy per Si atom -5594.665705 kJ/mol
# Density = 2.142167 g / cm^3
# Si number density = 21.470539 Si / 1000 Ang^3
#
#
#
# Elastic Constant Matrix: (Units=GPa)
#
#
# Indices 1 2 3 4 5 6 
#
# 1 43.2142 17.9621 18.7468 0.0000 0.0000 0.0000
# 2 17.9621 170.3972 36.5414 0.0000 0.0000 0.0000
# 3 18.7468 36.5414 60.5167 0.0000 0.0000 0.0000
# 4 0.0000 0.0000 0.0000 -1.6056 0.0000 0.0000
# 5 0.0000 0.0000 0.0000 0.0000 2.4027 0.0000
# 6 0.0000 0.0000 0.0000 0.0000 0.0000 28.7293
#
#
#
# Elastic Compliance Matrix: (Units=1/GPa)
#
#
# Indices 1 2 3 4 5 6 
#
# 1 0.026947 -0.001207 -0.007619 0.000000 0.000000 0.000000
# 2 -0.001207 0.006796 -0.003730 0.000000 0.000000 0.000000
# 3 -0.007619 -0.003730 0.021137 0.000000 0.000000 0.000000
# 4 0.000000 0.000000 0.000000 -0.622806 0.000000 0.000000
# 5 0.000000 0.000000 0.000000 0.000000 0.416204 0.000000
# 6 0.000000 0.000000 0.000000 0.000000 0.000000 0.034808
#
#
# Mechanical properties :
#
#
# Convention : Reuss Voigt Hill
#
# Bulk Modulus (GPa) = 33.59211 46.73652 40.16432
# Shear Modulus (GPa) = -61.06383 19.29712 -20.88336
#
# Velocity S-wave (km/s) = -5.33877 3.00120 -3.12212
# Velocity P-wave (km/s) = 4.72479 5.81590 2.39802
#
# Compressibility (1/GPa) = 0.02976890
#
# Stress axis : x y z
#
# Youngs Moduli (GPa) = 37.10943 147.15311 47.31130
#
# Poissons Ratio (x) = 0.17757 0.36047
# Poissons Ratio (y) = 0.04478 0.17645
# Poissons Ratio (z) = 0.28274 0.54882
#
# Static dielectric constant tensor:
#      x y z
#    x 1.791460 0.000000 0.000000 
#    y 0.000000 1.787710 0.000000 
#    z 0.000000 0.000000 1.767830 
# 
# From -- ./inp_files/13937.got.cif
#   From: 2010.05.17/outbox.cif.g08.bks.cpg/sg62_7_cif.got.tgz:13937.got - 2010.06.03 15:25:27.
