data_PCOD9465849
_publ_section_title
;
Structure prediction by ZEFSAII (Michael W. Deem and Ramdas Pophale) SiO2 
 PCOD9465849
Probable space group: P N M A
;
_chemical_formula_sum "Si O2"
_cell_formula_units_Z 48
_cell_length_a 9.409085
_cell_length_b 8.610412
_cell_length_c 31.625966
_cell_angle_alpha 90.000000
_cell_angle_beta 90.000000
_cell_angle_gamma 90.000000
_cell_volume 2562.212373
_symmetry_space_group_name_H-M "P N M A"
_symmetry_group_IT_number 62
_symmetry_cell_setting 'orthorhombic'
loop_
_space_group_symop_operation_xyz
x,y,z
1/2-x,-y,1/2+z
1/2+x,1/2-y,1/2-z
-x,1/2+y,-z
-x,-y,-z
1/2+x,y,1/2-z
1/2-x,1/2+y,1/2+z
x,1/2-y,z
loop_
_atom_site_type_symbol
_atom_site_label
_atom_site_fract_x
_atom_site_fract_y
_atom_site_fract_z
Si Si1 0.415113 0.064173 0.212256
Si Si2 0.907055 0.437690 0.633859
Si Si3 0.914147 0.435689 0.131506
Si Si4 0.418317 0.936173 0.459610
Si Si5 0.585991 0.935397 0.039245
Si Si6 0.095341 0.936031 0.208968
O O1 0.414324 0.250000 0.215042
O O2 0.495154 0.009835 0.169829
O O3 0.254609 0.001338 0.212552
O O4 0.502323 0.994773 0.251565
O O5 0.909021 0.250000 0.636606
O O6 0.743905 0.493896 0.638447
O O7 0.957154 0.485673 0.586635
O O8 0.906647 0.250000 0.134173
O O9 0.963088 0.487906 0.084767
O O10 0.019481 0.501662 0.166767
O O11 0.432580 0.750000 0.456498
O O12 0.251948 0.974885 0.465067
O O13 0.500000 0.000000 0.500000
O O14 0.573699 0.750000 0.038493
O O15 0.500000 0.000000 0.000000
O O16 0.099087 0.750000 0.208635
#
# Coordination Sequence:
#
# PCOD9465849 Si02
#       6
#     8   8   8   8   8   8
#     4  12  25  42  63  91 121 153 195 245 293 347
#     4  10  21  40  61  86 119 158 198 241 294 355
#     4  11  22  39  62  89 118 154 198 248 298 350
#     4  10  21  38  58  85 118 156 198 244 296 355
#     4   9  20  36  57  83 115 151 193 238 286 342
#     4  12  25  43  64  88 119 158 196 238 293 355
#
# _framework density 18.733809000000001
#
# number of rings (size 3 to 8) (size 9 to 14) (size 15 to 20)
#    0.000    1.333    0.000    7.500    0.000    5.333 
#    0.000    3.333    0.000    0.000    0.000    0.000 
#    0.000    0.000    0.000    0.000    0.000    0.000 
#
# Total GULP energy -268384.746655 kJ/mol
# GULP energy per Si atom -5591.348889 kJ/mol
# Density = 1.869117 g / cm^3
# Si number density = 18.733809 Si / 1000 Ang^3
#
#
#
# Elastic Constant Matrix: (Units=GPa)
#
#
# Indices 1 2 3 4 5 6 
#
# 1 105.4350 41.2919 99.1565 0.0000 0.0000 0.0000
# 2 41.2919 113.7916 56.8745 0.0000 0.0000 0.0000
# 3 99.1565 56.8745 191.0628 0.0000 0.0000 0.0000
# 4 0.0000 0.0000 0.0000 39.6808 0.0000 0.0000
# 5 0.0000 0.0000 0.0000 0.0000 44.5778 0.0000
# 6 0.0000 0.0000 0.0000 0.0000 0.0000 37.5991
#
#
#
# Elastic Compliance Matrix: (Units=1/GPa)
#
#
# Indices 1 2 3 4 5 6 
#
# 1 0.019032 -0.002314 -0.009188 0.000000 0.000000 0.000000
# 2 -0.002314 0.010605 -0.001956 0.000000 0.000000 0.000000
# 3 -0.009188 -0.001956 0.010585 0.000000 0.000000 0.000000
# 4 0.000000 0.000000 0.000000 0.025201 0.000000 0.000000
# 5 0.000000 0.000000 0.000000 0.000000 0.022433 0.000000
# 6 0.000000 0.000000 0.000000 0.000000 0.000000 0.026596
#
#
# Mechanical properties :
#
#
# Convention : Reuss Voigt Hill
#
# Bulk Modulus (GPa) = 75.15726 89.43725 82.29726
# Shear Modulus (GPa) = 34.29279 38.56929 36.43104
#
# Velocity S-wave (km/s) = 4.28311 4.54233 4.41462
# Velocity P-wave (km/s) = 8.04150 8.68073 8.36722
#
# Compressibility (1/GPa) = 0.01330543
#
# Stress axis : x y z
#
# Youngs Moduli (GPa) = 52.54385 94.29249 94.47664
#
# Poissons Ratio (x) = 0.21817 0.86807
# Poissons Ratio (y) = 0.12157 0.18481
# Poissons Ratio (z) = 0.48278 0.18445
#
# Static dielectric constant tensor:
#      x y z
#    x 1.638580 0.000000 0.000000 
#    y 0.000000 1.628320 0.000000 
#    z 0.000000 0.000000 1.644790 
# 
# From -- ./inp_files/32033.got.cif
#   From: 2010.05.17/outbox.cif.g08.bks.cpg/sg62_17_cif.got.tgz:32033.got - 2010.06.03 15:25:27.
