data_PCOD9465847
_publ_section_title
;
Structure prediction by ZEFSAII (Michael W. Deem and Ramdas Pophale) SiO2 
 PCOD9465847
Probable space group: P N M A
;
_chemical_formula_sum "Si O2"
_cell_formula_units_Z 40
_cell_length_a 4.976685
_cell_length_b 19.476838
_cell_length_c 18.053061
_cell_angle_alpha 90.000000
_cell_angle_beta 90.000000
_cell_angle_gamma 90.000000
_cell_volume 1749.884783
_symmetry_space_group_name_H-M "P N M A"
_symmetry_group_IT_number 62
_symmetry_cell_setting 'orthorhombic'
loop_
_space_group_symop_operation_xyz
x,y,z
1/2-x,-y,1/2+z
1/2+x,1/2-y,1/2-z
-x,1/2+y,-z
-x,-y,-z
1/2+x,y,1/2-z
1/2-x,1/2+y,1/2+z
x,1/2-y,z
loop_
_atom_site_type_symbol
_atom_site_label
_atom_site_fract_x
_atom_site_fract_y
_atom_site_fract_z
Si Si1 0.997245 0.150305 0.297671
Si Si2 0.466795 0.012642 0.798141
Si Si3 0.556666 0.250000 0.800928
Si Si4 0.838386 0.250000 0.104476
Si Si5 0.156395 0.327022 0.985544
Si Si6 0.150762 0.377743 0.589912
O O1 0.196271 0.168317 0.228069
O O2 0.013568 0.068979 0.309566
O O3 0.129992 0.191707 0.363154
O O4 0.671250 0.030452 0.731084
O O5 0.559475 0.053331 0.870111
O O6 0.758658 0.250000 0.731631
O O7 0.613237 0.182720 0.849785
O O8 0.030888 0.309550 0.064806
O O9 0.160416 0.250000 0.950021
O O10 0.951187 0.374140 0.940223
O O11 0.450550 0.357409 0.976851
#
# Coordination Sequence:
#
# PCOD9465847 Si02
#       6
#     8   8   4   4   8   8
#     4  10  22  39  64  91 116 144 185 237 297 348
#     4  10  21  38  58  85 117 153 189 237 291 341
#     4  12  20  27  46  73  98 136 188 232 270 318
#     4  10  22  41  62  89 116 148 190 240 286 344
#     4  10  22  36  56  76 115 151 191 231 278 322
#     4  12  20  38  52  78 113 157 187 238 277 328
#
# _framework density 22.858647000000001
#
# number of rings (size 3 to 8) (size 9 to 14) (size 15 to 20)
#    0.600    0.800    2.000    4.200    0.000    3.200 
#    0.000    2.000    0.000    0.000    0.000    0.000 
#    0.000    0.000    0.000    0.000    0.000    0.000 
#
# Total GULP energy -222675.911449 kJ/mol
# GULP energy per Si atom -5566.897786 kJ/mol
# Density = 2.280662 g / cm^3
# Si number density = 22.858647 Si / 1000 Ang^3
#
#
#
# Elastic Constant Matrix: (Units=GPa)
#
#
# Indices 1 2 3 4 5 6 
#
# 1 72.5484 -2.6382 5.1171 0.0000 0.0000 0.0000
# 2 -2.6382 50.6660 17.8322 0.0000 0.0000 0.0000
# 3 5.1171 17.8322 62.4519 0.0000 0.0000 0.0000
# 4 0.0000 0.0000 0.0000 -25.6678 0.0000 0.0000
# 5 0.0000 0.0000 0.0000 0.0000 31.8862 0.0000
# 6 0.0000 0.0000 0.0000 0.0000 0.0000 14.6993
#
#
#
# Elastic Compliance Matrix: (Units=1/GPa)
#
#
# Indices 1 2 3 4 5 6 
#
# 1 0.013935 0.001253 -0.001500 0.000000 0.000000 0.000000
# 2 0.001253 0.022055 -0.006400 0.000000 0.000000 0.000000
# 3 -0.001500 -0.006400 0.017963 0.000000 0.000000 0.000000
# 4 0.000000 0.000000 0.000000 -0.038959 0.000000 0.000000
# 5 0.000000 0.000000 0.000000 0.000000 0.031362 0.000000
# 6 0.000000 0.000000 0.000000 0.000000 0.000000 0.068031
#
#
# Mechanical properties :
#
#
# Convention : Reuss Voigt Hill
#
# Bulk Modulus (GPa) = 24.59416 25.14315 24.86866
# Shear Modulus (GPa) = 35.40277 15.20721 25.30499
#
# Velocity S-wave (km/s) = 3.93971 2.58208 3.33080
# Velocity P-wave (km/s) = 5.61050 4.46238 5.06905
#
# Compressibility (1/GPa) = 0.04066005
#
# Stress axis : x y z
#
# Youngs Moduli (GPa) = 71.76037 45.34125 55.67094
#
# Poissons Ratio (x) = -0.05683 0.08349
# Poissons Ratio (y) = -0.08995 0.35630
# Poissons Ratio (z) = 0.10762 0.29019
#
# Static dielectric constant tensor:
#      x y z
#    x 1.817750 0.000000 0.000000 
#    y 0.000000 1.779150 0.000000 
#    z 0.000000 0.000000 1.916170 
# 
# From -- ./inp_files/21512.got.cif
#   From: 2010.05.17/outbox.cif.g08.bks.cpg/sg62_11_cif.got.tgz:21512.got - 2010.06.03 15:25:27.
