data_PCOD9465518
_publ_section_title
;
Structure prediction by ZEFSAII (Michael W. Deem and Ramdas Pophale) SiO2 
 PCOD9465518
Probable space group: P N M A
;
_chemical_formula_sum "Si O2"
_cell_formula_units_Z 64
_cell_length_a 28.279294
_cell_length_b 7.703910
_cell_length_c 13.068195
_cell_angle_alpha 90.000000
_cell_angle_beta 90.000000
_cell_angle_gamma 90.000000
_cell_volume 2847.051806
_symmetry_space_group_name_H-M "P N M A"
_symmetry_group_IT_number 62
_symmetry_cell_setting 'orthorhombic'
loop_
_space_group_symop_operation_xyz
x,y,z
1/2-x,-y,1/2+z
1/2+x,1/2-y,1/2-z
-x,1/2+y,-z
-x,-y,-z
1/2+x,y,1/2-z
1/2-x,1/2+y,1/2+z
x,1/2-y,z
loop_
_atom_site_type_symbol
_atom_site_label
_atom_site_fract_x
_atom_site_fract_y
_atom_site_fract_z
Si Si1 0.377192 0.953532 0.553432
Si Si2 0.667360 0.539443 0.139728
Si Si3 0.686434 0.046534 0.920333
Si Si4 0.037345 0.043003 0.187587
Si Si5 0.560382 0.959043 0.091346
Si Si6 0.080487 0.549165 0.627317
Si Si7 0.214761 0.954983 0.154183
Si Si8 0.063557 0.960810 0.855683
O O1 0.372419 0.750000 0.572903
O O2 0.414478 0.028990 0.637509
O O3 0.324700 0.026801 0.566355
O O4 0.401262 0.978803 0.443537
O O5 0.667135 0.750000 0.139466
O O6 0.613168 0.483115 0.124896
O O7 0.690072 0.474712 0.243976
O O8 0.694933 0.473916 0.041107
O O9 0.680016 0.250000 0.895952
O O10 0.733203 0.973354 0.866779
O O11 0.636533 0.956677 0.897317
O O12 0.039423 0.250000 0.175820
O O13 0.990711 0.981761 0.128126
O O14 0.030645 0.008977 0.308804
O O15 0.559653 0.750000 0.085133
O O16 0.554590 0.026341 0.974508
O O17 0.065291 0.750000 0.633807
O O18 0.075328 0.475180 0.740904
O O19 0.221913 0.750000 0.169408
O O20 0.065304 0.750000 0.856250
#
# Coordination Sequence:
#
# PCOD9465518 Si02
#       8
#     8   8   8   8   8   8   8   8
#     4  11  23  37  56  85 116 145 189 242 284 330
#     4   9  18  35  56  77 108 148 185 226 278 335
#     4  10  21  35  56  85 113 142 183 233 284 336
#     4  10  21  36  56  85 115 147 188 237 286 332
#     4   9  17  32  57  82 106 143 187 230 276 333
#     4   9  20  39  58  79 111 152 192 229 282 343
#     4  10  21  38  58  81 109 148 190 226 279 344
#     4  10  22  40  59  79 115 159 191 228 284 347
#
# _framework density 22.479393999999999
#
# number of rings (size 3 to 8) (size 9 to 14) (size 15 to 20)
#    0.000    2.250    1.250    1.875    0.000    6.500 
#    0.000    2.500    0.000    0.000    0.000    0.000 
#    0.000    0.000    0.000    0.000    0.000    0.000 
#
# Total GULP energy -357280.825506 kJ/mol
# GULP energy per Si atom -5582.512899 kJ/mol
# Density = 2.242823 g / cm^3
# Si number density = 22.479394 Si / 1000 Ang^3
#
#
#
# Elastic Constant Matrix: (Units=GPa)
#
#
# Indices 1 2 3 4 5 6 
#
# 1 59.6853 -7.4960 19.8582 0.0000 0.0000 0.0000
# 2 -7.4960 38.3567 -8.3991 0.0000 0.0000 0.0000
# 3 19.8582 -8.3991 105.0649 0.0000 0.0000 0.0000
# 4 0.0000 0.0000 0.0000 18.4947 0.0000 0.0000
# 5 0.0000 0.0000 0.0000 0.0000 28.7262 0.0000
# 6 0.0000 0.0000 0.0000 0.0000 0.0000 12.4761
#
#
#
# Elastic Compliance Matrix: (Units=1/GPa)
#
#
# Indices 1 2 3 4 5 6 
#
# 1 0.018180 0.002850 -0.003208 0.000000 0.000000 0.000000
# 2 0.002850 0.026983 0.001618 0.000000 0.000000 0.000000
# 3 -0.003208 0.001618 0.010254 0.000000 0.000000 0.000000
# 4 0.000000 0.000000 0.000000 0.054070 0.000000 0.000000
# 5 0.000000 0.000000 0.000000 0.000000 0.034811 0.000000
# 6 0.000000 0.000000 0.000000 0.000000 0.000000 0.080153
#
#
# Mechanical properties :
#
#
# Convention : Reuss Voigt Hill
#
# Bulk Modulus (GPa) = 17.26016 23.44810 20.35413
# Shear Modulus (GPa) = 20.72606 25.21565 22.97085
#
# Velocity S-wave (km/s) = 3.03974 3.35285 3.20013
# Velocity P-wave (km/s) = 4.47381 5.04404 4.76746
#
# Compressibility (1/GPa) = 0.05793690
#
# Stress axis : x y z
#
# Youngs Moduli (GPa) = 55.00559 37.06104 97.52586
#
# Poissons Ratio (x) = -0.10564 0.31289
# Poissons Ratio (y) = -0.15679 -0.15783
# Poissons Ratio (z) = 0.17647 -0.05998
#
# Static dielectric constant tensor:
#      x y z
#    x 1.850070 0.000000 0.000000 
#    y 0.000000 1.767390 0.000000 
#    z 0.000000 0.000000 1.861880 
# 
# From -- ./inp_files/15927.got.cif
#   From: 2010.05.17/outbox.cif.g08.bks.cpg/sg62_8_cif.got.tgz:15927.got - 2010.06.03 15:25:27.
