data_PCOD9465408
_publ_section_title
;
Structure prediction by ZEFSAII (Michael W. Deem and Ramdas Pophale) SiO2 
 PCOD9465408
Probable space group: P N M A
;
_chemical_formula_sum "Si O2"
_cell_formula_units_Z 28
_cell_length_a 7.287442
_cell_length_b 10.350166
_cell_length_c 14.034721
_cell_angle_alpha 90.000000
_cell_angle_beta 90.000000
_cell_angle_gamma 90.000000
_cell_volume 1058.586156
_symmetry_space_group_name_H-M "P N M A"
_symmetry_group_IT_number 62
_symmetry_cell_setting 'orthorhombic'
loop_
_space_group_symop_operation_xyz
x,y,z
1/2-x,-y,1/2+z
1/2+x,1/2-y,1/2-z
-x,1/2+y,-z
-x,-y,-z
1/2+x,y,1/2-z
1/2-x,1/2+y,1/2+z
x,1/2-y,z
loop_
_atom_site_type_symbol
_atom_site_label
_atom_site_fract_x
_atom_site_fract_y
_atom_site_fract_z
Si Si1 0.491705 0.987711 0.172011
Si Si2 0.610669 0.604587 0.366138
Si Si3 0.547964 0.250000 0.466619
Si Si4 0.925571 0.250000 0.542271
Si Si5 0.311222 0.750000 0.874808
O O1 0.284915 0.988759 0.131802
O O2 0.482229 0.942523 0.281139
O O3 0.585744 0.876469 0.107878
O O4 0.602210 0.120263 0.166776
O O5 0.677359 0.750000 0.336805
O O6 0.510237 0.630535 0.465026
O O7 0.765181 0.250000 0.463975
O O8 0.409909 0.250000 0.378178
O O9 0.116257 0.250000 0.484600
#
# Coordination Sequence:
#
# PCOD9465408 Si02
#       5
#     8   8   4   4   4
#     4  12  23  43  71 101 137 178 225 286 331 401
#     4  10  20  41  69  99 124 176 240 272 309 402
#     4  10  23  43  73 102 128 180 237 273 321 416
#     4  12  21  43  73  94 129 185 227 271 331 403
#     4  12  28  44  62 106 153 165 214 294 360 383
#
# _framework density 26.450374
#
# number of rings (size 3 to 8) (size 9 to 14) (size 15 to 20)
#    0.857    0.000    5.714    2.571    0.000    2.286 
#    5.143    0.000    0.000    0.000    0.000    0.000 
#    0.000    0.000    0.000    0.000    0.000    0.000 
#
# Total GULP energy -156895.008276 kJ/mol
# GULP energy per Si atom -5603.393153 kJ/mol
# Density = 2.639017 g / cm^3
# Si number density = 26.450374 Si / 1000 Ang^3
#
#
#
# Elastic Constant Matrix: (Units=GPa)
#
#
# Indices 1 2 3 4 5 6 
#
# 1 88.3830 -2.9913 -6.6677 0.0000 0.0000 0.0000
# 2 -2.9913 152.2313 41.3954 0.0000 0.0000 0.0000
# 3 -6.6677 41.3954 36.0518 0.0000 0.0000 0.0000
# 4 0.0000 0.0000 0.0000 -70.1160 0.0000 0.0000
# 5 0.0000 0.0000 0.0000 0.0000 37.7937 0.0000
# 6 0.0000 0.0000 0.0000 0.0000 0.0000 9.3447
#
#
#
# Elastic Compliance Matrix: (Units=1/GPa)
#
#
# Indices 1 2 3 4 5 6 
#
# 1 0.011502 -0.000512 0.002716 0.000000 0.000000 0.000000
# 2 -0.000512 0.009574 -0.011088 0.000000 0.000000 0.000000
# 3 0.002716 -0.011088 0.040971 0.000000 0.000000 0.000000
# 4 0.000000 0.000000 0.000000 -0.014262 0.000000 0.000000
# 5 0.000000 0.000000 0.000000 0.000000 0.026459 0.000000
# 6 0.000000 0.000000 0.000000 0.000000 0.000000 0.107012
#
#
# Mechanical properties :
#
#
# Convention : Reuss Voigt Hill
#
# Bulk Modulus (GPa) = 22.58454 37.79320 30.18887
# Shear Modulus (GPa) = 23.38799 11.73314 17.56056
#
# Velocity S-wave (km/s) = 2.97681 2.10844 2.57943
# Velocity P-wave (km/s) = 4.51356 4.49964 4.50660
#
# Compressibility (1/GPa) = 0.04427807
#
# Stress axis : x y z
#
# Youngs Moduli (GPa) = 86.94203 104.45056 24.40735
#
# Poissons Ratio (x) = 0.05352 -0.06628
# Poissons Ratio (y) = 0.04455 0.27062
# Poissons Ratio (z) = -0.23610 1.15812
#
# Static dielectric constant tensor:
#      x y z
#    x 2.061450 0.000000 0.000000 
#    y 0.000000 2.091670 0.000000 
#    z 0.000000 0.000000 2.021480 
# 
# From -- ./inp_files/21810.got.cif
#   From: 2010.05.17/outbox.cif.g08.bks.cpg/sg62_11_cif.got.tgz:21810.got - 2010.06.03 15:25:27.
