data_PCOD9465975
_publ_section_title
;
Structure prediction by ZEFSAII (Michael W. Deem and Ramdas Pophale) SiO2 
 PCOD9465975
Probable space group: P N M A
;
_chemical_formula_sum "Si O2"
_cell_formula_units_Z 56
_cell_length_a 14.923155
_cell_length_b 8.278646
_cell_length_c 21.738457
_cell_angle_alpha 90.000000
_cell_angle_beta 90.000000
_cell_angle_gamma 90.000000
_cell_volume 2685.645442
_symmetry_space_group_name_H-M "P N M A"
_symmetry_group_IT_number 62
_symmetry_cell_setting 'orthorhombic'
loop_
_space_group_symop_operation_xyz
x,y,z
1/2-x,-y,1/2+z
1/2+x,1/2-y,1/2-z
-x,1/2+y,-z
-x,-y,-z
1/2+x,y,1/2-z
1/2-x,1/2+y,1/2+z
x,1/2-y,z
loop_
_atom_site_type_symbol
_atom_site_label
_atom_site_fract_x
_atom_site_fract_y
_atom_site_fract_z
Si Si1 0.012660 0.440305 0.743238
Si Si2 0.950762 0.061840 0.130688
Si Si3 0.308453 0.553630 0.760980
Si Si4 0.580162 0.936464 0.457002
Si Si5 0.755355 0.056591 0.103979
Si Si6 0.723835 0.561954 0.974089
Si Si7 0.339338 0.446176 0.158064
O O1 0.022480 0.250000 0.753511
O O2 0.061744 0.539590 0.797160
O O3 0.065580 0.490129 0.682064
O O4 0.909073 0.489761 0.746286
O O5 0.966728 0.250000 0.116259
O O6 0.859356 0.004314 0.098896
O O7 0.035983 0.959940 0.109696
O O8 0.310799 0.750000 0.759884
O O9 0.278904 0.499228 0.829655
O O10 0.239129 0.503769 0.706792
O O11 0.599968 0.750000 0.470251
O O12 0.500000 0.000000 0.500000
O O13 0.670180 0.036508 0.462938
O O14 0.757444 0.250000 0.107404
O O15 0.704764 0.010004 0.041568
O O16 0.702711 0.750000 0.977658
O O17 0.679586 0.496008 0.911531
O O18 0.339571 0.250000 0.157908
#
# Coordination Sequence:
#
# PCOD9465975 Si02
#       7
#     8   8   8   8   8   8   8
#     4  12  25  39  62  96 127 159 202 263 319 367
#     4  11  21  38  61  86 119 161 204 250 306 371
#     4  10  21  42  68  90 119 165 216 259 307 372
#     4  12  23  35  54  85 123 161 202 246 303 371
#     4  10  21  38  63  89 118 161 206 254 307 363
#     4  11  23  38  61  90 125 166 205 257 315 370
#     4  10  22  43  66  90 122 167 213 253 309 374
#
# _framework density 20.851597999999999
#
# number of rings (size 3 to 8) (size 9 to 14) (size 15 to 20)
#    0.000    1.143    2.857    4.286    0.000    4.000 
#    0.000    0.714    0.000    0.000    0.000    0.000 
#    0.000    0.000    0.000    0.000    0.000    0.000 
#
# Total GULP energy -312800.339741 kJ/mol
# GULP energy per Si atom -5585.720353 kJ/mol
# Density = 2.080414 g / cm^3
# Si number density = 20.851598 Si / 1000 Ang^3
#
#
#
# Elastic Constant Matrix: (Units=GPa)
#
#
# Indices 1 2 3 4 5 6 
#
# 1 43.3944 7.1997 7.6702 0.0000 0.0000 0.0000
# 2 7.1997 21.9102 11.7370 0.0000 0.0000 0.0000
# 3 7.6702 11.7370 114.5166 0.0000 0.0000 0.0000
# 4 0.0000 0.0000 0.0000 31.1040 0.0000 0.0000
# 5 0.0000 0.0000 0.0000 0.0000 37.1500 0.0000
# 6 0.0000 0.0000 0.0000 0.0000 0.0000 19.5323
#
#
#
# Elastic Compliance Matrix: (Units=1/GPa)
#
#
# Indices 1 2 3 4 5 6 
#
# 1 0.024453 -0.007574 -0.000862 0.000000 0.000000 0.000000
# 2 -0.007574 0.050638 -0.004683 0.000000 0.000000 0.000000
# 3 -0.000862 -0.004683 0.009270 0.000000 0.000000 0.000000
# 4 0.000000 0.000000 0.000000 0.032150 0.000000 0.000000
# 5 0.000000 0.000000 0.000000 0.000000 0.026918 0.000000
# 6 0.000000 0.000000 0.000000 0.000000 0.000000 0.051197
#
#
# Mechanical properties :
#
#
# Convention : Reuss Voigt Hill
#
# Bulk Modulus (GPa) = 17.20424 25.89278 21.54851
# Shear Modulus (GPa) = 20.81269 27.77154 24.29211
#
# Velocity S-wave (km/s) = 3.16275 3.65343 3.41691
# Velocity P-wave (km/s) = 4.64823 5.49922 5.09153
#
# Compressibility (1/GPa) = 0.05812521
#
# Stress axis : x y z
#
# Youngs Moduli (GPa) = 40.89421 19.74800 107.87481
#
# Poissons Ratio (x) = 0.14957 0.09295
# Poissons Ratio (y) = 0.30972 0.50515
# Poissons Ratio (z) = 0.03524 0.09247
#
# Static dielectric constant tensor:
#      x y z
#    x 1.728030 0.000000 0.000000 
#    y 0.000000 1.725430 0.000000 
#    z 0.000000 0.000000 1.863300 
# 
# From -- ./inp_files/27253.got.cif
#   From: 2010.05.17/outbox.cif.g08.bks.cpg/sg62_14_cif.got.tgz:27253.got - 2010.06.03 15:25:27.
