data_PCOD9465698
_publ_section_title
;
Structure prediction by ZEFSAII (Michael W. Deem and Ramdas Pophale) SiO2 
 PCOD9465698
Probable space group: P N M A
;
_chemical_formula_sum "Si O2"
_cell_formula_units_Z 56
_cell_length_a 15.269963
_cell_length_b 8.205798
_cell_length_c 22.005416
_cell_angle_alpha 90.000000
_cell_angle_beta 90.000000
_cell_angle_gamma 90.000000
_cell_volume 2757.327737
_symmetry_space_group_name_H-M "P N M A"
_symmetry_group_IT_number 62
_symmetry_cell_setting 'orthorhombic'
loop_
_space_group_symop_operation_xyz
x,y,z
1/2-x,-y,1/2+z
1/2+x,1/2-y,1/2-z
-x,1/2+y,-z
-x,-y,-z
1/2+x,y,1/2-z
1/2-x,1/2+y,1/2+z
x,1/2-y,z
loop_
_atom_site_type_symbol
_atom_site_label
_atom_site_fract_x
_atom_site_fract_y
_atom_site_fract_z
Si Si1 0.791345 0.549865 0.102657
Si Si2 0.514522 0.056373 0.568766
Si Si3 0.579056 0.552495 0.774771
Si Si4 0.523908 0.552533 0.909478
Si Si5 0.142810 0.943523 0.483934
Si Si6 0.570838 0.056589 0.315339
Si Si7 0.766808 0.442002 0.735273
O O1 0.791677 0.750000 0.104011
O O2 0.731592 0.493476 0.046232
O O3 0.746680 0.495486 0.165978
O O4 0.891266 0.494158 0.093936
O O5 0.519572 0.250000 0.568229
O O6 0.500000 0.000000 0.500000
O O7 0.438943 0.006980 0.616203
O O8 0.586495 0.750000 0.771825
O O9 0.539017 0.510012 0.839983
O O10 0.512989 0.494129 0.722672
O O11 0.673954 0.477035 0.766433
O O12 0.517341 0.750000 0.914306
O O13 0.436037 0.477717 0.937031
O O14 0.605165 0.496174 0.951758
O O15 0.154297 0.750000 0.490508
O O16 0.564568 0.250000 0.318441
O O17 0.656289 0.015329 0.276093
O O18 0.783300 0.250000 0.731412
#
# Coordination Sequence:
#
# PCOD9465698 Si02
#       7
#     8   8   8   8   8   8   8
#     4   9  19  36  58  84 115 155 201 246 300 365
#     4  11  23  42  64  89 121 160 207 258 315 378
#     4  10  21  37  57  83 117 154 195 243 300 361
#     4   9  18  32  51  80 115 148 183 233 291 348
#     4   9  17  32  54  78 107 147 189 230 284 350
#     4  11  23  40  61  88 122 161 205 258 317 374
#     4  11  22  37  60  88 117 155 203 255 309 364
#
# _framework density 20.309519000000002
#
# number of rings (size 3 to 8) (size 9 to 14) (size 15 to 20)
#    0.000    2.000    1.429    2.143    0.000    2.286 
#    0.000    5.000    0.000    0.000    0.000    0.000 
#    0.000    0.000    0.000    0.000    0.000    0.000 
#
# Total GULP energy -312632.240875 kJ/mol
# GULP energy per Si atom -5582.718587 kJ/mol
# Density = 2.026329 g / cm^3
# Si number density = 20.309519 Si / 1000 Ang^3
#
#
#
# Elastic Constant Matrix: (Units=GPa)
#
#
# Indices 1 2 3 4 5 6 
#
# 1 78.0235 3.5402 32.3626 0.0000 0.0000 0.0000
# 2 3.5402 16.3949 12.8622 0.0000 0.0000 0.0000
# 3 32.3626 12.8622 125.3534 0.0000 0.0000 0.0000
# 4 0.0000 0.0000 0.0000 17.9095 0.0000 0.0000
# 5 0.0000 0.0000 0.0000 0.0000 -0.6208 0.0000
# 6 0.0000 0.0000 0.0000 0.0000 0.0000 16.5698
#
#
#
# Elastic Compliance Matrix: (Units=1/GPa)
#
#
# Indices 1 2 3 4 5 6 
#
# 1 0.014354 -0.000209 -0.003684 0.000000 0.000000 0.000000
# 2 -0.000209 0.066337 -0.006753 0.000000 0.000000 0.000000
# 3 -0.003684 -0.006753 0.009622 0.000000 0.000000 0.000000
# 4 0.000000 0.000000 0.000000 0.055836 0.000000 0.000000
# 5 0.000000 0.000000 0.000000 0.000000 -1.610734 0.000000
# 6 0.000000 0.000000 0.000000 0.000000 0.000000 0.060351
#
#
# Mechanical properties :
#
#
# Convention : Reuss Voigt Hill
#
# Bulk Modulus (GPa) = 14.48839 35.25575 24.87207
# Shear Modulus (GPa) = -3.67665 18.17215 7.24775
#
# Velocity S-wave (km/s) = -1.34694 2.99450 1.89114
# Velocity P-wave (km/s) = 2.17492 5.41784 4.12815
#
# Compressibility (1/GPa) = 0.06902076
#
# Stress axis : x y z
#
# Youngs Moduli (GPa) = 69.66525 15.07448 103.93344
#
# Poissons Ratio (x) = 0.00315 0.38294
# Poissons Ratio (y) = 0.01456 0.70184
# Poissons Ratio (z) = 0.25668 0.10179
#
# Static dielectric constant tensor:
#      x y z
#    x 1.712350 0.000000 0.000000 
#    y 0.000000 1.763510 0.000000 
#    z 0.000000 0.000000 1.740570 
# 
# From -- ./inp_files/27217.got.cif
#   From: 2010.05.17/outbox.cif.g08.bks.cpg/sg62_14_cif.got.tgz:27217.got - 2010.06.03 15:25:27.
