data_PCOD9465919
_publ_section_title
;
Structure prediction by ZEFSAII (Michael W. Deem and Ramdas Pophale) SiO2 
 PCOD9465919
Probable space group: P N M A
;
_chemical_formula_sum "Si O2"
_cell_formula_units_Z 64
_cell_length_a 17.142597
_cell_length_b 7.816708
_cell_length_c 22.816980
_cell_angle_alpha 90.000000
_cell_angle_beta 90.000000
_cell_angle_gamma 90.000000
_cell_volume 3057.445090
_symmetry_space_group_name_H-M "P N M A"
_symmetry_group_IT_number 62
_symmetry_cell_setting 'orthorhombic'
loop_
_space_group_symop_operation_xyz
x,y,z
1/2-x,-y,1/2+z
1/2+x,1/2-y,1/2-z
-x,1/2+y,-z
-x,-y,-z
1/2+x,y,1/2-z
1/2-x,1/2+y,1/2+z
x,1/2-y,z
loop_
_atom_site_type_symbol
_atom_site_label
_atom_site_fract_x
_atom_site_fract_y
_atom_site_fract_z
Si Si1 0.177544 0.957158 0.118515
Si Si2 0.000923 0.545570 0.431849
Si Si3 0.899624 0.949408 0.226806
Si Si4 0.590943 0.543526 0.498867
Si Si5 0.147530 0.047309 0.354357
Si Si6 0.814457 0.049937 0.110426
Si Si7 0.078291 0.453589 0.232590
Si Si8 0.147378 0.040696 0.643825
O O1 0.177966 0.750000 0.117549
O O2 0.133453 0.017823 0.060172
O O3 0.267417 0.014106 0.122414
O O4 0.130787 0.012493 0.176058
O O5 0.002967 0.750000 0.426172
O O6 0.923258 0.483938 0.397976
O O7 0.000000 0.500000 0.500000
O O8 0.077375 0.475510 0.399715
O O9 0.878420 0.750000 0.222686
O O10 0.868669 0.015347 0.289397
O O11 0.862271 0.037888 0.170629
O O12 0.992853 0.966702 0.226231
O O13 0.500000 0.500000 0.500000
O O14 0.595244 0.750000 0.498743
O O15 0.635836 0.476994 0.556501
O O16 0.160475 0.250000 0.345298
O O17 0.228750 0.973874 0.378292
O O18 0.120279 0.978357 0.291274
O O19 0.802920 0.250000 0.095919
O O20 0.066623 0.250000 0.238888
O O21 0.146294 0.250000 0.644024
#
# Coordination Sequence:
#
# PCOD9465919 Si02
#       8
#     8   8   8   8   8   8   8   8
#     4  10  21  38  61  86 111 152 201 243 292 352
#     4  11  23  40  63  90 124 161 199 244 297 353
#     4  11  21  37  60  88 118 155 198 243 294 353
#     4  10  22  39  60  83 113 151 193 237 287 349
#     4  10  22  40  62  88 120 158 199 243 299 361
#     4  10  22  39  60  87 118 155 197 247 303 353
#     4  11  22  37  58  88 122 155 192 243 300 354
#     4   9  20  38  61  87 116 151 196 245 292 345
#
# _framework density 20.932511000000002
#
# number of rings (size 3 to 8) (size 9 to 14) (size 15 to 20)
#    0.000    1.750    1.250    2.625    1.750    4.000 
#    0.000    1.875    0.000    0.000    0.000    0.000 
#    0.000    0.000    0.000    0.000    0.000    0.000 
#
# Total GULP energy -357743.902394 kJ/mol
# GULP energy per Si atom -5589.748475 kJ/mol
# Density = 2.088487 g / cm^3
# Si number density = 20.932511 Si / 1000 Ang^3
#
#
#
# Elastic Constant Matrix: (Units=GPa)
#
#
# Indices 1 2 3 4 5 6 
#
# 1 191.3764 -14.4264 101.0527 0.0000 0.0000 0.0000
# 2 -14.4264 21.0600 -17.4867 0.0000 0.0000 0.0000
# 3 101.0527 -17.4867 183.0437 0.0000 0.0000 0.0000
# 4 0.0000 0.0000 0.0000 10.3877 0.0000 0.0000
# 5 0.0000 0.0000 0.0000 0.0000 19.4135 0.0000
# 6 0.0000 0.0000 0.0000 0.0000 0.0000 20.7112
#
#
#
# Elastic Compliance Matrix: (Units=1/GPa)
#
#
# Indices 1 2 3 4 5 6 
#
# 1 0.007440 0.001831 -0.003932 0.000000 0.000000 0.000000
# 2 0.001831 0.052025 0.003959 0.000000 0.000000 0.000000
# 3 -0.003932 0.003959 0.008012 0.000000 0.000000 0.000000
# 4 0.000000 0.000000 0.000000 0.096268 0.000000 0.000000
# 5 0.000000 0.000000 0.000000 0.000000 0.051511 0.000000
# 6 0.000000 0.000000 0.000000 0.000000 0.000000 0.048283
#
#
# Mechanical properties :
#
#
# Convention : Reuss Voigt Hill
#
# Bulk Modulus (GPa) = 14.04629 59.30662 36.67645
# Shear Modulus (GPa) = 17.63335 31.85850 24.74593
#
# Velocity S-wave (km/s) = 2.90555 3.90547 3.44201
# Velocity P-wave (km/s) = 4.24041 6.98074 5.77546
#
# Compressibility (1/GPa) = 0.07119319
#
# Stress axis : x y z
#
# Youngs Moduli (GPa) = 134.41368 19.22151 124.80806
#
# Poissons Ratio (x) = -0.03520 0.49078
# Poissons Ratio (y) = -0.24614 -0.49413
# Poissons Ratio (z) = 0.52855 -0.07610
#
# Static dielectric constant tensor:
#      x y z
#    x 1.714480 0.000000 0.000000 
#    y 0.000000 1.787620 0.000000 
#    z 0.000000 0.000000 1.717060 
# 
# From -- ./inp_files/27626.got.cif
#   From: 2010.05.17/outbox.cif.g08.bks.cpg/sg62_14_cif.got.tgz:27626.got - 2010.06.03 15:25:27.
