data_PCOD9465047
_publ_section_title
;
Structure prediction by ZEFSAII (Michael W. Deem and Ramdas Pophale) SiO2 
 PCOD9465047
Probable space group: P N M A
;
_chemical_formula_sum "Si O2"
_cell_formula_units_Z 56
_cell_length_a 13.756005
_cell_length_b 14.186798
_cell_length_c 12.677110
_cell_angle_alpha 90.000000
_cell_angle_beta 90.000000
_cell_angle_gamma 90.000000
_cell_volume 2473.984468
_symmetry_space_group_name_H-M "P N M A"
_symmetry_group_IT_number 62
_symmetry_cell_setting 'orthorhombic'
loop_
_space_group_symop_operation_xyz
x,y,z
1/2-x,-y,1/2+z
1/2+x,1/2-y,1/2-z
-x,1/2+y,-z
-x,-y,-z
1/2+x,y,1/2-z
1/2-x,1/2+y,1/2+z
x,1/2-y,z
loop_
_atom_site_type_symbol
_atom_site_label
_atom_site_fract_x
_atom_site_fract_y
_atom_site_fract_z
Si Si1 0.491947 0.388644 0.011108
Si Si2 0.139725 0.646867 0.094151
Si Si3 0.203533 0.144817 0.442338
Si Si4 0.504931 0.908674 0.574697
Si Si5 0.808377 0.863960 0.799215
Si Si6 0.983293 0.140662 0.710948
Si Si7 0.104866 0.550671 0.709473
O O1 0.599503 0.348843 0.003288
O O2 0.451324 0.379643 0.128213
O O3 0.500000 0.500000 0.000000
O O4 0.437104 0.356434 0.906328
O O5 0.179318 0.750000 0.125973
O O6 0.093815 0.606496 0.201009
O O7 0.222243 0.596443 0.023606
O O8 0.051221 0.658182 0.012513
O O9 0.244763 0.250000 0.425917
O O10 0.178850 0.109916 0.325102
O O11 0.402222 0.884659 0.628787
O O12 0.580480 0.917909 0.671637
O O13 0.500000 0.000000 0.500000
O O14 0.789928 0.750000 0.806386
O O15 0.714886 0.928038 0.824240
O O16 0.012450 0.250000 0.736450
O O17 0.065783 0.058067 0.706809
#
# Coordination Sequence:
#
# PCOD9465047 Si02
#       7
#     8   8   8   8   8   8   8
#     4  10  22  41  63  92 129 178 233 295 353 420
#     4  10  21  39  67 100 138 183 235 292 365 441
#     4  10  20  37  65 100 132 176 233 291 352 432
#     4  12  23  41  69 101 145 187 234 299 370 433
#     4  11  25  42  68 106 142 181 237 301 362 428
#     4  10  22  43  65  94 137 187 237 291 362 442
#     4  11  23  44  69 104 141 185 238 301 368 429
#
# _framework density 22.635549000000001
#
# number of rings (size 3 to 8) (size 9 to 14) (size 15 to 20)
#    0.000    1.429    4.286    0.857    0.000    4.000 
#    0.000    1.429    0.000    4.286    0.000    0.000 
#    0.000    0.000    0.000    0.000    0.000    0.000 
#
# Total GULP energy -311751.550296 kJ/mol
# GULP energy per Si atom -5566.991970 kJ/mol
# Density = 2.258403 g / cm^3
# Si number density = 22.635549 Si / 1000 Ang^3
#
#
#
# Elastic Constant Matrix: (Units=GPa)
#
#
# Indices 1 2 3 4 5 6 
#
# 1 111.4415 15.6061 53.2863 0.0000 0.0000 0.0000
# 2 15.6061 94.7982 23.1714 0.0000 0.0000 0.0000
# 3 53.2863 23.1714 177.9381 0.0000 0.0000 0.0000
# 4 0.0000 0.0000 0.0000 12.0406 0.0000 0.0000
# 5 0.0000 0.0000 0.0000 0.0000 21.5999 0.0000
# 6 0.0000 0.0000 0.0000 0.0000 0.0000 24.7246
#
#
#
# Elastic Compliance Matrix: (Units=1/GPa)
#
#
# Indices 1 2 3 4 5 6 
#
# 1 0.010563 -0.000998 -0.003034 0.000000 0.000000 0.000000
# 2 -0.000998 0.010990 -0.001132 0.000000 0.000000 0.000000
# 3 -0.003034 -0.001132 0.006676 0.000000 0.000000 0.000000
# 4 0.000000 0.000000 0.000000 0.083053 0.000000 0.000000
# 5 0.000000 0.000000 0.000000 0.000000 0.046296 0.000000
# 6 0.000000 0.000000 0.000000 0.000000 0.000000 0.040446
#
#
# Mechanical properties :
#
#
# Convention : Reuss Voigt Hill
#
# Bulk Modulus (GPa) = 55.85899 63.14506 59.50202
# Shear Modulus (GPa) = 23.32983 31.14728 27.23855
#
# Velocity S-wave (km/s) = 3.21389 3.71352 3.47270
# Velocity P-wave (km/s) = 6.20510 6.80764 6.51334
#
# Compressibility (1/GPa) = 0.01790222
#
# Stress axis : x y z
#
# Youngs Moduli (GPa) = 94.66566 90.99403 149.79433
#
# Poissons Ratio (x) = 0.09077 0.45440
# Poissons Ratio (y) = 0.09443 0.16962
# Poissons Ratio (z) = 0.28717 0.10304
#
# Static dielectric constant tensor:
#      x y z
#    x 1.887220 0.000000 0.000000 
#    y 0.000000 2.007130 0.000000 
#    z 0.000000 0.000000 1.891330 
# 
# From -- ./inp_files/13390.got.cif
#   From: 2010.05.17/outbox.cif.g08.bks.cpg/sg62_7_cif.got.tgz:13390.got - 2010.06.03 15:25:27.
