data_PCOD9465410
_publ_section_title
;
Structure prediction by ZEFSAII (Michael W. Deem and Ramdas Pophale) SiO2 
 PCOD9465410
Probable space group: P N M A
;
_chemical_formula_sum "Si O2"
_cell_formula_units_Z 56
_cell_length_a 12.777133
_cell_length_b 13.659288
_cell_length_c 13.013399
_cell_angle_alpha 90.000000
_cell_angle_beta 90.000000
_cell_angle_gamma 90.000000
_cell_volume 2271.183494
_symmetry_space_group_name_H-M "P N M A"
_symmetry_group_IT_number 62
_symmetry_cell_setting 'orthorhombic'
loop_
_space_group_symop_operation_xyz
x,y,z
1/2-x,-y,1/2+z
1/2+x,1/2-y,1/2-z
-x,1/2+y,-z
-x,-y,-z
1/2+x,y,1/2-z
1/2-x,1/2+y,1/2+z
x,1/2-y,z
loop_
_atom_site_type_symbol
_atom_site_label
_atom_site_fract_x
_atom_site_fract_y
_atom_site_fract_z
Si Si1 0.626986 0.636443 0.485434
Si Si2 0.418173 0.936225 0.721857
Si Si3 0.009266 0.858268 0.281252
Si Si4 0.360491 0.359715 0.270350
Si Si5 0.676743 0.462744 0.882207
Si Si6 0.117975 0.365629 0.997716
Si Si7 0.821254 0.043940 0.597208
O O1 0.637586 0.750000 0.461159
O O2 0.528298 0.544488 0.286879
O O3 0.711357 0.582667 0.413651
O O4 0.653366 0.625760 0.606845
O O5 0.346052 0.957315 0.821039
O O6 0.513556 0.863827 0.745713
O O7 0.368892 0.896735 0.616835
O O8 0.006270 0.750000 0.234588
O O9 0.107985 0.868153 0.358326
O O10 0.901330 0.880397 0.339874
O O11 0.321163 0.250000 0.243633
O O12 0.323826 0.449861 0.200145
O O13 0.495879 0.388333 0.520807
O O14 0.635704 0.508441 0.988120
O O15 0.133413 0.250000 0.987425
O O16 0.203198 0.419272 0.925727
#
# Coordination Sequence:
#
# PCOD9465410 Si02
#       7
#     8   8   8   8   8   8   8
#     4   9  20  40  68  99 133 179 233 288 349 416
#     4   8  19  37  62 100 136 175 225 295 348 411
#     4   9  19  37  63  95 133 179 223 279 348 417
#     4   9  19  38  66 101 137 180 237 290 348 419
#     4  11  21  37  63 101 142 175 224 292 354 416
#     4  10  20  41  72 102 131 177 237 294 353 419
#     4  10  22  36  60 101 138 174 227 292 350 417
#
# _framework density 24.656749999999999
#
# number of rings (size 3 to 8) (size 9 to 14) (size 15 to 20)
#    0.857    1.714    0.000    2.571    0.000    2.857 
#    0.000    3.571    3.143   12.000    0.000    2.000 
#    0.000    0.000    0.000    0.000    0.000    0.000 
#
# Total GULP energy -312813.491835 kJ/mol
# GULP energy per Si atom -5585.955211 kJ/mol
# Density = 2.460063 g / cm^3
# Si number density = 24.656750 Si / 1000 Ang^3
#
#
#
# Elastic Constant Matrix: (Units=GPa)
#
#
# Indices 1 2 3 4 5 6 
#
# 1 166.0285 40.0703 63.7995 0.0000 0.0000 0.0000
# 2 40.0703 156.4755 45.5715 0.0000 0.0000 0.0000
# 3 63.7995 45.5715 150.8794 0.0000 0.0000 0.0000
# 4 0.0000 0.0000 0.0000 27.0856 0.0000 0.0000
# 5 0.0000 0.0000 0.0000 0.0000 51.2067 0.0000
# 6 0.0000 0.0000 0.0000 0.0000 0.0000 32.6880
#
#
#
# Elastic Compliance Matrix: (Units=1/GPa)
#
#
# Indices 1 2 3 4 5 6 
#
# 1 0.007352 -0.001072 -0.002785 0.000000 0.000000 0.000000
# 2 -0.001072 0.007163 -0.001711 0.000000 0.000000 0.000000
# 3 -0.002785 -0.001711 0.008322 0.000000 0.000000 0.000000
# 4 0.000000 0.000000 0.000000 0.036920 0.000000 0.000000
# 5 0.000000 0.000000 0.000000 0.000000 0.019529 0.000000
# 6 0.000000 0.000000 0.000000 0.000000 0.000000 0.030592
#
#
# Mechanical properties :
#
#
# Convention : Reuss Voigt Hill
#
# Bulk Modulus (GPa) = 85.44779 85.80734 85.62756
# Shear Modulus (GPa) = 40.02764 43.79220 41.90992
#
# Velocity S-wave (km/s) = 4.03351 4.21892 4.12726
# Velocity P-wave (km/s) = 7.51149 7.65563 7.58390
#
# Compressibility (1/GPa) = 0.01170305
#
# Stress axis : x y z
#
# Youngs Moduli (GPa) = 136.01915 139.59965 120.16141
#
# Poissons Ratio (x) = 0.14959 0.33466
# Poissons Ratio (y) = 0.14575 0.20554
# Poissons Ratio (z) = 0.37883 0.23879
#
# Static dielectric constant tensor:
#      x y z
#    x 2.043550 0.000000 0.000000 
#    y 0.000000 1.938160 0.000000 
#    z 0.000000 0.000000 2.046840 
# 
# From -- ./inp_files/19935.got.cif
#   From: 2010.05.17/outbox.cif.g08.bks.cpg/sg62_10_cif.got.tgz:19935.got - 2010.06.03 15:25:27.
