data_PCOD9465457
_publ_section_title
;
Structure prediction by ZEFSAII (Michael W. Deem and Ramdas Pophale) SiO2 
 PCOD9465457
Probable space group: P N M A
;
_chemical_formula_sum "Si O2"
_cell_formula_units_Z 40
_cell_length_a 11.725419
_cell_length_b 14.140912
_cell_length_c 10.913172
_cell_angle_alpha 90.000000
_cell_angle_beta 90.000000
_cell_angle_gamma 90.000000
_cell_volume 1809.492513
_symmetry_space_group_name_H-M "P N M A"
_symmetry_group_IT_number 62
_symmetry_cell_setting 'orthorhombic'
loop_
_space_group_symop_operation_xyz
x,y,z
1/2-x,-y,1/2+z
1/2+x,1/2-y,1/2-z
-x,1/2+y,-z
-x,-y,-z
1/2+x,y,1/2-z
1/2-x,1/2+y,1/2+z
x,1/2-y,z
loop_
_atom_site_type_symbol
_atom_site_label
_atom_site_fract_x
_atom_site_fract_y
_atom_site_fract_z
Si Si1 0.535375 0.141123 0.502094
Si Si2 0.533835 0.996503 0.298414
Si Si3 0.624652 0.969231 0.047136
Si Si4 0.638128 0.855400 0.823919
Si Si5 0.232354 0.648710 0.928686
O O1 0.577542 0.250000 0.499430
O O2 0.584072 0.065697 0.403763
O O3 0.400045 0.146564 0.467445
O O4 0.534198 0.087130 0.632203
O O5 0.448583 0.066418 0.226943
O O6 0.616251 0.955010 0.193630
O O7 0.703962 0.058820 0.021604
O O8 0.664564 0.882633 0.963138
O O9 0.500000 0.000000 0.000000
O O10 0.587135 0.750000 0.819440
O O11 0.735295 0.855126 0.719766
O O12 0.281179 0.750000 0.968005
#
# Coordination Sequence:
#
# PCOD9465457 Si02
#       5
#     8   8   8   8   8
#     4   9  18  34  56  82 114 149 188 231 277 333
#     4   9  18  33  55  84 109 149 183 230 281 331
#     4  10  21  33  55  84 110 145 186 239 283 336
#     4   9  19  37  56  79 112 147 187 231 281 340
#     4   9  19  35  56  77 106 149 189 228 279 339
#
# _framework density 22.105646
#
# number of rings (size 3 to 8) (size 9 to 14) (size 15 to 20)
#    0.000    2.800    0.000    1.800    2.800    4.800 
#    0.000    3.000    0.000    0.000    0.000    0.000 
#    0.000    0.000    0.000    0.000    0.000    0.000 
#
# Total GULP energy -222970.045849 kJ/mol
# GULP energy per Si atom -5574.251146 kJ/mol
# Density = 2.205533 g / cm^3
# Si number density = 22.105646 Si / 1000 Ang^3
#
#
#
# Elastic Constant Matrix: (Units=GPa)
#
#
# Indices 1 2 3 4 5 6 
#
# 1 34.4323 4.1450 3.0260 0.0000 0.0000 0.0000
# 2 4.1450 119.4552 62.9021 0.0000 0.0000 0.0000
# 3 3.0260 62.9021 105.5478 0.0000 0.0000 0.0000
# 4 0.0000 0.0000 0.0000 33.0051 0.0000 0.0000
# 5 0.0000 0.0000 0.0000 0.0000 19.1208 0.0000
# 6 0.0000 0.0000 0.0000 0.0000 0.0000 20.8833
#
#
#
# Elastic Compliance Matrix: (Units=1/GPa)
#
#
# Indices 1 2 3 4 5 6 
#
# 1 0.029173 -0.000833 -0.000340 0.000000 0.000000 0.000000
# 2 -0.000833 0.012224 -0.007261 0.000000 0.000000 0.000000
# 3 -0.000340 -0.007261 0.013811 0.000000 0.000000 0.000000
# 4 0.000000 0.000000 0.000000 0.030298 0.000000 0.000000
# 5 0.000000 0.000000 0.000000 0.000000 0.052299 0.000000
# 6 0.000000 0.000000 0.000000 0.000000 0.000000 0.047885
#
#
# Mechanical properties :
#
#
# Convention : Reuss Voigt Hill
#
# Bulk Modulus (GPa) = 26.08264 44.39796 35.24030
# Shear Modulus (GPa) = 23.21930 27.22599 25.22264
#
# Velocity S-wave (km/s) = 3.24447 3.51327 3.38154
# Velocity P-wave (km/s) = 5.08529 6.04859 5.58774
#
# Compressibility (1/GPa) = 0.03833967
#
# Stress axis : x y z
#
# Youngs Moduli (GPa) = 34.27862 81.80848 72.40441
#
# Poissons Ratio (x) = 0.06818 0.02460
# Poissons Ratio (y) = 0.02857 0.52572
# Poissons Ratio (z) = 0.01164 0.59400
#
# Static dielectric constant tensor:
#      x y z
#    x 1.865610 0.000000 0.000000 
#    y 0.000000 1.789640 0.000000 
#    z 0.000000 0.000000 1.897520 
# 
# From -- ./inp_files/13015.got.cif
#   From: 2010.05.17/outbox.cif.g08.bks.cpg/sg62_7_cif.got.tgz:13015.got - 2010.06.03 15:25:27.
