data_PCOD9465859
_publ_section_title
;
Structure prediction by ZEFSAII (Michael W. Deem and Ramdas Pophale) SiO2 
 PCOD9465859
Probable space group: P N M A
;
_chemical_formula_sum "Si O2"
_cell_formula_units_Z 56
_cell_length_a 16.104049
_cell_length_b 7.840326
_cell_length_c 19.816501
_cell_angle_alpha 90.000000
_cell_angle_beta 90.000000
_cell_angle_gamma 90.000000
_cell_volume 2502.051115
_symmetry_space_group_name_H-M "P N M A"
_symmetry_group_IT_number 62
_symmetry_cell_setting 'orthorhombic'
loop_
_space_group_symop_operation_xyz
x,y,z
1/2-x,-y,1/2+z
1/2+x,1/2-y,1/2-z
-x,1/2+y,-z
-x,-y,-z
1/2+x,y,1/2-z
1/2-x,1/2+y,1/2+z
x,1/2-y,z
loop_
_atom_site_type_symbol
_atom_site_label
_atom_site_fract_x
_atom_site_fract_y
_atom_site_fract_z
Si Si1 0.837047 0.551693 0.139792
Si Si2 0.164562 0.561324 0.147136
Si Si3 0.682222 0.553351 0.925989
Si Si4 0.093781 0.054389 0.011248
Si Si5 0.500573 0.041588 0.717062
Si Si6 0.323351 0.039412 0.923038
Si Si7 0.004430 0.455069 0.625008
O O1 0.829745 0.750000 0.161684
O O2 0.864212 0.547550 0.061495
O O3 0.743543 0.480917 0.133269
O O4 0.914994 0.477573 0.180928
O O5 0.171161 0.750000 0.176213
O O6 0.258947 0.502303 0.135859
O O7 0.087216 0.476947 0.186592
O O8 0.132856 0.557870 0.069777
O O9 0.702661 0.750000 0.934466
O O10 0.586076 0.529884 0.909056
O O11 0.696892 0.477704 0.000903
O O12 0.098305 0.250000 0.034926
O O13 0.000000 0.000000 0.000000
O O14 0.500187 0.250000 0.706962
O O15 0.504652 0.004970 0.795791
O O16 0.320631 0.250000 0.922305
O O17 0.417076 0.988613 0.906105
O O18 0.009483 0.250000 0.618001
#
# Coordination Sequence:
#
# PCOD9465859 Si02
#       7
#     8   8   8   8   8   8   8
#     4   9  16  30  53  81 112 145 180 226 282 340
#     4  11  21  35  57  88 117 146 189 239 287 344
#     4  11  22  38  58  82 112 150 189 237 295 343
#     4  11  19  31  53  82 117 152 187 231 288 343
#     4   9  19  34  55  85 117 146 183 229 281 338
#     4   9  18  33  56  82 109 144 188 233 285 336
#     4  10  21  38  59  83 109 147 195 239 279 333
#
# _framework density 22.381636
#
# number of rings (size 3 to 8) (size 9 to 14) (size 15 to 20)
#    0.000    2.000    2.857    1.714    0.000    1.143 
#    0.000    6.429    0.000    0.000    0.000    0.000 
#    0.000    0.000    0.000    0.000    0.000    0.000 
#
# Total GULP energy -312325.549905 kJ/mol
# GULP energy per Si atom -5577.241963 kJ/mol
# Density = 2.233069 g / cm^3
# Si number density = 22.381636 Si / 1000 Ang^3
#
#
#
# Elastic Constant Matrix: (Units=GPa)
#
#
# Indices 1 2 3 4 5 6 
#
# 1 178.6646 2.6661 20.5932 0.0000 0.0000 0.0000
# 2 2.6661 23.8231 -0.2561 0.0000 0.0000 0.0000
# 3 20.5932 -0.2561 41.5729 0.0000 0.0000 0.0000
# 4 0.0000 0.0000 0.0000 5.8309 0.0000 0.0000
# 5 0.0000 0.0000 0.0000 0.0000 21.7474 0.0000
# 6 0.0000 0.0000 0.0000 0.0000 0.0000 -7.8604
#
#
#
# Elastic Compliance Matrix: (Units=1/GPa)
#
#
# Indices 1 2 3 4 5 6 
#
# 1 0.005948 -0.000697 -0.002950 0.000000 0.000000 0.000000
# 2 -0.000697 0.042061 0.000605 0.000000 0.000000 0.000000
# 3 -0.002950 0.000605 0.025519 0.000000 0.000000 0.000000
# 4 0.000000 0.000000 0.000000 0.171501 0.000000 0.000000
# 5 0.000000 0.000000 0.000000 0.000000 0.045983 0.000000
# 6 0.000000 0.000000 0.000000 0.000000 0.000000 -0.127220
#
#
# Mechanical properties :
#
#
# Convention : Reuss Voigt Hill
#
# Bulk Modulus (GPa) = 14.82776 32.22967 23.52871
# Shear Modulus (GPa) = 25.99328 18.68074 22.33701
#
# Velocity S-wave (km/s) = 3.41158 2.89216 3.16255
# Velocity P-wave (km/s) = 4.70721 5.05807 4.88579
#
# Compressibility (1/GPa) = 0.06744106
#
# Stress axis : x y z
#
# Youngs Moduli (GPa) = 168.13625 23.77525 39.18597
#
# Poissons Ratio (x) = 0.01658 0.11562
# Poissons Ratio (y) = 0.11724 -0.02369
# Poissons Ratio (z) = 0.49607 -0.01437
#
# Static dielectric constant tensor:
#      x y z
#    x 1.935110 0.000000 0.000000 
#    y 0.000000 1.842070 0.000000 
#    z 0.000000 0.000000 1.781150 
# 
# From -- ./inp_files/27174.got.cif
#   From: 2010.05.17/outbox.cif.g08.bks.cpg/sg62_14_cif.got.tgz:27174.got - 2010.06.03 15:25:27.
