data_PCOD9465788
_publ_section_title
;
Structure prediction by ZEFSAII (Michael W. Deem and Ramdas Pophale) SiO2 
 PCOD9465788
Probable space group: P N M A
;
_chemical_formula_sum "Si O2"
_cell_formula_units_Z 64
_cell_length_a 19.287044
_cell_length_b 8.306926
_cell_length_c 19.815875
_cell_angle_alpha 90.000000
_cell_angle_beta 90.000000
_cell_angle_gamma 90.000000
_cell_volume 3174.821166
_symmetry_space_group_name_H-M "P N M A"
_symmetry_group_IT_number 62
_symmetry_cell_setting 'orthorhombic'
loop_
_space_group_symop_operation_xyz
x,y,z
1/2-x,-y,1/2+z
1/2+x,1/2-y,1/2-z
-x,1/2+y,-z
-x,-y,-z
1/2+x,y,1/2-z
1/2-x,1/2+y,1/2+z
x,1/2-y,z
loop_
_atom_site_type_symbol
_atom_site_label
_atom_site_fract_x
_atom_site_fract_y
_atom_site_fract_z
Si Si1 0.395222 0.555633 0.028243
Si Si2 0.482259 0.555978 0.625354
Si Si3 0.734610 0.054854 0.884097
Si Si4 0.595828 0.554673 0.240720
Si Si5 0.755891 0.556330 0.232227
Si Si6 0.860314 0.441381 0.116968
Si Si7 0.136655 0.058169 0.032157
Si Si8 0.035692 0.943580 0.399475
O O1 0.395901 0.750000 0.027678
O O2 0.326070 0.502229 0.065560
O O3 0.462508 0.498662 0.070457
O O4 0.405607 0.495624 0.952423
O O5 0.484964 0.750000 0.621516
O O6 0.439140 0.509042 0.691616
O O7 0.561148 0.494564 0.628829
O O8 0.437467 0.498716 0.560874
O O9 0.738780 0.250000 0.885282
O O10 0.719060 0.006473 0.807087
O O11 0.806520 0.987448 0.911851
O O12 0.595651 0.750000 0.244190
O O13 0.675505 0.503286 0.229284
O O14 0.552143 0.501309 0.175582
O O15 0.755709 0.750000 0.230336
O O16 0.805005 0.500967 0.171758
O O17 0.862294 0.250000 0.122750
O O18 0.843036 0.485566 0.039840
O O19 0.134065 0.250000 0.024959
O O20 0.033546 0.750000 0.398414
#
# Coordination Sequence:
#
# PCOD9465788 Si02
#       8
#     8   8   8   8   8   8   8   8
#     4   9  19  35  55  81 113 150 191 236 289 344
#     4  10  23  42  62  89 121 156 201 250 303 361
#     4  10  21  38  60  87 120 156 194 239 294 358
#     4  10  21  37  61  87 118 157 196 241 294 354
#     4  10  22  40  60  89 123 157 198 242 294 359
#     4  11  25  42  63  91 123 156 199 253 303 355
#     4  11  23  41  64  89 118 158 203 250 302 359
#     4   9  19  35  55  82 113 149 194 240 285 341
#
# _framework density 20.158617
#
# number of rings (size 3 to 8) (size 9 to 14) (size 15 to 20)
#    0.000    2.000    1.250    1.125    3.500    3.500 
#    0.000    0.000    0.000    0.000    0.000    0.000 
#    0.000    0.000    0.000    0.000    0.000    0.000 
#
# Total GULP energy -357395.632285 kJ/mol
# GULP energy per Si atom -5584.306754 kJ/mol
# Density = 2.011273 g / cm^3
# Si number density = 20.158617 Si / 1000 Ang^3
#
#
#
# Elastic Constant Matrix: (Units=GPa)
#
#
# Indices 1 2 3 4 5 6 
#
# 1 41.7388 6.9503 29.9782 0.0000 0.0000 0.0000
# 2 6.9503 2.9704 2.4195 0.0000 0.0000 0.0000
# 3 29.9782 2.4195 117.1949 0.0000 0.0000 0.0000
# 4 0.0000 0.0000 0.0000 -19.0983 0.0000 0.0000
# 5 0.0000 0.0000 0.0000 0.0000 40.5239 0.0000
# 6 0.0000 0.0000 0.0000 0.0000 0.0000 23.1548
#
#
#
# Elastic Compliance Matrix: (Units=1/GPa)
#
#
# Indices 1 2 3 4 5 6 
#
# 1 0.049154 -0.106564 -0.010373 0.000000 0.000000 0.000000
# 2 -0.106564 0.573438 0.015420 0.000000 0.000000 0.000000
# 3 -0.010373 0.015420 0.010868 0.000000 0.000000 0.000000
# 4 0.000000 0.000000 0.000000 -0.052361 0.000000 0.000000
# 5 0.000000 0.000000 0.000000 0.000000 0.024677 0.000000
# 6 0.000000 0.000000 0.000000 0.000000 0.000000 0.043188
#
#
# Mechanical properties :
#
#
# Convention : Reuss Voigt Hill
#
# Bulk Modulus (GPa) = 2.32328 26.73335 14.52832
# Shear Modulus (GPa) = 5.02274 17.08648 11.05461
#
# Velocity S-wave (km/s) = 1.58020 2.91452 2.34429
# Velocity P-wave (km/s) = 2.11763 4.96147 3.81448
#
# Compressibility (1/GPa) = 0.43042532
#
# Stress axis : x y z
#
# Youngs Moduli (GPa) = 20.34421 1.74387 92.01367
#
# Poissons Ratio (x) = 0.18583 0.95450
# Poissons Ratio (y) = 2.16796 -1.41886
# Poissons Ratio (z) = 0.21104 -0.02689
#
# Static dielectric constant tensor:
#      x y z
#    x 1.726250 0.000000 0.000000 
#    y 0.000000 1.703290 0.000000 
#    z 0.000000 0.000000 1.689540 
# 
# From -- ./inp_files/24779.got.cif
#   From: 2010.05.17/outbox.cif.g08.bks.cpg/sg62_13_cif.got.tgz:24779.got - 2010.06.03 15:25:27.
