data_PCOD9465516
_publ_section_title
;
Structure prediction by ZEFSAII (Michael W. Deem and Ramdas Pophale) SiO2 
 PCOD9465516
Probable space group: P N M A
;
_chemical_formula_sum "Si O2"
_cell_formula_units_Z 64
_cell_length_a 29.328624
_cell_length_b 18.089266
_cell_length_c 5.374113
_cell_angle_alpha 90.000000
_cell_angle_beta 90.000000
_cell_angle_gamma 90.000000
_cell_volume 2851.145802
_symmetry_space_group_name_H-M "P N M A"
_symmetry_group_IT_number 62
_symmetry_cell_setting 'orthorhombic'
loop_
_space_group_symop_operation_xyz
x,y,z
1/2-x,-y,1/2+z
1/2+x,1/2-y,1/2-z
-x,1/2+y,-z
-x,-y,-z
1/2+x,y,1/2-z
1/2-x,1/2+y,1/2+z
x,1/2-y,z
loop_
_atom_site_type_symbol
_atom_site_label
_atom_site_fract_x
_atom_site_fract_y
_atom_site_fract_z
Si Si1 0.286316 0.432342 0.818524
Si Si2 0.935723 0.660902 0.615178
Si Si3 0.985280 0.840506 0.111423
Si Si4 0.643484 0.660687 0.919609
Si Si5 0.351892 0.832606 0.208130
Si Si6 0.589647 0.660532 0.425274
Si Si7 0.693122 0.068931 0.444045
Si Si8 0.756602 0.831370 0.564533
O O1 0.310155 0.384063 0.031111
O O2 0.235042 0.460005 0.883002
O O3 0.315794 0.503584 0.748334
O O4 0.280105 0.379696 0.580326
O O5 0.939923 0.750000 0.627537
O O6 0.953689 0.634325 0.881160
O O7 0.884106 0.647693 0.523248
O O8 0.966334 0.635924 0.380235
O O9 0.985016 0.750000 0.114343
O O10 0.037266 0.864570 0.068929
O O11 0.649900 0.750000 0.919588
O O12 0.613097 0.642350 0.163133
O O13 0.618221 0.637307 0.667257
O O14 0.366267 0.750000 0.300539
O O15 0.349141 0.897410 0.409155
O O16 0.299598 0.826521 0.124310
O O17 0.588551 0.750000 0.438047
O O18 0.718367 0.135111 0.301331
O O19 0.738440 0.750000 0.612568
#
# Coordination Sequence:
#
# PCOD9465516 Si02
#       8
#     8   8   8   8   8   8   8   8
#     4  11  23  38  56  81 109 150 199 238 291 345
#     4   9  17  28  49  80 113 147 183 227 282 350
#     4   9  16  28  49  78 114 148 179 226 290 345
#     4  10  21  35  56  83 114 148 192 242 287 344
#     4   9  20  35  53  83 114 146 189 234 288 344
#     4   9  18  33  52  81 116 148 184 236 295 344
#     4  11  22  38  57  78 112 151 190 242 288 345
#     4  10  21  37  58  80 112 148 186 237 292 342
#
# _framework density 22.447118
#
# number of rings (size 3 to 8) (size 9 to 14) (size 15 to 20)
#    0.000    2.250    1.250    1.500    3.500    4.500 
#    0.000    0.000    0.000    0.000    0.000    5.250 
#    0.000    0.000    0.000    0.000    0.000    0.000 
#
# Total GULP energy -357464.317227 kJ/mol
# GULP energy per Si atom -5585.379957 kJ/mol
# Density = 2.239603 g / cm^3
# Si number density = 22.447118 Si / 1000 Ang^3
#
#
#
# Elastic Constant Matrix: (Units=GPa)
#
#
# Indices 1 2 3 4 5 6 
#
# 1 94.1771 5.9373 30.7285 0.0000 0.0000 0.0000
# 2 5.9373 43.6222 5.3624 0.0000 0.0000 0.0000
# 3 30.7285 5.3624 100.7494 0.0000 0.0000 0.0000
# 4 0.0000 0.0000 0.0000 12.3231 0.0000 0.0000
# 5 0.0000 0.0000 0.0000 0.0000 37.9371 0.0000
# 6 0.0000 0.0000 0.0000 0.0000 0.0000 5.0180
#
#
#
# Elastic Compliance Matrix: (Units=1/GPa)
#
#
# Indices 1 2 3 4 5 6 
#
# 1 0.011851 -0.001176 -0.003552 0.000000 0.000000 0.000000
# 2 -0.001176 0.023192 -0.000876 0.000000 0.000000 0.000000
# 3 -0.003552 -0.000876 0.011056 0.000000 0.000000 0.000000
# 4 0.000000 0.000000 0.000000 0.081149 0.000000 0.000000
# 5 0.000000 0.000000 0.000000 0.000000 0.026359 0.000000
# 6 0.000000 0.000000 0.000000 0.000000 0.000000 0.199281
#
#
# Mechanical properties :
#
#
# Convention : Reuss Voigt Hill
#
# Bulk Modulus (GPa) = 28.66086 35.84499 32.25293
# Shear Modulus (GPa) = 13.30756 24.15701 18.73229
#
# Velocity S-wave (km/s) = 2.43747 3.28407 2.89192
# Velocity P-wave (km/s) = 4.55166 5.51212 5.05475
#
# Compressibility (1/GPa) = 0.03489079
#
# Stress axis : x y z
#
# Youngs Moduli (GPa) = 84.37791 43.11853 90.45192
#
# Poissons Ratio (x) = 0.05073 0.32129
# Poissons Ratio (y) = 0.09926 0.07920
# Poissons Ratio (z) = 0.29972 0.03775
#
# Static dielectric constant tensor:
#      x y z
#    x 1.858190 0.000000 0.000000 
#    y 0.000000 1.833560 0.000000 
#    z 0.000000 0.000000 1.896200 
# 
# From -- ./inp_files/3699.got.cif
#   From: 2010.05.17/outbox.cif.g08.bks.cpg/sg62_2_cif.got.tgz:3699.got - 2010.06.03 15:25:27.
