data_PCOD9465871
_publ_section_title
;
Structure prediction by ZEFSAII (Michael W. Deem and Ramdas Pophale) SiO2 
 PCOD9465871
Probable space group: P N M A
;
_chemical_formula_sum "Si O2"
_cell_formula_units_Z 64
_cell_length_a 14.580355
_cell_length_b 12.302218
_cell_length_c 19.058954
_cell_angle_alpha 90.000000
_cell_angle_beta 90.000000
_cell_angle_gamma 90.000000
_cell_volume 3418.618029
_symmetry_space_group_name_H-M "P N M A"
_symmetry_group_IT_number 62
_symmetry_cell_setting 'orthorhombic'
loop_
_space_group_symop_operation_xyz
x,y,z
1/2-x,-y,1/2+z
1/2+x,1/2-y,1/2-z
-x,1/2+y,-z
-x,-y,-z
1/2+x,y,1/2-z
1/2-x,1/2+y,1/2+z
x,1/2-y,z
loop_
_atom_site_type_symbol
_atom_site_label
_atom_site_fract_x
_atom_site_fract_y
_atom_site_fract_z
Si Si1 0.189862 0.480462 0.911197
Si Si2 0.187097 0.379829 0.665720
Si Si3 0.813273 0.120866 0.709008
Si Si4 0.027231 0.870757 0.552785
Si Si5 0.344236 0.946984 0.009244
Si Si6 0.470998 0.375645 0.342216
Si Si7 0.948418 0.879902 0.985779
Si Si8 0.497023 0.002231 0.198040
O O1 0.243185 0.415646 0.851235
O O2 0.113090 0.555597 0.874747
O O3 0.141525 0.400584 0.967681
O O4 0.263896 0.552924 0.952924
O O5 0.182414 0.250000 0.665535
O O6 0.270303 0.413400 0.716118
O O7 0.194014 0.419706 0.585883
O O8 0.093398 0.427670 0.697451
O O9 0.822296 0.250000 0.708780
O O10 0.911077 0.067398 0.696570
O O11 0.058095 0.750000 0.565599
O O12 0.106102 0.935764 0.512160
O O13 0.931850 0.873423 0.510077
O O14 0.008771 0.929217 0.626555
O O15 0.444306 0.250000 0.334216
O O16 0.551102 0.380559 0.401213
O O17 0.497254 0.424939 0.267608
O O18 0.980264 0.750000 0.001890
O O19 0.000000 0.000000 0.000000
#
# Coordination Sequence:
#
# PCOD9465871 Si02
#       8
#     8   8   8   8   8   8   8   8
#     4  11  21  41  63  91 122 157 210 261 312 377
#     4  10  22  40  61  87 123 161 203 256 311 369
#     4  11  23  39  62  92 122 162 209 258 313 374
#     4  10  21  38  59  85 118 159 200 242 302 360
#     4  10  22  38  59  89 119 155 199 254 302 363
#     4  10  22  40  63  89 125 165 204 255 314 380
#     4   9  20  38  61  89 122 161 202 253 311 370
#     4  11  21  40  62  87 122 162 206 252 306 370
#
# _framework density 18.721014
#
# number of rings (size 3 to 8) (size 9 to 14) (size 15 to 20)
#    0.000    1.750    2.500    1.500    1.750    2.000 
#    0.000    0.625    0.000    0.000    0.000    0.000 
#    0.000    0.000    0.000    0.000    0.000    0.000 
#
# Total GULP energy -356593.046058 kJ/mol
# GULP energy per Si atom -5571.766345 kJ/mol
# Density = 1.867840 g / cm^3
# Si number density = 18.721014 Si / 1000 Ang^3
#
#
#
# Elastic Constant Matrix: (Units=GPa)
#
#
# Indices 1 2 3 4 5 6 
#
# 1 27.6004 20.6137 7.2336 0.0000 0.0000 0.0000
# 2 20.6137 70.7433 0.9162 0.0000 0.0000 0.0000
# 3 7.2336 0.9162 70.2086 0.0000 0.0000 0.0000
# 4 0.0000 0.0000 0.0000 -8.1164 0.0000 0.0000
# 5 0.0000 0.0000 0.0000 0.0000 25.9822 0.0000
# 6 0.0000 0.0000 0.0000 0.0000 0.0000 -14.3977
#
#
#
# Elastic Compliance Matrix: (Units=1/GPa)
#
#
# Indices 1 2 3 4 5 6 
#
# 1 0.047841 -0.013879 -0.004748 0.000000 0.000000 0.000000
# 2 -0.013879 0.018164 0.001193 0.000000 0.000000 0.000000
# 3 -0.004748 0.001193 0.014717 0.000000 0.000000 0.000000
# 4 0.000000 0.000000 0.000000 -0.123208 0.000000 0.000000
# 5 0.000000 0.000000 0.000000 0.000000 0.038488 0.000000
# 6 0.000000 0.000000 0.000000 0.000000 0.000000 -0.069456
#
#
# Mechanical properties :
#
#
# Convention : Reuss Voigt Hill
#
# Bulk Modulus (GPa) = 21.80806 25.11994 23.46400
# Shear Modulus (GPa) = -214.59083 10.01288 -102.28898
#
# Velocity S-wave (km/s) = -10.71795 2.31518 -7.39981
# Velocity P-wave (km/s) = 11.89503 4.53806 7.77489
#
# Compressibility (1/GPa) = 0.04585462
#
# Stress axis : x y z
#
# Youngs Moduli (GPa) = 20.90241 55.05307 67.94919
#
# Poissons Ratio (x) = 0.76408 0.32262
# Poissons Ratio (y) = 0.29010 -0.08106
# Poissons Ratio (z) = 0.09924 -0.06567
#
# Static dielectric constant tensor:
#      x y z
#    x 1.633010 0.000000 0.000000 
#    y 0.000000 1.660400 0.000000 
#    z 0.000000 0.000000 1.647520 
# 
# From -- ./inp_files/24030.got.cif
#   From: 2010.05.17/outbox.cif.g08.bks.cpg/sg62_13_cif.got.tgz:24030.got - 2010.06.03 15:25:27.
