data_PCOD9465793
_publ_section_title
;
Structure prediction by ZEFSAII (Michael W. Deem and Ramdas Pophale) SiO2 
 PCOD9465793
Probable space group: P N M A
;
_chemical_formula_sum "Si O2"
_cell_formula_units_Z 56
_cell_length_a 12.828025
_cell_length_b 21.567771
_cell_length_c 9.638419
_cell_angle_alpha 90.000000
_cell_angle_beta 90.000000
_cell_angle_gamma 90.000000
_cell_volume 2666.679752
_symmetry_space_group_name_H-M "P N M A"
_symmetry_group_IT_number 62
_symmetry_cell_setting 'orthorhombic'
loop_
_space_group_symop_operation_xyz
x,y,z
1/2-x,-y,1/2+z
1/2+x,1/2-y,1/2-z
-x,1/2+y,-z
-x,-y,-z
1/2+x,y,1/2-z
1/2-x,1/2+y,1/2+z
x,1/2-y,z
loop_
_atom_site_type_symbol
_atom_site_label
_atom_site_fract_x
_atom_site_fract_y
_atom_site_fract_z
Si Si1 0.083359 0.401649 0.428518
Si Si2 0.594009 0.017729 0.330666
Si Si3 0.597814 0.823777 0.774286
Si Si4 0.705201 0.603118 0.252042
Si Si5 0.788435 0.321897 0.004128
Si Si6 0.099328 0.475359 0.692706
Si Si7 0.727736 0.589753 0.939399
O O1 0.120498 0.454083 0.321013
O O2 0.184920 0.361527 0.463923
O O3 0.044241 0.438180 0.565766
O O4 0.996663 0.360733 0.348441
O O5 0.653009 0.065131 0.431676
O O6 0.642178 0.949629 0.335097
O O7 0.471374 0.005199 0.313302
O O8 0.585473 0.750000 0.792714
O O9 0.617963 0.837481 0.611184
O O10 0.702840 0.850747 0.845169
O O11 0.688486 0.663730 0.343514
O O12 0.822062 0.576217 0.253047
O O13 0.684189 0.606366 0.090122
O O14 0.765373 0.250000 0.026216
O O15 0.163727 0.532015 0.625732
#
# Coordination Sequence:
#
# PCOD9465793 Si02
#       7
#     8   8   8   8   8   8   8
#     4  11  19  38  65  90 118 161 200 251 311 368
#     4  11  20  35  61  92 122 156 194 251 311 366
#     4  11  23  38  62  88 113 158 218 257 292 357
#     4  10  23  38  60  92 126 160 201 244 313 374
#     4  10  23  44  63  85 124 169 206 251 305 366
#     4  10  21  37  61  89 131 159 193 251 314 375
#     4  11  21  37  61  92 123 158 204 251 308 367
#
# _framework density 20.999898000000002
#
# number of rings (size 3 to 8) (size 9 to 14) (size 15 to 20)
#    0.000    1.429    4.286    1.714    0.000    1.143 
#    2.571    0.000    0.000    0.857    0.000    0.000 
#    0.000    0.000    0.000    0.000    0.000    0.000 
#
# Total GULP energy -312213.409037 kJ/mol
# GULP energy per Si atom -5575.239447 kJ/mol
# Density = 2.095210 g / cm^3
# Si number density = 20.999898 Si / 1000 Ang^3
#
#
#
# Elastic Constant Matrix: (Units=GPa)
#
#
# Indices 1 2 3 4 5 6 
#
# 1 63.1163 18.0501 22.4448 0.0000 0.0000 0.0000
# 2 18.0501 63.4555 2.9139 0.0000 0.0000 0.0000
# 3 22.4448 2.9139 60.3898 0.0000 0.0000 0.0000
# 4 0.0000 0.0000 0.0000 33.6345 0.0000 0.0000
# 5 0.0000 0.0000 0.0000 0.0000 24.9009 0.0000
# 6 0.0000 0.0000 0.0000 0.0000 0.0000 25.5098
#
#
#
# Elastic Compliance Matrix: (Units=1/GPa)
#
#
# Indices 1 2 3 4 5 6 
#
# 1 0.019909 -0.005335 -0.007142 0.000000 0.000000 0.000000
# 2 -0.005335 0.017224 0.001152 0.000000 0.000000 0.000000
# 3 -0.007142 0.001152 0.019158 0.000000 0.000000 0.000000
# 4 0.000000 0.000000 0.000000 0.029731 0.000000 0.000000
# 5 0.000000 0.000000 0.000000 0.000000 0.040159 0.000000
# 6 0.000000 0.000000 0.000000 0.000000 0.000000 0.039201
#
#
# Mechanical properties :
#
#
# Convention : Reuss Voigt Hill
#
# Bulk Modulus (GPa) = 29.72654 30.41991 30.07322
# Shear Modulus (GPa) = 25.09446 26.37921 25.73683
#
# Velocity S-wave (km/s) = 3.46060 3.54808 3.50461
# Velocity P-wave (km/s) = 5.49126 5.59485 5.54330
#
# Compressibility (1/GPa) = 0.03363997
#
# Stress axis : x y z
#
# Youngs Moduli (GPa) = 50.22749 58.05917 52.19746
#
# Poissons Ratio (x) = 0.30976 0.37281
# Poissons Ratio (y) = 0.26798 -0.06013
# Poissons Ratio (z) = 0.35874 -0.06688
#
# Static dielectric constant tensor:
#      x y z
#    x 1.863680 0.000000 0.000000 
#    y 0.000000 1.691980 0.000000 
#    z 0.000000 0.000000 1.813900 
# 
# From -- ./inp_files/6749.got.cif
#   From: 2010.05.17/outbox.cif.g08.bks.cpg/sg62_4_cif.got.tgz:6749.got - 2010.06.03 15:25:27.
