data_PCOD9465106
_publ_section_title
;
Structure prediction by ZEFSAII (Michael W. Deem and Ramdas Pophale) SiO2 
 PCOD9465106
Probable space group: P N M A
;
_chemical_formula_sum "Si O2"
_cell_formula_units_Z 64
_cell_length_a 22.991054
_cell_length_b 8.534229
_cell_length_c 16.609653
_cell_angle_alpha 90.000000
_cell_angle_beta 90.000000
_cell_angle_gamma 90.000000
_cell_volume 3258.995292
_symmetry_space_group_name_H-M "P N M A"
_symmetry_group_IT_number 62
_symmetry_cell_setting 'orthorhombic'
loop_
_space_group_symop_operation_xyz
x,y,z
1/2-x,-y,1/2+z
1/2+x,1/2-y,1/2-z
-x,1/2+y,-z
-x,-y,-z
1/2+x,y,1/2-z
1/2-x,1/2+y,1/2+z
x,1/2-y,z
loop_
_atom_site_type_symbol
_atom_site_label
_atom_site_fract_x
_atom_site_fract_y
_atom_site_fract_z
Si Si1 0.635713 0.429090 0.108108
Si Si2 0.486340 0.068133 0.911393
Si Si3 0.323869 0.065706 0.464915
Si Si4 0.546416 0.060935 0.565462
Si Si5 0.952721 0.937778 0.248363
Si Si6 0.751107 0.569140 0.699390
Si Si7 0.328000 0.573039 0.182170
Si Si8 0.287338 0.071454 0.026944
O O1 0.614392 0.250000 0.108490
O O2 0.581817 0.543870 0.104078
O O3 0.681211 0.452214 0.180015
O O4 0.676560 0.458679 0.031463
O O5 0.502854 0.250000 0.915687
O O6 0.517050 0.000241 0.830478
O O7 0.500000 0.000000 0.000000
O O8 0.328214 0.250000 0.483277
O O9 0.288356 0.049627 0.380736
O O10 0.388147 0.994932 0.456531
O O11 0.279925 0.982091 0.527312
O O12 0.545689 0.250000 0.565574
O O13 0.532735 0.005538 0.657889
O O14 0.500000 0.000000 0.500000
O O15 0.963981 0.750000 0.247135
O O16 0.884292 0.961055 0.264083
O O17 0.742559 0.750000 0.726010
O O18 0.727920 0.445829 0.762401
O O19 0.333877 0.750000 0.150267
O O20 0.318801 0.450726 0.111477
O O21 0.290542 0.250000 0.998130
#
# Coordination Sequence:
#
# PCOD9465106 Si02
#       8
#     8   8   8   8   8   8   8   8
#     4  10  21  39  58  82 118 156 195 245 300 357
#     4  11  22  39  62  90 124 167 209 255 310 374
#     4  10  20  38  61  87 117 153 195 250 307 364
#     4  11  22  41  64  89 119 163 212 265 317 372
#     4   9  21  39  61  88 122 162 208 254 308 371
#     4   9  19  35  57  82 114 149 188 242 301 355
#     4  11  20  35  59  87 117 153 197 247 302 362
#     4  11  22  36  58  89 120 155 196 244 301 371
#
# _framework density 19.637953
#
# number of rings (size 3 to 8) (size 9 to 14) (size 15 to 20)
#    0.000    1.750    1.250    4.500    0.000    3.500 
#    2.250    4.375    0.000    0.000    0.000    0.000 
#    0.000    0.000    0.000    0.000    0.000    0.000 
#
# Total GULP energy -356856.925773 kJ/mol
# GULP energy per Si atom -5575.889465 kJ/mol
# Density = 1.959326 g / cm^3
# Si number density = 19.637953 Si / 1000 Ang^3
#
#
#
# Elastic Constant Matrix: (Units=GPa)
#
#
# Indices 1 2 3 4 5 6 
#
# 1 63.6178 5.5212 26.3071 0.0000 0.0000 0.0000
# 2 5.5212 25.1658 9.9517 0.0000 0.0000 0.0000
# 3 26.3071 9.9517 87.2841 0.0000 0.0000 0.0000
# 4 0.0000 0.0000 0.0000 24.0626 0.0000 0.0000
# 5 0.0000 0.0000 0.0000 0.0000 22.7697 0.0000
# 6 0.0000 0.0000 0.0000 0.0000 0.0000 28.9525
#
#
#
# Elastic Compliance Matrix: (Units=1/GPa)
#
#
# Indices 1 2 3 4 5 6 
#
# 1 0.018043 -0.001893 -0.005222 0.000000 0.000000 0.000000
# 2 -0.001893 0.041811 -0.004196 0.000000 0.000000 0.000000
# 3 -0.005222 -0.004196 0.013509 0.000000 0.000000 0.000000
# 4 0.000000 0.000000 0.000000 0.041558 0.000000 0.000000
# 5 0.000000 0.000000 0.000000 0.000000 0.043918 0.000000
# 6 0.000000 0.000000 0.000000 0.000000 0.000000 0.034539
#
#
# Mechanical properties :
#
#
# Convention : Reuss Voigt Hill
#
# Bulk Modulus (GPa) = 19.70861 28.84752 24.27806
# Shear Modulus (GPa) = 21.46700 24.10948 22.78824
#
# Velocity S-wave (km/s) = 3.30985 3.50765 3.41019
# Velocity P-wave (km/s) = 4.96634 5.57911 5.28162
#
# Compressibility (1/GPa) = 0.05073926
#
# Stress axis : x y z
#
# Youngs Moduli (GPa) = 55.42430 23.91699 74.02351
#
# Poissons Ratio (x) = 0.04528 0.38656
# Poissons Ratio (y) = 0.10494 0.31063
# Poissons Ratio (z) = 0.28943 0.10037
#
# Static dielectric constant tensor:
#      x y z
#    x 1.685100 0.000000 0.000000 
#    y 0.000000 1.691330 0.000000 
#    z 0.000000 0.000000 1.751770 
# 
# From -- ./inp_files/20965.got.cif
#   From: 2010.05.17/outbox.cif.g08.bks.cpg/sg62_11_cif.got.tgz:20965.got - 2010.06.03 15:25:27.
