data_PCOD9465137
_publ_section_title
;
Structure prediction by ZEFSAII (Michael W. Deem and Ramdas Pophale) SiO2 
 PCOD9465137
Probable space group: P N M A
;
_chemical_formula_sum "Si O2"
_cell_formula_units_Z 48
_cell_length_a 20.745532
_cell_length_b 8.907117
_cell_length_c 14.349190
_cell_angle_alpha 90.000000
_cell_angle_beta 90.000000
_cell_angle_gamma 90.000000
_cell_volume 2651.484665
_symmetry_space_group_name_H-M "P N M A"
_symmetry_group_IT_number 62
_symmetry_cell_setting 'orthorhombic'
loop_
_space_group_symop_operation_xyz
x,y,z
1/2-x,-y,1/2+z
1/2+x,1/2-y,1/2-z
-x,1/2+y,-z
-x,-y,-z
1/2+x,y,1/2-z
1/2-x,1/2+y,1/2+z
x,1/2-y,z
loop_
_atom_site_type_symbol
_atom_site_label
_atom_site_fract_x
_atom_site_fract_y
_atom_site_fract_z
Si Si1 0.941467 0.428725 0.056871
Si Si2 0.810645 0.068537 0.949625
Si Si3 0.560586 0.427271 0.948395
Si Si4 0.988675 0.927402 0.240390
Si Si5 0.639022 0.567608 0.248027
Si Si6 0.184372 0.930594 0.456991
O O1 0.946439 0.250000 0.052480
O O2 0.950238 0.485455 0.161473
O O3 0.874209 0.471272 0.008913
O O4 0.000000 0.500000 0.000000
O O5 0.803565 0.250000 0.950319
O O6 0.824091 0.021522 0.842315
O O7 0.749004 0.995308 0.997707
O O8 0.564675 0.250000 0.969371
O O9 0.546134 0.443765 0.839105
O O10 0.500000 0.500000 0.000000
O O11 0.624377 0.509209 0.983256
O O12 0.990406 0.750000 0.216222
O O13 0.063579 0.978550 0.247494
O O14 0.638226 0.750000 0.247543
O O15 0.671670 0.520791 0.150683
O O16 0.185594 0.750000 0.458557
#
# Coordination Sequence:
#
# PCOD9465137 Si02
#       6
#     8   8   8   8   8   8
#     4  11  22  37  61  91 122 155 199 252 300 355
#     4  10  22  41  61  84 120 160 198 244 301 358
#     4  11  22  38  62  90 121 157 199 247 300 356
#     4  10  20  38  62  88 120 159 201 244 298 361
#     4   9  18  38  62  82 114 160 199 239 299 362
#     4  11  23  40  62  89 121 157 203 250 298 361
#
# _framework density 18.103064
#
# number of rings (size 3 to 8) (size 9 to 14) (size 15 to 20)
#    0.000    1.667    3.333    1.500    0.000    4.000 
#    0.000    6.667    0.000    0.000    0.000    0.000 
#    0.000    0.000    0.000    0.000    0.000    0.000 
#
# Total GULP energy -268053.165136 kJ/mol
# GULP energy per Si atom -5584.440940 kJ/mol
# Density = 1.806186 g / cm^3
# Si number density = 18.103064 Si / 1000 Ang^3
#
#
#
# Elastic Constant Matrix: (Units=GPa)
#
#
# Indices 1 2 3 4 5 6 
#
# 1 176.2842 59.1976 89.4421 0.0000 0.0000 0.0000
# 2 59.1976 43.8396 50.7542 0.0000 0.0000 0.0000
# 3 89.4421 50.7542 125.0004 0.0000 0.0000 0.0000
# 4 0.0000 0.0000 0.0000 33.3928 0.0000 0.0000
# 5 0.0000 0.0000 0.0000 0.0000 28.3653 0.0000
# 6 0.0000 0.0000 0.0000 0.0000 0.0000 35.4447
#
#
#
# Elastic Compliance Matrix: (Units=1/GPa)
#
#
# Indices 1 2 3 4 5 6 
#
# 1 0.011142 -0.010974 -0.003517 0.000000 0.000000 0.000000
# 2 -0.010974 0.053853 -0.014014 0.000000 0.000000 0.000000
# 3 -0.003517 -0.014014 0.016206 0.000000 0.000000 0.000000
# 4 0.000000 0.000000 0.000000 0.029947 0.000000 0.000000
# 5 0.000000 0.000000 0.000000 0.000000 0.035254 0.000000
# 6 0.000000 0.000000 0.000000 0.000000 0.000000 0.028213
#
#
# Mechanical properties :
#
#
# Convention : Reuss Voigt Hill
#
# Bulk Modulus (GPa) = 41.33525 82.65689 61.99607
# Shear Modulus (GPa) = 20.86037 29.15593 25.00815
#
# Velocity S-wave (km/s) = 3.39825 4.01752 3.72079
# Velocity P-wave (km/s) = 6.18711 8.20237 7.26496
#
# Compressibility (1/GPa) = 0.02419242
#
# Stress axis : x y z
#
# Youngs Moduli (GPa) = 89.74935 18.56901 61.70400
#
# Poissons Ratio (x) = 0.20378 0.21700
# Poissons Ratio (y) = 0.98491 0.86471
# Poissons Ratio (z) = 0.31563 0.26022
#
# Static dielectric constant tensor:
#      x y z
#    x 1.478540 0.000000 0.000000 
#    y 0.000000 1.613930 0.000000 
#    z 0.000000 0.000000 1.579410 
# 
# From -- ./inp_files/19545.got.cif
#   From: 2010.05.17/outbox.cif.g08.bks.cpg/sg62_10_cif.got.tgz:19545.got - 2010.06.03 15:25:27.
