data_PCOD9465625
_publ_section_title
;
Structure prediction by ZEFSAII (Michael W. Deem and Ramdas Pophale) SiO2 
 PCOD9465625
Probable space group: P N M A
;
_chemical_formula_sum "Si O2"
_cell_formula_units_Z 48
_cell_length_a 23.521499
_cell_length_b 8.077322
_cell_length_c 12.356579
_cell_angle_alpha 90.000000
_cell_angle_beta 90.000000
_cell_angle_gamma 90.000000
_cell_volume 2347.635358
_symmetry_space_group_name_H-M "P N M A"
_symmetry_group_IT_number 62
_symmetry_cell_setting 'orthorhombic'
loop_
_space_group_symop_operation_xyz
x,y,z
1/2-x,-y,1/2+z
1/2+x,1/2-y,1/2-z
-x,1/2+y,-z
-x,-y,-z
1/2+x,y,1/2-z
1/2-x,1/2+y,1/2+z
x,1/2-y,z
loop_
_atom_site_type_symbol
_atom_site_label
_atom_site_fract_x
_atom_site_fract_y
_atom_site_fract_z
Si Si1 0.851989 0.053516 0.183746
Si Si2 0.933929 0.447463 0.995228
Si Si3 0.162551 0.940770 0.580058
Si Si4 0.380875 0.946640 0.732917
Si Si5 0.726882 0.949103 0.123605
Si Si6 0.941436 0.552544 0.552477
O O1 0.864479 0.250000 0.192936
O O2 0.851158 0.980073 0.304768
O O3 0.787442 0.027828 0.146782
O O4 0.897199 0.985547 0.097269
O O5 0.933592 0.250000 0.001540
O O6 0.901383 0.493371 0.884063
O O7 0.000000 0.500000 0.000000
O O8 0.179928 0.750000 0.599500
O O9 0.207337 0.013189 0.494951
O O10 0.105510 0.949810 0.511301
O O11 0.373989 0.750000 0.726619
O O12 0.430513 0.983427 0.821005
O O13 0.322105 0.012351 0.787045
O O14 0.732132 0.750000 0.119447
O O15 0.932308 0.750000 0.538296
O O16 0.000000 0.500000 0.500000
#
# Coordination Sequence:
#
# PCOD9465625 Si02
#       6
#     8   8   8   8   8   8
#     4  10  23  41  62  88 123 162 197 248 308 366
#     4  11  25  43  63  91 127 168 213 259 311 374
#     4   9  20  39  59  84 118 153 195 243 297 359
#     4  10  22  41  63  87 122 163 203 250 306 365
#     4  10  21  38  63  94 121 153 199 251 305 366
#     4  10  21  36  59  88 116 152 194 246 301 354
#
# _framework density 20.446103999999998
#
# number of rings (size 3 to 8) (size 9 to 14) (size 15 to 20)
#    0.000    2.000    0.000    2.000    4.667    4.667 
#    0.000    0.000    0.000    0.000    0.000    0.000 
#    0.000    0.000    0.000    0.000    0.000    0.000 
#
# Total GULP energy -267671.072968 kJ/mol
# GULP energy per Si atom -5576.480687 kJ/mol
# Density = 2.039957 g / cm^3
# Si number density = 20.446104 Si / 1000 Ang^3
#
#
#
# Elastic Constant Matrix: (Units=GPa)
#
#
# Indices 1 2 3 4 5 6 
#
# 1 49.3031 -11.3880 42.3189 0.0000 0.0000 0.0000
# 2 -11.3880 26.8863 9.8227 0.0000 0.0000 0.0000
# 3 42.3189 9.8227 172.4917 0.0000 0.0000 0.0000
# 4 0.0000 0.0000 0.0000 13.9594 0.0000 0.0000
# 5 0.0000 0.0000 0.0000 0.0000 11.0796 0.0000
# 6 0.0000 0.0000 0.0000 0.0000 0.0000 31.8166
#
#
#
# Elastic Compliance Matrix: (Units=1/GPa)
#
#
# Indices 1 2 3 4 5 6 
#
# 1 0.031556 0.016539 -0.008684 0.000000 0.000000 0.000000
# 2 0.016539 0.046652 -0.006714 0.000000 0.000000 0.000000
# 3 -0.008684 -0.006714 0.008310 0.000000 0.000000 0.000000
# 4 0.000000 0.000000 0.000000 0.071636 0.000000 0.000000
# 5 0.000000 0.000000 0.000000 0.000000 0.090256 0.000000
# 6 0.000000 0.000000 0.000000 0.000000 0.000000 0.031430
#
#
# Mechanical properties :
#
#
# Convention : Reuss Voigt Hill
#
# Bulk Modulus (GPa) = 11.26126 36.68756 23.97441
# Shear Modulus (GPa) = 16.27818 25.23296 20.75557
#
# Velocity S-wave (km/s) = 2.82468 3.51682 3.18958
# Velocity P-wave (km/s) = 4.01972 5.87139 5.03147
#
# Compressibility (1/GPa) = 0.08879999
#
# Stress axis : x y z
#
# Youngs Moduli (GPa) = 31.68921 21.43535 120.33399
#
# Poissons Ratio (x) = -0.35451 1.04496
# Poissons Ratio (y) = -0.52410 0.80795
# Poissons Ratio (z) = 0.27518 0.14392
#
# Static dielectric constant tensor:
#      x y z
#    x 1.774680 0.000000 0.000000 
#    y 0.000000 1.752020 0.000000 
#    z 0.000000 0.000000 1.691800 
# 
# From -- ./inp_files/15093.got.cif
#   From: 2010.05.17/outbox.cif.g08.bks.cpg/sg62_8_cif.got.tgz:15093.got - 2010.06.03 15:25:27.
