data_PCOD9465418
_publ_section_title
;
Structure prediction by ZEFSAII (Michael W. Deem and Ramdas Pophale) SiO2 
 PCOD9465418
Probable space group: P N M A
;
_chemical_formula_sum "Si O2"
_cell_formula_units_Z 48
_cell_length_a 17.448148
_cell_length_b 14.762752
_cell_length_c 9.686222
_cell_angle_alpha 90.000000
_cell_angle_beta 90.000000
_cell_angle_gamma 90.000000
_cell_volume 2495.003039
_symmetry_space_group_name_H-M "P N M A"
_symmetry_group_IT_number 62
_symmetry_cell_setting 'orthorhombic'
loop_
_space_group_symop_operation_xyz
x,y,z
1/2-x,-y,1/2+z
1/2+x,1/2-y,1/2-z
-x,1/2+y,-z
-x,-y,-z
1/2+x,y,1/2-z
1/2-x,1/2+y,1/2+z
x,1/2-y,z
loop_
_atom_site_type_symbol
_atom_site_label
_atom_site_fract_x
_atom_site_fract_y
_atom_site_fract_z
Si Si1 0.026160 0.052739 0.861626
Si Si2 0.917001 0.250000 0.471079
Si Si3 0.829043 0.063522 0.188138
Si Si4 0.438812 0.054548 0.908995
Si Si5 0.937421 0.750000 0.026301
Si Si6 0.083561 0.750000 0.829730
Si Si7 0.262626 0.750000 0.497868
Si Si8 0.770138 0.449983 0.495487
O O1 0.958095 0.047326 0.751400
O O2 0.097296 0.000445 0.793000
O O3 0.052542 0.155707 0.890838
O O4 0.000000 0.000000 0.000000
O O5 0.939550 0.339725 0.550516
O O6 0.953728 0.250000 0.321745
O O7 0.824749 0.250000 0.438106
O O8 0.863538 0.161907 0.158658
O O9 0.778477 0.060874 0.329138
O O10 0.786176 0.025162 0.054304
O O11 0.353705 0.024840 0.948281
O O12 0.500000 0.000000 0.000000
O O13 0.011889 0.750000 0.930075
O O14 0.852480 0.750000 0.954863
O O15 0.256094 0.852806 0.439255
#
# Coordination Sequence:
#
# PCOD9465418 Si02
#       8
#     8   4   8   8   4   4   4   8
#     4  12  25  42  65 100 138 171 227 282 334 403
#     4  10  21  44  68  91 136 178 217 279 331 403
#     4  12  24  45  65  99 133 179 217 281 336 405
#     4  11  22  43  68  96 129 182 222 272 333 392
#     4  12  25  38  67 102 132 172 220 284 341 406
#     4  12  22  44  67  97 138 171 224 280 337 408
#     4  10  20  42  64  94 126 177 215 271 339 391
#     4  11  24  42  71  92 136 175 227 274 340 403
#
# _framework density 19.238454000000001
#
# number of rings (size 3 to 8) (size 9 to 14) (size 15 to 20)
#    0.000    0.667    8.333    0.500    2.333    0.000 
#    0.000    2.500    0.000    0.000    0.000    0.000 
#    0.000    0.000    0.000    0.000    0.000    0.000 
#
# Total GULP energy -267407.677900 kJ/mol
# GULP energy per Si atom -5570.993290 kJ/mol
# Density = 1.919467 g / cm^3
# Si number density = 19.238454 Si / 1000 Ang^3
#
#
#
# Elastic Constant Matrix: (Units=GPa)
#
#
# Indices 1 2 3 4 5 6 
#
# 1 94.2808 41.4487 37.6636 0.0000 0.0000 0.0000
# 2 41.4487 126.1936 42.7732 0.0000 0.0000 0.0000
# 3 37.6636 42.7732 78.1535 0.0000 0.0000 0.0000
# 4 0.0000 0.0000 0.0000 20.8303 0.0000 0.0000
# 5 0.0000 0.0000 0.0000 0.0000 32.7979 0.0000
# 6 0.0000 0.0000 0.0000 0.0000 0.0000 21.5218
#
#
#
# Elastic Compliance Matrix: (Units=1/GPa)
#
#
# Indices 1 2 3 4 5 6 
#
# 1 0.013907 -0.002819 -0.005159 0.000000 0.000000 0.000000
# 2 -0.002819 0.010301 -0.004279 0.000000 0.000000 0.000000
# 3 -0.005159 -0.004279 0.017623 0.000000 0.000000 0.000000
# 4 0.000000 0.000000 0.000000 0.048007 0.000000 0.000000
# 5 0.000000 0.000000 0.000000 0.000000 0.030490 0.000000
# 6 0.000000 0.000000 0.000000 0.000000 0.000000 0.046465
#
#
# Mechanical properties :
#
#
# Convention : Reuss Voigt Hill
#
# Bulk Modulus (GPa) = 57.74767 60.26654 59.00711
# Shear Modulus (GPa) = 25.37055 26.81282 26.09168
#
# Velocity S-wave (km/s) = 3.63539 3.73729 3.68669
# Velocity P-wave (km/s) = 6.90676 7.07229 6.99001
#
# Compressibility (1/GPa) = 0.01731671
#
# Stress axis : x y z
#
# Youngs Moduli (GPa) = 71.90640 97.08160 56.74258
#
# Poissons Ratio (x) = 0.27368 0.29274
# Poissons Ratio (y) = 0.20271 0.24280
# Poissons Ratio (z) = 0.37098 0.41540
#
# Static dielectric constant tensor:
#      x y z
#    x 1.683130 0.000000 0.000000 
#    y 0.000000 1.686640 0.000000 
#    z 0.000000 0.000000 1.697270 
# 
# From -- ./inp_files/7743.got.cif
#   From: 2010.05.17/outbox.cif.g08.bks.cpg/sg62_4_cif.got.tgz:7743.got - 2010.06.03 15:25:27.
