data_PCOD9465548
_publ_section_title
;
Structure prediction by ZEFSAII (Michael W. Deem and Ramdas Pophale) SiO2 
 PCOD9465548
Probable space group: P N M A
;
_chemical_formula_sum "Si O2"
_cell_formula_units_Z 48
_cell_length_a 5.347129
_cell_length_b 14.109695
_cell_length_c 29.780628
_cell_angle_alpha 90.000000
_cell_angle_beta 90.000000
_cell_angle_gamma 90.000000
_cell_volume 2246.839961
_symmetry_space_group_name_H-M "P N M A"
_symmetry_group_IT_number 62
_symmetry_cell_setting 'orthorhombic'
loop_
_space_group_symop_operation_xyz
x,y,z
1/2-x,-y,1/2+z
1/2+x,1/2-y,1/2-z
-x,1/2+y,-z
-x,-y,-z
1/2+x,y,1/2-z
1/2-x,1/2+y,1/2+z
x,1/2-y,z
loop_
_atom_site_type_symbol
_atom_site_label
_atom_site_fract_x
_atom_site_fract_y
_atom_site_fract_z
Si Si1 0.791162 0.962709 0.632528
Si Si2 0.941841 0.140231 0.769174
Si Si3 0.242992 0.136150 0.274443
Si Si4 0.285555 0.419064 0.634165
Si Si5 0.470235 0.354467 0.541794
Si Si6 0.298826 0.956014 0.966382
O O1 0.808351 0.894385 0.674786
O O2 0.862778 0.921400 0.583482
O O3 0.504707 0.000861 0.631819
O O4 0.004224 0.042864 0.639133
O O5 0.714419 0.097295 0.740351
O O6 0.971239 0.250000 0.755171
O O7 0.861882 0.135923 0.820868
O O8 0.513807 0.103147 0.256919
O O9 0.246627 0.250000 0.272391
O O10 0.306328 0.363105 0.587162
O O11 0.590080 0.250000 0.541681
O O12 0.637945 0.448820 0.543073
O O13 0.325325 0.372809 0.495341
O O14 0.500000 0.000000 0.000000
#
# Coordination Sequence:
#
# PCOD9465548 Si02
#       6
#     8   8   8   8   8   8
#     4  11  23  38  65  88 120 161 199 253 321 365
#     4  10  21  36  53  78 116 154 191 241 289 341
#     4  10  22  41  62  89 125 162 208 263 318 387
#     4  11  22  38  59  89 119 157 202 252 301 377
#     4  10  22  40  64  90 123 169 210 258 329 388
#     4  10  21  42  62  90 131 161 211 278 314 387
#
# _framework density 21.363337000000001
#
# number of rings (size 3 to 8) (size 9 to 14) (size 15 to 20)
#    0.000    1.667    1.667    2.500    0.000    5.333 
#    0.000    1.667    0.000    0.000    0.000    0.000 
#    0.000    0.000    0.000    0.000    0.000    0.000 
#
# Total GULP energy -267666.545517 kJ/mol
# GULP energy per Si atom -5576.386365 kJ/mol
# Density = 2.131471 g / cm^3
# Si number density = 21.363337 Si / 1000 Ang^3
#
#
#
# Elastic Constant Matrix: (Units=GPa)
#
#
# Indices 1 2 3 4 5 6 
#
# 1 73.9752 8.4056 35.9517 0.0000 0.0000 0.0000
# 2 8.4056 48.1736 8.0949 0.0000 0.0000 0.0000
# 3 35.9517 8.0949 143.8218 0.0000 0.0000 0.0000
# 4 0.0000 0.0000 0.0000 24.6403 0.0000 0.0000
# 5 0.0000 0.0000 0.0000 0.0000 37.1154 0.0000
# 6 0.0000 0.0000 0.0000 0.0000 0.0000 10.3224
#
#
#
# Elastic Compliance Matrix: (Units=1/GPa)
#
#
# Indices 1 2 3 4 5 6 
#
# 1 0.015592 -0.002085 -0.003780 0.000000 0.000000 0.000000
# 2 -0.002085 0.021235 -0.000674 0.000000 0.000000 0.000000
# 3 -0.003780 -0.000674 0.007936 0.000000 0.000000 0.000000
# 4 0.000000 0.000000 0.000000 0.040584 0.000000 0.000000
# 5 0.000000 0.000000 0.000000 0.000000 0.026943 0.000000
# 6 0.000000 0.000000 0.000000 0.000000 0.000000 0.096877
#
#
# Mechanical properties :
#
#
# Convention : Reuss Voigt Hill
#
# Bulk Modulus (GPa) = 31.56132 41.20833 36.38483
# Shear Modulus (GPa) = 21.47695 28.65018 25.06356
#
# Velocity S-wave (km/s) = 3.17412 3.66606 3.42892
# Velocity P-wave (km/s) = 5.31404 6.10337 5.72233
#
# Compressibility (1/GPa) = 0.03168435
#
# Stress axis : x y z
#
# Youngs Moduli (GPa) = 64.13459 47.09121 126.00885
#
# Poissons Ratio (x) = 0.09820 0.47635
# Poissons Ratio (y) = 0.13375 0.08492
# Poissons Ratio (z) = 0.24245 0.03174
#
# Static dielectric constant tensor:
#      x y z
#    x 1.853390 0.000000 0.000000 
#    y 0.000000 1.768730 0.000000 
#    z 0.000000 0.000000 1.831590 
# 
# From -- ./inp_files/30394.got.cif
#   From: 2010.05.17/outbox.cif.g08.bks.cpg/sg62_16_cif.got.tgz:30394.got - 2010.06.03 15:25:27.
