data_PCOD9465242
_publ_section_title
;
Structure prediction by ZEFSAII (Michael W. Deem and Ramdas Pophale) SiO2 
 PCOD9465242
Probable space group: P N M A
;
_chemical_formula_sum "Si O2"
_cell_formula_units_Z 44
_cell_length_a 18.392143
_cell_length_b 10.733657
_cell_length_c 10.518599
_cell_angle_alpha 90.000000
_cell_angle_beta 90.000000
_cell_angle_gamma 90.000000
_cell_volume 2076.528743
_symmetry_space_group_name_H-M "P N M A"
_symmetry_group_IT_number 62
_symmetry_cell_setting 'orthorhombic'
loop_
_space_group_symop_operation_xyz
x,y,z
1/2-x,-y,1/2+z
1/2+x,1/2-y,1/2-z
-x,1/2+y,-z
-x,-y,-z
1/2+x,y,1/2-z
1/2-x,1/2+y,1/2+z
x,1/2-y,z
loop_
_atom_site_type_symbol
_atom_site_label
_atom_site_fract_x
_atom_site_fract_y
_atom_site_fract_z
Si Si1 0.584540 0.250000 0.834317
Si Si2 0.167383 0.750000 0.048942
Si Si3 0.583984 0.511475 0.540350
Si Si4 0.316965 0.250000 0.829150
Si Si5 0.839031 0.750000 0.066329
Si Si6 0.951265 0.016631 0.328089
Si Si7 0.609496 0.005873 0.102676
Si Si8 0.685749 0.250000 0.084707
O O1 0.635459 0.250000 0.712620
O O2 0.534771 0.130858 0.825646
O O3 0.633953 0.250000 0.958885
O O4 0.208060 0.750000 0.183226
O O5 0.119967 0.874052 0.032972
O O6 0.229786 0.750000 0.944063
O O7 0.500000 0.500000 0.500000
O O8 0.626053 0.380094 0.516063
O O9 0.583080 0.545905 0.691752
O O10 0.248511 0.250000 0.926206
O O11 0.363622 0.375492 0.842645
O O12 0.900320 0.027660 0.451774
O O13 0.031872 0.065299 0.354730
O O14 0.665534 0.115124 0.140140
#
# Coordination Sequence:
#
# PCOD9465242 Si02
#       8
#     4   4   8   4   4   8   8   4
#     4   8  15  34  61  84 117 158 193 248 300 360
#     4  12  25  40  62  89 129 167 204 255 316 381
#     4  11  23  41  66  92 127 165 207 255 315 371
#     4  12  23  40  63  90 122 162 215 244 307 375
#     4  10  21  41  63  88 119 167 204 252 300 380
#     4   9  19  36  62  93 124 156 207 253 308 353
#     4  10  21  37  65  92 120 160 205 260 299 367
#     4  10  20  39  57  87 123 158 198 247 317 358
#
# _framework density 21.189209999999999
#
# number of rings (size 3 to 8) (size 9 to 14) (size 15 to 20)
#    0.000    1.818    0.909    3.273    0.000    5.091 
#    0.000    2.727    8.000    0.000    0.000    0.000 
#    0.000    0.000    0.000    0.000    0.000    0.000 
#
# Total GULP energy -245224.764949 kJ/mol
# GULP energy per Si atom -5573.290112 kJ/mol
# Density = 2.114098 g / cm^3
# Si number density = 21.189210 Si / 1000 Ang^3
#
#
#
# Elastic Constant Matrix: (Units=GPa)
#
#
# Indices 1 2 3 4 5 6 
#
# 1 97.5225 42.0976 -3.1846 0.0000 0.0000 0.0000
# 2 42.0976 138.2526 16.0067 0.0000 0.0000 0.0000
# 3 -3.1846 16.0067 47.4647 0.0000 0.0000 0.0000
# 4 0.0000 0.0000 0.0000 1.2875 0.0000 0.0000
# 5 0.0000 0.0000 0.0000 0.0000 20.4807 0.0000
# 6 0.0000 0.0000 0.0000 0.0000 0.0000 28.0856
#
#
#
# Elastic Compliance Matrix: (Units=1/GPa)
#
#
# Indices 1 2 3 4 5 6 
#
# 1 0.012008 -0.003902 0.002122 0.000000 0.000000 0.000000
# 2 -0.003902 0.008795 -0.003228 0.000000 0.000000 0.000000
# 3 0.002122 -0.003228 0.022299 0.000000 0.000000 0.000000
# 4 0.000000 0.000000 0.000000 0.776712 0.000000 0.000000
# 5 0.000000 0.000000 0.000000 0.000000 0.048826 0.000000
# 6 0.000000 0.000000 0.000000 0.000000 0.000000 0.035605
#
#
# Mechanical properties :
#
#
# Convention : Reuss Voigt Hill
#
# Bulk Modulus (GPa) = 30.22478 43.67547 36.95012
# Shear Modulus (GPa) = 5.40371 25.19210 15.29790
#
# Velocity S-wave (km/s) = 1.59867 3.45180 2.68986
# Velocity P-wave (km/s) = 4.20748 6.04512 5.20799
#
# Compressibility (1/GPa) = 0.03308543
#
# Stress axis : x y z
#
# Youngs Moduli (GPa) = 83.28009 113.70124 44.84474
#
# Poissons Ratio (x) = 0.44366 -0.09514
# Poissons Ratio (y) = 0.32495 0.14475
# Poissons Ratio (z) = -0.17668 0.36700
#
# Static dielectric constant tensor:
#      x y z
#    x 1.752800 0.000000 0.000000 
#    y 0.000000 1.798690 0.000000 
#    z 0.000000 0.000000 1.825220 
# 
# From -- ./inp_files/14070.got.cif
#   From: 2010.05.17/outbox.cif.g08.bks.cpg/sg62_8_cif.got.tgz:14070.got - 2010.06.03 15:25:27.
