data_PCOD9465582
_publ_section_title
;
Structure prediction by ZEFSAII (Michael W. Deem and Ramdas Pophale) SiO2 
 PCOD9465582
Probable space group: P N M A
;
_chemical_formula_sum "Si O2"
_cell_formula_units_Z 40
_cell_length_a 30.934887
_cell_length_b 11.237295
_cell_length_c 5.049253
_cell_angle_alpha 90.000000
_cell_angle_beta 90.000000
_cell_angle_gamma 90.000000
_cell_volume 1755.243802
_symmetry_space_group_name_H-M "P N M A"
_symmetry_group_IT_number 62
_symmetry_cell_setting 'orthorhombic'
loop_
_space_group_symop_operation_xyz
x,y,z
1/2-x,-y,1/2+z
1/2+x,1/2-y,1/2-z
-x,1/2+y,-z
-x,-y,-z
1/2+x,y,1/2-z
1/2-x,1/2+y,1/2+z
x,1/2-y,z
loop_
_atom_site_type_symbol
_atom_site_label
_atom_site_fract_x
_atom_site_fract_y
_atom_site_fract_z
Si Si1 0.509171 0.380819 0.834694
Si Si2 0.788331 0.117182 0.750960
Si Si3 0.100926 0.031248 0.631304
Si Si4 0.919993 0.115914 0.885895
Si Si5 0.192900 0.467701 0.749777
O O1 0.501759 0.250000 0.963730
O O2 0.559995 0.390281 0.778869
O O3 0.472650 0.386400 0.607586
O O4 0.500000 0.500000 0.000000
O O5 0.802901 0.250000 0.807961
O O6 0.800684 0.075687 0.457825
O O7 0.736223 0.109321 0.776966
O O8 0.807187 0.022463 0.957328
O O9 0.094390 0.978627 0.337471
O O10 0.147409 0.090040 0.673884
O O11 0.098712 0.919987 0.832548
O O12 0.907685 0.250000 0.810346
#
# Coordination Sequence:
#
# PCOD9465582 Si02
#       5
#     8   8   8   8   8
#     4   9  20  39  61  87 121 161 199 241 293 346
#     4  10  21  39  58  78 112 150 184 234 294 347
#     4  11  21  36  57  85 115 147 192 242 288 342
#     4  10  21  36  56  83 117 154 192 236 289 346
#     4  10  22  36  56  85 110 142 192 235 283 349
#
# _framework density 22.788855999999999
#
# number of rings (size 3 to 8) (size 9 to 14) (size 15 to 20)
#    0.000    2.000    0.000    3.000    0.000    6.400 
#    0.000    8.000    0.000    9.600    0.000    0.000 
#    0.000    0.000    0.000    0.000    0.000    0.000 
#
# Total GULP energy -223339.989589 kJ/mol
# GULP energy per Si atom -5583.499740 kJ/mol
# Density = 2.273699 g / cm^3
# Si number density = 22.788856 Si / 1000 Ang^3
#
#
#
# Elastic Constant Matrix: (Units=GPa)
#
#
# Indices 1 2 3 4 5 6 
#
# 1 162.5958 1.4778 -0.3199 0.0000 0.0000 0.0000
# 2 1.4778 72.4082 -1.9219 0.0000 0.0000 0.0000
# 3 -0.3199 -1.9219 71.5789 0.0000 0.0000 0.0000
# 4 0.0000 0.0000 0.0000 13.6749 0.0000 0.0000
# 5 0.0000 0.0000 0.0000 0.0000 24.9488 0.0000
# 6 0.0000 0.0000 0.0000 0.0000 0.0000 -6.8765
#
#
#
# Elastic Compliance Matrix: (Units=1/GPa)
#
#
# Indices 1 2 3 4 5 6 
#
# 1 0.006151 -0.000125 0.000024 0.000000 0.000000 0.000000
# 2 -0.000125 0.013823 0.000371 0.000000 0.000000 0.000000
# 3 0.000024 0.000371 0.013981 0.000000 0.000000 0.000000
# 4 0.000000 0.000000 0.000000 0.073127 0.000000 0.000000
# 5 0.000000 0.000000 0.000000 0.000000 0.040082 0.000000
# 6 0.000000 0.000000 0.000000 0.000000 0.000000 -0.145422
#
#
# Mechanical properties :
#
#
# Convention : Reuss Voigt Hill
#
# Bulk Modulus (GPa) = 28.98999 33.89500 31.44250
# Shear Modulus (GPa) = 393.68361 26.83922 210.26142
#
# Velocity S-wave (km/s) = 13.15780 3.43554 9.61589
# Velocity P-wave (km/s) = 15.60723 5.53561 11.70958
#
# Compressibility (1/GPa) = 0.03449466
#
# Stress axis : x y z
#
# Youngs Moduli (GPa) = 162.56452 72.34335 71.52741
#
# Poissons Ratio (x) = 0.00904 -0.00173
# Poissons Ratio (y) = 0.02030 -0.02651
# Poissons Ratio (z) = -0.00392 -0.02681
#
# Static dielectric constant tensor:
#      x y z
#    x 1.947050 0.000000 0.000000 
#    y 0.000000 1.817740 0.000000 
#    z 0.000000 0.000000 1.787090 
# 
# From -- ./inp_files/3051.got.cif
#   From: 2010.05.17/outbox.cif.g08.bks.cpg/sg62_2_cif.got.tgz:3051.got - 2010.06.03 15:25:27.
