data_PCOD9465726
_publ_section_title
;
Structure prediction by ZEFSAII (Michael W. Deem and Ramdas Pophale) SiO2 
 PCOD9465726
Probable space group: P N M A
;
_chemical_formula_sum "Si O2"
_cell_formula_units_Z 40
_cell_length_a 23.779809
_cell_length_b 8.643743
_cell_length_c 8.237680
_cell_angle_alpha 90.000000
_cell_angle_beta 90.000000
_cell_angle_gamma 90.000000
_cell_volume 1693.226766
_symmetry_space_group_name_H-M "P N M A"
_symmetry_group_IT_number 62
_symmetry_cell_setting 'orthorhombic'
loop_
_space_group_symop_operation_xyz
x,y,z
1/2-x,-y,1/2+z
1/2+x,1/2-y,1/2-z
-x,1/2+y,-z
-x,-y,-z
1/2+x,y,1/2-z
1/2-x,1/2+y,1/2+z
x,1/2-y,z
loop_
_atom_site_type_symbol
_atom_site_label
_atom_site_fract_x
_atom_site_fract_y
_atom_site_fract_z
Si Si1 0.935696 0.930509 0.334231
Si Si2 0.664667 0.928478 0.659366
Si Si3 0.737841 0.930911 0.988010
Si Si4 0.874284 0.434712 0.648641
Si Si5 0.966385 0.568773 0.848656
O O1 0.950291 0.750000 0.335237
O O2 0.889110 0.965879 0.195113
O O3 0.906184 0.982121 0.499959
O O4 0.990404 0.031686 0.297779
O O5 0.646296 0.750000 0.650217
O O6 0.705948 0.972244 0.513413
O O7 0.704575 0.946312 0.819078
O O8 0.751968 0.750000 0.010143
O O9 0.690894 0.976188 0.122969
O O10 0.878449 0.250000 0.628710
O O11 0.907695 0.486231 0.807767
O O12 0.957750 0.750000 0.867049
O O13 0.000000 0.500000 0.000000
#
# Coordination Sequence:
#
# PCOD9465726 Si02
#       5
#     8   8   8   8   8
#     4  11  22  39  62  86 114 152 196 238 285 342
#     4  10  21  37  58  85 116 150 191 237 285 339
#     4   9  20  37  57  83 115 150 189 233 282 339
#     4  10  21  40  62  86 117 153 194 237 284 341
#     4  12  25  41  60  86 118 151 190 237 291 343
#
# _framework density 23.623535
#
# number of rings (size 3 to 8) (size 9 to 14) (size 15 to 20)
#    0.000    1.600    0.000    6.600    0.000    6.400 
#    0.000    4.000    0.000    0.000    0.000    0.000 
#    0.000    0.000    0.000    0.000    0.000    0.000 
#
# Total GULP energy -223993.410682 kJ/mol
# GULP energy per Si atom -5599.835267 kJ/mol
# Density = 2.356977 g / cm^3
# Si number density = 23.623535 Si / 1000 Ang^3
#
#
#
# Elastic Constant Matrix: (Units=GPa)
#
#
# Indices 1 2 3 4 5 6 
#
# 1 87.5984 18.9691 1.0318 0.0000 0.0000 0.0000
# 2 18.9691 71.4586 -4.9622 0.0000 0.0000 0.0000
# 3 1.0318 -4.9622 51.8293 0.0000 0.0000 0.0000
# 4 0.0000 0.0000 0.0000 27.9007 0.0000 0.0000
# 5 0.0000 0.0000 0.0000 0.0000 42.4940 0.0000
# 6 0.0000 0.0000 0.0000 0.0000 0.0000 33.5205
#
#
#
# Elastic Compliance Matrix: (Units=1/GPa)
#
#
# Indices 1 2 3 4 5 6 
#
# 1 0.012128 -0.003258 -0.000553 0.000000 0.000000 0.000000
# 2 -0.003258 0.014963 0.001497 0.000000 0.000000 0.000000
# 3 -0.000553 0.001497 0.019448 0.000000 0.000000 0.000000
# 4 0.000000 0.000000 0.000000 0.035841 0.000000 0.000000
# 5 0.000000 0.000000 0.000000 0.000000 0.023533 0.000000
# 6 0.000000 0.000000 0.000000 0.000000 0.000000 0.029833
#
#
# Mechanical properties :
#
#
# Convention : Reuss Voigt Hill
#
# Bulk Modulus (GPa) = 23.85970 26.77375 25.31673
# Shear Modulus (GPa) = 32.39522 33.83954 33.11738
#
# Velocity S-wave (km/s) = 3.70714 3.78888 3.74823
# Velocity P-wave (km/s) = 5.33346 5.52258 5.42884
#
# Compressibility (1/GPa) = 0.04191167
#
# Stress axis : x y z
#
# Youngs Moduli (GPa) = 82.45572 66.83190 51.41785
#
# Poissons Ratio (x) = 0.21773 0.02845
# Poissons Ratio (y) = 0.26862 -0.07699
# Poissons Ratio (z) = 0.04563 -0.10008
#
# Static dielectric constant tensor:
#      x y z
#    x 1.919560 0.000000 0.000000 
#    y 0.000000 1.926810 0.000000 
#    z 0.000000 0.000000 2.178430 
# 
# From -- ./inp_files/9064.got.cif
#   From: 2010.05.17/outbox.cif.g08.bks.cpg/sg62_5_cif.got.tgz:9064.got - 2010.06.03 15:25:27.
