data_PCOD9465641
_publ_section_title
;
Structure prediction by ZEFSAII (Michael W. Deem and Ramdas Pophale) SiO2 
 PCOD9465641
Probable space group: P N M A
;
_chemical_formula_sum "Si O2"
_cell_formula_units_Z 32
_cell_length_a 20.917518
_cell_length_b 13.952604
_cell_length_c 5.154372
_cell_angle_alpha 90.000000
_cell_angle_beta 90.000000
_cell_angle_gamma 90.000000
_cell_volume 1504.323288
_symmetry_space_group_name_H-M "P N M A"
_symmetry_group_IT_number 62
_symmetry_cell_setting 'orthorhombic'
loop_
_space_group_symop_operation_xyz
x,y,z
1/2-x,-y,1/2+z
1/2+x,1/2-y,1/2-z
-x,1/2+y,-z
-x,-y,-z
1/2+x,y,1/2-z
1/2-x,1/2+y,1/2+z
x,1/2-y,z
loop_
_atom_site_type_symbol
_atom_site_label
_atom_site_fract_x
_atom_site_fract_y
_atom_site_fract_z
Si Si1 0.957042 0.521642 0.750244
Si Si2 0.841024 0.489470 0.052686
Si Si3 0.122552 0.146618 0.551311
Si Si4 0.746802 0.142730 0.298963
O O1 0.927888 0.626101 0.679247
O O2 0.000000 0.500000 0.500000
O O3 0.889371 0.468450 0.815773
O O4 0.000000 0.500000 0.000000
O O5 0.878710 0.558743 0.250522
O O6 0.812844 0.394971 0.181723
O O7 0.781084 0.557845 0.977613
O O8 0.110596 0.250000 0.674670
O O9 0.192718 0.147509 0.424219
O O10 0.750887 0.250000 0.414114
#
# Coordination Sequence:
#
# PCOD9465641 Si02
#       4
#     8   8   8   8
#     4  11  23  43  65  89 128 176 225 278 330 387
#     4  11  20  38  67  93 138 174 218 281 344 394
#     4  10  21  39  67  96 126 173 222 272 331 405
#     4  10  21  36  60  98 132 170 217 268 340 412
#
# _framework density 21.272024999999999
#
# number of rings (size 3 to 8) (size 9 to 14) (size 15 to 20)
#    0.000    1.500    5.000    0.750    0.000    1.000 
#    0.000    2.500    0.000    1.500    0.000    0.000 
#    0.000    0.000    0.000    0.000    0.000    0.000 
#
# Total GULP energy -178186.779037 kJ/mol
# GULP energy per Si atom -5568.336845 kJ/mol
# Density = 2.122361 g / cm^3
# Si number density = 21.272025 Si / 1000 Ang^3
#
#
#
# Elastic Constant Matrix: (Units=GPa)
#
#
# Indices 1 2 3 4 5 6 
#
# 1 93.1045 45.8904 31.8035 0.0000 0.0000 0.0000
# 2 45.8904 73.1394 23.5497 0.0000 0.0000 0.0000
# 3 31.8035 23.5497 93.8430 0.0000 0.0000 0.0000
# 4 0.0000 0.0000 0.0000 900.9793 0.0000 0.0000
# 5 0.0000 0.0000 0.0000 0.0000 51.8378 0.0000
# 6 0.0000 0.0000 0.0000 0.0000 0.0000 -0.1037
#
#
#
# Elastic Compliance Matrix: (Units=1/GPa)
#
#
# Indices 1 2 3 4 5 6 
#
# 1 0.016407 -0.009251 -0.003239 0.000000 0.000000 0.000000
# 2 -0.009251 0.020091 -0.001906 0.000000 0.000000 0.000000
# 3 -0.003239 -0.001906 0.012232 0.000000 0.000000 0.000000
# 4 0.000000 0.000000 0.000000 0.001110 0.000000 0.000000
# 5 0.000000 0.000000 0.000000 0.000000 0.019291 0.000000
# 6 0.000000 0.000000 0.000000 0.000000 0.000000 -9.647262
#
#
# Mechanical properties :
#
#
# Convention : Reuss Voigt Hill
#
# Bulk Modulus (GPa) = 50.15843 51.39712 50.77777
# Shear Modulus (GPa) = -0.52396 201.13224 100.30414
#
# Velocity S-wave (km/s) = -0.49684 9.73436 6.87426
# Velocity P-wave (km/s) = 4.82717 12.27021 9.32361
#
# Compressibility (1/GPa) = 0.01993683
#
# Stress axis : x y z
#
# Youngs Moduli (GPa) = 60.94999 49.77327 81.75202
#
# Poissons Ratio (x) = 0.46048 0.26477
# Poissons Ratio (y) = 0.56388 0.15586
# Poissons Ratio (z) = 0.19740 0.09489
#
# Static dielectric constant tensor:
#      x y z
#    x 1.810490 0.000000 0.000000 
#    y 0.000000 1.766550 0.000000 
#    z 0.000000 0.000000 1.902960 
# 
# From -- ./inp_files/1460.got.cif
#   From: 2010.05.17/outbox.cif.g08.bks.cpg/sg62_1_cif.got.tgz:1460.got - 2010.06.03 15:25:27.
