data_PCOD9465588
_publ_section_title
;
Structure prediction by ZEFSAII (Michael W. Deem and Ramdas Pophale) SiO2 
 PCOD9465588
Probable space group: P N M A
;
_chemical_formula_sum "Si O2"
_cell_formula_units_Z 56
_cell_length_a 21.236629
_cell_length_b 7.497715
_cell_length_c 14.453066
_cell_angle_alpha 90.000000
_cell_angle_beta 90.000000
_cell_angle_gamma 90.000000
_cell_volume 2301.306659
_symmetry_space_group_name_H-M "P N M A"
_symmetry_group_IT_number 62
_symmetry_cell_setting 'orthorhombic'
loop_
_space_group_symop_operation_xyz
x,y,z
1/2-x,-y,1/2+z
1/2+x,1/2-y,1/2-z
-x,1/2+y,-z
-x,-y,-z
1/2+x,y,1/2-z
1/2-x,1/2+y,1/2+z
x,1/2-y,z
loop_
_atom_site_type_symbol
_atom_site_label
_atom_site_fract_x
_atom_site_fract_y
_atom_site_fract_z
Si Si1 0.860636 0.453651 0.260922
Si Si2 0.905687 0.454060 0.926449
Si Si3 0.191208 0.951587 0.554606
Si Si4 0.933706 0.544540 0.547798
Si Si5 0.049122 0.969353 0.883289
Si Si6 0.127525 0.964744 0.269737
Si Si7 0.745724 0.032960 0.621888
O O1 0.875805 0.250000 0.288855
O O2 0.826421 0.539942 0.348370
O O3 0.923103 0.529949 0.214676
O O4 0.812399 0.454147 0.176095
O O5 0.883825 0.250000 0.934711
O O6 0.874551 0.535818 0.835033
O O7 0.979743 0.458851 0.899791
O O8 0.907479 0.530873 0.029987
O O9 0.213379 0.750000 0.574257
O O10 0.241543 0.029328 0.482968
O O11 0.125038 0.943483 0.498735
O O12 0.920859 0.750000 0.528869
O O13 0.927867 0.517341 0.658524
O O14 0.000000 0.500000 0.500000
O O15 0.047123 0.750000 0.885155
O O16 0.125419 0.750000 0.263912
O O17 0.192156 0.016560 0.319604
O O18 0.741422 0.250000 0.621554
#
# Coordination Sequence:
#
# PCOD9465588 Si02
#       7
#     8   8   8   8   8   8   8
#     4  10  21  36  57  81 109 144 184 229 276 324
#     4   9  18  34  55  77 107 142 178 222 271 328
#     4   9  20  39  56  77 111 146 180 228 276 322
#     4  11  22  35  54  81 110 142 178 223 274 334
#     4   9  19  34  51  78 110 140 177 226 278 325
#     4   9  19  36  55  77 107 145 183 225 275 328
#     4   9  19  36  55  76 108 143 180 224 272 323
#
# _framework density 24.334
#
# number of rings (size 3 to 8) (size 9 to 14) (size 15 to 20)
#    0.000    2.571    0.000    2.143    2.000    5.143 
#    0.000    1.429    0.000    0.000    0.000    0.000 
#    0.000    0.000    0.000    0.000    0.000    0.000 
#
# Total GULP energy -312622.453272 kJ/mol
# GULP energy per Si atom -5582.543808 kJ/mol
# Density = 2.427862 g / cm^3
# Si number density = 24.334000 Si / 1000 Ang^3
#
#
#
# Elastic Constant Matrix: (Units=GPa)
#
#
# Indices 1 2 3 4 5 6 
#
# 1 23.7022 -10.4122 0.0027 0.0000 0.0000 0.0000
# 2 -10.4122 88.5387 -0.2429 0.0000 0.0000 0.0000
# 3 0.0027 -0.2429 119.7666 0.0000 0.0000 0.0000
# 4 0.0000 0.0000 0.0000 10.2063 0.0000 0.0000
# 5 0.0000 0.0000 0.0000 0.0000 28.3861 0.0000
# 6 0.0000 0.0000 0.0000 0.0000 0.0000 2.2643
#
#
#
# Elastic Compliance Matrix: (Units=1/GPa)
#
#
# Indices 1 2 3 4 5 6 
#
# 1 0.044489 0.005232 0.000010 0.000000 0.000000 0.000000
# 2 0.005232 0.011910 0.000024 0.000000 0.000000 0.000000
# 3 0.000010 0.000024 0.008350 0.000000 0.000000 0.000000
# 4 0.000000 0.000000 0.000000 0.097979 0.000000 0.000000
# 5 0.000000 0.000000 0.000000 0.000000 0.035229 0.000000
# 6 0.000000 0.000000 0.000000 0.000000 0.000000 0.441637
#
#
# Mechanical properties :
#
#
# Convention : Reuss Voigt Hill
#
# Bulk Modulus (GPa) = 13.28390 23.41142 18.34766
# Shear Modulus (GPa) = 7.64346 24.34865 15.99606
#
# Velocity S-wave (km/s) = 1.77423 3.16666 2.56667
# Velocity P-wave (km/s) = 3.10934 4.79709 4.04228
#
# Compressibility (1/GPa) = 0.07527908
#
# Stress axis : x y z
#
# Youngs Moduli (GPa) = 22.47768 83.96429 119.76587
#
# Poissons Ratio (x) = -0.43929 -0.00115
# Poissons Ratio (y) = -0.11760 -0.00288
# Poissons Ratio (z) = -0.00022 -0.00202
#
# Static dielectric constant tensor:
#      x y z
#    x 1.933610 0.000000 0.000000 
#    y 0.000000 2.520880 0.000000 
#    z 0.000000 0.000000 2.001040 
# 
# From -- ./inp_files/20280.got.cif
#   From: 2010.05.17/outbox.cif.g08.bks.cpg/sg62_11_cif.got.tgz:20280.got - 2010.06.03 15:25:27.
