data_PCOD9465271
_publ_section_title
;
Structure prediction by ZEFSAII (Michael W. Deem and Ramdas Pophale) SiO2 
 PCOD9465271
Probable space group: P N M A
;
_chemical_formula_sum "Si O2"
_cell_formula_units_Z 40
_cell_length_a 24.604893
_cell_length_b 13.079279
_cell_length_c 5.557262
_cell_angle_alpha 90.000000
_cell_angle_beta 90.000000
_cell_angle_gamma 90.000000
_cell_volume 1788.406160
_symmetry_space_group_name_H-M "P N M A"
_symmetry_group_IT_number 62
_symmetry_cell_setting 'orthorhombic'
loop_
_space_group_symop_operation_xyz
x,y,z
1/2-x,-y,1/2+z
1/2+x,1/2-y,1/2-z
-x,1/2+y,-z
-x,-y,-z
1/2+x,y,1/2-z
1/2-x,1/2+y,1/2+z
x,1/2-y,z
loop_
_atom_site_type_symbol
_atom_site_label
_atom_site_fract_x
_atom_site_fract_y
_atom_site_fract_z
Si Si1 0.024655 0.368786 0.240220
Si Si2 0.251391 0.436101 0.053820
Si Si3 0.641287 0.864071 0.181030
Si Si4 0.863295 0.934435 0.999107
Si Si5 0.566858 0.986621 0.865443
O O1 0.012597 0.250000 0.249568
O O2 0.081403 0.384761 0.101218
O O3 0.036169 0.422525 0.497180
O O4 0.971057 0.433061 0.165418
O O5 0.245872 0.513693 0.820987
O O6 0.305311 0.373450 0.988054
O O7 0.193307 0.378254 0.042143
O O8 0.638022 0.750000 0.280812
O O9 0.644616 0.955202 0.373164
O O10 0.587666 0.894917 0.032525
O O11 0.878514 0.959636 0.271532
#
# Coordination Sequence:
#
# PCOD9465271 Si02
#       5
#     8   8   8   8   8
#     4  10  22  37  59  89 119 159 209 256 314 382
#     4  10  20  39  62  87 125 168 208 261 321 375
#     4  10  21  36  59  91 120 161 212 255 313 378
#     4  10  21  38  61  84 124 162 200 263 318 373
#     4  10  20  40  60  84 123 162 200 261 318 368
#
# _framework density 22.366285999999999
#
# number of rings (size 3 to 8) (size 9 to 14) (size 15 to 20)
#    0.000    2.000    2.000    1.200    0.000    3.200 
#    0.000    0.000    0.000    0.000    0.000    0.000 
#    0.000    0.000    0.000    0.000    0.000    0.000 
#
# Total GULP energy -222801.145232 kJ/mol
# GULP energy per Si atom -5570.028631 kJ/mol
# Density = 2.231538 g / cm^3
# Si number density = 22.366286 Si / 1000 Ang^3
#
#
#
# Elastic Constant Matrix: (Units=GPa)
#
#
# Indices 1 2 3 4 5 6 
#
# 1 113.8957 4.6777 -4.9218 0.0000 0.0000 0.0000
# 2 4.6777 84.8629 4.6051 0.0000 0.0000 0.0000
# 3 -4.9218 4.6051 39.7525 0.0000 0.0000 0.0000
# 4 0.0000 0.0000 0.0000 1.2067 0.0000 0.0000
# 5 0.0000 0.0000 0.0000 0.0000 43.3538 0.0000
# 6 0.0000 0.0000 0.0000 0.0000 0.0000 15.2146
#
#
#
# Elastic Compliance Matrix: (Units=1/GPa)
#
#
# Indices 1 2 3 4 5 6 
#
# 1 0.008853 -0.000551 0.001160 0.000000 0.000000 0.000000
# 2 -0.000551 0.011893 -0.001446 0.000000 0.000000 0.000000
# 3 0.001160 -0.001446 0.025467 0.000000 0.000000 0.000000
# 4 0.000000 0.000000 0.000000 0.828707 0.000000 0.000000
# 5 0.000000 0.000000 0.000000 0.000000 0.023066 0.000000
# 6 0.000000 0.000000 0.000000 0.000000 0.000000 0.065726
#
#
# Mechanical properties :
#
#
# Convention : Reuss Voigt Hill
#
# Bulk Modulus (GPa) = 22.45267 27.47037 24.96152
# Shear Modulus (GPa) = 5.10084 27.56503 16.33293
#
# Velocity S-wave (km/s) = 1.51180 3.51442 2.70524
# Velocity P-wave (km/s) = 3.62047 5.36441 4.57628
#
# Compressibility (1/GPa) = 0.04453814
#
# Stress axis : x y z
#
# Youngs Moduli (GPa) = 112.95975 84.08628 39.26687
#
# Poissons Ratio (x) = 0.04632 -0.04554
# Poissons Ratio (y) = 0.06223 0.05678
# Poissons Ratio (z) = -0.13102 0.12158
#
# Static dielectric constant tensor:
#      x y z
#    x 1.968040 0.000000 0.000000 
#    y 0.000000 1.771680 0.000000 
#    z 0.000000 0.000000 1.880440 
# 
# From -- ./inp_files/2644.got.cif
#   From: 2010.05.17/outbox.cif.g08.bks.cpg/sg62_2_cif.got.tgz:2644.got - 2010.06.03 15:25:27.
