data_PCOD9465929
_publ_section_title
;
Structure prediction by ZEFSAII (Michael W. Deem and Ramdas Pophale) SiO2 
 PCOD9465929
Probable space group: P N M A
;
_chemical_formula_sum "Si O2"
_cell_formula_units_Z 56
_cell_length_a 11.287033
_cell_length_b 15.932708
_cell_length_c 13.533718
_cell_angle_alpha 90.000000
_cell_angle_beta 90.000000
_cell_angle_gamma 90.000000
_cell_volume 2433.809122
_symmetry_space_group_name_H-M "P N M A"
_symmetry_group_IT_number 62
_symmetry_cell_setting 'orthorhombic'
loop_
_space_group_symop_operation_xyz
x,y,z
1/2-x,-y,1/2+z
1/2+x,1/2-y,1/2-z
-x,1/2+y,-z
-x,-y,-z
1/2+x,y,1/2-z
1/2-x,1/2+y,1/2+z
x,1/2-y,z
loop_
_atom_site_type_symbol
_atom_site_label
_atom_site_fract_x
_atom_site_fract_y
_atom_site_fract_z
Si Si1 0.214224 0.344849 0.868494
Si Si2 0.728297 0.448478 0.329032
Si Si3 0.410150 0.016573 0.856297
Si Si4 0.101307 0.161058 0.436030
Si Si5 0.040724 0.404616 0.021798
Si Si6 0.351352 0.613064 0.148059
Si Si7 0.150032 0.657912 0.822975
O O1 0.254896 0.250000 0.894443
O O2 0.303729 0.422145 0.894867
O O3 0.197152 0.349616 0.749864
O O4 0.087761 0.362680 0.921274
O O5 0.635616 0.478019 0.246187
O O6 0.656391 0.395726 0.407875
O O7 0.772643 0.532647 0.379153
O O8 0.835235 0.404844 0.269071
O O9 0.517933 0.077496 0.834220
O O10 0.447069 0.934040 0.920056
O O11 0.035922 0.250000 0.414776
O O12 0.140797 0.165167 0.549304
O O13 0.218465 0.161099 0.368595
O O14 0.935852 0.367053 0.087943
O O15 0.000000 0.500000 0.000000
O O16 0.115615 0.750000 0.787728
#
# Coordination Sequence:
#
# PCOD9465929 Si02
#       7
#     8   8   8   8   8   8   8
#     4  11  25  40  59  93 129 165 213 262 315 387
#     4  10  21  38  61  89 118 159 211 261 313 381
#     4  10  21  40  62  87 124 164 207 264 324 379
#     4  10  21  38  61  89 121 160 211 265 315 379
#     4  12  22  40  65  91 126 169 212 264 332 393
#     4  11  21  39  62  88 124 167 210 258 320 386
#     4  10  22  39  59  87 121 162 212 264 321 383
#
# _framework density 23.009201000000001
#
# number of rings (size 3 to 8) (size 9 to 14) (size 15 to 20)
#    0.000    1.429    0.000    7.286    0.000    3.429 
#    0.000    3.571    0.000    0.857    0.000    0.000 
#    0.000    0.000    0.000    0.000    0.000    0.000 
#
# Total GULP energy -312533.560390 kJ/mol
# GULP energy per Si atom -5580.956436 kJ/mol
# Density = 2.295683 g / cm^3
# Si number density = 23.009201 Si / 1000 Ang^3
#
#
#
# Elastic Constant Matrix: (Units=GPa)
#
#
# Indices 1 2 3 4 5 6 
#
# 1 24.0135 8.0285 -7.9216 0.0000 0.0000 0.0000
# 2 8.0285 129.8570 32.7309 0.0000 0.0000 0.0000
# 3 -7.9216 32.7309 56.7630 0.0000 0.0000 0.0000
# 4 0.0000 0.0000 0.0000 17.6383 0.0000 0.0000
# 5 0.0000 0.0000 0.0000 0.0000 36.5480 0.0000
# 6 0.0000 0.0000 0.0000 0.0000 0.0000 -3.8661
#
#
#
# Elastic Compliance Matrix: (Units=1/GPa)
#
#
# Indices 1 2 3 4 5 6 
#
# 1 0.046558 -0.005284 0.009544 0.000000 0.000000 0.000000
# 2 -0.005284 0.009610 -0.006279 0.000000 0.000000 0.000000
# 3 0.009544 -0.006279 0.022570 0.000000 0.000000 0.000000
# 4 0.000000 0.000000 0.000000 0.056695 0.000000 0.000000
# 5 0.000000 0.000000 0.000000 0.000000 0.027361 0.000000
# 6 0.000000 0.000000 0.000000 0.000000 0.000000 -0.258660
#
#
# Mechanical properties :
#
#
# Convention : Reuss Voigt Hill
#
# Bulk Modulus (GPa) = 13.38672 30.70101 22.04387
# Shear Modulus (GPa) = -74.70626 21.91709 -26.39459
#
# Velocity S-wave (km/s) = -5.70425 3.08967 -3.39061
# Velocity P-wave (km/s) = 6.12813 5.10881 2.39312
#
# Compressibility (1/GPa) = 0.07470091
#
# Stress axis : x y z
#
# Youngs Moduli (GPa) = 21.47840 104.05735 44.30735
#
# Poissons Ratio (x) = 0.54986 -0.42289
# Poissons Ratio (y) = 0.11350 0.27820
# Poissons Ratio (z) = -0.20500 0.65336
#
# Static dielectric constant tensor:
#      x y z
#    x 1.888140 0.000000 0.000000 
#    y 0.000000 1.930030 0.000000 
#    z 0.000000 0.000000 1.895520 
# 
# From -- ./inp_files/18093.got.cif
#   From: 2010.05.17/outbox.cif.g08.bks.cpg/sg62_10_cif.got.tgz:18093.got - 2010.06.03 15:25:27.
