data_PCOD9465666
_publ_section_title
;
Structure prediction by ZEFSAII (Michael W. Deem and Ramdas Pophale) SiO2 
 PCOD9465666
Probable space group: P N M A
;
_chemical_formula_sum "Si O2"
_cell_formula_units_Z 64
_cell_length_a 34.044121
_cell_length_b 7.746150
_cell_length_c 11.981881
_cell_angle_alpha 90.000000
_cell_angle_beta 90.000000
_cell_angle_gamma 90.000000
_cell_volume 3159.752237
_symmetry_space_group_name_H-M "P N M A"
_symmetry_group_IT_number 62
_symmetry_cell_setting 'orthorhombic'
loop_
_space_group_symop_operation_xyz
x,y,z
1/2-x,-y,1/2+z
1/2+x,1/2-y,1/2-z
-x,1/2+y,-z
-x,-y,-z
1/2+x,y,1/2-z
1/2-x,1/2+y,1/2+z
x,1/2-y,z
loop_
_atom_site_type_symbol
_atom_site_label
_atom_site_fract_x
_atom_site_fract_y
_atom_site_fract_z
Si Si1 0.407542 0.045207 0.684210
Si Si2 0.693765 0.450977 0.937971
Si Si3 0.169147 0.040678 0.318539
Si Si4 0.282045 0.545278 0.606125
Si Si5 0.859366 0.040326 0.026094
Si Si6 0.057777 0.545983 0.579336
Si Si7 0.871328 0.048202 0.274610
Si Si8 0.026383 0.539730 0.341459
O O1 0.412487 0.250000 0.668946
O O2 0.390014 0.976129 0.568113
O O3 0.447999 0.978734 0.736502
O O4 0.373360 0.017416 0.775772
O O5 0.683086 0.250000 0.934590
O O6 0.740324 0.467220 0.924676
O O7 0.670041 0.536904 0.837711
O O8 0.679956 0.521008 0.058175
O O9 0.169652 0.250000 0.318310
O O10 0.200326 0.982243 0.224512
O O11 0.276397 0.750000 0.614564
O O12 0.316024 0.509498 0.515992
O O13 0.860399 0.250000 0.026141
O O14 0.868484 0.975277 0.149991
O O15 0.064693 0.750000 0.563225
O O16 0.095286 0.472206 0.643963
O O17 0.047529 0.477402 0.455938
O O18 0.018382 0.520495 0.651549
O O19 0.881479 0.250000 0.260287
O O20 0.026055 0.750000 0.342644
#
# Coordination Sequence:
#
# PCOD9465666 Si02
#       8
#     8   8   8   8   8   8   8   8
#     4   9  17  32  55  79 101 133 176 216 258 311
#     4  11  23  36  53  78 104 134 173 216 263 314
#     4   9  20  36  52  73 103 132 165 214 261 305
#     4  10  21  37  55  76 102 135 173 213 261 313
#     4   9  19  36  56  76 104 140 175 218 266 311
#     4   9  18  32  50  75 105 139 175 213 262 317
#     4  10  21  37  55  76 106 142 177 216 264 316
#     4   9  17  30  51  77 105 134 171 219 264 309
#
# _framework density 20.254753000000001
#
# number of rings (size 3 to 8) (size 9 to 14) (size 15 to 20)
#    0.000    2.500    0.000    1.500    1.750    4.000 
#    0.000    3.125    0.000    0.000    0.000    0.000 
#    0.000    0.000    0.000    0.000    0.000    0.000 
#
# Total GULP energy -357166.733666 kJ/mol
# GULP energy per Si atom -5580.730214 kJ/mol
# Density = 2.020865 g / cm^3
# Si number density = 20.254753 Si / 1000 Ang^3
#
#
#
# Elastic Constant Matrix: (Units=GPa)
#
#
# Indices 1 2 3 4 5 6 
#
# 1 67.1826 -6.5316 22.6746 0.0000 0.0000 0.0000
# 2 -6.5316 26.0574 4.5527 0.0000 0.0000 0.0000
# 3 22.6746 4.5527 62.5042 0.0000 0.0000 0.0000
# 4 0.0000 0.0000 0.0000 7.5123 0.0000 0.0000
# 5 0.0000 0.0000 0.0000 0.0000 13.4330 0.0000
# 6 0.0000 0.0000 0.0000 0.0000 0.0000 18.2631
#
#
#
# Elastic Compliance Matrix: (Units=1/GPa)
#
#
# Indices 1 2 3 4 5 6 
#
# 1 0.017745 0.005645 -0.006848 0.000000 0.000000 0.000000
# 2 0.005645 0.040667 -0.005010 0.000000 0.000000 0.000000
# 3 -0.006848 -0.005010 0.018848 0.000000 0.000000 0.000000
# 4 0.000000 0.000000 0.000000 0.133116 0.000000 0.000000
# 5 0.000000 0.000000 0.000000 0.000000 0.074443 0.000000
# 6 0.000000 0.000000 0.000000 0.000000 0.000000 0.054755
#
#
# Mechanical properties :
#
#
# Convention : Reuss Voigt Hill
#
# Bulk Modulus (GPa) = 15.42432 21.90396 18.66414
# Shear Modulus (GPa) = 13.38284 16.84491 15.11388
#
# Velocity S-wave (km/s) = 2.57325 2.88697 2.73461
# Velocity P-wave (km/s) = 4.05715 4.68513 4.38241
#
# Compressibility (1/GPa) = 0.06483269
#
# Stress axis : x y z
#
# Youngs Moduli (GPa) = 56.35395 24.59000 53.05533
#
# Poissons Ratio (x) = -0.13880 0.36335
# Poissons Ratio (y) = -0.31809 0.26580
# Poissons Ratio (z) = 0.38594 0.12319
#
# Static dielectric constant tensor:
#      x y z
#    x 1.686890 0.000000 0.000000 
#    y 0.000000 1.750830 0.000000 
#    z 0.000000 0.000000 1.730870 
# 
# From -- ./inp_files/15913.got.cif
#   From: 2010.05.17/outbox.cif.g08.bks.cpg/sg62_8_cif.got.tgz:15913.got - 2010.06.03 15:25:27.
