data_PCOD9465798
_publ_section_title
;
Structure prediction by ZEFSAII (Michael W. Deem and Ramdas Pophale) SiO2 
 PCOD9465798
Probable space group: P N M A
;
_chemical_formula_sum "Si O2"
_cell_formula_units_Z 60
_cell_length_a 14.468845
_cell_length_b 9.670958
_cell_length_c 18.330791
_cell_angle_alpha 90.000000
_cell_angle_beta 90.000000
_cell_angle_gamma 90.000000
_cell_volume 2564.983450
_symmetry_space_group_name_H-M "P N M A"
_symmetry_group_IT_number 62
_symmetry_cell_setting 'orthorhombic'
loop_
_space_group_symop_operation_xyz
x,y,z
1/2-x,-y,1/2+z
1/2+x,1/2-y,1/2-z
-x,1/2+y,-z
-x,-y,-z
1/2+x,y,1/2-z
1/2-x,1/2+y,1/2+z
x,1/2-y,z
loop_
_atom_site_type_symbol
_atom_site_label
_atom_site_fract_x
_atom_site_fract_y
_atom_site_fract_z
Si Si1 0.084565 0.912457 0.223940
Si Si2 0.098573 0.406468 0.849912
Si Si3 0.114569 0.460348 0.019562
Si Si4 0.548602 0.750000 0.512038
Si Si5 0.246027 0.088321 0.284305
Si Si6 0.367051 0.903291 0.937244
Si Si7 0.033374 0.911043 0.663723
Si Si8 0.808313 0.092056 0.430843
O O1 0.103295 0.750000 0.236563
O O2 0.013200 0.920814 0.155650
O O3 0.017049 0.981547 0.284008
O O4 0.178599 0.999628 0.232011
O O5 0.119075 0.250000 0.823897
O O6 0.128149 0.415120 0.934361
O O7 0.155807 0.518662 0.804186
O O8 0.023856 0.372256 0.039347
O O9 0.114719 0.625676 0.017342
O O10 0.198701 0.415435 0.069878
O O11 0.254142 0.250000 0.262708
O O12 0.193065 0.085383 0.363048
O O13 0.352508 0.750000 0.967095
O O14 0.472068 0.915950 0.909910
O O15 0.339057 0.009909 0.998029
O O16 0.028053 0.750000 0.690608
O O17 0.136430 0.952742 0.641105
O O18 0.837032 0.250000 0.439947
#
# Coordination Sequence:
#
# PCOD9465798 Si02
#       8
#     8   8   8   4   8   8   8   8
#     4  10  22  40  61  86 123 166 203 257 315 366
#     4  11  22  39  66  93 122 159 210 255 309 370
#     4  11  22  42  64  92 119 161 201 261 304 368
#     4  10  24  42  62  84 124 152 194 248 320 346
#     4  10  21  37  61  92 120 154 202 259 301 365
#     4   9  18  31  51  84 119 147 186 240 291 352
#     4   9  20  37  53  80 125 160 191 240 300 356
#     4  11  20  32  57  87 116 155 200 237 296 361
#
# _framework density 23.391964999999999
#
# number of rings (size 3 to 8) (size 9 to 14) (size 15 to 20)
#    0.000    1.867    2.667    2.000    1.867    3.733 
#    0.000    2.667    2.933    0.000    0.000    0.000 
#    0.000    0.000    0.000    0.000    0.000    0.000 
#
# Total GULP energy -334272.271744 kJ/mol
# GULP energy per Si atom -5571.204529 kJ/mol
# Density = 2.333872 g / cm^3
# Si number density = 23.391965 Si / 1000 Ang^3
#
#
#
# Elastic Constant Matrix: (Units=GPa)
#
#
# Indices 1 2 3 4 5 6 
#
# 1 87.8544 24.0049 0.8226 0.0000 0.0000 0.0000
# 2 24.0049 167.7859 28.5886 0.0000 0.0000 0.0000
# 3 0.8226 28.5886 65.7099 0.0000 0.0000 0.0000
# 4 0.0000 0.0000 0.0000 5.3026 0.0000 0.0000
# 5 0.0000 0.0000 0.0000 0.0000 31.4073 0.0000
# 6 0.0000 0.0000 0.0000 0.0000 0.0000 33.7301
#
#
#
# Elastic Compliance Matrix: (Units=1/GPa)
#
#
# Indices 1 2 3 4 5 6 
#
# 1 0.011870 -0.001807 0.000638 0.000000 0.000000 0.000000
# 2 -0.001807 0.006712 -0.002898 0.000000 0.000000 0.000000
# 3 0.000638 -0.002898 0.016471 0.000000 0.000000 0.000000
# 4 0.000000 0.000000 0.000000 0.188587 0.000000 0.000000
# 5 0.000000 0.000000 0.000000 0.000000 0.031840 0.000000
# 6 0.000000 0.000000 0.000000 0.000000 0.000000 0.029647
#
#
# Mechanical properties :
#
#
# Convention : Reuss Voigt Hill
#
# Bulk Modulus (GPa) = 37.14781 47.57582 42.36181
# Shear Modulus (GPa) = 16.54346 31.95028 24.24687
#
# Velocity S-wave (km/s) = 2.66226 3.69977 3.22304
# Velocity P-wave (km/s) = 5.03639 6.21561 5.65681
#
# Compressibility (1/GPa) = 0.02691949
#
# Stress axis : x y z
#
# Youngs Moduli (GPa) = 84.24451 148.98205 60.71223
#
# Poissons Ratio (x) = 0.26919 -0.03871
# Poissons Ratio (y) = 0.15222 0.17593
# Poissons Ratio (z) = -0.05371 0.43170
#
# Static dielectric constant tensor:
#      x y z
#    x 1.968800 0.000000 0.000000 
#    y 0.000000 1.847820 0.000000 
#    z 0.000000 0.000000 1.939280 
# 
# From -- ./inp_files/29672.got.cif
#   From: 2010.05.17/outbox.cif.g08.bks.cpg/sg62_15_cif.got.tgz:29672.got - 2010.06.03 15:25:27.
