data_PCOD9465320
_publ_section_title
;
Structure prediction by ZEFSAII (Michael W. Deem and Ramdas Pophale) SiO2 
 PCOD9465320
Probable space group: P N M A
;
_chemical_formula_sum "Si O2"
_cell_formula_units_Z 56
_cell_length_a 11.642920
_cell_length_b 15.698842
_cell_length_c 13.621651
_cell_angle_alpha 90.000000
_cell_angle_beta 90.000000
_cell_angle_gamma 90.000000
_cell_volume 2489.770294
_symmetry_space_group_name_H-M "P N M A"
_symmetry_group_IT_number 62
_symmetry_cell_setting 'orthorhombic'
loop_
_space_group_symop_operation_xyz
x,y,z
1/2-x,-y,1/2+z
1/2+x,1/2-y,1/2-z
-x,1/2+y,-z
-x,-y,-z
1/2+x,y,1/2-z
1/2-x,1/2+y,1/2+z
x,1/2-y,z
loop_
_atom_site_type_symbol
_atom_site_label
_atom_site_fract_x
_atom_site_fract_y
_atom_site_fract_z
Si Si1 0.932273 0.848225 0.814134
Si Si2 0.784601 0.057600 0.349005
Si Si3 0.720652 0.570043 0.075929
Si Si4 0.271267 0.750000 0.325594
Si Si5 0.914453 0.655836 0.583513
Si Si6 0.516806 0.750000 0.229957
Si Si7 0.974784 0.924024 0.383352
Si Si8 0.330435 0.102598 0.368080
O O1 0.886929 0.750000 0.827075
O O2 0.045041 0.858355 0.880478
O O3 0.852192 0.928117 0.843264
O O4 0.952242 0.857179 0.696368
O O5 0.805761 0.084319 0.461079
O O6 0.814759 0.107909 0.249927
O O7 0.864411 0.973691 0.341605
O O8 0.752866 0.661400 0.117926
O O9 0.602764 0.537719 0.127959
O O10 0.812283 0.495114 0.096443
O O11 0.407855 0.750000 0.303057
O O12 0.156893 0.750000 0.250909
O O13 0.955076 0.750000 0.555952
O O14 0.953560 0.593232 0.498195
O O15 0.776135 0.651415 0.584821
O O16 0.489493 0.666299 0.167531
#
# Coordination Sequence:
#
# PCOD9465320 Si02
#       8
#     8   8   8   4   8   4   8   8
#     4  10  24  43  65  94 134 173 214 265 334 401
#     4  11  24  39  68  97 128 168 217 268 337 380
#     4  11  24  41  68  94 133 168 220 274 326 389
#     4  10  24  46  64 101 132 180 224 275 332 399
#     4  10  20  39  65  96 126 166 219 277 322 377
#     4  10  22  44  68  95 132 180 224 273 326 393
#     4  11  21  40  68  98 127 165 227 272 320 385
#     4  11  23  41  65  95 130 169 218 270 328 391
#
# _framework density 22.492035999999999
#
# number of rings (size 3 to 8) (size 9 to 14) (size 15 to 20)
#    0.000    1.429    2.143    2.571    5.000    1.143 
#    2.571    0.000    0.000    0.000    0.000    0.000 
#    0.000    0.000    0.000    0.000    0.000    0.000 
#
# Total GULP energy -311808.125695 kJ/mol
# GULP energy per Si atom -5568.002245 kJ/mol
# Density = 2.244084 g / cm^3
# Si number density = 22.492036 Si / 1000 Ang^3
#
#
#
# Elastic Constant Matrix: (Units=GPa)
#
#
# Indices 1 2 3 4 5 6 
#
# 1 24.3490 -12.0034 -6.9202 0.0000 0.0000 0.0000
# 2 -12.0034 83.0958 3.1894 0.0000 0.0000 0.0000
# 3 -6.9202 3.1894 38.4630 0.0000 0.0000 0.0000
# 4 0.0000 0.0000 0.0000 -3.9920 0.0000 0.0000
# 5 0.0000 0.0000 0.0000 0.0000 10.2870 0.0000
# 6 0.0000 0.0000 0.0000 0.0000 0.0000 16.6985
#
#
#
# Elastic Compliance Matrix: (Units=1/GPa)
#
#
# Indices 1 2 3 4 5 6 
#
# 1 0.046454 0.006410 0.007826 0.000000 0.000000 0.000000
# 2 0.006410 0.012957 0.000079 0.000000 0.000000 0.000000
# 3 0.007826 0.000079 0.027401 0.000000 0.000000 0.000000
# 4 0.000000 0.000000 0.000000 -0.250500 0.000000 0.000000
# 5 0.000000 0.000000 0.000000 0.000000 0.097210 0.000000
# 6 0.000000 0.000000 0.000000 0.000000 0.000000 0.059886
#
#
# Mechanical properties :
#
#
# Convention : Reuss Voigt Hill
#
# Bulk Modulus (GPa) = 8.66236 12.71549 10.68893
# Shear Modulus (GPa) = 1534.87490 15.37483 775.12487
#
# Velocity S-wave (km/s) = 26.15128 2.61735 18.58413
# Velocity P-wave (km/s) = 30.26074 3.84703 21.56980
#
# Compressibility (1/GPa) = 0.11544192
#
# Stress axis : x y z
#
# Youngs Moduli (GPa) = 21.52677 77.17712 36.49557
#
# Poissons Ratio (x) = -0.49470 -0.28563
# Poissons Ratio (y) = -0.13799 -0.00288
# Poissons Ratio (z) = -0.16848 -0.00608
#
# Static dielectric constant tensor:
#      x y z
#    x 1.961370 0.000000 0.000000 
#    y 0.000000 1.862390 0.000000 
#    z 0.000000 0.000000 1.842990 
# 
# From -- ./inp_files/18140.got.cif
#   From: 2010.05.17/outbox.cif.g08.bks.cpg/sg62_10_cif.got.tgz:18140.got - 2010.06.03 15:25:27.
