data_PCOD9465571
_publ_section_title
;
Structure prediction by ZEFSAII (Michael W. Deem and Ramdas Pophale) SiO2 
 PCOD9465571
Probable space group: P N M A
;
_chemical_formula_sum "Si O2"
_cell_formula_units_Z 40
_cell_length_a 9.655942
_cell_length_b 31.450022
_cell_length_c 5.288424
_cell_angle_alpha 90.000000
_cell_angle_beta 90.000000
_cell_angle_gamma 90.000000
_cell_volume 1605.986423
_symmetry_space_group_name_H-M "P N M A"
_symmetry_group_IT_number 62
_symmetry_cell_setting 'orthorhombic'
loop_
_space_group_symop_operation_xyz
x,y,z
1/2-x,-y,1/2+z
1/2+x,1/2-y,1/2-z
-x,1/2+y,-z
-x,-y,-z
1/2+x,y,1/2-z
1/2-x,1/2+y,1/2+z
x,1/2-y,z
loop_
_atom_site_type_symbol
_atom_site_label
_atom_site_fract_x
_atom_site_fract_y
_atom_site_fract_z
Si Si1 0.617846 0.880770 0.376696
Si Si2 0.194815 0.296023 0.648421
Si Si3 0.794352 0.096077 0.368405
Si Si4 0.891131 0.673668 0.851852
Si Si5 0.336950 0.986828 0.487519
O O1 0.715016 0.839122 0.332676
O O2 0.672264 0.915669 0.578129
O O3 0.496886 0.859956 0.537186
O O4 0.594592 0.900806 0.098445
O O5 0.263044 0.250000 0.593361
O O6 0.087788 0.305281 0.419760
O O7 0.126370 0.293856 0.921698
O O8 0.744130 0.144262 0.326878
O O9 0.678941 0.064314 0.475181
O O10 0.259045 0.997084 0.222862
O O11 0.500000 0.000000 0.500000
#
# Coordination Sequence:
#
# PCOD9465571 Si02
#       5
#     8   8   8   8   8
#     4  10  21  40  61  90 116 170 214 263 334 395
#     4  10  21  36  55  88 122 155 207 265 323 398
#     4  10  23  39  66  89 128 167 216 278 325 417
#     4  10  21  38  60  86 118 164 213 259 331 394
#     4  12  28  49  73 112 148 191 241 298 370 430
#
# _framework density 24.90681
#
# number of rings (size 3 to 8) (size 9 to 14) (size 15 to 20)
#    0.000    1.600    0.000    3.600    5.600    1.600 
#    0.000    0.000    0.000    0.000    0.000    0.000 
#    0.000    0.000    0.000    0.000    0.000    0.000 
#
# Total GULP energy -222766.796255 kJ/mol
# GULP energy per Si atom -5569.169906 kJ/mol
# Density = 2.485012 g / cm^3
# Si number density = 24.906810 Si / 1000 Ang^3
#
#
#
# Elastic Constant Matrix: (Units=GPa)
#
#
# Indices 1 2 3 4 5 6 
#
# 1 73.5808 15.2682 32.8480 0.0000 0.0000 0.0000
# 2 15.2682 89.3667 49.1646 0.0000 0.0000 0.0000
# 3 32.8480 49.1646 140.3710 0.0000 0.0000 0.0000
# 4 0.0000 0.0000 0.0000 66.3850 0.0000 0.0000
# 5 0.0000 0.0000 0.0000 0.0000 20.3298 0.0000
# 6 0.0000 0.0000 0.0000 0.0000 0.0000 -43.0962
#
#
#
# Elastic Compliance Matrix: (Units=1/GPa)
#
#
# Indices 1 2 3 4 5 6 
#
# 1 0.015221 -0.000794 -0.003284 0.000000 0.000000 0.000000
# 2 -0.000794 0.013902 -0.004683 0.000000 0.000000 0.000000
# 3 -0.003284 -0.004683 0.009533 0.000000 0.000000 0.000000
# 4 0.000000 0.000000 0.000000 0.015064 0.000000 0.000000
# 5 0.000000 0.000000 0.000000 0.000000 0.049189 0.000000
# 6 0.000000 0.000000 0.000000 0.000000 0.000000 -0.023204
#
#
# Mechanical properties :
#
#
# Convention : Reuss Voigt Hill
#
# Bulk Modulus (GPa) = 47.31770 55.31999 51.31885
# Shear Modulus (GPa) = 47.95183 22.45957 35.20570
#
# Velocity S-wave (km/s) = 4.39253 3.00616 3.76373
# Velocity P-wave (km/s) = 6.69065 5.85733 6.28781
#
# Compressibility (1/GPa) = 0.02113374
#
# Stress axis : x y z
#
# Youngs Moduli (GPa) = 65.69784 71.93201 104.90149
#
# Poissons Ratio (x) = 0.05711 0.34448
# Poissons Ratio (y) = 0.05216 0.49129
# Poissons Ratio (z) = 0.21574 0.33688
#
# Static dielectric constant tensor:
#      x y z
#    x 2.091350 0.000000 0.000000 
#    y 0.000000 1.971780 0.000000 
#    z 0.000000 0.000000 2.090530 
# 
# From -- ./inp_files/680.got.cif
#   From: 2010.05.17/outbox.cif.g08.bks.cpg/sg62_1_cif.got.tgz:680.got - 2010.06.03 15:25:27.
