data_PCOD9465939
_publ_section_title
;
Structure prediction by ZEFSAII (Michael W. Deem and Ramdas Pophale) SiO2 
 PCOD9465939
Probable space group: P N M A
;
_chemical_formula_sum "Si O2"
_cell_formula_units_Z 56
_cell_length_a 10.675005
_cell_length_b 11.533317
_cell_length_c 22.497515
_cell_angle_alpha 90.000000
_cell_angle_beta 90.000000
_cell_angle_gamma 90.000000
_cell_volume 2769.853926
_symmetry_space_group_name_H-M "P N M A"
_symmetry_group_IT_number 62
_symmetry_cell_setting 'orthorhombic'
loop_
_space_group_symop_operation_xyz
x,y,z
1/2-x,-y,1/2+z
1/2+x,1/2-y,1/2-z
-x,1/2+y,-z
-x,-y,-z
1/2+x,y,1/2-z
1/2-x,1/2+y,1/2+z
x,1/2-y,z
loop_
_atom_site_type_symbol
_atom_site_label
_atom_site_fract_x
_atom_site_fract_y
_atom_site_fract_z
Si Si1 0.150928 0.750000 0.815221
Si Si2 0.309947 0.884089 0.003430
Si Si3 0.816852 0.381391 0.690831
Si Si4 0.868612 0.750000 0.784706
Si Si5 0.191882 0.502401 0.184498
Si Si6 0.922198 0.885918 0.376942
Si Si7 0.326991 0.023065 0.397797
Si Si8 0.946776 0.117246 0.920808
O O1 0.274658 0.750000 0.772755
O O2 0.150834 0.638183 0.858638
O O3 0.020679 0.750000 0.777114
O O4 0.334999 0.750000 0.987618
O O5 0.408911 0.921014 0.053878
O O6 0.176423 0.889127 0.038109
O O7 0.286264 0.953946 0.943462
O O8 0.799646 0.250000 0.711640
O O9 0.824038 0.464135 0.747185
O O10 0.706318 0.422493 0.648421
O O11 0.942211 0.389542 0.651847
O O12 0.836960 0.633222 0.820805
O O13 0.329558 0.535870 0.161848
O O14 0.100887 0.580625 0.144567
O O15 0.879434 0.750000 0.374667
O O16 0.446434 0.976550 0.433682
O O17 0.991865 0.250000 0.923428
#
# Coordination Sequence:
#
# PCOD9465939 Si02
#       8
#     4   8   8   4   8   8   8   8
#     4  12  26  44  62  94 130 176 208 266 318 378
#     4   9  19  38  63  85 119 162 204 256 307 378
#     4  11  24  38  60  91 123 161 202 260 315 380
#     4  12  26  42  62  90 134 166 214 256 314 380
#     4  11  22  39  62  87 120 161 204 249 311 374
#     4   9  21  41  62  90 122 160 204 255 323 373
#     4  12  22  38  63  90 120 163 211 251 317 368
#     4  10  21  38  61  92 120 155 201 259 313 363
#
# _framework density 20.217673000000001
#
# number of rings (size 3 to 8) (size 9 to 14) (size 15 to 20)
#    0.000    1.429    3.571    3.000    4.000    0.571 
#    0.000    0.000    6.286    0.000    0.000    0.000 
#    0.000    0.000    0.000    0.000    0.000    0.000 
#
# Total GULP energy -312570.597997 kJ/mol
# GULP energy per Si atom -5581.617821 kJ/mol
# Density = 2.017166 g / cm^3
# Si number density = 20.217673 Si / 1000 Ang^3
#
#
#
# Elastic Constant Matrix: (Units=GPa)
#
#
# Indices 1 2 3 4 5 6 
#
# 1 51.7995 20.5184 6.6183 0.0000 0.0000 0.0000
# 2 20.5184 65.7240 19.7215 0.0000 0.0000 0.0000
# 3 6.6183 19.7215 57.5356 0.0000 0.0000 0.0000
# 4 0.0000 0.0000 0.0000 7.8507 0.0000 0.0000
# 5 0.0000 0.0000 0.0000 0.0000 10.0620 0.0000
# 6 0.0000 0.0000 0.0000 0.0000 0.0000 13.5674
#
#
#
# Elastic Compliance Matrix: (Units=1/GPa)
#
#
# Indices 1 2 3 4 5 6 
#
# 1 0.022031 -0.006819 -0.000197 0.000000 0.000000 0.000000
# 2 -0.006819 0.019070 -0.005752 0.000000 0.000000 0.000000
# 3 -0.000197 -0.005752 0.019375 0.000000 0.000000 0.000000
# 4 0.000000 0.000000 0.000000 0.127378 0.000000 0.000000
# 5 0.000000 0.000000 0.000000 0.000000 0.099384 0.000000
# 6 0.000000 0.000000 0.000000 0.000000 0.000000 0.073706
#
#
# Mechanical properties :
#
#
# Convention : Reuss Voigt Hill
#
# Bulk Modulus (GPa) = 28.62042 29.86396 29.24219
# Shear Modulus (GPa) = 12.55881 14.84273 13.70077
#
# Velocity S-wave (km/s) = 2.49505 2.71245 2.60602
# Velocity P-wave (km/s) = 4.74207 4.96116 4.85285
#
# Compressibility (1/GPa) = 0.03494009
#
# Stress axis : x y z
#
# Youngs Moduli (GPa) = 45.38972 52.43838 51.61311
#
# Poissons Ratio (x) = 0.35757 0.01017
# Poissons Ratio (y) = 0.30951 0.29689
# Poissons Ratio (z) = 0.00894 0.30164
#
# Static dielectric constant tensor:
#      x y z
#    x 1.742200 0.000000 0.000000 
#    y 0.000000 1.689680 0.000000 
#    z 0.000000 0.000000 1.698240 
# 
# From -- ./inp_files/29420.got.cif
#   From: 2010.05.17/outbox.cif.g08.bks.cpg/sg62_15_cif.got.tgz:29420.got - 2010.06.03 15:25:27.
