data_PCOD9465196
_publ_section_title
;
Structure prediction by ZEFSAII (Michael W. Deem and Ramdas Pophale) SiO2 
 PCOD9465196
Probable space group: P N M A
;
_chemical_formula_sum "Si O2"
_cell_formula_units_Z 64
_cell_length_a 15.198167
_cell_length_b 18.558258
_cell_length_c 11.491296
_cell_angle_alpha 90.000000
_cell_angle_beta 90.000000
_cell_angle_gamma 90.000000
_cell_volume 3241.137323
_symmetry_space_group_name_H-M "P N M A"
_symmetry_group_IT_number 62
_symmetry_cell_setting 'orthorhombic'
loop_
_space_group_symop_operation_xyz
x,y,z
1/2-x,-y,1/2+z
1/2+x,1/2-y,1/2-z
-x,1/2+y,-z
-x,-y,-z
1/2+x,y,1/2-z
1/2-x,1/2+y,1/2+z
x,1/2-y,z
loop_
_atom_site_type_symbol
_atom_site_label
_atom_site_fract_x
_atom_site_fract_y
_atom_site_fract_z
Si Si1 0.320698 0.534498 0.238031
Si Si2 0.873886 0.669227 0.391400
Si Si3 0.583606 0.831311 0.125781
Si Si4 0.623794 0.939763 0.315971
Si Si5 0.541146 0.409200 0.268166
Si Si6 0.622665 0.582350 0.590853
Si Si7 0.700857 0.163640 0.146879
Si Si8 0.070890 0.554926 0.556658
O O1 0.347818 0.616001 0.211535
O O2 0.216363 0.533604 0.235331
O O3 0.361092 0.495829 0.350008
O O4 0.358459 0.490758 0.127645
O O5 0.841088 0.750000 0.369906
O O6 0.836666 0.645948 0.517236
O O7 0.979068 0.670398 0.397347
O O8 0.617913 0.750000 0.114030
O O9 0.598613 0.866262 0.251296
O O10 0.615585 0.891505 0.034571
O O11 0.630240 0.925615 0.452979
O O12 0.558973 0.005490 0.285768
O O13 0.473794 0.388984 0.371432
O O14 0.633226 0.369501 0.241914
O O15 0.483145 0.399995 0.152025
O O16 0.701258 0.630490 0.645516
O O17 0.702726 0.250000 0.158817
O O18 0.000000 0.500000 0.500000
#
# Coordination Sequence:
#
# PCOD9465196 Si02
#       8
#     8   8   8   8   8   8   8   8
#     4  11  22  37  66  94 123 171 224 274 327 389
#     4  10  20  38  64  93 124 160 212 277 331 385
#     4  11  23  38  64  99 130 162 210 280 343 392
#     4  12  24  39  64  91 138 172 221 271 333 401
#     4  11  22  40  65  95 129 172 217 274 333 393
#     4  11  25  41  64  97 130 179 222 276 332 407
#     4  11  22  40  65  96 126 167 225 274 329 404
#     4  11  19  37  68  94 122 160 220 271 328 387
#
# _framework density 19.746155000000002
#
# number of rings (size 3 to 8) (size 9 to 14) (size 15 to 20)
#    0.000    1.000    6.250    1.125    1.750    1.500 
#    0.000    1.875    0.000    0.750    0.000    0.000 
#    0.000    0.000    0.000    0.000    0.000    0.000 
#
# Total GULP energy -357272.329678 kJ/mol
# GULP energy per Si atom -5582.380151 kJ/mol
# Density = 1.970121 g / cm^3
# Si number density = 19.746155 Si / 1000 Ang^3
#
#
#
# Elastic Constant Matrix: (Units=GPa)
#
#
# Indices 1 2 3 4 5 6 
#
# 1 59.3522 15.3497 13.0462 0.0000 0.0000 0.0000
# 2 15.3497 88.8299 28.1784 0.0000 0.0000 0.0000
# 3 13.0462 28.1784 70.6011 0.0000 0.0000 0.0000
# 4 0.0000 0.0000 0.0000 16.8700 0.0000 0.0000
# 5 0.0000 0.0000 0.0000 0.0000 21.7284 0.0000
# 6 0.0000 0.0000 0.0000 0.0000 0.0000 23.8634
#
#
#
# Elastic Compliance Matrix: (Units=1/GPa)
#
#
# Indices 1 2 3 4 5 6 
#
# 1 0.017981 -0.002351 -0.002384 0.000000 0.000000 0.000000
# 2 -0.002351 0.013197 -0.004833 0.000000 0.000000 0.000000
# 3 -0.002384 -0.004833 0.016534 0.000000 0.000000 0.000000
# 4 0.000000 0.000000 0.000000 0.059277 0.000000 0.000000
# 5 0.000000 0.000000 0.000000 0.000000 0.046023 0.000000
# 6 0.000000 0.000000 0.000000 0.000000 0.000000 0.041905
#
#
# Mechanical properties :
#
#
# Convention : Reuss Voigt Hill
#
# Bulk Modulus (GPa) = 34.99525 36.88131 35.93828
# Shear Modulus (GPa) = 22.36374 23.30629 22.83501
#
# Velocity S-wave (km/s) = 3.36901 3.43927 3.40432
# Velocity P-wave (km/s) = 5.73538 5.87279 5.80450
#
# Compressibility (1/GPa) = 0.02857531
#
# Stress axis : x y z
#
# Youngs Moduli (GPa) = 55.61547 75.77670 60.48319
#
# Poissons Ratio (x) = 0.17812 0.14422
# Poissons Ratio (y) = 0.13073 0.29230
# Poissons Ratio (z) = 0.13261 0.36621
#
# Static dielectric constant tensor:
#      x y z
#    x 1.724870 0.000000 0.000000 
#    y 0.000000 1.717390 0.000000 
#    z 0.000000 0.000000 1.713860 
# 
# From -- ./inp_files/13606.got.cif
#   From: 2010.05.17/outbox.cif.g08.bks.cpg/sg62_7_cif.got.tgz:13606.got - 2010.06.03 15:25:27.
