data_PCOD9465035
_publ_section_title
;
Structure prediction by ZEFSAII (Michael W. Deem and Ramdas Pophale) SiO2 
 PCOD9465035
Probable space group: P N M A
;
_chemical_formula_sum "Si O2"
_cell_formula_units_Z 40
_cell_length_a 11.555661
_cell_length_b 8.870655
_cell_length_c 20.197302
_cell_angle_alpha 90.000000
_cell_angle_beta 90.000000
_cell_angle_gamma 90.000000
_cell_volume 2070.350335
_symmetry_space_group_name_H-M "P N M A"
_symmetry_group_IT_number 62
_symmetry_cell_setting 'orthorhombic'
loop_
_space_group_symop_operation_xyz
x,y,z
1/2-x,-y,1/2+z
1/2+x,1/2-y,1/2-z
-x,1/2+y,-z
-x,-y,-z
1/2+x,y,1/2-z
1/2-x,1/2+y,1/2+z
x,1/2-y,z
loop_
_atom_site_type_symbol
_atom_site_label
_atom_site_fract_x
_atom_site_fract_y
_atom_site_fract_z
Si Si1 0.207952 0.926393 0.563477
Si Si2 0.199207 0.424922 0.696866
Si Si3 0.111988 0.928579 0.966061
Si Si4 0.010679 0.575239 0.390074
Si Si5 0.766582 0.567906 0.152157
O O1 0.221905 0.750000 0.551524
O O2 0.279370 0.020550 0.510735
O O3 0.249830 0.974782 0.637312
O O4 0.072906 0.974458 0.564563
O O5 0.236815 0.250000 0.689175
O O6 0.224313 0.475191 0.770901
O O7 0.061874 0.426999 0.679265
O O8 0.101620 0.750000 0.964117
O O9 0.863763 0.005678 0.106624
O O10 0.000000 0.000000 0.000000
O O11 0.010654 0.750000 0.412668
O O12 0.140778 0.525890 0.377208
O O13 0.775629 0.750000 0.148885
#
# Coordination Sequence:
#
# PCOD9465035 Si02
#       5
#     8   8   8   8   8
#     4  10  20  38  61  86 117 158 201 246 299 353
#     4   8  17  35  58  87 120 159 198 241 296 353
#     4  12  26  43  61  86 120 158 201 251 307 368
#     4   8  17  35  58  87 118 155 198 242 296 352
#     4  10  20  37  63  92 122 158 204 249 297 361
#
# _framework density 19.320402999999999
#
# number of rings (size 3 to 8) (size 9 to 14) (size 15 to 20)
#    1.200    1.200    0.000    3.000    0.000    4.000 
#    0.000    4.000    0.000    0.000    0.000    0.000 
#    0.000    0.000    0.000    0.000    0.000    0.000 
#
# Total GULP energy -222928.817522 kJ/mol
# GULP energy per Si atom -5573.220438 kJ/mol
# Density = 1.927643 g / cm^3
# Si number density = 19.320403 Si / 1000 Ang^3
#
#
#
# Elastic Constant Matrix: (Units=GPa)
#
#
# Indices 1 2 3 4 5 6 
#
# 1 40.3736 6.3876 8.2439 0.0000 0.0000 0.0000
# 2 6.3876 52.1299 16.5662 0.0000 0.0000 0.0000
# 3 8.2439 16.5662 82.1915 0.0000 0.0000 0.0000
# 4 0.0000 0.0000 0.0000 28.3398 0.0000 0.0000
# 5 0.0000 0.0000 0.0000 0.0000 23.9165 0.0000
# 6 0.0000 0.0000 0.0000 0.0000 0.0000 24.4396
#
#
#
# Elastic Compliance Matrix: (Units=1/GPa)
#
#
# Indices 1 2 3 4 5 6 
#
# 1 0.025583 -0.002478 -0.002067 0.000000 0.000000 0.000000
# 2 -0.002478 0.020736 -0.003931 0.000000 0.000000 0.000000
# 3 -0.002067 -0.003931 0.013166 0.000000 0.000000 0.000000
# 4 0.000000 0.000000 0.000000 0.035286 0.000000 0.000000
# 5 0.000000 0.000000 0.000000 0.000000 0.041812 0.000000
# 6 0.000000 0.000000 0.000000 0.000000 0.000000 0.040917
#
#
# Mechanical properties :
#
#
# Convention : Reuss Voigt Hill
#
# Bulk Modulus (GPa) = 23.51065 26.34336 24.92700
# Shear Modulus (GPa) = 23.96603 24.90567 24.43585
#
# Velocity S-wave (km/s) = 3.52583 3.59428 3.56022
# Velocity P-wave (km/s) = 5.36381 5.55785 5.46170
#
# Compressibility (1/GPa) = 0.04253391
#
# Stress axis : x y z
#
# Youngs Moduli (GPa) = 39.08897 48.22615 75.95167
#
# Poissons Ratio (x) = 0.11950 0.15695
# Poissons Ratio (y) = 0.09686 0.29855
# Poissons Ratio (z) = 0.08078 0.18957
#
# Static dielectric constant tensor:
#      x y z
#    x 1.679390 0.000000 0.000000 
#    y 0.000000 1.648400 0.000000 
#    z 0.000000 0.000000 1.698970 
# 
# From -- ./inp_files/26458.got.cif
#   From: 2010.05.17/outbox.cif.g08.bks.cpg/sg62_14_cif.got.tgz:26458.got - 2010.06.03 15:25:27.
