data_PCOD9465167
_publ_section_title
;
Structure prediction by ZEFSAII (Michael W. Deem and Ramdas Pophale) SiO2 
 PCOD9465167
Probable space group: P N M A
;
_chemical_formula_sum "Si O2"
_cell_formula_units_Z 64
_cell_length_a 22.757918
_cell_length_b 7.911770
_cell_length_c 14.796697
_cell_angle_alpha 90.000000
_cell_angle_beta 90.000000
_cell_angle_gamma 90.000000
_cell_volume 2664.225388
_symmetry_space_group_name_H-M "P N M A"
_symmetry_group_IT_number 62
_symmetry_cell_setting 'orthorhombic'
loop_
_space_group_symop_operation_xyz
x,y,z
1/2-x,-y,1/2+z
1/2+x,1/2-y,1/2-z
-x,1/2+y,-z
-x,-y,-z
1/2+x,y,1/2-z
1/2-x,1/2+y,1/2+z
x,1/2-y,z
loop_
_atom_site_type_symbol
_atom_site_label
_atom_site_fract_x
_atom_site_fract_y
_atom_site_fract_z
Si Si1 0.997568 0.436620 0.673606
Si Si2 0.038164 0.055289 0.139023
Si Si3 0.786675 0.954478 0.081251
Si Si4 0.315738 0.945640 0.793612
Si Si5 0.378198 0.444365 0.143326
Si Si6 0.582255 0.045358 0.549818
Si Si7 0.753095 0.542625 0.876887
Si Si8 0.096982 0.055509 0.444041
O O1 0.991320 0.250000 0.636391
O O2 0.963490 0.456788 0.767746
O O3 0.066340 0.469143 0.690621
O O4 0.967856 0.553468 0.598570
O O5 0.051017 0.250000 0.160324
O O6 0.972751 0.039816 0.097607
O O7 0.079591 0.000162 0.056705
O O8 0.780733 0.750000 0.089111
O O9 0.855027 0.997711 0.090619
O O10 0.745964 0.042227 0.154156
O O11 0.766037 0.003056 0.980152
O O12 0.333444 0.750000 0.781930
O O13 0.302074 0.016565 0.694583
O O14 0.362024 0.019931 0.864544
O O15 0.377580 0.250000 0.171807
O O16 0.312249 0.514620 0.152342
O O17 0.393520 0.458515 0.036727
O O18 0.574351 0.250000 0.554316
O O19 0.752900 0.750000 0.874098
O O20 0.114282 0.250000 0.461970
#
# Coordination Sequence:
#
# PCOD9465167 Si02
#       8
#     8   8   8   8   8   8   8   8
#     4  12  26  41  61  88 120 153 201 253 303 359
#     4  10  21  39  61  87 120 159 203 247 299 357
#     4  10  20  38  63  90 121 159 200 246 302 358
#     4  10  22  39  62  91 123 160 203 248 296 358
#     4  11  22  41  65  88 119 157 200 244 302 362
#     4   9  20  37  61  88 121 160 199 246 300 356
#     4   9  20  38  62  89 121 160 199 241 296 360
#     4  11  23  41  64  89 120 156 200 249 304 359
#
# _framework density 24.021991
#
# number of rings (size 3 to 8) (size 9 to 14) (size 15 to 20)
#    0.000    1.750    1.250    2.625    3.500    1.500 
#    0.000    1.250    0.000    0.000    0.000    0.000 
#    0.000    0.000    0.000    0.000    0.000    0.000 
#
# Total GULP energy -358008.770431 kJ/mol
# GULP energy per Si atom -5593.887038 kJ/mol
# Density = 2.396732 g / cm^3
# Si number density = 24.021991 Si / 1000 Ang^3
#
#
#
# Elastic Constant Matrix: (Units=GPa)
#
#
# Indices 1 2 3 4 5 6 
#
# 1 71.5763 -0.3146 -1.6112 0.0000 0.0000 0.0000
# 2 -0.3146 37.7565 -2.4732 0.0000 0.0000 0.0000
# 3 -1.6112 -2.4732 75.5533 0.0000 0.0000 0.0000
# 4 0.0000 0.0000 0.0000 20.3607 0.0000 0.0000
# 5 0.0000 0.0000 0.0000 0.0000 -7.1048 0.0000
# 6 0.0000 0.0000 0.0000 0.0000 0.0000 16.3947
#
#
#
# Elastic Compliance Matrix: (Units=1/GPa)
#
#
# Indices 1 2 3 4 5 6 
#
# 1 0.013979 0.000136 0.000303 0.000000 0.000000 0.000000
# 2 0.000136 0.026544 0.000872 0.000000 0.000000 0.000000
# 3 0.000303 0.000872 0.013271 0.000000 0.000000 0.000000
# 4 0.000000 0.000000 0.000000 0.049114 0.000000 0.000000
# 5 0.000000 0.000000 0.000000 0.000000 -0.140750 0.000000
# 6 0.000000 0.000000 0.000000 0.000000 0.000000 0.060995
#
#
# Mechanical properties :
#
#
# Convention : Reuss Voigt Hill
#
# Bulk Modulus (GPa) = 17.72600 19.56533 18.64567
# Shear Modulus (GPa) = 127.10842 18.54912 72.82877
#
# Velocity S-wave (km/s) = 7.28205 2.78181 5.51211
# Velocity P-wave (km/s) = 8.83739 4.29889 6.94909
#
# Compressibility (1/GPa) = 0.05641430
#
# Stress axis : x y z
#
# Youngs Moduli (GPa) = 71.53833 37.67362 75.35409
#
# Poissons Ratio (x) = -0.00513 -0.02280
# Poissons Ratio (y) = -0.00975 -0.06570
# Poissons Ratio (z) = -0.02164 -0.03284
#
# Static dielectric constant tensor:
#      x y z
#    x 1.921910 0.000000 0.000000 
#    y 0.000000 1.850240 0.000000 
#    z 0.000000 0.000000 1.894930 
# 
# From -- ./inp_files/20837.got.cif
#   From: 2010.05.17/outbox.cif.g08.bks.cpg/sg62_11_cif.got.tgz:20837.got - 2010.06.03 15:25:27.
