data_PCOD9465308
_publ_section_title
;
Structure prediction by ZEFSAII (Michael W. Deem and Ramdas Pophale) SiO2 
 PCOD9465308
Probable space group: P N M A
;
_chemical_formula_sum "Si O2"
_cell_formula_units_Z 64
_cell_length_a 9.050906
_cell_length_b 23.333055
_cell_length_c 15.225379
_cell_angle_alpha 90.000000
_cell_angle_beta 90.000000
_cell_angle_gamma 90.000000
_cell_volume 3215.376041
_symmetry_space_group_name_H-M "P N M A"
_symmetry_group_IT_number 62
_symmetry_cell_setting 'orthorhombic'
loop_
_space_group_symop_operation_xyz
x,y,z
1/2-x,-y,1/2+z
1/2+x,1/2-y,1/2-z
-x,1/2+y,-z
-x,-y,-z
1/2+x,y,1/2-z
1/2-x,1/2+y,1/2+z
x,1/2-y,z
loop_
_atom_site_type_symbol
_atom_site_label
_atom_site_fract_x
_atom_site_fract_y
_atom_site_fract_z
Si Si1 0.763580 0.859958 0.184229
Si Si2 0.577792 0.684496 0.341876
Si Si3 0.710362 0.995799 0.431801
Si Si4 0.112960 0.019561 0.871464
Si Si5 0.230139 0.403199 0.319020
Si Si6 0.749330 0.632374 0.488178
Si Si7 0.114556 0.898757 0.645375
Si Si8 0.069009 0.681971 0.479014
O O1 0.672868 0.851323 0.272649
O O2 0.828577 0.923464 0.173894
O O3 0.907000 0.819852 0.182128
O O4 0.659005 0.843005 0.103178
O O5 0.626899 0.750000 0.339297
O O6 0.610210 0.657539 0.436761
O O7 0.658121 0.021429 0.525578
O O8 0.821806 0.040672 0.389078
O O9 0.564034 0.987707 0.372362
O O10 0.773748 0.933103 0.455394
O O11 0.192500 0.964906 0.829617
O O12 0.274648 0.369336 0.407441
O O13 0.287425 0.378618 0.227520
O O14 0.053671 0.407219 0.323359
O O15 0.895028 0.668610 0.466549
O O16 0.114671 0.853239 0.566083
O O17 0.092889 0.750000 0.486715
#
# Coordination Sequence:
#
# PCOD9465308 Si02
#       8
#     8   8   8   8   8   8   8   8
#     4  12  25  42  63  94 124 171 212 263 316 381
#     4  12  25  42  62  88 126 169 218 261 310 371
#     4  10  20  39  64  97 128 163 202 259 319 387
#     4  10  21  38  63  98 130 163 202 255 321 387
#     4  10  24  38  65  95 132 164 206 263 318 384
#     4  10  23  42  66  94 124 165 214 261 325 367
#     4  11  23  41  65  95 131 168 212 260 323 382
#     4  11  24  44  67  91 126 169 216 268 319 375
#
# _framework density 19.904358999999999
#
# number of rings (size 3 to 8) (size 9 to 14) (size 15 to 20)
#    0.000    1.250    2.500    3.000    3.500    3.500 
#    0.000    3.125    0.000    0.000    0.000    0.000 
#    0.000    0.000    0.000    0.000    0.000    0.000 
#
# Total GULP energy -357936.102125 kJ/mol
# GULP energy per Si atom -5592.751596 kJ/mol
# Density = 1.985906 g / cm^3
# Si number density = 19.904359 Si / 1000 Ang^3
#
#
#
# Elastic Constant Matrix: (Units=GPa)
#
#
# Indices 1 2 3 4 5 6 
#
# 1 33.6435 -10.6466 11.9497 0.0000 0.0000 0.0000
# 2 -10.6466 44.6742 -12.3483 0.0000 0.0000 0.0000
# 3 11.9497 -12.3483 56.5900 0.0000 0.0000 0.0000
# 4 0.0000 0.0000 0.0000 10.1100 0.0000 0.0000
# 5 0.0000 0.0000 0.0000 0.0000 35.7175 0.0000
# 6 0.0000 0.0000 0.0000 0.0000 0.0000 31.5141
#
#
#
# Elastic Compliance Matrix: (Units=1/GPa)
#
#
# Indices 1 2 3 4 5 6 
#
# 1 0.033806 0.006474 -0.005726 0.000000 0.000000 0.000000
# 2 0.006474 0.025061 0.004101 0.000000 0.000000 0.000000
# 3 -0.005726 0.004101 0.019775 0.000000 0.000000 0.000000
# 4 0.000000 0.000000 0.000000 0.098912 0.000000 0.000000
# 5 0.000000 0.000000 0.000000 0.000000 0.027998 0.000000
# 6 0.000000 0.000000 0.000000 0.000000 0.000000 0.031732
#
#
# Mechanical properties :
#
#
# Convention : Reuss Voigt Hill
#
# Bulk Modulus (GPa) = 11.31987 12.53525 11.92756
# Shear Modulus (GPa) = 19.45291 25.19851 22.32571
#
# Velocity S-wave (km/s) = 3.12960 3.56192 3.35274
# Velocity P-wave (km/s) = 4.33113 4.81952 4.58184
#
# Compressibility (1/GPa) = 0.08834021
#
# Stress axis : x y z
#
# Youngs Moduli (GPa) = 29.58069 39.90301 50.56885
#
# Poissons Ratio (x) = -0.25832 0.28955
# Poissons Ratio (y) = -0.19150 -0.20740
# Poissons Ratio (z) = 0.16938 -0.16366
#
# Static dielectric constant tensor:
#      x y z
#    x 1.683450 0.000000 0.000000 
#    y 0.000000 1.681550 0.000000 
#    z 0.000000 0.000000 1.707210 
# 
# From -- ./inp_files/17366.got.cif
#   From: 2010.05.17/outbox.cif.g08.bks.cpg/sg62_9_cif.got.tgz:17366.got - 2010.06.03 15:25:27.
