data_PCOD9465294
_publ_section_title
;
Structure prediction by ZEFSAII (Michael W. Deem and Ramdas Pophale) SiO2 
 PCOD9465294
Probable space group: P N M A
;
_chemical_formula_sum "Si O2"
_cell_formula_units_Z 40
_cell_length_a 8.039940
_cell_length_b 7.991715
_cell_length_c 29.061425
_cell_angle_alpha 90.000000
_cell_angle_beta 90.000000
_cell_angle_gamma 90.000000
_cell_volume 1867.281099
_symmetry_space_group_name_H-M "P N M A"
_symmetry_group_IT_number 62
_symmetry_cell_setting 'orthorhombic'
loop_
_space_group_symop_operation_xyz
x,y,z
1/2-x,-y,1/2+z
1/2+x,1/2-y,1/2-z
-x,1/2+y,-z
-x,-y,-z
1/2+x,y,1/2-z
1/2-x,1/2+y,1/2+z
x,1/2-y,z
loop_
_atom_site_type_symbol
_atom_site_label
_atom_site_fract_x
_atom_site_fract_y
_atom_site_fract_z
Si Si1 0.216023 0.556868 0.805256
Si Si2 0.255402 0.048373 0.113046
Si Si3 0.381731 0.953867 0.900474
Si Si4 0.948926 0.048116 0.051167
Si Si5 0.648118 0.940718 0.288457
O O1 0.168181 0.750000 0.814071
O O2 0.324751 0.501443 0.848696
O O3 0.313430 0.543539 0.757439
O O4 0.045712 0.456919 0.800443
O O5 0.253484 0.250000 0.110368
O O6 0.429942 0.987410 0.091811
O O7 0.091772 0.986800 0.086328
O O8 0.245780 0.001409 0.166582
O O9 0.386157 0.750000 0.902767
O O10 0.234345 0.012290 0.933971
O O11 0.945818 0.250000 0.054393
O O12 0.000000 0.000000 0.000000
O O13 0.693098 0.750000 0.278554
#
# Coordination Sequence:
#
# PCOD9465294 Si02
#       5
#     8   8   8   8   8
#     4  11  21  38  61  85 118 167 213 246 297 375
#     4  10  20  39  64  86 116 162 209 249 299 375
#     4   9  19  37  62  88 114 152 207 255 290 357
#     4  10  21  39  61  89 120 156 205 257 309 367
#     4  12  24  37  56  90 129 159 199 261 316 359
#
# _framework density 21.421519
#
# number of rings (size 3 to 8) (size 9 to 14) (size 15 to 20)
#    0.000    1.600    2.000    3.600    0.000    3.200 
#    0.000    2.000    0.000    0.000    0.000    0.000 
#    0.000    0.000    0.000    0.000    0.000    0.000 
#
# Total GULP energy -223570.084134 kJ/mol
# GULP energy per Si atom -5589.252103 kJ/mol
# Density = 2.137276 g / cm^3
# Si number density = 21.421519 Si / 1000 Ang^3
#
#
#
# Elastic Constant Matrix: (Units=GPa)
#
#
# Indices 1 2 3 4 5 6 
#
# 1 68.4534 8.6440 -32.9683 0.0000 0.0000 0.0000
# 2 8.6440 23.9851 -0.6543 0.0000 0.0000 0.0000
# 3 -32.9683 -0.6543 37.8619 0.0000 0.0000 0.0000
# 4 0.0000 0.0000 0.0000 18.9221 0.0000 0.0000
# 5 0.0000 0.0000 0.0000 0.0000 24.3456 0.0000
# 6 0.0000 0.0000 0.0000 0.0000 0.0000 5.7116
#
#
#
# Elastic Compliance Matrix: (Units=1/GPa)
#
#
# Indices 1 2 3 4 5 6 
#
# 1 0.027007 -0.009096 0.023360 0.000000 0.000000 0.000000
# 2 -0.009096 0.044776 -0.007147 0.000000 0.000000 0.000000
# 3 0.023360 -0.007147 0.046629 0.000000 0.000000 0.000000
# 4 0.000000 0.000000 0.000000 0.052848 0.000000 0.000000
# 5 0.000000 0.000000 0.000000 0.000000 0.041075 0.000000
# 6 0.000000 0.000000 0.000000 0.000000 0.000000 0.175081
#
#
# Mechanical properties :
#
#
# Convention : Reuss Voigt Hill
#
# Bulk Modulus (GPa) = 7.53889 8.92703 8.23296
# Shear Modulus (GPa) = 11.97897 20.14779 16.06338
#
# Velocity S-wave (km/s) = 2.36731 3.07015 2.74135
# Velocity P-wave (km/s) = 3.31650 4.09196 3.72447
#
# Compressibility (1/GPa) = 0.13264559
#
# Stress axis : x y z
#
# Youngs Moduli (GPa) = 37.02688 22.33350 21.44610
#
# Poissons Ratio (x) = 0.20315 -0.50097
# Poissons Ratio (y) = 0.33680 0.15327
# Poissons Ratio (z) = -0.86493 0.15961
#
# Static dielectric constant tensor:
#      x y z
#    x 1.791720 0.000000 0.000000 
#    y 0.000000 1.756170 0.000000 
#    z 0.000000 0.000000 1.741450 
# 
# From -- ./inp_files/30661.got.cif
#   From: 2010.05.17/outbox.cif.g08.bks.cpg/sg62_16_cif.got.tgz:30661.got - 2010.06.03 15:25:27.
