data_PCOD9465832
_publ_section_title
;
Structure prediction by ZEFSAII (Michael W. Deem and Ramdas Pophale) SiO2 
 PCOD9465832
Probable space group: P N M A
;
_chemical_formula_sum "Si O2"
_cell_formula_units_Z 64
_cell_length_a 9.951057
_cell_length_b 13.769711
_cell_length_c 25.230930
_cell_angle_alpha 90.000000
_cell_angle_beta 90.000000
_cell_angle_gamma 90.000000
_cell_volume 3457.222239
_symmetry_space_group_name_H-M "P N M A"
_symmetry_group_IT_number 62
_symmetry_cell_setting 'orthorhombic'
loop_
_space_group_symop_operation_xyz
x,y,z
1/2-x,-y,1/2+z
1/2+x,1/2-y,1/2-z
-x,1/2+y,-z
-x,-y,-z
1/2+x,y,1/2-z
1/2-x,1/2+y,1/2+z
x,1/2-y,z
loop_
_atom_site_type_symbol
_atom_site_label
_atom_site_fract_x
_atom_site_fract_y
_atom_site_fract_z
Si Si1 0.867197 0.134037 0.280782
Si Si2 0.799379 0.138381 0.685807
Si Si3 0.998565 0.860918 0.220921
Si Si4 0.421348 0.939273 0.694495
Si Si5 0.721350 0.000785 0.084975
Si Si6 0.518477 0.636952 0.585472
Si Si7 0.766545 0.635494 0.984880
Si Si8 0.531294 0.636043 0.900033
O O1 0.851003 0.250000 0.273762
O O2 0.722015 0.084179 0.280125
O O3 0.930053 0.117104 0.338894
O O4 0.963545 0.093205 0.235455
O O5 0.804278 0.250000 0.666181
O O6 0.662623 0.130497 0.720464
O O7 0.929089 0.122651 0.722716
O O8 0.788264 0.063601 0.638075
O O9 0.031013 0.750000 0.204586
O O10 0.057445 0.946153 0.184429
O O11 0.439477 0.880215 0.640508
O O12 0.852810 0.068326 0.086324
O O13 0.590937 0.068670 0.082789
O O14 0.731855 0.930151 0.034786
O O15 0.557090 0.750000 0.581885
O O16 0.414246 0.614408 0.538476
O O17 0.761545 0.750000 0.998521
O O18 0.659143 0.619342 0.937834
O O19 0.494889 0.750000 0.904105
#
# Coordination Sequence:
#
# PCOD9465832 Si02
#       8
#     8   8   8   8   8   8   8   8
#     4  11  23  37  58  89 126 160 200 242 289 356
#     4  10  21  38  59  86 118 154 197 243 290 348
#     4  10  21  38  57  81 117 157 195 242 295 346
#     4  12  22  38  60  88 121 164 201 241 295 354
#     4  12  22  38  61  93 113 153 203 250 289 356
#     4  11  23  40  60  88 124 158 193 242 302 361
#     4  10  22  43  65  83 114 158 199 247 300 351
#     4  10  22  40  60  87 122 158 194 244 301 351
#
# _framework density 18.511972
#
# number of rings (size 3 to 8) (size 9 to 14) (size 15 to 20)
#    0.000    1.250    2.500    4.125    1.750    0.000 
#    0.000    0.000    0.000    1.500    0.000    0.000 
#    0.000    0.000    0.000    0.000    0.000    0.000 
#
# Total GULP energy -357679.635578 kJ/mol
# GULP energy per Si atom -5588.744306 kJ/mol
# Density = 1.846984 g / cm^3
# Si number density = 18.511972 Si / 1000 Ang^3
#
#
#
# Elastic Constant Matrix: (Units=GPa)
#
#
# Indices 1 2 3 4 5 6 
#
# 1 75.4963 38.1635 26.0966 0.0000 0.0000 0.0000
# 2 38.1635 78.8007 24.4391 0.0000 0.0000 0.0000
# 3 26.0966 24.4391 52.6537 0.0000 0.0000 0.0000
# 4 0.0000 0.0000 0.0000 31.4934 0.0000 0.0000
# 5 0.0000 0.0000 0.0000 0.0000 21.5172 0.0000
# 6 0.0000 0.0000 0.0000 0.0000 0.0000 31.5229
#
#
#
# Elastic Compliance Matrix: (Units=1/GPa)
#
#
# Indices 1 2 3 4 5 6 
#
# 1 0.019047 -0.007356 -0.006026 0.000000 0.000000 0.000000
# 2 -0.007356 0.017665 -0.004553 0.000000 0.000000 0.000000
# 3 -0.006026 -0.004553 0.024092 0.000000 0.000000 0.000000
# 4 0.000000 0.000000 0.000000 0.031753 0.000000 0.000000
# 5 0.000000 0.000000 0.000000 0.000000 0.046475 0.000000
# 6 0.000000 0.000000 0.000000 0.000000 0.000000 0.031723
#
#
# Mechanical properties :
#
#
# Convention : Reuss Voigt Hill
#
# Bulk Modulus (GPa) = 40.10643 42.70545 41.40594
# Shear Modulus (GPa) = 23.26276 24.79011 24.02644
#
# Velocity S-wave (km/s) = 3.54875 3.66340 3.60653
# Velocity P-wave (km/s) = 6.20513 6.40415 6.30543
#
# Compressibility (1/GPa) = 0.02493366
#
# Stress axis : x y z
#
# Youngs Moduli (GPa) = 52.50169 56.60978 41.50719
#
# Poissons Ratio (x) = 0.41640 0.25013
# Poissons Ratio (y) = 0.38618 0.18900
# Poissons Ratio (z) = 0.31638 0.25777
#
# Static dielectric constant tensor:
#      x y z
#    x 1.617980 0.000000 0.000000 
#    y 0.000000 1.649480 0.000000 
#    z 0.000000 0.000000 1.606610 
# 
# From -- ./inp_files/28989.got.cif
#   From: 2010.05.17/outbox.cif.g08.bks.cpg/sg62_15_cif.got.tgz:28989.got - 2010.06.03 15:25:27.
