data_PCOD9465585
_publ_section_title
;
Structure prediction by ZEFSAII (Michael W. Deem and Ramdas Pophale) SiO2 
 PCOD9465585
Probable space group: P N M A
;
_chemical_formula_sum "Si O2"
_cell_formula_units_Z 64
_cell_length_a 26.284334
_cell_length_b 8.891842
_cell_length_c 14.973263
_cell_angle_alpha 90.000000
_cell_angle_beta 90.000000
_cell_angle_gamma 90.000000
_cell_volume 3499.493306
_symmetry_space_group_name_H-M "P N M A"
_symmetry_group_IT_number 62
_symmetry_cell_setting 'orthorhombic'
loop_
_space_group_symop_operation_xyz
x,y,z
1/2-x,-y,1/2+z
1/2+x,1/2-y,1/2-z
-x,1/2+y,-z
-x,-y,-z
1/2+x,y,1/2-z
1/2-x,1/2+y,1/2+z
x,1/2-y,z
loop_
_atom_site_type_symbol
_atom_site_label
_atom_site_fract_x
_atom_site_fract_y
_atom_site_fract_z
Si Si1 0.613205 0.429705 0.651678
Si Si2 0.054283 0.927410 0.516527
Si Si3 0.137400 0.928023 0.362168
Si Si4 0.002237 0.570719 0.099127
Si Si5 0.632264 0.069197 0.851908
Si Si6 0.896173 0.929498 0.823538
Si Si7 0.168342 0.929611 0.017086
Si Si8 0.786910 0.569289 0.501270
O O1 0.621616 0.250000 0.639324
O O2 0.552510 0.454267 0.644949
O O3 0.634023 0.475328 0.748659
O O4 0.640356 0.518720 0.572842
O O5 0.049106 0.750000 0.530287
O O6 0.090762 0.951875 0.431073
O O7 0.083206 0.000312 0.600018
O O8 0.000000 0.000000 0.500000
O O9 0.142838 0.750000 0.346156
O O10 0.124683 0.011482 0.270725
O O11 0.186565 0.991036 0.414174
O O12 0.010479 0.750000 0.091730
O O13 0.048461 0.498120 0.153722
O O14 0.000000 0.500000 0.000000
O O15 0.628019 0.250000 0.854139
O O16 0.680550 0.026474 0.913088
O O17 0.899182 0.750000 0.824412
O O18 0.858797 0.987448 0.901162
O O19 0.163616 0.750000 0.028967
O O20 0.227939 0.968309 0.010172
O O21 0.791270 0.750000 0.511940
#
# Coordination Sequence:
#
# PCOD9465585 Si02
#       8
#     8   8   8   8   8   8   8   8
#     4  10  22  38  59  87 117 155 199 244 297 356
#     4  10  21  36  56  84 116 151 193 237 287 344
#     4  10  22  40  61  86 118 156 198 245 296 351
#     4  11  22  38  59  85 120 156 197 246 301 358
#     4   9  19  38  60  83 115 151 191 239 291 346
#     4  12  25  40  60  88 121 159 202 245 298 358
#     4  11  23  39  61  88 119 156 200 248 298 355
#     4   9  20  40  63  88 119 154 194 244 299 350
#
# _framework density 18.288361999999999
#
# number of rings (size 3 to 8) (size 9 to 14) (size 15 to 20)
#    0.000    1.750    1.250    2.625    1.750    4.500 
#    0.000    1.250    0.000    0.000    0.000    0.000 
#    0.000    0.000    0.000    0.000    0.000    0.000 
#
# Total GULP energy -357601.508567 kJ/mol
# GULP energy per Si atom -5587.523571 kJ/mol
# Density = 1.824674 g / cm^3
# Si number density = 18.288362 Si / 1000 Ang^3
#
#
#
# Elastic Constant Matrix: (Units=GPa)
#
#
# Indices 1 2 3 4 5 6 
#
# 1 111.2640 58.6527 33.8623 0.0000 0.0000 0.0000
# 2 58.6527 75.0015 59.8716 0.0000 0.0000 0.0000
# 3 33.8623 59.8716 117.6902 0.0000 0.0000 0.0000
# 4 0.0000 0.0000 0.0000 28.1780 0.0000 0.0000
# 5 0.0000 0.0000 0.0000 0.0000 -6.4662 0.0000
# 6 0.0000 0.0000 0.0000 0.0000 0.0000 30.0941
#
#
#
# Elastic Compliance Matrix: (Units=1/GPa)
#
#
# Indices 1 2 3 4 5 6 
#
# 1 0.015875 -0.014764 0.002943 0.000000 0.000000 0.000000
# 2 -0.014764 0.036180 -0.014158 0.000000 0.000000 0.000000
# 3 0.002943 -0.014158 0.014853 0.000000 0.000000 0.000000
# 4 0.000000 0.000000 0.000000 0.035489 0.000000 0.000000
# 5 0.000000 0.000000 0.000000 0.000000 -0.154650 0.000000
# 6 0.000000 0.000000 0.000000 0.000000 0.000000 0.033229
#
#
# Mechanical properties :
#
#
# Convention : Reuss Voigt Hill
#
# Bulk Modulus (GPa) = 66.88701 67.63656 67.26178
# Shear Modulus (GPa) = 131.87137 20.46579 76.16858
#
# Velocity S-wave (km/s) = 8.50078 3.34887 6.46058
# Velocity P-wave (km/s) = 11.53273 7.21227 9.61823
#
# Compressibility (1/GPa) = 0.01495059
#
# Stress axis : x y z
#
# Youngs Moduli (GPa) = 62.99391 27.63931 67.32864
#
# Poissons Ratio (x) = 0.40806 -0.19815
# Poissons Ratio (y) = 0.93002 0.95323
# Poissons Ratio (z) = -0.18540 0.39131
#
# Static dielectric constant tensor:
#      x y z
#    x 1.607740 0.000000 0.000000 
#    y 0.000000 1.611580 0.000000 
#    z 0.000000 0.000000 1.683110 
# 
# From -- ./inp_files/20816.got.cif
#   From: 2010.05.17/outbox.cif.g08.bks.cpg/sg62_11_cif.got.tgz:20816.got - 2010.06.03 15:25:27.
