data_PCOD9465385
_publ_section_title
;
Structure prediction by ZEFSAII (Michael W. Deem and Ramdas Pophale) SiO2 
 PCOD9465385
Probable space group: P N M A
;
_chemical_formula_sum "Si O2"
_cell_formula_units_Z 60
_cell_length_a 24.556439
_cell_length_b 25.211553
_cell_length_c 5.017646
_cell_angle_alpha 90.000000
_cell_angle_beta 90.000000
_cell_angle_gamma 90.000000
_cell_volume 3106.454561
_symmetry_space_group_name_H-M "P N M A"
_symmetry_group_IT_number 62
_symmetry_cell_setting 'orthorhombic'
loop_
_space_group_symop_operation_xyz
x,y,z
1/2-x,-y,1/2+z
1/2+x,1/2-y,1/2-z
-x,1/2+y,-z
-x,-y,-z
1/2+x,y,1/2-z
1/2-x,1/2+y,1/2+z
x,1/2-y,z
loop_
_atom_site_type_symbol
_atom_site_label
_atom_site_fract_x
_atom_site_fract_y
_atom_site_fract_z
Si Si1 0.169456 0.750000 0.792682
Si Si2 0.389530 0.144150 0.080921
Si Si3 0.713657 0.013446 0.551621
Si Si4 0.684712 0.137161 0.575143
Si Si5 0.750211 0.159995 0.065908
Si Si6 0.573800 0.187281 0.389631
Si Si7 0.002781 0.312833 0.608715
Si Si8 0.344053 0.413954 0.571225
O O1 0.137336 0.798171 0.633401
O O2 0.204738 0.704849 0.957397
O O3 0.357872 0.109841 0.858870
O O4 0.450150 0.154468 0.975852
O O5 0.384825 0.111647 0.356128
O O6 0.694775 0.074210 0.574422
O O7 0.761118 0.006303 0.331074
O O8 0.663311 0.976662 0.456809
O O9 0.726953 0.161423 0.362101
O O10 0.624979 0.153224 0.480977
O O11 0.700839 0.161683 0.859323
O O12 0.783836 0.106955 0.006938
O O13 0.588098 0.250000 0.407573
O O14 0.552206 0.176055 0.094312
O O15 0.523744 0.178244 0.592927
O O16 0.990024 0.250000 0.581669
#
# Coordination Sequence:
#
# PCOD9465385 Si02
#       8
#     4   8   8   8   8   8   8   8
#     4  10  24  36  56  90 128 160 186 240 302 388
#     4  11  22  38  62  88 123 155 196 244 319 356
#     4  12  22  40  62  84 120 163 211 254 289 353
#     4  12  23  40  60  87 119 168 201 249 296 347
#     4  11  23  36  56  87 127 161 193 233 299 365
#     4  10  23  38  62  85 117 153 206 241 298 356
#     4  10  20  41  61  87 113 156 200 252 292 364
#     4  11  22  37  58  90 120 158 200 246 298 366
#
# _framework density 19.314620999999999
#
# number of rings (size 3 to 8) (size 9 to 14) (size 15 to 20)
#    0.000    1.067    3.333    4.000    1.867    4.267 
#    0.000    0.000    0.000    4.800    0.000    0.000 
#    0.000    0.000    0.000    0.000    0.000    0.000 
#
# Total GULP energy -334155.471993 kJ/mol
# GULP energy per Si atom -5569.257867 kJ/mol
# Density = 1.927066 g / cm^3
# Si number density = 19.314621 Si / 1000 Ang^3
#
#
#
# Elastic Constant Matrix: (Units=GPa)
#
#
# Indices 1 2 3 4 5 6 
#
# 1 45.1450 9.5093 -14.2732 0.0000 0.0000 0.0000
# 2 9.5093 63.4374 18.6953 0.0000 0.0000 0.0000
# 3 -14.2732 18.6953 50.2919 0.0000 0.0000 0.0000
# 4 0.0000 0.0000 0.0000 14.2507 0.0000 0.0000
# 5 0.0000 0.0000 0.0000 0.0000 18.5276 0.0000
# 6 0.0000 0.0000 0.0000 0.0000 0.0000 22.5821
#
#
#
# Elastic Compliance Matrix: (Units=1/GPa)
#
#
# Indices 1 2 3 4 5 6 
#
# 1 0.026876 -0.007049 0.010248 0.000000 0.000000 0.000000
# 2 -0.007049 0.019552 -0.009269 0.000000 0.000000 0.000000
# 3 0.010248 -0.009269 0.026238 0.000000 0.000000 0.000000
# 4 0.000000 0.000000 0.000000 0.070172 0.000000 0.000000
# 5 0.000000 0.000000 0.000000 0.000000 0.053974 0.000000
# 6 0.000000 0.000000 0.000000 0.000000 0.000000 0.044283
#
#
# Mechanical properties :
#
#
# Convention : Reuss Voigt Hill
#
# Bulk Modulus (GPa) = 16.52185 20.74858 18.63522
# Shear Modulus (GPa) = 18.28771 20.73494 19.51133
#
# Velocity S-wave (km/s) = 3.08040 3.28004 3.18179
# Velocity P-wave (km/s) = 4.60700 5.01105 4.81327
#
# Compressibility (1/GPa) = 0.06052590
#
# Stress axis : x y z
#
# Youngs Moduli (GPa) = 37.20854 51.14657 38.11306
#
# Poissons Ratio (x) = 0.36052 -0.39057
# Poissons Ratio (y) = 0.26227 0.35325
# Poissons Ratio (z) = -0.38130 0.47405
#
# Static dielectric constant tensor:
#      x y z
#    x 1.672520 0.000000 0.000000 
#    y 0.000000 1.666030 0.000000 
#    z 0.000000 0.000000 1.703560 
# 
# From -- ./inp_files/2339.got.cif
#   From: 2010.05.17/outbox.cif.g08.bks.cpg/sg62_2_cif.got.tgz:2339.got - 2010.06.03 15:25:27.
