data_PCOD9465103
_publ_section_title
;
Structure prediction by ZEFSAII (Michael W. Deem and Ramdas Pophale) SiO2 
 PCOD9465103
Probable space group: P N M A
;
_chemical_formula_sum "Si O2"
_cell_formula_units_Z 40
_cell_length_a 8.169543
_cell_length_b 8.210043
_cell_length_c 24.228310
_cell_angle_alpha 90.000000
_cell_angle_beta 90.000000
_cell_angle_gamma 90.000000
_cell_volume 1625.048460
_symmetry_space_group_name_H-M "P N M A"
_symmetry_group_IT_number 62
_symmetry_cell_setting 'orthorhombic'
loop_
_space_group_symop_operation_xyz
x,y,z
1/2-x,-y,1/2+z
1/2+x,1/2-y,1/2-z
-x,1/2+y,-z
-x,-y,-z
1/2+x,y,1/2-z
1/2-x,1/2+y,1/2+z
x,1/2-y,z
loop_
_atom_site_type_symbol
_atom_site_label
_atom_site_fract_x
_atom_site_fract_y
_atom_site_fract_z
Si Si1 0.167311 0.941355 0.027418
Si Si2 0.863131 0.063980 0.570767
Si Si3 0.349847 0.056394 0.336261
Si Si4 0.172795 0.938159 0.631690
Si Si5 0.979465 0.946026 0.733773
O O1 0.180086 0.750000 0.020507
O O2 0.309518 0.023120 0.990791
O O3 0.193365 0.985421 0.091338
O O4 0.000000 0.000000 0.000000
O O5 0.920135 0.250000 0.575061
O O6 0.702555 0.037397 0.609044
O O7 0.003102 0.951125 0.596605
O O8 0.363415 0.250000 0.349294
O O9 0.497326 0.999510 0.296779
O O10 0.194561 0.031987 0.294990
O O11 0.217608 0.750000 0.640184
O O12 0.114775 0.010753 0.690265
O O13 0.004673 0.750000 0.736271
#
# Coordination Sequence:
#
# PCOD9465103 Si02
#       5
#     8   8   8   8   8
#     4  12  25  41  59  84 114 146 183 232 285 337
#     4  11  22  38  58  83 113 151 192 233 278 331
#     4   9  17  33  54  79 108 144 186 229 273 328
#     4  10  20  38  61  86 113 149 191 232 276 333
#     4   8  16  30  53  80 108 142 184 226 273 329
#
# _framework density 24.614650999999999
#
# number of rings (size 3 to 8) (size 9 to 14) (size 15 to 20)
#    0.000    2.000    0.000    6.000    0.000    1.600 
#    0.000    9.000    0.000    0.000    0.000    0.000 
#    0.000    0.000    0.000    0.000    0.000    0.000 
#
# Total GULP energy -223745.670302 kJ/mol
# GULP energy per Si atom -5593.641758 kJ/mol
# Density = 2.455863 g / cm^3
# Si number density = 24.614651 Si / 1000 Ang^3
#
#
#
# Elastic Constant Matrix: (Units=GPa)
#
#
# Indices 1 2 3 4 5 6 
#
# 1 67.7398 -7.6869 1.2730 0.0000 0.0000 0.0000
# 2 -7.6869 50.5386 -1.1350 0.0000 0.0000 0.0000
# 3 1.2730 -1.1350 133.6275 0.0000 0.0000 0.0000
# 4 0.0000 0.0000 0.0000 26.2611 0.0000 0.0000
# 5 0.0000 0.0000 0.0000 0.0000 50.2222 0.0000
# 6 0.0000 0.0000 0.0000 0.0000 0.0000 15.4661
#
#
#
# Elastic Compliance Matrix: (Units=1/GPa)
#
#
# Indices 1 2 3 4 5 6 
#
# 1 0.015024 0.002282 -0.000124 0.000000 0.000000 0.000000
# 2 0.002282 0.020137 0.000149 0.000000 0.000000 0.000000
# 3 -0.000124 0.000149 0.007486 0.000000 0.000000 0.000000
# 4 0.000000 0.000000 0.000000 0.038079 0.000000 0.000000
# 5 0.000000 0.000000 0.000000 0.000000 0.019912 0.000000
# 6 0.000000 0.000000 0.000000 0.000000 0.000000 0.064658
#
#
# Mechanical properties :
#
#
# Convention : Reuss Voigt Hill
#
# Bulk Modulus (GPa) = 21.15832 26.31201 23.73516
# Shear Modulus (GPa) = 28.33926 35.68688 32.01307
#
# Velocity S-wave (km/s) = 3.39679 3.81178 3.61025
# Velocity P-wave (km/s) = 4.89885 5.48504 5.20021
#
# Compressibility (1/GPa) = 0.04726274
#
# Stress axis : x y z
#
# Youngs Moduli (GPa) = 66.56157 49.65901 133.58385
#
# Poissons Ratio (x) = -0.11334 0.01653
# Poissons Ratio (y) = -0.15192 -0.01994
# Poissons Ratio (z) = 0.00824 -0.00741
#
# Static dielectric constant tensor:
#      x y z
#    x 2.066390 0.000000 0.000000 
#    y 0.000000 1.905230 0.000000 
#    z 0.000000 0.000000 1.959980 
# 
# From -- ./inp_files/30674.got.cif
#   From: 2010.05.17/outbox.cif.g08.bks.cpg/sg62_16_cif.got.tgz:30674.got - 2010.06.03 15:25:27.
