data_PCOD9465231
_publ_section_title
;
Structure prediction by ZEFSAII (Michael W. Deem and Ramdas Pophale) SiO2 
 PCOD9465231
Probable space group: P N M A
;
_chemical_formula_sum "Si O2"
_cell_formula_units_Z 44
_cell_length_a 15.539401
_cell_length_b 15.395376
_cell_length_c 7.111349
_cell_angle_alpha 90.000000
_cell_angle_beta 90.000000
_cell_angle_gamma 90.000000
_cell_volume 1701.283018
_symmetry_space_group_name_H-M "P N M A"
_symmetry_group_IT_number 62
_symmetry_cell_setting 'orthorhombic'
loop_
_space_group_symop_operation_xyz
x,y,z
1/2-x,-y,1/2+z
1/2+x,1/2-y,1/2-z
-x,1/2+y,-z
-x,-y,-z
1/2+x,y,1/2-z
1/2-x,1/2+y,1/2+z
x,1/2-y,z
loop_
_atom_site_type_symbol
_atom_site_label
_atom_site_fract_x
_atom_site_fract_y
_atom_site_fract_z
Si Si1 0.948281 0.152055 0.918949
Si Si2 0.393772 0.900568 0.161782
Si Si3 0.804457 0.390625 0.438168
Si Si4 0.501326 0.851566 0.853217
Si Si5 0.775896 0.750000 0.220586
Si Si6 0.190503 0.957156 0.930918
O O1 0.911364 0.250000 0.902650
O O2 0.988415 0.140134 0.128174
O O3 0.870186 0.084263 0.910595
O O4 0.024692 0.141053 0.773583
O O5 0.432228 0.912986 0.953372
O O6 0.320551 0.828011 0.155350
O O7 0.368086 0.979529 0.299513
O O8 0.905793 0.372728 0.442741
O O9 0.757752 0.324096 0.571021
O O10 0.767804 0.485169 0.495068
O O11 0.781843 0.383335 0.216606
O O12 0.481299 0.750000 0.887801
#
# Coordination Sequence:
#
# PCOD9465231 Si02
#       6
#     8   8   8   8   4   8
#     4  10  21  39  63  90 121 165 212 266 318 379
#     4  11  21  41  64  96 123 164 218 273 314 382
#     4  10  22  41  62  91 130 174 210 268 323 391
#     4  10  20  38  67  91 121 166 216 259 322 380
#     4  10  20  40  66  88 130 168 212 264 328 382
#     4  10  24  40  61  93 129 164 216 261 327 384
#
# _framework density 25.862832999999998
#
# number of rings (size 3 to 8) (size 9 to 14) (size 15 to 20)
#    0.000    1.818    2.727    0.545    3.818    2.909 
#    6.545    0.000    0.000    0.000    0.000    0.000 
#    0.000    0.000    0.000    0.000    0.000    0.000 
#
# Total GULP energy -245426.666318 kJ/mol
# GULP energy per Si atom -5577.878780 kJ/mol
# Density = 2.580397 g / cm^3
# Si number density = 25.862833 Si / 1000 Ang^3
#
#
#
# Elastic Constant Matrix: (Units=GPa)
#
#
# Indices 1 2 3 4 5 6 
#
# 1 49.1018 5.8691 27.6692 0.0000 0.0000 0.0000
# 2 5.8691 85.2051 2.1639 0.0000 0.0000 0.0000
# 3 27.6692 2.1639 63.4514 0.0000 0.0000 0.0000
# 4 0.0000 0.0000 0.0000 28.8072 0.0000 0.0000
# 5 0.0000 0.0000 0.0000 0.0000 37.2415 0.0000
# 6 0.0000 0.0000 0.0000 0.0000 0.0000 28.1580
#
#
#
# Elastic Compliance Matrix: (Units=1/GPa)
#
#
# Indices 1 2 3 4 5 6 
#
# 1 0.027210 -0.001574 -0.011812 0.000000 0.000000 0.000000
# 2 -0.001574 0.011838 0.000283 0.000000 0.000000 0.000000
# 3 -0.011812 0.000283 0.020901 0.000000 0.000000 0.000000
# 4 0.000000 0.000000 0.000000 0.034713 0.000000 0.000000
# 5 0.000000 0.000000 0.000000 0.000000 0.026852 0.000000
# 6 0.000000 0.000000 0.000000 0.000000 0.000000 0.035514
#
#
# Mechanical properties :
#
#
# Convention : Reuss Voigt Hill
#
# Bulk Modulus (GPa) = 29.63635 29.90696 29.77166
# Shear Modulus (GPa) = 25.70933 29.64510 27.67722
#
# Velocity S-wave (km/s) = 3.15630 3.38929 3.27487
# Velocity P-wave (km/s) = 4.97664 5.18702 5.08292
#
# Compressibility (1/GPa) = 0.03374234
#
# Stress axis : x y z
#
# Youngs Moduli (GPa) = 36.75116 84.47628 47.84413
#
# Poissons Ratio (x) = 0.13299 0.56512
# Poissons Ratio (y) = 0.05786 -0.01353
# Poissons Ratio (z) = 0.43410 -0.02389
#
# Static dielectric constant tensor:
#      x y z
#    x 2.067760 0.000000 0.000000 
#    y 0.000000 2.045420 0.000000 
#    z 0.000000 0.000000 2.047050 
# 
# From -- ./inp_files/7567.got.cif
#   From: 2010.05.17/outbox.cif.g08.bks.cpg/sg62_4_cif.got.tgz:7567.got - 2010.06.03 15:25:27.
