data_PCOD9465724
_publ_section_title
;
Structure prediction by ZEFSAII (Michael W. Deem and Ramdas Pophale) SiO2 
 PCOD9465724
Probable space group: P N M A
;
_chemical_formula_sum "Si O2"
_cell_formula_units_Z 56
_cell_length_a 20.199843
_cell_length_b 9.063181
_cell_length_c 16.229112
_cell_angle_alpha 90.000000
_cell_angle_beta 90.000000
_cell_angle_gamma 90.000000
_cell_volume 2971.141974
_symmetry_space_group_name_H-M "P N M A"
_symmetry_group_IT_number 62
_symmetry_cell_setting 'orthorhombic'
loop_
_space_group_symop_operation_xyz
x,y,z
1/2-x,-y,1/2+z
1/2+x,1/2-y,1/2-z
-x,1/2+y,-z
-x,-y,-z
1/2+x,y,1/2-z
1/2-x,1/2+y,1/2+z
x,1/2-y,z
loop_
_atom_site_type_symbol
_atom_site_label
_atom_site_fract_x
_atom_site_fract_y
_atom_site_fract_z
Si Si1 0.819527 0.924431 0.501882
Si Si2 0.337124 0.925481 0.330539
Si Si3 0.183582 0.573788 0.321688
Si Si4 0.317533 0.926812 0.520774
Si Si5 0.038843 0.925683 0.747635
Si Si6 0.960878 0.924635 0.425531
Si Si7 0.598325 0.073147 0.321610
O O1 0.810742 0.750000 0.515300
O O2 0.882834 0.945584 0.443869
O O3 0.832261 0.002183 0.589793
O O4 0.752439 0.993256 0.465882
O O5 0.348161 0.750000 0.320416
O O6 0.261408 0.957109 0.304825
O O7 0.340762 0.961675 0.427979
O O8 0.392036 0.012597 0.280634
O O9 0.175611 0.750000 0.327218
O O10 0.138749 0.506651 0.250472
O O11 0.306560 0.750000 0.523254
O O12 0.370249 0.967105 0.590530
O O13 0.042191 0.750000 0.737135
O O14 0.979072 0.960799 0.810462
O O15 0.021906 0.000595 0.660717
O O16 0.974681 0.750000 0.423419
O O17 0.000000 0.000000 0.500000
O O18 0.605934 0.250000 0.311416
#
# Coordination Sequence:
#
# PCOD9465724 Si02
#       7
#     8   8   8   8   8   8   8
#     4  10  21  37  58  85 115 147 190 243 291 343
#     4   9  20  39  59  83 117 152 192 242 294 347
#     4  10  21  37  60  87 117 153 193 239 293 351
#     4   9  20  39  61  85 114 151 192 241 295 345
#     4  11  24  39  58  86 119 157 198 240 292 351
#     4  11  24  40  59  85 120 156 194 243 293 351
#     4  10  22  39  58  85 119 152 194 244 292 345
#
# _framework density 18.847971999999999
#
# number of rings (size 3 to 8) (size 9 to 14) (size 15 to 20)
#    0.000    2.000    0.000    3.429    2.000   10.857 
#    0.000    0.000    0.000    0.000    0.000    0.000 
#    0.000    0.000    0.000    0.000    0.000    0.000 
#
# Total GULP energy -312903.809083 kJ/mol
# GULP energy per Si atom -5587.568019 kJ/mol
# Density = 1.880507 g / cm^3
# Si number density = 18.847972 Si / 1000 Ang^3
#
#
#
# Elastic Constant Matrix: (Units=GPa)
#
#
# Indices 1 2 3 4 5 6 
#
# 1 48.4265 30.7883 16.5823 0.0000 0.0000 0.0000
# 2 30.7883 38.8172 17.2096 0.0000 0.0000 0.0000
# 3 16.5823 17.2096 25.9581 0.0000 0.0000 0.0000
# 4 0.0000 0.0000 0.0000 29.6836 0.0000 0.0000
# 5 0.0000 0.0000 0.0000 0.0000 29.4051 0.0000
# 6 0.0000 0.0000 0.0000 0.0000 0.0000 34.1677
#
#
#
# Elastic Compliance Matrix: (Units=1/GPa)
#
#
# Indices 1 2 3 4 5 6 
#
# 1 0.042486 -0.030685 -0.006797 0.000000 0.000000 0.000000
# 2 -0.030685 0.058648 -0.019280 0.000000 0.000000 0.000000
# 3 -0.006797 -0.019280 0.055648 0.000000 0.000000 0.000000
# 4 0.000000 0.000000 0.000000 0.033689 0.000000 0.000000
# 5 0.000000 0.000000 0.000000 0.000000 0.034008 0.000000
# 6 0.000000 0.000000 0.000000 0.000000 0.000000 0.029267
#
#
# Mechanical properties :
#
#
# Convention : Reuss Voigt Hill
#
# Bulk Modulus (GPa) = 23.11752 26.92915 25.02333
# Shear Modulus (GPa) = 13.09967 21.89271 17.49619
#
# Velocity S-wave (km/s) = 2.63918 3.41184 3.05007
# Velocity P-wave (km/s) = 4.64531 5.46255 5.07042
#
# Compressibility (1/GPa) = 0.04325723
#
# Stress axis : x y z
#
# Youngs Moduli (GPa) = 23.53718 17.05099 17.97008
#
# Poissons Ratio (x) = 0.52320 0.12215
# Poissons Ratio (y) = 0.72223 0.34647
# Poissons Ratio (z) = 0.15999 0.32875
#
# Static dielectric constant tensor:
#      x y z
#    x 1.643700 0.000000 0.000000 
#    y 0.000000 1.629290 0.000000 
#    z 0.000000 0.000000 1.631650 
# 
# From -- ./inp_files/20410.got.cif
#   From: 2010.05.17/outbox.cif.g08.bks.cpg/sg62_11_cif.got.tgz:20410.got - 2010.06.03 15:25:27.
