data_PCOD9465539
_publ_section_title
;
Structure prediction by ZEFSAII (Michael W. Deem and Ramdas Pophale) SiO2 
 PCOD9465539
Probable space group: P N M A
;
_chemical_formula_sum "Si O2"
_cell_formula_units_Z 48
_cell_length_a 17.161487
_cell_length_b 17.938668
_cell_length_c 8.341872
_cell_angle_alpha 90.000000
_cell_angle_beta 90.000000
_cell_angle_gamma 90.000000
_cell_volume 2568.080479
_symmetry_space_group_name_H-M "P N M A"
_symmetry_group_IT_number 62
_symmetry_cell_setting 'orthorhombic'
loop_
_space_group_symop_operation_xyz
x,y,z
1/2-x,-y,1/2+z
1/2+x,1/2-y,1/2-z
-x,1/2+y,-z
-x,-y,-z
1/2+x,y,1/2-z
1/2-x,1/2+y,1/2+z
x,1/2-y,z
loop_
_atom_site_type_symbol
_atom_site_label
_atom_site_fract_x
_atom_site_fract_y
_atom_site_fract_z
Si Si1 0.604436 0.662246 0.358043
Si Si2 0.545387 0.426759 0.555570
Si Si3 0.302050 0.422106 0.908395
Si Si4 0.239665 0.163544 0.465477
Si Si5 0.329023 0.964300 0.181879
Si Si6 0.821865 0.836539 0.894008
O O1 0.604767 0.750000 0.322353
O O2 0.519781 0.634444 0.406541
O O3 0.634914 0.614837 0.206884
O O4 0.669035 0.648545 0.497681
O O5 0.500000 0.500000 0.500000
O O6 0.596264 0.449427 0.709921
O O7 0.606505 0.392045 0.428819
O O8 0.245055 0.474359 0.801064
O O9 0.335308 0.468669 0.056521
O O10 0.244866 0.358932 0.979201
O O11 0.225859 0.250000 0.509271
O O12 0.191715 0.109109 0.579716
O O13 0.213770 0.154135 0.282709
O O14 0.844703 0.750000 0.914340
#
# Coordination Sequence:
#
# PCOD9465539 Si02
#       6
#     8   8   8   8   8   8
#     4  10  22  41  61  87 123 159 198 247 301 357
#     4  11  26  39  58  88 125 162 194 243 307 358
#     4  10  21  35  65  90 117 154 206 245 293 346
#     4   9  20  38  65  90 115 155 205 249 293 350
#     4  10  22  37  61  88 121 155 198 251 289 356
#     4  10  21  40  64  88 117 157 201 245 294 358
#
# _framework density 18.691002999999998
#
# number of rings (size 3 to 8) (size 9 to 14) (size 15 to 20)
#    0.000    2.000    0.000    2.000   14.000    5.333 
#    0.000    0.000    0.000    0.000    0.000    0.000 
#    0.000    0.000    0.000    0.000    0.000    0.000 
#
# Total GULP energy -268089.026906 kJ/mol
# GULP energy per Si atom -5585.188061 kJ/mol
# Density = 1.864846 g / cm^3
# Si number density = 18.691003 Si / 1000 Ang^3
#
#
#
# Elastic Constant Matrix: (Units=GPa)
#
#
# Indices 1 2 3 4 5 6 
#
# 1 87.7494 36.8559 42.3208 0.0000 0.0000 0.0000
# 2 36.8559 84.2909 38.6298 0.0000 0.0000 0.0000
# 3 42.3208 38.6298 91.5901 0.0000 0.0000 0.0000
# 4 0.0000 0.0000 0.0000 33.9147 0.0000 0.0000
# 5 0.0000 0.0000 0.0000 0.0000 22.5801 0.0000
# 6 0.0000 0.0000 0.0000 0.0000 0.0000 22.2355
#
#
#
# Elastic Compliance Matrix: (Units=1/GPa)
#
#
# Indices 1 2 3 4 5 6 
#
# 1 0.015903 -0.004445 -0.005473 0.000000 0.000000 0.000000
# 2 -0.004445 0.015949 -0.004673 0.000000 0.000000 0.000000
# 3 -0.005473 -0.004673 0.015418 0.000000 0.000000 0.000000
# 4 0.000000 0.000000 0.000000 0.029486 0.000000 0.000000
# 5 0.000000 0.000000 0.000000 0.000000 0.044287 0.000000
# 6 0.000000 0.000000 0.000000 0.000000 0.000000 0.044973
#
#
# Mechanical properties :
#
#
# Convention : Reuss Voigt Hill
#
# Bulk Modulus (GPa) = 55.28751 55.47150 55.37950
# Shear Modulus (GPa) = 24.84759 25.46767 25.15763
#
# Velocity S-wave (km/s) = 3.65003 3.69530 3.67273
# Velocity P-wave (km/s) = 6.88532 6.92456 6.90497
#
# Compressibility (1/GPa) = 0.01808727
#
# Stress axis : x y z
#
# Youngs Moduli (GPa) = 62.88180 62.70088 64.85879
#
# Poissons Ratio (x) = 0.27871 0.35500
# Poissons Ratio (y) = 0.27951 0.30307
# Poissons Ratio (z) = 0.34418 0.29299
#
# Static dielectric constant tensor:
#      x y z
#    x 1.613440 0.000000 0.000000 
#    y 0.000000 1.663370 0.000000 
#    z 0.000000 0.000000 1.639080 
# 
# From -- ./inp_files/6428.got.cif
#   From: 2010.05.17/outbox.cif.g08.bks.cpg/sg62_4_cif.got.tgz:6428.got - 2010.06.03 15:25:27.
