data_PCOD9465956
_publ_section_title
;
Structure prediction by ZEFSAII (Michael W. Deem and Ramdas Pophale) SiO2 
 PCOD9465956
Probable space group: P N M A
;
_chemical_formula_sum "Si O2"
_cell_formula_units_Z 48
_cell_length_a 19.140593
_cell_length_b 8.409630
_cell_length_c 15.319600
_cell_angle_alpha 90.000000
_cell_angle_beta 90.000000
_cell_angle_gamma 90.000000
_cell_volume 2465.924088
_symmetry_space_group_name_H-M "P N M A"
_symmetry_group_IT_number 62
_symmetry_cell_setting 'orthorhombic'
loop_
_space_group_symop_operation_xyz
x,y,z
1/2-x,-y,1/2+z
1/2+x,1/2-y,1/2-z
-x,1/2+y,-z
-x,-y,-z
1/2+x,y,1/2-z
1/2-x,1/2+y,1/2+z
x,1/2-y,z
loop_
_atom_site_type_symbol
_atom_site_label
_atom_site_fract_x
_atom_site_fract_y
_atom_site_fract_z
Si Si1 0.216768 0.055891 0.501159
Si Si2 0.826387 0.442020 0.146356
Si Si3 0.563262 0.059532 0.059694
Si Si4 0.585574 0.559315 0.252908
Si Si5 0.982454 0.058991 0.096771
Si Si6 0.759244 0.441841 0.805738
O O1 0.216802 0.250000 0.501128
O O2 0.271055 0.003840 0.426942
O O3 0.138295 0.004026 0.478189
O O4 0.242361 0.003454 0.596332
O O5 0.825641 0.250000 0.146991
O O6 0.799691 0.502634 0.238975
O O7 0.904358 0.494016 0.122812
O O8 0.562979 0.250000 0.058709
O O9 0.559174 0.003307 0.159788
O O10 0.500000 0.000000 0.000000
O O11 0.586109 0.750000 0.250159
O O12 0.536878 0.504244 0.332090
O O13 0.664957 0.502739 0.271634
O O14 0.984043 0.250000 0.097318
O O15 0.000000 0.000000 0.000000
O O16 0.760832 0.250000 0.806886
#
# Coordination Sequence:
#
# PCOD9465956 Si02
#       6
#     8   8   8   8   8   8
#     4   9  19  38  62  85 117 157 195 244 307 361
#     4  10  21  40  62  88 121 157 198 251 307 364
#     4  11  23  40  62  88 123 165 209 256 311 369
#     4  11  23  41  64  91 128 167 206 253 308 371
#     4  11  24  41  64  93 126 164 206 255 310 369
#     4  10  21  38  62  90 118 157 203 251 305 364
#
# _framework density 19.465320999999999
#
# number of rings (size 3 to 8) (size 9 to 14) (size 15 to 20)
#    0.000    1.667    1.667    2.500    2.333    4.667 
#    0.000    1.667    0.000    0.000    0.000    0.000 
#    0.000    0.000    0.000    0.000    0.000    0.000 
#
# Total GULP energy -268292.654333 kJ/mol
# GULP energy per Si atom -5589.430299 kJ/mol
# Density = 1.942102 g / cm^3
# Si number density = 19.465321 Si / 1000 Ang^3
#
#
#
# Elastic Constant Matrix: (Units=GPa)
#
#
# Indices 1 2 3 4 5 6 
#
# 1 101.1559 17.1071 29.4514 0.0000 0.0000 0.0000
# 2 17.1071 27.5967 14.4311 0.0000 0.0000 0.0000
# 3 29.4514 14.4311 132.3895 0.0000 0.0000 0.0000
# 4 0.0000 0.0000 0.0000 33.3238 0.0000 0.0000
# 5 0.0000 0.0000 0.0000 0.0000 42.1810 0.0000
# 6 0.0000 0.0000 0.0000 0.0000 0.0000 23.5889
#
#
#
# Elastic Compliance Matrix: (Units=1/GPa)
#
#
# Indices 1 2 3 4 5 6 
#
# 1 0.011470 -0.006125 -0.001884 0.000000 0.000000 0.000000
# 2 -0.006125 0.041697 -0.003183 0.000000 0.000000 0.000000
# 3 -0.001884 -0.003183 0.008320 0.000000 0.000000 0.000000
# 4 0.000000 0.000000 0.000000 0.030009 0.000000 0.000000
# 5 0.000000 0.000000 0.000000 0.000000 0.023707 0.000000
# 6 0.000000 0.000000 0.000000 0.000000 0.000000 0.042393
#
#
# Mechanical properties :
#
#
# Convention : Reuss Voigt Hill
#
# Bulk Modulus (GPa) = 25.57308 42.56904 34.07106
# Shear Modulus (GPa) = 25.90490 33.16224 29.53357
#
# Velocity S-wave (km/s) = 3.65200 4.13202 3.89940
# Velocity P-wave (km/s) = 5.56319 6.68441 6.14941
#
# Compressibility (1/GPa) = 0.03910362
#
# Stress axis : x y z
#
# Youngs Moduli (GPa) = 87.18325 23.98230 120.19946
#
# Poissons Ratio (x) = 0.14689 0.22645
# Poissons Ratio (y) = 0.53400 0.38255
# Poissons Ratio (z) = 0.16425 0.07633
#
# Static dielectric constant tensor:
#      x y z
#    x 1.659690 0.000000 0.000000 
#    y 0.000000 1.678390 0.000000 
#    z 0.000000 0.000000 1.627790 
# 
# From -- ./inp_files/19569.got.cif
#   From: 2010.05.17/outbox.cif.g08.bks.cpg/sg62_10_cif.got.tgz:19569.got - 2010.06.03 15:25:27.
