data_PCOD9465318
_publ_section_title
;
Structure prediction by ZEFSAII (Michael W. Deem and Ramdas Pophale) SiO2 
 PCOD9465318
Probable space group: P N M A
;
_chemical_formula_sum "Si O2"
_cell_formula_units_Z 48
_cell_length_a 11.296379
_cell_length_b 10.366318
_cell_length_c 17.732862
_cell_angle_alpha 90.000000
_cell_angle_beta 90.000000
_cell_angle_gamma 90.000000
_cell_volume 2076.551069
_symmetry_space_group_name_H-M "P N M A"
_symmetry_group_IT_number 62
_symmetry_cell_setting 'orthorhombic'
loop_
_space_group_symop_operation_xyz
x,y,z
1/2-x,-y,1/2+z
1/2+x,1/2-y,1/2-z
-x,1/2+y,-z
-x,-y,-z
1/2+x,y,1/2-z
1/2-x,1/2+y,1/2+z
x,1/2-y,z
loop_
_atom_site_type_symbol
_atom_site_label
_atom_site_fract_x
_atom_site_fract_y
_atom_site_fract_z
Si Si1 0.208278 0.250000 0.518776
Si Si2 0.941677 0.250000 0.528351
Si Si3 0.999878 0.750000 0.293140
Si Si4 0.593631 0.525950 0.739590
Si Si5 0.860632 0.250000 0.848475
Si Si6 0.783642 0.026823 0.548542
Si Si7 0.157063 0.396059 0.300037
Si Si8 0.038887 0.047662 0.918870
O O1 0.236444 0.250000 0.608463
O O2 0.250924 0.389573 0.489002
O O3 0.071944 0.250000 0.496347
O O4 0.873915 0.380397 0.505570
O O5 0.962941 0.250000 0.619458
O O6 0.928598 0.622085 0.266175
O O7 0.119701 0.750000 0.240736
O O8 0.477836 0.597035 0.771647
O O9 0.731108 0.564313 0.753947
O O10 0.576293 0.546365 0.649342
O O11 0.936062 0.131228 0.881963
O O12 0.838352 0.989881 0.628744
O O13 0.666039 0.108993 0.563686
O O14 0.182998 0.250000 0.323206
O O15 0.000000 0.000000 0.000000
#
# Coordination Sequence:
#
# PCOD9465318 Si02
#       8
#     4   4   4   8   4   8   8   8
#     4  12  24  42  68  95 134 180 221 274 328 411
#     4  12  25  44  65  98 135 181 221 269 334 393
#     4  10  22  42  64 100 127 170 222 280 333 400
#     4  10  23  39  67  96 129 173 220 275 336 399
#     4  10  21  40  65  97 128 161 218 281 337 384
#     4  11  23  43  67  94 132 177 223 267 335 400
#     4  11  22  42  65  95 133 175 221 276 333 401
#     4  10  20  39  65  92 124 164 217 275 333 391
#
# _framework density 23.115252000000002
#
# number of rings (size 3 to 8) (size 9 to 14) (size 15 to 20)
#    0.000    1.333    4.167    1.500    0.000    5.333 
#    4.500    0.000    0.000    0.000    0.000    0.000 
#    0.000    0.000    0.000    0.000    0.000    0.000 
#
# Total GULP energy -267548.563932 kJ/mol
# GULP energy per Si atom -5573.928415 kJ/mol
# Density = 2.306264 g / cm^3
# Si number density = 23.115252 Si / 1000 Ang^3
#
#
#
# Elastic Constant Matrix: (Units=GPa)
#
#
# Indices 1 2 3 4 5 6 
#
# 1 101.9969 30.4612 -19.4590 0.0000 0.0000 0.0000
# 2 30.4612 122.5074 2.4401 0.0000 0.0000 0.0000
# 3 -19.4590 2.4401 55.5645 0.0000 0.0000 0.0000
# 4 0.0000 0.0000 0.0000 12.8219 0.0000 0.0000
# 5 0.0000 0.0000 0.0000 0.0000 32.3563 0.0000
# 6 0.0000 0.0000 0.0000 0.0000 0.0000 21.5074
#
#
#
# Elastic Compliance Matrix: (Units=1/GPa)
#
#
# Indices 1 2 3 4 5 6 
#
# 1 0.011472 -0.002935 0.004146 0.000000 0.000000 0.000000
# 2 -0.002935 0.008921 -0.001420 0.000000 0.000000 0.000000
# 3 0.004146 -0.001420 0.019512 0.000000 0.000000 0.000000
# 4 0.000000 0.000000 0.000000 0.077992 0.000000 0.000000
# 5 0.000000 0.000000 0.000000 0.000000 0.030906 0.000000
# 6 0.000000 0.000000 0.000000 0.000000 0.000000 0.046496
#
#
# Mechanical properties :
#
#
# Convention : Reuss Voigt Hill
#
# Bulk Modulus (GPa) = 25.32438 34.10593 29.71516
# Shear Modulus (GPa) = 23.93762 31.11223 27.52493
#
# Velocity S-wave (km/s) = 3.22153 3.67271 3.45450
# Velocity P-wave (km/s) = 4.98168 5.72467 5.36605
#
# Compressibility (1/GPa) = 0.03948764
#
# Stress axis : x y z
#
# Youngs Moduli (GPa) = 87.17017 112.09706 51.25177
#
# Poissons Ratio (x) = 0.32901 -0.21251
# Poissons Ratio (y) = 0.25585 0.07276
# Poissons Ratio (z) = -0.36144 0.15914
#
# Static dielectric constant tensor:
#      x y z
#    x 1.943270 0.000000 0.000000 
#    y 0.000000 2.063670 0.000000 
#    z 0.000000 0.000000 1.871520 
# 
# From -- ./inp_files/23077.got.cif
#   From: 2010.05.17/outbox.cif.g08.bks.cpg/sg62_12_cif.got.tgz:23077.got - 2010.06.03 15:25:27.
