data_PCOD9465269
_publ_section_title
;
Structure prediction by ZEFSAII (Michael W. Deem and Ramdas Pophale) SiO2 
 PCOD9465269
Probable space group: P N M A
;
_chemical_formula_sum "Si O2"
_cell_formula_units_Z 48
_cell_length_a 15.553672
_cell_length_b 8.553130
_cell_length_c 19.507354
_cell_angle_alpha 90.000000
_cell_angle_beta 90.000000
_cell_angle_gamma 90.000000
_cell_volume 2595.113604
_symmetry_space_group_name_H-M "P N M A"
_symmetry_group_IT_number 62
_symmetry_cell_setting 'orthorhombic'
loop_
_space_group_symop_operation_xyz
x,y,z
1/2-x,-y,1/2+z
1/2+x,1/2-y,1/2-z
-x,1/2+y,-z
-x,-y,-z
1/2+x,y,1/2-z
1/2-x,1/2+y,1/2+z
x,1/2-y,z
loop_
_atom_site_type_symbol
_atom_site_label
_atom_site_fract_x
_atom_site_fract_y
_atom_site_fract_z
Si Si1 0.973489 0.562132 0.574694
Si Si2 0.375265 0.439337 0.324895
Si Si3 0.123054 0.062620 0.671032
Si Si4 0.028547 0.437276 0.074251
Si Si5 0.722180 0.059766 0.076193
Si Si6 0.281747 0.060979 0.576074
O O1 0.974973 0.750000 0.573275
O O2 0.875593 0.510326 0.589370
O O3 0.000000 0.500000 0.500000
O O4 0.041060 0.502011 0.630172
O O5 0.374570 0.250000 0.321587
O O6 0.376240 0.505096 0.248733
O O7 0.458780 0.486803 0.368986
O O8 0.291001 0.490958 0.367295
O O9 0.120208 0.250000 0.668883
O O10 0.209194 0.012099 0.630329
O O11 0.027764 0.250000 0.071423
O O12 0.123975 0.495906 0.090624
O O13 0.000000 0.500000 0.000000
O O14 0.722943 0.250000 0.075938
O O15 0.752276 0.010947 0.000236
O O16 0.286048 0.250000 0.576004
#
# Coordination Sequence:
#
# PCOD9465269 Si02
#       6
#     8   8   8   8   8   8
#     4  11  21  37  63  92 121 158 201 247 297 357
#     4  10  22  41  61  84 119 159 197 242 302 363
#     4  11  24  41  60  87 124 159 196 249 307 356
#     4  11  22  37  62  92 120 157 202 247 297 358
#     4   9  18  37  62  85 116 155 195 242 295 349
#     4  10  20  39  62  86 119 157 197 246 299 351
#
# _framework density 18.496300999999999
#
# number of rings (size 3 to 8) (size 9 to 14) (size 15 to 20)
#    0.000    1.667    3.333    1.500    0.000    4.000 
#    0.000    6.667    0.000    0.000    0.000    0.000 
#    0.000    0.000    0.000    0.000    0.000    0.000 
#
# Total GULP energy -268167.060437 kJ/mol
# GULP energy per Si atom -5586.813759 kJ/mol
# Density = 1.845420 g / cm^3
# Si number density = 18.496301 Si / 1000 Ang^3
#
#
#
# Elastic Constant Matrix: (Units=GPa)
#
#
# Indices 1 2 3 4 5 6 
#
# 1 230.0041 42.8370 124.4495 0.0000 0.0000 0.0000
# 2 42.8370 29.4428 38.7627 0.0000 0.0000 0.0000
# 3 124.4495 38.7627 193.2986 0.0000 0.0000 0.0000
# 4 0.0000 0.0000 0.0000 33.2199 0.0000 0.0000
# 5 0.0000 0.0000 0.0000 0.0000 35.1738 0.0000
# 6 0.0000 0.0000 0.0000 0.0000 0.0000 29.4046
#
#
#
# Elastic Compliance Matrix: (Units=1/GPa)
#
#
# Indices 1 2 3 4 5 6 
#
# 1 0.007400 -0.006107 -0.003540 0.000000 0.000000 0.000000
# 2 -0.006107 0.051187 -0.006333 0.000000 0.000000 0.000000
# 3 -0.003540 -0.006333 0.008722 0.000000 0.000000 0.000000
# 4 0.000000 0.000000 0.000000 0.030102 0.000000 0.000000
# 5 0.000000 0.000000 0.000000 0.000000 0.028430 0.000000
# 6 0.000000 0.000000 0.000000 0.000000 0.000000 0.034008
#
#
# Mechanical properties :
#
#
# Convention : Reuss Voigt Hill
#
# Bulk Modulus (GPa) = 28.28837 96.09377 62.19107
# Shear Modulus (GPa) = 24.55879 36.00607 30.28243
#
# Velocity S-wave (km/s) = 3.64781 4.41689 4.05064
# Velocity P-wave (km/s) = 5.75059 8.83615 7.45476
#
# Compressibility (1/GPa) = 0.03535022
#
# Stress axis : x y z
#
# Youngs Moduli (GPa) = 135.12649 19.53640 114.64665
#
# Poissons Ratio (x) = 0.11930 0.40585
# Poissons Ratio (y) = 0.82516 0.72606
# Poissons Ratio (z) = 0.47835 0.12372
#
# Static dielectric constant tensor:
#      x y z
#    x 1.631050 0.000000 0.000000 
#    y 0.000000 1.638460 0.000000 
#    z 0.000000 0.000000 1.598100 
# 
# From -- ./inp_files/23669.got.cif
#   From: 2010.05.17/outbox.cif.g08.bks.cpg/sg62_12_cif.got.tgz:23669.got - 2010.06.03 15:25:27.
