data_PCOD9465478
_publ_section_title
;
Structure prediction by ZEFSAII (Michael W. Deem and Ramdas Pophale) SiO2 
 PCOD9465478
Probable space group: P N M A
;
_chemical_formula_sum "Si O2"
_cell_formula_units_Z 32
_cell_length_a 9.057730
_cell_length_b 16.601112
_cell_length_c 8.037011
_cell_angle_alpha 90.000000
_cell_angle_beta 90.000000
_cell_angle_gamma 90.000000
_cell_volume 1208.512406
_symmetry_space_group_name_H-M "P N M A"
_symmetry_group_IT_number 62
_symmetry_cell_setting 'orthorhombic'
loop_
_space_group_symop_operation_xyz
x,y,z
1/2-x,-y,1/2+z
1/2+x,1/2-y,1/2-z
-x,1/2+y,-z
-x,-y,-z
1/2+x,y,1/2-z
1/2-x,1/2+y,1/2+z
x,1/2-y,z
loop_
_atom_site_type_symbol
_atom_site_label
_atom_site_fract_x
_atom_site_fract_y
_atom_site_fract_z
Si Si1 0.661245 0.531984 0.205972
Si Si2 0.072829 0.920820 0.892117
Si Si3 0.882747 0.839952 0.140740
Si Si4 0.400688 0.339236 0.050405
O O1 0.768887 0.465622 0.118808
O O2 0.558507 0.483342 0.335822
O O3 0.788685 0.598057 0.252037
O O4 0.565292 0.585381 0.073339
O O5 0.967899 0.127056 0.939860
O O6 0.069687 0.859641 0.738561
O O7 0.895336 0.750000 0.205673
O O8 0.774835 0.835843 0.980446
O O9 0.457685 0.250000 0.008879
#
# Coordination Sequence:
#
# PCOD9465478 Si02
#       4
#     8   8   8   8
#     4  10  21  34  57  84 112 138 184 226 267 320
#     4  12  19  36  61  82 104 150 182 220 273 326
#     4   9  20  37  53  78 113 141 176 228 269 313
#     4   9  20  37  53  78 113 141 176 228 269 313
#
# _framework density 26.478833999999999
#
# number of rings (size 3 to 8) (size 9 to 14) (size 15 to 20)
#    1.500    0.500    2.500    2.250    0.000    0.000 
#    0.000    5.000    0.000    0.000    0.000    0.000 
#    0.000    0.000    0.000    0.000    0.000    0.000 
#
# Total GULP energy -178378.928794 kJ/mol
# GULP energy per Si atom -5574.341525 kJ/mol
# Density = 2.641857 g / cm^3
# Si number density = 26.478834 Si / 1000 Ang^3
#
#
#
# Elastic Constant Matrix: (Units=GPa)
#
#
# Indices 1 2 3 4 5 6 
#
# 1 110.2806 35.3846 44.5380 0.0000 0.0000 0.0000
# 2 35.3846 133.1353 28.9765 0.0000 0.0000 0.0000
# 3 44.5380 28.9765 83.0317 0.0000 0.0000 0.0000
# 4 0.0000 0.0000 0.0000 9.1197 0.0000 0.0000
# 5 0.0000 0.0000 0.0000 0.0000 60.7148 0.0000
# 6 0.0000 0.0000 0.0000 0.0000 0.0000 11.9938
#
#
#
# Elastic Compliance Matrix: (Units=1/GPa)
#
#
# Indices 1 2 3 4 5 6 
#
# 1 0.012021 -0.001939 -0.005771 0.000000 0.000000 0.000000
# 2 -0.001939 0.008441 -0.001906 0.000000 0.000000 0.000000
# 3 -0.005771 -0.001906 0.015804 0.000000 0.000000 0.000000
# 4 0.000000 0.000000 0.000000 0.109653 0.000000 0.000000
# 5 0.000000 0.000000 0.000000 0.000000 0.016470 0.000000
# 6 0.000000 0.000000 0.000000 0.000000 0.000000 0.083376
#
#
# Mechanical properties :
#
#
# Convention : Reuss Voigt Hill
#
# Bulk Modulus (GPa) = 58.70441 60.47175 59.58808
# Shear Modulus (GPa) = 18.47231 30.86890 24.67061
#
# Velocity S-wave (km/s) = 2.64413 3.41808 3.05570
# Velocity P-wave (km/s) = 5.61608 6.20202 5.91631
#
# Compressibility (1/GPa) = 0.01703449
#
# Stress axis : x y z
#
# Youngs Moduli (GPa) = 83.19036 118.46593 63.27348
#
# Poissons Ratio (x) = 0.22967 0.36517
# Poissons Ratio (y) = 0.16128 0.12059
# Poissons Ratio (z) = 0.48011 0.22578
#
# Static dielectric constant tensor:
#      x y z
#    x 2.079320 0.000000 0.000000 
#    y 0.000000 2.157950 0.000000 
#    z 0.000000 0.000000 2.123240 
# 
# From -- ./inp_files/10989.got.cif
#   From: 2010.05.17/outbox.cif.g08.bks.cpg/sg62_6_cif.got.tgz:10989.got - 2010.06.03 15:25:27.
