data_PCOD9465686
_publ_section_title
;
Structure prediction by ZEFSAII (Michael W. Deem and Ramdas Pophale) SiO2 
 PCOD9465686
Probable space group: P N M A
;
_chemical_formula_sum "Si O2"
_cell_formula_units_Z 48
_cell_length_a 24.378219
_cell_length_b 8.976129
_cell_length_c 9.562420
_cell_angle_alpha 90.000000
_cell_angle_beta 90.000000
_cell_angle_gamma 90.000000
_cell_volume 2092.468238
_symmetry_space_group_name_H-M "P N M A"
_symmetry_group_IT_number 62
_symmetry_cell_setting 'orthorhombic'
loop_
_space_group_symop_operation_xyz
x,y,z
1/2-x,-y,1/2+z
1/2+x,1/2-y,1/2-z
-x,1/2+y,-z
-x,-y,-z
1/2+x,y,1/2-z
1/2-x,1/2+y,1/2+z
x,1/2-y,z
loop_
_atom_site_type_symbol
_atom_site_label
_atom_site_fract_x
_atom_site_fract_y
_atom_site_fract_z
Si Si1 0.414145 0.921669 0.048488
Si Si2 0.141726 0.572481 0.797644
Si Si3 0.920745 0.576306 0.957045
Si Si4 0.530527 0.921111 0.209169
Si Si5 0.192058 0.077416 0.220351
Si Si6 0.752661 0.572083 0.057523
O O1 0.397354 0.750000 0.026912
O O2 0.470705 0.921758 0.138814
O O3 0.372073 0.011120 0.144502
O O4 0.430454 0.997490 0.903069
O O5 0.144746 0.750000 0.796956
O O6 0.196963 0.501700 0.858879
O O7 0.094984 0.515084 0.905330
O O8 0.931169 0.750000 0.990611
O O9 0.966163 0.505270 0.856611
O O10 0.865650 0.568820 0.860068
O O11 0.547653 0.750000 0.229283
O O12 0.201989 0.250000 0.255418
O O13 0.199456 0.983066 0.360046
O O14 0.236628 0.028910 0.103036
O O15 0.756984 0.750000 0.063247
#
# Coordination Sequence:
#
# PCOD9465686 Si02
#       6
#     8   8   8   8   8   8
#     4  10  21  38  58  81 112 147 183 226 275 326
#     4  11  22  37  58  82 110 144 185 231 275 325
#     4  10  21  38  58  81 113 148 183 226 275 327
#     4  10  21  37  58  84 112 144 184 227 272 325
#     4   9  20  37  55  79 109 142 181 222 267 322
#     4  10  21  37  57  81 110 143 180 224 274 327
#
# _framework density 22.939416999999999
#
# number of rings (size 3 to 8) (size 9 to 14) (size 15 to 20)
#    0.000    2.000    0.000    4.500    0.000    8.000 
#    0.000    3.333    0.000    0.000    0.000    0.000 
#    0.000    0.000    0.000    0.000    0.000    0.000 
#
# Total GULP energy -268672.435523 kJ/mol
# GULP energy per Si atom -5597.342407 kJ/mol
# Density = 2.288721 g / cm^3
# Si number density = 22.939417 Si / 1000 Ang^3
#
#
#
# Elastic Constant Matrix: (Units=GPa)
#
#
# Indices 1 2 3 4 5 6 
#
# 1 43.5814 1.1352 16.5011 0.0000 0.0000 0.0000
# 2 1.1352 75.8161 30.2374 0.0000 0.0000 0.0000
# 3 16.5011 30.2374 116.4490 0.0000 0.0000 0.0000
# 4 0.0000 0.0000 0.0000 34.8012 0.0000 0.0000
# 5 0.0000 0.0000 0.0000 0.0000 43.3469 0.0000
# 6 0.0000 0.0000 0.0000 0.0000 0.0000 -5.4682
#
#
#
# Elastic Compliance Matrix: (Units=1/GPa)
#
#
# Indices 1 2 3 4 5 6 
#
# 1 0.024333 0.001128 -0.003741 0.000000 0.000000 0.000000
# 2 0.001128 0.014766 -0.003994 0.000000 0.000000 0.000000
# 3 -0.003741 -0.003994 0.010155 0.000000 0.000000 0.000000
# 4 0.000000 0.000000 0.000000 0.028735 0.000000 0.000000
# 5 0.000000 0.000000 0.000000 0.000000 0.023070 0.000000
# 6 0.000000 0.000000 0.000000 0.000000 0.000000 -0.182875
#
#
# Mechanical properties :
#
#
# Convention : Reuss Voigt Hill
#
# Bulk Modulus (GPa) = 27.74790 36.84376 32.29583
# Shear Modulus (GPa) = -88.35333 27.06751 -30.64291
#
# Velocity S-wave (km/s) = -6.21285 3.43878 -3.65885
# Velocity P-wave (km/s) = 6.27245 5.64474 1.93398
#
# Compressibility (1/GPa) = 0.03603876
#
# Stress axis : x y z
#
# Youngs Moduli (GPa) = 41.09724 67.72412 98.47761
#
# Poissons Ratio (x) = -0.07637 0.36838
# Poissons Ratio (y) = -0.04634 0.39331
# Poissons Ratio (z) = 0.15374 0.27048
#
# Static dielectric constant tensor:
#      x y z
#    x 1.968720 0.000000 0.000000 
#    y 0.000000 1.772530 0.000000 
#    z 0.000000 0.000000 1.838720 
# 
# From -- ./inp_files/10178.got.cif
#   From: 2010.05.17/outbox.cif.g08.bks.cpg/sg62_6_cif.got.tgz:10178.got - 2010.06.03 15:25:27.
