data_PCOD9465351
_publ_section_title
;
Structure prediction by ZEFSAII (Michael W. Deem and Ramdas Pophale) SiO2 
 PCOD9465351
Probable space group: P N M A
;
_chemical_formula_sum "Si O2"
_cell_formula_units_Z 48
_cell_length_a 27.443792
_cell_length_b 7.896657
_cell_length_c 9.843725
_cell_angle_alpha 90.000000
_cell_angle_beta 90.000000
_cell_angle_gamma 90.000000
_cell_volume 2133.275109
_symmetry_space_group_name_H-M "P N M A"
_symmetry_group_IT_number 62
_symmetry_cell_setting 'orthorhombic'
loop_
_space_group_symop_operation_xyz
x,y,z
1/2-x,-y,1/2+z
1/2+x,1/2-y,1/2-z
-x,1/2+y,-z
-x,-y,-z
1/2+x,y,1/2-z
1/2-x,1/2+y,1/2+z
x,1/2-y,z
loop_
_atom_site_type_symbol
_atom_site_label
_atom_site_fract_x
_atom_site_fract_y
_atom_site_fract_z
Si Si1 0.037304 0.043111 0.704431
Si Si2 0.430653 0.050682 0.791274
Si Si3 0.693896 0.049670 0.551148
Si Si4 0.916194 0.544525 0.017568
Si Si5 0.271481 0.447156 0.157430
Si Si6 0.129576 0.446972 0.527775
O O1 0.036344 0.250000 0.700119
O O2 0.048692 0.992003 0.859565
O O3 0.082795 0.987993 0.612777
O O4 0.983714 0.983629 0.662023
O O5 0.427538 0.250000 0.820294
O O6 0.428547 0.023064 0.630500
O O7 0.386827 0.963894 0.872085
O O8 0.690181 0.250000 0.526806
O O9 0.638635 0.985814 0.553712
O O10 0.727397 0.977646 0.431042
O O11 0.718909 0.026655 0.696503
O O12 0.917332 0.750000 0.013049
O O13 0.261781 0.250000 0.182376
O O14 0.320853 0.463300 0.069319
O O15 0.136435 0.250000 0.563722
#
# Coordination Sequence:
#
# PCOD9465351 Si02
#       6
#     8   8   8   8   8   8
#     4   9  19  38  63  86 117 158 206 250 298 357
#     4  11  23  37  57  93 126 154 200 258 299 349
#     4  10  23  43  65  89 121 159 198 242 298 362
#     4  10  20  40  63  86 119 162 202 240 297 371
#     4  11  24  41  64  96 123 153 199 252 300 351
#     4  11  22  41  64  86 119 167 203 242 302 363
#
# _framework density 22.500613000000001
#
# number of rings (size 3 to 8) (size 9 to 14) (size 15 to 20)
#    0.000    1.667    1.667    2.500    2.333    2.000 
#    0.000    3.333    0.000    0.000    0.000    0.000 
#    0.000    0.000    0.000    0.000    0.000    0.000 
#
# Total GULP energy -268414.571286 kJ/mol
# GULP energy per Si atom -5591.970235 kJ/mol
# Density = 2.244940 g / cm^3
# Si number density = 22.500613 Si / 1000 Ang^3
#
#
#
# Elastic Constant Matrix: (Units=GPa)
#
#
# Indices 1 2 3 4 5 6 
#
# 1 48.5435 -4.7954 1.8701 0.0000 0.0000 0.0000
# 2 -4.7954 28.0004 -12.8093 0.0000 0.0000 0.0000
# 3 1.8701 -12.8093 60.3567 0.0000 0.0000 0.0000
# 4 0.0000 0.0000 0.0000 27.1444 0.0000 0.0000
# 5 0.0000 0.0000 0.0000 0.0000 43.8200 0.0000
# 6 0.0000 0.0000 0.0000 0.0000 0.0000 11.4218
#
#
#
# Elastic Compliance Matrix: (Units=1/GPa)
#
#
# Indices 1 2 3 4 5 6 
#
# 1 0.020955 0.003646 0.000124 0.000000 0.000000 0.000000
# 2 0.003646 0.040188 0.008416 0.000000 0.000000 0.000000
# 3 0.000124 0.008416 0.018350 0.000000 0.000000 0.000000
# 4 0.000000 0.000000 0.000000 0.036840 0.000000 0.000000
# 5 0.000000 0.000000 0.000000 0.000000 0.022821 0.000000
# 6 0.000000 0.000000 0.000000 0.000000 0.000000 0.087552
#
#
# Mechanical properties :
#
#
# Convention : Reuss Voigt Hill
#
# Bulk Modulus (GPa) = 9.62772 11.71460 10.67116
# Shear Modulus (GPa) = 21.10093 26.65293 23.87693
#
# Velocity S-wave (km/s) = 3.06566 3.44545 3.26109
# Velocity P-wave (km/s) = 4.10112 4.58757 4.35115
#
# Compressibility (1/GPa) = 0.10386674
#
# Stress axis : x y z
#
# Youngs Moduli (GPa) = 47.72030 24.88290 54.49469
#
# Poissons Ratio (x) = -0.09072 -0.00678
# Poissons Ratio (y) = -0.17398 -0.45863
# Poissons Ratio (z) = -0.00594 -0.20942
#
# Static dielectric constant tensor:
#      x y z
#    x 1.837580 0.000000 0.000000 
#    y 0.000000 1.814170 0.000000 
#    z 0.000000 0.000000 1.813570 
# 
# From -- ./inp_files/10144.got.cif
#   From: 2010.05.17/outbox.cif.g08.bks.cpg/sg62_6_cif.got.tgz:10144.got - 2010.06.03 15:25:27.
