data_PCOD9465909
_publ_section_title
;
Structure prediction by ZEFSAII (Michael W. Deem and Ramdas Pophale) SiO2 
 PCOD9465909
Probable space group: P N M A
;
_chemical_formula_sum "Si O2"
_cell_formula_units_Z 56
_cell_length_a 13.502602
_cell_length_b 12.652979
_cell_length_c 16.499845
_cell_angle_alpha 90.000000
_cell_angle_beta 90.000000
_cell_angle_gamma 90.000000
_cell_volume 2818.967821
_symmetry_space_group_name_H-M "P N M A"
_symmetry_group_IT_number 62
_symmetry_cell_setting 'orthorhombic'
loop_
_space_group_symop_operation_xyz
x,y,z
1/2-x,-y,1/2+z
1/2+x,1/2-y,1/2-z
-x,1/2+y,-z
-x,-y,-z
1/2+x,y,1/2-z
1/2-x,1/2+y,1/2+z
x,1/2-y,z
loop_
_atom_site_type_symbol
_atom_site_label
_atom_site_fract_x
_atom_site_fract_y
_atom_site_fract_z
Si Si1 0.774416 0.874702 0.323880
Si Si2 0.525033 0.133335 0.921770
Si Si3 0.905241 0.874403 0.047659
Si Si4 0.212382 0.980132 0.830254
Si Si5 0.483005 0.129201 0.263482
Si Si6 0.416524 0.921800 0.898215
Si Si7 0.905844 0.492840 0.889854
O O1 0.753188 0.750000 0.317599
O O2 0.884846 0.885952 0.359549
O O3 0.697593 0.933855 0.381991
O O4 0.763418 0.934627 0.239085
O O5 0.484900 0.250000 0.907255
O O6 0.442857 0.044969 0.910164
O O7 0.568486 0.127007 0.013035
O O8 0.886476 0.750000 0.056880
O O9 0.012715 0.907229 0.082469
O O10 0.831108 0.950779 0.096154
O O11 0.903118 0.913679 0.955397
O O12 0.125927 0.906803 0.792389
O O13 0.306820 0.914779 0.861306
O O14 0.500524 0.250000 0.289031
O O15 0.505422 0.121296 0.167824
O O16 0.557209 0.047158 0.307137
#
# Coordination Sequence:
#
# PCOD9465909 Si02
#       7
#     8   8   8   8   8   8   8
#     4  11  21  38  62  92 127 166 206 255 311 361
#     4  10  23  40  64  92 122 167 210 255 310 367
#     4  10  21  38  60  88 122 163 204 253 310 363
#     4  11  23  40  61  94 126 160 208 260 305 372
#     4  11  23  40  63  91 125 166 208 256 315 370
#     4  11  22  43  63  88 131 159 211 261 305 372
#     4  10  21  39  60  90 126 157 206 255 301 373
#
# _framework density 19.865425999999999
#
# number of rings (size 3 to 8) (size 9 to 14) (size 15 to 20)
#    0.000    1.429    2.857    2.571    0.000    2.286 
#    0.000    3.571    0.000    0.000    0.000    0.000 
#    0.000    0.000    0.000    0.000    0.000    0.000 
#
# Total GULP energy -312800.159414 kJ/mol
# GULP energy per Si atom -5585.717132 kJ/mol
# Density = 1.982021 g / cm^3
# Si number density = 19.865426 Si / 1000 Ang^3
#
#
#
# Elastic Constant Matrix: (Units=GPa)
#
#
# Indices 1 2 3 4 5 6 
#
# 1 47.3067 5.8835 -8.8214 0.0000 0.0000 0.0000
# 2 5.8835 60.5808 -19.1298 0.0000 0.0000 0.0000
# 3 -8.8214 -19.1298 60.4040 0.0000 0.0000 0.0000
# 4 0.0000 0.0000 0.0000 5.7666 0.0000 0.0000
# 5 0.0000 0.0000 0.0000 0.0000 20.2252 0.0000
# 6 0.0000 0.0000 0.0000 0.0000 0.0000 6.1610
#
#
#
# Elastic Compliance Matrix: (Units=1/GPa)
#
#
# Indices 1 2 3 4 5 6 
#
# 1 0.021813 -0.001236 0.002794 0.000000 0.000000 0.000000
# 2 -0.001236 0.018411 0.005650 0.000000 0.000000 0.000000
# 3 0.002794 0.005650 0.018753 0.000000 0.000000 0.000000
# 4 0.000000 0.000000 0.000000 0.173413 0.000000 0.000000
# 5 0.000000 0.000000 0.000000 0.000000 0.049443 0.000000
# 6 0.000000 0.000000 0.000000 0.000000 0.000000 0.162312
#
#
# Mechanical properties :
#
#
# Convention : Reuss Voigt Hill
#
# Bulk Modulus (GPa) = 13.62515 13.79511 13.71013
# Shear Modulus (GPa) = 11.00851 19.12116 15.06483
#
# Velocity S-wave (km/s) = 2.35660 3.10584 2.75679
# Velocity P-wave (km/s) = 3.77867 4.45208 4.12913
#
# Compressibility (1/GPa) = 0.07339370
#
# Stress axis : x y z
#
# Youngs Moduli (GPa) = 45.84329 54.31491 53.32571
#
# Poissons Ratio (x) = 0.06714 -0.14900
# Poissons Ratio (y) = 0.05667 -0.30130
# Poissons Ratio (z) = -0.12809 -0.30689
#
# Static dielectric constant tensor:
#      x y z
#    x 1.693050 0.000000 0.000000 
#    y 0.000000 1.656770 0.000000 
#    z 0.000000 0.000000 1.709460 
# 
# From -- ./inp_files/19027.got.cif
#   From: 2010.05.17/outbox.cif.g08.bks.cpg/sg62_10_cif.got.tgz:19027.got - 2010.06.03 15:25:27.
