data_PCOD9465624
_publ_section_title
;
Structure prediction by ZEFSAII (Michael W. Deem and Ramdas Pophale) SiO2 
 PCOD9465624
Probable space group: P N M A
;
_chemical_formula_sum "Si O2"
_cell_formula_units_Z 56
_cell_length_a 22.067523
_cell_length_b 11.685235
_cell_length_c 11.846706
_cell_angle_alpha 90.000000
_cell_angle_beta 90.000000
_cell_angle_gamma 90.000000
_cell_volume 3054.841272
_symmetry_space_group_name_H-M "P N M A"
_symmetry_group_IT_number 62
_symmetry_cell_setting 'orthorhombic'
loop_
_space_group_symop_operation_xyz
x,y,z
1/2-x,-y,1/2+z
1/2+x,1/2-y,1/2-z
-x,1/2+y,-z
-x,-y,-z
1/2+x,y,1/2-z
1/2-x,1/2+y,1/2+z
x,1/2-y,z
loop_
_atom_site_type_symbol
_atom_site_label
_atom_site_fract_x
_atom_site_fract_y
_atom_site_fract_z
Si Si1 0.944082 0.115403 0.198414
Si Si2 0.916019 0.612797 0.829389
Si Si3 0.761651 0.882822 0.213045
Si Si4 0.140594 0.523598 0.376365
Si Si5 0.345471 0.496650 0.463735
Si Si6 0.460324 0.114222 0.034799
Si Si7 0.273249 0.884176 0.042354
O O1 0.933616 0.250000 0.181374
O O2 0.895430 0.049915 0.123068
O O3 0.942578 0.095898 0.333781
O O4 0.012435 0.088870 0.158113
O O5 0.907622 0.750000 0.824424
O O6 0.895382 0.554523 0.712545
O O7 0.877905 0.559067 0.931936
O O8 0.770617 0.750000 0.226972
O O9 0.691341 0.906649 0.191077
O O10 0.780454 0.936913 0.332468
O O11 0.801982 0.921960 0.109086
O O12 0.096419 0.601907 0.450457
O O13 0.180231 0.444838 0.459217
O O14 0.296916 0.403685 0.508000
O O15 0.483330 0.250000 0.027466
O O16 0.500000 0.000000 0.000000
O O17 0.286119 0.750000 0.039884
#
# Coordination Sequence:
#
# PCOD9465624 Si02
#       7
#     8   8   8   8   8   8   8
#     4  10  22  40  62  87 122 159 201 255 306 365
#     4  11  22  38  60  87 121 163 205 255 309 367
#     4  10  21  38  58  84 118 152 193 252 300 352
#     4  11  21  38  61  87 118 160 203 249 304 373
#     4  11  21  38  60  86 120 158 200 247 303 377
#     4  11  23  41  65  93 125 162 207 256 310 368
#     4  10  21  36  59  87 116 156 202 253 308 362
#
# _framework density 18.331558000000001
#
# number of rings (size 3 to 8) (size 9 to 14) (size 15 to 20)
#    0.000    1.429    2.857    3.000    0.000    0.571 
#    0.000    1.429    0.000    0.000    0.000    0.000 
#    0.000    0.000    0.000    0.000    0.000    0.000 
#
# Total GULP energy -312171.247279 kJ/mol
# GULP energy per Si atom -5574.486559 kJ/mol
# Density = 1.828983 g / cm^3
# Si number density = 18.331558 Si / 1000 Ang^3
#
#
#
# Elastic Constant Matrix: (Units=GPa)
#
#
# Indices 1 2 3 4 5 6 
#
# 1 52.3350 25.9357 5.1693 0.0000 0.0000 0.0000
# 2 25.9357 62.4169 24.2592 0.0000 0.0000 0.0000
# 3 5.1693 24.2592 71.0785 0.0000 0.0000 0.0000
# 4 0.0000 0.0000 0.0000 5.8652 0.0000 0.0000
# 5 0.0000 0.0000 0.0000 0.0000 43.6433 0.0000
# 6 0.0000 0.0000 0.0000 0.0000 0.0000 16.0791
#
#
#
# Elastic Compliance Matrix: (Units=1/GPa)
#
#
# Indices 1 2 3 4 5 6 
#
# 1 0.024291 -0.010846 0.001935 0.000000 0.000000 0.000000
# 2 -0.010846 0.023314 -0.007168 0.000000 0.000000 0.000000
# 3 0.001935 -0.007168 0.016375 0.000000 0.000000 0.000000
# 4 0.000000 0.000000 0.000000 0.170498 0.000000 0.000000
# 5 0.000000 0.000000 0.000000 0.000000 0.022913 0.000000
# 6 0.000000 0.000000 0.000000 0.000000 0.000000 0.062193
#
#
# Mechanical properties :
#
#
# Convention : Reuss Voigt Hill
#
# Bulk Modulus (GPa) = 31.42465 32.95096 32.18780
# Shear Modulus (GPa) = 13.79882 21.81525 17.80703
#
# Velocity S-wave (km/s) = 2.74658 3.45343 3.12009
# Velocity P-wave (km/s) = 5.21899 5.82371 5.52962
#
# Compressibility (1/GPa) = 0.03182215
#
# Stress axis : x y z
#
# Youngs Moduli (GPa) = 41.16686 42.89259 61.06946
#
# Poissons Ratio (x) = 0.46520 -0.11817
# Poissons Ratio (y) = 0.44648 0.43777
# Poissons Ratio (z) = -0.07966 0.30747
#
# Static dielectric constant tensor:
#      x y z
#    x 1.623640 0.000000 0.000000 
#    y 0.000000 1.623130 0.000000 
#    z 0.000000 0.000000 1.649350 
# 
# From -- ./inp_files/14779.got.cif
#   From: 2010.05.17/outbox.cif.g08.bks.cpg/sg62_8_cif.got.tgz:14779.got - 2010.06.03 15:25:27.
