data_PCOD9465573
_publ_section_title
;
Structure prediction by ZEFSAII (Michael W. Deem and Ramdas Pophale) SiO2 
 PCOD9465573
Probable space group: P N M A
;
_chemical_formula_sum "Si O2"
_cell_formula_units_Z 48
_cell_length_a 8.124704
_cell_length_b 8.638123
_cell_length_c 28.319989
_cell_angle_alpha 90.000000
_cell_angle_beta 90.000000
_cell_angle_gamma 90.000000
_cell_volume 1987.558919
_symmetry_space_group_name_H-M "P N M A"
_symmetry_group_IT_number 62
_symmetry_cell_setting 'orthorhombic'
loop_
_space_group_symop_operation_xyz
x,y,z
1/2-x,-y,1/2+z
1/2+x,1/2-y,1/2-z
-x,1/2+y,-z
-x,-y,-z
1/2+x,y,1/2-z
1/2-x,1/2+y,1/2+z
x,1/2-y,z
loop_
_atom_site_type_symbol
_atom_site_label
_atom_site_fract_x
_atom_site_fract_y
_atom_site_fract_z
Si Si1 0.948516 0.070988 0.266441
Si Si2 0.260668 0.932423 0.315031
Si Si3 0.253481 0.072702 0.655196
Si Si4 0.921438 0.069179 0.593780
Si Si5 0.255844 0.571159 0.988933
Si Si6 0.926698 0.927739 0.926016
O O1 0.997285 0.250000 0.270302
O O2 0.896073 0.025574 0.213871
O O3 0.793359 0.036882 0.301196
O O4 0.091797 0.960740 0.285700
O O5 0.297763 0.750000 0.315824
O O6 0.210612 0.987417 0.367186
O O7 0.265970 0.250000 0.671772
O O8 0.095343 0.059496 0.620195
O O9 0.402925 0.029631 0.620745
O O10 0.887502 0.250000 0.584595
O O11 0.902994 0.980997 0.544908
O O12 0.272809 0.750000 0.003211
O O13 0.097106 0.554772 0.954223
O O14 0.209482 0.473502 0.034772
O O15 0.905638 0.750000 0.912038
#
# Coordination Sequence:
#
# PCOD9465573 Si02
#       6
#     8   8   8   8   8   8
#     4  11  22  37  58  85 114 145 185 233 280 326
#     4  10  21  39  59  81 112 150 188 226 275 334
#     4  10  21  38  58  81 110 145 184 224 273 331
#     4   9  20  37  57  80 107 141 181 223 268 322
#     4  10  21  36  56  81 109 142 180 223 273 326
#     4  10  21  37  56  80 110 143 182 226 271 323
#
# _framework density 24.150229
#
# number of rings (size 3 to 8) (size 9 to 14) (size 15 to 20)
#    0.000    2.000    0.000    4.500    0.000    8.000 
#    0.000    3.333    0.000    0.000    0.000    0.000 
#    0.000    0.000    0.000    0.000    0.000    0.000 
#
# Total GULP energy -268727.713248 kJ/mol
# GULP energy per Si atom -5598.494026 kJ/mol
# Density = 2.409526 g / cm^3
# Si number density = 24.150229 Si / 1000 Ang^3
#
#
#
# Elastic Constant Matrix: (Units=GPa)
#
#
# Indices 1 2 3 4 5 6 
#
# 1 50.4124 -5.3108 6.4166 0.0000 0.0000 0.0000
# 2 -5.3108 49.2735 19.0807 0.0000 0.0000 0.0000
# 3 6.4166 19.0807 97.1663 0.0000 0.0000 0.0000
# 4 0.0000 0.0000 0.0000 33.5116 0.0000 0.0000
# 5 0.0000 0.0000 0.0000 0.0000 45.1955 0.0000
# 6 0.0000 0.0000 0.0000 0.0000 0.0000 19.8670
#
#
#
# Elastic Compliance Matrix: (Units=1/GPa)
#
#
# Indices 1 2 3 4 5 6 
#
# 1 0.020391 0.002943 -0.001925 0.000000 0.000000 0.000000
# 2 0.002943 0.022390 -0.004591 0.000000 0.000000 0.000000
# 3 -0.001925 -0.004591 0.011320 0.000000 0.000000 0.000000
# 4 0.000000 0.000000 0.000000 0.029840 0.000000 0.000000
# 5 0.000000 0.000000 0.000000 0.000000 0.022126 0.000000
# 6 0.000000 0.000000 0.000000 0.000000 0.000000 0.050335
#
#
# Mechanical properties :
#
#
# Convention : Reuss Voigt Hill
#
# Bulk Modulus (GPa) = 21.29630 26.35835 23.82733
# Shear Modulus (GPa) = 27.90176 31.49253 29.69715
#
# Velocity S-wave (km/s) = 3.40272 3.61505 3.51049
# Velocity P-wave (km/s) = 4.92701 5.32567 5.13021
#
# Compressibility (1/GPa) = 0.04695651
#
# Stress axis : x y z
#
# Youngs Moduli (GPa) = 49.04034 44.66288 88.33702
#
# Poissons Ratio (x) = -0.13145 0.17001
# Poissons Ratio (y) = -0.14433 0.40556
# Poissons Ratio (z) = 0.09438 0.20505
#
# Static dielectric constant tensor:
#      x y z
#    x 2.055770 0.000000 0.000000 
#    y 0.000000 1.818740 0.000000 
#    z 0.000000 0.000000 1.890630 
# 
# From -- ./inp_files/31932.got.cif
#   From: 2010.05.17/outbox.cif.g08.bks.cpg/sg62_16_cif.got.tgz:31932.got - 2010.06.03 15:25:27.
