data_PCOD9465228
_publ_section_title
;
Structure prediction by ZEFSAII (Michael W. Deem and Ramdas Pophale) SiO2 
 PCOD9465228
Probable space group: P N M A
;
_chemical_formula_sum "Si O2"
_cell_formula_units_Z 40
_cell_length_a 17.722829
_cell_length_b 12.658465
_cell_length_c 7.350907
_cell_angle_alpha 90.000000
_cell_angle_beta 90.000000
_cell_angle_gamma 90.000000
_cell_volume 1649.130488
_symmetry_space_group_name_H-M "P N M A"
_symmetry_group_IT_number 62
_symmetry_cell_setting 'orthorhombic'
loop_
_space_group_symop_operation_xyz
x,y,z
1/2-x,-y,1/2+z
1/2+x,1/2-y,1/2-z
-x,1/2+y,-z
-x,-y,-z
1/2+x,y,1/2-z
1/2-x,1/2+y,1/2+z
x,1/2-y,z
loop_
_atom_site_type_symbol
_atom_site_label
_atom_site_fract_x
_atom_site_fract_y
_atom_site_fract_z
Si Si1 0.522718 0.630371 0.011875
Si Si2 0.679027 0.045896 0.763763
Si Si3 0.151703 0.522822 0.325928
Si Si4 0.924413 0.869571 0.971942
Si Si5 0.588434 0.863375 0.607960
O O1 0.486857 0.750000 0.050253
O O2 0.594372 0.618464 0.142911
O O3 0.550897 0.642332 0.806857
O O4 0.500000 0.500000 0.000000
O O5 0.662063 0.032543 0.976477
O O6 0.620702 0.122138 0.661438
O O7 0.766757 0.064479 0.733545
O O8 0.657500 0.939955 0.649268
O O9 0.116339 0.442590 0.178468
O O10 0.920373 0.750000 0.905550
O O11 0.013088 0.893396 0.003804
O O12 0.615936 0.750000 0.547345
#
# Coordination Sequence:
#
# PCOD9465228 Si02
#       5
#     8   8   8   8   8
#     4  10  20  38  67 100 137 181 231 286 351 421
#     4  11  23  41  67  95 135 177 231 281 353 424
#     4  11  23  41  66  96 139 179 226 292 356 422
#     4  11  23  42  67  95 133 177 228 294 353 419
#     4   9  20  40  66  95 131 177 228 290 354 412
#
# _framework density 24.255205
#
# number of rings (size 3 to 8) (size 9 to 14) (size 15 to 20)
#    0.000    1.600    4.000    0.600    0.000    2.400 
#    0.000    4.000    0.000    0.000    0.000    0.000 
#    0.000    0.000    0.000    0.000    0.000    0.000 
#
# Total GULP energy -222715.586675 kJ/mol
# GULP energy per Si atom -5567.889667 kJ/mol
# Density = 2.420000 g / cm^3
# Si number density = 24.255205 Si / 1000 Ang^3
#
#
#
# Elastic Constant Matrix: (Units=GPa)
#
#
# Indices 1 2 3 4 5 6 
#
# 1 61.7701 -1.2066 48.0301 0.0000 0.0000 0.0000
# 2 -1.2066 129.5374 19.8655 0.0000 0.0000 0.0000
# 3 48.0301 19.8655 153.4393 0.0000 0.0000 0.0000
# 4 0.0000 0.0000 0.0000 5.6129 0.0000 0.0000
# 5 0.0000 0.0000 0.0000 0.0000 28.3370 0.0000
# 6 0.0000 0.0000 0.0000 0.0000 0.0000 50.7239
#
#
#
# Elastic Compliance Matrix: (Units=1/GPa)
#
#
# Indices 1 2 3 4 5 6 
#
# 1 0.021598 0.001263 -0.006924 0.000000 0.000000 0.000000
# 2 0.001263 0.007950 -0.001425 0.000000 0.000000 0.000000
# 3 -0.006924 -0.001425 0.008869 0.000000 0.000000 0.000000
# 4 0.000000 0.000000 0.000000 0.178161 0.000000 0.000000
# 5 0.000000 0.000000 0.000000 0.000000 0.035290 0.000000
# 6 0.000000 0.000000 0.000000 0.000000 0.000000 0.019715
#
#
# Mechanical properties :
#
#
# Convention : Reuss Voigt Hill
#
# Bulk Modulus (GPa) = 41.24499 53.12498 47.18498
# Shear Modulus (GPa) = 17.01634 35.47196 26.24415
#
# Velocity S-wave (km/s) = 2.65156 3.82834 3.29295
# Velocity P-wave (km/s) = 5.13964 6.44140 5.82699
#
# Compressibility (1/GPa) = 0.02424537
#
# Stress axis : x y z
#
# Youngs Moduli (GPa) = 46.30134 125.78588 112.75130
#
# Poissons Ratio (x) = -0.15887 0.78070
# Poissons Ratio (y) = -0.05848 0.16063
# Poissons Ratio (z) = 0.32059 0.17920
#
# Static dielectric constant tensor:
#      x y z
#    x 1.965620 0.000000 0.000000 
#    y 0.000000 2.072630 0.000000 
#    z 0.000000 0.000000 2.067410 
# 
# From -- ./inp_files/7302.got.cif
#   From: 2010.05.17/outbox.cif.g08.bks.cpg/sg62_4_cif.got.tgz:7302.got - 2010.06.03 15:25:27.
