data_PCOD9465028
_publ_section_title
;
Structure prediction by ZEFSAII (Michael W. Deem and Ramdas Pophale) SiO2 
 PCOD9465028
Probable space group: P N M A
;
_chemical_formula_sum "Si O2"
_cell_formula_units_Z 64
_cell_length_a 18.928972
_cell_length_b 18.977962
_cell_length_c 9.286470
_cell_angle_alpha 90.000000
_cell_angle_beta 90.000000
_cell_angle_gamma 90.000000
_cell_volume 3336.009369
_symmetry_space_group_name_H-M "P N M A"
_symmetry_group_IT_number 62
_symmetry_cell_setting 'orthorhombic'
loop_
_space_group_symop_operation_xyz
x,y,z
1/2-x,-y,1/2+z
1/2+x,1/2-y,1/2-z
-x,1/2+y,-z
-x,-y,-z
1/2+x,y,1/2-z
1/2-x,1/2+y,1/2+z
x,1/2-y,z
loop_
_atom_site_type_symbol
_atom_site_label
_atom_site_fract_x
_atom_site_fract_y
_atom_site_fract_z
Si Si1 0.748035 0.457717 0.973968
Si Si2 0.598279 0.668315 0.846689
Si Si3 0.749014 0.667912 0.695052
Si Si4 0.492561 0.913074 0.660501
Si Si5 0.138467 0.167998 0.046838
Si Si6 0.364683 0.330959 0.817957
Si Si7 0.088360 0.551373 0.113794
Si Si8 0.274254 0.584055 0.328369
O O1 0.830410 0.463249 0.927991
O O2 0.706569 0.451595 0.823668
O O3 0.737546 0.387783 0.069051
O O4 0.735556 0.525649 0.072563
O O5 0.577614 0.750000 0.819977
O O6 0.670640 0.655827 0.758384
O O7 0.537950 0.616458 0.791739
O O8 0.615413 0.661524 0.014879
O O9 0.753918 0.750000 0.648861
O O10 0.803932 0.657656 0.825956
O O11 0.437089 0.854843 0.606362
O O12 0.545999 0.930759 0.530705
O O13 0.447114 0.983455 0.686464
O O14 0.140488 0.250000 0.005464
O O15 0.161584 0.117871 0.915736
O O16 0.372927 0.250000 0.775291
O O17 0.410374 0.382407 0.719675
O O18 0.283358 0.355143 0.800590
#
# Coordination Sequence:
#
# PCOD9465028 Si02
#       8
#     8   8   8   8   8   8   8   8
#     4  11  22  38  62  88 121 160 206 258 308 366
#     4  10  20  37  63  89 118 160 205 249 301 366
#     4  10  21  38  61  90 120 158 208 260 305 364
#     4  11  22  40  59  90 126 160 211 242 309 367
#     4  11  22  39  62  89 126 165 201 253 314 367
#     4  10  22  40  63  93 120 155 209 260 308 364
#     4  10  23  39  60  89 122 160 203 258 296 372
#     4  11  22  37  60  91 122 158 203 257 313 366
#
# _framework density 19.184597
#
# number of rings (size 3 to 8) (size 9 to 14) (size 15 to 20)
#    0.000    1.500    3.750    1.500    1.750    4.000 
#    0.000    1.250    0.000    0.000    0.000    0.000 
#    0.000    0.000    0.000    0.000    0.000    0.000 
#
# Total GULP energy -357623.165939 kJ/mol
# GULP energy per Si atom -5587.861968 kJ/mol
# Density = 1.914093 g / cm^3
# Si number density = 19.184597 Si / 1000 Ang^3
#
#
#
# Elastic Constant Matrix: (Units=GPa)
#
#
# Indices 1 2 3 4 5 6 
#
# 1 29.3928 -7.3003 -18.8041 0.0000 0.0000 0.0000
# 2 -7.3003 76.2747 25.9671 0.0000 0.0000 0.0000
# 3 -18.8041 25.9671 44.6484 0.0000 0.0000 0.0000
# 4 0.0000 0.0000 0.0000 36.3805 0.0000 0.0000
# 5 0.0000 0.0000 0.0000 0.0000 17.2517 0.0000
# 6 0.0000 0.0000 0.0000 0.0000 0.0000 22.9359
#
#
#
# Elastic Compliance Matrix: (Units=1/GPa)
#
#
# Indices 1 2 3 4 5 6 
#
# 1 0.047043 -0.002796 0.021439 0.000000 0.000000 0.000000
# 2 -0.002796 0.016513 -0.010782 0.000000 0.000000 0.000000
# 3 0.021439 -0.010782 0.037697 0.000000 0.000000 0.000000
# 4 0.000000 0.000000 0.000000 0.027487 0.000000 0.000000
# 5 0.000000 0.000000 0.000000 0.000000 0.057965 0.000000
# 6 0.000000 0.000000 0.000000 0.000000 0.000000 0.043600
#
#
# Mechanical properties :
#
#
# Convention : Reuss Voigt Hill
#
# Bulk Modulus (GPa) = 8.54881 16.67126 12.61004
# Shear Modulus (GPa) = 19.71798 25.34382 22.53090
#
# Velocity S-wave (km/s) = 3.20941 3.63857 3.43071
# Velocity P-wave (km/s) = 4.26609 5.13430 4.72020
#
# Compressibility (1/GPa) = 0.11697540
#
# Stress axis : x y z
#
# Youngs Moduli (GPa) = 21.25712 60.55675 26.52734
#
# Poissons Ratio (x) = 0.16933 -0.56872
# Poissons Ratio (y) = 0.05944 0.28601
# Poissons Ratio (z) = -0.45573 0.65291
#
# Static dielectric constant tensor:
#      x y z
#    x 1.642000 0.000000 0.000000 
#    y 0.000000 1.682790 0.000000 
#    z 0.000000 0.000000 1.663830 
# 
# From -- ./inp_files/8094.got.cif
#   From: 2010.05.17/outbox.cif.g08.bks.cpg/sg62_5_cif.got.tgz:8094.got - 2010.06.03 15:25:27.
