data_PCOD9465034
_publ_section_title
;
Structure prediction by ZEFSAII (Michael W. Deem and Ramdas Pophale) SiO2 
 PCOD9465034
Probable space group: P N M A
;
_chemical_formula_sum "Si O2"
_cell_formula_units_Z 64
_cell_length_a 14.715490
_cell_length_b 8.419166
_cell_length_c 25.156122
_cell_angle_alpha 90.000000
_cell_angle_beta 90.000000
_cell_angle_gamma 90.000000
_cell_volume 3116.646118
_symmetry_space_group_name_H-M "P N M A"
_symmetry_group_IT_number 62
_symmetry_cell_setting 'orthorhombic'
loop_
_space_group_symop_operation_xyz
x,y,z
1/2-x,-y,1/2+z
1/2+x,1/2-y,1/2-z
-x,1/2+y,-z
-x,-y,-z
1/2+x,y,1/2-z
1/2-x,1/2+y,1/2+z
x,1/2-y,z
loop_
_atom_site_type_symbol
_atom_site_label
_atom_site_fract_x
_atom_site_fract_y
_atom_site_fract_z
Si Si1 0.146484 0.065861 0.606900
Si Si2 0.270757 0.934606 0.523445
Si Si3 0.471810 0.938915 0.941573
Si Si4 0.957487 0.060492 0.945368
Si Si5 0.991876 0.942257 0.833257
Si Si6 0.233145 0.442328 0.413264
Si Si7 0.212433 0.441565 0.194201
Si Si8 0.314403 0.056543 0.299721
O O1 0.138783 0.250000 0.618788
O O2 0.191759 0.039487 0.548965
O O3 0.216284 0.988931 0.648432
O O4 0.047475 0.990381 0.601166
O O5 0.247223 0.750000 0.527938
O O6 0.360155 0.974619 0.556667
O O7 0.286675 0.982504 0.462655
O O8 0.470860 0.750000 0.944525
O O9 0.371516 0.991261 0.923382
O O10 0.500000 0.000000 0.000000
O O11 0.947087 0.250000 0.946666
O O12 0.008925 0.006882 0.892546
O O13 0.000000 0.000000 0.000000
O O14 0.990331 0.750000 0.835323
O O15 0.891459 0.997661 0.815136
O O16 0.079237 0.990081 0.798341
O O17 0.239617 0.250000 0.416707
O O18 0.270626 0.491485 0.355988
O O19 0.208300 0.250000 0.195141
O O20 0.255238 0.498595 0.249824
O O21 0.312532 0.250000 0.298731
#
# Coordination Sequence:
#
# PCOD9465034 Si02
#       8
#     8   8   8   8   8   8   8   8
#     4  12  24  39  60  87 121 162 209 260 313 368
#     4  12  23  37  60  89 123 161 205 254 312 376
#     4  11  22  36  59  89 125 166 210 258 315 379
#     4  12  24  38  59  89 126 163 206 255 315 376
#     4  10  20  37  63  91 123 162 207 255 309 367
#     4  10  21  38  61  90 126 165 207 258 317 375
#     4  10  21  39  64  91 121 160 210 259 306 368
#     4   9  20  39  63  92 123 160 208 258 306 368
#
# _framework density 20.534896
#
# number of rings (size 3 to 8) (size 9 to 14) (size 15 to 20)
#    0.000    1.250    2.500    4.500    0.000    2.500 
#    0.000    5.000    0.000    1.500    0.000    0.000 
#    0.000    0.000    0.000    0.000    0.000    0.000 
#
# Total GULP energy -357639.656226 kJ/mol
# GULP energy per Si atom -5588.119629 kJ/mol
# Density = 2.048816 g / cm^3
# Si number density = 20.534896 Si / 1000 Ang^3
#
#
#
# Elastic Constant Matrix: (Units=GPa)
#
#
# Indices 1 2 3 4 5 6 
#
# 1 119.1322 10.9456 46.4071 0.0000 0.0000 0.0000
# 2 10.9456 26.6806 6.5891 0.0000 0.0000 0.0000
# 3 46.4071 6.5891 113.6651 0.0000 0.0000 0.0000
# 4 0.0000 0.0000 0.0000 23.8373 0.0000 0.0000
# 5 0.0000 0.0000 0.0000 0.0000 33.5123 0.0000
# 6 0.0000 0.0000 0.0000 0.0000 0.0000 12.8417
#
#
#
# Elastic Compliance Matrix: (Units=1/GPa)
#
#
# Indices 1 2 3 4 5 6 
#
# 1 0.010247 -0.003217 -0.003997 0.000000 0.000000 0.000000
# 2 -0.003217 0.039034 -0.000950 0.000000 0.000000 0.000000
# 3 -0.003997 -0.000950 0.010485 0.000000 0.000000 0.000000
# 4 0.000000 0.000000 0.000000 0.041951 0.000000 0.000000
# 5 0.000000 0.000000 0.000000 0.000000 0.029840 0.000000
# 6 0.000000 0.000000 0.000000 0.000000 0.000000 0.077871
#
#
# Mechanical properties :
#
#
# Convention : Reuss Voigt Hill
#
# Bulk Modulus (GPa) = 23.02048 43.04017 33.03032
# Shear Modulus (GPa) = 20.81307 27.07401 23.94354
#
# Velocity S-wave (km/s) = 3.18708 3.63497 3.41837
# Velocity P-wave (km/s) = 4.97776 6.21469 5.63029
#
# Compressibility (1/GPa) = 0.04343958
#
# Stress axis : x y z
#
# Youngs Moduli (GPa) = 97.59370 25.61840 95.37696
#
# Poissons Ratio (x) = 0.08240 0.38122
# Poissons Ratio (y) = 0.31391 0.09057
# Poissons Ratio (z) = 0.39008 0.02433
#
# Static dielectric constant tensor:
#      x y z
#    x 1.758380 0.000000 0.000000 
#    y 0.000000 1.697090 0.000000 
#    z 0.000000 0.000000 1.734170 
# 
# From -- ./inp_files/29929.got.cif
#   From: 2010.05.17/outbox.cif.g08.bks.cpg/sg62_15_cif.got.tgz:29929.got - 2010.06.03 15:25:27.
