data_PCOD9465496
_publ_section_title
;
Structure prediction by ZEFSAII (Michael W. Deem and Ramdas Pophale) SiO2 
 PCOD9465496
Probable space group: P N M A
;
_chemical_formula_sum "Si O2"
_cell_formula_units_Z 48
_cell_length_a 12.413184
_cell_length_b 7.945268
_cell_length_c 23.866278
_cell_angle_alpha 90.000000
_cell_angle_beta 90.000000
_cell_angle_gamma 90.000000
_cell_volume 2353.837291
_symmetry_space_group_name_H-M "P N M A"
_symmetry_group_IT_number 62
_symmetry_cell_setting 'orthorhombic'
loop_
_space_group_symop_operation_xyz
x,y,z
1/2-x,-y,1/2+z
1/2+x,1/2-y,1/2-z
-x,1/2+y,-z
-x,-y,-z
1/2+x,y,1/2-z
1/2-x,1/2+y,1/2+z
x,1/2-y,z
loop_
_atom_site_type_symbol
_atom_site_label
_atom_site_fract_x
_atom_site_fract_y
_atom_site_fract_z
Si Si1 0.270629 0.951238 0.578416
Si Si2 0.829605 0.450521 0.645283
Si Si3 0.076150 0.551978 0.650045
Si Si4 0.509485 0.952844 0.372603
Si Si5 0.147824 0.045931 0.772548
Si Si6 0.823127 0.955964 0.045676
O O1 0.258806 0.750000 0.573033
O O2 0.159999 0.019772 0.604460
O O3 0.302112 0.017695 0.516960
O O4 0.370207 0.984153 0.619752
O O5 0.814773 0.250000 0.645353
O O6 0.759270 0.511576 0.698335
O O7 0.771020 0.510512 0.588526
O O8 0.955317 0.484346 0.647739
O O9 0.067762 0.750000 0.640320
O O10 0.125821 0.521971 0.711269
O O11 0.511615 0.750000 0.372874
O O12 0.446941 0.003163 0.316112
O O13 0.435065 0.008662 0.425143
O O14 0.147909 0.250000 0.768910
O O15 0.824621 0.750000 0.044410
#
# Coordination Sequence:
#
# PCOD9465496 Si02
#       6
#     8   8   8   8   8   8
#     4  10  21  35  52  80 116 147 173 213 272 328
#     4   9  19  38  61  79 100 140 188 227 265 312
#     4  11  24  36  50  79 115 146 176 216 272 330
#     4   9  18  34  58  84 104 134 182 230 268 311
#     4   9  20  38  58  78 102 137 184 231 269 311
#     4   8  16  35  59  80 107 141 179 223 269 315
#
# _framework density 20.392233999999998
#
# number of rings (size 3 to 8) (size 9 to 14) (size 15 to 20)
#    0.000    2.667    0.000    3.000    2.333    3.333 
#    0.000    3.333    0.000    0.000    0.000    0.000 
#    0.000    0.000    0.000    0.000    0.000    0.000 
#
# Total GULP energy -267871.448335 kJ/mol
# GULP energy per Si atom -5580.655174 kJ/mol
# Density = 2.034582 g / cm^3
# Si number density = 20.392234 Si / 1000 Ang^3
#
#
#
# Elastic Constant Matrix: (Units=GPa)
#
#
# Indices 1 2 3 4 5 6 
#
# 1 110.4615 -8.3802 0.6038 0.0000 0.0000 0.0000
# 2 -8.3802 8.2709 -8.0565 0.0000 0.0000 0.0000
# 3 0.6038 -8.0565 24.9656 0.0000 0.0000 0.0000
# 4 0.0000 0.0000 0.0000 16.2406 0.0000 0.0000
# 5 0.0000 0.0000 0.0000 0.0000 13.3760 0.0000
# 6 0.0000 0.0000 0.0000 0.0000 0.0000 6.6276
#
#
#
# Elastic Compliance Matrix: (Units=1/GPa)
#
#
# Indices 1 2 3 4 5 6 
#
# 1 0.010139 0.014634 0.004477 0.000000 0.000000 0.000000
# 2 0.014634 0.197457 0.063366 0.000000 0.000000 0.000000
# 3 0.004477 0.063366 0.060395 0.000000 0.000000 0.000000
# 4 0.000000 0.000000 0.000000 0.061574 0.000000 0.000000
# 5 0.000000 0.000000 0.000000 0.000000 0.074761 0.000000
# 6 0.000000 0.000000 0.000000 0.000000 0.000000 0.150885
#
#
# Mechanical properties :
#
#
# Convention : Reuss Voigt Hill
#
# Bulk Modulus (GPa) = 2.30977 12.44802 7.37890
# Shear Modulus (GPa) = 9.35329 17.88422 13.61876
#
# Velocity S-wave (km/s) = 2.14398 2.96465 2.58706
# Velocity P-wave (km/s) = 2.69518 4.22332 3.54263
#
# Compressibility (1/GPa) = 0.43294393
#
# Stress axis : x y z
#
# Youngs Moduli (GPa) = 98.63239 5.06440 16.55762
#
# Poissons Ratio (x) = -0.07411 -0.07413
# Poissons Ratio (y) = -1.44336 -1.04919
# Poissons Ratio (z) = -0.44159 -0.32091
#
# Static dielectric constant tensor:
#      x y z
#    x 1.724420 0.000000 0.000000 
#    y 0.000000 1.740980 0.000000 
#    z 0.000000 0.000000 1.722000 
# 
# From -- ./inp_files/29218.got.cif
#   From: 2010.05.17/outbox.cif.g08.bks.cpg/sg62_15_cif.got.tgz:29218.got - 2010.06.03 15:25:27.
