data_PCOD9465049
_publ_section_title
;
Structure prediction by ZEFSAII (Michael W. Deem and Ramdas Pophale) SiO2 
 PCOD9465049
Probable space group: P N M A
;
_chemical_formula_sum "Si O2"
_cell_formula_units_Z 48
_cell_length_a 18.577245
_cell_length_b 14.706404
_cell_length_c 7.644791
_cell_angle_alpha 90.000000
_cell_angle_beta 90.000000
_cell_angle_gamma 90.000000
_cell_volume 2088.591075
_symmetry_space_group_name_H-M "P N M A"
_symmetry_group_IT_number 62
_symmetry_cell_setting 'orthorhombic'
loop_
_space_group_symop_operation_xyz
x,y,z
1/2-x,-y,1/2+z
1/2+x,1/2-y,1/2-z
-x,1/2+y,-z
-x,-y,-z
1/2+x,y,1/2-z
1/2-x,1/2+y,1/2+z
x,1/2-y,z
loop_
_atom_site_type_symbol
_atom_site_label
_atom_site_fract_x
_atom_site_fract_y
_atom_site_fract_z
Si Si1 0.304332 0.750000 0.592917
Si Si2 0.018948 0.750000 0.255669
Si Si3 0.283425 0.563468 0.208051
Si Si4 0.646870 0.250000 0.803961
Si Si5 0.841137 0.551564 0.897032
Si Si6 0.096247 0.556648 0.608722
Si Si7 0.526959 0.549362 0.277347
Si Si8 0.368771 0.250000 0.074482
O O1 0.325267 0.847124 0.679628
O O2 0.218043 0.750000 0.553842
O O3 0.347280 0.750000 0.408340
O O4 0.938601 0.750000 0.346820
O O5 0.022557 0.846741 0.156821
O O6 0.086131 0.750000 0.392040
O O7 0.309228 0.660963 0.139127
O O8 0.201735 0.532301 0.191703
O O9 0.326264 0.488222 0.099638
O O10 0.311249 0.556806 0.406269
O O11 0.923472 0.521109 0.880817
O O12 0.049431 0.495312 0.736871
O O13 0.106663 0.659119 0.670764
O O14 0.060531 0.556719 0.418590
#
# Coordination Sequence:
#
# PCOD9465049 Si02
#       8
#     4   4   8   4   8   8   8   4
#     4  10  22  41  61  87 128 163 201 254 325 364
#     4  10  20  38  61  91 125 161 209 246 305 374
#     4  11  22  41  62  88 122 160 206 258 306 369
#     4  10  22  38  61  91 121 165 201 256 305 364
#     4  11  24  40  64  89 120 164 206 256 313 370
#     4  10  20  39  63  88 124 158 204 249 307 372
#     4  10  22  38  63  93 121 161 204 254 310 370
#     4  10  20  37  65  89 124 169 201 250 321 368
#
# _framework density 22.982001
#
# number of rings (size 3 to 8) (size 9 to 14) (size 15 to 20)
#    0.000    1.667    3.333    1.000    7.000    1.333 
#    0.000    6.667    0.000    0.000    0.000    0.000 
#    0.000    0.000    0.000    0.000    0.000    0.000 
#
# Total GULP energy -268002.973846 kJ/mol
# GULP energy per Si atom -5583.395288 kJ/mol
# Density = 2.292969 g / cm^3
# Si number density = 22.982001 Si / 1000 Ang^3
#
#
#
# Elastic Constant Matrix: (Units=GPa)
#
#
# Indices 1 2 3 4 5 6 
#
# 1 90.2292 21.0201 8.6670 0.0000 0.0000 0.0000
# 2 21.0201 177.8134 17.6162 0.0000 0.0000 0.0000
# 3 8.6670 17.6162 42.9901 0.0000 0.0000 0.0000
# 4 0.0000 0.0000 0.0000 15.3446 0.0000 0.0000
# 5 0.0000 0.0000 0.0000 0.0000 29.7200 0.0000
# 6 0.0000 0.0000 0.0000 0.0000 0.0000 32.3613
#
#
#
# Elastic Compliance Matrix: (Units=1/GPa)
#
#
# Indices 1 2 3 4 5 6 
#
# 1 0.011535 -0.001181 -0.001841 0.000000 0.000000 0.000000
# 2 -0.001181 0.005983 -0.002213 0.000000 0.000000 0.000000
# 3 -0.001841 -0.002213 0.024539 0.000000 0.000000 0.000000
# 4 0.000000 0.000000 0.000000 0.065170 0.000000 0.000000
# 5 0.000000 0.000000 0.000000 0.000000 0.033647 0.000000
# 6 0.000000 0.000000 0.000000 0.000000 0.000000 0.030901
#
#
# Mechanical properties :
#
#
# Convention : Reuss Voigt Hill
#
# Bulk Modulus (GPa) = 31.66066 45.07105 38.36585
# Shear Modulus (GPa) = 25.93686 33.06713 29.50200
#
# Velocity S-wave (km/s) = 3.36307 3.79730 3.58676
# Velocity P-wave (km/s) = 5.37462 6.23539 5.82093
#
# Compressibility (1/GPa) = 0.03158494
#
# Stress axis : x y z
#
# Youngs Moduli (GPa) = 86.69311 167.14598 40.75076
#
# Poissons Ratio (x) = 0.19743 0.07504
# Poissons Ratio (y) = 0.10240 0.09020
# Poissons Ratio (z) = 0.15964 0.36997
#
# Static dielectric constant tensor:
#      x y z
#    x 1.820040 0.000000 0.000000 
#    y 0.000000 1.964450 0.000000 
#    z 0.000000 0.000000 1.882650 
# 
# From -- ./inp_files/8630.got.cif
#   From: 2010.05.17/outbox.cif.g08.bks.cpg/sg62_5_cif.got.tgz:8630.got - 2010.06.03 15:25:27.
