data_PCOD9465471
_publ_section_title
;
Structure prediction by ZEFSAII (Michael W. Deem and Ramdas Pophale) SiO2 
 PCOD9465471
Probable space group: P N M A
;
_chemical_formula_sum "Si O2"
_cell_formula_units_Z 56
_cell_length_a 11.581244
_cell_length_b 20.470473
_cell_length_c 12.744465
_cell_angle_alpha 90.000000
_cell_angle_beta 90.000000
_cell_angle_gamma 90.000000
_cell_volume 3021.375466
_symmetry_space_group_name_H-M "P N M A"
_symmetry_group_IT_number 62
_symmetry_cell_setting 'orthorhombic'
loop_
_space_group_symop_operation_xyz
x,y,z
1/2-x,-y,1/2+z
1/2+x,1/2-y,1/2-z
-x,1/2+y,-z
-x,-y,-z
1/2+x,y,1/2-z
1/2-x,1/2+y,1/2+z
x,1/2-y,z
loop_
_atom_site_type_symbol
_atom_site_label
_atom_site_fract_x
_atom_site_fract_y
_atom_site_fract_z
Si Si1 0.843712 0.559247 0.993295
Si Si2 0.709393 0.470085 0.719017
Si Si3 0.304840 0.323481 0.278919
Si Si4 0.845469 0.915605 0.599772
Si Si5 0.490073 0.325576 0.468161
Si Si6 0.109642 0.931418 0.621145
Si Si7 0.331688 0.081899 0.589853
O O1 0.707545 0.561195 0.966540
O O2 0.882881 0.489918 0.942437
O O3 0.854603 0.559414 0.118907
O O4 0.907962 0.622372 0.947216
O O5 0.792265 0.525107 0.667925
O O6 0.624331 0.508234 0.798063
O O7 0.784397 0.422867 0.792569
O O8 0.286450 0.250000 0.244294
O O9 0.188986 0.353044 0.330204
O O10 0.401745 0.326011 0.370370
O O11 0.352403 0.368489 0.187260
O O12 0.774884 0.910657 0.491651
O O13 0.980042 0.925118 0.582484
O O14 0.523720 0.250000 0.487202
O O15 0.418611 0.359815 0.562766
#
# Coordination Sequence:
#
# PCOD9465471 Si02
#       7
#     8   8   8   8   8   8   8
#     4  10  21  36  54  87 114 139 181 230 278 321
#     4   9  20  33  54  85 106 147 176 220 281 322
#     4   9  20  35  54  79 107 147 183 216 277 337
#     4   9  19  35  52  81 114 135 178 231 270 326
#     4  10  21  37  57  80 109 145 186 228 267 326
#     4  10  21  34  54  82 115 138 176 230 276 329
#     4   9  19  36  58  82 109 144 181 223 277 325
#
# _framework density 18.534604999999999
#
# number of rings (size 3 to 8) (size 9 to 14) (size 15 to 20)
#    0.000    2.571    0.000    1.286    8.000    6.286 
#    0.000    0.714    0.000    0.000    0.000    0.000 
#    0.000    0.000    0.000    0.000    0.000    0.000 
#
# Total GULP energy -312394.263347 kJ/mol
# GULP energy per Si atom -5578.468988 kJ/mol
# Density = 1.849242 g / cm^3
# Si number density = 18.534605 Si / 1000 Ang^3
#
#
#
# Elastic Constant Matrix: (Units=GPa)
#
#
# Indices 1 2 3 4 5 6 
#
# 1 86.5550 9.8188 -1.7747 0.0000 0.0000 0.0000
# 2 9.8188 88.7568 4.0121 0.0000 0.0000 0.0000
# 3 -1.7747 4.0121 58.5360 0.0000 0.0000 0.0000
# 4 0.0000 0.0000 0.0000 18.1547 0.0000 0.0000
# 5 0.0000 0.0000 0.0000 0.0000 10.3051 0.0000
# 6 0.0000 0.0000 0.0000 0.0000 0.0000 18.8912
#
#
#
# Elastic Compliance Matrix: (Units=1/GPa)
#
#
# Indices 1 2 3 4 5 6 
#
# 1 0.011712 -0.001316 0.000445 0.000000 0.000000 0.000000
# 2 -0.001316 0.011450 -0.000825 0.000000 0.000000 0.000000
# 3 0.000445 -0.000825 0.017154 0.000000 0.000000 0.000000
# 4 0.000000 0.000000 0.000000 0.055082 0.000000 0.000000
# 5 0.000000 0.000000 0.000000 0.000000 0.097039 0.000000
# 6 0.000000 0.000000 0.000000 0.000000 0.000000 0.052935
#
#
# Mechanical properties :
#
#
# Convention : Reuss Voigt Hill
#
# Bulk Modulus (GPa) = 27.08225 28.66224 27.87225
# Shear Modulus (GPa) = 19.15202 24.25633 21.70418
#
# Velocity S-wave (km/s) = 3.21800 3.62153 3.42571
# Velocity P-wave (km/s) = 5.33393 5.74326 5.54238
#
# Compressibility (1/GPa) = 0.03692455
#
# Stress axis : x y z
#
# Youngs Moduli (GPa) = 85.38448 87.33950 58.29709
#
# Poissons Ratio (x) = 0.11492 -0.02596
# Poissons Ratio (y) = 0.11234 0.04808
# Poissons Ratio (z) = -0.03802 0.07203
#
# Static dielectric constant tensor:
#      x y z
#    x 1.669110 0.000000 0.000000 
#    y 0.000000 1.649010 0.000000 
#    z 0.000000 0.000000 1.649820 
# 
# From -- ./inp_files/12403.got.cif
#   From: 2010.05.17/outbox.cif.g08.bks.cpg/sg62_7_cif.got.tgz:12403.got - 2010.06.03 15:25:27.
