data_PCOD9465967
_publ_section_title
;
Structure prediction by ZEFSAII (Michael W. Deem and Ramdas Pophale) SiO2 
 PCOD9465967
Probable space group: P N M A
;
_chemical_formula_sum "Si O2"
_cell_formula_units_Z 40
_cell_length_a 5.045449
_cell_length_b 13.633497
_cell_length_c 22.735050
_cell_angle_alpha 90.000000
_cell_angle_beta 90.000000
_cell_angle_gamma 90.000000
_cell_volume 1563.878472
_symmetry_space_group_name_H-M "P N M A"
_symmetry_group_IT_number 62
_symmetry_cell_setting 'orthorhombic'
loop_
_space_group_symop_operation_xyz
x,y,z
1/2-x,-y,1/2+z
1/2+x,1/2-y,1/2-z
-x,1/2+y,-z
-x,-y,-z
1/2+x,y,1/2-z
1/2-x,1/2+y,1/2+z
x,1/2-y,z
loop_
_atom_site_type_symbol
_atom_site_label
_atom_site_fract_x
_atom_site_fract_y
_atom_site_fract_z
Si Si1 0.196893 0.137700 0.097870
Si Si2 0.447466 0.137884 0.529941
Si Si3 0.552716 0.542256 0.086178
Si Si4 0.600099 0.867825 0.213244
Si Si5 0.899824 0.369026 0.215188
O O1 0.281445 0.250000 0.110366
O O2 0.026905 0.138555 0.038266
O O3 0.020821 0.101144 0.152785
O O4 0.448260 0.068374 0.088593
O O5 0.475010 0.250000 0.551868
O O6 0.658003 0.068173 0.562314
O O7 0.843661 0.900820 0.455649
O O8 0.530858 0.585374 0.151394
O O9 0.391043 0.893990 0.263978
O O10 0.587244 0.750000 0.206025
O O11 0.106677 0.399188 0.266109
O O12 0.894696 0.250000 0.213770
#
# Coordination Sequence:
#
# PCOD9465967 Si02
#       5
#     8   8   8   8   8
#     4  10  24  43  65  95 132 172 215 263 315 380
#     4  11  24  43  67  95 127 166 214 269 326 380
#     4  12  24  42  67  96 130 169 214 263 322 384
#     4  10  21  38  62  92 125 162 208 262 318 375
#     4   9  19  36  58  84 118 161 206 251 300 359
#
# _framework density 25.577438000000001
#
# number of rings (size 3 to 8) (size 9 to 14) (size 15 to 20)
#    0.000    1.600    0.000    4.200    0.000    6.400 
#    0.000   11.000    0.000    0.000    0.000    0.000 
#    0.000    0.000    0.000    0.000    0.000    0.000 
#
# Total GULP energy -224732.503430 kJ/mol
# GULP energy per Si atom -5618.312586 kJ/mol
# Density = 2.551922 g / cm^3
# Si number density = 25.577438 Si / 1000 Ang^3
#
#
#
# Elastic Constant Matrix: (Units=GPa)
#
#
# Indices 1 2 3 4 5 6 
#
# 1 100.1352 32.6806 10.3393 0.0000 0.0000 0.0000
# 2 32.6806 140.3841 26.3850 0.0000 0.0000 0.0000
# 3 10.3393 26.3850 125.3356 0.0000 0.0000 0.0000
# 4 0.0000 0.0000 0.0000 37.2104 0.0000 0.0000
# 5 0.0000 0.0000 0.0000 0.0000 35.5604 0.0000
# 6 0.0000 0.0000 0.0000 0.0000 0.0000 26.6811
#
#
#
# Elastic Compliance Matrix: (Units=1/GPa)
#
#
# Indices 1 2 3 4 5 6 
#
# 1 0.010825 -0.002449 -0.000377 0.000000 0.000000 0.000000
# 2 -0.002449 0.007971 -0.001476 0.000000 0.000000 0.000000
# 3 -0.000377 -0.001476 0.008320 0.000000 0.000000 0.000000
# 4 0.000000 0.000000 0.000000 0.026874 0.000000 0.000000
# 5 0.000000 0.000000 0.000000 0.000000 0.028121 0.000000
# 6 0.000000 0.000000 0.000000 0.000000 0.000000 0.037480
#
#
# Mechanical properties :
#
#
# Convention : Reuss Voigt Hill
#
# Bulk Modulus (GPa) = 54.02120 56.07386 55.04753
# Shear Modulus (GPa) = 37.21176 39.65374 38.43275
#
# Velocity S-wave (km/s) = 3.81841 3.94171 3.88055
# Velocity P-wave (km/s) = 6.37235 6.53352 6.45344
#
# Compressibility (1/GPa) = 0.01851125
#
# Stress axis : x y z
#
# Youngs Moduli (GPa) = 92.38105 125.45747 120.18623
#
# Poissons Ratio (x) = 0.30725 0.04536
# Poissons Ratio (y) = 0.22624 0.17739
# Poissons Ratio (z) = 0.03487 0.18517
#
# Static dielectric constant tensor:
#      x y z
#    x 1.930550 0.000000 0.000000 
#    y 0.000000 2.055110 0.000000 
#    z 0.000000 0.000000 1.939350 
# 
# From -- ./inp_files/28239.got.cif
#   From: 2010.05.17/outbox.cif.g08.bks.cpg/sg62_15_cif.got.tgz:28239.got - 2010.06.03 15:25:27.
