data_PCOD9465118
_publ_section_title
;
Structure prediction by ZEFSAII (Michael W. Deem and Ramdas Pophale) SiO2 
 PCOD9465118
Probable space group: P N M A
;
_chemical_formula_sum "Si O2"
_cell_formula_units_Z 48
_cell_length_a 9.920802
_cell_length_b 18.333318
_cell_length_c 12.004939
_cell_angle_alpha 90.000000
_cell_angle_beta 90.000000
_cell_angle_gamma 90.000000
_cell_volume 2183.472926
_symmetry_space_group_name_H-M "P N M A"
_symmetry_group_IT_number 62
_symmetry_cell_setting 'orthorhombic'
loop_
_space_group_symop_operation_xyz
x,y,z
1/2-x,-y,1/2+z
1/2+x,1/2-y,1/2-z
-x,1/2+y,-z
-x,-y,-z
1/2+x,y,1/2-z
1/2-x,1/2+y,1/2+z
x,1/2-y,z
loop_
_atom_site_type_symbol
_atom_site_label
_atom_site_fract_x
_atom_site_fract_y
_atom_site_fract_z
Si Si1 0.538125 0.088917 0.886135
Si Si2 0.800288 0.529549 0.571802
Si Si3 0.122065 0.667166 0.561615
Si Si4 0.468174 0.550861 0.358384
Si Si5 0.562354 0.332356 0.470703
Si Si6 0.545490 0.404766 0.245597
O O1 0.560537 0.095496 0.755275
O O2 0.422040 0.027500 0.904805
O O3 0.670672 0.060849 0.949982
O O4 0.477172 0.155262 0.956694
O O5 0.664088 0.488116 0.593230
O O6 0.825183 0.592337 0.664251
O O7 0.110323 0.750000 0.603590
O O8 0.275359 0.656262 0.522075
O O9 0.074937 0.610105 0.656879
O O10 0.511199 0.608024 0.452425
O O11 0.550739 0.480582 0.315381
O O12 0.530308 0.250000 0.504429
O O13 0.535474 0.344782 0.340489
#
# Coordination Sequence:
#
# PCOD9465118 Si02
#       6
#     8   8   8   8   8   8
#     4   9  19  35  54  83 112 149 188 239 278 339
#     4   9  18  33  57  81 111 138 194 239 283 326
#     4  10  20  38  62  82 113 157 195 234 290 354
#     4  11  21  34  60  86 117 149 192 241 288 342
#     4  11  23  38  56  83 119 154 191 233 298 362
#     4  10  21  36  58  89 110 147 191 254 287 330
#
# _framework density 21.983326999999999
#
# number of rings (size 3 to 8) (size 9 to 14) (size 15 to 20)
#    0.000    2.000    1.667    3.000    2.333    0.667 
#    0.000    0.000    0.000    1.000    0.000    0.000 
#    0.000    0.000    0.000    0.000    0.000    0.000 
#
# Total GULP energy -267748.189086 kJ/mol
# GULP energy per Si atom -5578.087273 kJ/mol
# Density = 2.193329 g / cm^3
# Si number density = 21.983327 Si / 1000 Ang^3
#
#
#
# Elastic Constant Matrix: (Units=GPa)
#
#
# Indices 1 2 3 4 5 6 
#
# 1 23.7426 9.5682 -2.9487 0.0000 0.0000 0.0000
# 2 9.5682 74.5501 29.0143 0.0000 0.0000 0.0000
# 3 -2.9487 29.0143 110.8924 0.0000 0.0000 0.0000
# 4 0.0000 0.0000 0.0000 17.5901 0.0000 0.0000
# 5 0.0000 0.0000 0.0000 0.0000 17.8319 0.0000
# 6 0.0000 0.0000 0.0000 0.0000 0.0000 20.3263
#
#
#
# Elastic Compliance Matrix: (Units=1/GPa)
#
#
# Indices 1 2 3 4 5 6 
#
# 1 0.045316 -0.006998 0.003036 0.000000 0.000000 0.000000
# 2 -0.006998 0.016015 -0.004376 0.000000 0.000000 0.000000
# 3 0.003036 -0.004376 0.010244 0.000000 0.000000 0.000000
# 4 0.000000 0.000000 0.000000 0.056850 0.000000 0.000000
# 5 0.000000 0.000000 0.000000 0.000000 0.056079 0.000000
# 6 0.000000 0.000000 0.000000 0.000000 0.000000 0.049197
#
#
# Mechanical properties :
#
#
# Convention : Reuss Voigt Hill
#
# Bulk Modulus (GPa) = 18.21558 31.16140 24.68849
# Shear Modulus (GPa) = 18.60975 22.71976 20.66476
#
# Velocity S-wave (km/s) = 2.91269 3.21830 3.06930
# Velocity P-wave (km/s) = 4.42897 5.29299 4.88014
#
# Compressibility (1/GPa) = 0.05489806
#
# Stress axis : x y z
#
# Youngs Moduli (GPa) = 22.06749 62.44094 97.62277
#
# Poissons Ratio (x) = 0.43694 -0.29637
# Poissons Ratio (y) = 0.15442 0.42723
# Poissons Ratio (z) = -0.06699 0.27326
#
# Static dielectric constant tensor:
#      x y z
#    x 1.833530 0.000000 0.000000 
#    y 0.000000 1.848170 0.000000 
#    z 0.000000 0.000000 1.847450 
# 
# From -- ./inp_files/12238.got.cif
#   From: 2010.05.17/outbox.cif.g08.bks.cpg/sg62_7_cif.got.tgz:12238.got - 2010.06.03 15:25:27.
