data_PCOD9465530
_publ_section_title
;
Structure prediction by ZEFSAII (Michael W. Deem and Ramdas Pophale) SiO2 
 PCOD9465530
Probable space group: P N M A
;
_chemical_formula_sum "Si O2"
_cell_formula_units_Z 64
_cell_length_a 15.103007
_cell_length_b 17.754152
_cell_length_c 12.740806
_cell_angle_alpha 90.000000
_cell_angle_beta 90.000000
_cell_angle_gamma 90.000000
_cell_volume 3416.333506
_symmetry_space_group_name_H-M "P N M A"
_symmetry_group_IT_number 62
_symmetry_cell_setting 'orthorhombic'
loop_
_space_group_symop_operation_xyz
x,y,z
1/2-x,-y,1/2+z
1/2+x,1/2-y,1/2-z
-x,1/2+y,-z
-x,-y,-z
1/2+x,y,1/2-z
1/2-x,1/2+y,1/2+z
x,1/2-y,z
loop_
_atom_site_type_symbol
_atom_site_label
_atom_site_fract_x
_atom_site_fract_y
_atom_site_fract_z
Si Si1 0.295216 0.069178 0.078858
Si Si2 0.540515 0.662077 0.965779
Si Si3 0.614096 0.338271 0.425142
Si Si4 0.885627 0.337034 0.692827
Si Si5 0.620427 0.015085 0.733839
Si Si6 0.791099 0.016357 0.644121
Si Si7 0.947608 0.583194 0.721678
Si Si8 0.457004 0.663652 0.344404
O O1 0.364527 0.138267 0.082188
O O2 0.199122 0.106690 0.070952
O O3 0.317408 0.012049 0.171385
O O4 0.319939 0.023179 0.975384
O O5 0.523523 0.750000 0.954782
O O6 0.472479 0.617704 0.891849
O O7 0.550822 0.646561 0.090908
O O8 0.640136 0.250000 0.425189
O O9 0.564429 0.357958 0.316579
O O10 0.556594 0.350684 0.531316
O O11 0.855838 0.250000 0.680822
O O12 0.808662 0.398874 0.687865
O O13 0.943957 0.343688 0.797835
O O14 0.688103 0.994229 0.641000
O O15 0.598999 0.102338 0.718977
O O16 0.527951 0.971871 0.744906
O O17 0.856620 0.961967 0.706032
O O18 0.429486 0.750000 0.324287
#
# Coordination Sequence:
#
# PCOD9465530 Si02
#       8
#     8   8   8   8   8   8   8   8
#     4  10  21  35  59  87 113 147 196 241 286 341
#     4   9  19  35  58  83 111 146 189 240 290 336
#     4  11  22  39  60  83 116 157 198 237 282 348
#     4   9  19  36  59  85 112 147 192 240 288 341
#     4  11  22  38  58  88 118 153 190 241 292 341
#     4  11  21  37  58  87 116 149 192 237 291 343
#     4  11  23  37  59  86 117 152 193 236 293 345
#     4  10  21  37  58  86 116 151 194 236 285 347
#
# _framework density 18.733533000000001
#
# number of rings (size 3 to 8) (size 9 to 14) (size 15 to 20)
#    0.000    1.750    3.750    0.750    1.750    3.000 
#    2.250    0.000    0.000    0.000    0.000    0.000 
#    0.000    0.000    0.000    0.000    0.000    0.000 
#
# Total GULP energy -356370.503354 kJ/mol
# GULP energy per Si atom -5568.289115 kJ/mol
# Density = 1.869089 g / cm^3
# Si number density = 18.733533 Si / 1000 Ang^3
#
#
#
# Elastic Constant Matrix: (Units=GPa)
#
#
# Indices 1 2 3 4 5 6 
#
# 1 39.6765 -1.4321 -3.5589 0.0000 0.0000 0.0000
# 2 -1.4321 42.6910 21.2719 0.0000 0.0000 0.0000
# 3 -3.5589 21.2719 48.5638 0.0000 0.0000 0.0000
# 4 0.0000 0.0000 0.0000 28.9267 0.0000 0.0000
# 5 0.0000 0.0000 0.0000 0.0000 22.5242 0.0000
# 6 0.0000 0.0000 0.0000 0.0000 0.0000 10.1920
#
#
#
# Elastic Compliance Matrix: (Units=1/GPa)
#
#
# Indices 1 2 3 4 5 6 
#
# 1 0.025371 -0.000096 0.001901 0.000000 0.000000 0.000000
# 2 -0.000096 0.029964 -0.013132 0.000000 0.000000 0.000000
# 3 0.001901 -0.013132 0.026483 0.000000 0.000000 0.000000
# 4 0.000000 0.000000 0.000000 0.034570 0.000000 0.000000
# 5 0.000000 0.000000 0.000000 0.000000 0.044397 0.000000
# 6 0.000000 0.000000 0.000000 0.000000 0.000000 0.098116
#
#
# Mechanical properties :
#
#
# Convention : Reuss Voigt Hill
#
# Bulk Modulus (GPa) = 16.90211 18.16592 17.53401
# Shear Modulus (GPa) = 16.59610 19.97195 18.28402
#
# Velocity S-wave (km/s) = 2.97964 3.26867 3.12750
# Velocity P-wave (km/s) = 4.56943 4.89527 4.73515
#
# Compressibility (1/GPa) = 0.05916420
#
# Stress axis : x y z
#
# Youngs Moduli (GPa) = 39.41525 33.37314 37.76031
#
# Poissons Ratio (x) = 0.00322 -0.07180
# Poissons Ratio (y) = 0.00380 0.49587
# Poissons Ratio (z) = -0.07495 0.43825
#
# Static dielectric constant tensor:
#      x y z
#    x 1.662540 0.000000 0.000000 
#    y 0.000000 1.644780 0.000000 
#    z 0.000000 0.000000 1.679640 
# 
# From -- ./inp_files/13586.got.cif
#   From: 2010.05.17/outbox.cif.g08.bks.cpg/sg62_7_cif.got.tgz:13586.got - 2010.06.03 15:25:27.
