data_PCOD9465080
_publ_section_title
;
Structure prediction by ZEFSAII (Michael W. Deem and Ramdas Pophale) SiO2 
 PCOD9465080
Probable space group: P N M A
;
_chemical_formula_sum "Si O2"
_cell_formula_units_Z 40
_cell_length_a 23.613399
_cell_length_b 16.830060
_cell_length_c 5.126084
_cell_angle_alpha 90.000000
_cell_angle_beta 90.000000
_cell_angle_gamma 90.000000
_cell_volume 2037.182273
_symmetry_space_group_name_H-M "P N M A"
_symmetry_group_IT_number 62
_symmetry_cell_setting 'orthorhombic'
loop_
_space_group_symop_operation_xyz
x,y,z
1/2-x,-y,1/2+z
1/2+x,1/2-y,1/2-z
-x,1/2+y,-z
-x,-y,-z
1/2+x,y,1/2-z
1/2-x,1/2+y,1/2+z
x,1/2-y,z
loop_
_atom_site_type_symbol
_atom_site_label
_atom_site_fract_x
_atom_site_fract_y
_atom_site_fract_z
Si Si1 0.687704 0.433165 0.418169
Si Si2 0.081102 0.750000 0.442637
Si Si3 0.255123 0.106223 0.576095
Si Si4 0.997887 0.393813 0.721055
Si Si5 0.942014 0.568575 0.779809
Si Si6 0.838195 0.250000 0.049601
O O1 0.721642 0.388942 0.650052
O O2 0.709515 0.524104 0.427041
O O3 0.620114 0.431769 0.405001
O O4 0.708103 0.398477 0.145384
O O5 0.042473 0.828011 0.405752
O O6 0.122491 0.750000 0.693003
O O7 0.120412 0.750000 0.192420
O O8 0.297970 0.174348 0.490115
O O9 0.965123 0.478038 0.751625
O O10 0.049634 0.400846 0.515010
O O11 0.020070 0.381118 0.015082
#
# Coordination Sequence:
#
# PCOD9465080 Si02
#       6
#     8   4   8   8   8   4
#     4  10  20  38  60  83 115 154 193 239 284 338
#     4  12  24  40  61  86 119 152 188 244 300 342
#     4  10  22  37  58  87 114 148 199 236 282 350
#     4  10  22  37  58  88 115 149 199 237 285 356
#     4  10  20  38  60  83 116 154 193 240 287 340
#     4  12  24  40  61  86 119 152 188 246 300 342
#
# _framework density 19.634965999999999
#
# number of rings (size 3 to 8) (size 9 to 14) (size 15 to 20)
#    0.000    1.600    0.000    4.800    0.000    6.400 
#    0.000    6.000    0.000    0.000    0.000    0.000 
#    0.000    0.000    0.000    0.000    0.000    0.000 
#
# Total GULP energy -223049.790917 kJ/mol
# GULP energy per Si atom -5576.244773 kJ/mol
# Density = 1.959028 g / cm^3
# Si number density = 19.634966 Si / 1000 Ang^3
#
#
#
# Elastic Constant Matrix: (Units=GPa)
#
#
# Indices 1 2 3 4 5 6 
#
# 1 102.8095 20.5813 26.3479 0.0000 0.0000 0.0000
# 2 20.5813 39.6230 15.6565 0.0000 0.0000 0.0000
# 3 26.3479 15.6565 75.5388 0.0000 0.0000 0.0000
# 4 0.0000 0.0000 0.0000 21.2640 0.0000 0.0000
# 5 0.0000 0.0000 0.0000 0.0000 42.0157 0.0000
# 6 0.0000 0.0000 0.0000 0.0000 0.0000 11.5117
#
#
#
# Elastic Compliance Matrix: (Units=1/GPa)
#
#
# Indices 1 2 3 4 5 6 
#
# 1 0.011450 -0.004759 -0.003007 0.000000 0.000000 0.000000
# 2 -0.004759 0.029467 -0.004448 0.000000 0.000000 0.000000
# 3 -0.003007 -0.004448 0.015209 0.000000 0.000000 0.000000
# 4 0.000000 0.000000 0.000000 0.047028 0.000000 0.000000
# 5 0.000000 0.000000 0.000000 0.000000 0.023801 0.000000
# 6 0.000000 0.000000 0.000000 0.000000 0.000000 0.086868
#
#
# Mechanical properties :
#
#
# Convention : Reuss Voigt Hill
#
# Bulk Modulus (GPa) = 31.54747 38.12698 34.83723
# Shear Modulus (GPa) = 20.09507 25.31732 22.70620
#
# Velocity S-wave (km/s) = 3.20258 3.59472 3.40430
# Velocity P-wave (km/s) = 5.45685 6.05718 5.76483
#
# Compressibility (1/GPa) = 0.03169826
#
# Stress axis : x y z
#
# Youngs Moduli (GPa) = 87.33466 33.93587 65.75038
#
# Poissons Ratio (x) = 0.16151 0.19774
# Poissons Ratio (y) = 0.41565 0.29243
# Poissons Ratio (z) = 0.26265 0.15093
#
# Static dielectric constant tensor:
#      x y z
#    x 1.664980 0.000000 0.000000 
#    y 0.000000 1.634390 0.000000 
#    z 0.000000 0.000000 1.673230 
# 
# From -- ./inp_files/2672.got.cif
#   From: 2010.05.17/outbox.cif.g08.bks.cpg/sg62_2_cif.got.tgz:2672.got - 2010.06.03 15:25:27.
