data_PCOD9465589
_publ_section_title
;
Structure prediction by ZEFSAII (Michael W. Deem and Ramdas Pophale) SiO2 
 PCOD9465589
Probable space group: P N M A
;
_chemical_formula_sum "Si O2"
_cell_formula_units_Z 20
_cell_length_a 23.162200
_cell_length_b 5.270557
_cell_length_c 6.566209
_cell_angle_alpha 90.000000
_cell_angle_beta 90.000000
_cell_angle_gamma 90.000000
_cell_volume 801.587662
_symmetry_space_group_name_H-M "P N M A"
_symmetry_group_IT_number 62
_symmetry_cell_setting 'orthorhombic'
loop_
_space_group_symop_operation_xyz
x,y,z
1/2-x,-y,1/2+z
1/2+x,1/2-y,1/2-z
-x,1/2+y,-z
-x,-y,-z
1/2+x,y,1/2-z
1/2-x,1/2+y,1/2+z
x,1/2-y,z
loop_
_atom_site_type_symbol
_atom_site_label
_atom_site_fract_x
_atom_site_fract_y
_atom_site_fract_z
Si Si1 0.724963 0.250000 0.644695
Si Si2 0.880089 0.750000 0.879114
Si Si3 0.923302 0.250000 0.109982
Si Si4 0.477436 0.750000 0.887785
Si Si5 0.680710 0.750000 0.871437
O O1 0.687705 0.250000 0.433843
O O2 0.705696 0.497929 0.765487
O O3 0.792933 0.250000 0.596431
O O4 0.908685 0.750000 0.655227
O O5 0.904231 0.497271 0.987363
O O6 0.886700 0.250000 0.321169
O O7 0.989652 0.250000 0.171010
O O8 0.500000 0.500000 0.000000
#
# Coordination Sequence:
#
# PCOD9465589 Si02
#       5
#     4   4   4   4   4
#     4  10  21  36  57  82 109 143 181 220 267 318
#     4  10  21  39  58  77 108 150 182 211 266 335
#     4  10  21  39  58  77 108 150 182 211 266 335
#     4  12  24  36  56  86 110 136 180 234 274 304
#     4  10  21  36  57  82 109 143 181 220 267 318
#
# _framework density 24.950485
#
# number of rings (size 3 to 8) (size 9 to 14) (size 15 to 20)
#    0.000    1.600    0.000    4.800    0.000    3.200 
#    0.000    0.000    0.000    0.000    0.000    0.000 
#    0.000    0.000    0.000    0.000    0.000    0.000 
#
# Total GULP energy -111948.974871 kJ/mol
# GULP energy per Si atom -5597.448744 kJ/mol
# Density = 2.489370 g / cm^3
# Si number density = 24.950485 Si / 1000 Ang^3
#
#
#
# Elastic Constant Matrix: (Units=GPa)
#
#
# Indices 1 2 3 4 5 6 
#
# 1 74.4744 18.0725 3.0211 0.0000 0.0000 0.0000
# 2 18.0725 210.7067 28.6609 0.0000 0.0000 0.0000
# 3 3.0211 28.6609 26.1396 0.0000 0.0000 0.0000
# 4 0.0000 0.0000 0.0000 41.5514 0.0000 0.0000
# 5 0.0000 0.0000 0.0000 0.0000 60.1677 0.0000
# 6 0.0000 0.0000 0.0000 0.0000 0.0000 30.3221
#
#
#
# Elastic Compliance Matrix: (Units=1/GPa)
#
#
# Indices 1 2 3 4 5 6 
#
# 1 0.013716 -0.001129 -0.000347 0.000000 0.000000 0.000000
# 2 -0.001129 0.005671 -0.006087 0.000000 0.000000 0.000000
# 3 -0.000347 -0.006087 0.044971 0.000000 0.000000 0.000000
# 4 0.000000 0.000000 0.000000 0.024067 0.000000 0.000000
# 5 0.000000 0.000000 0.000000 0.000000 0.016620 0.000000
# 6 0.000000 0.000000 0.000000 0.000000 0.000000 0.032979
#
#
# Mechanical properties :
#
#
# Convention : Reuss Voigt Hill
#
# Bulk Modulus (GPa) = 20.31285 45.64775 32.98030
# Shear Modulus (GPa) = 29.48807 43.84598 36.66703
#
# Velocity S-wave (km/s) = 3.44155 4.19659 3.83768
# Velocity P-wave (km/s) = 4.89401 6.46659 5.73447
#
# Compressibility (1/GPa) = 0.04922993
#
# Stress axis : x y z
#
# Youngs Moduli (GPa) = 72.91004 176.34218 22.23671
#
# Poissons Ratio (x) = 0.19912 0.00772
# Poissons Ratio (y) = 0.08233 0.13536
# Poissons Ratio (z) = 0.02531 1.07344
#
# Static dielectric constant tensor:
#      x y z
#    x 1.923550 0.000000 0.000000 
#    y 0.000000 1.870180 0.000000 
#    z 0.000000 0.000000 2.009760 
# 
# From -- ./inp_files/2451.got.cif
#   From: 2010.05.17/outbox.cif.g08.bks.cpg/sg62_2_cif.got.tgz:2451.got - 2010.06.03 15:25:27.
