data_PCOD9465403
_publ_section_title
;
Structure prediction by ZEFSAII (Michael W. Deem and Ramdas Pophale) SiO2 
 PCOD9465403
Probable space group: P N M A
;
_chemical_formula_sum "Si O2"
_cell_formula_units_Z 64
_cell_length_a 23.300146
_cell_length_b 13.782056
_cell_length_c 8.202507
_cell_angle_alpha 90.000000
_cell_angle_beta 90.000000
_cell_angle_gamma 90.000000
_cell_volume 2634.021177
_symmetry_space_group_name_H-M "P N M A"
_symmetry_group_IT_number 62
_symmetry_cell_setting 'orthorhombic'
loop_
_space_group_symop_operation_xyz
x,y,z
1/2-x,-y,1/2+z
1/2+x,1/2-y,1/2-z
-x,1/2+y,-z
-x,-y,-z
1/2+x,y,1/2-z
1/2-x,1/2+y,1/2+z
x,1/2-y,z
loop_
_atom_site_type_symbol
_atom_site_label
_atom_site_fract_x
_atom_site_fract_y
_atom_site_fract_z
Si Si1 0.477220 0.394304 0.456210
Si Si2 0.784891 0.367016 0.939340
Si Si3 0.400450 0.144752 0.753024
Si Si4 0.574919 0.145075 0.228241
Si Si5 0.394881 0.989544 0.258467
Si Si6 0.329686 0.867403 0.540925
Si Si7 0.720635 0.958573 0.806122
Si Si8 0.007653 0.131757 0.582848
O O1 0.500000 0.500000 0.500000
O O2 0.449364 0.348629 0.613258
O O3 0.532638 0.345932 0.381451
O O4 0.425895 0.415806 0.331708
O O5 0.775923 0.250000 0.941975
O O6 0.845873 0.388394 0.851165
O O7 0.742804 0.430649 0.826975
O O8 0.779949 0.409419 0.124817
O O9 0.382799 0.250000 0.817786
O O10 0.441869 0.098174 0.888681
O O11 0.593187 0.250000 0.163332
O O12 0.632789 0.101014 0.298863
O O13 0.532203 0.104795 0.093999
O O14 0.359407 0.927013 0.394394
O O15 0.444470 0.918472 0.195308
O O16 0.345457 0.030294 0.139881
O O17 0.334652 0.750000 0.520622
O O18 0.264453 0.897417 0.581511
O O19 0.007494 0.250000 0.596847
#
# Coordination Sequence:
#
# PCOD9465403 Si02
#       8
#     8   8   8   8   8   8   8   8
#     4  12  20  37  64  96 132 171 223 274 344 418
#     4  11  26  48  74 102 140 190 240 299 362 422
#     4  10  20  41  67  92 130 178 226 279 347 426
#     4  10  23  40  62  96 134 175 226 290 352 416
#     4  12  24  40  65  96 132 180 229 288 349 427
#     4  11  23  43  68  93 132 184 238 292 351 423
#     4  12  25  47  67 100 139 184 243 300 349 426
#     4  10  22  40  64  98 134 174 225 284 349 418
#
# _framework density 24.297449
#
# number of rings (size 3 to 8) (size 9 to 14) (size 15 to 20)
#    0.000    1.000    5.000    1.125    1.750    3.500 
#    2.250    0.000    0.000    0.000    0.000    0.000 
#    0.000    0.000    0.000    0.000    0.000    0.000 
#
# Total GULP energy -356860.868088 kJ/mol
# GULP energy per Si atom -5575.951064 kJ/mol
# Density = 2.424215 g / cm^3
# Si number density = 24.297449 Si / 1000 Ang^3
#
#
#
# Elastic Constant Matrix: (Units=GPa)
#
#
# Indices 1 2 3 4 5 6 
#
# 1 125.7092 16.8205 16.0949 0.0000 0.0000 0.0000
# 2 16.8205 143.8551 16.9217 0.0000 0.0000 0.0000
# 3 16.0949 16.9217 40.2419 0.0000 0.0000 0.0000
# 4 0.0000 0.0000 0.0000 22.4303 0.0000 0.0000
# 5 0.0000 0.0000 0.0000 0.0000 49.1417 0.0000
# 6 0.0000 0.0000 0.0000 0.0000 0.0000 11.9882
#
#
#
# Elastic Compliance Matrix: (Units=1/GPa)
#
#
# Indices 1 2 3 4 5 6 
#
# 1 0.008436 -0.000620 -0.003113 0.000000 0.000000 0.000000
# 2 -0.000620 0.007359 -0.002846 0.000000 0.000000 0.000000
# 3 -0.003113 -0.002846 0.027292 0.000000 0.000000 0.000000
# 4 0.000000 0.000000 0.000000 0.044582 0.000000 0.000000
# 5 0.000000 0.000000 0.000000 0.000000 0.020349 0.000000
# 6 0.000000 0.000000 0.000000 0.000000 0.000000 0.083415
#
#
# Mechanical properties :
#
#
# Convention : Reuss Voigt Hill
#
# Bulk Modulus (GPa) = 33.41439 45.49780 39.45610
# Shear Modulus (GPa) = 23.30245 34.04332 28.67288
#
# Velocity S-wave (km/s) = 3.10021 3.74720 3.43895
# Velocity P-wave (km/s) = 5.15724 6.12274 5.66062
#
# Compressibility (1/GPa) = 0.02992722
#
# Stress axis : x y z
#
# Youngs Moduli (GPa) = 118.53297 135.89227 36.64104
#
# Poissons Ratio (x) = 0.08428 0.11408
# Poissons Ratio (y) = 0.07352 0.10429
# Poissons Ratio (z) = 0.36904 0.38679
#
# Static dielectric constant tensor:
#      x y z
#    x 1.953170 0.000000 0.000000 
#    y 0.000000 1.994210 0.000000 
#    z 0.000000 0.000000 2.029650 
# 
# From -- ./inp_files/9514.got.cif
#   From: 2010.05.17/outbox.cif.g08.bks.cpg/sg62_5_cif.got.tgz:9514.got - 2010.06.03 15:25:27.
