data_PCOD9465453
_publ_section_title
;
Structure prediction by ZEFSAII (Michael W. Deem and Ramdas Pophale) SiO2 
 PCOD9465453
Probable space group: P N M A
;
_chemical_formula_sum "Si O2"
_cell_formula_units_Z 64
_cell_length_a 12.905407
_cell_length_b 19.159631
_cell_length_c 12.523348
_cell_angle_alpha 90.000000
_cell_angle_beta 90.000000
_cell_angle_gamma 90.000000
_cell_volume 3096.558543
_symmetry_space_group_name_H-M "P N M A"
_symmetry_group_IT_number 62
_symmetry_cell_setting 'orthorhombic'
loop_
_space_group_symop_operation_xyz
x,y,z
1/2-x,-y,1/2+z
1/2+x,1/2-y,1/2-z
-x,1/2+y,-z
-x,-y,-z
1/2+x,y,1/2-z
1/2-x,1/2+y,1/2+z
x,1/2-y,z
loop_
_atom_site_type_symbol
_atom_site_label
_atom_site_fract_x
_atom_site_fract_y
_atom_site_fract_z
Si Si1 0.536670 0.826268 0.223004
Si Si2 0.575094 0.973413 0.158361
Si Si3 0.293786 0.531499 0.421501
Si Si4 0.891417 0.829302 0.070847
Si Si5 0.228777 0.672927 0.112331
Si Si6 0.886816 0.447218 0.267226
Si Si7 0.578498 0.669559 0.590948
Si Si8 0.786244 0.478861 0.865745
O O1 0.527976 0.750000 0.170821
O O2 0.537102 0.893689 0.147682
O O3 0.448787 0.832453 0.314526
O O4 0.641944 0.824879 0.294255
O O5 0.673635 0.990184 0.085401
O O6 0.627358 0.974828 0.275713
O O7 0.484374 0.029438 0.162731
O O8 0.302318 0.614033 0.429897
O O9 0.357725 0.507396 0.318882
O O10 0.340586 0.492655 0.522383
O O11 0.856886 0.750000 0.054769
O O12 0.975854 0.847275 0.979127
O O13 0.281494 0.750000 0.116628
O O14 0.275058 0.595291 0.129019
O O15 0.170549 0.668258 0.997561
O O16 0.903618 0.380219 0.192368
O O17 0.786058 0.454397 0.341700
O O18 0.568762 0.750000 0.626101
#
# Coordination Sequence:
#
# PCOD9465453 Si02
#       8
#     8   8   8   8   8   8   8   8
#     4   8  14  27  47  74 104 130 165 212 266 321
#     4  10  21  33  51  78 106 144 182 218 277 337
#     4  11  21  34  53  77 110 144 182 229 279 337
#     4   9  17  30  53  82 106 135 178 228 281 322
#     4   8  14  28  51  78 105 134 175 227 273 320
#     4  11  21  35  54  78 111 144 181 233 281 333
#     4   9  17  31  57  84 104 139 187 235 285 324
#     4  10  21  34  52  81 108 142 188 225 282 340
#
# _framework density 20.668105000000001
#
# number of rings (size 3 to 8) (size 9 to 14) (size 15 to 20)
#    0.000    2.500    2.500    2.250    0.000    2.000 
#    0.000    3.125    0.000    3.750    0.000    0.000 
#    0.000    0.000    0.000    0.000    0.000    0.000 
#
# Total GULP energy -356644.833267 kJ/mol
# GULP energy per Si atom -5572.575520 kJ/mol
# Density = 2.062106 g / cm^3
# Si number density = 20.668105 Si / 1000 Ang^3
#
#
#
# Elastic Constant Matrix: (Units=GPa)
#
#
# Indices 1 2 3 4 5 6 
#
# 1 41.9773 5.4151 -12.5213 0.0000 0.0000 0.0000
# 2 5.4151 75.5392 -1.2271 0.0000 0.0000 0.0000
# 3 -12.5213 -1.2271 23.1354 0.0000 0.0000 0.0000
# 4 0.0000 0.0000 0.0000 23.5531 0.0000 0.0000
# 5 0.0000 0.0000 0.0000 0.0000 3.7733 0.0000
# 6 0.0000 0.0000 0.0000 0.0000 0.0000 17.3748
#
#
#
# Elastic Compliance Matrix: (Units=1/GPa)
#
#
# Indices 1 2 3 4 5 6 
#
# 1 0.028652 -0.001804 0.015411 0.000000 0.000000 0.000000
# 2 -0.001804 0.013363 -0.000267 0.000000 0.000000 0.000000
# 3 0.015411 -0.000267 0.051550 0.000000 0.000000 0.000000
# 4 0.000000 0.000000 0.000000 0.042457 0.000000 0.000000
# 5 0.000000 0.000000 0.000000 0.000000 0.265022 0.000000
# 6 0.000000 0.000000 0.000000 0.000000 0.000000 0.057554
#
#
# Mechanical properties :
#
#
# Convention : Reuss Voigt Hill
#
# Bulk Modulus (GPa) = 8.31624 13.77613 11.04619
# Shear Modulus (GPa) = 10.59320 18.87259 14.73290
#
# Velocity S-wave (km/s) = 2.26639 3.02508 2.67279
# Velocity P-wave (km/s) = 3.29866 4.34526 3.85762
#
# Compressibility (1/GPa) = 0.12024658
#
# Stress axis : x y z
#
# Youngs Moduli (GPa) = 34.90142 74.83284 19.39846
#
# Poissons Ratio (x) = 0.13497 -0.29896
# Poissons Ratio (y) = 0.06295 0.00519
# Poissons Ratio (z) = -0.53788 0.02001
#
# Static dielectric constant tensor:
#      x y z
#    x 1.765210 0.000000 0.000000 
#    y 0.000000 1.782460 0.000000 
#    z 0.000000 0.000000 1.719950 
# 
# From -- ./inp_files/19235.got.cif
#   From: 2010.05.17/outbox.cif.g08.bks.cpg/sg62_10_cif.got.tgz:19235.got - 2010.06.03 15:25:27.
