data_PCOD9465626
_publ_section_title
;
Structure prediction by ZEFSAII (Michael W. Deem and Ramdas Pophale) SiO2 
 PCOD9465626
Probable space group: P N M A
;
_chemical_formula_sum "Si O2"
_cell_formula_units_Z 48
_cell_length_a 22.628547
_cell_length_b 9.034679
_cell_length_c 12.038521
_cell_angle_alpha 90.000000
_cell_angle_beta 90.000000
_cell_angle_gamma 90.000000
_cell_volume 2461.175198
_symmetry_space_group_name_H-M "P N M A"
_symmetry_group_IT_number 62
_symmetry_cell_setting 'orthorhombic'
loop_
_space_group_symop_operation_xyz
x,y,z
1/2-x,-y,1/2+z
1/2+x,1/2-y,1/2-z
-x,1/2+y,-z
-x,-y,-z
1/2+x,y,1/2-z
1/2-x,1/2+y,1/2+z
x,1/2-y,z
loop_
_atom_site_type_symbol
_atom_site_label
_atom_site_fract_x
_atom_site_fract_y
_atom_site_fract_z
Si Si1 0.064276 0.071913 0.507884
Si Si2 0.272119 0.927370 0.628664
Si Si3 0.838312 0.082494 0.062120
Si Si4 0.543205 0.584391 0.417270
Si Si5 0.150560 0.427842 0.706411
Si Si6 0.611047 0.426991 0.230157
O O1 0.058108 0.250000 0.507903
O O2 0.099666 0.029836 0.618848
O O3 0.102191 0.031312 0.398055
O O4 0.000000 0.000000 0.500000
O O5 0.264643 0.750000 0.628050
O O6 0.325315 0.964041 0.715618
O O7 0.292004 0.986400 0.508060
O O8 0.212909 0.010525 0.662775
O O9 0.816316 0.250000 0.084253
O O10 0.857442 0.002364 0.174269
O O11 0.895240 0.093240 0.983517
O O12 0.500000 0.500000 0.500000
O O13 0.521019 0.750000 0.394395
O O14 0.559720 0.501174 0.304054
O O15 0.152081 0.250000 0.715041
O O16 0.605080 0.250000 0.239860
#
# Coordination Sequence:
#
# PCOD9465626 Si02
#       6
#     8   8   8   8   8   8
#     4  10  24  43  62  88 124 166 208 255 306 367
#     4  10  21  39  65  94 121 157 201 252 312 372
#     4  10  22  40  60  86 121 158 201 251 302 362
#     4  10  21  36  59  88 117 153 196 247 301 356
#     4  11  24  40  62  92 126 162 201 253 308 367
#     4   9  20  40  62  86 120 158 199 249 304 361
#
# _framework density 19.502877999999999
#
# number of rings (size 3 to 8) (size 9 to 14) (size 15 to 20)
#    0.000    2.000    0.000    2.000    4.667    4.667 
#    0.000    0.000    0.000    0.000    0.000    0.000 
#    0.000    0.000    0.000    0.000    0.000    0.000 
#
# Total GULP energy -268079.424956 kJ/mol
# GULP energy per Si atom -5584.988020 kJ/mol
# Density = 1.945849 g / cm^3
# Si number density = 19.502878 Si / 1000 Ang^3
#
#
#
# Elastic Constant Matrix: (Units=GPa)
#
#
# Indices 1 2 3 4 5 6 
#
# 1 47.9093 23.2660 20.0766 0.0000 0.0000 0.0000
# 2 23.2660 60.5972 37.6335 0.0000 0.0000 0.0000
# 3 20.0766 37.6335 133.6158 0.0000 0.0000 0.0000
# 4 0.0000 0.0000 0.0000 32.3164 0.0000 0.0000
# 5 0.0000 0.0000 0.0000 0.0000 8.2016 0.0000
# 6 0.0000 0.0000 0.0000 0.0000 0.0000 33.6865
#
#
#
# Elastic Compliance Matrix: (Units=1/GPa)
#
#
# Indices 1 2 3 4 5 6 
#
# 1 0.025847 -0.009104 -0.001319 0.000000 0.000000 0.000000
# 2 -0.009104 0.023208 -0.005169 0.000000 0.000000 0.000000
# 3 -0.001319 -0.005169 0.009138 0.000000 0.000000 0.000000
# 4 0.000000 0.000000 0.000000 0.030944 0.000000 0.000000
# 5 0.000000 0.000000 0.000000 0.000000 0.121928 0.000000
# 6 0.000000 0.000000 0.000000 0.000000 0.000000 0.029685
#
#
# Mechanical properties :
#
#
# Convention : Reuss Voigt Hill
#
# Bulk Modulus (GPa) = 37.02572 44.89716 40.96144
# Shear Modulus (GPa) = 17.79751 25.58398 21.69074
#
# Velocity S-wave (km/s) = 3.02413 3.62581 3.33856
# Velocity P-wave (km/s) = 5.58747 6.37177 5.99247
#
# Compressibility (1/GPa) = 0.02700825
#
# Stress axis : x y z
#
# Youngs Moduli (GPa) = 38.68919 43.08864 109.43129
#
# Poissons Ratio (x) = 0.39230 0.14438
# Poissons Ratio (y) = 0.35224 0.56561
# Poissons Ratio (z) = 0.05104 0.22271
#
# Static dielectric constant tensor:
#      x y z
#    x 1.673910 0.000000 0.000000 
#    y 0.000000 1.674030 0.000000 
#    z 0.000000 0.000000 1.679060 
# 
# From -- ./inp_files/15112.got.cif
#   From: 2010.05.17/outbox.cif.g08.bks.cpg/sg62_8_cif.got.tgz:15112.got - 2010.06.03 15:25:27.
