data_PCOD9465715
_publ_section_title
;
Structure prediction by ZEFSAII (Michael W. Deem and Ramdas Pophale) SiO2 
 PCOD9465715
Probable space group: P N M A
;
_chemical_formula_sum "Si O2"
_cell_formula_units_Z 48
_cell_length_a 23.601214
_cell_length_b 8.070622
_cell_length_c 12.292864
_cell_angle_alpha 90.000000
_cell_angle_beta 90.000000
_cell_angle_gamma 90.000000
_cell_volume 2341.501426
_symmetry_space_group_name_H-M "P N M A"
_symmetry_group_IT_number 62
_symmetry_cell_setting 'orthorhombic'
loop_
_space_group_symop_operation_xyz
x,y,z
1/2-x,-y,1/2+z
1/2+x,1/2-y,1/2-z
-x,1/2+y,-z
-x,-y,-z
1/2+x,y,1/2-z
1/2-x,1/2+y,1/2+z
x,1/2-y,z
loop_
_atom_site_type_symbol
_atom_site_label
_atom_site_fract_x
_atom_site_fract_y
_atom_site_fract_z
Si Si1 0.231896 0.555303 0.857609
Si Si2 0.148874 0.557070 0.431558
Si Si3 0.870619 0.051522 0.990656
Si Si4 0.652782 0.444326 0.823951
Si Si5 0.578669 0.546590 0.269292
Si Si6 0.048210 0.449876 0.823139
O O1 0.241736 0.750000 0.877934
O O2 0.290523 0.462506 0.873382
O O3 0.184591 0.491072 0.943932
O O4 0.203634 0.533289 0.739574
O O5 0.137279 0.750000 0.451802
O O6 0.151636 0.471111 0.548006
O O7 0.102255 0.491193 0.346874
O O8 0.865476 0.250000 0.987049
O O9 0.925587 0.010410 0.063406
O O10 0.880927 0.991652 0.868482
O O11 0.659280 0.250000 0.800555
O O12 0.593984 0.501048 0.768252
O O13 0.579329 0.750000 0.268396
O O14 0.514836 0.492491 0.295715
O O15 0.046729 0.250000 0.826261
#
# Coordination Sequence:
#
# PCOD9465715 Si02
#       6
#     8   8   8   8   8   8
#     4  10  21  37  58  83 111 145 188 235 283 340
#     4  11  23  37  56  82 113 152 191 232 281 334
#     4   9  18  34  57  83 111 144 179 227 286 335
#     4  10  21  38  58  80 111 148 187 233 283 333
#     4   9  19  35  55  82 114 147 183 226 282 335
#     4   9  18  35  58  82 110 146 186 228 275 333
#
# _framework density 20.499666999999999
#
# number of rings (size 3 to 8) (size 9 to 14) (size 15 to 20)
#    0.000    2.333    0.000    2.000    2.333    2.000 
#    0.000    3.333    0.000    0.000    0.000    0.000 
#    0.000    0.000    0.000    0.000    0.000    0.000 
#
# Total GULP energy -268042.012869 kJ/mol
# GULP energy per Si atom -5584.208601 kJ/mol
# Density = 2.045301 g / cm^3
# Si number density = 20.499667 Si / 1000 Ang^3
#
#
#
# Elastic Constant Matrix: (Units=GPa)
#
#
# Indices 1 2 3 4 5 6 
#
# 1 23.5993 -4.9027 -6.1915 0.0000 0.0000 0.0000
# 2 -4.9027 16.5021 -5.6713 0.0000 0.0000 0.0000
# 3 -6.1915 -5.6713 89.9113 0.0000 0.0000 0.0000
# 4 0.0000 0.0000 0.0000 13.3358 0.0000 0.0000
# 5 0.0000 0.0000 0.0000 0.0000 11.0807 0.0000
# 6 0.0000 0.0000 0.0000 0.0000 0.0000 19.5739
#
#
#
# Elastic Compliance Matrix: (Units=1/GPa)
#
#
# Indices 1 2 3 4 5 6 
#
# 1 0.046647 0.015294 0.004177 0.000000 0.000000 0.000000
# 2 0.015294 0.066956 0.005277 0.000000 0.000000 0.000000
# 3 0.004177 0.005277 0.011743 0.000000 0.000000 0.000000
# 4 0.000000 0.000000 0.000000 0.074986 0.000000 0.000000
# 5 0.000000 0.000000 0.000000 0.000000 0.090247 0.000000
# 6 0.000000 0.000000 0.000000 0.000000 0.000000 0.051088
#
#
# Mechanical properties :
#
#
# Convention : Reuss Voigt Hill
#
# Bulk Modulus (GPa) = 5.71950 10.72019 8.21984
# Shear Modulus (GPa) = 14.26730 18.58330 16.42530
#
# Velocity S-wave (km/s) = 2.64100 3.01411 2.83370
# Velocity P-wave (km/s) = 3.47792 4.16581 3.83731
#
# Compressibility (1/GPa) = 0.17484056
#
# Stress axis : x y z
#
# Youngs Moduli (GPa) = 21.43750 14.93528 85.16050
#
# Poissons Ratio (x) = -0.22842 -0.35571
# Poissons Ratio (y) = -0.32787 -0.44935
# Poissons Ratio (z) = -0.08954 -0.07881
#
# Static dielectric constant tensor:
#      x y z
#    x 1.719300 0.000000 0.000000 
#    y 0.000000 1.712560 0.000000 
#    z 0.000000 0.000000 1.717970 
# 
# From -- ./inp_files/15147.got.cif
#   From: 2010.05.17/outbox.cif.g08.bks.cpg/sg62_8_cif.got.tgz:15147.got - 2010.06.03 15:25:27.
