data_PCOD9465364
_publ_section_title
;
Structure prediction by ZEFSAII (Michael W. Deem and Ramdas Pophale) SiO2 
 PCOD9465364
Probable space group: P N M A
;
_chemical_formula_sum "Si O2"
_cell_formula_units_Z 48
_cell_length_a 14.373336
_cell_length_b 7.659551
_cell_length_c 18.753108
_cell_angle_alpha 90.000000
_cell_angle_beta 90.000000
_cell_angle_gamma 90.000000
_cell_volume 2064.591547
_symmetry_space_group_name_H-M "P N M A"
_symmetry_group_IT_number 62
_symmetry_cell_setting 'orthorhombic'
loop_
_space_group_symop_operation_xyz
x,y,z
1/2-x,-y,1/2+z
1/2+x,1/2-y,1/2-z
-x,1/2+y,-z
-x,-y,-z
1/2+x,y,1/2-z
1/2-x,1/2+y,1/2+z
x,1/2-y,z
loop_
_atom_site_type_symbol
_atom_site_label
_atom_site_fract_x
_atom_site_fract_y
_atom_site_fract_z
Si Si1 0.158137 0.035543 0.490913
Si Si2 0.675132 0.537978 0.262718
Si Si3 0.545303 0.957577 0.391619
Si Si4 0.136218 0.959833 0.960497
Si Si5 0.850788 0.547586 0.346752
Si Si6 0.951322 0.951896 0.638399
O O1 0.154258 0.250000 0.490627
O O2 0.257544 0.982213 0.458049
O O3 0.154802 0.974854 0.572677
O O4 0.076600 0.973236 0.438675
O O5 0.673845 0.750000 0.256955
O O6 0.600482 0.479608 0.322787
O O7 0.775838 0.477183 0.290929
O O8 0.638410 0.467557 0.188301
O O9 0.558895 0.750000 0.392296
O O10 0.592313 0.026567 0.464627
O O11 0.435566 0.991029 0.398454
O O12 0.137258 0.750000 0.963563
O O13 0.823814 0.750000 0.354640
O O14 0.958605 0.538013 0.326286
O O15 0.975668 0.750000 0.630421
#
# Coordination Sequence:
#
# PCOD9465364 Si02
#       6
#     8   8   8   8   8   8
#     4   9  18  36  60  84 112 151 193 234 283 339
#     4  10  21  39  61  82 110 154 200 238 281 341
#     4   9  17  31  52  80 110 142 185 231 275 329
#     4   9  16  30  54  82 110 143 181 226 282 334
#     4  10  20  40  66  84 107 151 200 240 280 336
#     4  11  24  38  56  87 122 150 184 236 296 350
#
# _framework density 23.24915
#
# number of rings (size 3 to 8) (size 9 to 14) (size 15 to 20)
#    0.000    2.333    1.667    1.000    0.000    2.667 
#    0.000    6.667    0.000    0.000    0.000    0.000 
#    0.000    0.000    0.000    0.000    0.000    0.000 
#
# Total GULP energy -268077.979108 kJ/mol
# GULP energy per Si atom -5584.957898 kJ/mol
# Density = 2.319623 g / cm^3
# Si number density = 23.249150 Si / 1000 Ang^3
#
#
#
# Elastic Constant Matrix: (Units=GPa)
#
#
# Indices 1 2 3 4 5 6 
#
# 1 118.1839 -4.7051 40.9190 0.0000 0.0000 0.0000
# 2 -4.7051 43.4131 -4.4090 0.0000 0.0000 0.0000
# 3 40.9190 -4.4090 67.8546 0.0000 0.0000 0.0000
# 4 0.0000 0.0000 0.0000 12.8620 0.0000 0.0000
# 5 0.0000 0.0000 0.0000 0.0000 31.6188 0.0000
# 6 0.0000 0.0000 0.0000 0.0000 0.0000 15.5064
#
#
#
# Elastic Compliance Matrix: (Units=1/GPa)
#
#
# Indices 1 2 3 4 5 6 
#
# 1 0.010705 0.000508 -0.006423 0.000000 0.000000 0.000000
# 2 0.000508 0.023212 0.001202 0.000000 0.000000 0.000000
# 3 -0.006423 0.001202 0.018689 0.000000 0.000000 0.000000
# 4 0.000000 0.000000 0.000000 0.077749 0.000000 0.000000
# 5 0.000000 0.000000 0.000000 0.000000 0.031627 0.000000
# 6 0.000000 0.000000 0.000000 0.000000 0.000000 0.064490
#
#
# Mechanical properties :
#
#
# Convention : Reuss Voigt Hill
#
# Bulk Modulus (GPa) = 23.15890 32.56235 27.86062
# Shear Modulus (GPa) = 19.97685 25.17387 22.57536
#
# Velocity S-wave (km/s) = 2.93448 3.29414 3.11950
# Velocity P-wave (km/s) = 4.63296 5.33898 4.99845
#
# Compressibility (1/GPa) = 0.04317995
#
# Stress axis : x y z
#
# Youngs Moduli (GPa) = 93.41106 43.08179 53.50842
#
# Poissons Ratio (x) = -0.02188 0.34367
# Poissons Ratio (y) = -0.04745 -0.06431
# Poissons Ratio (z) = 0.59996 -0.05178
#
# Static dielectric constant tensor:
#      x y z
#    x 1.880200 0.000000 0.000000 
#    y 0.000000 1.877040 0.000000 
#    z 0.000000 0.000000 1.874810 
# 
# From -- ./inp_files/23718.got.cif
#   From: 2010.05.17/outbox.cif.g08.bks.cpg/sg62_12_cif.got.tgz:23718.got - 2010.06.03 15:25:27.
