data_PCOD9465551
_publ_section_title
;
Structure prediction by ZEFSAII (Michael W. Deem and Ramdas Pophale) SiO2 
 PCOD9465551
Probable space group: P N M A
;
_chemical_formula_sum "Si O2"
_cell_formula_units_Z 64
_cell_length_a 12.044611
_cell_length_b 7.832204
_cell_length_c 33.921836
_cell_angle_alpha 90.000000
_cell_angle_beta 90.000000
_cell_angle_gamma 90.000000
_cell_volume 3200.045248
_symmetry_space_group_name_H-M "P N M A"
_symmetry_group_IT_number 62
_symmetry_cell_setting 'orthorhombic'
loop_
_space_group_symop_operation_xyz
x,y,z
1/2-x,-y,1/2+z
1/2+x,1/2-y,1/2-z
-x,1/2+y,-z
-x,-y,-z
1/2+x,y,1/2-z
1/2-x,1/2+y,1/2+z
x,1/2-y,z
loop_
_atom_site_type_symbol
_atom_site_label
_atom_site_fract_x
_atom_site_fract_y
_atom_site_fract_z
Si Si1 0.900576 0.452741 0.281797
Si Si2 0.818498 0.543654 0.405459
Si Si3 0.312821 0.043486 0.672210
Si Si4 0.530089 0.045097 0.140810
Si Si5 0.942925 0.550532 0.193239
Si Si6 0.223431 0.549882 0.871246
Si Si7 0.661375 0.547193 0.471244
Si Si8 0.921544 0.042212 0.055731
O O1 0.916630 0.250000 0.278634
O O2 0.773722 0.487511 0.294308
O O3 0.975585 0.519406 0.318260
O O4 0.930047 0.531049 0.239921
O O5 0.815314 0.750000 0.405842
O O6 0.739795 0.485673 0.369237
O O7 0.942390 0.491407 0.393811
O O8 0.764993 0.479774 0.446122
O O9 0.314980 0.250000 0.672190
O O10 0.437251 0.981361 0.679646
O O11 0.537235 0.250000 0.145037
O O12 0.652960 0.976242 0.132672
O O13 0.938914 0.750000 0.182989
O O14 0.843313 0.465302 0.169392
O O15 0.237639 0.750000 0.880621
O O16 0.146000 0.480267 0.906299
O O17 0.677149 0.750000 0.475458
O O18 0.548574 0.518005 0.446494
O O19 0.637087 0.481330 0.515185
O O20 0.924810 0.250000 0.055614
#
# Coordination Sequence:
#
# PCOD9465551 Si02
#       8
#     8   8   8   8   8   8   8   8
#     4  10  21  36  54  75 100 133 174 216 261 313
#     4   9  17  32  54  76 101 136 176 216 260 310
#     4   9  19  35  52  74 102 131 168 215 261 308
#     4   9  20  37  54  73 102 139 176 217 261 309
#     4  11  23  36  54  79 104 133 171 217 267 316
#     4  10  21  37  54  76 107 142 178 214 262 319
#     4   9  17  31  53  80 110 140 174 219 267 312
#     4   9  18  32  52  79 110 143 176 216 264 315
#
# _framework density 19.999715999999999
#
# number of rings (size 3 to 8) (size 9 to 14) (size 15 to 20)
#    0.000    2.500    0.000    1.500    1.750    4.000 
#    0.000    3.125    0.000    0.000    0.000    0.000 
#    0.000    0.000    0.000    0.000    0.000    0.000 
#
# Total GULP energy -357155.091143 kJ/mol
# GULP energy per Si atom -5580.548299 kJ/mol
# Density = 1.995420 g / cm^3
# Si number density = 19.999716 Si / 1000 Ang^3
#
#
#
# Elastic Constant Matrix: (Units=GPa)
#
#
# Indices 1 2 3 4 5 6 
#
# 1 81.8983 -7.5109 26.7433 0.0000 0.0000 0.0000
# 2 -7.5109 17.5149 -6.6045 0.0000 0.0000 0.0000
# 3 26.7433 -6.6045 63.2516 0.0000 0.0000 0.0000
# 4 0.0000 0.0000 0.0000 6.2430 0.0000 0.0000
# 5 0.0000 0.0000 0.0000 0.0000 16.0110 0.0000
# 6 0.0000 0.0000 0.0000 0.0000 0.0000 17.5266
#
#
#
# Elastic Compliance Matrix: (Units=1/GPa)
#
#
# Indices 1 2 3 4 5 6 
#
# 1 0.014437 0.004049 -0.005681 0.000000 0.000000 0.000000
# 2 0.004049 0.060570 0.004613 0.000000 0.000000 0.000000
# 3 -0.005681 0.004613 0.018694 0.000000 0.000000 0.000000
# 4 0.000000 0.000000 0.000000 0.160180 0.000000 0.000000
# 5 0.000000 0.000000 0.000000 0.000000 0.062457 0.000000
# 6 0.000000 0.000000 0.000000 0.000000 0.000000 0.057056
#
#
# Mechanical properties :
#
#
# Convention : Reuss Voigt Hill
#
# Bulk Modulus (GPa) = 10.03410 20.88007 15.45708
# Shear Modulus (GPa) = 12.47962 17.95858 15.21910
#
# Velocity S-wave (km/s) = 2.50069 2.99982 2.76155
# Velocity P-wave (km/s) = 3.65595 4.73935 4.23245
#
# Compressibility (1/GPa) = 0.09966020
#
# Stress axis : x y z
#
# Youngs Moduli (GPa) = 69.26785 16.50990 53.49425
#
# Poissons Ratio (x) = -0.06684 0.30391
# Poissons Ratio (y) = -0.28043 -0.24676
# Poissons Ratio (z) = 0.39353 -0.07616
#
# Static dielectric constant tensor:
#      x y z
#    x 1.697920 0.000000 0.000000 
#    y 0.000000 1.717590 0.000000 
#    z 0.000000 0.000000 1.700250 
# 
# From -- ./inp_files/32537.got.cif
#   From: 2010.05.17/outbox.cif.g08.bks.cpg/sg62_17_cif.got.tgz:32537.got - 2010.06.03 15:25:27.
