data_PCOD9465341
_publ_section_title
;
Structure prediction by ZEFSAII (Michael W. Deem and Ramdas Pophale) SiO2 
 PCOD9465341
Probable space group: P N M A
;
_chemical_formula_sum "Si O2"
_cell_formula_units_Z 64
_cell_length_a 12.859322
_cell_length_b 24.807641
_cell_length_c 8.541805
_cell_angle_alpha 90.000000
_cell_angle_beta 90.000000
_cell_angle_gamma 90.000000
_cell_volume 2724.916461
_symmetry_space_group_name_H-M "P N M A"
_symmetry_group_IT_number 62
_symmetry_cell_setting 'orthorhombic'
loop_
_space_group_symop_operation_xyz
x,y,z
1/2-x,-y,1/2+z
1/2+x,1/2-y,1/2-z
-x,1/2+y,-z
-x,-y,-z
1/2+x,y,1/2-z
1/2-x,1/2+y,1/2+z
x,1/2-y,z
loop_
_atom_site_type_symbol
_atom_site_label
_atom_site_fract_x
_atom_site_fract_y
_atom_site_fract_z
Si Si1 0.629660 0.471321 0.788487
Si Si2 0.240322 0.864727 0.295560
Si Si3 0.893106 0.592757 0.732989
Si Si4 0.027688 0.900914 0.437281
Si Si5 0.335502 0.007895 0.549869
Si Si6 0.006211 0.812483 0.890764
Si Si7 0.189306 0.877488 0.967941
Si Si8 0.429927 0.690977 0.270622
O O1 0.689204 0.417555 0.730002
O O2 0.517652 0.453791 0.849939
O O3 0.710204 0.495697 0.915699
O O4 0.628942 0.502954 0.628578
O O5 0.319237 0.819912 0.354371
O O6 0.144820 0.883290 0.401698
O O7 0.220817 0.843244 0.119226
O O8 0.989913 0.588517 0.613021
O O9 0.881020 0.540181 0.843723
O O10 0.917366 0.647540 0.826934
O O11 0.788832 0.600780 0.628199
O O12 0.962625 0.851623 0.360648
O O13 0.361846 0.071625 0.564764
O O14 0.000374 0.750000 0.839167
O O15 0.113897 0.843924 0.857272
O O16 0.004166 0.813117 0.079708
O O17 0.434442 0.750000 0.201334
#
# Coordination Sequence:
#
# PCOD9465341 Si02
#       8
#     8   8   8   8   8   8   8   8
#     4  10  20  40  61  92 133 173 221 275 336 416
#     4  10  21  39  66  93 131 178 227 283 341 421
#     4  12  24  43  69 104 143 180 229 296 354 414
#     4  11  21  41  64  99 134 174 231 282 347 422
#     4  11  21  42  69  99 144 183 227 286 350 432
#     4  11  27  47  70 100 138 188 242 292 350 418
#     4  11  23  45  70 101 139 189 228 281 364 421
#     4  10  21  41  68  94 126 175 233 296 349 404
#
# _framework density 23.486957
#
# number of rings (size 3 to 8) (size 9 to 14) (size 15 to 20)
#    0.000    1.250    6.250    1.500    0.000    4.500 
#    2.250    4.375    0.000    0.000    0.000    0.000 
#    0.000    0.000    0.000    0.000    0.000    0.000 
#
# Total GULP energy -356886.577464 kJ/mol
# GULP energy per Si atom -5576.352773 kJ/mol
# Density = 2.343350 g / cm^3
# Si number density = 23.486957 Si / 1000 Ang^3
#
#
#
# Elastic Constant Matrix: (Units=GPa)
#
#
# Indices 1 2 3 4 5 6 
#
# 1 83.3324 24.0062 -5.7201 0.0000 0.0000 0.0000
# 2 24.0062 95.2689 14.2431 0.0000 0.0000 0.0000
# 3 -5.7201 14.2431 52.3840 0.0000 0.0000 0.0000
# 4 0.0000 0.0000 0.0000 28.9067 0.0000 0.0000
# 5 0.0000 0.0000 0.0000 0.0000 26.4059 0.0000
# 6 0.0000 0.0000 0.0000 0.0000 0.0000 14.2724
#
#
#
# Elastic Compliance Matrix: (Units=1/GPa)
#
#
# Indices 1 2 3 4 5 6 
#
# 1 0.013235 -0.003701 0.002452 0.000000 0.000000 0.000000
# 2 -0.003701 0.011977 -0.003661 0.000000 0.000000 0.000000
# 3 0.002452 -0.003661 0.020353 0.000000 0.000000 0.000000
# 4 0.000000 0.000000 0.000000 0.034594 0.000000 0.000000
# 5 0.000000 0.000000 0.000000 0.000000 0.037870 0.000000
# 6 0.000000 0.000000 0.000000 0.000000 0.000000 0.070065
#
#
# Mechanical properties :
#
#
# Convention : Reuss Voigt Hill
#
# Bulk Modulus (GPa) = 27.97732 32.89374 30.43553
# Shear Modulus (GPa) = 23.82890 27.14740 25.48815
#
# Velocity S-wave (km/s) = 3.18867 3.40347 3.29782
# Velocity P-wave (km/s) = 5.04921 5.42958 5.24284
#
# Compressibility (1/GPa) = 0.03574323
#
# Stress axis : x y z
#
# Youngs Moduli (GPa) = 75.55876 83.49628 49.13324
#
# Poissons Ratio (x) = 0.30906 -0.12046
# Poissons Ratio (y) = 0.27968 0.17986
# Poissons Ratio (z) = -0.18524 0.30565
#
# Static dielectric constant tensor:
#      x y z
#    x 2.026810 0.000000 0.000000 
#    y 0.000000 1.967390 0.000000 
#    z 0.000000 0.000000 2.003240 
# 
# From -- ./inp_files/6933.got.cif
#   From: 2010.05.17/outbox.cif.g08.bks.cpg/sg62_4_cif.got.tgz:6933.got - 2010.06.03 15:25:27.
