data_PCOD9465981
_publ_section_title
;
Structure prediction by ZEFSAII (Michael W. Deem and Ramdas Pophale) SiO2 
 PCOD9465981
Probable space group: P N M A
;
_chemical_formula_sum "Si O2"
_cell_formula_units_Z 48
_cell_length_a 9.614977
_cell_length_b 8.781304
_cell_length_c 27.521160
_cell_angle_alpha 90.000000
_cell_angle_beta 90.000000
_cell_angle_gamma 90.000000
_cell_volume 2323.667572
_symmetry_space_group_name_H-M "P N M A"
_symmetry_group_IT_number 62
_symmetry_cell_setting 'orthorhombic'
loop_
_space_group_symop_operation_xyz
x,y,z
1/2-x,-y,1/2+z
1/2+x,1/2-y,1/2-z
-x,1/2+y,-z
-x,-y,-z
1/2+x,y,1/2-z
1/2-x,1/2+y,1/2+z
x,1/2-y,z
loop_
_atom_site_type_symbol
_atom_site_label
_atom_site_fract_x
_atom_site_fract_y
_atom_site_fract_z
Si Si1 0.076686 0.076043 0.955642
Si Si2 0.674513 0.432747 0.707801
Si Si3 0.862822 0.568399 0.793449
Si Si4 0.193084 0.574300 0.105232
Si Si5 0.172308 0.934364 0.393831
Si Si6 0.567257 0.569020 0.951197
O O1 0.104397 0.250000 0.969348
O O2 0.219847 0.011339 0.935437
O O3 0.967236 0.074664 0.911436
O O4 0.000000 0.000000 0.000000
O O5 0.659112 0.250000 0.710945
O O6 0.768881 0.494389 0.751536
O O7 0.521092 0.505936 0.708694
O O8 0.757099 0.467074 0.657789
O O9 0.863789 0.750000 0.788860
O O10 0.798648 0.518612 0.845189
O O11 0.236036 0.750000 0.112434
O O12 0.283640 0.500919 0.062296
O O13 0.155607 0.750000 0.397367
O O14 0.029490 0.016886 0.406071
O O15 0.574400 0.750000 0.955576
O O16 0.500000 0.500000 0.000000
#
# Coordination Sequence:
#
# PCOD9465981 Si02
#       6
#     8   8   8   8   8   8
#     4  10  21  38  63  94 124 160 210 260 316 383
#     4  11  24  46  72  97 130 177 222 267 330 402
#     4  12  26  44  68 102 137 170 217 277 332 391
#     4  11  23  44  68  94 129 174 221 267 326 396
#     4  10  22  43  67  93 127 170 219 268 321 391
#     4  12  26  43  64  96 134 176 223 272 330 390
#
# _framework density 20.657
#
# number of rings (size 3 to 8) (size 9 to 14) (size 15 to 20)
#    0.000    1.000    1.667    5.000    2.333    6.000 
#    0.000    0.000    0.000    0.000    0.000    0.000 
#    0.000    0.000    0.000    0.000    0.000    0.000 
#
# Total GULP energy -268507.178666 kJ/mol
# GULP energy per Si atom -5593.899556 kJ/mol
# Density = 2.060998 g / cm^3
# Si number density = 20.657000 Si / 1000 Ang^3
#
#
#
# Elastic Constant Matrix: (Units=GPa)
#
#
# Indices 1 2 3 4 5 6 
#
# 1 81.8138 20.1818 9.8109 0.0000 0.0000 0.0000
# 2 20.1818 88.4940 24.0250 0.0000 0.0000 0.0000
# 3 9.8109 24.0250 89.7538 0.0000 0.0000 0.0000
# 4 0.0000 0.0000 0.0000 25.1561 0.0000 0.0000
# 5 0.0000 0.0000 0.0000 0.0000 39.5212 0.0000
# 6 0.0000 0.0000 0.0000 0.0000 0.0000 34.6647
#
#
#
# Elastic Compliance Matrix: (Units=1/GPa)
#
#
# Indices 1 2 3 4 5 6 
#
# 1 0.012989 -0.002779 -0.000676 0.000000 0.000000 0.000000
# 2 -0.002779 0.012780 -0.003117 0.000000 0.000000 0.000000
# 3 -0.000676 -0.003117 0.012050 0.000000 0.000000 0.000000
# 4 0.000000 0.000000 0.000000 0.039752 0.000000 0.000000
# 5 0.000000 0.000000 0.000000 0.000000 0.025303 0.000000
# 6 0.000000 0.000000 0.000000 0.000000 0.000000 0.028848
#
#
# Mechanical properties :
#
#
# Convention : Reuss Voigt Hill
#
# Bulk Modulus (GPa) = 40.52619 40.89967 40.71293
# Shear Modulus (GPa) = 32.66026 33.60466 33.13246
#
# Velocity S-wave (km/s) = 3.98059 4.03773 4.00926
# Velocity P-wave (km/s) = 6.38655 6.44826 6.41748
#
# Compressibility (1/GPa) = 0.02467540
#
# Stress axis : x y z
#
# Youngs Moduli (GPa) = 76.98575 78.24597 82.98829
#
# Poissons Ratio (x) = 0.21743 0.05610
# Poissons Ratio (y) = 0.21393 0.25869
# Poissons Ratio (z) = 0.05205 0.24391
#
# Static dielectric constant tensor:
#      x y z
#    x 1.723160 0.000000 0.000000 
#    y 0.000000 1.700050 0.000000 
#    z 0.000000 0.000000 1.739390 
# 
# From -- ./inp_files/32008.got.cif
#   From: 2010.05.17/outbox.cif.g08.bks.cpg/sg62_17_cif.got.tgz:32008.got - 2010.06.03 15:25:27.
