data_PCOD9465182
_publ_section_title
;
Structure prediction by ZEFSAII (Michael W. Deem and Ramdas Pophale) SiO2 
 PCOD9465182
Probable space group: P N M A
;
_chemical_formula_sum "Si O2"
_cell_formula_units_Z 64
_cell_length_a 19.625991
_cell_length_b 27.886786
_cell_length_c 5.551993
_cell_angle_alpha 90.000000
_cell_angle_beta 90.000000
_cell_angle_gamma 90.000000
_cell_volume 3038.638032
_symmetry_space_group_name_H-M "P N M A"
_symmetry_group_IT_number 62
_symmetry_cell_setting 'orthorhombic'
loop_
_space_group_symop_operation_xyz
x,y,z
1/2-x,-y,1/2+z
1/2+x,1/2-y,1/2-z
-x,1/2+y,-z
-x,-y,-z
1/2+x,y,1/2-z
1/2-x,1/2+y,1/2+z
x,1/2-y,z
loop_
_atom_site_type_symbol
_atom_site_label
_atom_site_fract_x
_atom_site_fract_y
_atom_site_fract_z
Si Si1 0.123184 0.581672 0.966697
Si Si2 0.722247 0.304006 0.486087
Si Si3 0.491403 0.305708 0.099323
Si Si4 0.843052 0.604163 0.736880
Si Si5 0.212176 0.491127 0.036063
Si Si6 0.521657 0.117822 0.451901
Si Si7 0.859289 0.138441 0.541175
Si Si8 0.876985 0.842899 0.343299
O O1 0.142321 0.606179 0.706700
O O2 0.041470 0.583592 0.987387
O O3 0.151702 0.528261 0.980571
O O4 0.148278 0.610059 0.206525
O O5 0.721250 0.250000 0.389866
O O6 0.683361 0.344583 0.332466
O O7 0.798594 0.323108 0.521467
O O8 0.676856 0.307123 0.726773
O O9 0.475107 0.250000 0.107123
O O10 0.492027 0.331500 0.358743
O O11 0.432937 0.335070 0.957842
O O12 0.568064 0.313599 0.001744
O O13 0.808936 0.561718 0.878441
O O14 0.924725 0.598340 0.756127
O O15 0.832563 0.613461 0.456326
O O16 0.247752 0.510555 0.282472
O O17 0.571863 0.129653 0.666173
#
# Coordination Sequence:
#
# PCOD9465182 Si02
#       8
#     8   8   8   8   8   8   8   8
#     4  11  23  46  70  97 134 176 220 280 342 403
#     4  11  24  40  62  95 134 183 225 278 340 401
#     4  10  20  38  63  95 132 179 228 280 335 403
#     4  10  24  42  65  95 136 171 226 288 333 409
#     4  12  27  45  71 102 133 179 227 273 347 410
#     4   9  21  40  64  92 130 170 224 274 344 394
#     4  11  24  43  67  99 137 177 226 284 332 402
#     4  10  21  40  63  92 134 173 226 276 339 395
#
# _framework density 21.062066999999999
#
# number of rings (size 3 to 8) (size 9 to 14) (size 15 to 20)
#    0.000    1.500    1.250    3.000    7.000    6.000 
#    0.000    1.875    0.000    0.000    0.000    0.000 
#    0.000    0.000    0.000    0.000    0.000    0.000 
#
# Total GULP energy -356623.500702 kJ/mol
# GULP energy per Si atom -5572.242198 kJ/mol
# Density = 2.101413 g / cm^3
# Si number density = 21.062067 Si / 1000 Ang^3
#
#
#
# Elastic Constant Matrix: (Units=GPa)
#
#
# Indices 1 2 3 4 5 6 
#
# 1 94.5668 31.6098 14.8422 0.0000 0.0000 0.0000
# 2 31.6098 75.7984 10.3227 0.0000 0.0000 0.0000
# 3 14.8422 10.3227 67.1135 0.0000 0.0000 0.0000
# 4 0.0000 0.0000 0.0000 21.4453 0.0000 0.0000
# 5 0.0000 0.0000 0.0000 0.0000 26.0801 0.0000
# 6 0.0000 0.0000 0.0000 0.0000 0.0000 14.6009
#
#
#
# Elastic Compliance Matrix: (Units=1/GPa)
#
#
# Indices 1 2 3 4 5 6 
#
# 1 0.012548 -0.004959 -0.002012 0.000000 0.000000 0.000000
# 2 -0.004959 0.015435 -0.001277 0.000000 0.000000 0.000000
# 3 -0.002012 -0.001277 0.015542 0.000000 0.000000 0.000000
# 4 0.000000 0.000000 0.000000 0.046630 0.000000 0.000000
# 5 0.000000 0.000000 0.000000 0.000000 0.038343 0.000000
# 6 0.000000 0.000000 0.000000 0.000000 0.000000 0.068489
#
#
# Mechanical properties :
#
#
# Convention : Reuss Voigt Hill
#
# Bulk Modulus (GPa) = 36.99939 39.00312 38.00126
# Shear Modulus (GPa) = 22.47266 24.47220 23.47243
#
# Velocity S-wave (km/s) = 3.27000 3.41238 3.34195
# Velocity P-wave (km/s) = 5.64466 5.83816 5.74223
#
# Compressibility (1/GPa) = 0.02702748
#
# Stress axis : x y z
#
# Youngs Moduli (GPa) = 79.69485 64.78882 64.34331
#
# Poissons Ratio (x) = 0.32127 0.12948
# Poissons Ratio (y) = 0.39518 0.08219
# Poissons Ratio (z) = 0.16037 0.08276
#
# Static dielectric constant tensor:
#      x y z
#    x 1.778240 0.000000 0.000000 
#    y 0.000000 1.744850 0.000000 
#    z 0.000000 0.000000 1.925890 
# 
# From -- ./inp_files/2408.got.cif
#   From: 2010.05.17/outbox.cif.g08.bks.cpg/sg62_2_cif.got.tgz:2408.got - 2010.06.03 15:25:27.
