data_PCOD9465605
_publ_section_title
;
Structure prediction by ZEFSAII (Michael W. Deem and Ramdas Pophale) SiO2 
 PCOD9465605
Probable space group: P N M A
;
_chemical_formula_sum "Si O2"
_cell_formula_units_Z 64
_cell_length_a 12.372255
_cell_length_b 9.143043
_cell_length_c 28.704797
_cell_angle_alpha 90.000000
_cell_angle_beta 90.000000
_cell_angle_gamma 90.000000
_cell_volume 3247.088344
_symmetry_space_group_name_H-M "P N M A"
_symmetry_group_IT_number 62
_symmetry_cell_setting 'orthorhombic'
loop_
_space_group_symop_operation_xyz
x,y,z
1/2-x,-y,1/2+z
1/2+x,1/2-y,1/2-z
-x,1/2+y,-z
-x,-y,-z
1/2+x,y,1/2-z
1/2-x,1/2+y,1/2+z
x,1/2-y,z
loop_
_atom_site_type_symbol
_atom_site_label
_atom_site_fract_x
_atom_site_fract_y
_atom_site_fract_z
Si Si1 0.531345 0.917496 0.568519
Si Si2 0.578176 0.924528 0.096159
Si Si3 0.272636 0.575673 0.471582
Si Si4 0.073937 0.577029 0.212572
Si Si5 0.620122 0.913511 0.673364
Si Si6 0.371317 0.424652 0.060032
Si Si7 0.824908 0.925343 0.876354
Si Si8 0.625171 0.420927 0.190640
O O1 0.522174 0.750000 0.552473
O O2 0.592512 0.919615 0.618647
O O3 0.411915 0.970135 0.583558
O O4 0.609925 0.005140 0.534539
O O5 0.568753 0.750000 0.100151
O O6 0.693546 0.957051 0.072006
O O7 0.481836 0.988020 0.064712
O O8 0.572147 0.001266 0.146197
O O9 0.286790 0.750000 0.474332
O O10 0.202617 0.530573 0.516327
O O11 0.089099 0.750000 0.214664
O O12 0.951797 0.534195 0.198498
O O13 0.145874 0.507120 0.171098
O O14 0.098676 0.501646 0.261538
O O15 0.586298 0.750000 0.689432
O O16 0.745984 0.929676 0.682632
O O17 0.392504 0.250000 0.056098
O O18 0.295196 0.449484 0.104974
O O19 0.840596 0.750000 0.870024
O O20 0.594546 0.250000 0.192532
#
# Coordination Sequence:
#
# PCOD9465605 Si02
#       8
#     8   8   8   8   8   8   8   8
#     4   9  17  33  58  85 111 145 192 241 286 341
#     4  11  23  38  57  86 122 152 192 250 300 345
#     4  10  21  36  57  87 119 154 195 244 298 348
#     4  11  23  37  58  88 119 149 185 238 299 350
#     4   9  19  37  59  82 110 149 193 235 282 344
#     4  10  22  40  60  82 117 164 204 239 289 355
#     4   9  20  40  60  81 114 156 200 243 288 349
#     4  11  22  39  63  86 111 151 198 237 284 351
#
# _framework density 19.709965
#
# number of rings (size 3 to 8) (size 9 to 14) (size 15 to 20)
#    0.000    2.000    1.250    3.000    0.000    6.000 
#    0.000    1.250    0.000    0.000    0.000    0.000 
#    0.000    0.000    0.000    0.000    0.000    0.000 
#
# Total GULP energy -357465.313181 kJ/mol
# GULP energy per Si atom -5585.395518 kJ/mol
# Density = 1.966510 g / cm^3
# Si number density = 19.709965 Si / 1000 Ang^3
#
#
#
# Elastic Constant Matrix: (Units=GPa)
#
#
# Indices 1 2 3 4 5 6 
#
# 1 56.5915 25.7555 -0.1331 0.0000 0.0000 0.0000
# 2 25.7555 71.4601 33.8387 0.0000 0.0000 0.0000
# 3 -0.1331 33.8387 71.0379 0.0000 0.0000 0.0000
# 4 0.0000 0.0000 0.0000 29.3234 0.0000 0.0000
# 5 0.0000 0.0000 0.0000 0.0000 23.5625 0.0000
# 6 0.0000 0.0000 0.0000 0.0000 0.0000 22.2882
#
#
#
# Elastic Compliance Matrix: (Units=1/GPa)
#
#
# Indices 1 2 3 4 5 6 
#
# 1 0.022449 -0.010473 0.005031 0.000000 0.000000 0.000000
# 2 -0.010473 0.022956 -0.010955 0.000000 0.000000 0.000000
# 3 0.005031 -0.010955 0.019305 0.000000 0.000000 0.000000
# 4 0.000000 0.000000 0.000000 0.034103 0.000000 0.000000
# 5 0.000000 0.000000 0.000000 0.000000 0.042440 0.000000
# 6 0.000000 0.000000 0.000000 0.000000 0.000000 0.044867
#
#
# Mechanical properties :
#
#
# Convention : Reuss Voigt Hill
#
# Bulk Modulus (GPa) = 31.33266 35.33463 33.33364
# Shear Modulus (GPa) = 21.78160 24.34338 23.06249
#
# Velocity S-wave (km/s) = 3.32792 3.51818 3.42437
# Velocity P-wave (km/s) = 5.54059 5.87109 5.70823
#
# Compressibility (1/GPa) = 0.03191558
#
# Stress axis : x y z
#
# Youngs Moduli (GPa) = 44.54561 43.56156 51.80099
#
# Poissons Ratio (x) = 0.45624 -0.26061
# Poissons Ratio (y) = 0.46654 0.56746
# Poissons Ratio (z) = -0.22411 0.47720
#
# Static dielectric constant tensor:
#      x y z
#    x 1.684970 0.000000 0.000000 
#    y 0.000000 1.668840 0.000000 
#    z 0.000000 0.000000 1.700780 
# 
# From -- ./inp_files/32585.got.cif
#   From: 2010.05.17/outbox.cif.g08.bks.cpg/sg62_17_cif.got.tgz:32585.got - 2010.06.03 15:25:27.
