data_PCOD9465154
_publ_section_title
;
Structure prediction by ZEFSAII (Michael W. Deem and Ramdas Pophale) SiO2 
 PCOD9465154
Probable space group: P N M A
;
_chemical_formula_sum "Si O2"
_cell_formula_units_Z 44
_cell_length_a 14.447463
_cell_length_b 9.200801
_cell_length_c 14.745036
_cell_angle_alpha 90.000000
_cell_angle_beta 90.000000
_cell_angle_gamma 90.000000
_cell_volume 1960.031567
_symmetry_space_group_name_H-M "P N M A"
_symmetry_group_IT_number 62
_symmetry_cell_setting 'orthorhombic'
loop_
_space_group_symop_operation_xyz
x,y,z
1/2-x,-y,1/2+z
1/2+x,1/2-y,1/2-z
-x,1/2+y,-z
-x,-y,-z
1/2+x,y,1/2-z
1/2-x,1/2+y,1/2+z
x,1/2-y,z
loop_
_atom_site_type_symbol
_atom_site_label
_atom_site_fract_x
_atom_site_fract_y
_atom_site_fract_z
Si Si1 0.333205 0.922804 0.447786
Si Si2 0.459834 0.078310 0.297815
Si Si3 0.502430 0.250000 0.048440
Si Si4 0.374974 0.504122 0.964125
Si Si5 0.364044 0.420397 0.639983
Si Si6 0.344274 0.909020 0.166825
O O1 0.350763 0.750000 0.445348
O O2 0.224380 0.951657 0.428841
O O3 0.396822 0.009220 0.377474
O O4 0.355743 0.987960 0.547033
O O5 0.471484 0.250000 0.308449
O O6 0.555474 0.991827 0.301946
O O7 0.402510 0.039191 0.207901
O O8 0.439961 0.373546 0.994987
O O9 0.568567 0.378700 0.092459
O O10 0.353404 0.589648 0.058553
O O11 0.382843 0.250000 0.620543
O O12 0.263868 0.426903 0.687182
O O13 0.376123 0.750000 0.200667
#
# Coordination Sequence:
#
# PCOD9465154 Si02
#       6
#     8   8   4   8   8   8
#     4  11  22  40  65  90 124 159 208 261 305 360
#     4  12  26  41  62  94 124 162 208 255 305 366
#     4  10  20  38  62  96 122 164 212 246 300 374
#     4  10  21  39  64  92 127 163 208 255 307 361
#     4  10  22  43  69  90 120 162 202 253 312 367
#     4  10  22  43  64  88 125 164 199 250 312 366
#
# _framework density 22.448619000000001
#
# number of rings (size 3 to 8) (size 9 to 14) (size 15 to 20)
#    0.000    1.455    1.818    3.273    3.818    1.455 
#    6.545    0.000    0.000    0.000    0.000    0.000 
#    0.000    0.000    0.000    0.000    0.000    0.000 
#
# Total GULP energy -245111.014366 kJ/mol
# GULP energy per Si atom -5570.704872 kJ/mol
# Density = 2.239753 g / cm^3
# Si number density = 22.448619 Si / 1000 Ang^3
#
#
#
# Elastic Constant Matrix: (Units=GPa)
#
#
# Indices 1 2 3 4 5 6 
#
# 1 110.4581 59.3018 7.8449 0.0000 0.0000 0.0000
# 2 59.3018 197.6974 11.1015 0.0000 0.0000 0.0000
# 3 7.8449 11.1015 42.7921 0.0000 0.0000 0.0000
# 4 0.0000 0.0000 0.0000 24.4976 0.0000 0.0000
# 5 0.0000 0.0000 0.0000 0.0000 16.6342 0.0000
# 6 0.0000 0.0000 0.0000 0.0000 0.0000 18.4380
#
#
#
# Elastic Compliance Matrix: (Units=1/GPa)
#
#
# Indices 1 2 3 4 5 6 
#
# 1 0.010848 -0.003189 -0.001161 0.000000 0.000000 0.000000
# 2 -0.003189 0.006070 -0.000990 0.000000 0.000000 0.000000
# 3 -0.001161 -0.000990 0.023839 0.000000 0.000000 0.000000
# 4 0.000000 0.000000 0.000000 0.040820 0.000000 0.000000
# 5 0.000000 0.000000 0.000000 0.000000 0.060117 0.000000
# 6 0.000000 0.000000 0.000000 0.000000 0.000000 0.054236
#
#
# Mechanical properties :
#
#
# Convention : Reuss Voigt Hill
#
# Bulk Modulus (GPa) = 33.24922 56.38265 44.81594
# Shear Modulus (GPa) = 23.08021 30.09392 26.58707
#
# Velocity S-wave (km/s) = 3.20993 3.66535 3.44518
# Velocity P-wave (km/s) = 5.34618 6.56383 5.98605
#
# Compressibility (1/GPa) = 0.03007589
#
# Stress axis : x y z
#
# Youngs Moduli (GPa) = 92.18644 164.73604 41.94874
#
# Poissons Ratio (x) = 0.52529 0.04872
# Poissons Ratio (y) = 0.29395 0.04154
# Poissons Ratio (z) = 0.10707 0.16313
#
# Static dielectric constant tensor:
#      x y z
#    x 1.861780 0.000000 0.000000 
#    y 0.000000 1.773520 0.000000 
#    z 0.000000 0.000000 1.928900 
# 
# From -- ./inp_files/23536.got.cif
#   From: 2010.05.17/outbox.cif.g08.bks.cpg/sg62_12_cif.got.tgz:23536.got - 2010.06.03 15:25:27.
