data_PCOD9465818
_publ_section_title
;
Structure prediction by ZEFSAII (Michael W. Deem and Ramdas Pophale) SiO2 
 PCOD9465818
Probable space group: P N M A
;
_chemical_formula_sum "Si O2"
_cell_formula_units_Z 64
_cell_length_a 16.104270
_cell_length_b 23.616532
_cell_length_c 7.562902
_cell_angle_alpha 90.000000
_cell_angle_beta 90.000000
_cell_angle_gamma 90.000000
_cell_volume 2876.375888
_symmetry_space_group_name_H-M "P N M A"
_symmetry_group_IT_number 62
_symmetry_cell_setting 'orthorhombic'
loop_
_space_group_symop_operation_xyz
x,y,z
1/2-x,-y,1/2+z
1/2+x,1/2-y,1/2-z
-x,1/2+y,-z
-x,-y,-z
1/2+x,y,1/2-z
1/2-x,1/2+y,1/2+z
x,1/2-y,z
loop_
_atom_site_type_symbol
_atom_site_label
_atom_site_fract_x
_atom_site_fract_y
_atom_site_fract_z
Si Si1 0.650156 0.104593 0.912223
Si Si2 0.582722 0.362131 0.384317
Si Si3 0.028807 0.316097 0.749072
Si Si4 0.646207 0.812431 0.150835
Si Si5 0.667746 0.036340 0.279026
Si Si6 0.763356 0.070225 0.619149
Si Si7 0.915126 0.185946 0.255870
Si Si8 0.234799 0.182760 0.355297
O O1 0.562205 0.135631 0.885092
O O2 0.680836 0.071481 0.740702
O O3 0.664927 0.066086 0.085094
O O4 0.709510 0.158086 0.955881
O O5 0.577744 0.332287 0.573239
O O6 0.593950 0.430113 0.377868
O O7 0.496987 0.347565 0.290341
O O8 0.663158 0.337139 0.281417
O O9 0.044029 0.250000 0.698838
O O10 0.930124 0.321628 0.785348
O O11 0.684585 0.750000 0.179852
O O12 0.703905 0.866025 0.123983
O O13 0.596661 0.809205 0.965289
O O14 0.741943 0.049565 0.420404
O O15 0.673766 0.970996 0.224733
O O16 0.925617 0.250000 0.184688
O O17 0.827159 0.162066 0.189234
O O18 0.236454 0.250000 0.350852
#
# Coordination Sequence:
#
# PCOD9465818 Si02
#       8
#     8   8   8   8   8   8   8   8
#     4  11  23  40  68  98 133 178 237 279 349 419
#     4  11  22  41  66  99 139 192 238 289 352 424
#     4  11  23  40  66 102 149 190 232 292 357 425
#     4  10  23  41  64  99 141 181 226 291 361 420
#     4  11  24  46  73  98 134 187 234 295 354 420
#     4  12  24  46  72 101 138 178 238 295 353 426
#     4  10  21  39  64  97 142 184 230 289 351 424
#     4  10  21  37  63  99 135 183 234 284 356 421
#
# _framework density 22.250222000000001
#
# number of rings (size 3 to 8) (size 9 to 14) (size 15 to 20)
#    0.000    1.250    2.500    4.500    1.750    2.000 
#    0.000    3.750    0.000    0.000    0.000    0.000 
#    0.000    0.000    0.000    0.000    0.000    0.000 
#
# Total GULP energy -356839.724941 kJ/mol
# GULP energy per Si atom -5575.620702 kJ/mol
# Density = 2.219958 g / cm^3
# Si number density = 22.250222 Si / 1000 Ang^3
#
#
#
# Elastic Constant Matrix: (Units=GPa)
#
#
# Indices 1 2 3 4 5 6 
#
# 1 70.4376 12.1749 21.4693 0.0000 0.0000 0.0000
# 2 12.1749 81.5508 26.2386 0.0000 0.0000 0.0000
# 3 21.4693 26.2386 90.6643 0.0000 0.0000 0.0000
# 4 0.0000 0.0000 0.0000 30.2697 0.0000 0.0000
# 5 0.0000 0.0000 0.0000 0.0000 23.6389 0.0000
# 6 0.0000 0.0000 0.0000 0.0000 0.0000 4.6079
#
#
#
# Elastic Compliance Matrix: (Units=1/GPa)
#
#
# Indices 1 2 3 4 5 6 
#
# 1 0.015415 -0.001243 -0.003291 0.000000 0.000000 0.000000
# 2 -0.001243 0.013621 -0.003648 0.000000 0.000000 0.000000
# 3 -0.003291 -0.003648 0.012865 0.000000 0.000000 0.000000
# 4 0.000000 0.000000 0.000000 0.033036 0.000000 0.000000
# 5 0.000000 0.000000 0.000000 0.000000 0.042303 0.000000
# 6 0.000000 0.000000 0.000000 0.000000 0.000000 0.217020
#
#
# Mechanical properties :
#
#
# Convention : Reuss Voigt Hill
#
# Bulk Modulus (GPa) = 39.15621 40.26872 39.71246
# Shear Modulus (GPa) = 13.92232 23.88793 18.90512
#
# Velocity S-wave (km/s) = 2.50414 3.28014 2.91806
# Velocity P-wave (km/s) = 5.09876 5.69940 5.40743
#
# Compressibility (1/GPa) = 0.02553874
#
# Stress axis : x y z
#
# Youngs Moduli (GPa) = 64.87313 73.41336 77.73250
#
# Poissons Ratio (x) = 0.09122 0.25579
# Poissons Ratio (y) = 0.08061 0.28356
# Poissons Ratio (z) = 0.21347 0.26780
#
# Static dielectric constant tensor:
#      x y z
#    x 1.870680 0.000000 0.000000 
#    y 0.000000 1.836970 0.000000 
#    z 0.000000 0.000000 1.921730 
# 
# From -- ./inp_files/6976.got.cif
#   From: 2010.05.17/outbox.cif.g08.bks.cpg/sg62_4_cif.got.tgz:6976.got - 2010.06.03 15:25:27.
