data_PCOD9465759
_publ_section_title
;
Structure prediction by ZEFSAII (Michael W. Deem and Ramdas Pophale) SiO2 
 PCOD9465759
Probable space group: P N M A
;
_chemical_formula_sum "Si O2"
_cell_formula_units_Z 48
_cell_length_a 5.310465
_cell_length_b 26.911546
_cell_length_c 15.371224
_cell_angle_alpha 90.000000
_cell_angle_beta 90.000000
_cell_angle_gamma 90.000000
_cell_volume 2196.745017
_symmetry_space_group_name_H-M "P N M A"
_symmetry_group_IT_number 62
_symmetry_cell_setting 'orthorhombic'
loop_
_space_group_symop_operation_xyz
x,y,z
1/2-x,-y,1/2+z
1/2+x,1/2-y,1/2-z
-x,1/2+y,-z
-x,-y,-z
1/2+x,y,1/2-z
1/2-x,1/2+y,1/2+z
x,1/2-y,z
loop_
_atom_site_type_symbol
_atom_site_label
_atom_site_fract_x
_atom_site_fract_y
_atom_site_fract_z
Si Si1 0.754090 0.629048 0.010289
Si Si2 0.750003 0.976433 0.035333
Si Si3 0.242693 0.347728 0.421163
Si Si4 0.371469 0.858417 0.305089
Si Si5 0.767795 0.750000 0.197925
Si Si6 0.259675 0.950931 0.809413
Si Si7 0.655703 0.250000 0.194537
O O1 0.744349 0.573904 0.975977
O O2 0.812968 0.611242 0.109563
O O3 0.483170 0.652343 0.992442
O O4 0.988166 0.657037 0.968722
O O5 0.745315 0.997268 0.135638
O O6 0.500000 0.000000 0.000000
O O7 0.000000 0.000000 0.000000
O O8 0.240269 0.400201 0.368976
O O9 0.196445 0.300396 0.360179
O O10 0.647608 0.864209 0.264949
O O11 0.335826 0.802244 0.343558
O O12 0.471712 0.750000 0.221834
O O13 0.510649 0.949262 0.750570
O O14 0.373934 0.250000 0.232570
#
# Coordination Sequence:
#
# PCOD9465759 Si02
#       7
#     8   8   8   8   4   8   4
#     4  12  24  42  69  96 135 181 223 279 345 412
#     4  12  23  44  66  93 133 175 213 269 345 401
#     4  12  25  44  68 100 137 182 226 283 348 412
#     4  10  21  37  59  88 125 166 214 269 318 382
#     4   8  16  32  52  76 110 152 192 244 310 356
#     4  12  24  41  68  99 128 174 228 277 334 412
#     4  12  26  48  72 104 142 182 228 296 346 398
#
# _framework density 21.850511999999998
#
# number of rings (size 3 to 8) (size 9 to 14) (size 15 to 20)
#    0.000    0.667    3.333    5.000    0.000    2.667 
#    0.000    1.667    0.000    0.000    0.000    0.000 
#    0.000    0.000    0.000    0.000    0.000    0.000 
#
# Total GULP energy -267260.871104 kJ/mol
# GULP energy per Si atom -5567.934815 kJ/mol
# Density = 2.180078 g / cm^3
# Si number density = 21.850512 Si / 1000 Ang^3
#
#
#
# Elastic Constant Matrix: (Units=GPa)
#
#
# Indices 1 2 3 4 5 6 
#
# 1 108.6427 -1.4595 4.3797 0.0000 0.0000 0.0000
# 2 -1.4595 20.7113 -9.3263 0.0000 0.0000 0.0000
# 3 4.3797 -9.3263 55.5556 0.0000 0.0000 0.0000
# 4 0.0000 0.0000 0.0000 32.9591 0.0000 0.0000
# 5 0.0000 0.0000 0.0000 0.0000 50.0838 0.0000
# 6 0.0000 0.0000 0.0000 0.0000 0.0000 14.8491
#
#
#
# Elastic Compliance Matrix: (Units=1/GPa)
#
#
# Indices 1 2 3 4 5 6 
#
# 1 0.009236 0.000349 -0.000669 0.000000 0.000000 0.000000
# 2 0.000349 0.052244 0.008743 0.000000 0.000000 0.000000
# 3 -0.000669 0.008743 0.019520 0.000000 0.000000 0.000000
# 4 0.000000 0.000000 0.000000 0.030341 0.000000 0.000000
# 5 0.000000 0.000000 0.000000 0.000000 0.019967 0.000000
# 6 0.000000 0.000000 0.000000 0.000000 0.000000 0.067344
#
#
# Mechanical properties :
#
#
# Convention : Reuss Voigt Hill
#
# Bulk Modulus (GPa) = 10.22008 19.12193 14.67101
# Shear Modulus (GPa) = 23.31846 32.33277 27.82561
#
# Velocity S-wave (km/s) = 3.27032 3.85089 3.57242
# Velocity P-wave (km/s) = 4.35286 5.34254 4.87289
#
# Compressibility (1/GPa) = 0.09784659
#
# Stress axis : x y z
#
# Youngs Moduli (GPa) = 108.26999 19.14081 51.22832
#
# Poissons Ratio (x) = -0.00669 0.03430
# Poissons Ratio (y) = -0.03783 -0.44788
# Poissons Ratio (z) = 0.07248 -0.16735
#
# Static dielectric constant tensor:
#      x y z
#    x 2.044810 0.000000 0.000000 
#    y 0.000000 1.794710 0.000000 
#    z 0.000000 0.000000 1.865570 
# 
# From -- ./inp_files/16245.got.cif
#   From: 2010.05.17/outbox.cif.g08.bks.cpg/sg62_9_cif.got.tgz:16245.got - 2010.06.03 15:25:27.
