data_PCOD9465728
_publ_section_title
;
Structure prediction by ZEFSAII (Michael W. Deem and Ramdas Pophale) SiO2 
 PCOD9465728
Probable space group: P N M A
;
_chemical_formula_sum "Si O2"
_cell_formula_units_Z 40
_cell_length_a 7.799865
_cell_length_b 13.324938
_cell_length_c 16.449716
_cell_angle_alpha 90.000000
_cell_angle_beta 90.000000
_cell_angle_gamma 90.000000
_cell_volume 1709.663687
_symmetry_space_group_name_H-M "P N M A"
_symmetry_group_IT_number 62
_symmetry_cell_setting 'orthorhombic'
loop_
_space_group_symop_operation_xyz
x,y,z
1/2-x,-y,1/2+z
1/2+x,1/2-y,1/2-z
-x,1/2+y,-z
-x,-y,-z
1/2+x,y,1/2-z
1/2-x,1/2+y,1/2+z
x,1/2-y,z
loop_
_atom_site_type_symbol
_atom_site_label
_atom_site_fract_x
_atom_site_fract_y
_atom_site_fract_z
Si Si1 0.895948 0.465891 0.377392
Si Si2 0.236070 0.141004 0.718531
Si Si3 0.230822 0.955226 0.959132
Si Si4 0.426378 0.250000 0.188486
Si Si5 0.820766 0.250000 0.125825
Si Si6 0.911795 0.642505 0.119341
O O1 0.869424 0.542712 0.304253
O O2 0.788399 0.519319 0.449378
O O3 0.847210 0.353288 0.348274
O O4 0.090136 0.461861 0.409095
O O5 0.157711 0.250000 0.694745
O O6 0.242609 0.141985 0.815573
O O7 0.417516 0.138128 0.673691
O O8 0.155873 0.848362 0.930717
O O9 0.108570 0.045613 0.933833
O O10 0.622961 0.250000 0.157485
O O11 0.420432 0.250000 0.287371
O O12 0.908004 0.750000 0.075871
#
# Coordination Sequence:
#
# PCOD9465728 Si02
#       6
#     8   8   8   4   4   8
#     4  10  22  38  60  87 118 154 196 246 297 353
#     4  10  21  37  58  85 116 151 193 240 291 349
#     4  10  22  38  60  87 118 154 196 246 297 353
#     4  10  22  40  60  88 119 156 201 242 297 356
#     4  10  22  40  60  88 119 156 201 242 297 356
#     4  10  21  37  58  85 116 151 193 240 291 349
#
# _framework density 23.396415000000001
#
# number of rings (size 3 to 8) (size 9 to 14) (size 15 to 20)
#    0.000    2.000    0.000    2.400    2.800    8.000 
#    0.000    0.000    0.000    0.000    0.000    0.000 
#    0.000    0.000    0.000    0.000    0.000    0.000 
#
# Total GULP energy -223418.674004 kJ/mol
# GULP energy per Si atom -5585.466850 kJ/mol
# Density = 2.334316 g / cm^3
# Si number density = 23.396415 Si / 1000 Ang^3
#
#
#
# Elastic Constant Matrix: (Units=GPa)
#
#
# Indices 1 2 3 4 5 6 
#
# 1 44.4794 30.7536 15.8717 0.0000 0.0000 0.0000
# 2 30.7536 245.6816 98.4996 0.0000 0.0000 0.0000
# 3 15.8717 98.4996 82.0488 0.0000 0.0000 0.0000
# 4 0.0000 0.0000 0.0000 37.5019 0.0000 0.0000
# 5 0.0000 0.0000 0.0000 0.0000 41.4532 0.0000
# 6 0.0000 0.0000 0.0000 0.0000 0.0000 33.2880
#
#
#
# Elastic Compliance Matrix: (Units=1/GPa)
#
#
# Indices 1 2 3 4 5 6 
#
# 1 0.024792 -0.002276 -0.002063 0.000000 0.000000 0.000000
# 2 -0.002276 0.008056 -0.009231 0.000000 0.000000 0.000000
# 3 -0.002063 -0.009231 0.023669 0.000000 0.000000 0.000000
# 4 0.000000 0.000000 0.000000 0.026665 0.000000 0.000000
# 5 0.000000 0.000000 0.000000 0.000000 0.024124 0.000000
# 6 0.000000 0.000000 0.000000 0.000000 0.000000 0.030041
#
#
# Mechanical properties :
#
#
# Convention : Reuss Voigt Hill
#
# Bulk Modulus (GPa) = 34.04108 73.60662 53.82385
# Shear Modulus (GPa) = 28.68928 37.58759 33.13844
#
# Velocity S-wave (km/s) = 3.50555 4.01253 3.76758
# Velocity P-wave (km/s) = 5.56475 7.27985 6.47930
#
# Compressibility (1/GPa) = 0.02937627
#
# Stress axis : x y z
#
# Youngs Moduli (GPa) = 40.33496 124.12708 42.24919
#
# Poissons Ratio (x) = 0.28254 0.08717
# Poissons Ratio (y) = 0.09181 0.39001
# Poissons Ratio (z) = 0.08322 1.14585
#
# Static dielectric constant tensor:
#      x y z
#    x 1.925360 0.000000 0.000000 
#    y 0.000000 1.889600 0.000000 
#    z 0.000000 0.000000 1.866210 
# 
# From -- ./inp_files/16708.got.cif
#   From: 2010.05.17/outbox.cif.g08.bks.cpg/sg62_9_cif.got.tgz:16708.got - 2010.06.03 15:25:27.
