data_PCOD9465244
_publ_section_title
;
Structure prediction by ZEFSAII (Michael W. Deem and Ramdas Pophale) SiO2 
 PCOD9465244
Probable space group: P N M A
;
_chemical_formula_sum "Si O2"
_cell_formula_units_Z 56
_cell_length_a 9.741667
_cell_length_b 19.337685
_cell_length_c 13.533655
_cell_angle_alpha 90.000000
_cell_angle_beta 90.000000
_cell_angle_gamma 90.000000
_cell_volume 2549.487358
_symmetry_space_group_name_H-M "P N M A"
_symmetry_group_IT_number 62
_symmetry_cell_setting 'orthorhombic'
loop_
_space_group_symop_operation_xyz
x,y,z
1/2-x,-y,1/2+z
1/2+x,1/2-y,1/2-z
-x,1/2+y,-z
-x,-y,-z
1/2+x,y,1/2-z
1/2-x,1/2+y,1/2+z
x,1/2-y,z
loop_
_atom_site_type_symbol
_atom_site_label
_atom_site_fract_x
_atom_site_fract_y
_atom_site_fract_z
Si Si1 0.960953 0.174488 0.423483
Si Si2 0.675856 0.044124 0.523499
Si Si3 0.788325 0.434813 0.311451
Si Si4 0.759158 0.173208 0.140097
Si Si5 0.309014 0.901974 0.199046
Si Si6 0.595458 0.606270 0.479761
Si Si7 0.616129 0.876318 0.129006
O O1 0.927399 0.250000 0.379862
O O2 0.124375 0.169709 0.428352
O O3 0.912441 0.109822 0.358317
O O4 0.896056 0.170933 0.532333
O O5 0.687989 0.059611 0.406304
O O6 0.557425 0.095627 0.561866
O O7 0.821567 0.054650 0.576476
O O8 0.627903 0.966215 0.534444
O O9 0.743898 0.386364 0.221474
O O10 0.813705 0.514510 0.282265
O O11 0.762967 0.250000 0.184095
O O12 0.885632 0.161891 0.065629
O O13 0.465448 0.881933 0.175721
O O14 0.229469 0.863167 0.287354
O O15 0.208768 0.889009 0.105626
#
# Coordination Sequence:
#
# PCOD9465244 Si02
#       7
#     8   8   8   8   8   8   8
#     4  10  23  43  64  89 128 175 218 259 311 383
#     4   9  21  37  62  87 130 163 208 264 323 365
#     4  10  23  36  61  93 127 166 209 262 318 384
#     4  11  23  39  62  91 130 173 213 253 308 388
#     4  11  23  36  66  93 126 163 212 267 334 366
#     4  10  20  39  58  92 124 167 209 263 310 380
#     4  11  22  42  62  95 127 165 215 269 316 384
#
# _framework density 21.965199999999999
#
# number of rings (size 3 to 8) (size 9 to 14) (size 15 to 20)
#    0.000    1.714    1.429    2.143    6.000    2.857 
#    0.000    4.286    0.000    0.000    0.000    0.000 
#    0.000    0.000    0.000    0.000    0.000    0.000 
#
# Total GULP energy -312175.588513 kJ/mol
# GULP energy per Si atom -5574.564081 kJ/mol
# Density = 2.191521 g / cm^3
# Si number density = 21.965200 Si / 1000 Ang^3
#
#
#
# Elastic Constant Matrix: (Units=GPa)
#
#
# Indices 1 2 3 4 5 6 
#
# 1 101.5353 -10.2956 28.0676 0.0000 0.0000 0.0000
# 2 -10.2956 29.5602 7.2157 0.0000 0.0000 0.0000
# 3 28.0676 7.2157 82.3174 0.0000 0.0000 0.0000
# 4 0.0000 0.0000 0.0000 11.9390 0.0000 0.0000
# 5 0.0000 0.0000 0.0000 0.0000 38.6961 0.0000
# 6 0.0000 0.0000 0.0000 0.0000 0.0000 15.1366
#
#
#
# Elastic Compliance Matrix: (Units=1/GPa)
#
#
# Indices 1 2 3 4 5 6 
#
# 1 0.011582 0.005107 -0.004397 0.000000 0.000000 0.000000
# 2 0.005107 0.036821 -0.004969 0.000000 0.000000 0.000000
# 3 -0.004397 -0.004969 0.014083 0.000000 0.000000 0.000000
# 4 0.000000 0.000000 0.000000 0.083759 0.000000 0.000000
# 5 0.000000 0.000000 0.000000 0.000000 0.025842 0.000000
# 6 0.000000 0.000000 0.000000 0.000000 0.000000 0.066065
#
#
# Mechanical properties :
#
#
# Convention : Reuss Voigt Hill
#
# Bulk Modulus (GPa) = 18.52925 29.26538 23.89732
# Shear Modulus (GPa) = 18.89223 25.71602 22.30413
#
# Velocity S-wave (km/s) = 2.93592 3.42535 3.19004
# Velocity P-wave (km/s) = 4.46620 5.38484 4.94689
#
# Compressibility (1/GPa) = 0.05396872
#
# Stress axis : x y z
#
# Youngs Moduli (GPa) = 86.34038 27.15838 71.00846
#
# Poissons Ratio (x) = -0.13870 0.31221
# Poissons Ratio (y) = -0.44096 0.35284
# Poissons Ratio (z) = 0.37962 0.13495
#
# Static dielectric constant tensor:
#      x y z
#    x 1.819080 0.000000 0.000000 
#    y 0.000000 1.795040 0.000000 
#    z 0.000000 0.000000 1.848370 
# 
# From -- ./inp_files/17216.got.cif
#   From: 2010.05.17/outbox.cif.g08.bks.cpg/sg62_9_cif.got.tgz:17216.got - 2010.06.03 15:25:27.
