data_PCOD9465771
_publ_section_title
;
Structure prediction by ZEFSAII (Michael W. Deem and Ramdas Pophale) SiO2 
 PCOD9465771
Probable space group: P N M A
;
_chemical_formula_sum "Si O2"
_cell_formula_units_Z 48
_cell_length_a 29.183017
_cell_length_b 7.682986
_cell_length_c 9.634272
_cell_angle_alpha 90.000000
_cell_angle_beta 90.000000
_cell_angle_gamma 90.000000
_cell_volume 2160.126244
_symmetry_space_group_name_H-M "P N M A"
_symmetry_group_IT_number 62
_symmetry_cell_setting 'orthorhombic'
loop_
_space_group_symop_operation_xyz
x,y,z
1/2-x,-y,1/2+z
1/2+x,1/2-y,1/2-z
-x,1/2+y,-z
-x,-y,-z
1/2+x,y,1/2-z
1/2-x,1/2+y,1/2+z
x,1/2-y,z
loop_
_atom_site_type_symbol
_atom_site_label
_atom_site_fract_x
_atom_site_fract_y
_atom_site_fract_z
Si Si1 0.988027 0.543385 0.343647
Si Si2 0.616411 0.463018 0.813539
Si Si3 0.806593 0.545019 0.507947
Si Si4 0.140943 0.037114 0.991174
Si Si5 0.776144 0.961465 0.810872
Si Si6 0.543932 0.051004 0.410675
O O1 0.987940 0.750000 0.320846
O O2 0.936534 0.479481 0.310332
O O3 0.000000 0.500000 0.500000
O O4 0.027299 0.468335 0.245673
O O5 0.615694 0.250000 0.817039
O O6 0.645429 0.524519 0.946467
O O7 0.641107 0.514471 0.670173
O O8 0.813944 0.750000 0.532969
O O9 0.770145 0.524072 0.383987
O O10 0.786688 0.475879 0.653848
O O11 0.142749 0.250000 0.993864
O O12 0.182818 0.981098 0.087033
O O13 0.092659 0.969406 0.052886
O O14 0.774158 0.750000 0.808879
O O15 0.551304 0.250000 0.445911
O O16 0.500000 0.000000 0.500000
#
# Coordination Sequence:
#
# PCOD9465771 Si02
#       6
#     8   8   8   8   8   8
#     4  11  23  39  59  86 119 157 200 243 292 346
#     4   9  18  35  58  82 111 151 193 232 280 347
#     4  10  21  37  60  86 113 147 190 235 284 341
#     4   9  18  34  58  84 111 150 193 230 280 347
#     4  10  21  37  60  87 113 146 190 235 283 343
#     4  11  21  37  61  88 119 157 198 241 287 343
#
# _framework density 22.220924
#
# number of rings (size 3 to 8) (size 9 to 14) (size 15 to 20)
#    0.000    2.000    1.667    2.000    2.333    2.000 
#    0.000    3.333    0.000    0.000    0.000    0.000 
#    0.000    0.000    0.000    0.000    0.000    0.000 
#
# Total GULP energy -268074.687876 kJ/mol
# GULP energy per Si atom -5584.889331 kJ/mol
# Density = 2.217035 g / cm^3
# Si number density = 22.220924 Si / 1000 Ang^3
#
#
#
# Elastic Constant Matrix: (Units=GPa)
#
#
# Indices 1 2 3 4 5 6 
#
# 1 66.0886 -9.7327 2.3190 0.0000 0.0000 0.0000
# 2 -9.7327 31.9859 -21.5355 0.0000 0.0000 0.0000
# 3 2.3190 -21.5355 93.1635 0.0000 0.0000 0.0000
# 4 0.0000 0.0000 0.0000 22.0681 0.0000 0.0000
# 5 0.0000 0.0000 0.0000 0.0000 40.7294 0.0000
# 6 0.0000 0.0000 0.0000 0.0000 0.0000 18.3239
#
#
#
# Elastic Compliance Matrix: (Units=1/GPa)
#
#
# Indices 1 2 3 4 5 6 
#
# 1 0.015898 0.005414 0.000856 0.000000 0.000000 0.000000
# 2 0.005414 0.038870 0.008850 0.000000 0.000000 0.000000
# 3 0.000856 0.008850 0.012758 0.000000 0.000000 0.000000
# 4 0.000000 0.000000 0.000000 0.045314 0.000000 0.000000
# 5 0.000000 0.000000 0.000000 0.000000 0.024552 0.000000
# 6 0.000000 0.000000 0.000000 0.000000 0.000000 0.054573
#
#
# Mechanical properties :
#
#
# Convention : Reuss Voigt Hill
#
# Bulk Modulus (GPa) = 10.22848 14.81550 12.52199
# Shear Modulus (GPa) = 25.73130 30.90344 28.31737
#
# Velocity S-wave (km/s) = 3.40660 3.73330 3.57369
# Velocity P-wave (km/s) = 4.48177 5.02645 4.76191
#
# Compressibility (1/GPa) = 0.09776621
#
# Stress axis : x y z
#
# Youngs Moduli (GPa) = 62.89929 25.72684 78.38001
#
# Poissons Ratio (x) = -0.13928 -0.06707
# Poissons Ratio (y) = -0.34052 -0.69369
# Poissons Ratio (z) = -0.05382 -0.22769
#
# Static dielectric constant tensor:
#      x y z
#    x 1.882700 0.000000 0.000000 
#    y 0.000000 1.846760 0.000000 
#    z 0.000000 0.000000 1.828870 
# 
# From -- ./inp_files/10223.got.cif
#   From: 2010.05.17/outbox.cif.g08.bks.cpg/sg62_6_cif.got.tgz:10223.got - 2010.06.03 15:25:27.
