data_PCOD9465345
_publ_section_title
;
Structure prediction by ZEFSAII (Michael W. Deem and Ramdas Pophale) SiO2 
 PCOD9465345
Probable space group: P N M A
;
_chemical_formula_sum "Si O2"
_cell_formula_units_Z 52
_cell_length_a 20.461245
_cell_length_b 16.532215
_cell_length_c 7.995855
_cell_angle_alpha 90.000000
_cell_angle_beta 90.000000
_cell_angle_gamma 90.000000
_cell_volume 2704.755484
_symmetry_space_group_name_H-M "P N M A"
_symmetry_group_IT_number 62
_symmetry_cell_setting 'orthorhombic'
loop_
_space_group_symop_operation_xyz
x,y,z
1/2-x,-y,1/2+z
1/2+x,1/2-y,1/2-z
-x,1/2+y,-z
-x,-y,-z
1/2+x,y,1/2-z
1/2-x,1/2+y,1/2+z
x,1/2-y,z
loop_
_atom_site_type_symbol
_atom_site_label
_atom_site_fract_x
_atom_site_fract_y
_atom_site_fract_z
Si Si1 0.076991 0.484919 0.998476
Si Si2 0.224486 0.920545 0.493425
Si Si3 0.776434 0.750000 0.123673
Si Si4 0.192359 0.922048 0.881736
Si Si5 0.116168 0.250000 0.610740
Si Si6 0.592950 0.975473 0.145404
Si Si7 0.051204 0.087152 0.660085
Si Si8 0.242702 0.750000 0.009070
O O1 0.118649 0.562841 0.943093
O O2 0.084702 0.425011 0.841559
O O3 0.097893 0.467571 0.189404
O O4 0.000000 0.500000 0.000000
O O5 0.261098 0.834838 0.467131
O O6 0.200597 0.925732 0.683427
O O7 0.160126 0.927177 0.376695
O O8 0.267646 0.000539 0.454587
O O9 0.848399 0.750000 0.206766
O O10 0.731951 0.750000 0.291363
O O11 0.216408 0.834219 0.938814
O O12 0.072174 0.172559 0.591234
O O13 0.178559 0.250000 0.489108
O O14 0.526896 0.923698 0.172588
O O15 0.579170 0.023139 0.973648
#
# Coordination Sequence:
#
# PCOD9465345 Si02
#       8
#     8   8   4   8   4   8   8   4
#     4  10  21  39  64  92 126 167 215 260 319 392
#     4  12  23  39  64  97 129 171 219 271 337 393
#     4  10  23  38  59  91 126 165 214 271 322 395
#     4  12  23  40  65  95 133 173 217 276 333 395
#     4  10  22  39  62  84 133 164 212 266 326 385
#     4  10  21  37  65  92 126 164 215 265 320 386
#     4  10  20  40  62  92 124 170 213 264 314 395
#     4  10  23  39  61  93 127 165 218 271 326 392
#
# _framework density 19.225398999999999
#
# number of rings (size 3 to 8) (size 9 to 14) (size 15 to 20)
#    0.462    0.923    1.538    5.077    0.000    0.615 
#    0.000    5.385    0.000    0.000    0.000    0.000 
#    0.000    0.000    0.000    0.000    0.000    0.000 
#
# Total GULP energy -289809.257168 kJ/mol
# GULP energy per Si atom -5573.254946 kJ/mol
# Density = 1.918164 g / cm^3
# Si number density = 19.225399 Si / 1000 Ang^3
#
#
#
# Elastic Constant Matrix: (Units=GPa)
#
#
# Indices 1 2 3 4 5 6 
#
# 1 82.0136 62.2781 22.9910 0.0000 0.0000 0.0000
# 2 62.2781 126.0845 9.3898 0.0000 0.0000 0.0000
# 3 22.9910 9.3898 89.7103 0.0000 0.0000 0.0000
# 4 0.0000 0.0000 0.0000 18.8127 0.0000 0.0000
# 5 0.0000 0.0000 0.0000 0.0000 22.8212 0.0000
# 6 0.0000 0.0000 0.0000 0.0000 0.0000 43.3341
#
#
#
# Elastic Compliance Matrix: (Units=1/GPa)
#
#
# Indices 1 2 3 4 5 6 
#
# 1 0.021067 -0.010082 -0.004344 0.000000 0.000000 0.000000
# 2 -0.010082 0.012819 0.001242 0.000000 0.000000 0.000000
# 3 -0.004344 0.001242 0.012130 0.000000 0.000000 0.000000
# 4 0.000000 0.000000 0.000000 0.053156 0.000000 0.000000
# 5 0.000000 0.000000 0.000000 0.000000 0.043819 0.000000
# 6 0.000000 0.000000 0.000000 0.000000 0.000000 0.023077
#
#
# Mechanical properties :
#
#
# Convention : Reuss Voigt Hill
#
# Bulk Modulus (GPa) = 50.89543 54.12512 52.51027
# Shear Modulus (GPa) = 25.12766 30.53691 27.83228
#
# Velocity S-wave (km/s) = 3.61917 3.98975 3.80897
# Velocity P-wave (km/s) = 6.63288 7.03123 6.83495
#
# Compressibility (1/GPa) = 0.01964813
#
# Stress axis : x y z
#
# Youngs Moduli (GPa) = 47.46787 78.01099 82.43895
#
# Poissons Ratio (x) = 0.78653 0.35809
# Poissons Ratio (y) = 0.47858 -0.10240
# Poissons Ratio (z) = 0.20619 -0.09690
#
# Static dielectric constant tensor:
#      x y z
#    x 1.682840 0.000000 0.000000 
#    y 0.000000 1.626770 0.000000 
#    z 0.000000 0.000000 1.658230 
# 
# From -- ./inp_files/8688.got.cif
#   From: 2010.05.17/outbox.cif.g08.bks.cpg/sg62_5_cif.got.tgz:8688.got - 2010.06.03 15:25:27.
