data_PCOD9465022
_publ_section_title
;
Structure prediction by ZEFSAII (Michael W. Deem and Ramdas Pophale) SiO2 
 PCOD9465022
Probable space group: P N M A
;
_chemical_formula_sum "Si O2"
_cell_formula_units_Z 48
_cell_length_a 22.678370
_cell_length_b 13.554427
_cell_length_c 7.537809
_cell_angle_alpha 90.000000
_cell_angle_beta 90.000000
_cell_angle_gamma 90.000000
_cell_volume 2317.064526
_symmetry_space_group_name_H-M "P N M A"
_symmetry_group_IT_number 62
_symmetry_cell_setting 'orthorhombic'
loop_
_space_group_symop_operation_xyz
x,y,z
1/2-x,-y,1/2+z
1/2+x,1/2-y,1/2-z
-x,1/2+y,-z
-x,-y,-z
1/2+x,y,1/2-z
1/2-x,1/2+y,1/2+z
x,1/2-y,z
loop_
_atom_site_type_symbol
_atom_site_label
_atom_site_fract_x
_atom_site_fract_y
_atom_site_fract_z
Si Si1 0.684393 0.475713 0.417958
Si Si2 0.233040 0.364697 0.739937
Si Si3 0.533835 0.136462 0.919704
Si Si4 0.094728 0.636035 0.581612
Si Si5 0.938885 0.010365 0.103176
Si Si6 0.854488 0.563887 0.549068
O O1 0.681300 0.421137 0.229019
O O2 0.716048 0.578050 0.367416
O O3 0.718434 0.419114 0.574391
O O4 0.245431 0.250000 0.767281
O O5 0.176431 0.379818 0.612402
O O6 0.542077 0.250000 0.877975
O O7 0.553794 0.070513 0.756735
O O8 0.466228 0.122186 0.973238
O O9 0.579212 0.104444 0.073003
O O10 0.114025 0.750000 0.565436
O O11 0.076566 0.608812 0.783745
O O12 0.139038 0.551956 0.507963
O O13 0.882501 0.991310 0.981177
O O14 0.000000 0.000000 0.000000
#
# Coordination Sequence:
#
# PCOD9465022 Si02
#       6
#     8   8   8   8   8   8
#     4  12  25  47  70 102 139 181 240 288 352 423
#     4  12  27  48  71 100 138 185 236 289 349 421
#     4  10  20  37  62  96 137 182 227 281 348 413
#     4  10  21  38  63  98 144 189 231 289 360 422
#     4  11  22  39  66 100 139 180 231 291 350 421
#     4  11  22  43  69  94 134 180 234 292 339 414
#
# _framework density 20.715865000000001
#
# number of rings (size 3 to 8) (size 9 to 14) (size 15 to 20)
#    0.000    1.000    5.000    4.500    0.000    3.333 
#    0.000    0.000    0.000    0.000    0.000    0.000 
#    0.000    0.000    0.000    0.000    0.000    0.000 
#
# Total GULP energy -268058.734101 kJ/mol
# GULP energy per Si atom -5584.556960 kJ/mol
# Density = 2.066871 g / cm^3
# Si number density = 20.715865 Si / 1000 Ang^3
#
#
#
# Elastic Constant Matrix: (Units=GPa)
#
#
# Indices 1 2 3 4 5 6 
#
# 1 64.9337 23.3566 34.1318 0.0000 0.0000 0.0000
# 2 23.3566 106.3799 40.4059 0.0000 0.0000 0.0000
# 3 34.1318 40.4059 117.4200 0.0000 0.0000 0.0000
# 4 0.0000 0.0000 0.0000 9.8011 0.0000 0.0000
# 5 0.0000 0.0000 0.0000 0.0000 29.7182 0.0000
# 6 0.0000 0.0000 0.0000 0.0000 0.0000 30.3998
#
#
#
# Elastic Compliance Matrix: (Units=1/GPa)
#
#
# Indices 1 2 3 4 5 6 
#
# 1 0.018673 -0.002345 -0.004621 0.000000 0.000000 0.000000
# 2 -0.002345 0.011108 -0.003141 0.000000 0.000000 0.000000
# 3 -0.004621 -0.003141 0.010940 0.000000 0.000000 0.000000
# 4 0.000000 0.000000 0.000000 0.102029 0.000000 0.000000
# 5 0.000000 0.000000 0.000000 0.000000 0.033649 0.000000
# 6 0.000000 0.000000 0.000000 0.000000 0.000000 0.032895
#
#
# Mechanical properties :
#
#
# Convention : Reuss Voigt Hill
#
# Bulk Modulus (GPa) = 48.76086 53.83581 51.29833
# Shear Modulus (GPa) = 21.15564 26.70645 23.93105
#
# Velocity S-wave (km/s) = 3.19913 3.59441 3.40252
# Velocity P-wave (km/s) = 6.10205 6.57803 6.34450
#
# Compressibility (1/GPa) = 0.02050825
#
# Stress axis : x y z
#
# Youngs Moduli (GPa) = 53.55428 90.02486 91.40352
#
# Poissons Ratio (x) = 0.21107 0.42237
# Poissons Ratio (y) = 0.12556 0.28709
# Poissons Ratio (z) = 0.24747 0.28276
#
# Static dielectric constant tensor:
#      x y z
#    x 1.802300 0.000000 0.000000 
#    y 0.000000 1.739470 0.000000 
#    z 0.000000 0.000000 1.770860 
# 
# From -- ./inp_files/3198.got.cif
#   From: 2010.05.17/outbox.cif.g08.bks.cpg/sg62_2_cif.got.tgz:3198.got - 2010.06.03 15:25:27.
