data_PCOD9465101
_publ_section_title
;
Structure prediction by ZEFSAII (Michael W. Deem and Ramdas Pophale) SiO2 
 PCOD9465101
Probable space group: P N M A
;
_chemical_formula_sum "Si O2"
_cell_formula_units_Z 40
_cell_length_a 10.819535
_cell_length_b 7.892140
_cell_length_c 21.131609
_cell_angle_alpha 90.000000
_cell_angle_beta 90.000000
_cell_angle_gamma 90.000000
_cell_volume 1804.412982
_symmetry_space_group_name_H-M "P N M A"
_symmetry_group_IT_number 62
_symmetry_cell_setting 'orthorhombic'
loop_
_space_group_symop_operation_xyz
x,y,z
1/2-x,-y,1/2+z
1/2+x,1/2-y,1/2-z
-x,1/2+y,-z
-x,-y,-z
1/2+x,y,1/2-z
1/2-x,1/2+y,1/2+z
x,1/2-y,z
loop_
_atom_site_type_symbol
_atom_site_label
_atom_site_fract_x
_atom_site_fract_y
_atom_site_fract_z
Si Si1 0.463882 0.458670 0.699369
Si Si2 0.301339 0.946039 0.224254
Si Si3 0.090640 0.947880 0.595297
Si Si4 0.440492 0.951855 0.433340
Si Si5 0.166704 0.450334 0.457861
O O1 0.460270 0.250000 0.701566
O O2 0.585344 0.519521 0.736053
O O3 0.335634 0.520890 0.729139
O O4 0.478580 0.510039 0.626298
O O5 0.292396 0.750000 0.244275
O O6 0.340585 0.954997 0.150839
O O7 0.088586 0.750000 0.612746
O O8 0.949716 0.010074 0.583973
O O9 0.155912 0.967690 0.527257
O O10 0.434119 0.750000 0.430216
O O11 0.500000 0.000000 0.500000
O O12 0.300558 0.017855 0.429161
O O13 0.148622 0.250000 0.467131
#
# Coordination Sequence:
#
# PCOD9465101 Si02
#       5
#     8   8   8   8   8
#     4   9  21  37  59  88 117 153 199 243 293 356
#     4  10  20  38  61  85 116 155 198 244 293 355
#     4  10  21  37  58  87 119 153 194 245 303 358
#     4  11  22  37  59  88 121 157 202 251 304 359
#     4  10  21  37  58  86 118 154 198 245 299 359
#
# _framework density 22.167874000000001
#
# number of rings (size 3 to 8) (size 9 to 14) (size 15 to 20)
#    0.000    2.000    0.000    3.000    2.800    4.000 
#    0.000    4.000    0.000    0.000    0.000    0.000 
#    0.000    0.000    0.000    0.000    0.000    0.000 
#
# Total GULP energy -223566.359722 kJ/mol
# GULP energy per Si atom -5589.158993 kJ/mol
# Density = 2.211742 g / cm^3
# Si number density = 22.167874 Si / 1000 Ang^3
#
#
#
# Elastic Constant Matrix: (Units=GPa)
#
#
# Indices 1 2 3 4 5 6 
#
# 1 170.6978 1.9422 56.5606 0.0000 0.0000 0.0000
# 2 1.9422 29.8601 -5.3919 0.0000 0.0000 0.0000
# 3 56.5606 -5.3919 60.0508 0.0000 0.0000 0.0000
# 4 0.0000 0.0000 0.0000 18.4514 0.0000 0.0000
# 5 0.0000 0.0000 0.0000 0.0000 29.9474 0.0000
# 6 0.0000 0.0000 0.0000 0.0000 0.0000 19.1216
#
#
#
# Elastic Compliance Matrix: (Units=1/GPa)
#
#
# Indices 1 2 3 4 5 6 
#
# 1 0.008640 -0.002065 -0.008323 0.000000 0.000000 0.000000
# 2 -0.002065 0.034535 0.005046 0.000000 0.000000 0.000000
# 3 -0.008323 0.005046 0.024945 0.000000 0.000000 0.000000
# 4 0.000000 0.000000 0.000000 0.054196 0.000000 0.000000
# 5 0.000000 0.000000 0.000000 0.000000 0.033392 0.000000
# 6 0.000000 0.000000 0.000000 0.000000 0.000000 0.052297
#
#
# Mechanical properties :
#
#
# Convention : Reuss Voigt Hill
#
# Bulk Modulus (GPa) = 17.41091 40.75893 29.08492
# Shear Modulus (GPa) = 21.02314 27.33728 24.18021
#
# Velocity S-wave (km/s) = 3.08289 3.51550 3.30627
# Velocity P-wave (km/s) = 4.53249 5.90802 5.26536
#
# Compressibility (1/GPa) = 0.05743526
#
# Stress axis : x y z
#
# Youngs Moduli (GPa) = 115.74668 28.95619 40.08870
#
# Poissons Ratio (x) = 0.05979 0.33365
# Poissons Ratio (y) = 0.23900 -0.20227
# Poissons Ratio (z) = 0.96334 -0.14610
#
# Static dielectric constant tensor:
#      x y z
#    x 1.821890 0.000000 0.000000 
#    y 0.000000 1.824760 0.000000 
#    z 0.000000 0.000000 1.779220 
# 
# From -- ./inp_files/22795.got.cif
#   From: 2010.05.17/outbox.cif.g08.bks.cpg/sg62_12_cif.got.tgz:22795.got - 2010.06.03 15:25:27.
