data_PCOD9465238
_publ_section_title
;
Structure prediction by ZEFSAII (Michael W. Deem and Ramdas Pophale) SiO2 
 PCOD9465238
Probable space group: P N M A
;
_chemical_formula_sum "Si O2"
_cell_formula_units_Z 32
_cell_length_a 28.114404
_cell_length_b 8.284716
_cell_length_c 5.106088
_cell_angle_alpha 90.000000
_cell_angle_beta 90.000000
_cell_angle_gamma 90.000000
_cell_volume 1189.309265
_symmetry_space_group_name_H-M "P N M A"
_symmetry_group_IT_number 62
_symmetry_cell_setting 'orthorhombic'
loop_
_space_group_symop_operation_xyz
x,y,z
1/2-x,-y,1/2+z
1/2+x,1/2-y,1/2-z
-x,1/2+y,-z
-x,-y,-z
1/2+x,y,1/2-z
1/2-x,1/2+y,1/2+z
x,1/2-y,z
loop_
_atom_site_type_symbol
_atom_site_label
_atom_site_fract_x
_atom_site_fract_y
_atom_site_fract_z
Si Si1 0.036242 0.435695 0.219560
Si Si2 0.851646 0.573899 0.886642
Si Si3 0.433831 0.250000 0.981662
Si Si4 0.780302 0.444121 0.514579
Si Si5 0.868958 0.250000 0.029919
O O1 0.025120 0.250000 0.291242
O O2 0.040458 0.579794 0.429865
O O3 0.090922 0.424057 0.115797
O O4 0.000000 0.500000 0.000000
O O5 0.834851 0.750000 0.973683
O O6 0.828834 0.536092 0.603117
O O7 0.840161 0.414466 0.052790
O O8 0.392462 0.250000 0.758640
O O9 0.410835 0.250000 0.263418
O O10 0.747326 0.481383 0.769593
O O11 0.786821 0.250000 0.494705
#
# Coordination Sequence:
#
# PCOD9465238 Si02
#       5
#     8   8   4   8   4
#     4  10  20  38  70 100 141 185 236 290 353 420
#     4  10  22  43  69 102 140 184 235 291 357 426
#     4  10  22  40  64  94 132 172 230 276 334 410
#     4  12  26  47  74 108 146 190 241 303 367 442
#     4  10  22  42  66  96 130 176 222 280 342 404
#
# _framework density 26.906376000000002
#
# number of rings (size 3 to 8) (size 9 to 14) (size 15 to 20)
#    0.000    1.500    2.500    2.250    0.000    5.000 
#    0.000   10.000    0.000    0.000    0.000    0.000 
#    0.000    0.000    0.000    0.000    0.000    0.000 
#
# Total GULP energy -179304.972143 kJ/mol
# GULP energy per Si atom -5603.280379 kJ/mol
# Density = 2.684514 g / cm^3
# Si number density = 26.906376 Si / 1000 Ang^3
#
#
#
# Elastic Constant Matrix: (Units=GPa)
#
#
# Indices 1 2 3 4 5 6 
#
# 1 127.0207 36.0085 24.1260 0.0000 0.0000 0.0000
# 2 36.0085 319.1614 44.9867 0.0000 0.0000 0.0000
# 3 24.1260 44.9867 81.3155 0.0000 0.0000 0.0000
# 4 0.0000 0.0000 0.0000 48.6663 0.0000 0.0000
# 5 0.0000 0.0000 0.0000 0.0000 51.0105 0.0000
# 6 0.0000 0.0000 0.0000 0.0000 0.0000 47.1266
#
#
#
# Elastic Compliance Matrix: (Units=1/GPa)
#
#
# Indices 1 2 3 4 5 6 
#
# 1 0.008466 -0.000652 -0.002151 0.000000 0.000000 0.000000
# 2 -0.000652 0.003448 -0.001714 0.000000 0.000000 0.000000
# 3 -0.002151 -0.001714 0.013884 0.000000 0.000000 0.000000
# 4 0.000000 0.000000 0.000000 0.020548 0.000000 0.000000
# 5 0.000000 0.000000 0.000000 0.000000 0.019604 0.000000
# 6 0.000000 0.000000 0.000000 0.000000 0.000000 0.021219
#
#
# Mechanical properties :
#
#
# Convention : Reuss Voigt Hill
#
# Bulk Modulus (GPa) = 59.65153 81.97111 70.81132
# Shear Modulus (GPa) = 49.11912 57.51911 53.31912
#
# Velocity S-wave (km/s) = 4.27729 4.62860 4.45641
# Velocity P-wave (km/s) = 6.82728 7.68744 7.27009
#
# Compressibility (1/GPa) = 0.01676403
#
# Stress axis : x y z
#
# Youngs Moduli (GPa) = 118.11751 289.98889 72.02292
#
# Poissons Ratio (x) = 0.18906 0.15494
# Poissons Ratio (y) = 0.07701 0.12347
# Poissons Ratio (z) = 0.25409 0.49714
#
# Static dielectric constant tensor:
#      x y z
#    x 2.212880 0.000000 0.000000 
#    y 0.000000 2.116870 0.000000 
#    z 0.000000 0.000000 2.103410 
# 
# From -- ./inp_files/3432.got.cif
#   From: 2010.05.17/outbox.cif.g08.bks.cpg/sg62_2_cif.got.tgz:3432.got - 2010.06.03 15:25:27.
