data_PCOD9465742
_publ_section_title
;
Structure prediction by ZEFSAII (Michael W. Deem and Ramdas Pophale) SiO2 
 PCOD9465742
Probable space group: P N M A
;
_chemical_formula_sum "Si O2"
_cell_formula_units_Z 40
_cell_length_a 9.137897
_cell_length_b 25.691436
_cell_length_c 7.710574
_cell_angle_alpha 90.000000
_cell_angle_beta 90.000000
_cell_angle_gamma 90.000000
_cell_volume 1810.178271
_symmetry_space_group_name_H-M "P N M A"
_symmetry_group_IT_number 62
_symmetry_cell_setting 'orthorhombic'
loop_
_space_group_symop_operation_xyz
x,y,z
1/2-x,-y,1/2+z
1/2+x,1/2-y,1/2-z
-x,1/2+y,-z
-x,-y,-z
1/2+x,y,1/2-z
1/2-x,1/2+y,1/2+z
x,1/2-y,z
loop_
_atom_site_type_symbol
_atom_site_label
_atom_site_fract_x
_atom_site_fract_y
_atom_site_fract_z
Si Si1 0.144006 0.306565 0.496668
Si Si2 0.182332 0.090947 0.090571
Si Si3 0.894277 0.018090 0.845034
Si Si4 0.634095 0.415610 0.813544
Si Si5 0.918376 0.158915 0.218037
O O1 0.134801 0.250000 0.585335
O O2 0.112449 0.357802 0.612390
O O3 0.306112 0.313207 0.413027
O O4 0.025404 0.307867 0.340970
O O5 0.181405 0.036838 0.196330
O O6 0.313278 0.125805 0.158277
O O7 0.029648 0.120324 0.122848
O O8 0.189686 0.085228 0.884800
O O9 0.768097 0.056672 0.909857
O O10 0.992025 0.047170 0.700265
O O11 0.000000 0.000000 0.000000
#
# Coordination Sequence:
#
# PCOD9465742 Si02
#       5
#     8   8   8   8   8
#     4  11  23  42  63  88 122 164 209 260 307 356
#     4  10  21  40  62  91 125 160 197 251 310 372
#     4  10  21  37  58  88 124 157 191 246 313 365
#     4  11  22  39  62  93 123 159 212 255 296 368
#     4  10  22  40  63  90 122 160 204 248 311 379
#
# _framework density 22.097270000000002
#
# number of rings (size 3 to 8) (size 9 to 14) (size 15 to 20)
#    0.000    1.600    0.000    5.400    0.000    4.800 
#    0.000   23.000    0.000    0.000    0.000    0.000 
#    0.000    0.000    0.000    0.000    0.000    0.000 
#
# Total GULP energy -223417.201773 kJ/mol
# GULP energy per Si atom -5585.430044 kJ/mol
# Density = 2.204698 g / cm^3
# Si number density = 22.097270 Si / 1000 Ang^3
#
#
#
# Elastic Constant Matrix: (Units=GPa)
#
#
# Indices 1 2 3 4 5 6 
#
# 1 101.8059 45.8828 23.6640 0.0000 0.0000 0.0000
# 2 45.8828 177.4604 33.0868 0.0000 0.0000 0.0000
# 3 23.6640 33.0868 72.2998 0.0000 0.0000 0.0000
# 4 0.0000 0.0000 0.0000 17.6738 0.0000 0.0000
# 5 0.0000 0.0000 0.0000 0.0000 27.3927 0.0000
# 6 0.0000 0.0000 0.0000 0.0000 0.0000 -6.2275
#
#
#
# Elastic Compliance Matrix: (Units=1/GPa)
#
#
# Indices 1 2 3 4 5 6 
#
# 1 0.011562 -0.002497 -0.002642 0.000000 0.000000 0.000000
# 2 -0.002497 0.006700 -0.002249 0.000000 0.000000 0.000000
# 3 -0.002642 -0.002249 0.015725 0.000000 0.000000 0.000000
# 4 0.000000 0.000000 0.000000 0.056581 0.000000 0.000000
# 5 0.000000 0.000000 0.000000 0.000000 0.036506 0.000000
# 6 0.000000 0.000000 0.000000 0.000000 0.000000 -0.160579
#
#
# Mechanical properties :
#
#
# Convention : Reuss Voigt Hill
#
# Bulk Modulus (GPa) = 52.05018 61.87037 56.96028
# Shear Modulus (GPa) = -405.64372 24.36331 -190.64021
#
# Velocity S-wave (km/s) = -13.56357 3.32407 -9.29841
# Velocity P-wave (km/s) = 14.88918 6.54159 9.45768
#
# Compressibility (1/GPa) = 0.01921223
#
# Stress axis : x y z
#
# Youngs Moduli (GPa) = 86.49068 149.25553 63.59269
#
# Poissons Ratio (x) = 0.37267 0.16799
# Poissons Ratio (y) = 0.21595 0.14301
# Poissons Ratio (z) = 0.22848 0.33566
#
# Static dielectric constant tensor:
#      x y z
#    x 1.855410 0.000000 0.000000 
#    y 0.000000 1.565870 0.000000 
#    z 0.000000 0.000000 1.827620 
# 
# From -- ./inp_files/4291.got.cif
#   From: 2010.05.17/outbox.cif.g08.bks.cpg/sg62_3_cif.got.tgz:4291.got - 2010.06.03 15:25:27.
