data_PCOD9465565
_publ_section_title
;
Structure prediction by ZEFSAII (Michael W. Deem and Ramdas Pophale) SiO2 
 PCOD9465565
Probable space group: P N M A
;
_chemical_formula_sum "Si O2"
_cell_formula_units_Z 64
_cell_length_a 28.487894
_cell_length_b 9.048106
_cell_length_c 12.915003
_cell_angle_alpha 90.000000
_cell_angle_beta 90.000000
_cell_angle_gamma 90.000000
_cell_volume 3328.990347
_symmetry_space_group_name_H-M "P N M A"
_symmetry_group_IT_number 62
_symmetry_cell_setting 'orthorhombic'
loop_
_space_group_symop_operation_xyz
x,y,z
1/2-x,-y,1/2+z
1/2+x,1/2-y,1/2-z
-x,1/2+y,-z
-x,-y,-z
1/2+x,y,1/2-z
1/2-x,1/2+y,1/2+z
x,1/2-y,z
loop_
_atom_site_type_symbol
_atom_site_label
_atom_site_fract_x
_atom_site_fract_y
_atom_site_fract_z
Si Si1 0.563489 0.421693 0.916451
Si Si2 0.306495 0.575246 0.924241
Si Si3 0.704449 0.574634 0.644167
Si Si4 0.594193 0.925489 0.117510
Si Si5 0.619267 0.072755 0.538432
Si Si6 0.564593 0.572712 0.352579
Si Si7 0.537419 0.429712 0.695420
Si Si8 0.172516 0.417569 0.654398
O O1 0.550591 0.250000 0.933169
O O2 0.536980 0.481513 0.814871
O O3 0.617975 0.425744 0.878507
O O4 0.562944 0.505468 0.025221
O O5 0.315299 0.750000 0.905171
O O6 0.258669 0.529281 0.868894
O O7 0.352969 0.487111 0.893795
O O8 0.299760 0.559495 0.047813
O O9 0.701925 0.750000 0.627646
O O10 0.669831 0.493735 0.564536
O O11 0.686424 0.530569 0.757555
O O12 0.593964 0.750000 0.104133
O O13 0.577263 0.958946 0.233292
O O14 0.621111 0.250000 0.536514
O O15 0.583347 0.026783 0.631000
O O16 0.597499 0.010741 0.432909
O O17 0.568643 0.750000 0.368491
O O18 0.510031 0.528405 0.363483
O O19 0.538182 0.250000 0.701892
O O20 0.180468 0.250000 0.693425
#
# Coordination Sequence:
#
# PCOD9465565 Si02
#       8
#     8   8   8   8   8   8   8   8
#     4   9  17  34  59  81 109 149 189 229 277 334
#     4   9  21  39  57  78 109 149 188 226 279 341
#     4  11  22  36  57  85 112 141 183 233 284 336
#     4  10  21  36  55  83 116 148 186 235 287 335
#     4  11  22  38  59  83 112 148 193 234 279 341
#     4  10  22  39  57  81 118 156 189 234 287 334
#     4   9  18  36  60  83 111 151 192 233 284 336
#     4   9  17  34  56  77 105 142 182 225 273 326
#
# _framework density 19.225048999999999
#
# number of rings (size 3 to 8) (size 9 to 14) (size 15 to 20)
#    0.000    2.250    1.250    2.250    0.000    5.500 
#    0.000    5.000    0.000    0.000    0.000    0.000 
#    0.000    0.000    0.000    0.000    0.000    0.000 
#
# Total GULP energy -357236.275428 kJ/mol
# GULP energy per Si atom -5581.816804 kJ/mol
# Density = 1.918129 g / cm^3
# Si number density = 19.225049 Si / 1000 Ang^3
#
#
#
# Elastic Constant Matrix: (Units=GPa)
#
#
# Indices 1 2 3 4 5 6 
#
# 1 38.9830 14.3577 7.8946 0.0000 0.0000 0.0000
# 2 14.3577 37.3866 32.3276 0.0000 0.0000 0.0000
# 3 7.8946 32.3276 70.1586 0.0000 0.0000 0.0000
# 4 0.0000 0.0000 0.0000 34.1368 0.0000 0.0000
# 5 0.0000 0.0000 0.0000 0.0000 21.7487 0.0000
# 6 0.0000 0.0000 0.0000 0.0000 0.0000 10.8716
#
#
#
# Elastic Compliance Matrix: (Units=1/GPa)
#
#
# Indices 1 2 3 4 5 6 
#
# 1 0.030317 -0.014450 0.003247 0.000000 0.000000 0.000000
# 2 -0.014450 0.051350 -0.022035 0.000000 0.000000 0.000000
# 3 0.003247 -0.022035 0.024041 0.000000 0.000000 0.000000
# 4 0.000000 0.000000 0.000000 0.029294 0.000000 0.000000
# 5 0.000000 0.000000 0.000000 0.000000 0.045980 0.000000
# 6 0.000000 0.000000 0.000000 0.000000 0.000000 0.091983
#
#
# Mechanical properties :
#
#
# Convention : Reuss Voigt Hill
#
# Bulk Modulus (GPa) = 25.48963 28.40979 26.94971
# Shear Modulus (GPa) = 14.18364 19.48132 16.83248
#
# Velocity S-wave (km/s) = 2.71914 3.18674 2.96218
# Velocity P-wave (km/s) = 4.81099 5.32447 5.07423
#
# Compressibility (1/GPa) = 0.03923165
#
# Stress axis : x y z
#
# Youngs Moduli (GPa) = 32.98505 19.47406 41.59492
#
# Poissons Ratio (x) = 0.28141 -0.13506
# Poissons Ratio (y) = 0.47664 0.91655
# Poissons Ratio (z) = -0.10710 0.42911
#
# Static dielectric constant tensor:
#      x y z
#    x 1.672980 0.000000 0.000000 
#    y 0.000000 1.644350 0.000000 
#    z 0.000000 0.000000 1.674310 
# 
# From -- ./inp_files/15865.got.cif
#   From: 2010.05.17/outbox.cif.g08.bks.cpg/sg62_8_cif.got.tgz:15865.got - 2010.06.03 15:25:27.
