data_PCOD9465293
_publ_section_title
;
Structure prediction by ZEFSAII (Michael W. Deem and Ramdas Pophale) SiO2 
 PCOD9465293
Probable space group: P N M A
;
_chemical_formula_sum "Si O2"
_cell_formula_units_Z 56
_cell_length_a 21.659846
_cell_length_b 9.267005
_cell_length_c 14.748698
_cell_angle_alpha 90.000000
_cell_angle_beta 90.000000
_cell_angle_gamma 90.000000
_cell_volume 2960.386703
_symmetry_space_group_name_H-M "P N M A"
_symmetry_group_IT_number 62
_symmetry_cell_setting 'orthorhombic'
loop_
_space_group_symop_operation_xyz
x,y,z
1/2-x,-y,1/2+z
1/2+x,1/2-y,1/2-z
-x,1/2+y,-z
-x,-y,-z
1/2+x,y,1/2-z
1/2-x,1/2+y,1/2+z
x,1/2-y,z
loop_
_atom_site_type_symbol
_atom_site_label
_atom_site_fract_x
_atom_site_fract_y
_atom_site_fract_z
Si Si1 0.049653 0.415667 0.059521
Si Si2 0.157115 0.918784 0.310586
Si Si3 0.138664 0.919384 0.950591
Si Si4 0.255151 0.414905 0.973464
Si Si5 0.397806 0.074924 0.252630
Si Si6 0.468400 0.581996 0.774925
Si Si7 0.238449 0.921961 0.689910
O O1 0.050629 0.250000 0.030729
O O2 0.113780 0.491527 0.035366
O O3 0.036744 0.420066 0.165567
O O4 0.000000 0.500000 0.000000
O O5 0.153004 0.750000 0.285206
O O6 0.183805 0.927079 0.412928
O O7 0.090069 0.991925 0.307866
O O8 0.206923 0.995850 0.243438
O O9 0.131953 0.750000 0.965528
O O10 0.101855 0.959862 0.859584
O O11 0.208320 0.967024 0.935239
O O12 0.231686 0.250000 0.958987
O O13 0.259813 0.436989 0.080975
O O14 0.398463 0.250000 0.246481
O O15 0.461708 0.026822 0.205983
O O16 0.330748 0.027680 0.217468
O O17 0.463273 0.750000 0.803780
O O18 0.243904 0.750000 0.710597
#
# Coordination Sequence:
#
# PCOD9465293 Si02
#       7
#     8   8   8   8   8   8   8
#     4  11  21  33  51  79 114 148 184 229 285 345
#     4  11  23  38  56  86 121 149 185 239 293 340
#     4  11  20  34  56  82 111 146 189 234 282 342
#     4  10  22  38  57  84 116 148 187 238 294 342
#     4   9  18  35  58  82 106 142 193 234 268 329
#     4  10  21  38  56  78 112 152 192 232 279 343
#     4  10  20  39  64  84 109 153 197 234 283 343
#
# _framework density 18.916449
#
# number of rings (size 3 to 8) (size 9 to 14) (size 15 to 20)
#    0.000    1.714    2.857    2.143    0.000    5.714 
#    0.000    1.429    0.000    0.000    0.000    0.000 
#    0.000    0.000    0.000    0.000    0.000    0.000 
#
# Total GULP energy -312324.547920 kJ/mol
# GULP energy per Si atom -5577.224070 kJ/mol
# Density = 1.887339 g / cm^3
# Si number density = 18.916449 Si / 1000 Ang^3
#
#
#
# Elastic Constant Matrix: (Units=GPa)
#
#
# Indices 1 2 3 4 5 6 
#
# 1 120.4283 32.9114 9.5522 0.0000 0.0000 0.0000
# 2 32.9114 63.2786 16.3022 0.0000 0.0000 0.0000
# 3 9.5522 16.3022 35.2689 0.0000 0.0000 0.0000
# 4 0.0000 0.0000 0.0000 18.3901 0.0000 0.0000
# 5 0.0000 0.0000 0.0000 0.0000 30.0582 0.0000
# 6 0.0000 0.0000 0.0000 0.0000 0.0000 28.7854
#
#
#
# Elastic Compliance Matrix: (Units=1/GPa)
#
#
# Indices 1 2 3 4 5 6 
#
# 1 0.009683 -0.004950 -0.000335 0.000000 0.000000 0.000000
# 2 -0.004950 0.020470 -0.008121 0.000000 0.000000 0.000000
# 3 -0.000335 -0.008121 0.032198 0.000000 0.000000 0.000000
# 4 0.000000 0.000000 0.000000 0.054377 0.000000 0.000000
# 5 0.000000 0.000000 0.000000 0.000000 0.033269 0.000000
# 6 0.000000 0.000000 0.000000 0.000000 0.000000 0.034740
#
#
# Mechanical properties :
#
#
# Convention : Reuss Voigt Hill
#
# Bulk Modulus (GPa) = 28.13757 37.38972 32.76365
# Shear Modulus (GPa) = 22.38197 26.12740 24.25469
#
# Velocity S-wave (km/s) = 3.44350 3.72048 3.58467
# Velocity P-wave (km/s) = 5.54231 6.18584 5.87290
#
# Compressibility (1/GPa) = 0.03553967
#
# Stress axis : x y z
#
# Youngs Moduli (GPa) = 103.27386 48.85246 31.05791
#
# Poissons Ratio (x) = 0.24182 0.01039
# Poissons Ratio (y) = 0.51120 0.25222
# Poissons Ratio (z) = 0.03455 0.39673
#
# Static dielectric constant tensor:
#      x y z
#    x 1.741470 0.000000 0.000000 
#    y 0.000000 1.630960 0.000000 
#    z 0.000000 0.000000 1.662140 
# 
# From -- ./inp_files/20332.got.cif
#   From: 2010.05.17/outbox.cif.g08.bks.cpg/sg62_11_cif.got.tgz:20332.got - 2010.06.03 15:25:27.
