data_PCOD9465427
_publ_section_title
;
Structure prediction by ZEFSAII (Michael W. Deem and Ramdas Pophale) SiO2 
 PCOD9465427
Probable space group: P N M A
;
_chemical_formula_sum "Si O2"
_cell_formula_units_Z 40
_cell_length_a 14.227351
_cell_length_b 11.698056
_cell_length_c 11.692839
_cell_angle_alpha 90.000000
_cell_angle_beta 90.000000
_cell_angle_gamma 90.000000
_cell_volume 1946.066658
_symmetry_space_group_name_H-M "P N M A"
_symmetry_group_IT_number 62
_symmetry_cell_setting 'orthorhombic'
loop_
_space_group_symop_operation_xyz
x,y,z
1/2-x,-y,1/2+z
1/2+x,1/2-y,1/2-z
-x,1/2+y,-z
-x,-y,-z
1/2+x,y,1/2-z
1/2-x,1/2+y,1/2+z
x,1/2-y,z
loop_
_atom_site_type_symbol
_atom_site_label
_atom_site_fract_x
_atom_site_fract_y
_atom_site_fract_z
Si Si1 0.466385 0.750000 0.393579
Si Si2 0.215046 0.379466 0.319582
Si Si3 0.392306 0.998522 0.026546
Si Si4 0.832672 0.581494 0.240297
Si Si5 0.664856 0.750000 0.992382
Si Si6 0.863858 0.750000 0.885523
Si Si7 0.158469 0.750000 0.249101
O O1 0.406302 0.856953 0.342985
O O2 0.454095 0.750000 0.531881
O O3 0.572094 0.750000 0.340170
O O4 0.236075 0.250000 0.358434
O O5 0.161117 0.449086 0.416819
O O6 0.307349 0.453347 0.296217
O O7 0.154365 0.356237 0.202476
O O8 0.374135 0.918581 0.133817
O O9 0.364212 0.128409 0.057456
O O10 0.500000 0.000000 0.000000
O O11 0.731409 0.643985 0.252623
O O12 0.623167 0.750000 0.120212
O O13 0.777467 0.750000 0.976197
#
# Coordination Sequence:
#
# PCOD9465427 Si02
#       7
#     4   8   8   8   4   4   4
#     4  11  23  43  69 103 132 186 226 276 350 420
#     4  10  23  41  66  95 136 180 222 285 346 403
#     4  12  25  41  69 101 134 177 232 282 336 409
#     4  11  23  41  68  98 135 178 231 281 341 406
#     4  12  20  42  65  91 135 177 213 282 351 387
#     4  10  20  42  68  88 137 176 219 271 355 400
#     4  11  23  41  68  98 134 177 228 281 338 413
#
# _framework density 20.554281
#
# number of rings (size 3 to 8) (size 9 to 14) (size 15 to 20)
#    0.600    0.400    6.000    1.200    4.200    0.000 
#    0.000    3.000    4.400    0.000    0.000    0.000 
#    0.000    0.000    0.000    0.000    0.000    0.000 
#
# Total GULP energy -222910.323402 kJ/mol
# GULP energy per Si atom -5572.758085 kJ/mol
# Density = 2.050750 g / cm^3
# Si number density = 20.554281 Si / 1000 Ang^3
#
#
#
# Elastic Constant Matrix: (Units=GPa)
#
#
# Indices 1 2 3 4 5 6 
#
# 1 46.7445 18.1186 -14.6515 0.0000 0.0000 0.0000
# 2 18.1186 106.0197 10.1246 0.0000 0.0000 0.0000
# 3 -14.6515 10.1246 66.0627 0.0000 0.0000 0.0000
# 4 0.0000 0.0000 0.0000 4.6283 0.0000 0.0000
# 5 0.0000 0.0000 0.0000 0.0000 8.1867 0.0000
# 6 0.0000 0.0000 0.0000 0.0000 0.0000 2.7488
#
#
#
# Elastic Compliance Matrix: (Units=1/GPa)
#
#
# Indices 1 2 3 4 5 6 
#
# 1 0.025300 -0.004932 0.006367 0.000000 0.000000 0.000000
# 2 -0.004932 0.010534 -0.002708 0.000000 0.000000 0.000000
# 3 0.006367 -0.002708 0.016964 0.000000 0.000000 0.000000
# 4 0.000000 0.000000 0.000000 0.216062 0.000000 0.000000
# 5 0.000000 0.000000 0.000000 0.000000 0.122149 0.000000
# 6 0.000000 0.000000 0.000000 0.000000 0.000000 0.363793
#
#
# Mechanical properties :
#
#
# Convention : Reuss Voigt Hill
#
# Bulk Modulus (GPa) = 19.89970 27.33451 23.61710
# Shear Modulus (GPa) = 6.45913 16.79512 11.62712
#
# Velocity S-wave (km/s) = 1.77463 2.86162 2.38098
# Velocity P-wave (km/s) = 3.72849 4.92403 4.36736
#
# Compressibility (1/GPa) = 0.05025201
#
# Stress axis : x y z
#
# Youngs Moduli (GPa) = 39.52553 94.93375 58.94752
#
# Poissons Ratio (x) = 0.46819 -0.37531
# Poissons Ratio (y) = 0.19493 0.15964
# Poissons Ratio (z) = -0.25166 0.25709
#
# Static dielectric constant tensor:
#      x y z
#    x 1.722750 0.000000 0.000000 
#    y 0.000000 1.852570 0.000000 
#    z 0.000000 0.000000 1.732170 
# 
# From -- ./inp_files/13062.got.cif
#   From: 2010.05.17/outbox.cif.g08.bks.cpg/sg62_7_cif.got.tgz:13062.got - 2010.06.03 15:25:27.
