data_PCOD9465250
_publ_section_title
;
Structure prediction by ZEFSAII (Michael W. Deem and Ramdas Pophale) SiO2 
 PCOD9465250
Probable space group: P N M A
;
_chemical_formula_sum "Si O2"
_cell_formula_units_Z 48
_cell_length_a 8.630212
_cell_length_b 16.476863
_cell_length_c 16.548530
_cell_angle_alpha 90.000000
_cell_angle_beta 90.000000
_cell_angle_gamma 90.000000
_cell_volume 2353.181452
_symmetry_space_group_name_H-M "P N M A"
_symmetry_group_IT_number 62
_symmetry_cell_setting 'orthorhombic'
loop_
_space_group_symop_operation_xyz
x,y,z
1/2-x,-y,1/2+z
1/2+x,1/2-y,1/2-z
-x,1/2+y,-z
-x,-y,-z
1/2+x,y,1/2-z
1/2-x,1/2+y,1/2+z
x,1/2-y,z
loop_
_atom_site_type_symbol
_atom_site_label
_atom_site_fract_x
_atom_site_fract_y
_atom_site_fract_z
Si Si1 0.408692 0.934718 0.664148
Si Si2 0.457447 0.930126 0.909855
Si Si3 0.001714 0.930656 0.284338
Si Si4 0.272687 0.344788 0.293700
Si Si5 0.287113 0.844433 0.342148
Si Si6 0.249382 0.057555 0.997822
O O1 0.578109 0.895478 0.677463
O O2 0.284039 0.874831 0.705926
O O3 0.367918 0.951033 0.571758
O O4 0.406582 0.015932 0.717670
O O5 0.371496 0.866782 0.852297
O O6 0.530914 0.001950 0.853380
O O7 0.323427 0.974925 0.961913
O O8 0.595869 0.899090 0.965798
O O9 0.107200 0.863076 0.326005
O O10 0.871472 0.886289 0.233339
O O11 0.307334 0.250000 0.294308
O O12 0.322285 0.750000 0.347821
O O13 0.323942 0.892357 0.424475
#
# Coordination Sequence:
#
# PCOD9465250 Si02
#       6
#     8   8   8   8   8   8
#     4  11  21  38  61  85 114 153 197 236 279 342
#     4   9  20  40  62  83 110 152 198 237 281 339
#     4  10  20  39  61  80 107 150 198 229 268 340
#     4  11  23  37  58  87 118 153 190 235 290 343
#     4  11  23  37  57  85 115 147 184 236 292 334
#     4  10  21  37  59  85 114 147 191 239 286 340
#
# _framework density 20.397915999999999
#
# number of rings (size 3 to 8) (size 9 to 14) (size 15 to 20)
#    0.000    1.667    0.000    7.000    0.000    4.667 
#    0.000    0.000    0.000    5.000    0.000    0.000 
#    0.000    0.000    0.000    0.000    0.000    0.000 
#
# Total GULP energy -268100.407073 kJ/mol
# GULP energy per Si atom -5585.425147 kJ/mol
# Density = 2.035149 g / cm^3
# Si number density = 20.397916 Si / 1000 Ang^3
#
#
#
# Elastic Constant Matrix: (Units=GPa)
#
#
# Indices 1 2 3 4 5 6 
#
# 1 29.5596 -7.5598 4.6904 0.0000 0.0000 0.0000
# 2 -7.5598 41.3708 -7.4974 0.0000 0.0000 0.0000
# 3 4.6904 -7.4974 82.7966 0.0000 0.0000 0.0000
# 4 0.0000 0.0000 0.0000 12.4363 0.0000 0.0000
# 5 0.0000 0.0000 0.0000 0.0000 45.2774 0.0000
# 6 0.0000 0.0000 0.0000 0.0000 0.0000 15.8292
#
#
#
# Elastic Compliance Matrix: (Units=1/GPa)
#
#
# Indices 1 2 3 4 5 6 
#
# 1 0.035660 0.006253 -0.001454 0.000000 0.000000 0.000000
# 2 0.006253 0.025671 0.001970 0.000000 0.000000 0.000000
# 3 -0.001454 0.001970 0.012339 0.000000 0.000000 0.000000
# 4 0.000000 0.000000 0.000000 0.080410 0.000000 0.000000
# 5 0.000000 0.000000 0.000000 0.000000 0.022086 0.000000
# 6 0.000000 0.000000 0.000000 0.000000 0.000000 0.063174
#
#
# Mechanical properties :
#
#
# Convention : Reuss Voigt Hill
#
# Bulk Modulus (GPa) = 11.46682 14.77703 13.12193
# Shear Modulus (GPa) = 19.61777 25.64817 22.63297
#
# Velocity S-wave (km/s) = 3.10458 3.54982 3.33464
# Velocity P-wave (km/s) = 4.29942 4.90528 4.61231
#
# Compressibility (1/GPa) = 0.08720812
#
# Stress axis : x y z
#
# Youngs Moduli (GPa) = 28.04278 38.95401 81.04664
#
# Poissons Ratio (x) = -0.24357 0.11783
# Poissons Ratio (y) = -0.17534 -0.15969
# Poissons Ratio (z) = 0.04077 -0.07675
#
# Static dielectric constant tensor:
#      x y z
#    x 1.780310 0.000000 0.000000 
#    y 0.000000 1.688460 0.000000 
#    z 0.000000 0.000000 1.751580 
# 
# From -- ./inp_files/16969.got.cif
#   From: 2010.05.17/outbox.cif.g08.bks.cpg/sg62_9_cif.got.tgz:16969.got - 2010.06.03 15:25:27.
