data_PCOD9465820
_publ_section_title
;
Structure prediction by ZEFSAII (Michael W. Deem and Ramdas Pophale) SiO2 
 PCOD9465820
Probable space group: P N M A
;
_chemical_formula_sum "Si O2"
_cell_formula_units_Z 40
_cell_length_a 18.269210
_cell_length_b 18.205864
_cell_length_c 5.515425
_cell_angle_alpha 90.000000
_cell_angle_beta 90.000000
_cell_angle_gamma 90.000000
_cell_volume 1834.467599
_symmetry_space_group_name_H-M "P N M A"
_symmetry_group_IT_number 62
_symmetry_cell_setting 'orthorhombic'
loop_
_space_group_symop_operation_xyz
x,y,z
1/2-x,-y,1/2+z
1/2+x,1/2-y,1/2-z
-x,1/2+y,-z
-x,-y,-z
1/2+x,y,1/2-z
1/2-x,1/2+y,1/2+z
x,1/2-y,z
loop_
_atom_site_type_symbol
_atom_site_label
_atom_site_fract_x
_atom_site_fract_y
_atom_site_fract_z
Si Si1 0.262715 0.160677 0.542133
Si Si2 0.316799 0.838694 0.537181
Si Si3 0.541987 0.449603 0.804760
Si Si4 0.085583 0.587427 0.930130
Si Si5 0.457305 0.836556 0.809695
O O1 0.266820 0.250000 0.546497
O O2 0.225128 0.139891 0.285260
O O3 0.343097 0.125665 0.532441
O O4 0.220884 0.136327 0.787923
O O5 0.314810 0.750000 0.526352
O O6 0.401558 0.858012 0.592134
O O7 0.476048 0.426986 0.630228
O O8 0.598511 0.506920 0.685468
O O9 0.500000 0.500000 0.000000
O O10 0.569423 0.379998 0.954392
O O11 0.040603 0.640169 0.746074
O O12 0.451916 0.750000 0.847236
#
# Coordination Sequence:
#
# PCOD9465820 Si02
#       5
#     8   8   8   8   8
#     4  10  21  38  62  94 128 167 210 264 322 376
#     4   9  21  38  59  91 133 165 203 266 328 373
#     4   9  21  39  61  85 126 162 209 265 326 373
#     4  10  21  38  64  88 126 169 217 266 319 386
#     4  10  21  37  64  96 125 170 220 267 325 396
#
# _framework density 21.804691999999999
#
# number of rings (size 3 to 8) (size 9 to 14) (size 15 to 20)
#    0.000    2.400    0.000    0.600    8.400    1.600 
#    0.000    0.000   13.200    0.000    0.000    0.000 
#    0.000    0.000    0.000    0.200    0.000    0.000 
#
# Total GULP energy -223247.706103 kJ/mol
# GULP energy per Si atom -5581.192653 kJ/mol
# Density = 2.175506 g / cm^3
# Si number density = 21.804692 Si / 1000 Ang^3
#
#
#
# Elastic Constant Matrix: (Units=GPa)
#
#
# Indices 1 2 3 4 5 6 
#
# 1 109.3413 47.2777 53.3512 0.0000 0.0000 0.0000
# 2 47.2777 100.8095 51.0947 0.0000 0.0000 0.0000
# 3 53.3512 51.0947 132.6890 0.0000 0.0000 0.0000
# 4 0.0000 0.0000 0.0000 35.1206 0.0000 0.0000
# 5 0.0000 0.0000 0.0000 0.0000 22.1309 0.0000
# 6 0.0000 0.0000 0.0000 0.0000 0.0000 19.7407
#
#
#
# Elastic Compliance Matrix: (Units=1/GPa)
#
#
# Indices 1 2 3 4 5 6 
#
# 1 0.012645 -0.004167 -0.003480 0.000000 0.000000 0.000000
# 2 -0.004167 0.013698 -0.003599 0.000000 0.000000 0.000000
# 3 -0.003480 -0.003599 0.010322 0.000000 0.000000 0.000000
# 4 0.000000 0.000000 0.000000 0.028473 0.000000 0.000000
# 5 0.000000 0.000000 0.000000 0.000000 0.045186 0.000000
# 6 0.000000 0.000000 0.000000 0.000000 0.000000 0.050657
#
#
# Mechanical properties :
#
#
# Convention : Reuss Voigt Hill
#
# Bulk Modulus (GPa) = 70.55638 71.80968 71.18303
# Shear Modulus (GPa) = 26.56791 28.13952 27.35372
#
# Velocity S-wave (km/s) = 3.49442 3.59629 3.54572
# Velocity P-wave (km/s) = 6.97924 7.08865 7.03416
#
# Compressibility (1/GPa) = 0.01417306
#
# Stress axis : x y z
#
# Youngs Moduli (GPa) = 79.08128 73.00267 96.88365
#
# Poissons Ratio (x) = 0.30417 0.33715
# Poissons Ratio (y) = 0.32950 0.34873
# Poissons Ratio (z) = 0.27520 0.26277
#
# Static dielectric constant tensor:
#      x y z
#    x 1.804670 0.000000 0.000000 
#    y 0.000000 1.798930 0.000000 
#    z 0.000000 0.000000 1.913150 
# 
# From -- ./inp_files/1547.got.cif
#   From: 2010.05.17/outbox.cif.g08.bks.cpg/sg62_1_cif.got.tgz:1547.got - 2010.06.03 15:25:27.
