data_PCOD9465078
_publ_section_title
;
Structure prediction by ZEFSAII (Michael W. Deem and Ramdas Pophale) SiO2 
 PCOD9465078
Probable space group: P N M A
;
_chemical_formula_sum "Si O2"
_cell_formula_units_Z 40
_cell_length_a 19.329900
_cell_length_b 7.601910
_cell_length_c 12.758451
_cell_angle_alpha 90.000000
_cell_angle_beta 90.000000
_cell_angle_gamma 90.000000
_cell_volume 1874.779866
_symmetry_space_group_name_H-M "P N M A"
_symmetry_group_IT_number 62
_symmetry_cell_setting 'orthorhombic'
loop_
_space_group_symop_operation_xyz
x,y,z
1/2-x,-y,1/2+z
1/2+x,1/2-y,1/2-z
-x,1/2+y,-z
-x,-y,-z
1/2+x,y,1/2-z
1/2-x,1/2+y,1/2+z
x,1/2-y,z
loop_
_atom_site_type_symbol
_atom_site_label
_atom_site_fract_x
_atom_site_fract_y
_atom_site_fract_z
Si Si1 0.074341 0.040364 0.448638
Si Si2 0.549180 0.034650 0.287299
Si Si3 0.159694 0.036963 0.040056
Si Si4 0.691485 0.544920 0.888019
Si Si5 0.108088 0.540979 0.809061
O O1 0.083133 0.250000 0.448278
O O2 0.073618 0.979194 0.328301
O O3 0.135498 0.964801 0.519255
O O4 0.000000 0.000000 0.500000
O O5 0.549134 0.250000 0.288013
O O6 0.600780 0.977232 0.378718
O O7 0.470575 0.973147 0.305303
O O8 0.160239 0.250000 0.041620
O O9 0.234924 0.970540 0.076153
O O10 0.141132 0.984722 0.922278
O O11 0.705236 0.750000 0.864462
O O12 0.655570 0.467066 0.784357
O O13 0.102010 0.750000 0.789336
#
# Coordination Sequence:
#
# PCOD9465078 Si02
#       5
#     8   8   8   8   8
#     4  11  21  37  62  87 115 151 194 236 284 344
#     4   9  19  37  60  83 111 152 192 233 288 346
#     4  10  22  38  58  84 116 152 192 238 289 340
#     4  10  22  39  57  83 120 154 189 240 292 340
#     4  10  20  38  60  82 114 152 194 237 288 345
#
# _framework density 21.335837999999999
#
# number of rings (size 3 to 8) (size 9 to 14) (size 15 to 20)
#    0.000    2.000    2.000    1.200    2.800    1.600 
#    0.000    2.000    0.000    0.000    0.000    0.000 
#    0.000    0.000    0.000    0.000    0.000    0.000 
#
# Total GULP energy -223537.816653 kJ/mol
# GULP energy per Si atom -5588.445416 kJ/mol
# Density = 2.128728 g / cm^3
# Si number density = 21.335838 Si / 1000 Ang^3
#
#
#
# Elastic Constant Matrix: (Units=GPa)
#
#
# Indices 1 2 3 4 5 6 
#
# 1 157.6247 -13.9850 119.4760 0.0000 0.0000 0.0000
# 2 -13.9850 38.9731 -17.3299 0.0000 0.0000 0.0000
# 3 119.4760 -17.3299 194.6585 0.0000 0.0000 0.0000
# 4 0.0000 0.0000 0.0000 20.9151 0.0000 0.0000
# 5 0.0000 0.0000 0.0000 0.0000 14.3530 0.0000
# 6 0.0000 0.0000 0.0000 0.0000 0.0000 7.5309
#
#
#
# Elastic Compliance Matrix: (Units=1/GPa)
#
#
# Indices 1 2 3 4 5 6 
#
# 1 0.011906 0.001065 -0.007213 0.000000 0.000000 0.000000
# 2 0.001065 0.026812 0.001733 0.000000 0.000000 0.000000
# 3 -0.007213 0.001733 0.009718 0.000000 0.000000 0.000000
# 4 0.000000 0.000000 0.000000 0.047812 0.000000 0.000000
# 5 0.000000 0.000000 0.000000 0.000000 0.069672 0.000000
# 6 0.000000 0.000000 0.000000 0.000000 0.000000 0.132787
#
#
# Mechanical properties :
#
#
# Convention : Reuss Voigt Hill
#
# Bulk Modulus (GPa) = 25.24797 63.06427 44.15612
# Shear Modulus (GPa) = 15.58908 28.76615 22.17762
#
# Velocity S-wave (km/s) = 2.70599 3.67584 3.22755
# Velocity P-wave (km/s) = 4.65000 6.90202 5.88474
#
# Compressibility (1/GPa) = 0.03960714
#
# Stress axis : x y z
#
# Youngs Moduli (GPa) = 83.99414 37.29729 102.89812
#
# Poissons Ratio (x) = -0.03972 0.74215
# Poissons Ratio (y) = -0.08946 -0.17835
# Poissons Ratio (z) = 0.60581 -0.06465
#
# Static dielectric constant tensor:
#      x y z
#    x 1.718970 0.000000 0.000000 
#    y 0.000000 1.807520 0.000000 
#    z 0.000000 0.000000 1.725110 
# 
# From -- ./inp_files/13828.got.cif
#   From: 2010.05.17/outbox.cif.g08.bks.cpg/sg62_7_cif.got.tgz:13828.got - 2010.06.03 15:25:27.
