data_PCOD9465835
_publ_section_title
;
Structure prediction by ZEFSAII (Michael W. Deem and Ramdas Pophale) SiO2 
 PCOD9465835
Probable space group: P N M A
;
_chemical_formula_sum "Si O2"
_cell_formula_units_Z 48
_cell_length_a 16.786079
_cell_length_b 8.897674
_cell_length_c 18.322162
_cell_angle_alpha 90.000000
_cell_angle_beta 90.000000
_cell_angle_gamma 90.000000
_cell_volume 2736.544225
_symmetry_space_group_name_H-M "P N M A"
_symmetry_group_IT_number 62
_symmetry_cell_setting 'orthorhombic'
loop_
_space_group_symop_operation_xyz
x,y,z
1/2-x,-y,1/2+z
1/2+x,1/2-y,1/2-z
-x,1/2+y,-z
-x,-y,-z
1/2+x,y,1/2-z
1/2-x,1/2+y,1/2+z
x,1/2-y,z
loop_
_atom_site_type_symbol
_atom_site_label
_atom_site_fract_x
_atom_site_fract_y
_atom_site_fract_z
Si Si1 0.856110 0.931394 0.178065
Si Si2 0.493003 0.428719 0.579910
Si Si3 0.329614 0.927336 0.593523
Si Si4 0.584609 0.429639 0.978847
Si Si5 0.338373 0.070959 0.164150
Si Si6 0.765195 0.069877 0.554140
O O1 0.856859 0.750000 0.186546
O O2 0.778486 0.969928 0.129359
O O3 0.933841 0.975178 0.131281
O O4 0.856719 0.009077 0.256161
O O5 0.500000 0.500000 0.500000
O O6 0.496759 0.250000 0.572483
O O7 0.407874 0.479386 0.610781
O O8 0.348702 0.750000 0.595677
O O9 0.254670 0.956791 0.645609
O O10 0.296893 0.960881 0.511963
O O11 0.580547 0.250000 0.978698
O O12 0.611683 0.490129 0.899452
O O13 0.500000 0.500000 0.000000
O O14 0.653602 0.485615 0.034382
O O15 0.351572 0.250000 0.159038
O O16 0.779870 0.250000 0.552616
#
# Coordination Sequence:
#
# PCOD9465835 Si02
#       6
#     8   8   8   8   8   8
#     4  10  21  38  57  83 119 154 189 234 288 341
#     4  11  21  34  56  86 117 151 190 231 279 336
#     4   9  18  36  57  80 111 148 186 228 279 334
#     4  11  22  39  63  88 113 148 196 241 288 344
#     4  10  22  40  60  83 115 152 191 240 291 337
#     4   9  18  36  59  82 114 151 186 232 284 335
#
# _framework density 17.540369999999999
#
# number of rings (size 3 to 8) (size 9 to 14) (size 15 to 20)
#    0.000    2.000    1.667    3.500    0.000    5.333 
#    3.000    0.000    0.000    0.000    0.000    0.000 
#    0.000    0.000    0.000    0.000    0.000    0.000 
#
# Total GULP energy -267984.410090 kJ/mol
# GULP energy per Si atom -5583.008544 kJ/mol
# Density = 1.750045 g / cm^3
# Si number density = 17.540370 Si / 1000 Ang^3
#
#
#
# Elastic Constant Matrix: (Units=GPa)
#
#
# Indices 1 2 3 4 5 6 
#
# 1 141.6403 77.1501 79.2881 0.0000 0.0000 0.0000
# 2 77.1501 82.0852 61.4149 0.0000 0.0000 0.0000
# 3 79.2881 61.4149 119.3461 0.0000 0.0000 0.0000
# 4 0.0000 0.0000 0.0000 31.1278 0.0000 0.0000
# 5 0.0000 0.0000 0.0000 0.0000 20.6282 0.0000
# 6 0.0000 0.0000 0.0000 0.0000 0.0000 34.8836
#
#
#
# Elastic Compliance Matrix: (Units=1/GPa)
#
#
# Indices 1 2 3 4 5 6 
#
# 1 0.015926 -0.011467 -0.004679 0.000000 0.000000 0.000000
# 2 -0.011467 0.028066 -0.006824 0.000000 0.000000 0.000000
# 3 -0.004679 -0.006824 0.015000 0.000000 0.000000 0.000000
# 4 0.000000 0.000000 0.000000 0.032126 0.000000 0.000000
# 5 0.000000 0.000000 0.000000 0.000000 0.048477 0.000000
# 6 0.000000 0.000000 0.000000 0.000000 0.000000 0.028667
#
#
# Mechanical properties :
#
#
# Convention : Reuss Voigt Hill
#
# Bulk Modulus (GPa) = 76.63141 86.53087 81.58114
# Shear Modulus (GPa) = 22.87779 25.67581 24.27680
#
# Velocity S-wave (km/s) = 3.61542 3.83013 3.72432
# Velocity P-wave (km/s) = 7.82380 8.30659 8.06880
#
# Compressibility (1/GPa) = 0.01304948
#
# Stress axis : x y z
#
# Youngs Moduli (GPa) = 62.79205 35.63015 66.66880
#
# Poissons Ratio (x) = 0.40858 0.31196
# Poissons Ratio (y) = 0.72004 0.45498
# Poissons Ratio (z) = 0.29382 0.24316
#
# Static dielectric constant tensor:
#      x y z
#    x 1.596310 0.000000 0.000000 
#    y 0.000000 1.585170 0.000000 
#    z 0.000000 0.000000 1.576960 
# 
# From -- ./inp_files/23744.got.cif
#   From: 2010.05.17/outbox.cif.g08.bks.cpg/sg62_12_cif.got.tgz:23744.got - 2010.06.03 15:25:27.
