data_PCOD9465088
_publ_section_title
;
Structure prediction by ZEFSAII (Michael W. Deem and Ramdas Pophale) SiO2 
 PCOD9465088
Probable space group: P N M A
;
_chemical_formula_sum "Si O2"
_cell_formula_units_Z 48
_cell_length_a 8.084994
_cell_length_b 24.670074
_cell_length_c 11.734441
_cell_angle_alpha 90.000000
_cell_angle_beta 90.000000
_cell_angle_gamma 90.000000
_cell_volume 2340.521095
_symmetry_space_group_name_H-M "P N M A"
_symmetry_group_IT_number 62
_symmetry_cell_setting 'orthorhombic'
loop_
_space_group_symop_operation_xyz
x,y,z
1/2-x,-y,1/2+z
1/2+x,1/2-y,1/2-z
-x,1/2+y,-z
-x,-y,-z
1/2+x,y,1/2-z
1/2-x,1/2+y,1/2+z
x,1/2-y,z
loop_
_atom_site_type_symbol
_atom_site_label
_atom_site_fract_x
_atom_site_fract_y
_atom_site_fract_z
Si Si1 0.101491 0.577417 0.182613
Si Si2 0.583871 0.750000 0.837421
Si Si3 0.923665 0.954100 0.420363
Si Si4 0.795966 0.691476 0.298569
Si Si5 0.110554 0.153329 0.943111
Si Si6 0.028921 0.250000 0.088631
Si Si7 0.511738 0.657136 0.995388
O O1 0.238508 0.538030 0.128846
O O2 0.030847 0.558989 0.305108
O O3 0.191056 0.636228 0.194195
O O4 0.959832 0.594824 0.093483
O O5 0.574854 0.750000 0.702994
O O6 0.773702 0.750000 0.881208
O O7 0.494139 0.697177 0.889561
O O8 0.921776 0.900341 0.499386
O O9 0.000000 0.000000 0.500000
O O10 0.713984 0.750000 0.313629
O O11 0.866189 0.687307 0.172336
O O12 0.940454 0.686774 0.392346
O O13 0.293346 0.146062 0.992939
O O14 0.002810 0.193225 0.022246
#
# Coordination Sequence:
#
# PCOD9465088 Si02
#       7
#     8   4   8   8   8   4   8
#     4  11  22  39  62  95 128 151 211 272 313 385
#     4  10  22  39  54  82 127 170 204 245 305 394
#     4  11  23  43  66  90 125 168 213 275 328 377
#     4  11  19  30  60  99 127 157 190 249 325 381
#     4  11  19  35  60  90 124 153 203 256 314 369
#     4  10  24  35  56  82 127 176 204 241 307 384
#     4  10  20  38  60  86 124 161 199 255 317 376
#
# _framework density 20.508254000000001
#
# number of rings (size 3 to 8) (size 9 to 14) (size 15 to 20)
#    0.000    1.333    6.667    0.000    1.167    4.000 
#    0.000    8.333    0.000    0.000    0.000    0.000 
#    0.000    0.000    0.000    0.000    0.000    0.000 
#
# Total GULP energy -267800.247938 kJ/mol
# GULP energy per Si atom -5579.171832 kJ/mol
# Density = 2.046158 g / cm^3
# Si number density = 20.508254 Si / 1000 Ang^3
#
#
#
# Elastic Constant Matrix: (Units=GPa)
#
#
# Indices 1 2 3 4 5 6 
#
# 1 45.1390 -3.8681 7.9312 0.0000 0.0000 0.0000
# 2 -3.8681 47.3160 18.1492 0.0000 0.0000 0.0000
# 3 7.9312 18.1492 75.1564 0.0000 0.0000 0.0000
# 4 0.0000 0.0000 0.0000 33.3477 0.0000 0.0000
# 5 0.0000 0.0000 0.0000 0.0000 24.8392 0.0000
# 6 0.0000 0.0000 0.0000 0.0000 0.0000 15.4988
#
#
#
# Elastic Compliance Matrix: (Units=1/GPa)
#
#
# Indices 1 2 3 4 5 6 
#
# 1 0.022976 0.003095 -0.003172 0.000000 0.000000 0.000000
# 2 0.003095 0.023709 -0.006052 0.000000 0.000000 0.000000
# 3 -0.003172 -0.006052 0.015102 0.000000 0.000000 0.000000
# 4 0.000000 0.000000 0.000000 0.029987 0.000000 0.000000
# 5 0.000000 0.000000 0.000000 0.000000 0.040259 0.000000
# 6 0.000000 0.000000 0.000000 0.000000 0.000000 0.064521
#
#
# Mechanical properties :
#
#
# Convention : Reuss Voigt Hill
#
# Bulk Modulus (GPa) = 20.19016 23.55954 21.87485
# Shear Modulus (GPa) = 22.19048 24.43041 23.31045
#
# Velocity S-wave (km/s) = 3.29299 3.45519 3.37506
# Velocity P-wave (km/s) = 4.93200 5.23742 5.08700
#
# Compressibility (1/GPa) = 0.04952908
#
# Stress axis : x y z
#
# Youngs Moduli (GPa) = 43.52302 42.17822 66.21732
#
# Poissons Ratio (x) = -0.13054 0.21005
# Poissons Ratio (y) = -0.13471 0.40075
# Poissons Ratio (z) = 0.13806 0.25526
#
# Static dielectric constant tensor:
#      x y z
#    x 1.879830 0.000000 0.000000 
#    y 0.000000 1.750370 0.000000 
#    z 0.000000 0.000000 1.728520 
# 
# From -- ./inp_files/11348.got.cif
#   From: 2010.05.17/outbox.cif.g08.bks.cpg/sg62_6_cif.got.tgz:11348.got - 2010.06.03 15:25:27.
