data_PCOD9465259
_publ_section_title
;
Structure prediction by ZEFSAII (Michael W. Deem and Ramdas Pophale) SiO2 
 PCOD9465259
Probable space group: P N M A
;
_chemical_formula_sum "Si O2"
_cell_formula_units_Z 40
_cell_length_a 20.092740
_cell_length_b 10.856873
_cell_length_c 9.515341
_cell_angle_alpha 90.000000
_cell_angle_beta 90.000000
_cell_angle_gamma 90.000000
_cell_volume 2075.717653
_symmetry_space_group_name_H-M "P N M A"
_symmetry_group_IT_number 62
_symmetry_cell_setting 'orthorhombic'
loop_
_space_group_symop_operation_xyz
x,y,z
1/2-x,-y,1/2+z
1/2+x,1/2-y,1/2-z
-x,1/2+y,-z
-x,-y,-z
1/2+x,y,1/2-z
1/2-x,1/2+y,1/2+z
x,1/2-y,z
loop_
_atom_site_type_symbol
_atom_site_label
_atom_site_fract_x
_atom_site_fract_y
_atom_site_fract_z
Si Si1 0.691658 0.514882 0.862295
Si Si2 0.667651 0.750000 0.554438
Si Si3 0.678641 0.250000 0.006137
Si Si4 0.604493 0.750000 0.859831
Si Si5 0.677858 0.484983 0.529386
Si Si6 0.044830 0.250000 0.316014
Si Si7 0.040985 0.118356 0.040051
O O1 0.639043 0.621452 0.903815
O O2 0.696256 0.504437 0.693200
O O3 0.676850 0.377398 0.918616
O O4 0.760632 0.554699 0.934667
O O5 0.748448 0.750000 0.582597
O O6 0.620748 0.750000 0.691447
O O7 0.656211 0.621594 0.476827
O O8 0.612984 0.250000 0.100520
O O9 0.526271 0.750000 0.892214
O O10 0.615237 0.397346 0.516753
O O11 0.044021 0.134935 0.208116
O O12 0.012873 0.250000 0.988631
O O13 0.000000 0.000000 0.000000
#
# Coordination Sequence:
#
# PCOD9465259 Si02
#       7
#     8   4   4   4   8   4   8
#     4  10  23  37  67  89 132 155 214 258 317 370
#     4   8  18  36  61  81 129 158 196 250 315 363
#     4  10  22  40  59  93 124 166 208 262 318 373
#     4  10  20  39  61  86 122 170 203 255 313 373
#     4  10  21  37  64  94 119 166 203 263 310 371
#     4  10  24  39  65  86 127 174 211 243 334 383
#     4  10  23  37  64  88 123 164 217 255 305 379
#
# _framework density 19.270443
#
# number of rings (size 3 to 8) (size 9 to 14) (size 15 to 20)
#    0.600    1.600    0.000    2.400   12.600    0.800 
#    0.000    0.000    2.200    0.000    0.000    0.000 
#    0.000    0.000    0.000    0.000    0.000    0.000 
#
# Total GULP energy -222767.210317 kJ/mol
# GULP energy per Si atom -5569.180258 kJ/mol
# Density = 1.922658 g / cm^3
# Si number density = 19.270443 Si / 1000 Ang^3
#
#
#
# Elastic Constant Matrix: (Units=GPa)
#
#
# Indices 1 2 3 4 5 6 
#
# 1 100.9641 47.5628 31.8278 0.0000 0.0000 0.0000
# 2 47.5628 125.8434 26.5586 0.0000 0.0000 0.0000
# 3 31.8278 26.5586 42.8410 0.0000 0.0000 0.0000
# 4 0.0000 0.0000 0.0000 28.7263 0.0000 0.0000
# 5 0.0000 0.0000 0.0000 0.0000 31.5486 0.0000
# 6 0.0000 0.0000 0.0000 0.0000 0.0000 19.5358
#
#
#
# Elastic Compliance Matrix: (Units=1/GPa)
#
#
# Indices 1 2 3 4 5 6 
#
# 1 0.014238 -0.003623 -0.008332 0.000000 0.000000 0.000000
# 2 -0.003623 0.010064 -0.003548 0.000000 0.000000 0.000000
# 3 -0.008332 -0.003548 0.031731 0.000000 0.000000 0.000000
# 4 0.000000 0.000000 0.000000 0.034811 0.000000 0.000000
# 5 0.000000 0.000000 0.000000 0.000000 0.031697 0.000000
# 6 0.000000 0.000000 0.000000 0.000000 0.000000 0.051188
#
#
# Mechanical properties :
#
#
# Convention : Reuss Voigt Hill
#
# Bulk Modulus (GPa) = 39.95382 53.50522 46.72952
# Shear Modulus (GPa) = 23.46570 26.87544 25.17057
#
# Velocity S-wave (km/s) = 3.49335 3.73855 3.61803
# Velocity P-wave (km/s) = 6.08683 6.81626 6.46184
#
# Compressibility (1/GPa) = 0.02502889
#
# Stress axis : x y z
#
# Youngs Moduli (GPa) = 70.23657 99.36051 31.51467
#
# Poissons Ratio (x) = 0.35996 0.26257
# Poissons Ratio (y) = 0.25445 0.11181
# Poissons Ratio (z) = 0.58518 0.35251
#
# Static dielectric constant tensor:
#      x y z
#    x 1.687120 0.000000 0.000000 
#    y 0.000000 1.746070 0.000000 
#    z 0.000000 0.000000 1.664770 
# 
# From -- ./inp_files/7328.got.cif
#   From: 2010.05.17/outbox.cif.g08.bks.cpg/sg62_4_cif.got.tgz:7328.got - 2010.06.03 15:25:27.
