data_PCOD9465174
_publ_section_title
;
Structure prediction by ZEFSAII (Michael W. Deem and Ramdas Pophale) SiO2 
 PCOD9465174
Probable space group: P N M A
;
_chemical_formula_sum "Si O2"
_cell_formula_units_Z 64
_cell_length_a 14.811035
_cell_length_b 15.990920
_cell_length_c 12.468545
_cell_angle_alpha 90.000000
_cell_angle_beta 90.000000
_cell_angle_gamma 90.000000
_cell_volume 2953.076080
_symmetry_space_group_name_H-M "P N M A"
_symmetry_group_IT_number 62
_symmetry_cell_setting 'orthorhombic'
loop_
_space_group_symop_operation_xyz
x,y,z
1/2-x,-y,1/2+z
1/2+x,1/2-y,1/2-z
-x,1/2+y,-z
-x,-y,-z
1/2+x,y,1/2-z
1/2-x,1/2+y,1/2+z
x,1/2-y,z
loop_
_atom_site_type_symbol
_atom_site_label
_atom_site_fract_x
_atom_site_fract_y
_atom_site_fract_z
Si Si1 0.506979 0.351400 0.172479
Si Si2 0.680475 0.653361 0.923281
Si Si3 0.510256 0.090803 0.556097
Si Si4 0.853197 0.848760 0.487938
Si Si5 0.322660 0.152701 0.837523
Si Si6 0.684079 0.583989 0.391960
Si Si7 0.370517 0.608407 0.628452
Si Si8 0.032477 0.345972 0.724326
O O1 0.504421 0.250000 0.180567
O O2 0.406442 0.381852 0.140093
O O3 0.554789 0.383099 0.279713
O O4 0.576322 0.375044 0.078197
O O5 0.655470 0.750000 0.945019
O O6 0.773749 0.652084 0.857963
O O7 0.697186 0.617158 0.043483
O O8 0.409560 0.127632 0.570922
O O9 0.579787 0.138089 0.479697
O O10 0.546407 0.091414 0.677212
O O11 0.500000 0.000000 0.500000
O O12 0.834024 0.750000 0.502998
O O13 0.760578 0.898155 0.478280
O O14 0.902168 0.859086 0.374419
O O15 0.294717 0.250000 0.834816
O O16 0.286925 0.112812 0.727339
O O17 0.431024 0.146998 0.821895
O O18 0.659222 0.487541 0.382266
O O19 0.043173 0.250000 0.763657
#
# Coordination Sequence:
#
# PCOD9465174 Si02
#       8
#     8   8   8   8   8   8   8   8
#     4  10  22  43  64  86 124 164 204 254 308 371
#     4  10  21  40  64  89 117 156 208 262 303 357
#     4   9  21  41  58  79 129 166 196 244 305 359
#     4  10  20  38  63  92 121 157 202 255 311 359
#     4   9  17  35  61  88 117 149 198 256 304 346
#     4  10  22  39  58  91 125 164 200 251 303 364
#     4  11  24  41  58  91 124 168 207 243 306 372
#     4   9  17  33  61  91 114 149 201 255 304 349
#
# _framework density 21.672315999999999
#
# number of rings (size 3 to 8) (size 9 to 14) (size 15 to 20)
#    0.000    2.250    1.250    0.750    1.750    3.500 
#    9.000    2.500    0.000    0.000    0.000    0.000 
#    0.000    0.000    0.000    0.000    0.000    0.000 
#
# Total GULP energy -357035.960409 kJ/mol
# GULP energy per Si atom -5578.686881 kJ/mol
# Density = 2.162299 g / cm^3
# Si number density = 21.672316 Si / 1000 Ang^3
#
#
#
# Elastic Constant Matrix: (Units=GPa)
#
#
# Indices 1 2 3 4 5 6 
#
# 1 87.1553 2.5170 23.9041 0.0000 0.0000 0.0000
# 2 2.5170 16.2678 13.5698 0.0000 0.0000 0.0000
# 3 23.9041 13.5698 75.5527 0.0000 0.0000 0.0000
# 4 0.0000 0.0000 0.0000 43.1201 0.0000 0.0000
# 5 0.0000 0.0000 0.0000 0.0000 20.3127 0.0000
# 6 0.0000 0.0000 0.0000 0.0000 0.0000 16.5739
#
#
#
# Elastic Compliance Matrix: (Units=1/GPa)
#
#
# Indices 1 2 3 4 5 6 
#
# 1 0.012600 0.001618 -0.004277 0.000000 0.000000 0.000000
# 2 0.001618 0.072511 -0.013536 0.000000 0.000000 0.000000
# 3 -0.004277 -0.013536 0.017020 0.000000 0.000000 0.000000
# 4 0.000000 0.000000 0.000000 0.023191 0.000000 0.000000
# 5 0.000000 0.000000 0.000000 0.000000 0.049230 0.000000
# 6 0.000000 0.000000 0.000000 0.000000 0.000000 0.060336
#
#
# Mechanical properties :
#
#
# Convention : Reuss Voigt Hill
#
# Bulk Modulus (GPa) = 14.33843 28.77307 21.55575
# Shear Modulus (GPa) = 17.21021 25.26700 21.23861
#
# Velocity S-wave (km/s) = 2.82105 3.41818 3.13387
# Velocity P-wave (km/s) = 4.15229 5.37437 4.80236
#
# Compressibility (1/GPa) = 0.06974262
#
# Stress axis : x y z
#
# Youngs Moduli (GPa) = 79.36417 13.79096 58.75388
#
# Poissons Ratio (x) = -0.02232 0.25130
# Poissons Ratio (y) = -0.12844 0.79527
# Poissons Ratio (z) = 0.33946 0.18667
#
# Static dielectric constant tensor:
#      x y z
#    x 1.828150 0.000000 0.000000 
#    y 0.000000 1.823750 0.000000 
#    z 0.000000 0.000000 1.794450 
# 
# From -- ./inp_files/13619.got.cif
#   From: 2010.05.17/outbox.cif.g08.bks.cpg/sg62_7_cif.got.tgz:13619.got - 2010.06.03 15:25:27.
