data_PCOD9465202
_publ_section_title
;
Structure prediction by ZEFSAII (Michael W. Deem and Ramdas Pophale) SiO2 
 PCOD9465202
Probable space group: P N M A
;
_chemical_formula_sum "Si O2"
_cell_formula_units_Z 64
_cell_length_a 11.882811
_cell_length_b 23.243887
_cell_length_c 11.157287
_cell_angle_alpha 90.000000
_cell_angle_beta 90.000000
_cell_angle_gamma 90.000000
_cell_volume 3081.672974
_symmetry_space_group_name_H-M "P N M A"
_symmetry_group_IT_number 62
_symmetry_cell_setting 'orthorhombic'
loop_
_space_group_symop_operation_xyz
x,y,z
1/2-x,-y,1/2+z
1/2+x,1/2-y,1/2-z
-x,1/2+y,-z
-x,-y,-z
1/2+x,y,1/2-z
1/2-x,1/2+y,1/2+z
x,1/2-y,z
loop_
_atom_site_type_symbol
_atom_site_label
_atom_site_fract_x
_atom_site_fract_y
_atom_site_fract_z
Si Si1 0.734659 0.383305 0.516630
Si Si2 0.499843 0.392515 0.613072
Si Si3 0.319593 0.507224 0.954633
Si Si4 0.588883 0.182578 0.032554
Si Si5 0.909032 0.121517 0.305646
Si Si6 0.807675 0.385756 0.067034
Si Si7 0.591587 0.682627 0.177851
Si Si8 0.546422 0.014459 0.815249
O O1 0.604010 0.370155 0.533701
O O2 0.743083 0.452325 0.523830
O O3 0.804654 0.367927 0.396915
O O4 0.804329 0.353247 0.623817
O O5 0.396736 0.409546 0.528194
O O6 0.450553 0.342977 0.698001
O O7 0.540661 0.444013 0.701277
O O8 0.363204 0.531589 0.082550
O O9 0.260029 0.558483 0.885616
O O10 0.426557 0.483398 0.882619
O O11 0.595148 0.250000 0.059340
O O12 0.519089 0.149909 0.136279
O O13 0.712250 0.156291 0.017061
O O14 0.511935 0.174915 0.914931
O O15 0.873996 0.143297 0.175770
O O16 0.931880 0.053088 0.293050
O O17 0.619546 0.750000 0.184026
#
# Coordination Sequence:
#
# PCOD9465202 Si02
#       8
#     8   8   8   8   8   8   8   8
#     4  10  23  42  64  96 131 173 217 264 323 384
#     4  12  26  38  65 105 137 164 212 277 324 386
#     4  10  20  38  64  94 129 177 209 253 324 396
#     4  10  23  46  71  90 121 173 227 270 324 386
#     4  10  23  43  68  90 128 176 219 264 321 392
#     4  12  26  39  66 100 132 168 213 269 328 384
#     4  10  23  44  69  94 126 173 216 267 335 392
#     4  10  20  38  65  94 132 169 215 258 321 391
#
# _framework density 20.767938999999998
#
# number of rings (size 3 to 8) (size 9 to 14) (size 15 to 20)
#    0.000    1.500    2.500    1.500    5.250    5.500 
#    0.000    0.000    0.000    0.000    0.000    0.000 
#    0.000    0.000    0.000    0.000    0.000    0.000 
#
# Total GULP energy -357595.931003 kJ/mol
# GULP energy per Si atom -5587.436422 kJ/mol
# Density = 2.072067 g / cm^3
# Si number density = 20.767939 Si / 1000 Ang^3
#
#
#
# Elastic Constant Matrix: (Units=GPa)
#
#
# Indices 1 2 3 4 5 6 
#
# 1 89.9942 15.8160 24.9168 0.0000 0.0000 0.0000
# 2 15.8160 50.7207 10.7064 0.0000 0.0000 0.0000
# 3 24.9168 10.7064 49.5710 0.0000 0.0000 0.0000
# 4 0.0000 0.0000 0.0000 2.2304 0.0000 0.0000
# 5 0.0000 0.0000 0.0000 0.0000 14.3208 0.0000
# 6 0.0000 0.0000 0.0000 0.0000 0.0000 9.6492
#
#
#
# Elastic Compliance Matrix: (Units=1/GPa)
#
#
# Indices 1 2 3 4 5 6 
#
# 1 0.013294 -0.002866 -0.006063 0.000000 0.000000 0.000000
# 2 -0.002866 0.021275 -0.003155 0.000000 0.000000 0.000000
# 3 -0.006063 -0.003155 0.023902 0.000000 0.000000 0.000000
# 4 0.000000 0.000000 0.000000 0.448347 0.000000 0.000000
# 5 0.000000 0.000000 0.000000 0.000000 0.069829 0.000000
# 6 0.000000 0.000000 0.000000 0.000000 0.000000 0.103635
#
#
# Mechanical properties :
#
#
# Convention : Reuss Voigt Hill
#
# Bulk Modulus (GPa) = 29.15082 32.57382 30.86232
# Shear Modulus (GPa) = 6.98436 14.49652 10.74044
#
# Velocity S-wave (km/s) = 1.83585 2.64488 2.27659
# Velocity P-wave (km/s) = 4.30822 5.00459 4.66940
#
# Compressibility (1/GPa) = 0.03430435
#
# Stress axis : x y z
#
# Youngs Moduli (GPa) = 75.22059 47.00289 41.83715
#
# Poissons Ratio (x) = 0.13469 0.25368
# Poissons Ratio (y) = 0.21555 0.13198
# Poissons Ratio (z) = 0.45609 0.14828
#
# Static dielectric constant tensor:
#      x y z
#    x 1.741220 0.000000 0.000000 
#    y 0.000000 1.721920 0.000000 
#    z 0.000000 0.000000 1.768060 
# 
# From -- ./inp_files/12552.got.cif
#   From: 2010.05.17/outbox.cif.g08.bks.cpg/sg62_7_cif.got.tgz:12552.got - 2010.06.03 15:25:27.
