data_PCOD9465502
_publ_section_title
;
Structure prediction by ZEFSAII (Michael W. Deem and Ramdas Pophale) SiO2 
 PCOD9465502
Probable space group: P N M A
;
_chemical_formula_sum "Si O2"
_cell_formula_units_Z 48
_cell_length_a 22.275682
_cell_length_b 7.430123
_cell_length_c 12.343240
_cell_angle_alpha 90.000000
_cell_angle_beta 90.000000
_cell_angle_gamma 90.000000
_cell_volume 2042.942701
_symmetry_space_group_name_H-M "P N M A"
_symmetry_group_IT_number 62
_symmetry_cell_setting 'orthorhombic'
loop_
_space_group_symop_operation_xyz
x,y,z
1/2-x,-y,1/2+z
1/2+x,1/2-y,1/2-z
-x,1/2+y,-z
-x,-y,-z
1/2+x,y,1/2-z
1/2-x,1/2+y,1/2+z
x,1/2-y,z
loop_
_atom_site_type_symbol
_atom_site_label
_atom_site_fract_x
_atom_site_fract_y
_atom_site_fract_z
Si Si1 0.835916 0.045400 0.545187
Si Si2 0.382112 0.028972 0.288869
Si Si3 0.569972 0.534760 0.482912
Si Si4 0.955818 0.052933 0.403400
Si Si5 0.765705 0.030202 0.348993
Si Si6 0.366344 0.044482 0.726318
O O1 0.816894 0.250000 0.573704
O O2 0.891858 0.058626 0.464001
O O3 0.784271 0.966924 0.469601
O O4 0.859473 0.958585 0.655138
O O5 0.383466 0.250000 0.285894
O O6 0.393668 0.969935 0.411431
O O7 0.436576 0.962816 0.209971
O O8 0.318168 0.977779 0.236050
O O9 0.500000 0.500000 0.500000
O O10 0.579652 0.750000 0.479037
O O11 0.592968 0.462331 0.367742
O O12 0.977608 0.250000 0.371425
O O13 0.000000 0.000000 0.500000
O O14 0.763814 0.250000 0.349879
O O15 0.701327 0.957554 0.317841
O O16 0.388541 0.250000 0.744671
#
# Coordination Sequence:
#
# PCOD9465502 Si02
#       6
#     8   8   8   8   8   8
#     4   8  17  34  51  72 104 136 165 203 261 315
#     4   8  17  35  54  74 104 140 171 208 260 314
#     4  10  22  38  55  77 109 145 180 216 263 317
#     4   9  17  31  53  74  97 131 169 208 251 299
#     4   9  18  35  58  78 100 137 177 211 257 318
#     4  10  21  35  54  79 108 137 167 217 269 308
#
# _framework density 23.495519000000002
#
# number of rings (size 3 to 8) (size 9 to 14) (size 15 to 20)
#    0.000    3.000    0.000    2.000    4.667    0.667 
#    0.000    5.000    0.000    0.000    0.000    0.000 
#    0.000    0.000    0.000    0.000    0.000    0.000 
#
# Total GULP energy -267579.240893 kJ/mol
# GULP energy per Si atom -5574.567519 kJ/mol
# Density = 2.344204 g / cm^3
# Si number density = 23.495519 Si / 1000 Ang^3
#
#
#
# Elastic Constant Matrix: (Units=GPa)
#
#
# Indices 1 2 3 4 5 6 
#
# 1 46.8186 -14.0576 10.9822 0.0000 0.0000 0.0000
# 2 -14.0576 72.9608 -0.8747 0.0000 0.0000 0.0000
# 3 10.9822 -0.8747 162.3371 0.0000 0.0000 0.0000
# 4 0.0000 0.0000 0.0000 -26.1798 0.0000 0.0000
# 5 0.0000 0.0000 0.0000 0.0000 23.1331 0.0000
# 6 0.0000 0.0000 0.0000 0.0000 0.0000 15.3743
#
#
#
# Elastic Compliance Matrix: (Units=1/GPa)
#
#
# Indices 1 2 3 4 5 6 
#
# 1 0.023047 0.004422 -0.001535 0.000000 0.000000 0.000000
# 2 0.004422 0.014555 -0.000221 0.000000 0.000000 0.000000
# 3 -0.001535 -0.000221 0.006263 0.000000 0.000000 0.000000
# 4 0.000000 0.000000 0.000000 -0.038197 0.000000 0.000000
# 5 0.000000 0.000000 0.000000 0.000000 0.043228 0.000000
# 6 0.000000 0.000000 0.000000 0.000000 0.000000 0.065044
#
#
# Mechanical properties :
#
#
# Convention : Reuss Voigt Hill
#
# Bulk Modulus (GPa) = 20.32637 30.46846 25.39741
# Shear Modulus (GPa) = 39.99800 21.53663 30.76732
#
# Velocity S-wave (km/s) = 4.13045 3.03087 3.62262
# Velocity P-wave (km/s) = 5.60513 5.02436 5.32267
#
# Compressibility (1/GPa) = 0.04919719
#
# Stress axis : x y z
#
# Youngs Moduli (GPa) = 43.38968 68.70318 159.67563
#
# Poissons Ratio (x) = -0.30381 0.24515
# Poissons Ratio (y) = -0.19187 0.03524
# Poissons Ratio (z) = 0.06662 0.01516
#
# Static dielectric constant tensor:
#      x y z
#    x 1.854500 0.000000 0.000000 
#    y 0.000000 1.945900 0.000000 
#    z 0.000000 0.000000 1.963340 
# 
# From -- ./inp_files/14134.got.cif
#   From: 2010.05.17/outbox.cif.g08.bks.cpg/sg62_8_cif.got.tgz:14134.got - 2010.06.03 15:25:27.
