data_PCOD9465969
_publ_section_title
;
Structure prediction by ZEFSAII (Michael W. Deem and Ramdas Pophale) SiO2 
 PCOD9465969
Probable space group: P N M A
;
_chemical_formula_sum "Si O2"
_cell_formula_units_Z 64
_cell_length_a 9.125407
_cell_length_b 13.767656
_cell_length_c 22.157141
_cell_angle_alpha 90.000000
_cell_angle_beta 90.000000
_cell_angle_gamma 90.000000
_cell_volume 2783.722700
_symmetry_space_group_name_H-M "P N M A"
_symmetry_group_IT_number 62
_symmetry_cell_setting 'orthorhombic'
loop_
_space_group_symop_operation_xyz
x,y,z
1/2-x,-y,1/2+z
1/2+x,1/2-y,1/2-z
-x,1/2+y,-z
-x,-y,-z
1/2+x,y,1/2-z
1/2-x,1/2+y,1/2+z
x,1/2-y,z
loop_
_atom_site_type_symbol
_atom_site_label
_atom_site_fract_x
_atom_site_fract_y
_atom_site_fract_z
Si Si1 0.851707 0.634801 0.999979
Si Si2 0.390672 0.137905 0.196645
Si Si3 0.640033 0.540199 0.680869
Si Si4 0.343996 0.642085 0.128498
Si Si5 0.830833 0.954748 0.872325
Si Si6 0.690957 0.860826 0.500358
Si Si7 0.194749 0.638276 0.370828
Si Si8 0.868469 0.639310 0.608820
O O1 0.842550 0.750000 0.984364
O O2 0.799397 0.573464 0.941931
O O3 0.023597 0.608264 0.010607
O O4 0.760366 0.624037 0.061613
O O5 0.429436 0.250000 0.209596
O O6 0.413497 0.068254 0.253075
O O7 0.226345 0.129455 0.171878
O O8 0.486054 0.100336 0.139694
O O9 0.503018 0.534473 0.636283
O O10 0.731414 0.441355 0.672443
O O11 0.746026 0.627542 0.660144
O O12 0.311735 0.750000 0.154506
O O13 0.249710 0.551699 0.152032
O O14 0.518672 0.628517 0.129570
O O15 0.285084 0.643761 0.059837
O O16 0.670093 0.750000 0.522952
O O17 0.791890 0.909507 0.551369
O O18 0.230186 0.750000 0.353745
O O19 0.905774 0.750000 0.593444
#
# Coordination Sequence:
#
# PCOD9465969 Si02
#       8
#     8   8   8   8   8   8   8   8
#     4  10  21  38  62  98 140 175 216 267 328 398
#     4  11  26  45  66  97 135 174 219 271 324 390
#     4  12  24  41  66  92 131 172 225 271 327 387
#     4  10  23  42  64  94 134 173 218 273 330 390
#     4  12  25  39  67  98 134 179 221 268 331 398
#     4   9  18  35  60  91 130 175 214 257 316 382
#     4  10  24  44  67  95 129 170 220 282 339 395
#     4  10  21  38  62  92 131 176 218 261 316 383
#
# _framework density 22.990794999999999
#
# number of rings (size 3 to 8) (size 9 to 14) (size 15 to 20)
#    0.000    1.500    1.250    3.000    3.500    5.500 
#    0.000    0.625    0.000    2.250    0.000    0.000 
#    0.000    0.000    0.000    0.000    0.000    0.000 
#
# Total GULP energy -357390.974037 kJ/mol
# GULP energy per Si atom -5584.233969 kJ/mol
# Density = 2.293847 g / cm^3
# Si number density = 22.990795 Si / 1000 Ang^3
#
#
#
# Elastic Constant Matrix: (Units=GPa)
#
#
# Indices 1 2 3 4 5 6 
#
# 1 80.8789 21.9853 -5.0324 0.0000 0.0000 0.0000
# 2 21.9853 139.8622 14.1674 0.0000 0.0000 0.0000
# 3 -5.0324 14.1674 19.0051 0.0000 0.0000 0.0000
# 4 0.0000 0.0000 0.0000 28.3235 0.0000 0.0000
# 5 0.0000 0.0000 0.0000 0.0000 21.3282 0.0000
# 6 0.0000 0.0000 0.0000 0.0000 0.0000 20.7739
#
#
#
# Elastic Compliance Matrix: (Units=1/GPa)
#
#
# Indices 1 2 3 4 5 6 
#
# 1 0.013437 -0.002674 0.005552 0.000000 0.000000 0.000000
# 2 -0.002674 0.008266 -0.006870 0.000000 0.000000 0.000000
# 3 0.005552 -0.006870 0.059209 0.000000 0.000000 0.000000
# 4 0.000000 0.000000 0.000000 0.035306 0.000000 0.000000
# 5 0.000000 0.000000 0.000000 0.000000 0.046886 0.000000
# 6 0.000000 0.000000 0.000000 0.000000 0.000000 0.048137
#
#
# Mechanical properties :
#
#
# Convention : Reuss Voigt Hill
#
# Bulk Modulus (GPa) = 13.71263 33.55408 23.63335
# Shear Modulus (GPa) = 20.53081 27.99351 24.26216
#
# Velocity S-wave (km/s) = 2.99155 3.49319 3.25206
# Velocity P-wave (km/s) = 4.23201 5.55843 4.93994
#
# Compressibility (1/GPa) = 0.07292548
#
# Stress axis : x y z
#
# Youngs Moduli (GPa) = 74.42357 120.97421 16.88935
#
# Poissons Ratio (x) = 0.32354 -0.09376
# Poissons Ratio (y) = 0.19904 0.11603
# Poissons Ratio (z) = -0.41317 0.83112
#
# Static dielectric constant tensor:
#      x y z
#    x 1.837610 0.000000 0.000000 
#    y 0.000000 1.937950 0.000000 
#    z 0.000000 0.000000 1.866770 
# 
# From -- ./inp_files/28963.got.cif
#   From: 2010.05.17/outbox.cif.g08.bks.cpg/sg62_15_cif.got.tgz:28963.got - 2010.06.03 15:25:27.
