data_PCOD9465123
_publ_section_title
;
Structure prediction by ZEFSAII (Michael W. Deem and Ramdas Pophale) SiO2 
 PCOD9465123
Probable space group: P N M A
;
_chemical_formula_sum "Si O2"
_cell_formula_units_Z 64
_cell_length_a 13.691836
_cell_length_b 12.784286
_cell_length_c 20.303614
_cell_angle_alpha 90.000000
_cell_angle_beta 90.000000
_cell_angle_gamma 90.000000
_cell_volume 3553.951646
_symmetry_space_group_name_H-M "P N M A"
_symmetry_group_IT_number 62
_symmetry_cell_setting 'orthorhombic'
loop_
_space_group_symop_operation_xyz
x,y,z
1/2-x,-y,1/2+z
1/2+x,1/2-y,1/2-z
-x,1/2+y,-z
-x,-y,-z
1/2+x,y,1/2-z
1/2-x,1/2+y,1/2+z
x,1/2-y,z
loop_
_atom_site_type_symbol
_atom_site_label
_atom_site_fract_x
_atom_site_fract_y
_atom_site_fract_z
Si Si1 0.942333 0.125441 0.138781
Si Si2 0.690126 0.867938 0.897205
Si Si3 0.375587 0.018657 0.601999
Si Si4 0.906188 0.479554 0.279872
Si Si5 0.278542 0.132409 0.719110
Si Si6 0.287884 0.373427 0.475902
Si Si7 0.928206 0.130644 0.665758
Si Si8 0.107387 0.533358 0.476392
O O1 0.968792 0.250000 0.138704
O O2 0.026314 0.049122 0.109430
O O3 0.922558 0.084540 0.212814
O O4 0.846790 0.114670 0.092529
O O5 0.717922 0.750000 0.885382
O O6 0.785883 0.938287 0.893242
O O7 0.613889 0.904439 0.841860
O O8 0.645869 0.885737 0.969159
O O9 0.355681 0.096113 0.663278
O O10 0.357351 0.081169 0.534116
O O11 0.810996 0.553141 0.276143
O O12 0.995147 0.555028 0.298469
O O13 0.244824 0.250000 0.703160
O O14 0.333383 0.132785 0.788388
O O15 0.269813 0.250000 0.487078
O O16 0.186841 0.438926 0.475831
O O17 0.965548 0.250000 0.660029
O O18 0.902449 0.084772 0.594782
O O19 0.000000 0.500000 0.500000
#
# Coordination Sequence:
#
# PCOD9465123 Si02
#       8
#     8   8   8   8   8   8   8   8
#     4  11  22  39  61  88 122 159 199 246 301 357
#     4  10  21  37  57  82 113 152 196 240 292 350
#     4  10  20  38  62  85 118 151 199 247 295 354
#     4  11  21  38  58  84 119 154 194 241 292 350
#     4  10  21  37  59  85 116 153 195 244 297 351
#     4  10  23  40  61  89 120 157 200 246 301 358
#     4  11  22  38  59  86 117 151 193 239 295 351
#     4  11  22  40  58  85 118 155 194 245 296 350
#
# _framework density 18.008123999999999
#
# number of rings (size 3 to 8) (size 9 to 14) (size 15 to 20)
#    0.000    1.500    2.500    3.000    0.000    1.000 
#    0.000    0.000    0.000    6.000    0.000    0.000 
#    0.000    0.000    0.000    0.000    0.000    0.000 
#
# Total GULP energy -357137.375451 kJ/mol
# GULP energy per Si atom -5580.271491 kJ/mol
# Density = 1.796714 g / cm^3
# Si number density = 18.008124 Si / 1000 Ang^3
#
#
#
# Elastic Constant Matrix: (Units=GPa)
#
#
# Indices 1 2 3 4 5 6 
#
# 1 56.3531 11.2424 32.8104 0.0000 0.0000 0.0000
# 2 11.2424 95.7760 56.7614 0.0000 0.0000 0.0000
# 3 32.8104 56.7614 130.2279 0.0000 0.0000 0.0000
# 4 0.0000 0.0000 0.0000 11.1751 0.0000 0.0000
# 5 0.0000 0.0000 0.0000 0.0000 25.6113 0.0000
# 6 0.0000 0.0000 0.0000 0.0000 0.0000 -19.1624
#
#
#
# Elastic Compliance Matrix: (Units=1/GPa)
#
#
# Indices 1 2 3 4 5 6 
#
# 1 0.020853 0.000898 -0.005645 0.000000 0.000000 0.000000
# 2 0.000898 0.014116 -0.006379 0.000000 0.000000 0.000000
# 3 -0.005645 -0.006379 0.011881 0.000000 0.000000 0.000000
# 4 0.000000 0.000000 0.000000 0.089485 0.000000 0.000000
# 5 0.000000 0.000000 0.000000 0.000000 0.039045 0.000000
# 6 0.000000 0.000000 0.000000 0.000000 0.000000 -0.052186
#
#
# Mechanical properties :
#
#
# Convention : Reuss Voigt Hill
#
# Bulk Modulus (GPa) = 40.65368 53.77617 47.21492
# Shear Modulus (GPa) = 32.54217 15.62764 24.08491
#
# Velocity S-wave (km/s) = 4.25559 2.94906 3.66108
# Velocity P-wave (km/s) = 6.83893 6.44383 6.64432
#
# Compressibility (1/GPa) = 0.02459802
#
# Stress axis : x y z
#
# Youngs Moduli (GPa) = 47.95500 70.84130 84.16508
#
# Poissons Ratio (x) = -0.06360 0.47512
# Poissons Ratio (y) = -0.04305 0.53688
# Poissons Ratio (z) = 0.27071 0.45189
#
# Static dielectric constant tensor:
#      x y z
#    x 1.594630 0.000000 0.000000 
#    y 0.000000 1.583140 0.000000 
#    z 0.000000 0.000000 1.613760 
# 
# From -- ./inp_files/24057.got.cif
#   From: 2010.05.17/outbox.cif.g08.bks.cpg/sg62_13_cif.got.tgz:24057.got - 2010.06.03 15:25:27.
