data_PCOD9465837
_publ_section_title
;
Structure prediction by ZEFSAII (Michael W. Deem and Ramdas Pophale) SiO2 
 PCOD9465837
Probable space group: P N M A
;
_chemical_formula_sum "Si O2"
_cell_formula_units_Z 40
_cell_length_a 13.380726
_cell_length_b 7.370706
_cell_length_c 15.817250
_cell_angle_alpha 90.000000
_cell_angle_beta 90.000000
_cell_angle_gamma 90.000000
_cell_volume 1559.982567
_symmetry_space_group_name_H-M "P N M A"
_symmetry_group_IT_number 62
_symmetry_cell_setting 'orthorhombic'
loop_
_space_group_symop_operation_xyz
x,y,z
1/2-x,-y,1/2+z
1/2+x,1/2-y,1/2-z
-x,1/2+y,-z
-x,-y,-z
1/2+x,y,1/2-z
1/2-x,1/2+y,1/2+z
x,1/2-y,z
loop_
_atom_site_type_symbol
_atom_site_label
_atom_site_fract_x
_atom_site_fract_y
_atom_site_fract_z
Si Si1 0.018023 0.033272 0.597714
Si Si2 0.654032 0.454047 0.770865
Si Si3 0.009415 0.459003 0.141010
Si Si4 0.802619 0.027645 0.629989
Si Si5 0.348153 0.530139 0.506091
O O1 0.023188 0.250000 0.609008
O O2 0.915381 0.966777 0.639402
O O3 0.117636 0.958705 0.641960
O O4 0.000000 0.000000 0.500000
O O5 0.689676 0.250000 0.787222
O O6 0.550720 0.446839 0.716078
O O7 0.734222 0.537721 0.707427
O O8 0.023481 0.250000 0.164985
O O9 0.930263 0.469514 0.063289
O O10 0.111924 0.530692 0.098089
O O11 0.799855 0.250000 0.630124
O O12 0.754370 0.973260 0.539526
O O13 0.350261 0.750000 0.508753
#
# Coordination Sequence:
#
# PCOD9465837 Si02
#       5
#     8   8   8   8   8
#     4  10  21  38  58  78 105 142 179 219 266 316
#     4   9  18  34  54  75 102 139 178 213 258 319
#     4   9  15  24  44  74 104 132 168 215 262 301
#     4   8  15  32  55  74 100 139 177 209 255 316
#     4   8  14  26  45  70 103 140 171 204 254 315
#
# _framework density 25.641311000000002
#
# number of rings (size 3 to 8) (size 9 to 14) (size 15 to 20)
#    0.000    3.200    0.000    1.800    0.000    1.600 
#    3.600    4.000    0.000    0.000    0.000    0.000 
#    0.000    0.000    0.000    0.000    0.000    0.000 
#
# Total GULP energy -223212.130074 kJ/mol
# GULP energy per Si atom -5580.303252 kJ/mol
# Density = 2.558295 g / cm^3
# Si number density = 25.641311 Si / 1000 Ang^3
#
#
#
# Elastic Constant Matrix: (Units=GPa)
#
#
# Indices 1 2 3 4 5 6 
#
# 1 82.3507 -2.9728 30.8066 0.0000 0.0000 0.0000
# 2 -2.9728 105.8032 -3.2350 0.0000 0.0000 0.0000
# 3 30.8066 -3.2350 97.5085 0.0000 0.0000 0.0000
# 4 0.0000 0.0000 0.0000 18.0259 0.0000 0.0000
# 5 0.0000 0.0000 0.0000 0.0000 37.8865 0.0000
# 6 0.0000 0.0000 0.0000 0.0000 0.0000 1.9368
#
#
#
# Elastic Compliance Matrix: (Units=1/GPa)
#
#
# Indices 1 2 3 4 5 6 
#
# 1 0.013778 0.000254 -0.004344 0.000000 0.000000 0.000000
# 2 0.000254 0.009466 0.000234 0.000000 0.000000 0.000000
# 3 -0.004344 0.000234 0.011636 0.000000 0.000000 0.000000
# 4 0.000000 0.000000 0.000000 0.055476 0.000000 0.000000
# 5 0.000000 0.000000 0.000000 0.000000 0.026395 0.000000
# 6 0.000000 0.000000 0.000000 0.000000 0.000000 0.516320
#
#
# Mechanical properties :
#
#
# Convention : Reuss Voigt Hill
#
# Bulk Modulus (GPa) = 36.81022 37.20664 37.00843
# Shear Modulus (GPa) = 7.69423 28.97408 18.33415
#
# Velocity S-wave (km/s) = 1.73414 3.36516 2.67689
# Velocity P-wave (km/s) = 4.28913 5.44435 4.90090
#
# Compressibility (1/GPa) = 0.02716637
#
# Stress axis : x y z
#
# Youngs Moduli (GPa) = 72.58174 105.64346 85.94138
#
# Poissons Ratio (x) = -0.02686 0.37337
# Poissons Ratio (y) = -0.01846 -0.02009
# Poissons Ratio (z) = 0.31533 -0.02469
#
# Static dielectric constant tensor:
#      x y z
#    x 2.049010 0.000000 0.000000 
#    y 0.000000 2.590470 0.000000 
#    z 0.000000 0.000000 2.084070 
# 
# From -- ./inp_files/23445.got.cif
#   From: 2010.05.17/outbox.cif.g08.bks.cpg/sg62_12_cif.got.tgz:23445.got - 2010.06.03 15:25:27.
