data_PCOD9465763
_publ_section_title
;
Structure prediction by ZEFSAII (Michael W. Deem and Ramdas Pophale) SiO2 
 PCOD9465763
Probable space group: P N M A
;
_chemical_formula_sum "Si O2"
_cell_formula_units_Z 56
_cell_length_a 15.427188
_cell_length_b 8.703735
_cell_length_c 19.211365
_cell_angle_alpha 90.000000
_cell_angle_beta 90.000000
_cell_angle_gamma 90.000000
_cell_volume 2579.589824
_symmetry_space_group_name_H-M "P N M A"
_symmetry_group_IT_number 62
_symmetry_cell_setting 'orthorhombic'
loop_
_space_group_symop_operation_xyz
x,y,z
1/2-x,-y,1/2+z
1/2+x,1/2-y,1/2-z
-x,1/2+y,-z
-x,-y,-z
1/2+x,y,1/2-z
1/2-x,1/2+y,1/2+z
x,1/2-y,z
loop_
_atom_site_type_symbol
_atom_site_label
_atom_site_fract_x
_atom_site_fract_y
_atom_site_fract_z
Si Si1 0.736322 0.070106 0.601369
Si Si2 0.289788 0.432204 0.258083
Si Si3 0.016273 0.067532 0.755939
Si Si4 0.595370 0.065012 0.498809
Si Si5 0.021272 0.574814 0.610422
Si Si6 0.140638 0.435942 0.153911
Si Si7 0.134824 0.424087 0.500695
O O1 0.735015 0.250000 0.619122
O O2 0.644964 0.018962 0.568749
O O3 0.757061 0.972554 0.669192
O O4 0.800556 0.038483 0.537699
O O5 0.301269 0.250000 0.251986
O O6 0.384303 0.509735 0.261931
O O7 0.225865 0.486277 0.196567
O O8 0.014536 0.250000 0.763250
O O9 0.990059 0.014910 0.678172
O O10 0.947128 0.995875 0.809392
O O11 0.594029 0.250000 0.498608
O O12 0.640918 0.015685 0.426801
O O13 0.500000 0.000000 0.500000
O O14 0.044452 0.750000 0.629307
O O15 0.101205 0.488764 0.573806
O O16 0.946851 0.581497 0.552154
O O17 0.138749 0.250000 0.156730
O O18 0.168787 0.250000 0.506713
#
# Coordination Sequence:
#
# PCOD9465763 Si02
#       7
#     8   8   8   8   8   8   8
#     4  11  23  39  62  91 126 163 205 263 325 382
#     4  11  24  42  66  93 126 171 222 270 324 390
#     4  12  25  40  62  93 129 164 209 267 328 388
#     4  10  23  42  64  91 122 163 214 264 320 381
#     4  10  21  38  60  86 122 164 204 249 308 374
#     4  10  23  44  67  92 125 171 223 268 319 391
#     4  10  21  37  59  90 122 158 205 253 307 374
#
# _framework density 21.708877999999999
#
# number of rings (size 3 to 8) (size 9 to 14) (size 15 to 20)
#    0.000    1.429    0.000    4.714    2.000   10.286 
#    0.000    0.000    0.000    0.000    0.000    0.000 
#    0.000    0.000    0.000    0.000    0.000    0.000 
#
# Total GULP energy -313162.973944 kJ/mol
# GULP energy per Si atom -5592.195963 kJ/mol
# Density = 2.165947 g / cm^3
# Si number density = 21.708878 Si / 1000 Ang^3
#
#
#
# Elastic Constant Matrix: (Units=GPa)
#
#
# Indices 1 2 3 4 5 6 
#
# 1 63.4773 14.0418 19.1415 0.0000 0.0000 0.0000
# 2 14.0418 43.8809 9.9368 0.0000 0.0000 0.0000
# 3 19.1415 9.9368 88.2648 0.0000 0.0000 0.0000
# 4 0.0000 0.0000 0.0000 27.7961 0.0000 0.0000
# 5 0.0000 0.0000 0.0000 0.0000 34.6998 0.0000
# 6 0.0000 0.0000 0.0000 0.0000 0.0000 28.4448
#
#
#
# Elastic Compliance Matrix: (Units=1/GPa)
#
#
# Indices 1 2 3 4 5 6 
#
# 1 0.017850 -0.004962 -0.003312 0.000000 0.000000 0.000000
# 2 -0.004962 0.024764 -0.001712 0.000000 0.000000 0.000000
# 3 -0.003312 -0.001712 0.012241 0.000000 0.000000 0.000000
# 4 0.000000 0.000000 0.000000 0.035976 0.000000 0.000000
# 5 0.000000 0.000000 0.000000 0.000000 0.028819 0.000000
# 6 0.000000 0.000000 0.000000 0.000000 0.000000 0.035156
#
#
# Mechanical properties :
#
#
# Convention : Reuss Voigt Hill
#
# Bulk Modulus (GPa) = 28.66752 31.31812 29.99282
# Shear Modulus (GPa) = 26.82317 28.35499 27.58908
#
# Velocity S-wave (km/s) = 3.51890 3.61799 3.56879
# Velocity P-wave (km/s) = 5.45384 5.64897 5.55226
#
# Compressibility (1/GPa) = 0.03488268
#
# Stress axis : x y z
#
# Youngs Moduli (GPa) = 56.02200 40.38050 81.69515
#
# Poissons Ratio (x) = 0.20036 0.27061
# Poissons Ratio (y) = 0.27797 0.13986
# Poissons Ratio (z) = 0.18557 0.06913
#
# Static dielectric constant tensor:
#      x y z
#    x 1.823750 0.000000 0.000000 
#    y 0.000000 1.308250 0.000000 
#    z 0.000000 0.000000 1.798860 
# 
# From -- ./inp_files/27236.got.cif
#   From: 2010.05.17/outbox.cif.g08.bks.cpg/sg62_14_cif.got.tgz:27236.got - 2010.06.03 15:25:27.
