data_PCOD9465376
_publ_section_title
;
Structure prediction by ZEFSAII (Michael W. Deem and Ramdas Pophale) SiO2 
 PCOD9465376
Probable space group: P N M A
;
_chemical_formula_sum "Si O2"
_cell_formula_units_Z 40
_cell_length_a 14.628365
_cell_length_b 15.166042
_cell_length_c 7.188718
_cell_angle_alpha 90.000000
_cell_angle_beta 90.000000
_cell_angle_gamma 90.000000
_cell_volume 1594.848704
_symmetry_space_group_name_H-M "P N M A"
_symmetry_group_IT_number 62
_symmetry_cell_setting 'orthorhombic'
loop_
_space_group_symop_operation_xyz
x,y,z
1/2-x,-y,1/2+z
1/2+x,1/2-y,1/2-z
-x,1/2+y,-z
-x,-y,-z
1/2+x,y,1/2-z
1/2-x,1/2+y,1/2+z
x,1/2-y,z
loop_
_atom_site_type_symbol
_atom_site_label
_atom_site_fract_x
_atom_site_fract_y
_atom_site_fract_z
Si Si1 0.319505 0.398952 0.036354
Si Si2 0.993302 0.346896 0.286169
Si Si3 0.118719 0.042174 0.028677
Si Si4 0.178994 0.654020 0.115407
Si Si5 0.120183 0.092628 0.596672
O O1 0.384977 0.353887 0.184988
O O2 0.215089 0.414724 0.095534
O O3 0.392871 0.573949 0.315734
O O4 0.322700 0.351320 0.839827
O O5 0.020935 0.250000 0.221558
O O6 0.038536 0.419511 0.154498
O O7 0.036587 0.363321 0.490884
O O8 0.138550 0.996458 0.509938
O O9 0.132756 0.937207 0.049303
O O10 0.141819 0.750000 0.060188
O O11 0.286347 0.645980 0.066212
#
# Coordination Sequence:
#
# PCOD9465376 Si02
#       5
#     8   8   8   8   8
#     4  10  22  44  69  96 138 183 225 285 348 402
#     4  12  25  43  69 103 140 185 235 283 344 411
#     4  10  24  44  73  99 142 185 226 288 347 410
#     4  10  20  40  68 100 136 181 233 278 339 411
#     4  10  22  43  68  95 133 183 229 282 347 402
#
# _framework density 25.080749000000001
#
# number of rings (size 3 to 8) (size 9 to 14) (size 15 to 20)
#    0.000    1.600    2.000    1.800    2.800    5.600 
#    0.000    2.000    0.000    0.000    0.000    0.000 
#    0.000    0.000    0.000    0.000    0.000    0.000 
#
# Total GULP energy -224224.584873 kJ/mol
# GULP energy per Si atom -5605.614622 kJ/mol
# Density = 2.502366 g / cm^3
# Si number density = 25.080749 Si / 1000 Ang^3
#
#
#
# Elastic Constant Matrix: (Units=GPa)
#
#
# Indices 1 2 3 4 5 6 
#
# 1 149.5602 42.7022 52.7978 0.0000 0.0000 0.0000
# 2 42.7022 157.0505 52.7996 0.0000 0.0000 0.0000
# 3 52.7978 52.7996 119.4614 0.0000 0.0000 0.0000
# 4 0.0000 0.0000 0.0000 16.6934 0.0000 0.0000
# 5 0.0000 0.0000 0.0000 0.0000 35.6208 0.0000
# 6 0.0000 0.0000 0.0000 0.0000 0.0000 14.4042
#
#
#
# Elastic Compliance Matrix: (Units=1/GPa)
#
#
# Indices 1 2 3 4 5 6 
#
# 1 0.008102 -0.001174 -0.003062 0.000000 0.000000 0.000000
# 2 -0.001174 0.007649 -0.002862 0.000000 0.000000 0.000000
# 3 -0.003062 -0.002862 0.010989 0.000000 0.000000 0.000000
# 4 0.000000 0.000000 0.000000 0.059904 0.000000 0.000000
# 5 0.000000 0.000000 0.000000 0.000000 0.028073 0.000000
# 6 0.000000 0.000000 0.000000 0.000000 0.000000 0.069424
#
#
# Mechanical properties :
#
#
# Convention : Reuss Voigt Hill
#
# Bulk Modulus (GPa) = 79.71417 80.29684 80.00550
# Shear Modulus (GPa) = 24.68902 31.86183 28.27542
#
# Velocity S-wave (km/s) = 3.14089 3.56809 3.36128
# Velocity P-wave (km/s) = 6.70862 7.00427 6.85804
#
# Compressibility (1/GPa) = 0.01254482
#
# Stress axis : x y z
#
# Youngs Moduli (GPa) = 123.42039 130.74271 90.99817
#
# Poissons Ratio (x) = 0.15343 0.27866
# Poissons Ratio (y) = 0.14484 0.26043
# Poissons Ratio (z) = 0.37795 0.37417
#
# Static dielectric constant tensor:
#      x y z
#    x 1.969230 0.000000 0.000000 
#    y 0.000000 1.966250 0.000000 
#    z 0.000000 0.000000 1.999280 
# 
# From -- ./inp_files/8537.got.cif
#   From: 2010.05.17/outbox.cif.g08.bks.cpg/sg62_5_cif.got.tgz:8537.got - 2010.06.03 15:25:27.
