data_PCOD9465863
_publ_section_title
;
Structure prediction by ZEFSAII (Michael W. Deem and Ramdas Pophale) SiO2 
 PCOD9465863
Probable space group: P N M A
;
_chemical_formula_sum "Si O2"
_cell_formula_units_Z 40
_cell_length_a 5.264111
_cell_length_b 13.219028
_cell_length_c 24.174164
_cell_angle_alpha 90.000000
_cell_angle_beta 90.000000
_cell_angle_gamma 90.000000
_cell_volume 1682.193788
_symmetry_space_group_name_H-M "P N M A"
_symmetry_group_IT_number 62
_symmetry_cell_setting 'orthorhombic'
loop_
_space_group_symop_operation_xyz
x,y,z
1/2-x,-y,1/2+z
1/2+x,1/2-y,1/2-z
-x,1/2+y,-z
-x,-y,-z
1/2+x,y,1/2-z
1/2-x,1/2+y,1/2+z
x,1/2-y,z
loop_
_atom_site_type_symbol
_atom_site_label
_atom_site_fract_x
_atom_site_fract_y
_atom_site_fract_z
Si Si1 0.934011 0.870106 0.663074
Si Si2 0.592834 0.128816 0.905114
Si Si3 0.404992 0.873663 0.466785
Si Si4 0.557332 0.371622 0.406262
Si Si5 0.027275 0.934150 0.280618
O O1 0.927575 0.750000 0.675789
O O2 0.168695 0.889518 0.621194
O O3 0.673762 0.903771 0.633072
O O4 0.973366 0.943445 0.714835
O O5 0.593111 0.250000 0.909481
O O6 0.870553 0.095528 0.925064
O O7 0.529210 0.102106 0.842415
O O8 0.369260 0.091210 0.945457
O O9 0.398429 0.750000 0.466250
O O10 0.461749 0.902852 0.529868
O O11 0.529928 0.250000 0.407838
O O12 0.799654 0.900059 0.241195
#
# Coordination Sequence:
#
# PCOD9465863 Si02
#       5
#     8   8   8   8   8
#     4  10  21  38  59  84 114 147 185 227 276 334
#     4  10  21  38  59  84 114 147 185 227 276 334
#     4   9  17  33  59  88 118 149 178 217 273 337
#     4   9  17  33  59  88 118 149 178 217 273 337
#     4  12  26  42  59  80 109 146 194 246 284 318
#
# _framework density 23.778472000000001
#
# number of rings (size 3 to 8) (size 9 to 14) (size 15 to 20)
#    0.000    2.000    0.000    3.600    0.000    6.400 
#    0.000    6.000    0.000    0.000    0.000    0.000 
#    0.000    0.000    0.000    0.000    0.000    0.000 
#
# Total GULP energy -224003.516450 kJ/mol
# GULP energy per Si atom -5600.087911 kJ/mol
# Density = 2.372435 g / cm^3
# Si number density = 23.778472 Si / 1000 Ang^3
#
#
#
# Elastic Constant Matrix: (Units=GPa)
#
#
# Indices 1 2 3 4 5 6 
#
# 1 140.3830 6.4484 25.1718 0.0000 0.0000 0.0000
# 2 6.4484 39.3949 -9.9713 0.0000 0.0000 0.0000
# 3 25.1718 -9.9713 51.1600 0.0000 0.0000 0.0000
# 4 0.0000 0.0000 0.0000 40.4636 0.0000 0.0000
# 5 0.0000 0.0000 0.0000 0.0000 42.0004 0.0000
# 6 0.0000 0.0000 0.0000 0.0000 0.0000 20.4754
#
#
#
# Elastic Compliance Matrix: (Units=1/GPa)
#
#
# Indices 1 2 3 4 5 6 
#
# 1 0.008029 -0.002434 -0.004425 0.000000 0.000000 0.000000
# 2 -0.002434 0.027439 0.006546 0.000000 0.000000 0.000000
# 3 -0.004425 0.006546 0.022999 0.000000 0.000000 0.000000
# 4 0.000000 0.000000 0.000000 0.024714 0.000000 0.000000
# 5 0.000000 0.000000 0.000000 0.000000 0.023809 0.000000
# 6 0.000000 0.000000 0.000000 0.000000 0.000000 0.048839
#
#
# Mechanical properties :
#
#
# Convention : Reuss Voigt Hill
#
# Bulk Modulus (GPa) = 17.28883 30.47063 23.87973
# Shear Modulus (GPa) = 28.45188 34.54049 31.49619
#
# Velocity S-wave (km/s) = 3.46286 3.81543 3.64341
# Velocity P-wave (km/s) = 4.82442 5.67910 5.26912
#
# Compressibility (1/GPa) = 0.05784082
#
# Stress axis : x y z
#
# Youngs Moduli (GPa) = 124.55557 36.44426 43.47963
#
# Poissons Ratio (x) = 0.08871 0.19238
# Poissons Ratio (y) = 0.30318 -0.28460
# Poissons Ratio (z) = 0.55111 -0.23855
#
# Static dielectric constant tensor:
#      x y z
#    x 1.867270 0.000000 0.000000 
#    y 0.000000 2.010860 0.000000 
#    z 0.000000 0.000000 1.807730 
# 
# From -- ./inp_files/1039.got.cif
#   From: 2010.05.17/outbox.cif.g08.bks.cpg/sg62_1_cif.got.tgz:1039.got - 2010.06.03 15:25:27.
