data_PCOD9465954
_publ_section_title
;
Structure prediction by ZEFSAII (Michael W. Deem and Ramdas Pophale) SiO2 
 PCOD9465954
Probable space group: P N M A
;
_chemical_formula_sum "Si O2"
_cell_formula_units_Z 64
_cell_length_a 24.186430
_cell_length_b 9.114055
_cell_length_c 14.989090
_cell_angle_alpha 90.000000
_cell_angle_beta 90.000000
_cell_angle_gamma 90.000000
_cell_volume 3304.141837
_symmetry_space_group_name_H-M "P N M A"
_symmetry_group_IT_number 62
_symmetry_cell_setting 'orthorhombic'
loop_
_space_group_symop_operation_xyz
x,y,z
1/2-x,-y,1/2+z
1/2+x,1/2-y,1/2-z
-x,1/2+y,-z
-x,-y,-z
1/2+x,y,1/2-z
1/2-x,1/2+y,1/2+z
x,1/2-y,z
loop_
_atom_site_type_symbol
_atom_site_label
_atom_site_fract_x
_atom_site_fract_y
_atom_site_fract_z
Si Si1 0.667237 0.425699 0.583250
Si Si2 0.032487 0.923942 0.580943
Si Si3 0.977325 0.080325 0.746380
Si Si4 0.244766 0.925546 0.769429
Si Si5 0.958926 0.579379 0.067364
Si Si6 0.628527 0.078049 0.201339
Si Si7 0.259694 0.076479 0.058159
Si Si8 0.867645 0.920035 0.493720
O O1 0.665705 0.250000 0.598733
O O2 0.701125 0.497098 0.665223
O O3 0.604006 0.478542 0.573776
O O4 0.701684 0.450947 0.491896
O O5 0.027553 0.750000 0.575228
O O6 0.095214 0.977385 0.568162
O O7 0.000000 0.000000 0.500000
O O8 0.007817 0.984151 0.672208
O O9 0.974419 0.250000 0.717059
O O10 0.012182 0.072304 0.836410
O O11 0.915602 0.016158 0.755490
O O12 0.240939 0.750000 0.784058
O O13 0.308018 0.970380 0.790139
O O14 0.237895 0.953010 0.663814
O O15 0.954724 0.750000 0.040370
O O16 0.000000 0.500000 0.000000
O O17 0.625426 0.250000 0.227277
O O18 0.613660 0.067183 0.096545
O O19 0.272230 0.250000 0.044972
O O20 0.305210 0.974924 0.012320
O O21 0.872994 0.750000 0.467549
#
# Coordination Sequence:
#
# PCOD9465954 Si02
#       8
#     8   8   8   8   8   8   8   8
#     4  10  22  42  65  91 126 164 205 260 317 370
#     4  12  24  39  60  89 125 165 205 248 306 371
#     4  11  24  41  62  92 127 163 211 262 310 374
#     4  10  22  40  62  92 123 158 206 256 307 376
#     4  10  25  46  67  93 124 166 217 266 316 368
#     4  10  21  38  62  89 121 162 208 256 314 375
#     4  10  22  39  62  90 121 160 206 253 312 376
#     4  11  22  38  60  88 124 162 202 251 306 369
#
# _framework density 19.369627000000001
#
# number of rings (size 3 to 8) (size 9 to 14) (size 15 to 20)
#    0.000    1.500    2.500    1.875    3.500    3.000 
#    0.000    0.000    0.000    0.000    0.000    0.000 
#    0.000    0.000    0.000    0.000    0.000    0.000 
#
# Total GULP energy -357524.726309 kJ/mol
# GULP energy per Si atom -5586.323849 kJ/mol
# Density = 1.932554 g / cm^3
# Si number density = 19.369627 Si / 1000 Ang^3
#
#
#
# Elastic Constant Matrix: (Units=GPa)
#
#
# Indices 1 2 3 4 5 6 
#
# 1 146.7904 51.2963 30.8076 0.0000 0.0000 0.0000
# 2 51.2963 88.3143 36.8910 0.0000 0.0000 0.0000
# 3 30.8076 36.8910 58.0920 0.0000 0.0000 0.0000
# 4 0.0000 0.0000 0.0000 24.6228 0.0000 0.0000
# 5 0.0000 0.0000 0.0000 0.0000 27.0238 0.0000
# 6 0.0000 0.0000 0.0000 0.0000 0.0000 33.9895
#
#
#
# Elastic Compliance Matrix: (Units=1/GPa)
#
#
# Indices 1 2 3 4 5 6 
#
# 1 0.008701 -0.004255 -0.001912 0.000000 0.000000 0.000000
# 2 -0.004255 0.017492 -0.008852 0.000000 0.000000 0.000000
# 3 -0.001912 -0.008852 0.023849 0.000000 0.000000 0.000000
# 4 0.000000 0.000000 0.000000 0.040613 0.000000 0.000000
# 5 0.000000 0.000000 0.000000 0.000000 0.037004 0.000000
# 6 0.000000 0.000000 0.000000 0.000000 0.000000 0.029421
#
#
# Mechanical properties :
#
#
# Convention : Reuss Voigt Hill
#
# Bulk Modulus (GPa) = 49.98862 59.02073 54.50467
# Shear Modulus (GPa) = 25.80163 28.74068 27.27116
#
# Velocity S-wave (km/s) = 3.65371 3.85619 3.75632
# Velocity P-wave (km/s) = 6.60781 7.09675 6.85664
#
# Compressibility (1/GPa) = 0.02000455
#
# Stress axis : x y z
#
# Youngs Moduli (GPa) = 114.93419 57.16819 41.92974
#
# Poissons Ratio (x) = 0.24325 0.08017
# Poissons Ratio (y) = 0.48904 0.37116
# Poissons Ratio (z) = 0.21976 0.50604
#
# Static dielectric constant tensor:
#      x y z
#    x 1.706490 0.000000 0.000000 
#    y 0.000000 1.656720 0.000000 
#    z 0.000000 0.000000 1.672170 
# 
# From -- ./inp_files/20893.got.cif
#   From: 2010.05.17/outbox.cif.g08.bks.cpg/sg62_11_cif.got.tgz:20893.got - 2010.06.03 15:25:27.
