data_PCOD9465855
_publ_section_title
;
Structure prediction by ZEFSAII (Michael W. Deem and Ramdas Pophale) SiO2 
 PCOD9465855
Probable space group: P N M A
;
_chemical_formula_sum "Si O2"
_cell_formula_units_Z 64
_cell_length_a 17.838538
_cell_length_b 17.349881
_cell_length_c 9.699043
_cell_angle_alpha 90.000000
_cell_angle_beta 90.000000
_cell_angle_gamma 90.000000
_cell_volume 3001.819974
_symmetry_space_group_name_H-M "P N M A"
_symmetry_group_IT_number 62
_symmetry_cell_setting 'orthorhombic'
loop_
_space_group_symop_operation_xyz
x,y,z
1/2-x,-y,1/2+z
1/2+x,1/2-y,1/2-z
-x,1/2+y,-z
-x,-y,-z
1/2+x,y,1/2-z
1/2-x,1/2+y,1/2+z
x,1/2-y,z
loop_
_atom_site_type_symbol
_atom_site_label
_atom_site_fract_x
_atom_site_fract_y
_atom_site_fract_z
Si Si1 0.912024 0.906571 0.995516
Si Si2 0.542711 0.159234 0.212920
Si Si3 0.103271 0.658662 0.563536
Si Si4 0.064063 0.572297 0.091854
Si Si5 0.725746 0.916212 0.363630
Si Si6 0.752442 0.071160 0.540893
Si Si7 0.122926 0.162124 0.582427
Si Si8 0.995490 0.062031 0.623119
O O1 0.916531 0.881434 0.837399
O O2 0.922057 0.999506 0.008615
O O3 0.828828 0.886947 0.044733
O O4 0.991349 0.877602 0.055628
O O5 0.538943 0.250000 0.241503
O O6 0.455784 0.134388 0.184383
O O7 0.591738 0.150852 0.073429
O O8 0.113480 0.750000 0.570994
O O9 0.182178 0.616601 0.541126
O O10 0.053671 0.633731 0.431608
O O11 0.143001 0.614416 0.101767
O O12 0.045230 0.534925 0.240499
O O13 0.726132 0.938526 0.201459
O O14 0.790457 0.855771 0.398027
O O15 0.741774 0.991409 0.457803
O O16 0.105606 0.250000 0.622968
O O17 0.076722 0.095519 0.660506
O O18 0.000000 0.000000 0.500000
#
# Coordination Sequence:
#
# PCOD9465855 Si02
#       8
#     8   8   8   8   8   8   8   8
#     4  10  22  39  60  89 130 160 203 275 320 383
#     4   9  20  40  63  89 122 168 217 256 313 390
#     4  10  21  38  62  94 126 164 214 268 318 389
#     4  10  21  38  58  90 123 158 203 260 328 376
#     4  11  24  41  64  97 128 171 217 273 331 394
#     4  11  24  40  66  96 131 167 222 276 335 387
#     4  10  22  39  63  93 127 167 217 265 316 394
#     4  11  19  35  67  93 120 162 213 261 321 376
#
# _framework density 21.320398999999998
#
# number of rings (size 3 to 8) (size 9 to 14) (size 15 to 20)
#    0.000    1.750    1.250    4.125    3.500    4.000 
#    0.000    3.125    0.000    0.000    0.000    0.000 
#    0.000    0.000    0.000    0.000    0.000    0.000 
#
# Total GULP energy -356787.737193 kJ/mol
# GULP energy per Si atom -5574.808394 kJ/mol
# Density = 2.127187 g / cm^3
# Si number density = 21.320399 Si / 1000 Ang^3
#
#
#
# Elastic Constant Matrix: (Units=GPa)
#
#
# Indices 1 2 3 4 5 6 
#
# 1 157.4117 15.0973 11.9175 0.0000 0.0000 0.0000
# 2 15.0973 41.3509 5.4490 0.0000 0.0000 0.0000
# 3 11.9175 5.4490 35.7719 0.0000 0.0000 0.0000
# 4 0.0000 0.0000 0.0000 13.6763 0.0000 0.0000
# 5 0.0000 0.0000 0.0000 0.0000 30.2269 0.0000
# 6 0.0000 0.0000 0.0000 0.0000 0.0000 15.5485
#
#
#
# Elastic Compliance Matrix: (Units=1/GPa)
#
#
# Indices 1 2 3 4 5 6 
#
# 1 0.006707 -0.002199 -0.001900 0.000000 0.000000 0.000000
# 2 -0.002199 0.025399 -0.003137 0.000000 0.000000 0.000000
# 3 -0.001900 -0.003137 0.029066 0.000000 0.000000 0.000000
# 4 0.000000 0.000000 0.000000 0.073119 0.000000 0.000000
# 5 0.000000 0.000000 0.000000 0.000000 0.033083 0.000000
# 6 0.000000 0.000000 0.000000 0.000000 0.000000 0.064315
#
#
# Mechanical properties :
#
#
# Convention : Reuss Voigt Hill
#
# Bulk Modulus (GPa) = 21.41203 33.27356 27.34280
# Shear Modulus (GPa) = 19.10390 25.36172 22.23281
#
# Velocity S-wave (km/s) = 2.99664 3.45273 3.23274
# Velocity P-wave (km/s) = 4.69445 5.61564 5.17558
#
# Compressibility (1/GPa) = 0.04670272
#
# Stress axis : x y z
#
# Youngs Moduli (GPa) = 149.08784 39.37123 34.40493
#
# Poissons Ratio (x) = 0.08656 0.06536
# Poissons Ratio (y) = 0.32778 0.10791
# Poissons Ratio (z) = 0.28322 0.12349
#
# Static dielectric constant tensor:
#      x y z
#    x 1.830330 0.000000 0.000000 
#    y 0.000000 1.765880 0.000000 
#    z 0.000000 0.000000 1.870390 
# 
# From -- ./inp_files/8135.got.cif
#   From: 2010.05.17/outbox.cif.g08.bks.cpg/sg62_5_cif.got.tgz:8135.got - 2010.06.03 15:25:27.
