data_PCOD9465497
_publ_section_title
;
Structure prediction by ZEFSAII (Michael W. Deem and Ramdas Pophale) SiO2 
 PCOD9465497
Probable space group: P N M A
;
_chemical_formula_sum "Si O2"
_cell_formula_units_Z 48
_cell_length_a 7.983911
_cell_length_b 15.667214
_cell_length_c 17.466412
_cell_angle_alpha 90.000000
_cell_angle_beta 90.000000
_cell_angle_gamma 90.000000
_cell_volume 2184.797362
_symmetry_space_group_name_H-M "P N M A"
_symmetry_group_IT_number 62
_symmetry_cell_setting 'orthorhombic'
loop_
_space_group_symop_operation_xyz
x,y,z
1/2-x,-y,1/2+z
1/2+x,1/2-y,1/2-z
-x,1/2+y,-z
-x,-y,-z
1/2+x,y,1/2-z
1/2-x,1/2+y,1/2+z
x,1/2-y,z
loop_
_atom_site_type_symbol
_atom_site_label
_atom_site_fract_x
_atom_site_fract_y
_atom_site_fract_z
Si Si1 0.541815 0.151931 0.780207
Si Si2 0.264395 0.652900 0.793251
Si Si3 0.108353 0.847589 0.127428
Si Si4 0.271228 0.997035 0.534255
Si Si5 0.398169 0.846550 0.631596
Si Si6 0.087515 0.996852 0.380525
O O1 0.481551 0.250000 0.788037
O O2 0.535216 0.132118 0.689669
O O3 0.723785 0.148612 0.819467
O O4 0.429888 0.084163 0.825372
O O5 0.326202 0.750000 0.806727
O O6 0.269791 0.639800 0.702104
O O7 0.375983 0.581272 0.832320
O O8 0.079828 0.646454 0.828816
O O9 0.090189 0.750000 0.099471
O O10 0.137407 0.916510 0.061584
O O11 0.368932 0.916824 0.568069
O O12 0.089853 0.996804 0.575918
O O13 0.230504 0.990223 0.445020
O O14 0.378224 0.750000 0.602422
#
# Coordination Sequence:
#
# PCOD9465497 Si02
#       6
#     8   8   8   8   8   8
#     4   9  18  33  52  74 100 131 169 211 254 303
#     4  10  21  37  57  80 106 139 180 225 271 318
#     4   9  18  33  52  74 100 131 169 211 254 303
#     4  10  21  35  53  79 109 141 175 214 264 318
#     4  10  21  37  57  80 106 139 180 225 271 318
#     4  10  21  35  53  79 109 141 175 214 264 318
#
# _framework density 21.970002000000001
#
# number of rings (size 3 to 8) (size 9 to 14) (size 15 to 20)
#    0.000    2.333    0.000    2.000    0.000    8.000 
#    0.000    3.333    0.000    4.000    0.000    0.000 
#    0.000    0.000    0.000    0.000    0.000    0.000 
#
# Total GULP energy -268461.592660 kJ/mol
# GULP energy per Si atom -5592.949847 kJ/mol
# Density = 2.192000 g / cm^3
# Si number density = 21.970002 Si / 1000 Ang^3
#
#
#
# Elastic Constant Matrix: (Units=GPa)
#
#
# Indices 1 2 3 4 5 6 
#
# 1 62.0051 39.0108 22.0724 0.0000 0.0000 0.0000
# 2 39.0108 103.3425 60.3420 0.0000 0.0000 0.0000
# 3 22.0724 60.3420 60.2828 0.0000 0.0000 0.0000
# 4 0.0000 0.0000 0.0000 -31.2930 0.0000 0.0000
# 5 0.0000 0.0000 0.0000 0.0000 39.5309 0.0000
# 6 0.0000 0.0000 0.0000 0.0000 0.0000 17.4198
#
#
#
# Elastic Compliance Matrix: (Units=1/GPa)
#
#
# Indices 1 2 3 4 5 6 
#
# 1 0.021160 -0.008336 0.000597 0.000000 0.000000 0.000000
# 2 -0.008336 0.026572 -0.023545 0.000000 0.000000 0.000000
# 3 0.000597 -0.023545 0.039939 0.000000 0.000000 0.000000
# 4 0.000000 0.000000 0.000000 -0.031956 0.000000 0.000000
# 5 0.000000 0.000000 0.000000 0.000000 0.025297 0.000000
# 6 0.000000 0.000000 0.000000 0.000000 0.000000 0.057406
#
#
# Mechanical properties :
#
#
# Convention : Reuss Voigt Hill
#
# Bulk Modulus (GPa) = 39.84012 52.05341 45.94677
# Shear Modulus (GPa) = 23.88306 12.07856 17.98081
#
# Velocity S-wave (km/s) = 3.30066 2.34727 2.86392
# Velocity P-wave (km/s) = 5.71831 5.57590 5.64755
#
# Compressibility (1/GPa) = 0.02510033
#
# Stress axis : x y z
#
# Youngs Moduli (GPa) = 47.25898 37.63418 25.03840
#
# Poissons Ratio (x) = 0.31372 -0.01494
# Poissons Ratio (y) = 0.39395 0.58954
# Poissons Ratio (z) = -0.02819 0.88611
#
# Static dielectric constant tensor:
#      x y z
#    x 1.852390 0.000000 0.000000 
#    y 0.000000 1.763800 0.000000 
#    z 0.000000 0.000000 1.782840 
# 
# From -- ./inp_files/22185.got.cif
#   From: 2010.05.17/outbox.cif.g08.bks.cpg/sg62_12_cif.got.tgz:22185.got - 2010.06.03 15:25:27.
