data_PCOD9465714
_publ_section_title
;
Structure prediction by ZEFSAII (Michael W. Deem and Ramdas Pophale) SiO2 
 PCOD9465714
Probable space group: P N M A
;
_chemical_formula_sum "Si O2"
_cell_formula_units_Z 56
_cell_length_a 22.583127
_cell_length_b 7.771695
_cell_length_c 15.140718
_cell_angle_alpha 90.000000
_cell_angle_beta 90.000000
_cell_angle_gamma 90.000000
_cell_volume 2657.334928
_symmetry_space_group_name_H-M "P N M A"
_symmetry_group_IT_number 62
_symmetry_cell_setting 'orthorhombic'
loop_
_space_group_symop_operation_xyz
x,y,z
1/2-x,-y,1/2+z
1/2+x,1/2-y,1/2-z
-x,1/2+y,-z
-x,-y,-z
1/2+x,y,1/2-z
1/2-x,1/2+y,1/2+z
x,1/2-y,z
loop_
_atom_site_type_symbol
_atom_site_label
_atom_site_fract_x
_atom_site_fract_y
_atom_site_fract_z
Si Si1 0.465362 0.958669 0.634509
Si Si2 0.715939 0.452829 0.330958
Si Si3 0.382216 0.540802 0.799005
Si Si4 0.650111 0.052561 0.852385
Si Si5 0.569320 0.457958 0.012321
Si Si6 0.363036 0.541565 0.508503
Si Si7 0.404328 0.047783 0.328278
O O1 0.466446 0.750000 0.629370
O O2 0.431070 0.002617 0.724784
O O3 0.424917 0.017419 0.553263
O O4 0.532190 0.020942 0.639146
O O5 0.702747 0.250000 0.331186
O O6 0.679960 0.519461 0.244987
O O7 0.785765 0.473318 0.334480
O O8 0.686436 0.518851 0.421826
O O9 0.380357 0.750000 0.805751
O O10 0.403087 0.478532 0.894821
O O11 0.661896 0.250000 0.875637
O O12 0.614942 0.041484 0.761060
O O13 0.609732 0.977775 0.930905
O O14 0.572181 0.250000 0.012437
O O15 0.500000 0.500000 0.000000
O O16 0.362322 0.750000 0.504496
O O17 0.359403 0.475604 0.409310
O O18 0.409984 0.250000 0.308490
#
# Coordination Sequence:
#
# PCOD9465714 Si02
#       7
#     8   8   8   8   8   8   8
#     4   8  15  29  52  81 109 137 170 211 260 316
#     4   9  19  37  59  80 104 141 184 221 267 329
#     4   8  15  32  57  80 104 138 179 220 264 318
#     4  11  24  38  52  77 113 146 180 230 280 316
#     4  10  21  37  58  83 111 144 182 227 278 329
#     4   9  18  34  55  80 111 140 170 217 271 318
#     4  11  21  33  53  79 106 142 183 216 258 320
#
# _framework density 21.073746
#
# number of rings (size 3 to 8) (size 9 to 14) (size 15 to 20)
#    0.000    2.571    0.000    3.857    0.000    4.000 
#    0.000    2.857    0.000    2.571    0.000    0.000 
#    0.000    0.000    0.000    0.000    0.000    0.000 
#
# Total GULP energy -312439.651460 kJ/mol
# GULP energy per Si atom -5579.279490 kJ/mol
# Density = 2.102578 g / cm^3
# Si number density = 21.073746 Si / 1000 Ang^3
#
#
#
# Elastic Constant Matrix: (Units=GPa)
#
#
# Indices 1 2 3 4 5 6 
#
# 1 98.4755 -4.2556 51.9273 0.0000 0.0000 0.0000
# 2 -4.2556 28.3725 -4.6693 0.0000 0.0000 0.0000
# 3 51.9273 -4.6693 164.7035 0.0000 0.0000 0.0000
# 4 0.0000 0.0000 0.0000 5.7033 0.0000 0.0000
# 5 0.0000 0.0000 0.0000 0.0000 13.9894 0.0000
# 6 0.0000 0.0000 0.0000 0.0000 0.0000 9.6487
#
#
#
# Elastic Compliance Matrix: (Units=1/GPa)
#
#
# Indices 1 2 3 4 5 6 
#
# 1 0.012221 0.001204 -0.003819 0.000000 0.000000 0.000000
# 2 0.001204 0.035529 0.000628 0.000000 0.000000 0.000000
# 3 -0.003819 0.000628 0.007293 0.000000 0.000000 0.000000
# 4 0.000000 0.000000 0.000000 0.175336 0.000000 0.000000
# 5 0.000000 0.000000 0.000000 0.000000 0.071483 0.000000
# 6 0.000000 0.000000 0.000000 0.000000 0.000000 0.103641
#
#
# Mechanical properties :
#
#
# Convention : Reuss Voigt Hill
#
# Bulk Modulus (GPa) = 19.58109 41.95070 30.76590
# Shear Modulus (GPa) = 11.72334 22.43823 17.08078
#
# Velocity S-wave (km/s) = 2.36116 3.26659 2.85006
# Velocity P-wave (km/s) = 4.09210 5.84613 5.04592
#
# Compressibility (1/GPa) = 0.05106967
#
# Stress axis : x y z
#
# Youngs Moduli (GPa) = 81.82967 28.14577 137.11295
#
# Poissons Ratio (x) = -0.03390 0.52359
# Poissons Ratio (y) = -0.09856 -0.08604
# Poissons Ratio (z) = 0.31248 -0.01766
#
# Static dielectric constant tensor:
#      x y z
#    x 1.749810 0.000000 0.000000 
#    y 0.000000 1.817570 0.000000 
#    z 0.000000 0.000000 1.756040 
# 
# From -- ./inp_files/20364.got.cif
#   From: 2010.05.17/outbox.cif.g08.bks.cpg/sg62_11_cif.got.tgz:20364.got - 2010.06.03 15:25:27.
