data_PCOD9465834
_publ_section_title
;
Structure prediction by ZEFSAII (Michael W. Deem and Ramdas Pophale) SiO2 
 PCOD9465834
Probable space group: P N M A
;
_chemical_formula_sum "Si O2"
_cell_formula_units_Z 64
_cell_length_a 15.767754
_cell_length_b 7.749239
_cell_length_c 24.448219
_cell_angle_alpha 90.000000
_cell_angle_beta 90.000000
_cell_angle_gamma 90.000000
_cell_volume 2987.281287
_symmetry_space_group_name_H-M "P N M A"
_symmetry_group_IT_number 62
_symmetry_cell_setting 'orthorhombic'
loop_
_space_group_symop_operation_xyz
x,y,z
1/2-x,-y,1/2+z
1/2+x,1/2-y,1/2-z
-x,1/2+y,-z
-x,-y,-z
1/2+x,y,1/2-z
1/2-x,1/2+y,1/2+z
x,1/2-y,z
loop_
_atom_site_type_symbol
_atom_site_label
_atom_site_fract_x
_atom_site_fract_y
_atom_site_fract_z
Si Si1 0.849649 0.453992 0.254027
Si Si2 0.896073 0.551537 0.630985
Si Si3 0.614917 0.540882 0.368987
Si Si4 0.265423 0.453710 0.050131
Si Si5 0.341827 0.449348 0.753098
Si Si6 0.426192 0.958802 0.358844
Si Si7 0.229759 0.049039 0.930472
Si Si8 0.915395 0.038084 0.372870
O O1 0.833263 0.250000 0.258646
O O2 0.759684 0.540118 0.240517
O O3 0.912450 0.485043 0.203692
O O4 0.885479 0.515440 0.312196
O O5 0.891267 0.750000 0.613220
O O6 0.885530 0.543606 0.696481
O O7 0.815907 0.459701 0.604200
O O8 0.988616 0.481076 0.616159
O O9 0.620046 0.750000 0.369768
O O10 0.683850 0.473771 0.411303
O O11 0.637066 0.483412 0.307287
O O12 0.518290 0.488553 0.380573
O O13 0.282651 0.250000 0.042805
O O14 0.346924 0.522884 0.082846
O O15 0.246644 0.528507 0.990285
O O16 0.368910 0.250000 0.755889
O O17 0.424026 0.750000 0.358272
O O18 0.348161 0.025565 0.395474
O O19 0.207450 0.250000 0.938982
O O20 0.916504 0.250000 0.372387
#
# Coordination Sequence:
#
# PCOD9465834 Si02
#       8
#     8   8   8   8   8   8   8   8
#     4  11  20  34  59  87 113 148 189 230 282 344
#     4  11  22  37  59  85 114 149 189 237 284 336
#     4  10  22  38  58  85 116 151 189 235 286 336
#     4  10  21  40  61  81 112 154 195 239 289 339
#     4  11  21  35  56  84 117 149 182 229 289 345
#     4  10  21  38  57  82 119 153 185 232 286 340
#     4  10  22  39  59  82 113 154 195 237 289 340
#     4   9  20  37  57  84 116 146 185 238 288 334
#
# _framework density 21.424163
#
# number of rings (size 3 to 8) (size 9 to 14) (size 15 to 20)
#    0.000    1.750    2.500    1.875    0.000    2.500 
#    0.000    3.125    0.000    0.000    0.000    0.000 
#    0.000    0.000    0.000    0.000    0.000    0.000 
#
# Total GULP energy -357683.595681 kJ/mol
# GULP energy per Si atom -5588.806183 kJ/mol
# Density = 2.137540 g / cm^3
# Si number density = 21.424163 Si / 1000 Ang^3
#
#
#
# Elastic Constant Matrix: (Units=GPa)
#
#
# Indices 1 2 3 4 5 6 
#
# 1 91.1524 -7.3248 19.8263 0.0000 0.0000 0.0000
# 2 -7.3248 30.1204 -5.2178 0.0000 0.0000 0.0000
# 3 19.8263 -5.2178 108.3116 0.0000 0.0000 0.0000
# 4 0.0000 0.0000 0.0000 4.9351 0.0000 0.0000
# 5 0.0000 0.0000 0.0000 0.0000 0.4888 0.0000
# 6 0.0000 0.0000 0.0000 0.0000 0.0000 -0.6596
#
#
#
# Elastic Compliance Matrix: (Units=1/GPa)
#
#
# Indices 1 2 3 4 5 6 
#
# 1 0.011606 0.002475 -0.002005 0.000000 0.000000 0.000000
# 2 0.002475 0.034007 0.001185 0.000000 0.000000 0.000000
# 3 -0.002005 0.001185 0.009657 0.000000 0.000000 0.000000
# 4 0.000000 0.000000 0.000000 0.202628 0.000000 0.000000
# 5 0.000000 0.000000 0.000000 0.000000 2.045853 0.000000
# 6 0.000000 0.000000 0.000000 0.000000 0.000000 -1.516087
#
#
# Mechanical properties :
#
#
# Convention : Reuss Voigt Hill
#
# Bulk Modulus (GPa) = 17.07078 27.12799 22.09939
# Shear Modulus (GPa) = 6.21983 15.77291 10.99637
#
# Velocity S-wave (km/s) = 1.70572 2.71628 2.26800
# Velocity P-wave (km/s) = 3.44451 4.74630 4.14681
#
# Compressibility (1/GPa) = 0.05857963
#
# Stress axis : x y z
#
# Youngs Moduli (GPa) = 86.16487 29.40550 103.55437
#
# Poissons Ratio (x) = -0.07278 0.20764
# Poissons Ratio (y) = -0.21325 -0.12273
# Poissons Ratio (z) = 0.17278 -0.03485
#
# Static dielectric constant tensor:
#      x y z
#    x 1.759190 0.000000 0.000000 
#    y 0.000000 1.777130 0.000000 
#    z 0.000000 0.000000 1.749490 
# 
# From -- ./inp_files/29867.got.cif
#   From: 2010.05.17/outbox.cif.g08.bks.cpg/sg62_15_cif.got.tgz:29867.got - 2010.06.03 15:25:27.
