data_PCOD9465302
_publ_section_title
;
Structure prediction by ZEFSAII (Michael W. Deem and Ramdas Pophale) SiO2 
 PCOD9465302
Probable space group: P N M A
;
_chemical_formula_sum "Si O2"
_cell_formula_units_Z 48
_cell_length_a 15.388521
_cell_length_b 8.852355
_cell_length_c 19.337746
_cell_angle_alpha 90.000000
_cell_angle_beta 90.000000
_cell_angle_gamma 90.000000
_cell_volume 2634.277696
_symmetry_space_group_name_H-M "P N M A"
_symmetry_group_IT_number 62
_symmetry_cell_setting 'orthorhombic'
loop_
_space_group_symop_operation_xyz
x,y,z
1/2-x,-y,1/2+z
1/2+x,1/2-y,1/2-z
-x,1/2+y,-z
-x,-y,-z
1/2+x,y,1/2-z
1/2-x,1/2+y,1/2+z
x,1/2-y,z
loop_
_atom_site_type_symbol
_atom_site_label
_atom_site_fract_x
_atom_site_fract_y
_atom_site_fract_z
Si Si1 0.727258 0.930775 0.419741
Si Si2 0.973215 0.430968 0.926326
Si Si3 0.120933 0.930369 0.669255
Si Si4 0.286353 0.930939 0.922709
Si Si5 0.526621 0.569988 0.074003
Si Si6 0.879853 0.431613 0.168861
O O1 0.736137 0.750000 0.409484
O O2 0.626584 0.972661 0.410518
O O3 0.755065 0.962358 0.498946
O O4 0.791608 0.015984 0.368593
O O5 0.977340 0.250000 0.931120
O O6 0.039703 0.490768 0.869242
O O7 0.000000 0.500000 0.000000
O O8 0.111848 0.750000 0.662453
O O9 0.123373 0.968858 0.750287
O O10 0.041055 0.009698 0.630493
O O11 0.300767 0.750000 0.917304
O O12 0.209170 0.973471 0.870525
O O13 0.376096 0.015846 0.909417
O O14 0.521883 0.750000 0.069457
O O15 0.500000 0.500000 0.000000
O O16 0.889087 0.250000 0.161687
#
# Coordination Sequence:
#
# PCOD9465302 Si02
#       6
#     8   8   8   8   8   8
#     4  10  21  38  62  89 122 158 198 250 300 352
#     4  11  22  38  63  93 124 161 203 251 301 359
#     4  11  24  41  63  90 123 161 201 248 306 365
#     4  10  20  39  64  89 121 158 200 249 299 353
#     4  12  24  39  62  91 122 158 204 252 300 361
#     4  10  23  43  63  89 125 161 200 250 305 362
#
# _framework density 18.221314
#
# number of rings (size 3 to 8) (size 9 to 14) (size 15 to 20)
#    0.000    1.333    3.333    2.500    0.000    4.667 
#    0.000    5.000    0.000    0.000    0.000    0.000 
#    0.000    0.000    0.000    0.000    0.000    0.000 
#
# Total GULP energy -268359.490215 kJ/mol
# GULP energy per Si atom -5590.822713 kJ/mol
# Density = 1.817984 g / cm^3
# Si number density = 18.221314 Si / 1000 Ang^3
#
#
#
# Elastic Constant Matrix: (Units=GPa)
#
#
# Indices 1 2 3 4 5 6 
#
# 1 203.9020 86.0228 106.6197 0.0000 0.0000 0.0000
# 2 86.0228 73.6445 79.3805 0.0000 0.0000 0.0000
# 3 106.6197 79.3805 158.8128 0.0000 0.0000 0.0000
# 4 0.0000 0.0000 0.0000 29.6130 0.0000 0.0000
# 5 0.0000 0.0000 0.0000 0.0000 33.7759 0.0000
# 6 0.0000 0.0000 0.0000 0.0000 0.0000 37.7792
#
#
#
# Elastic Compliance Matrix: (Units=1/GPa)
#
#
# Indices 1 2 3 4 5 6 
#
# 1 0.009922 -0.009561 -0.001882 0.000000 0.000000 0.000000
# 2 -0.009561 0.038653 -0.012901 0.000000 0.000000 0.000000
# 3 -0.001882 -0.012901 0.014009 0.000000 0.000000 0.000000
# 4 0.000000 0.000000 0.000000 0.033769 0.000000 0.000000
# 5 0.000000 0.000000 0.000000 0.000000 0.029607 0.000000
# 6 0.000000 0.000000 0.000000 0.000000 0.000000 0.026470
#
#
# Mechanical properties :
#
#
# Convention : Reuss Voigt Hill
#
# Bulk Modulus (GPa) = 71.96960 108.93391 90.45175
# Shear Modulus (GPa) = 24.30125 31.18938 27.74531
#
# Velocity S-wave (km/s) = 3.65591 4.14175 3.90639
# Velocity P-wave (km/s) = 7.57655 9.09867 8.37227
#
# Compressibility (1/GPa) = 0.01389476
#
# Stress axis : x y z
#
# Youngs Moduli (GPa) = 100.78387 25.87127 71.38222
#
# Poissons Ratio (x) = 0.24735 0.13437
# Poissons Ratio (y) = 0.96359 0.92093
# Poissons Ratio (z) = 0.18972 0.33378
#
# Static dielectric constant tensor:
#      x y z
#    x 1.604310 0.000000 0.000000 
#    y 0.000000 1.607080 0.000000 
#    z 0.000000 0.000000 1.593680 
# 
# From -- ./inp_files/23677.got.cif
#   From: 2010.05.17/outbox.cif.g08.bks.cpg/sg62_12_cif.got.tgz:23677.got - 2010.06.03 15:25:27.
