data_PCOD9465169
_publ_section_title
;
Structure prediction by ZEFSAII (Michael W. Deem and Ramdas Pophale) SiO2 
 PCOD9465169
Probable space group: P N M A
;
_chemical_formula_sum "Si O2"
_cell_formula_units_Z 60
_cell_length_a 14.920442
_cell_length_b 9.594301
_cell_length_c 22.237357
_cell_angle_alpha 90.000000
_cell_angle_beta 90.000000
_cell_angle_gamma 90.000000
_cell_volume 3183.304597
_symmetry_space_group_name_H-M "P N M A"
_symmetry_group_IT_number 62
_symmetry_cell_setting 'orthorhombic'
loop_
_space_group_symop_operation_xyz
x,y,z
1/2-x,-y,1/2+z
1/2+x,1/2-y,1/2-z
-x,1/2+y,-z
-x,-y,-z
1/2+x,y,1/2-z
1/2-x,1/2+y,1/2+z
x,1/2-y,z
loop_
_atom_site_type_symbol
_atom_site_label
_atom_site_fract_x
_atom_site_fract_y
_atom_site_fract_z
Si Si1 0.473771 0.750000 0.010949
Si Si2 0.768617 0.915646 0.804649
Si Si3 0.616971 0.082933 0.186247
Si Si4 0.873297 0.414096 0.905754
Si Si5 0.921778 0.912668 0.137191
Si Si6 0.423714 0.415590 0.241354
Si Si7 0.687952 0.412783 0.519310
Si Si8 0.114293 0.517369 0.446631
O O1 0.536287 0.871180 0.043185
O O2 0.416958 0.627558 0.975472
O O3 0.783080 0.750000 0.816496
O O4 0.813453 0.947082 0.739908
O O5 0.662591 0.942019 0.800170
O O6 0.815254 0.008076 0.855035
O O7 0.619410 0.250000 0.175949
O O8 0.517418 0.046921 0.210208
O O9 0.633604 0.005577 0.124017
O O10 0.851384 0.250000 0.908667
O O11 0.977413 0.427799 0.887992
O O12 0.853427 0.489977 0.968288
O O13 0.907732 0.750000 0.152365
O O14 0.854012 0.950525 0.083885
O O15 0.912336 0.004298 0.196379
O O16 0.425841 0.250000 0.253453
O O17 0.666122 0.250000 0.507673
O O18 0.794585 0.431503 0.521798
#
# Coordination Sequence:
#
# PCOD9465169 Si02
#       8
#     4   8   8   8   8   8   8   8
#     4  10  24  40  66  88 130 166 206 264 320 358
#     4  10  21  39  63  92 126 166 210 258 312 379
#     4  10  20  38  63  90 128 166 209 254 308 371
#     4  11  24  41  62  94 130 160 206 270 322 373
#     4  10  22  42  64  93 130 162 206 264 322 378
#     4  10  21  38  63  94 120 166 211 251 306 376
#     4  11  24  42  66  91 122 170 215 255 321 385
#     4  11  22  44  63  96 127 170 213 265 312 386
#
# _framework density 18.848337999999998
#
# number of rings (size 3 to 8) (size 9 to 14) (size 15 to 20)
#    0.000    1.600    2.667    1.600    0.933    3.733 
#    4.800    0.000    0.000    0.000    0.000    0.000 
#    0.000    0.000    0.000    0.000    0.000    0.000 
#
# Total GULP energy -334154.455796 kJ/mol
# GULP energy per Si atom -5569.240930 kJ/mol
# Density = 1.880544 g / cm^3
# Si number density = 18.848338 Si / 1000 Ang^3
#
#
#
# Elastic Constant Matrix: (Units=GPa)
#
#
# Indices 1 2 3 4 5 6 
#
# 1 41.0395 9.8892 1.7735 0.0000 0.0000 0.0000
# 2 9.8892 72.1638 26.6115 0.0000 0.0000 0.0000
# 3 1.7735 26.6115 34.7614 0.0000 0.0000 0.0000
# 4 0.0000 0.0000 0.0000 29.3622 0.0000 0.0000
# 5 0.0000 0.0000 0.0000 0.0000 23.2476 0.0000
# 6 0.0000 0.0000 0.0000 0.0000 0.0000 18.3864
#
#
#
# Elastic Compliance Matrix: (Units=1/GPa)
#
#
# Indices 1 2 3 4 5 6 
#
# 1 0.025288 -0.004166 0.001899 0.000000 0.000000 0.000000
# 2 -0.004166 0.019994 -0.015094 0.000000 0.000000 0.000000
# 3 0.001899 -0.015094 0.040226 0.000000 0.000000 0.000000
# 4 0.000000 0.000000 0.000000 0.034057 0.000000 0.000000
# 5 0.000000 0.000000 0.000000 0.000000 0.043015 0.000000
# 6 0.000000 0.000000 0.000000 0.000000 0.000000 0.054388
#
#
# Mechanical properties :
#
#
# Convention : Reuss Voigt Hill
#
# Bulk Modulus (GPa) = 19.69011 24.94589 22.31800
# Shear Modulus (GPa) = 18.61364 21.51196 20.06280
#
# Velocity S-wave (km/s) = 3.14594 3.38201 3.26610
# Velocity P-wave (km/s) = 4.86469 5.33989 5.10782
#
# Compressibility (1/GPa) = 0.05078693
#
# Stress axis : x y z
#
# Youngs Moduli (GPa) = 39.54367 50.01402 24.85958
#
# Poissons Ratio (x) = 0.20835 -0.04721
# Poissons Ratio (y) = 0.16473 0.37523
# Poissons Ratio (z) = -0.07509 0.75492
#
# Static dielectric constant tensor:
#      x y z
#    x 1.651380 0.000000 0.000000 
#    y 0.000000 1.624370 0.000000 
#    z 0.000000 0.000000 1.619950 
# 
# From -- ./inp_files/29661.got.cif
#   From: 2010.05.17/outbox.cif.g08.bks.cpg/sg62_15_cif.got.tgz:29661.got - 2010.06.03 15:25:27.
