data_PCOD9465383
_publ_section_title
;
Structure prediction by ZEFSAII (Michael W. Deem and Ramdas Pophale) SiO2 
 PCOD9465383
Probable space group: P N M A
;
_chemical_formula_sum "Si O2"
_cell_formula_units_Z 48
_cell_length_a 7.500750
_cell_length_b 17.827476
_cell_length_c 18.590855
_cell_angle_alpha 90.000000
_cell_angle_beta 90.000000
_cell_angle_gamma 90.000000
_cell_volume 2485.958731
_symmetry_space_group_name_H-M "P N M A"
_symmetry_group_IT_number 62
_symmetry_cell_setting 'orthorhombic'
loop_
_space_group_symop_operation_xyz
x,y,z
1/2-x,-y,1/2+z
1/2+x,1/2-y,1/2-z
-x,1/2+y,-z
-x,-y,-z
1/2+x,y,1/2-z
1/2-x,1/2+y,1/2+z
x,1/2-y,z
loop_
_atom_site_type_symbol
_atom_site_label
_atom_site_fract_x
_atom_site_fract_y
_atom_site_fract_z
Si Si1 0.862122 0.015277 0.640377
Si Si2 0.448950 0.564013 0.287093
Si Si3 0.467713 0.856386 0.907076
Si Si4 0.939316 0.331192 0.571723
Si Si5 0.743241 0.666525 0.313805
Si Si6 0.251358 0.250000 0.167995
Si Si7 0.678062 0.750000 0.660841
O O1 0.663403 0.003239 0.670398
O O2 0.974829 0.030859 0.713068
O O3 0.846885 0.090857 0.593108
O O4 0.948203 0.945224 0.601521
O O5 0.599857 0.603749 0.333472
O O6 0.325552 0.633279 0.259761
O O7 0.637402 0.820500 0.865036
O O8 0.287451 0.819226 0.874717
O O9 0.493557 0.836308 0.990273
O O10 0.843967 0.250000 0.580402
O O11 0.105295 0.329646 0.626562
O O12 0.670022 0.750000 0.302217
O O13 0.037915 0.250000 0.151358
O O14 0.279819 0.250000 0.253905
#
# Coordination Sequence:
#
# PCOD9465383 Si02
#       7
#     8   8   8   8   8   4   4
#     4  10  22  36  62  85 123 160 203 252 309 357
#     4   9  19  34  50  89 110 155 203 248 303 351
#     4  11  23  43  65  90 131 156 203 253 308 372
#     4  10  20  41  58  85 120 167 200 247 306 361
#     4   9  17  31  56  75 116 151 203 251 293 355
#     4  11  23  42  69  97 118 163 198 254 314 358
#     4  11  23  42  67  97 120 157 202 254 308 360
#
# _framework density 19.308444999999999
#
# number of rings (size 3 to 8) (size 9 to 14) (size 15 to 20)
#    0.000    2.000    3.333    1.000    2.333    4.667 
#    9.000    0.833    0.000    0.000    0.000    0.000 
#    0.000    0.000    0.000    0.000    0.000    0.000 
#
# Total GULP energy -267336.285466 kJ/mol
# GULP energy per Si atom -5569.505947 kJ/mol
# Density = 1.926450 g / cm^3
# Si number density = 19.308445 Si / 1000 Ang^3
#
#
#
# Elastic Constant Matrix: (Units=GPa)
#
#
# Indices 1 2 3 4 5 6 
#
# 1 70.6727 2.2170 -9.9917 0.0000 0.0000 0.0000
# 2 2.2170 84.4095 4.9489 0.0000 0.0000 0.0000
# 3 -9.9917 4.9489 56.8817 0.0000 0.0000 0.0000
# 4 0.0000 0.0000 0.0000 30.2550 0.0000 0.0000
# 5 0.0000 0.0000 0.0000 0.0000 11.7355 0.0000
# 6 0.0000 0.0000 0.0000 0.0000 0.0000 16.3739
#
#
#
# Elastic Compliance Matrix: (Units=1/GPa)
#
#
# Indices 1 2 3 4 5 6 
#
# 1 0.014534 -0.000534 0.002599 0.000000 0.000000 0.000000
# 2 -0.000534 0.011927 -0.001132 0.000000 0.000000 0.000000
# 3 0.002599 -0.001132 0.018135 0.000000 0.000000 0.000000
# 4 0.000000 0.000000 0.000000 0.033052 0.000000 0.000000
# 5 0.000000 0.000000 0.000000 0.000000 0.085212 0.000000
# 6 0.000000 0.000000 0.000000 0.000000 0.000000 0.061073
#
#
# Mechanical properties :
#
#
# Convention : Reuss Voigt Hill
#
# Bulk Modulus (GPa) = 21.52185 22.92358 22.22272
# Shear Modulus (GPa) = 21.04781 25.99219 23.52000
#
# Velocity S-wave (km/s) = 3.30522 3.67298 3.49394
# Velocity P-wave (km/s) = 5.07312 5.46679 5.27363
#
# Compressibility (1/GPa) = 0.04646440
#
# Stress axis : x y z
#
# Youngs Moduli (GPa) = 68.80417 83.84068 55.14076
#
# Poissons Ratio (x) = 0.04478 -0.14334
# Poissons Ratio (y) = 0.03675 0.06239
# Poissons Ratio (z) = -0.17886 0.09487
#
# Static dielectric constant tensor:
#      x y z
#    x 1.737190 0.000000 0.000000 
#    y 0.000000 1.729420 0.000000 
#    z 0.000000 0.000000 1.642270 
# 
# From -- ./inp_files/22362.got.cif
#   From: 2010.05.17/outbox.cif.g08.bks.cpg/sg62_12_cif.got.tgz:22362.got - 2010.06.03 15:25:27.
