data_PCOD9465073
_publ_section_title
;
Structure prediction by ZEFSAII (Michael W. Deem and Ramdas Pophale) SiO2 
 PCOD9465073
Probable space group: P N M A
;
_chemical_formula_sum "Si O2"
_cell_formula_units_Z 48
_cell_length_a 14.389161
_cell_length_b 16.468958
_cell_length_c 9.498814
_cell_angle_alpha 90.000000
_cell_angle_beta 90.000000
_cell_angle_gamma 90.000000
_cell_volume 2250.976586
_symmetry_space_group_name_H-M "P N M A"
_symmetry_group_IT_number 62
_symmetry_cell_setting 'orthorhombic'
loop_
_space_group_symop_operation_xyz
x,y,z
1/2-x,-y,1/2+z
1/2+x,1/2-y,1/2-z
-x,1/2+y,-z
-x,-y,-z
1/2+x,y,1/2-z
1/2-x,1/2+y,1/2+z
x,1/2-y,z
loop_
_atom_site_type_symbol
_atom_site_label
_atom_site_fract_x
_atom_site_fract_y
_atom_site_fract_z
Si Si1 0.287224 0.075285 0.056826
Si Si2 0.562082 0.161675 0.803264
Si Si3 0.254752 0.410638 0.727841
Si Si4 0.997447 0.412055 0.423420
Si Si5 0.563433 0.907979 0.413907
Si Si6 0.413688 0.593971 0.619650
O O1 0.388537 0.109526 0.096543
O O2 0.191908 0.123274 0.096845
O O3 0.279333 0.990635 0.143166
O O4 0.285477 0.066066 0.886541
O O5 0.528519 0.250000 0.758142
O O6 0.668500 0.149127 0.765051
O O7 0.504094 0.094598 0.720109
O O8 0.544374 0.148895 0.966856
O O9 0.339660 0.372622 0.639869
O O10 0.000000 0.500000 0.500000
O O11 0.055761 0.411394 0.280457
O O12 0.500592 0.868297 0.534870
O O13 0.588531 0.001943 0.444674
#
# Coordination Sequence:
#
# PCOD9465073 Si02
#       6
#     8   8   8   8   8   8
#     4  11  21  35  63  97 124 155 204 271 325 361
#     4  12  25  41  60  90 132 173 209 252 320 396
#     4  11  22  36  62  97 124 157 209 265 320 370
#     4  12  21  39  63  91 125 163 215 266 314 370
#     4  10  20  38  59  93 118 161 203 260 313 372
#     4  10  21  35  64  94 126 148 211 274 319 361
#
# _framework density 21.324076999999999
#
# number of rings (size 3 to 8) (size 9 to 14) (size 15 to 20)
#    0.000    1.000    6.667    1.000    4.667    0.667 
#    0.000    0.833    0.000    2.000    0.000    0.000 
#    0.000    0.000    0.000    0.000    0.000    0.000 
#
# Total GULP energy -267705.885915 kJ/mol
# GULP energy per Si atom -5577.205957 kJ/mol
# Density = 2.127554 g / cm^3
# Si number density = 21.324077 Si / 1000 Ang^3
#
#
#
# Elastic Constant Matrix: (Units=GPa)
#
#
# Indices 1 2 3 4 5 6 
#
# 1 124.7432 -8.8905 11.3384 0.0000 0.0000 0.0000
# 2 -8.8905 18.5506 0.8230 0.0000 0.0000 0.0000
# 3 11.3384 0.8230 94.4261 0.0000 0.0000 0.0000
# 4 0.0000 0.0000 0.0000 4.8719 0.0000 0.0000
# 5 0.0000 0.0000 0.0000 0.0000 38.0804 0.0000
# 6 0.0000 0.0000 0.0000 0.0000 0.0000 5.4046
#
#
#
# Elastic Compliance Matrix: (Units=1/GPa)
#
#
# Indices 1 2 3 4 5 6 
#
# 1 0.008402 0.004073 -0.001044 0.000000 0.000000 0.000000
# 2 0.004073 0.055902 -0.000976 0.000000 0.000000 0.000000
# 3 -0.001044 -0.000976 0.010724 0.000000 0.000000 0.000000
# 4 0.000000 0.000000 0.000000 0.205258 0.000000 0.000000
# 5 0.000000 0.000000 0.000000 0.000000 0.026260 0.000000
# 6 0.000000 0.000000 0.000000 0.000000 0.000000 0.185026
#
#
# Mechanical properties :
#
#
# Convention : Reuss Voigt Hill
#
# Bulk Modulus (GPa) = 12.63707 27.14018 19.88863
# Shear Modulus (GPa) = 9.73057 25.30133 17.51595
#
# Velocity S-wave (km/s) = 2.13848 3.44832 2.86915
# Velocity P-wave (km/s) = 3.46937 5.34880 4.50811
#
# Compressibility (1/GPa) = 0.07913226
#
# Stress axis : x y z
#
# Youngs Moduli (GPa) = 119.02390 17.88851 93.24703
#
# Poissons Ratio (x) = -0.07286 0.09738
# Poissons Ratio (y) = -0.48477 0.09103
# Poissons Ratio (z) = 0.12430 0.01746
#
# Static dielectric constant tensor:
#      x y z
#    x 1.865140 0.000000 0.000000 
#    y 0.000000 1.909530 0.000000 
#    z 0.000000 0.000000 1.784200 
# 
# From -- ./inp_files/6443.got.cif
#   From: 2010.05.17/outbox.cif.g08.bks.cpg/sg62_4_cif.got.tgz:6443.got - 2010.06.03 15:25:27.
