data_PCOD9465900
_publ_section_title
;
Structure prediction by ZEFSAII (Michael W. Deem and Ramdas Pophale) SiO2 
 PCOD9465900
Probable space group: P N M A
;
_chemical_formula_sum "Si O2"
_cell_formula_units_Z 56
_cell_length_a 16.419647
_cell_length_b 8.675600
_cell_length_c 20.387725
_cell_angle_alpha 90.000000
_cell_angle_beta 90.000000
_cell_angle_gamma 90.000000
_cell_volume 2904.237329
_symmetry_space_group_name_H-M "P N M A"
_symmetry_group_IT_number 62
_symmetry_cell_setting 'orthorhombic'
loop_
_space_group_symop_operation_xyz
x,y,z
1/2-x,-y,1/2+z
1/2+x,1/2-y,1/2-z
-x,1/2+y,-z
-x,-y,-z
1/2+x,y,1/2-z
1/2-x,1/2+y,1/2+z
x,1/2-y,z
loop_
_atom_site_type_symbol
_atom_site_label
_atom_site_fract_x
_atom_site_fract_y
_atom_site_fract_z
Si Si1 0.750130 0.434518 0.530335
Si Si2 0.000008 0.935438 0.821939
Si Si3 0.172417 0.065007 0.596761
Si Si4 0.425828 0.434859 0.457595
Si Si5 0.519580 0.934842 0.826774
Si Si6 0.321473 0.435580 0.689488
Si Si7 0.659327 0.936014 0.161657
O O1 0.747219 0.250000 0.527394
O O2 0.810202 0.497052 0.474687
O O3 0.660406 0.501331 0.519031
O O4 0.782212 0.481646 0.602249
O O5 0.995270 0.750000 0.821819
O O6 0.057136 0.982278 0.882088
O O7 0.029654 0.984105 0.749690
O O8 0.908865 0.999041 0.831887
O O9 0.172437 0.250000 0.593770
O O10 0.247385 0.014090 0.643665
O O11 0.089001 0.007041 0.628427
O O12 0.500000 0.500000 0.500000
O O13 0.425418 0.250000 0.461751
O O14 0.523735 0.750000 0.829978
O O15 0.429750 0.990949 0.846688
O O16 0.325773 0.250000 0.686531
O O17 0.309488 0.480456 0.765796
O O18 0.651286 0.750000 0.160653
#
# Coordination Sequence:
#
# PCOD9465900 Si02
#       7
#     8   8   8   8   8   8   8
#     4  11  24  40  60  86 118 156 197 243 297 353
#     4   9  20  37  57  84 116 150 189 237 292 347
#     4  11  23  38  59  86 118 154 195 241 294 352
#     4  11  23  39  59  86 122 159 199 241 292 353
#     4  10  21  38  60  87 115 149 194 242 295 349
#     4   9  19  36  59  85 113 148 192 240 287 341
#     4   9  20  40  61  84 114 150 195 243 293 347
#
# _framework density 19.282170000000001
#
# number of rings (size 3 to 8) (size 9 to 14) (size 15 to 20)
#    0.000    2.000    0.000    2.571    2.000    6.857 
#    0.000    0.000    0.000    0.000    0.000    0.000 
#    0.000    0.000    0.000    0.000    0.000    0.000 
#
# Total GULP energy -312897.881609 kJ/mol
# GULP energy per Si atom -5587.462172 kJ/mol
# Density = 1.923828 g / cm^3
# Si number density = 19.282170 Si / 1000 Ang^3
#
#
#
# Elastic Constant Matrix: (Units=GPa)
#
#
# Indices 1 2 3 4 5 6 
#
# 1 28.1797 7.5200 14.1716 0.0000 0.0000 0.0000
# 2 7.5200 27.1333 18.1004 0.0000 0.0000 0.0000
# 3 14.1716 18.1004 56.0626 0.0000 0.0000 0.0000
# 4 0.0000 0.0000 0.0000 27.1800 0.0000 0.0000
# 5 0.0000 0.0000 0.0000 0.0000 36.4895 0.0000
# 6 0.0000 0.0000 0.0000 0.0000 0.0000 30.7272
#
#
#
# Elastic Compliance Matrix: (Units=1/GPa)
#
#
# Indices 1 2 3 4 5 6 
#
# 1 0.041339 -0.005718 -0.008604 0.000000 0.000000 0.000000
# 2 -0.005718 0.047762 -0.013975 0.000000 0.000000 0.000000
# 3 -0.008604 -0.013975 0.024524 0.000000 0.000000 0.000000
# 4 0.000000 0.000000 0.000000 0.036792 0.000000 0.000000
# 5 0.000000 0.000000 0.000000 0.000000 0.027405 0.000000
# 6 0.000000 0.000000 0.000000 0.000000 0.000000 0.032544
#
#
# Mechanical properties :
#
#
# Convention : Reuss Voigt Hill
#
# Bulk Modulus (GPa) = 17.53392 21.21774 19.37583
# Shear Modulus (GPa) = 17.48425 23.65156 20.56790
#
# Velocity S-wave (km/s) = 3.01451 3.50609 3.26955
# Velocity P-wave (km/s) = 4.60754 5.23621 4.93190
#
# Compressibility (1/GPa) = 0.05703232
#
# Stress axis : x y z
#
# Youngs Moduli (GPa) = 24.19008 20.93695 40.77612
#
# Poissons Ratio (x) = 0.11971 0.35083
# Poissons Ratio (y) = 0.13831 0.56986
# Poissons Ratio (z) = 0.20813 0.29260
#
# Static dielectric constant tensor:
#      x y z
#    x 1.624300 0.000000 0.000000 
#    y 0.000000 1.649320 0.000000 
#    z 0.000000 0.000000 1.688150 
# 
# From -- ./inp_files/27184.got.cif
#   From: 2010.05.17/outbox.cif.g08.bks.cpg/sg62_14_cif.got.tgz:27184.got - 2010.06.03 15:25:27.
