data_PCOD9465039
_publ_section_title
;
Structure prediction by ZEFSAII (Michael W. Deem and Ramdas Pophale) SiO2 
 PCOD9465039
Probable space group: P N M A
;
_chemical_formula_sum "Si O2"
_cell_formula_units_Z 32
_cell_length_a 16.578265
_cell_length_b 18.115152
_cell_length_c 5.128019
_cell_angle_alpha 90.000000
_cell_angle_beta 90.000000
_cell_angle_gamma 90.000000
_cell_volume 1540.035335
_symmetry_space_group_name_H-M "P N M A"
_symmetry_group_IT_number 62
_symmetry_cell_setting 'orthorhombic'
loop_
_space_group_symop_operation_xyz
x,y,z
1/2-x,-y,1/2+z
1/2+x,1/2-y,1/2-z
-x,1/2+y,-z
-x,-y,-z
1/2+x,y,1/2-z
1/2-x,1/2+y,1/2+z
x,1/2-y,z
loop_
_atom_site_type_symbol
_atom_site_label
_atom_site_fract_x
_atom_site_fract_y
_atom_site_fract_z
Si Si1 0.162778 0.162751 0.373861
Si Si2 0.369539 0.461655 0.506885
Si Si3 0.758766 0.587643 0.130502
Si Si4 0.013304 0.433378 0.294986
O O1 0.163847 0.250000 0.340471
O O2 0.201914 0.137023 0.643720
O O3 0.070715 0.132474 0.386654
O O4 0.215869 0.125499 0.141043
O O5 0.332346 0.424403 0.764506
O O6 0.298494 0.505472 0.360696
O O7 0.428557 0.528662 0.582023
O O8 0.427413 0.411916 0.329474
O O9 0.000000 0.500000 0.500000
#
# Coordination Sequence:
#
# PCOD9465039 Si02
#       4
#     8   8   8   8
#     4  11  24  42  61  87 132 178 211 259 334 406
#     4  10  21  36  62  96 120 153 215 278 318 366
#     4  11  22  38  65  92 123 163 214 268 326 382
#     4  10  20  37  63  94 123 160 216 271 325 381
#
# _framework density 20.778742000000001
#
# number of rings (size 3 to 8) (size 9 to 14) (size 15 to 20)
#    0.000    1.500    2.500    3.750    3.500    0.000 
#    0.000    2.500    0.000    0.000    0.000    0.000 
#    0.000    0.000    0.000    0.000    0.000    0.000 
#
# Total GULP energy -178421.208479 kJ/mol
# GULP energy per Si atom -5575.662765 kJ/mol
# Density = 2.073145 g / cm^3
# Si number density = 20.778742 Si / 1000 Ang^3
#
#
#
# Elastic Constant Matrix: (Units=GPa)
#
#
# Indices 1 2 3 4 5 6 
#
# 1 75.0400 31.5102 34.4826 0.0000 0.0000 0.0000
# 2 31.5102 113.9748 26.9549 0.0000 0.0000 0.0000
# 3 34.4826 26.9549 96.1703 0.0000 0.0000 0.0000
# 4 0.0000 0.0000 0.0000 23.3266 0.0000 0.0000
# 5 0.0000 0.0000 0.0000 0.0000 31.3568 0.0000
# 6 0.0000 0.0000 0.0000 0.0000 0.0000 26.6316
#
#
#
# Elastic Compliance Matrix: (Units=1/GPa)
#
#
# Indices 1 2 3 4 5 6 
#
# 1 0.017185 -0.003528 -0.005173 0.000000 0.000000 0.000000
# 2 -0.003528 0.010121 -0.001572 0.000000 0.000000 0.000000
# 3 -0.005173 -0.001572 0.012694 0.000000 0.000000 0.000000
# 4 0.000000 0.000000 0.000000 0.042870 0.000000 0.000000
# 5 0.000000 0.000000 0.000000 0.000000 0.031891 0.000000
# 6 0.000000 0.000000 0.000000 0.000000 0.000000 0.037549
#
#
# Mechanical properties :
#
#
# Convention : Reuss Voigt Hill
#
# Bulk Modulus (GPa) = 51.40260 52.34229 51.87245
# Shear Modulus (GPa) = 27.88021 29.07880 28.47950
#
# Velocity S-wave (km/s) = 3.66699 3.74498 3.70619
# Velocity P-wave (km/s) = 6.53612 6.62909 6.58277
#
# Compressibility (1/GPa) = 0.01945427
#
# Stress axis : x y z
#
# Youngs Moduli (GPa) = 58.19166 98.80569 78.77990
#
# Poissons Ratio (x) = 0.34854 0.40752
# Poissons Ratio (y) = 0.20528 0.12383
# Poissons Ratio (z) = 0.30102 0.15531
#
# Static dielectric constant tensor:
#      x y z
#    x 1.885060 0.000000 0.000000 
#    y 0.000000 1.737810 0.000000 
#    z 0.000000 0.000000 1.860200 
# 
# From -- ./inp_files/919.got.cif
#   From: 2010.05.17/outbox.cif.g08.bks.cpg/sg62_1_cif.got.tgz:919.got - 2010.06.03 15:25:27.
