data_PCOD9465521
_publ_section_title
;
Structure prediction by ZEFSAII (Michael W. Deem and Ramdas Pophale) SiO2 
 PCOD9465521
Probable space group: P N M A
;
_chemical_formula_sum "Si O2"
_cell_formula_units_Z 56
_cell_length_a 5.200140
_cell_length_b 22.270532
_cell_length_c 21.968479
_cell_angle_alpha 90.000000
_cell_angle_beta 90.000000
_cell_angle_gamma 90.000000
_cell_volume 2544.167011
_symmetry_space_group_name_H-M "P N M A"
_symmetry_group_IT_number 62
_symmetry_cell_setting 'orthorhombic'
loop_
_space_group_symop_operation_xyz
x,y,z
1/2-x,-y,1/2+z
1/2+x,1/2-y,1/2-z
-x,1/2+y,-z
-x,-y,-z
1/2+x,y,1/2-z
1/2-x,1/2+y,1/2+z
x,1/2-y,z
loop_
_atom_site_type_symbol
_atom_site_label
_atom_site_fract_x
_atom_site_fract_y
_atom_site_fract_z
Si Si1 0.971444 0.133980 0.710128
Si Si2 0.221559 0.584302 0.603301
Si Si3 0.760857 0.467590 0.051642
Si Si4 0.353175 0.180846 0.018742
Si Si5 0.490292 0.509101 0.786154
Si Si6 0.463578 0.912289 0.441111
Si Si7 0.201937 0.317647 0.596875
O O1 0.216621 0.148891 0.752152
O O2 0.982016 0.169837 0.646500
O O3 0.998774 0.061992 0.699224
O O4 0.519369 0.567642 0.591316
O O5 0.154015 0.653428 0.586934
O O6 0.104974 0.553665 0.663097
O O7 0.029307 0.554465 0.554209
O O8 0.769023 0.535520 0.076601
O O9 0.848332 0.452137 0.983137
O O10 0.277995 0.250000 0.019794
O O11 0.155341 0.138742 0.983286
O O12 0.599116 0.177133 0.973020
O O13 0.193383 0.519765 0.768870
O O14 0.607851 0.873473 0.391300
O O15 0.302965 0.250000 0.604413
#
# Coordination Sequence:
#
# PCOD9465521 Si02
#       7
#     8   8   8   8   8   8   8
#     4  10  24  42  60  84 115 155 204 255 300 349
#     4  11  21  40  61  92 124 160 196 250 306 375
#     4  10  22  33  60  89 123 155 195 242 311 362
#     4  10  23  39  59  88 126 166 200 243 303 365
#     4  10  21  38  62  88 117 152 196 250 308 357
#     4  10  21  35  56  86 123 155 197 248 302 362
#     4  11  23  39  60  84 119 166 208 251 297 357
#
# _framework density 22.011133999999998
#
# number of rings (size 3 to 8) (size 9 to 14) (size 15 to 20)
#    0.000    1.714    1.429    2.143    6.000    3.429 
#    0.000    0.000    0.000    0.857    0.000    0.000 
#    0.000    0.000    0.000    0.000    0.000    0.000 
#
# Total GULP energy -312324.588359 kJ/mol
# GULP energy per Si atom -5577.224792 kJ/mol
# Density = 2.196104 g / cm^3
# Si number density = 22.011134 Si / 1000 Ang^3
#
#
#
# Elastic Constant Matrix: (Units=GPa)
#
#
# Indices 1 2 3 4 5 6 
#
# 1 90.4420 24.5620 2.2780 0.0000 0.0000 0.0000
# 2 24.5620 128.1042 7.1297 0.0000 0.0000 0.0000
# 3 2.2780 7.1297 37.4583 0.0000 0.0000 0.0000
# 4 0.0000 0.0000 0.0000 20.7523 0.0000 0.0000
# 5 0.0000 0.0000 0.0000 0.0000 33.0834 0.0000
# 6 0.0000 0.0000 0.0000 0.0000 0.0000 21.1869
#
#
#
# Elastic Compliance Matrix: (Units=1/GPa)
#
#
# Indices 1 2 3 4 5 6 
#
# 1 0.011667 -0.002221 -0.000287 0.000000 0.000000 0.000000
# 2 -0.002221 0.008313 -0.001447 0.000000 0.000000 0.000000
# 3 -0.000287 -0.001447 0.026989 0.000000 0.000000 0.000000
# 4 0.000000 0.000000 0.000000 0.048188 0.000000 0.000000
# 5 0.000000 0.000000 0.000000 0.000000 0.030227 0.000000
# 6 0.000000 0.000000 0.000000 0.000000 0.000000 0.047199
#
#
# Mechanical properties :
#
#
# Convention : Reuss Voigt Hill
#
# Bulk Modulus (GPa) = 25.60221 35.99376 30.79799
# Shear Modulus (GPa) = 25.83822 29.80683 27.82252
#
# Velocity S-wave (km/s) = 3.42990 3.68390 3.55916
# Velocity P-wave (km/s) = 5.22899 5.87221 5.55991
#
# Compressibility (1/GPa) = 0.03905912
#
# Stress axis : x y z
#
# Youngs Moduli (GPa) = 85.71021 120.30026 37.05177
#
# Poissons Ratio (x) = 0.26719 0.01063
# Poissons Ratio (y) = 0.19037 0.05362
# Poissons Ratio (z) = 0.02458 0.17409
#
# Static dielectric constant tensor:
#      x y z
#    x 1.886380 0.000000 0.000000 
#    y 0.000000 1.834540 0.000000 
#    z 0.000000 0.000000 1.936330 
# 
# From -- ./inp_files/28389.got.cif
#   From: 2010.05.17/outbox.cif.g08.bks.cpg/sg62_15_cif.got.tgz:28389.got - 2010.06.03 15:25:27.
