data_PCOD9465288
_publ_section_title
;
Structure prediction by ZEFSAII (Michael W. Deem and Ramdas Pophale) SiO2 
 PCOD9465288
Probable space group: P N M A
;
_chemical_formula_sum "Si O2"
_cell_formula_units_Z 48
_cell_length_a 9.648239
_cell_length_b 28.722209
_cell_length_c 7.730856
_cell_angle_alpha 90.000000
_cell_angle_beta 90.000000
_cell_angle_gamma 90.000000
_cell_volume 2142.365051
_symmetry_space_group_name_H-M "P N M A"
_symmetry_group_IT_number 62
_symmetry_cell_setting 'orthorhombic'
loop_
_space_group_symop_operation_xyz
x,y,z
1/2-x,-y,1/2+z
1/2+x,1/2-y,1/2-z
-x,1/2+y,-z
-x,-y,-z
1/2+x,y,1/2-z
1/2-x,1/2+y,1/2+z
x,1/2-y,z
loop_
_atom_site_type_symbol
_atom_site_label
_atom_site_fract_x
_atom_site_fract_y
_atom_site_fract_z
Si Si1 0.136051 0.516906 0.601428
Si Si2 0.168843 0.353484 0.297214
Si Si3 0.432372 0.196134 0.387168
Si Si4 0.489320 0.867856 0.317556
Si Si5 0.291346 0.113816 0.939903
Si Si6 0.819738 0.438103 0.033886
O O1 0.191168 0.560865 0.494572
O O2 0.117612 0.535318 0.797734
O O3 0.248372 0.475897 0.588648
O O4 0.000000 0.500000 0.500000
O O5 0.269448 0.315614 0.383075
O O6 0.202399 0.402224 0.392728
O O7 0.015490 0.335449 0.253888
O O8 0.233101 0.360530 0.106501
O O9 0.459457 0.250000 0.356041
O O10 0.486946 0.178897 0.573364
O O11 0.328944 0.879550 0.298802
O O12 0.567507 0.867162 0.137486
O O13 0.563805 0.908115 0.434503
#
# Coordination Sequence:
#
# PCOD9465288 Si02
#       6
#     8   8   8   8   8   8
#     4  11  25  36  62  90 121 161 208 247 290 354
#     4   9  21  37  63  87 121 152 196 244 307 360
#     4  10  20  39  63  90 117 152 195 248 305 371
#     4  10  23  41  61  84 122 162 197 253 307 358
#     4  10  23  39  59  87 120 161 200 245 303 350
#     4  10  23  40  58  88 121 163 201 251 294 353
#
# _framework density 22.405145999999998
#
# number of rings (size 3 to 8) (size 9 to 14) (size 15 to 20)
#    0.000    2.000    0.000    1.500   16.333    2.000 
#    0.000    4.167    0.000    0.000    0.000    0.000 
#    0.000    0.000    0.000    0.000    0.000    0.000 
#
# Total GULP energy -268469.674313 kJ/mol
# GULP energy per Si atom -5593.118215 kJ/mol
# Density = 2.235415 g / cm^3
# Si number density = 22.405146 Si / 1000 Ang^3
#
#
#
# Elastic Constant Matrix: (Units=GPa)
#
#
# Indices 1 2 3 4 5 6 
#
# 1 50.6818 -6.6713 -15.5527 0.0000 0.0000 0.0000
# 2 -6.6713 66.0849 4.7006 0.0000 0.0000 0.0000
# 3 -15.5527 4.7006 71.2369 0.0000 0.0000 0.0000
# 4 0.0000 0.0000 0.0000 2.0975 0.0000 0.0000
# 5 0.0000 0.0000 0.0000 0.0000 36.4313 0.0000
# 6 0.0000 0.0000 0.0000 0.0000 0.0000 15.5526
#
#
#
# Elastic Compliance Matrix: (Units=1/GPa)
#
#
# Indices 1 2 3 4 5 6 
#
# 1 0.021367 0.001834 0.004544 0.000000 0.000000 0.000000
# 2 0.001834 0.015361 -0.000613 0.000000 0.000000 0.000000
# 3 0.004544 -0.000613 0.015070 0.000000 0.000000 0.000000
# 4 0.000000 0.000000 0.000000 0.476751 0.000000 0.000000
# 5 0.000000 0.000000 0.000000 0.000000 0.027449 0.000000
# 6 0.000000 0.000000 0.000000 0.000000 0.000000 0.064298
#
#
# Mechanical properties :
#
#
# Convention : Reuss Voigt Hill
#
# Bulk Modulus (GPa) = 15.79117 16.99519 16.39318
# Shear Modulus (GPa) = 7.93808 24.51810 16.22809
#
# Velocity S-wave (km/s) = 1.88432 3.31162 2.69421
# Velocity P-wave (km/s) = 3.43475 4.71426 4.12443
#
# Compressibility (1/GPa) = 0.06332652
#
# Stress axis : x y z
#
# Youngs Moduli (GPa) = 46.80176 65.10086 66.35625
#
# Poissons Ratio (x) = -0.11938 -0.30151
# Poissons Ratio (y) = -0.08582 0.04069
# Poissons Ratio (z) = -0.21266 0.03992
#
# Static dielectric constant tensor:
#      x y z
#    x 1.849250 0.000000 0.000000 
#    y 0.000000 1.791320 0.000000 
#    z 0.000000 0.000000 1.878040 
# 
# From -- ./inp_files/4499.got.cif
#   From: 2010.05.17/outbox.cif.g08.bks.cpg/sg62_3_cif.got.tgz:4499.got - 2010.06.03 15:25:27.
