data_PCOD9465504
_publ_section_title
;
Structure prediction by ZEFSAII (Michael W. Deem and Ramdas Pophale) SiO2 
 PCOD9465504
Probable space group: P N M A
;
_chemical_formula_sum "Si O2"
_cell_formula_units_Z 64
_cell_length_a 13.267250
_cell_length_b 8.996073
_cell_length_c 29.083423
_cell_angle_alpha 90.000000
_cell_angle_beta 90.000000
_cell_angle_gamma 90.000000
_cell_volume 3471.198134
_symmetry_space_group_name_H-M "P N M A"
_symmetry_group_IT_number 62
_symmetry_cell_setting 'orthorhombic'
loop_
_space_group_symop_operation_xyz
x,y,z
1/2-x,-y,1/2+z
1/2+x,1/2-y,1/2-z
-x,1/2+y,-z
-x,-y,-z
1/2+x,y,1/2-z
1/2-x,1/2+y,1/2+z
x,1/2-y,z
loop_
_atom_site_type_symbol
_atom_site_label
_atom_site_fract_x
_atom_site_fract_y
_atom_site_fract_z
Si Si1 0.093533 0.429477 0.557040
Si Si2 0.483878 0.571411 0.641673
Si Si3 0.683636 0.081227 0.773561
Si Si4 0.368279 0.428107 0.957639
Si Si5 0.703937 0.570708 0.605901
Si Si6 0.226066 0.926613 0.125947
Si Si7 0.702197 0.078265 0.202959
Si Si8 0.969930 0.419177 0.758918
O O1 0.097628 0.250000 0.551949
O O2 0.119493 0.506583 0.508772
O O3 0.179498 0.472080 0.593862
O O4 0.975646 0.466048 0.567547
O O5 0.481012 0.750000 0.643362
O O6 0.586886 0.527640 0.614713
O O7 0.380089 0.510010 0.619663
O O8 0.487002 0.508991 0.693898
O O9 0.711271 0.250000 0.757668
O O10 0.738586 0.052044 0.821332
O O11 0.564062 0.082095 0.775535
O O12 0.705383 0.954063 0.736746
O O13 0.360265 0.250000 0.958862
O O14 0.269144 0.496124 0.934083
O O15 0.705863 0.750000 0.600605
O O16 0.764246 0.531550 0.652547
O O17 0.210154 0.750000 0.119139
O O18 0.673921 0.250000 0.201932
O O19 0.618716 0.984086 0.228648
O O20 0.950074 0.250000 0.773612
#
# Coordination Sequence:
#
# PCOD9465504 Si02
#       8
#     8   8   8   8   8   8   8   8
#     4   9  20  40  64  88 120 150 177 230 293 345
#     4  11  22  38  57  80 115 156 196 239 285 335
#     4  10  21  35  54  80 112 151 194 237 280 332
#     4  10  21  38  65  93 115 144 187 232 283 348
#     4  10  23  40  57  82 118 154 191 236 289 341
#     4  10  21  38  59  85 114 151 193 233 286 341
#     4  11  22  36  54  79 113 153 195 236 284 337
#     4  11  22  35  53  78 113 154 194 240 287 337
#
# _framework density 18.437436999999999
#
# number of rings (size 3 to 8) (size 9 to 14) (size 15 to 20)
#    0.000    1.750    2.500    1.500    1.750    3.500 
#    0.000    0.625    0.000    0.000    0.000    0.000 
#    0.000    0.000    0.000    0.000    0.000    0.000 
#
# Total GULP energy -356783.267844 kJ/mol
# GULP energy per Si atom -5574.738560 kJ/mol
# Density = 1.839547 g / cm^3
# Si number density = 18.437437 Si / 1000 Ang^3
#
#
#
# Elastic Constant Matrix: (Units=GPa)
#
#
# Indices 1 2 3 4 5 6 
#
# 1 101.3903 18.2462 15.5781 0.0000 0.0000 0.0000
# 2 18.2462 23.2677 10.1532 0.0000 0.0000 0.0000
# 3 15.5781 10.1532 33.3828 0.0000 0.0000 0.0000
# 4 0.0000 0.0000 0.0000 20.4625 0.0000 0.0000
# 5 0.0000 0.0000 0.0000 0.0000 34.0959 0.0000
# 6 0.0000 0.0000 0.0000 0.0000 0.0000 25.8013
#
#
#
# Elastic Compliance Matrix: (Units=1/GPa)
#
#
# Indices 1 2 3 4 5 6 
#
# 1 0.011754 -0.007868 -0.003092 0.000000 0.000000 0.000000
# 2 -0.007868 0.054822 -0.013002 0.000000 0.000000 0.000000
# 3 -0.003092 -0.013002 0.035353 0.000000 0.000000 0.000000
# 4 0.000000 0.000000 0.000000 0.048870 0.000000 0.000000
# 5 0.000000 0.000000 0.000000 0.000000 0.029329 0.000000
# 6 0.000000 0.000000 0.000000 0.000000 0.000000 0.038758
#
#
# Mechanical properties :
#
#
# Convention : Reuss Voigt Hill
#
# Bulk Modulus (GPa) = 18.51700 27.33286 22.92493
# Shear Modulus (GPa) = 17.55550 23.67614 20.61582
#
# Velocity S-wave (km/s) = 3.08907 3.58737 3.34750
# Velocity P-wave (km/s) = 4.77369 5.65825 5.23469
#
# Compressibility (1/GPa) = 0.05400442
#
# Stress axis : x y z
#
# Youngs Moduli (GPa) = 85.07835 18.24091 28.28622
#
# Poissons Ratio (x) = 0.14352 0.08746
# Poissons Ratio (y) = 0.66940 0.36778
# Poissons Ratio (z) = 0.26305 0.23717
#
# Static dielectric constant tensor:
#      x y z
#    x 1.700140 0.000000 0.000000 
#    y 0.000000 1.631460 0.000000 
#    z 0.000000 0.000000 1.618480 
# 
# From -- ./inp_files/32523.got.cif
#   From: 2010.05.17/outbox.cif.g08.bks.cpg/sg62_17_cif.got.tgz:32523.got - 2010.06.03 15:25:27.
