data_PCOD9465634
_publ_section_title
;
Structure prediction by ZEFSAII (Michael W. Deem and Ramdas Pophale) SiO2 
 PCOD9465634
Probable space group: P N M A
;
_chemical_formula_sum "Si O2"
_cell_formula_units_Z 36
_cell_length_a 5.117308
_cell_length_b 16.644103
_cell_length_c 18.042811
_cell_angle_alpha 90.000000
_cell_angle_beta 90.000000
_cell_angle_gamma 90.000000
_cell_volume 1536.760367
_symmetry_space_group_name_H-M "P N M A"
_symmetry_group_IT_number 62
_symmetry_cell_setting 'orthorhombic'
loop_
_space_group_symop_operation_xyz
x,y,z
1/2-x,-y,1/2+z
1/2+x,1/2-y,1/2-z
-x,1/2+y,-z
-x,-y,-z
1/2+x,y,1/2-z
1/2-x,1/2+y,1/2+z
x,1/2-y,z
loop_
_atom_site_type_symbol
_atom_site_label
_atom_site_fract_x
_atom_site_fract_y
_atom_site_fract_z
Si Si1 0.053809 0.001014 0.588029
Si Si2 0.700262 0.072795 0.696732
Si Si3 0.256485 0.338089 0.058352
Si Si4 0.738915 0.661692 0.451649
Si Si5 0.241676 0.250000 0.801337
O O1 0.219923 0.083038 0.598260
O O2 0.785518 0.011640 0.632715
O O3 0.196441 0.917744 0.606698
O O4 0.000000 0.000000 0.500000
O O5 0.438740 0.064737 0.744137
O O6 0.714579 0.163042 0.661372
O O7 0.232955 0.250000 0.095276
O O8 0.507167 0.333885 0.004384
O O9 0.005426 0.349221 0.006163
O O10 0.719429 0.750000 0.414669
O O11 0.520335 0.250000 0.761441
#
# Coordination Sequence:
#
# PCOD9465634 Si02
#       5
#     8   8   8   8   4
#     4  10  21  36  60  85 114 150 198 242 289 340
#     4  10  22  38  57  82 117 154 190 233 291 352
#     4   9  18  33  50  76 110 141 178 232 283 329
#     4   9  18  31  50  78 111 142 176 224 285 335
#     4   8  16  34  54  76 110 150 184 218 274 354
#
# _framework density 23.425903000000002
#
# number of rings (size 3 to 8) (size 9 to 14) (size 15 to 20)
#    0.000    2.667    0.000    0.667    1.556    7.111 
#    0.000    0.000    0.000    1.333    0.000    0.000 
#    0.000    0.000    0.000    0.000    0.000    0.000 
#
# Total GULP energy -201282.657746 kJ/mol
# GULP energy per Si atom -5591.184937 kJ/mol
# Density = 2.337258 g / cm^3
# Si number density = 23.425903 Si / 1000 Ang^3
#
#
#
# Elastic Constant Matrix: (Units=GPa)
#
#
# Indices 1 2 3 4 5 6 
#
# 1 140.5438 3.7722 15.6159 0.0000 0.0000 0.0000
# 2 3.7722 172.9429 2.1233 0.0000 0.0000 0.0000
# 3 15.6159 2.1233 65.7627 0.0000 0.0000 0.0000
# 4 0.0000 0.0000 0.0000 30.1472 0.0000 0.0000
# 5 0.0000 0.0000 0.0000 0.0000 31.4318 0.0000
# 6 0.0000 0.0000 0.0000 0.0000 0.0000 34.5042
#
#
#
# Elastic Compliance Matrix: (Units=1/GPa)
#
#
# Indices 1 2 3 4 5 6 
#
# 1 0.007311 -0.000138 -0.001732 0.000000 0.000000 0.000000
# 2 -0.000138 0.005787 -0.000154 0.000000 0.000000 0.000000
# 3 -0.001732 -0.000154 0.015622 0.000000 0.000000 0.000000
# 4 0.000000 0.000000 0.000000 0.033171 0.000000 0.000000
# 5 0.000000 0.000000 0.000000 0.000000 0.031815 0.000000
# 6 0.000000 0.000000 0.000000 0.000000 0.000000 0.028982
#
#
# Mechanical properties :
#
#
# Convention : Reuss Voigt Hill
#
# Bulk Modulus (GPa) = 40.53010 46.91914 43.72462
# Shear Modulus (GPa) = 37.04786 43.06584 40.05685
#
# Velocity S-wave (km/s) = 3.98111 4.29229 4.13963
# Velocity P-wave (km/s) = 6.20252 6.68111 6.44626
#
# Compressibility (1/GPa) = 0.02467302
#
# Stress axis : x y z
#
# Youngs Moduli (GPa) = 136.77392 172.79633 64.01077
#
# Poissons Ratio (x) = 0.02388 0.11085
# Poissons Ratio (y) = 0.01890 0.00986
# Poissons Ratio (z) = 0.23685 0.02662
#
# Static dielectric constant tensor:
#      x y z
#    x 1.970320 0.000000 0.000000 
#    y 0.000000 2.022630 0.000000 
#    z 0.000000 0.000000 1.865970 
# 
# From -- ./inp_files/25236.got.cif
#   From: 2010.05.17/outbox.cif.g08.bks.cpg/sg62_13_cif.got.tgz:25236.got - 2010.06.03 15:25:27.
