data_PCOD9465716
_publ_section_title
;
Structure prediction by ZEFSAII (Michael W. Deem and Ramdas Pophale) SiO2 
 PCOD9465716
Probable space group: P N M A
;
_chemical_formula_sum "Si O2"
_cell_formula_units_Z 40
_cell_length_a 20.880790
_cell_length_b 7.559145
_cell_length_c 10.784161
_cell_angle_alpha 90.000000
_cell_angle_beta 90.000000
_cell_angle_gamma 90.000000
_cell_volume 1702.181886
_symmetry_space_group_name_H-M "P N M A"
_symmetry_group_IT_number 62
_symmetry_cell_setting 'orthorhombic'
loop_
_space_group_symop_operation_xyz
x,y,z
1/2-x,-y,1/2+z
1/2+x,1/2-y,1/2-z
-x,1/2+y,-z
-x,-y,-z
1/2+x,y,1/2-z
1/2-x,1/2+y,1/2+z
x,1/2-y,z
loop_
_atom_site_type_symbol
_atom_site_label
_atom_site_fract_x
_atom_site_fract_y
_atom_site_fract_z
Si Si1 0.556036 0.544634 0.676306
Si Si2 0.416312 0.036284 0.596437
Si Si3 0.929791 0.036524 0.448572
Si Si4 0.802565 0.045163 0.559195
Si Si5 0.774258 0.038129 0.817280
O O1 0.575251 0.750000 0.676721
O O2 0.581177 0.469454 0.546016
O O3 0.478872 0.533553 0.666303
O O4 0.576944 0.467143 0.807741
O O5 0.422950 0.250000 0.594734
O O6 0.348727 0.995588 0.657250
O O7 0.923445 0.250000 0.443071
O O8 0.872833 0.966933 0.535098
O O9 0.000000 0.000000 0.500000
O O10 0.813005 0.250000 0.593863
O O11 0.762597 0.974177 0.676418
O O12 0.766801 0.039266 0.428628
O O13 0.764551 0.250000 0.828506
#
# Coordination Sequence:
#
# PCOD9465716 Si02
#       5
#     8   8   8   8   8
#     4   9  18  32  54  84 111 142 184 225 277 338
#     4   9  18  34  56  81 112 146 182 229 280 331
#     4  10  21  37  58  83 113 147 188 236 286 339
#     4  10  23  40  59  86 118 153 194 239 288 342
#     4  10  22  39  59  84 114 152 196 235 284 345
#
# _framework density 23.499251999999998
#
# number of rings (size 3 to 8) (size 9 to 14) (size 15 to 20)
#    0.000    2.400    0.000    1.200    2.800    4.800 
#    0.000    0.000    0.000    0.000    0.000    0.000 
#    0.000    0.000    0.000    0.000    0.000    0.000 
#
# Total GULP energy -223444.583635 kJ/mol
# GULP energy per Si atom -5586.114591 kJ/mol
# Density = 2.344577 g / cm^3
# Si number density = 23.499252 Si / 1000 Ang^3
#
#
#
# Elastic Constant Matrix: (Units=GPa)
#
#
# Indices 1 2 3 4 5 6 
#
# 1 33.9125 -5.7664 24.6235 0.0000 0.0000 0.0000
# 2 -5.7664 54.2714 -1.6166 0.0000 0.0000 0.0000
# 3 24.6235 -1.6166 123.6110 0.0000 0.0000 0.0000
# 4 0.0000 0.0000 0.0000 15.5660 0.0000 0.0000
# 5 0.0000 0.0000 0.0000 0.0000 32.0375 0.0000
# 6 0.0000 0.0000 0.0000 0.0000 0.0000 19.5253
#
#
#
# Elastic Compliance Matrix: (Units=1/GPa)
#
#
# Indices 1 2 3 4 5 6 
#
# 1 0.035136 0.003526 -0.006953 0.000000 0.000000 0.000000
# 2 0.003526 0.018787 -0.000457 0.000000 0.000000 0.000000
# 3 -0.006953 -0.000457 0.009469 0.000000 0.000000 0.000000
# 4 0.000000 0.000000 0.000000 0.064243 0.000000 0.000000
# 5 0.000000 0.000000 0.000000 0.000000 0.031213 0.000000
# 6 0.000000 0.000000 0.000000 0.000000 0.000000 0.051216
#
#
# Mechanical properties :
#
#
# Convention : Reuss Voigt Hill
#
# Bulk Modulus (GPa) = 17.97770 27.36398 22.67084
# Shear Modulus (GPa) = 21.15309 26.39604 23.77457
#
# Velocity S-wave (km/s) = 3.00352 3.35516 3.18420
# Velocity P-wave (km/s) = 4.43792 5.16521 4.81531
#
# Compressibility (1/GPa) = 0.05562448
#
# Stress axis : x y z
#
# Youngs Moduli (GPa) = 28.46108 53.22844 105.60821
#
# Poissons Ratio (x) = -0.18769 0.73429
# Poissons Ratio (y) = -0.10036 0.04823
# Poissons Ratio (z) = 0.19789 0.02431
#
# Static dielectric constant tensor:
#      x y z
#    x 1.849560 0.000000 0.000000 
#    y 0.000000 1.904520 0.000000 
#    z 0.000000 0.000000 1.952700 
# 
# From -- ./inp_files/9084.got.cif
#   From: 2010.05.17/outbox.cif.g08.bks.cpg/sg62_5_cif.got.tgz:9084.got - 2010.06.03 15:25:27.
