data_PCOD9465680
_publ_section_title
;
Structure prediction by ZEFSAII (Michael W. Deem and Ramdas Pophale) SiO2 
 PCOD9465680
Probable space group: P N M A
;
_chemical_formula_sum "Si O2"
_cell_formula_units_Z 48
_cell_length_a 12.533975
_cell_length_b 15.278336
_cell_length_c 12.918370
_cell_angle_alpha 90.000000
_cell_angle_beta 90.000000
_cell_angle_gamma 90.000000
_cell_volume 2473.845654
_symmetry_space_group_name_H-M "P N M A"
_symmetry_group_IT_number 62
_symmetry_cell_setting 'orthorhombic'
loop_
_space_group_symop_operation_xyz
x,y,z
1/2-x,-y,1/2+z
1/2+x,1/2-y,1/2-z
-x,1/2+y,-z
-x,-y,-z
1/2+x,y,1/2-z
1/2-x,1/2+y,1/2+z
x,1/2-y,z
loop_
_atom_site_type_symbol
_atom_site_label
_atom_site_fract_x
_atom_site_fract_y
_atom_site_fract_z
Si Si1 0.024297 0.750000 0.103784
Si Si2 0.876746 0.750000 0.907701
Si Si3 0.178197 0.250000 0.743802
Si Si4 0.789247 0.577775 0.810158
Si Si5 0.087692 0.597444 0.556443
Si Si6 0.287987 0.384908 0.603493
Si Si7 0.324608 0.250000 0.936462
Si Si8 0.649609 0.426407 0.077199
O O1 0.102328 0.667399 0.115269
O O2 0.930609 0.750000 0.190159
O O3 0.973854 0.750000 0.988660
O O4 0.864096 0.660048 0.842624
O O5 0.775011 0.750000 0.984874
O O6 0.199386 0.337061 0.676060
O O7 0.275935 0.250000 0.824335
O O8 0.671046 0.605625 0.849111
O O9 0.809684 0.486034 0.868970
O O10 0.801320 0.556125 0.689361
O O11 0.108191 0.666230 0.465553
O O12 0.117672 0.506854 0.499004
O O13 0.967927 0.612435 0.594334
O O14 0.237442 0.375560 0.489517
#
# Coordination Sequence:
#
# PCOD9465680 Si02
#       8
#     4   4   4   8   8   8   4   8
#     4  10  23  41  60  89 123 155 202 257 302 355
#     4   9  21  38  57  85 117 153 196 235 296 364
#     4  10  21  38  61  86 116 153 196 246 300 356
#     4  10  21  39  60  85 117 157 200 242 298 363
#     4   9  20  36  57  83 110 149 191 235 293 349
#     4  10  23  38  59  90 118 154 202 249 301 360
#     4   9  17  35  58  78 106 143 188 238 282 339
#     4  10  21  37  56  83 118 148 189 240 291 356
#
# _framework density 19.402989000000002
#
# number of rings (size 3 to 8) (size 9 to 14) (size 15 to 20)
#    0.000    2.333    0.000    1.000    0.000   13.333 
#    0.000    1.667    0.000    0.000    0.000    0.000 
#    0.000    0.000    0.000    0.000    0.000    0.000 
#
# Total GULP energy -267309.273158 kJ/mol
# GULP energy per Si atom -5568.943191 kJ/mol
# Density = 1.935883 g / cm^3
# Si number density = 19.402989 Si / 1000 Ang^3
#
#
#
# Elastic Constant Matrix: (Units=GPa)
#
#
# Indices 1 2 3 4 5 6 
#
# 1 110.6981 31.8275 44.7041 0.0000 0.0000 0.0000
# 2 31.8275 77.4364 2.2323 0.0000 0.0000 0.0000
# 3 44.7041 2.2323 98.5147 0.0000 0.0000 0.0000
# 4 0.0000 0.0000 0.0000 15.5356 0.0000 0.0000
# 5 0.0000 0.0000 0.0000 0.0000 32.3762 0.0000
# 6 0.0000 0.0000 0.0000 0.0000 0.0000 6.8818
#
#
#
# Elastic Compliance Matrix: (Units=1/GPa)
#
#
# Indices 1 2 3 4 5 6 
#
# 1 0.012797 -0.005096 -0.005692 0.000000 0.000000 0.000000
# 2 -0.005096 0.014951 0.001974 0.000000 0.000000 0.000000
# 3 -0.005692 0.001974 0.012689 0.000000 0.000000 0.000000
# 4 0.000000 0.000000 0.000000 0.064368 0.000000 0.000000
# 5 0.000000 0.000000 0.000000 0.000000 0.030887 0.000000
# 6 0.000000 0.000000 0.000000 0.000000 0.000000 0.145311
#
#
# Mechanical properties :
#
#
# Convention : Reuss Voigt Hill
#
# Bulk Modulus (GPa) = 43.84104 49.35299 46.59702
# Shear Modulus (GPa) = 16.32736 24.81773 20.57254
#
# Velocity S-wave (km/s) = 2.90399 3.58029 3.25972
# Velocity P-wave (km/s) = 5.82136 6.52551 6.18346
#
# Compressibility (1/GPa) = 0.02280968
#
# Stress axis : x y z
#
# Youngs Moduli (GPa) = 78.14212 66.88353 78.80963
#
# Poissons Ratio (x) = 0.34082 0.44856
# Poissons Ratio (y) = 0.39819 -0.15554
# Poissons Ratio (z) = 0.44476 -0.13200
#
# Static dielectric constant tensor:
#      x y z
#    x 1.687730 0.000000 0.000000 
#    y 0.000000 1.876110 0.000000 
#    z 0.000000 0.000000 1.670810 
# 
# From -- ./inp_files/12316.got.cif
#   From: 2010.05.17/outbox.cif.g08.bks.cpg/sg62_7_cif.got.tgz:12316.got - 2010.06.03 15:25:27.
