data_PCOD9465448
_publ_section_title
;
Structure prediction by ZEFSAII (Michael W. Deem and Ramdas Pophale) SiO2 
 PCOD9465448
Probable space group: P N M A
;
_chemical_formula_sum "Si O2"
_cell_formula_units_Z 48
_cell_length_a 12.526984
_cell_length_b 11.418638
_cell_length_c 20.446265
_cell_angle_alpha 90.000000
_cell_angle_beta 90.000000
_cell_angle_gamma 90.000000
_cell_volume 2924.656145
_symmetry_space_group_name_H-M "P N M A"
_symmetry_group_IT_number 62
_symmetry_cell_setting 'orthorhombic'
loop_
_space_group_symop_operation_xyz
x,y,z
1/2-x,-y,1/2+z
1/2+x,1/2-y,1/2-z
-x,1/2+y,-z
-x,-y,-z
1/2+x,y,1/2-z
1/2-x,1/2+y,1/2+z
x,1/2-y,z
loop_
_atom_site_type_symbol
_atom_site_label
_atom_site_fract_x
_atom_site_fract_y
_atom_site_fract_z
Si Si1 0.404541 0.611092 0.644980
Si Si2 0.823382 0.750000 0.320777
Si Si3 0.371231 0.000485 0.507686
Si Si4 0.979827 0.750000 0.155647
Si Si5 0.707313 0.544290 0.241774
Si Si6 0.329025 0.250000 0.557124
Si Si7 0.367001 0.507924 0.362068
Si Si8 0.570119 0.750000 0.204567
O O1 0.391181 0.750000 0.654218
O O2 0.352858 0.570927 0.575063
O O3 0.355782 0.534547 0.705022
O O4 0.530243 0.577446 0.639054
O O5 0.781593 0.634717 0.282677
O O6 0.764395 0.750000 0.389977
O O7 0.951504 0.750000 0.324184
O O8 0.328759 0.130986 0.517798
O O9 0.500000 0.000000 0.500000
O O10 0.328612 0.967220 0.436183
O O11 0.911240 0.865716 0.159246
O O12 0.055689 0.750000 0.093184
O O13 0.057070 0.750000 0.216935
O O14 0.779487 0.471709 0.191012
O O15 0.634254 0.629279 0.196002
#
# Coordination Sequence:
#
# PCOD9465448 Si02
#       8
#     8   4   8   4   8   4   8   4
#     4  11  22  35  50  75 112 147 173 208 263 325
#     4  11  17  31  59  78 105 133 174 221 265 315
#     4  10  21  32  52  78 109 136 166 220 267 319
#     4  12  15  31  53  84 105 130 166 218 270 314
#     4  11  19  35  51  81 108 135 179 219 262 307
#     4  12  18  34  54  78 106 139 171 210 275 324
#     4  11  22  32  55  79 109 138 172 220 270 314
#     4  11  18  32  56  84 104 130 173 229 270 297
#
# _framework density 16.412185999999998
#
# number of rings (size 3 to 8) (size 9 to 14) (size 15 to 20)
#    0.000    1.000   10.000    0.500    5.833    0.667 
#    0.000    0.000    0.000    1.000    0.000    0.000 
#    0.000    0.000    0.000    0.000    0.000    0.000 
#
# Total GULP energy -267311.365167 kJ/mol
# GULP energy per Si atom -5568.986774 kJ/mol
# Density = 1.637483 g / cm^3
# Si number density = 16.412186 Si / 1000 Ang^3
#
#
#
# Elastic Constant Matrix: (Units=GPa)
#
#
# Indices 1 2 3 4 5 6 
#
# 1 55.9090 16.5138 36.6013 0.0000 0.0000 0.0000
# 2 16.5138 85.7992 21.9136 0.0000 0.0000 0.0000
# 3 36.6013 21.9136 83.3989 0.0000 0.0000 0.0000
# 4 0.0000 0.0000 0.0000 73.6093 0.0000 0.0000
# 5 0.0000 0.0000 0.0000 0.0000 27.8375 0.0000
# 6 0.0000 0.0000 0.0000 0.0000 0.0000 15.3634
#
#
#
# Elastic Compliance Matrix: (Units=1/GPa)
#
#
# Indices 1 2 3 4 5 6 
#
# 1 0.025477 -0.002195 -0.010604 0.000000 0.000000 0.000000
# 2 -0.002195 0.012683 -0.002369 0.000000 0.000000 0.000000
# 3 -0.010604 -0.002369 0.017267 0.000000 0.000000 0.000000
# 4 0.000000 0.000000 0.000000 0.013585 0.000000 0.000000
# 5 0.000000 0.000000 0.000000 0.000000 0.035923 0.000000
# 6 0.000000 0.000000 0.000000 0.000000 0.000000 0.065090
#
#
# Mechanical properties :
#
#
# Convention : Reuss Voigt Hill
#
# Bulk Modulus (GPa) = 39.85732 41.68498 40.77115
# Shear Modulus (GPa) = 23.95508 33.36728 28.66118
#
# Velocity S-wave (km/s) = 3.82460 4.51386 4.18345
# Velocity P-wave (km/s) = 6.62128 7.25400 6.94485
#
# Compressibility (1/GPa) = 0.02508949
#
# Stress axis : x y z
#
# Youngs Moduli (GPa) = 39.25157 78.84760 57.91424
#
# Poissons Ratio (x) = 0.17308 0.61413
# Poissons Ratio (y) = 0.08616 0.13720
# Poissons Ratio (z) = 0.41623 0.18680
#
# Static dielectric constant tensor:
#      x y z
#    x 1.582830 0.000000 0.000000 
#    y 0.000000 1.757390 0.000000 
#    z 0.000000 0.000000 1.579330 
# 
# From -- ./inp_files/23888.got.cif
#   From: 2010.05.17/outbox.cif.g08.bks.cpg/sg62_12_cif.got.tgz:23888.got - 2010.06.03 15:25:27.
