data_PCOD9465020
_publ_section_title
;
Structure prediction by ZEFSAII (Michael W. Deem and Ramdas Pophale) SiO2 
 PCOD9465020
Probable space group: P N M A
;
_chemical_formula_sum "Si O2"
_cell_formula_units_Z 40
_cell_length_a 8.964261
_cell_length_b 22.321643
_cell_length_c 10.542098
_cell_angle_alpha 90.000000
_cell_angle_beta 90.000000
_cell_angle_gamma 90.000000
_cell_volume 2109.442540
_symmetry_space_group_name_H-M "P N M A"
_symmetry_group_IT_number 62
_symmetry_cell_setting 'orthorhombic'
loop_
_space_group_symop_operation_xyz
x,y,z
1/2-x,-y,1/2+z
1/2+x,1/2-y,1/2-z
-x,1/2+y,-z
-x,-y,-z
1/2+x,y,1/2-z
1/2-x,1/2+y,1/2+z
x,1/2-y,z
loop_
_atom_site_type_symbol
_atom_site_label
_atom_site_fract_x
_atom_site_fract_y
_atom_site_fract_z
Si Si1 0.730312 0.351584 0.240320
Si Si2 0.992953 0.416968 0.100776
Si Si3 0.966879 0.440024 0.582899
Si Si4 0.122303 0.050376 0.845783
Si Si5 0.531357 0.814186 0.934186
O O1 0.636168 0.404004 0.310344
O O2 0.607934 0.315812 0.162052
O O3 0.818419 0.317831 0.350844
O O4 0.857756 0.375299 0.145889
O O5 0.935039 0.483518 0.126069
O O6 0.041823 0.410233 0.954867
O O7 0.798251 0.445906 0.632868
O O8 0.978219 0.377348 0.507586
O O9 0.000000 0.500000 0.500000
O O10 0.076543 0.436104 0.702621
O O11 0.529032 0.750000 0.004478
#
# Coordination Sequence:
#
# PCOD9465020 Si02
#       5
#     8   8   8   8   8
#     4  10  20  39  64  90 123 163 207 258 315 370
#     4  10  20  37  62  94 126 161 206 255 317 376
#     4  12  26  42  65  93 128 169 211 263 315 374
#     4  11  24  37  61  95 128 165 205 261 315 371
#     4  11  23  41  65  92 126 165 211 259 315 374
#
# _framework density 18.962356
#
# number of rings (size 3 to 8) (size 9 to 14) (size 15 to 20)
#    0.000    1.200    2.000    5.400    8.400    0.000 
#    0.000    1.000    0.000    0.000    0.000    0.000 
#    0.000    0.000    0.000    0.000    0.000    0.000 
#
# Total GULP energy -223280.587643 kJ/mol
# GULP energy per Si atom -5582.014691 kJ/mol
# Density = 1.891920 g / cm^3
# Si number density = 18.962356 Si / 1000 Ang^3
#
#
#
# Elastic Constant Matrix: (Units=GPa)
#
#
# Indices 1 2 3 4 5 6 
#
# 1 114.8843 36.9015 53.8967 0.0000 0.0000 0.0000
# 2 36.9015 127.3785 60.9449 0.0000 0.0000 0.0000
# 3 53.8967 60.9449 116.3278 0.0000 0.0000 0.0000
# 4 0.0000 0.0000 0.0000 14.7182 0.0000 0.0000
# 5 0.0000 0.0000 0.0000 0.0000 38.1895 0.0000
# 6 0.0000 0.0000 0.0000 0.0000 0.0000 30.7500
#
#
#
# Elastic Compliance Matrix: (Units=1/GPa)
#
#
# Indices 1 2 3 4 5 6 
#
# 1 0.011220 -0.001019 -0.004665 0.000000 0.000000 0.000000
# 2 -0.001019 0.010569 -0.005065 0.000000 0.000000 0.000000
# 3 -0.004665 -0.005065 0.013411 0.000000 0.000000 0.000000
# 4 0.000000 0.000000 0.000000 0.067943 0.000000 0.000000
# 5 0.000000 0.000000 0.000000 0.000000 0.026185 0.000000
# 6 0.000000 0.000000 0.000000 0.000000 0.000000 0.032520
#
#
# Mechanical properties :
#
#
# Convention : Reuss Voigt Hill
#
# Bulk Modulus (GPa) = 72.97531 73.56409 73.26970
# Shear Modulus (GPa) = 26.60786 30.52138 28.56462
#
# Velocity S-wave (km/s) = 3.74999 4.01631 3.88543
# Velocity P-wave (km/s) = 7.57085 7.77088 7.67152
#
# Compressibility (1/GPa) = 0.01370327
#
# Stress axis : x y z
#
# Youngs Moduli (GPa) = 89.12648 94.61400 74.56301
#
# Poissons Ratio (x) = 0.09637 0.34782
# Poissons Ratio (y) = 0.09078 0.37769
# Poissons Ratio (z) = 0.41576 0.47926
#
# Static dielectric constant tensor:
#      x y z
#    x 1.651570 0.000000 0.000000 
#    y 0.000000 1.690190 0.000000 
#    z 0.000000 0.000000 1.675440 
# 
# From -- ./inp_files/4275.got.cif
#   From: 2010.05.17/outbox.cif.g08.bks.cpg/sg62_3_cif.got.tgz:4275.got - 2010.06.03 15:25:27.
