data_PCOD9465620
_publ_section_title
;
Structure prediction by ZEFSAII (Michael W. Deem and Ramdas Pophale) SiO2 
 PCOD9465620
Probable space group: P N M A
;
_chemical_formula_sum "Si O2"
_cell_formula_units_Z 64
_cell_length_a 9.838987
_cell_length_b 16.834054
_cell_length_c 17.474104
_cell_angle_alpha 90.000000
_cell_angle_beta 90.000000
_cell_angle_gamma 90.000000
_cell_volume 2894.236518
_symmetry_space_group_name_H-M "P N M A"
_symmetry_group_IT_number 62
_symmetry_cell_setting 'orthorhombic'
loop_
_space_group_symop_operation_xyz
x,y,z
1/2-x,-y,1/2+z
1/2+x,1/2-y,1/2-z
-x,1/2+y,-z
-x,-y,-z
1/2+x,y,1/2-z
1/2-x,1/2+y,1/2+z
x,1/2-y,z
loop_
_atom_site_type_symbol
_atom_site_label
_atom_site_fract_x
_atom_site_fract_y
_atom_site_fract_z
Si Si1 0.772626 0.515988 0.505202
Si Si2 0.418549 0.841605 0.903904
Si Si3 0.946728 0.161162 0.681204
Si Si4 0.855667 0.161971 0.520475
Si Si5 0.277183 0.340731 0.275403
Si Si6 0.060857 0.942035 0.889279
Si Si7 0.678744 0.421842 0.721302
Si Si8 0.758825 0.967139 0.846733
O O1 0.860893 0.579328 0.553402
O O2 0.781716 0.422771 0.527670
O O3 0.623402 0.549449 0.526337
O O4 0.814450 0.511276 0.416654
O O5 0.365908 0.750000 0.921261
O O6 0.372114 0.852838 0.815476
O O7 0.569157 0.838814 0.938616
O O8 0.968677 0.250000 0.709301
O O9 0.965941 0.159426 0.589387
O O10 0.786009 0.141104 0.688921
O O11 0.052369 0.109132 0.728949
O O12 0.787705 0.250000 0.527445
O O13 0.294126 0.250000 0.254895
O O14 0.376991 0.367278 0.343781
O O15 0.301154 0.394977 0.201962
O O16 0.900694 0.940412 0.882808
O O17 0.120475 0.017135 0.841367
O O18 0.775380 0.469549 0.779683
#
# Coordination Sequence:
#
# PCOD9465620 Si02
#       8
#     8   8   8   8   8   8   8   8
#     4  11  21  37  60  86 121 167 207 261 319 375
#     4   9  19  37  61  89 120 157 206 262 321 382
#     4  11  22  38  62  89 123 164 204 256 311 370
#     4  10  21  36  58  90 124 159 206 262 318 376
#     4   9  21  39  61  89 121 161 208 266 325 383
#     4  10  21  39  60  82 123 165 203 254 315 381
#     4  11  21  39  61  87 124 157 206 254 307 375
#     4  11  23  37  61  90 119 164 210 253 313 380
#
# _framework density 22.112912000000001
#
# number of rings (size 3 to 8) (size 9 to 14) (size 15 to 20)
#    0.000    1.750    2.500    1.875    0.000    3.000 
#    0.000    1.875    0.000    1.500    0.000    0.000 
#    0.000    0.000    0.000    0.000    0.000    0.000 
#
# Total GULP energy -356407.188151 kJ/mol
# GULP energy per Si atom -5568.862315 kJ/mol
# Density = 2.206258 g / cm^3
# Si number density = 22.112912 Si / 1000 Ang^3
#
#
#
# Elastic Constant Matrix: (Units=GPa)
#
#
# Indices 1 2 3 4 5 6 
#
# 1 41.9109 2.1558 -10.4839 0.0000 0.0000 0.0000
# 2 2.1558 107.9047 26.1531 0.0000 0.0000 0.0000
# 3 -10.4839 26.1531 91.9334 0.0000 0.0000 0.0000
# 4 0.0000 0.0000 0.0000 16.4144 0.0000 0.0000
# 5 0.0000 0.0000 0.0000 0.0000 25.3509 0.0000
# 6 0.0000 0.0000 0.0000 0.0000 0.0000 17.4530
#
#
#
# Elastic Compliance Matrix: (Units=1/GPa)
#
#
# Indices 1 2 3 4 5 6 
#
# 1 0.024720 -0.001264 0.003179 0.000000 0.000000 0.000000
# 2 -0.001264 0.010018 -0.002994 0.000000 0.000000 0.000000
# 3 0.003179 -0.002994 0.012092 0.000000 0.000000 0.000000
# 4 0.000000 0.000000 0.000000 0.060922 0.000000 0.000000
# 5 0.000000 0.000000 0.000000 0.000000 0.039446 0.000000
# 6 0.000000 0.000000 0.000000 0.000000 0.000000 0.057297
#
#
# Mechanical properties :
#
#
# Convention : Reuss Voigt Hill
#
# Bulk Modulus (GPa) = 22.38595 30.82212 26.60403
# Shear Modulus (GPa) = 22.56872 26.77192 24.67032
#
# Velocity S-wave (km/s) = 3.19817 3.48327 3.34376
# Velocity P-wave (km/s) = 4.87680 5.49057 5.19276
#
# Compressibility (1/GPa) = 0.04467088
#
# Stress axis : x y z
#
# Youngs Moduli (GPa) = 40.45251 99.81630 82.70123
#
# Poissons Ratio (x) = 0.12620 -0.26289
# Poissons Ratio (y) = 0.05115 0.24762
# Poissons Ratio (z) = -0.12859 0.29887
#
# Static dielectric constant tensor:
#      x y z
#    x 1.871310 0.000000 0.000000 
#    y 0.000000 1.823010 0.000000 
#    z 0.000000 0.000000 1.855500 
# 
# From -- ./inp_files/23252.got.cif
#   From: 2010.05.17/outbox.cif.g08.bks.cpg/sg62_12_cif.got.tgz:23252.got - 2010.06.03 15:25:27.
