data_PCOD9465983
_publ_section_title
;
Structure prediction by ZEFSAII (Michael W. Deem and Ramdas Pophale) SiO2 
 PCOD9465983
Probable space group: P N M A
;
_chemical_formula_sum "Si O2"
_cell_formula_units_Z 64
_cell_length_a 17.507110
_cell_length_b 20.482697
_cell_length_c 7.621556
_cell_angle_alpha 90.000000
_cell_angle_beta 90.000000
_cell_angle_gamma 90.000000
_cell_volume 2733.035331
_symmetry_space_group_name_H-M "P N M A"
_symmetry_group_IT_number 62
_symmetry_cell_setting 'orthorhombic'
loop_
_space_group_symop_operation_xyz
x,y,z
1/2-x,-y,1/2+z
1/2+x,1/2-y,1/2-z
-x,1/2+y,-z
-x,-y,-z
1/2+x,y,1/2-z
1/2-x,1/2+y,1/2+z
x,1/2-y,z
loop_
_atom_site_type_symbol
_atom_site_label
_atom_site_fract_x
_atom_site_fract_y
_atom_site_fract_z
Si Si1 0.671360 0.997085 0.660976
Si Si2 0.346009 0.826780 0.905016
Si Si3 0.318136 0.062256 0.968829
Si Si4 0.792888 0.180186 0.320632
Si Si5 0.407251 0.129074 0.411255
Si Si6 0.904143 0.676979 0.252411
Si Si7 0.419101 0.324326 0.795441
Si Si8 0.419089 0.900258 0.583789
O O1 0.758840 0.021464 0.647687
O O2 0.618501 0.042522 0.535352
O O3 0.652043 0.982258 0.867644
O O4 0.656439 0.926796 0.576052
O O5 0.376106 0.750000 0.890043
O O6 0.258694 0.820898 0.850965
O O7 0.384982 0.876276 0.767695
O O8 0.353465 0.856390 0.099649
O O9 0.268695 0.119383 0.062737
O O10 0.378970 0.110112 0.872836
O O11 0.778615 0.250000 0.404571
O O12 0.880157 0.169979 0.258329
O O13 0.408638 0.171018 0.586068
O O14 0.489458 0.094344 0.391361
O O15 0.875935 0.750000 0.255730
O O16 0.906521 0.658036 0.052642
O O17 0.990193 0.670915 0.325450
O O18 0.396347 0.250000 0.849085
#
# Coordination Sequence:
#
# PCOD9465983 Si02
#       8
#     8   8   8   8   8   8   8   8
#     4  11  24  42  62  92 131 174 221 263 317 390
#     4  10  21  38  63  94 131 169 210 272 333 385
#     4  11  23  40  61  88 127 169 212 267 322 379
#     4  10  21  39  62  94 123 161 216 265 327 392
#     4  10  23  41  65  91 128 168 212 267 323 383
#     4   9  21  39  62  96 131 165 216 271 331 389
#     4  10  21  41  65  95 125 162 213 267 328 394
#     4  11  22  42  64  93 129 176 221 267 322 391
#
# _framework density 23.417187999999999
#
# number of rings (size 3 to 8) (size 9 to 14) (size 15 to 20)
#    0.000    1.750    1.250    2.250    3.500    4.500 
#    2.250    2.500    0.000    0.000    0.000    0.000 
#    0.000    0.000    0.000    0.000    0.000    0.000 
#
# Total GULP energy -356504.400311 kJ/mol
# GULP energy per Si atom -5570.381255 kJ/mol
# Density = 2.336389 g / cm^3
# Si number density = 23.417188 Si / 1000 Ang^3
#
#
#
# Elastic Constant Matrix: (Units=GPa)
#
#
# Indices 1 2 3 4 5 6 
#
# 1 26.9141 -5.8275 -8.2535 0.0000 0.0000 0.0000
# 2 -5.8275 82.6640 -9.0922 0.0000 0.0000 0.0000
# 3 -8.2535 -9.0922 33.5210 0.0000 0.0000 0.0000
# 4 0.0000 0.0000 0.0000 10.7676 0.0000 0.0000
# 5 0.0000 0.0000 0.0000 0.0000 30.2654 0.0000
# 6 0.0000 0.0000 0.0000 0.0000 0.0000 24.7167
#
#
#
# Elastic Compliance Matrix: (Units=1/GPa)
#
#
# Indices 1 2 3 4 5 6 
#
# 1 0.041544 0.004178 0.011362 0.000000 0.000000 0.000000
# 2 0.004178 0.012889 0.004525 0.000000 0.000000 0.000000
# 3 0.011362 0.004525 0.033857 0.000000 0.000000 0.000000
# 4 0.000000 0.000000 0.000000 0.092871 0.000000 0.000000
# 5 0.000000 0.000000 0.000000 0.000000 0.033041 0.000000
# 6 0.000000 0.000000 0.000000 0.000000 0.000000 0.040459
#
#
# Mechanical properties :
#
#
# Convention : Reuss Voigt Hill
#
# Bulk Modulus (GPa) = 7.78681 10.75030 9.26855
# Shear Modulus (GPa) = 19.42975 24.23476 21.83226
#
# Velocity S-wave (km/s) = 2.88361 3.22050 3.05670
# Velocity P-wave (km/s) = 3.79729 4.29296 4.05271
#
# Compressibility (1/GPa) = 0.12842226
#
# Stress axis : x y z
#
# Youngs Moduli (GPa) = 24.07062 77.58296 29.53604
#
# Poissons Ratio (x) = -0.32418 -0.33560
# Poissons Ratio (y) = -0.10058 -0.13365
# Poissons Ratio (z) = -0.27350 -0.35106
#
# Static dielectric constant tensor:
#      x y z
#    x 1.913500 0.000000 0.000000 
#    y 0.000000 1.989430 0.000000 
#    z 0.000000 0.000000 1.909070 
# 
# From -- ./inp_files/8113.got.cif
#   From: 2010.05.17/outbox.cif.g08.bks.cpg/sg62_5_cif.got.tgz:8113.got - 2010.06.03 15:25:27.
