data_PCOD9465879
_publ_section_title
;
Structure prediction by ZEFSAII (Michael W. Deem and Ramdas Pophale) SiO2 
 PCOD9465879
Probable space group: P N M A
;
_chemical_formula_sum "Si O2"
_cell_formula_units_Z 48
_cell_length_a 27.496103
_cell_length_b 13.185396
_cell_length_c 5.131162
_cell_angle_alpha 90.000000
_cell_angle_beta 90.000000
_cell_angle_gamma 90.000000
_cell_volume 1860.287423
_symmetry_space_group_name_H-M "P N M A"
_symmetry_group_IT_number 62
_symmetry_cell_setting 'orthorhombic'
loop_
_space_group_symop_operation_xyz
x,y,z
1/2-x,-y,1/2+z
1/2+x,1/2-y,1/2-z
-x,1/2+y,-z
-x,-y,-z
1/2+x,y,1/2-z
1/2-x,1/2+y,1/2+z
x,1/2-y,z
loop_
_atom_site_type_symbol
_atom_site_label
_atom_site_fract_x
_atom_site_fract_y
_atom_site_fract_z
Si Si1 0.005175 0.126631 0.161155
Si Si2 0.882341 0.864505 0.798565
Si Si3 0.707453 0.359355 0.971249
Si Si4 0.952581 0.369593 0.658853
Si Si5 0.152216 0.920106 0.119554
Si Si6 0.212940 0.588149 0.639065
O O1 0.001821 0.250000 0.148967
O O2 0.061129 0.108754 0.239238
O O3 0.966164 0.090615 0.374776
O O4 0.990241 0.091431 0.874539
O O5 0.879487 0.750000 0.912110
O O6 0.849845 0.860885 0.537226
O O7 0.857477 0.960331 0.935627
O O8 0.719153 0.250000 0.848478
O O9 0.719517 0.465799 0.837846
O O10 0.737571 0.364666 0.246285
O O11 0.960131 0.250000 0.638797
O O12 0.898940 0.383937 0.769215
O O13 0.190500 0.896997 0.352523
O O14 0.172714 0.877221 0.851169
#
# Coordination Sequence:
#
# PCOD9465879 Si02
#       6
#     8   8   8   8   8   8
#     4   9  19  36  58  85 119 157 203 256 302 364
#     4   9  20  38  60  88 119 156 204 254 311 372
#     4  10  22  43  70  95 129 174 211 263 333 383
#     4  10  21  38  59  86 122 163 204 250 309 369
#     4  11  24  40  63  90 124 164 202 259 315 368
#     4  11  24  43  63  95 129 157 213 267 305 383
#
# _framework density 25.802465000000002
#
# number of rings (size 3 to 8) (size 9 to 14) (size 15 to 20)
#    0.000    2.000    0.000    3.000    0.000    6.000 
#    0.000   12.500    0.000    0.000    0.000    0.000 
#    0.000    0.000    0.000    0.000    0.000    0.000 
#
# Total GULP energy -268311.052965 kJ/mol
# GULP energy per Si atom -5589.813603 kJ/mol
# Density = 2.574374 g / cm^3
# Si number density = 25.802465 Si / 1000 Ang^3
#
#
#
# Elastic Constant Matrix: (Units=GPa)
#
#
# Indices 1 2 3 4 5 6 
#
# 1 128.6792 -9.7787 50.8987 0.0000 0.0000 0.0000
# 2 -9.7787 85.1666 20.9277 0.0000 0.0000 0.0000
# 3 50.8987 20.9277 93.4237 0.0000 0.0000 0.0000
# 4 0.0000 0.0000 0.0000 27.8976 0.0000 0.0000
# 5 0.0000 0.0000 0.0000 0.0000 32.5058 0.0000
# 6 0.0000 0.0000 0.0000 0.0000 0.0000 19.3050
#
#
#
# Elastic Compliance Matrix: (Units=1/GPa)
#
#
# Indices 1 2 3 4 5 6 
#
# 1 0.010485 0.002759 -0.006331 0.000000 0.000000 0.000000
# 2 0.002759 0.013152 -0.004450 0.000000 0.000000 0.000000
# 3 -0.006331 -0.004450 0.015150 0.000000 0.000000 0.000000
# 4 0.000000 0.000000 0.000000 0.035845 0.000000 0.000000
# 5 0.000000 0.000000 0.000000 0.000000 0.030764 0.000000
# 6 0.000000 0.000000 0.000000 0.000000 0.000000 0.051800
#
#
# Mechanical properties :
#
#
# Convention : Reuss Voigt Hill
#
# Bulk Modulus (GPa) = 43.96512 47.92942 45.94727
# Shear Modulus (GPa) = 27.65202 32.28980 29.97091
#
# Velocity S-wave (km/s) = 3.27721 3.54138 3.41185
# Velocity P-wave (km/s) = 5.60323 5.94455 5.77641
#
# Compressibility (1/GPa) = 0.02274530
#
# Stress axis : x y z
#
# Youngs Moduli (GPa) = 95.37447 76.03465 66.00822
#
# Poissons Ratio (x) = -0.20981 0.41787
# Poissons Ratio (y) = -0.26318 0.29371
# Poissons Ratio (z) = 0.60377 0.33832
#
# Static dielectric constant tensor:
#      x y z
#    x 1.997050 0.000000 0.000000 
#    y 0.000000 2.105920 0.000000 
#    z 0.000000 0.000000 1.992890 
# 
# From -- ./inp_files/3186.got.cif
#   From: 2010.05.17/outbox.cif.g08.bks.cpg/sg62_2_cif.got.tgz:3186.got - 2010.06.03 15:25:27.
