data_PCOD9465612
_publ_section_title
;
Structure prediction by ZEFSAII (Michael W. Deem and Ramdas Pophale) SiO2 
 PCOD9465612
Probable space group: P N M A
;
_chemical_formula_sum "Si O2"
_cell_formula_units_Z 64
_cell_length_a 10.187265
_cell_length_b 18.181472
_cell_length_c 14.658351
_cell_angle_alpha 90.000000
_cell_angle_beta 90.000000
_cell_angle_gamma 90.000000
_cell_volume 2715.012052
_symmetry_space_group_name_H-M "P N M A"
_symmetry_group_IT_number 62
_symmetry_cell_setting 'orthorhombic'
loop_
_space_group_symop_operation_xyz
x,y,z
1/2-x,-y,1/2+z
1/2+x,1/2-y,1/2-z
-x,1/2+y,-z
-x,-y,-z
1/2+x,y,1/2-z
1/2-x,1/2+y,1/2+z
x,1/2-y,z
loop_
_atom_site_type_symbol
_atom_site_label
_atom_site_fract_x
_atom_site_fract_y
_atom_site_fract_z
Si Si1 0.598804 0.567569 0.487450
Si Si2 0.984482 0.661396 0.167595
Si Si3 0.968451 0.667850 0.679032
Si Si4 0.324916 0.039432 0.176727
Si Si5 0.484494 0.420687 0.855833
Si Si6 0.221502 0.452943 0.364559
Si Si7 0.774042 0.166915 0.552326
Si Si8 0.904033 0.631812 0.882311
O O1 0.500000 0.500000 0.500000
O O2 0.583162 0.612268 0.394217
O O3 0.729546 0.536720 0.533463
O O4 0.538942 0.623219 0.563404
O O5 0.004162 0.750000 0.158763
O O6 0.838402 0.644289 0.126700
O O7 0.000098 0.634661 0.271244
O O8 0.993332 0.750000 0.645362
O O9 0.839772 0.628094 0.640068
O O10 0.937383 0.669858 0.787302
O O11 0.086951 0.611787 0.658620
O O12 0.329944 0.033993 0.286874
O O13 0.176470 0.058221 0.147406
O O14 0.380589 0.965176 0.133558
O O15 0.388498 0.489017 0.835707
O O16 0.405898 0.380715 0.937066
O O17 0.811230 0.250000 0.573213
O O18 0.695987 0.164717 0.457033
#
# Coordination Sequence:
#
# PCOD9465612 Si02
#       8
#     8   8   8   8   8   8   8   8
#     4  11  21  38  64  93 121 156 203 261 311 361
#     4  10  23  40  63  93 125 163 207 263 318 372
#     4  10  21  36  58  85 122 163 196 241 302 369
#     4  10  21  36  59  88 120 160 203 248 305 367
#     4  11  21  39  62  89 122 159 208 254 308 372
#     4  10  21  37  57  91 120 157 199 249 305 368
#     4  10  21  38  61  88 119 158 204 256 313 372
#     4  10  21  38  58  89 123 154 207 248 305 365
#
# _framework density 23.572638999999999
#
# number of rings (size 3 to 8) (size 9 to 14) (size 15 to 20)
#    0.000    1.750    1.250    3.750    3.500    4.000 
#    0.000    0.000    0.000    0.000    0.000    0.000 
#    0.000    0.000    0.000    0.000    0.000    0.000 
#
# Total GULP energy -357337.213394 kJ/mol
# GULP energy per Si atom -5583.393959 kJ/mol
# Density = 2.351899 g / cm^3
# Si number density = 23.572639 Si / 1000 Ang^3
#
#
#
# Elastic Constant Matrix: (Units=GPa)
#
#
# Indices 1 2 3 4 5 6 
#
# 1 54.9196 12.2133 27.5175 0.0000 0.0000 0.0000
# 2 12.2133 97.6935 15.2980 0.0000 0.0000 0.0000
# 3 27.5175 15.2980 92.1873 0.0000 0.0000 0.0000
# 4 0.0000 0.0000 0.0000 18.5215 0.0000 0.0000
# 5 0.0000 0.0000 0.0000 0.0000 39.4268 0.0000
# 6 0.0000 0.0000 0.0000 0.0000 0.0000 17.1045
#
#
#
# Elastic Compliance Matrix: (Units=1/GPa)
#
#
# Indices 1 2 3 4 5 6 
#
# 1 0.021696 -0.001744 -0.006187 0.000000 0.000000 0.000000
# 2 -0.001744 0.010649 -0.001247 0.000000 0.000000 0.000000
# 3 -0.006187 -0.001247 0.012901 0.000000 0.000000 0.000000
# 4 0.000000 0.000000 0.000000 0.053991 0.000000 0.000000
# 5 0.000000 0.000000 0.000000 0.000000 0.025363 0.000000
# 6 0.000000 0.000000 0.000000 0.000000 0.000000 0.058464
#
#
# Mechanical properties :
#
#
# Convention : Reuss Voigt Hill
#
# Bulk Modulus (GPa) = 37.18551 39.42867 38.30709
# Shear Modulus (GPa) = 23.76610 27.66201 25.71406
#
# Velocity S-wave (km/s) = 3.17867 3.42933 3.30637
# Velocity P-wave (km/s) = 5.41120 5.69589 5.55537
#
# Compressibility (1/GPa) = 0.02689219
#
# Stress axis : x y z
#
# Youngs Moduli (GPa) = 46.09122 93.90288 77.51269
#
# Poissons Ratio (x) = 0.16373 0.47956
# Poissons Ratio (y) = 0.08036 0.09664
# Poissons Ratio (z) = 0.28516 0.11707
#
# Static dielectric constant tensor:
#      x y z
#    x 1.979630 0.000000 0.000000 
#    y 0.000000 1.918280 0.000000 
#    z 0.000000 0.000000 1.968940 
# 
# From -- ./inp_files/18258.got.cif
#   From: 2010.05.17/outbox.cif.g08.bks.cpg/sg62_10_cif.got.tgz:18258.got - 2010.06.03 15:25:27.
