data_PCOD9465525
_publ_section_title
;
Structure prediction by ZEFSAII (Michael W. Deem and Ramdas Pophale) SiO2 
 PCOD9465525
Probable space group: P N M A
;
_chemical_formula_sum "Si O2"
_cell_formula_units_Z 48
_cell_length_a 27.819176
_cell_length_b 14.233810
_cell_length_c 5.426542
_cell_angle_alpha 90.000000
_cell_angle_beta 90.000000
_cell_angle_gamma 90.000000
_cell_volume 2148.763386
_symmetry_space_group_name_H-M "P N M A"
_symmetry_group_IT_number 62
_symmetry_cell_setting 'orthorhombic'
loop_
_space_group_symop_operation_xyz
x,y,z
1/2-x,-y,1/2+z
1/2+x,1/2-y,1/2-z
-x,1/2+y,-z
-x,-y,-z
1/2+x,y,1/2-z
1/2-x,1/2+y,1/2+z
x,1/2-y,z
loop_
_atom_site_type_symbol
_atom_site_label
_atom_site_fract_x
_atom_site_fract_y
_atom_site_fract_z
Si Si1 0.720909 0.358716 0.637229
Si Si2 0.494098 0.645439 0.648120
Si Si3 0.392451 0.856927 0.885985
Si Si4 0.643001 0.008935 0.491941
Si Si5 0.220947 0.640203 0.855087
Si Si6 0.545913 0.024328 0.737444
O O1 0.711914 0.250000 0.581444
O O2 0.670674 0.411894 0.649502
O O3 0.745173 0.366201 0.904025
O O4 0.753643 0.393418 0.402374
O O5 0.514446 0.750000 0.651735
O O6 0.436996 0.654167 0.694419
O O7 0.494024 0.589391 0.391966
O O8 0.519996 0.570968 0.828652
O O9 0.373581 0.750000 0.929694
O O10 0.357722 0.936394 0.771144
O O11 0.422632 0.905565 0.100240
O O12 0.588329 0.986725 0.557303
O O13 0.675046 0.918929 0.555794
O O14 0.209012 0.750000 0.816507
#
# Coordination Sequence:
#
# PCOD9465525 Si02
#       6
#     8   8   8   8   8   8
#     4  10  22  40  62  88 119 164 208 248 301 363
#     4   9  19  38  57  81 115 154 197 242 298 371
#     4  10  21  36  57  85 116 150 195 249 304 360
#     4  11  23  36  58  88 119 150 198 249 305 357
#     4  10  23  41  62  87 123 165 206 248 300 364
#     4  10  21  35  58  86 115 155 195 247 306 368
#
# _framework density 22.338429999999999
#
# number of rings (size 3 to 8) (size 9 to 14) (size 15 to 20)
#    0.000    2.000    0.000    2.500    4.667    2.667 
#    0.000    0.833    0.000    0.000    0.000    0.000 
#    0.000    0.000    0.000    0.000    0.000    0.000 
#
# Total GULP energy -267232.375005 kJ/mol
# GULP energy per Si atom -5567.341146 kJ/mol
# Density = 2.228759 g / cm^3
# Si number density = 22.338430 Si / 1000 Ang^3
#
#
#
# Elastic Constant Matrix: (Units=GPa)
#
#
# Indices 1 2 3 4 5 6 
#
# 1 74.1320 26.5199 7.2622 0.0000 0.0000 0.0000
# 2 26.5199 129.7218 20.4631 0.0000 0.0000 0.0000
# 3 7.2622 20.4631 68.6255 0.0000 0.0000 0.0000
# 4 0.0000 0.0000 0.0000 12.2340 0.0000 0.0000
# 5 0.0000 0.0000 0.0000 0.0000 24.7635 0.0000
# 6 0.0000 0.0000 0.0000 0.0000 0.0000 17.2348
#
#
#
# Elastic Compliance Matrix: (Units=1/GPa)
#
#
# Indices 1 2 3 4 5 6 
#
# 1 0.014585 -0.002873 -0.000687 0.000000 0.000000 0.000000
# 2 -0.002873 0.008655 -0.002277 0.000000 0.000000 0.000000
# 3 -0.000687 -0.002277 0.015323 0.000000 0.000000 0.000000
# 4 0.000000 0.000000 0.000000 0.081739 0.000000 0.000000
# 5 0.000000 0.000000 0.000000 0.000000 0.040382 0.000000
# 6 0.000000 0.000000 0.000000 0.000000 0.000000 0.058022
#
#
# Mechanical properties :
#
#
# Convention : Reuss Voigt Hill
#
# Bulk Modulus (GPa) = 37.18872 42.32995 39.75933
# Shear Modulus (GPa) = 20.89046 25.39541 23.14293
#
# Velocity S-wave (km/s) = 3.06139 3.37538 3.22221
# Velocity P-wave (km/s) = 5.40186 5.84649 5.62857
#
# Compressibility (1/GPa) = 0.02688988
#
# Stress axis : x y z
#
# Youngs Moduli (GPa) = 68.56538 115.53511 65.25956
#
# Poissons Ratio (x) = 0.33197 0.04481
# Poissons Ratio (y) = 0.19701 0.14859
# Poissons Ratio (z) = 0.04708 0.26305
#
# Static dielectric constant tensor:
#      x y z
#    x 1.877670 0.000000 0.000000 
#    y 0.000000 1.862300 0.000000 
#    z 0.000000 0.000000 2.017560 
# 
# From -- ./inp_files/3178.got.cif
#   From: 2010.05.17/outbox.cif.g08.bks.cpg/sg62_2_cif.got.tgz:3178.got - 2010.06.03 15:25:27.
