data_PCOD9465901
_publ_section_title
;
Structure prediction by ZEFSAII (Michael W. Deem and Ramdas Pophale) SiO2 
 PCOD9465901
Probable space group: P N M A
;
_chemical_formula_sum "Si O2"
_cell_formula_units_Z 40
_cell_length_a 10.854261
_cell_length_b 7.541931
_cell_length_c 20.769135
_cell_angle_alpha 90.000000
_cell_angle_beta 90.000000
_cell_angle_gamma 90.000000
_cell_volume 1700.204747
_symmetry_space_group_name_H-M "P N M A"
_symmetry_group_IT_number 62
_symmetry_cell_setting 'orthorhombic'
loop_
_space_group_symop_operation_xyz
x,y,z
1/2-x,-y,1/2+z
1/2+x,1/2-y,1/2-z
-x,1/2+y,-z
-x,-y,-z
1/2+x,y,1/2-z
1/2-x,1/2+y,1/2+z
x,1/2-y,z
loop_
_atom_site_type_symbol
_atom_site_label
_atom_site_fract_x
_atom_site_fract_y
_atom_site_fract_z
Si Si1 0.670435 0.036203 0.051672
Si Si2 0.445691 0.460859 0.429864
Si Si3 0.213765 0.031775 0.722376
Si Si4 0.595443 0.040107 0.910183
Si Si5 0.021758 0.954511 0.205514
O O1 0.675348 0.250000 0.049432
O O2 0.804340 0.972888 0.073561
O O3 0.551533 0.987604 0.093632
O O4 0.641443 0.968899 0.979088
O O5 0.500000 0.500000 0.500000
O O6 0.445696 0.250000 0.421083
O O7 0.524653 0.539318 0.371731
O O8 0.219684 0.250000 0.723256
O O9 0.352425 0.967013 0.733184
O O10 0.166702 0.973726 0.652000
O O11 0.108600 0.970184 0.771420
O O12 0.616973 0.250000 0.912054
O O13 0.019142 0.750000 0.226667
#
# Coordination Sequence:
#
# PCOD9465901 Si02
#       5
#     8   8   8   8   8
#     4   9  19  34  53  81 114 145 183 234 287 334
#     4  11  23  39  59  84 115 151 192 241 294 344
#     4   9  19  35  58  85 115 151 194 237 279 335
#     4   9  17  32  55  81 110 146 187 229 277 337
#     4  10  21  38  60  87 117 154 196 238 285 340
#
# _framework density 23.526577
#
# number of rings (size 3 to 8) (size 9 to 14) (size 15 to 20)
#    0.000    2.400    0.000    1.800    2.800    4.800 
#    0.000    7.000    0.000    0.000    0.000    0.000 
#    0.000    0.000    0.000    0.000    0.000    0.000 
#
# Total GULP energy -223543.825245 kJ/mol
# GULP energy per Si atom -5588.595631 kJ/mol
# Density = 2.347303 g / cm^3
# Si number density = 23.526577 Si / 1000 Ang^3
#
#
#
# Elastic Constant Matrix: (Units=GPa)
#
#
# Indices 1 2 3 4 5 6 
#
# 1 170.0439 -2.3059 44.5086 0.0000 0.0000 0.0000
# 2 -2.3059 62.5693 -9.3204 0.0000 0.0000 0.0000
# 3 44.5086 -9.3204 59.8305 0.0000 0.0000 0.0000
# 4 0.0000 0.0000 0.0000 10.8154 0.0000 0.0000
# 5 0.0000 0.0000 0.0000 0.0000 32.9242 0.0000
# 6 0.0000 0.0000 0.0000 0.0000 0.0000 14.7459
#
#
#
# Elastic Compliance Matrix: (Units=1/GPa)
#
#
# Indices 1 2 3 4 5 6 
#
# 1 0.007322 -0.000554 -0.005533 0.000000 0.000000 0.000000
# 2 -0.000554 0.016404 0.002968 0.000000 0.000000 0.000000
# 3 -0.005533 0.002968 0.021292 0.000000 0.000000 0.000000
# 4 0.000000 0.000000 0.000000 0.092460 0.000000 0.000000
# 5 0.000000 0.000000 0.000000 0.000000 0.030373 0.000000
# 6 0.000000 0.000000 0.000000 0.000000 0.000000 0.067816
#
#
# Mechanical properties :
#
#
# Convention : Reuss Voigt Hill
#
# Bulk Modulus (GPa) = 25.78735 39.80092 32.79413
# Shear Modulus (GPa) = 19.62080 29.00122 24.31101
#
# Velocity S-wave (km/s) = 2.89101 3.51479 3.21805
# Velocity P-wave (km/s) = 4.70411 5.78151 5.27041
#
# Compressibility (1/GPa) = 0.03877870
#
# Stress axis : x y z
#
# Youngs Moduli (GPa) = 136.58312 60.96102 46.96550
#
# Poissons Ratio (x) = 0.03379 0.25986
# Poissons Ratio (y) = 0.07572 -0.13938
# Poissons Ratio (z) = 0.75571 -0.18092
#
# Static dielectric constant tensor:
#      x y z
#    x 1.898330 0.000000 0.000000 
#    y 0.000000 1.891880 0.000000 
#    z 0.000000 0.000000 1.873070 
# 
# From -- ./inp_files/21914.got.cif
#   From: 2010.05.17/outbox.cif.g08.bks.cpg/sg62_11_cif.got.tgz:21914.got - 2010.06.03 15:25:27.
