data_PCOD9465987
_publ_section_title
;
Structure prediction by ZEFSAII (Michael W. Deem and Ramdas Pophale) SiO2 
 PCOD9465987
Probable space group: P N M A
;
_chemical_formula_sum "Si O2"
_cell_formula_units_Z 32
_cell_length_a 18.655818
_cell_length_b 16.687516
_cell_length_c 4.606989
_cell_angle_alpha 90.000000
_cell_angle_beta 90.000000
_cell_angle_gamma 90.000000
_cell_volume 1434.244413
_symmetry_space_group_name_H-M "P N M A"
_symmetry_group_IT_number 62
_symmetry_cell_setting 'orthorhombic'
loop_
_space_group_symop_operation_xyz
x,y,z
1/2-x,-y,1/2+z
1/2+x,1/2-y,1/2-z
-x,1/2+y,-z
-x,-y,-z
1/2+x,y,1/2-z
1/2-x,1/2+y,1/2+z
x,1/2-y,z
loop_
_atom_site_type_symbol
_atom_site_label
_atom_site_fract_x
_atom_site_fract_y
_atom_site_fract_z
Si Si1 0.316645 0.074376 0.450636
Si Si2 0.665637 0.041403 0.036841
Si Si3 0.479771 0.577110 0.296617
Si Si4 0.951423 0.340355 0.269616
O O1 0.234587 0.098763 0.512618
O O2 0.379795 0.137997 0.412999
O O3 0.406337 0.929142 0.116594
O O4 0.310138 0.038377 0.130578
O O5 0.658299 0.002693 0.356317
O O6 0.500000 0.500000 0.500000
O O7 0.484956 0.646633 0.536675
O O8 0.464129 0.400935 0.961368
O O9 0.948994 0.250000 0.377674
#
# Coordination Sequence:
#
# PCOD9465987 Si02
#       4
#     8   8   8   8
#     4  10  21  38  64  95 134 171 219 281 338 401
#     4  10  21  38  64 102 127 164 231 290 324 388
#     4  12  24  41  71 100 130 179 235 291 333 398
#     4  12  26  42  63  98 142 181 221 280 353 413
#
# _framework density 22.311398000000001
#
# number of rings (size 3 to 8) (size 9 to 14) (size 15 to 20)
#    0.000    1.000    2.500    4.500    0.000    0.000 
#    0.000    2.500    0.000    0.000    0.000    0.000 
#    0.000    0.000    0.000    0.000    0.000    0.000 
#
# Total GULP energy -178185.143931 kJ/mol
# GULP energy per Si atom -5568.285748 kJ/mol
# Density = 2.226062 g / cm^3
# Si number density = 22.311398 Si / 1000 Ang^3
#
#
#
# Elastic Constant Matrix: (Units=GPa)
#
#
# Indices 1 2 3 4 5 6 
#
# 1 183.1434 54.2524 48.8226 0.0000 0.0000 0.0000
# 2 54.2524 70.6176 22.7109 0.0000 0.0000 0.0000
# 3 48.8226 22.7109 113.4174 0.0000 0.0000 0.0000
# 4 0.0000 0.0000 0.0000 22.5198 0.0000 0.0000
# 5 0.0000 0.0000 0.0000 0.0000 31.3637 0.0000
# 6 0.0000 0.0000 0.0000 0.0000 0.0000 13.8259
#
#
#
# Elastic Compliance Matrix: (Units=1/GPa)
#
#
# Indices 1 2 3 4 5 6 
#
# 1 0.007565 -0.005093 -0.002237 0.000000 0.000000 0.000000
# 2 -0.005093 0.018564 -0.001525 0.000000 0.000000 0.000000
# 3 -0.002237 -0.001525 0.010085 0.000000 0.000000 0.000000
# 4 0.000000 0.000000 0.000000 0.044405 0.000000 0.000000
# 5 0.000000 0.000000 0.000000 0.000000 0.031884 0.000000
# 6 0.000000 0.000000 0.000000 0.000000 0.000000 0.072328
#
#
# Mechanical properties :
#
#
# Convention : Reuss Voigt Hill
#
# Bulk Modulus (GPa) = 54.03890 68.75002 61.39446
# Shear Modulus (GPa) = 23.95686 29.63471 26.79578
#
# Velocity S-wave (km/s) = 3.28037 3.64845 3.46929
# Velocity P-wave (km/s) = 6.21455 6.97345 6.60491
#
# Compressibility (1/GPa) = 0.01850519
#
# Stress axis : x y z
#
# Youngs Moduli (GPa) = 132.18704 53.86883 99.15494
#
# Poissons Ratio (x) = 0.27433 0.22179
# Poissons Ratio (y) = 0.67317 0.15122
# Poissons Ratio (z) = 0.29567 0.08215
#
# Static dielectric constant tensor:
#      x y z
#    x 2.057120 0.000000 0.000000 
#    y 0.000000 1.830390 0.000000 
#    z 0.000000 0.000000 1.854180 
# 
# From -- ./inp_files/1499.got.cif
#   From: 2010.05.17/outbox.cif.g08.bks.cpg/sg62_1_cif.got.tgz:1499.got - 2010.06.03 15:25:27.
