data_PCOD9465952
_publ_section_title
;
Structure prediction by ZEFSAII (Michael W. Deem and Ramdas Pophale) SiO2 
 PCOD9465952
Probable space group: P N M A
;
_chemical_formula_sum "Si O2"
_cell_formula_units_Z 56
_cell_length_a 16.606465
_cell_length_b 27.538154
_cell_length_c 5.471307
_cell_angle_alpha 90.000000
_cell_angle_beta 90.000000
_cell_angle_gamma 90.000000
_cell_volume 2502.091012
_symmetry_space_group_name_H-M "P N M A"
_symmetry_group_IT_number 62
_symmetry_cell_setting 'orthorhombic'
loop_
_space_group_symop_operation_xyz
x,y,z
1/2-x,-y,1/2+z
1/2+x,1/2-y,1/2-z
-x,1/2+y,-z
-x,-y,-z
1/2+x,y,1/2-z
1/2-x,1/2+y,1/2+z
x,1/2-y,z
loop_
_atom_site_type_symbol
_atom_site_label
_atom_site_fract_x
_atom_site_fract_y
_atom_site_fract_z
Si Si1 0.345528 0.355572 0.749879
Si Si2 0.523771 0.971402 0.750002
Si Si3 0.404982 0.158118 0.249870
Si Si4 0.784367 0.250000 0.250189
Si Si5 0.339869 0.615696 0.250003
Si Si6 0.570460 0.368119 0.249999
Si Si7 0.284380 0.250000 0.749814
Si Si8 0.697373 0.004473 0.750011
O O1 0.388364 0.370029 0.501493
O O2 0.254165 0.372108 0.750009
O O3 0.340762 0.296978 0.749820
O O4 0.388423 0.370022 0.998185
O O5 0.474800 0.920700 0.749999
O O6 0.500000 0.000000 0.500000
O O7 0.621228 0.968637 0.750020
O O8 0.500000 0.000000 0.000000
O O9 0.341912 0.202793 0.249812
O O10 0.498573 0.170959 0.249982
O O11 0.735760 0.250000 0.500159
O O12 0.735762 0.250000 0.000216
O O13 0.378816 0.634670 0.500975
O O14 0.343019 0.557544 0.250003
O O15 0.378809 0.634669 0.999016
O O16 0.750000 0.999998 0.500011
#
# Coordination Sequence:
#
# PCOD9465952 Si02
#       8
#     8   8   8   4   8   8   4   8
#     4  10  21  38  62  88 117 152 197 241 284 341
#     4  12  23  44  62  82 115 162 193 230 292 359
#     4  10  21  38  63  90 113 157 197 239 282 350
#     4   8  16  34  58  86 118 142 194 242 280 328
#     4  12  25  42  57  88 125 152 188 249 296 340
#     4  12  24  41  60  86 121 156 192 235 298 350
#     4   8  16  34  58  84 114 152 188 232 290 342
#     4  12  26  41  62  87 115 150 200 247 289 335
#
# _framework density 22.38128
#
# number of rings (size 3 to 8) (size 9 to 14) (size 15 to 20)
#    0.000    1.143    2.857    3.429    4.000    0.000 
#    0.000    1.429    0.000    0.000    0.000    0.000 
#    0.000    0.000    0.000    0.000    0.000    0.000 
#
# Total GULP energy -312701.961555 kJ/mol
# GULP energy per Si atom -5583.963599 kJ/mol
# Density = 2.233034 g / cm^3
# Si number density = 22.381280 Si / 1000 Ang^3
#
#
#
# Elastic Constant Matrix: (Units=GPa)
#
#
# Indices 1 2 3 4 5 6 
#
# 1 62.1358 -30.6031 48.7800 0.0000 0.0000 0.0000
# 2 -30.6031 41.0808 -9.1130 0.0000 0.0000 0.0000
# 3 48.7800 -9.1130 265.4946 0.0000 0.0000 0.0000
# 4 0.0000 0.0000 0.0000 -2.8133 0.0000 0.0000
# 5 0.0000 0.0000 0.0000 0.0000 59.9572 0.0000
# 6 0.0000 0.0000 0.0000 0.0000 0.0000 7.0485
#
#
#
# Elastic Compliance Matrix: (Units=1/GPa)
#
#
# Indices 1 2 3 4 5 6 
#
# 1 0.030632 0.021736 -0.004882 0.000000 0.000000 0.000000
# 2 0.021736 0.039953 -0.002622 0.000000 0.000000 0.000000
# 3 -0.004882 -0.002622 0.004574 0.000000 0.000000 0.000000
# 4 0.000000 0.000000 0.000000 -0.355453 0.000000 0.000000
# 5 0.000000 0.000000 0.000000 0.000000 0.016679 0.000000
# 6 0.000000 0.000000 0.000000 0.000000 0.000000 0.141874
#
#
# Mechanical properties :
#
#
# Convention : Reuss Voigt Hill
#
# Bulk Modulus (GPa) = 9.65045 42.98213 26.31629
# Shear Modulus (GPa) = -43.22821 36.81496 -3.20663
#
# Velocity S-wave (km/s) = -4.39959 4.06014 -1.19826
# Velocity P-wave (km/s) = 4.63544 6.42073 3.14154
#
# Compressibility (1/GPa) = 0.10362208
#
# Stress axis : x y z
#
# Youngs Moduli (GPa) = 32.64572 25.02950 218.64967
#
# Poissons Ratio (x) = -0.54405 1.06745
# Poissons Ratio (y) = -0.70959 0.57336
# Poissons Ratio (z) = 0.15938 0.06563
#
# Static dielectric constant tensor:
#      x y z
#    x 1.796530 0.000000 0.000000 
#    y 0.000000 1.966100 0.000000 
#    z 0.000000 0.000000 1.847710 
# 
# From -- ./inp_files/1299.got.cif
#   From: 2010.05.17/outbox.cif.g08.bks.cpg/sg62_1_cif.got.tgz:1299.got - 2010.06.03 15:25:27.
