data_PCOD9465794
_publ_section_title
;
Structure prediction by ZEFSAII (Michael W. Deem and Ramdas Pophale) SiO2 
 PCOD9465794
Probable space group: P N M A
;
_chemical_formula_sum "Si O2"
_cell_formula_units_Z 56
_cell_length_a 19.889973
_cell_length_b 8.984943
_cell_length_c 16.471051
_cell_angle_alpha 90.000000
_cell_angle_beta 90.000000
_cell_angle_gamma 90.000000
_cell_volume 2943.546032
_symmetry_space_group_name_H-M "P N M A"
_symmetry_group_IT_number 62
_symmetry_cell_setting 'orthorhombic'
loop_
_space_group_symop_operation_xyz
x,y,z
1/2-x,-y,1/2+z
1/2+x,1/2-y,1/2-z
-x,1/2+y,-z
-x,-y,-z
1/2+x,y,1/2-z
1/2-x,1/2+y,1/2+z
x,1/2-y,z
loop_
_atom_site_type_symbol
_atom_site_label
_atom_site_fract_x
_atom_site_fract_y
_atom_site_fract_z
Si Si1 0.687109 0.073544 0.819832
Si Si2 0.894718 0.072843 0.173662
Si Si3 0.331426 0.572348 0.484137
Si Si4 0.176711 0.574250 0.508918
Si Si5 0.655440 0.927335 0.342178
Si Si6 0.964725 0.572735 0.746165
Si Si7 0.039246 0.926962 0.425388
O O1 0.675810 0.250000 0.812429
O O2 0.767355 0.044880 0.815862
O O3 0.648579 0.988660 0.748966
O O4 0.664863 0.017381 0.908761
O O5 0.885629 0.250000 0.166863
O O6 0.972556 0.042788 0.194475
O O7 0.870570 0.994383 0.091778
O O8 0.340217 0.750000 0.488139
O O9 0.251304 0.541053 0.476338
O O10 0.353176 0.498467 0.568796
O O11 0.174922 0.750000 0.530151
O O12 0.118276 0.547574 0.444143
O O13 0.645808 0.750000 0.345820
O O14 0.602361 0.999943 0.281721
O O15 0.957049 0.750000 0.738383
O O16 0.980276 0.502452 0.658790
O O17 0.027217 0.750000 0.422540
O O18 0.000000 0.000000 0.500000
#
# Coordination Sequence:
#
# PCOD9465794 Si02
#       7
#     8   8   8   8   8   8   8
#     4  10  21  37  61  90 120 154 197 246 297 356
#     4  11  24  40  59  86 121 158 200 248 299 356
#     4  10  21  39  63  89 117 153 200 249 301 357
#     4   9  20  38  59  85 118 153 192 243 297 352
#     4  10  22  41  63  89 121 156 199 250 304 360
#     4  11  25  42  60  87 121 161 205 248 301 361
#     4  11  23  39  60  88 124 161 200 248 300 359
#
# _framework density 19.024673
#
# number of rings (size 3 to 8) (size 9 to 14) (size 15 to 20)
#    0.000    1.714    0.000    3.429    2.000    9.714 
#    0.000    0.000    0.000    0.000    0.000    0.000 
#    0.000    0.000    0.000    0.000    0.000    0.000 
#
# Total GULP energy -313097.992397 kJ/mol
# GULP energy per Si atom -5591.035579 kJ/mol
# Density = 1.898137 g / cm^3
# Si number density = 19.024673 Si / 1000 Ang^3
#
#
#
# Elastic Constant Matrix: (Units=GPa)
#
#
# Indices 1 2 3 4 5 6 
#
# 1 39.3018 31.0127 10.9895 0.0000 0.0000 0.0000
# 2 31.0127 53.3752 12.7890 0.0000 0.0000 0.0000
# 3 10.9895 12.7890 27.5513 0.0000 0.0000 0.0000
# 4 0.0000 0.0000 0.0000 39.3549 0.0000 0.0000
# 5 0.0000 0.0000 0.0000 0.0000 33.3137 0.0000
# 6 0.0000 0.0000 0.0000 0.0000 0.0000 31.2063
#
#
#
# Elastic Compliance Matrix: (Units=1/GPa)
#
#
# Indices 1 2 3 4 5 6 
#
# 1 0.048158 -0.026304 -0.006999 0.000000 0.000000 0.000000
# 2 -0.026304 0.035448 -0.005962 0.000000 0.000000 0.000000
# 3 -0.006999 -0.005962 0.041855 0.000000 0.000000 0.000000
# 4 0.000000 0.000000 0.000000 0.025410 0.000000 0.000000
# 5 0.000000 0.000000 0.000000 0.000000 0.030018 0.000000
# 6 0.000000 0.000000 0.000000 0.000000 0.000000 0.032045
#
#
# Mechanical properties :
#
#
# Convention : Reuss Voigt Hill
#
# Bulk Modulus (GPa) = 21.30835 25.53451 23.42143
# Shear Modulus (GPa) = 16.28102 25.13746 20.70924
#
# Velocity S-wave (km/s) = 2.92855 3.63892 3.30289
# Velocity P-wave (km/s) = 4.76024 5.57733 5.18491
#
# Compressibility (1/GPa) = 0.04692996
#
# Stress axis : x y z
#
# Youngs Moduli (GPa) = 20.76518 28.21071 23.89190
#
# Poissons Ratio (x) = 0.74206 0.16721
# Poissons Ratio (y) = 0.54621 0.14245
# Poissons Ratio (z) = 0.14533 0.16820
#
# Static dielectric constant tensor:
#      x y z
#    x 1.665530 0.000000 0.000000 
#    y 0.000000 1.629750 0.000000 
#    z 0.000000 0.000000 1.618080 
# 
# From -- ./inp_files/20381.got.cif
#   From: 2010.05.17/outbox.cif.g08.bks.cpg/sg62_11_cif.got.tgz:20381.got - 2010.06.03 15:25:27.
