data_PCOD9465027
_publ_section_title
;
Structure prediction by ZEFSAII (Michael W. Deem and Ramdas Pophale) SiO2 
 PCOD9465027
Probable space group: P N M A
;
_chemical_formula_sum "Si O2"
_cell_formula_units_Z 64
_cell_length_a 14.005339
_cell_length_b 19.108601
_cell_length_c 12.177635
_cell_angle_alpha 90.000000
_cell_angle_beta 90.000000
_cell_angle_gamma 90.000000
_cell_volume 3259.008329
_symmetry_space_group_name_H-M "P N M A"
_symmetry_group_IT_number 62
_symmetry_cell_setting 'orthorhombic'
loop_
_space_group_symop_operation_xyz
x,y,z
1/2-x,-y,1/2+z
1/2+x,1/2-y,1/2-z
-x,1/2+y,-z
-x,-y,-z
1/2+x,y,1/2-z
1/2-x,1/2+y,1/2+z
x,1/2-y,z
loop_
_atom_site_type_symbol
_atom_site_label
_atom_site_fract_x
_atom_site_fract_y
_atom_site_fract_z
Si Si1 0.784422 0.330542 0.225624
Si Si2 0.367025 0.593948 0.909480
Si Si3 0.939673 0.666289 0.375505
Si Si4 0.989376 0.506896 0.129850
Si Si5 0.323669 0.826728 0.567409
Si Si6 0.828183 0.890395 0.171743
Si Si7 0.387958 0.064312 0.814777
Si Si8 0.495431 0.853361 0.721219
O O1 0.747647 0.250000 0.213605
O O2 0.735948 0.380534 0.135663
O O3 0.747928 0.359672 0.343342
O O4 0.897881 0.325957 0.224431
O O5 0.384375 0.510887 0.881914
O O6 0.442208 0.639931 0.837306
O O7 0.382823 0.621560 0.032199
O O8 0.950993 0.750000 0.399360
O O9 0.879622 0.657981 0.262190
O O10 0.039271 0.622615 0.363717
O O11 0.890141 0.539358 0.168985
O O12 0.995262 0.431468 0.179956
O O13 0.072379 0.549341 0.192254
O O14 0.000000 0.500000 0.000000
O O15 0.284478 0.750000 0.543239
O O16 0.337139 0.863221 0.452473
O O17 0.422972 0.821531 0.632995
O O18 0.717950 0.905484 0.192563
#
# Coordination Sequence:
#
# PCOD9465027 Si02
#       8
#     8   8   8   8   8   8   8   8
#     4  10  21  36  60  94 123 163 209 259 327 381
#     4  10  22  43  62  94 128 162 212 271 318 375
#     4  11  25  44  64  91 132 173 212 265 324 391
#     4  10  20  40  63  90 126 160 208 265 325 372
#     4  10  21  37  57  86 123 157 203 259 310 375
#     4  11  23  41  62  91 125 167 212 261 314 390
#     4  10  24  41  66  97 122 169 221 264 322 390
#     4  10  20  37  63  88 122 160 204 261 320 376
#
# _framework density 19.637875999999999
#
# number of rings (size 3 to 8) (size 9 to 14) (size 15 to 20)
#    0.000    1.750    1.250    2.250    1.750    4.500 
#    0.000    0.000    0.000    0.000    0.000    0.000 
#    0.000    0.000    0.000    0.000    0.000    0.000 
#
# Total GULP energy -356699.580950 kJ/mol
# GULP energy per Si atom -5573.430952 kJ/mol
# Density = 1.959318 g / cm^3
# Si number density = 19.637876 Si / 1000 Ang^3
#
#
#
# Elastic Constant Matrix: (Units=GPa)
#
#
# Indices 1 2 3 4 5 6 
#
# 1 138.3972 23.0429 31.0477 0.0000 0.0000 0.0000
# 2 23.0429 70.9229 7.9313 0.0000 0.0000 0.0000
# 3 31.0477 7.9313 86.2821 0.0000 0.0000 0.0000
# 4 0.0000 0.0000 0.0000 22.1091 0.0000 0.0000
# 5 0.0000 0.0000 0.0000 0.0000 5.9339 0.0000
# 6 0.0000 0.0000 0.0000 0.0000 0.0000 23.5101
#
#
#
# Elastic Compliance Matrix: (Units=1/GPa)
#
#
# Indices 1 2 3 4 5 6 
#
# 1 0.008236 -0.002369 -0.002746 0.000000 0.000000 0.000000
# 2 -0.002369 0.014928 -0.000520 0.000000 0.000000 0.000000
# 3 -0.002746 -0.000520 0.012626 0.000000 0.000000 0.000000
# 4 0.000000 0.000000 0.000000 0.045230 0.000000 0.000000
# 5 0.000000 0.000000 0.000000 0.000000 0.168522 0.000000
# 6 0.000000 0.000000 0.000000 0.000000 0.000000 0.042535
#
#
# Mechanical properties :
#
#
# Convention : Reuss Voigt Hill
#
# Bulk Modulus (GPa) = 40.78248 46.62734 43.70491
# Shear Modulus (GPa) = 16.05038 25.88264 20.96651
#
# Velocity S-wave (km/s) = 2.86198 3.63436 3.27105
# Velocity P-wave (km/s) = 5.63326 6.43479 6.04732
#
# Compressibility (1/GPa) = 0.02452033
#
# Stress axis : x y z
#
# Youngs Moduli (GPa) = 121.41829 66.99007 79.20322
#
# Poissons Ratio (x) = 0.15869 0.21748
# Poissons Ratio (y) = 0.28762 0.04117
# Poissons Ratio (z) = 0.33340 0.03482
#
# Static dielectric constant tensor:
#      x y z
#    x 1.698390 0.000000 0.000000 
#    y 0.000000 1.706840 0.000000 
#    z 0.000000 0.000000 1.762730 
# 
# From -- ./inp_files/13576.got.cif
#   From: 2010.05.17/outbox.cif.g08.bks.cpg/sg62_7_cif.got.tgz:13576.got - 2010.06.03 15:25:27.
