data_PCOD9465225
_publ_section_title
;
Structure prediction by ZEFSAII (Michael W. Deem and Ramdas Pophale) SiO2 
 PCOD9465225
Probable space group: P N M A
;
_chemical_formula_sum "Si O2"
_cell_formula_units_Z 56
_cell_length_a 15.977516
_cell_length_b 11.706988
_cell_length_c 14.828755
_cell_angle_alpha 90.000000
_cell_angle_beta 90.000000
_cell_angle_gamma 90.000000
_cell_volume 2773.697686
_symmetry_space_group_name_H-M "P N M A"
_symmetry_group_IT_number 62
_symmetry_cell_setting 'orthorhombic'
loop_
_space_group_symop_operation_xyz
x,y,z
1/2-x,-y,1/2+z
1/2+x,1/2-y,1/2-z
-x,1/2+y,-z
-x,-y,-z
1/2+x,y,1/2-z
1/2-x,1/2+y,1/2+z
x,1/2-y,z
loop_
_atom_site_type_symbol
_atom_site_label
_atom_site_fract_x
_atom_site_fract_y
_atom_site_fract_z
Si Si1 0.967722 0.383300 0.902682
Si Si2 0.371069 0.383737 0.770988
Si Si3 0.194753 0.117605 0.684683
Si Si4 0.228086 0.375470 0.475241
Si Si5 0.905472 0.378184 0.286055
Si Si6 0.449139 0.953115 0.914174
Si Si7 0.111093 0.962573 0.908629
O O1 0.957631 0.250000 0.897618
O O2 0.917480 0.433635 0.817730
O O3 0.064405 0.418057 0.893433
O O4 0.929195 0.419488 0.997991
O O5 0.389791 0.250000 0.778087
O O6 0.272414 0.394053 0.752716
O O7 0.408463 0.444733 0.857183
O O8 0.159455 0.250000 0.694481
O O9 0.231198 0.114169 0.582976
O O10 0.140491 0.000980 0.692971
O O11 0.260816 0.250000 0.450079
O O12 0.131617 0.384593 0.448130
O O13 0.290058 0.462211 0.425740
O O14 0.868268 0.250000 0.305329
O O15 0.913672 0.387162 0.177823
O O16 0.989072 0.387173 0.346363
O O17 0.500000 0.000000 0.000000
#
# Coordination Sequence:
#
# PCOD9465225 Si02
#       7
#     8   8   8   8   8   8   8
#     4  10  20  38  66  96 127 163 215 279 335 394
#     4  10  21  41  70  97 125 169 229 282 328 392
#     4  10  22  43  70  97 128 175 229 276 329 395
#     4  11  22  41  67  90 125 178 224 265 328 406
#     4  12  25  42  64  97 137 177 222 276 339 404
#     4  12  25  43  63  95 137 178 222 272 334 399
#     4  11  22  39  66  96 130 169 215 269 339 405
#
# _framework density 20.189655999999999
#
# number of rings (size 3 to 8) (size 9 to 14) (size 15 to 20)
#    0.000    1.143    4.286    2.571    0.000    2.286 
#    0.000    2.143    0.000    0.000    0.000    0.000 
#    0.000    0.000    0.000    0.000    0.000    0.000 
#
# Total GULP energy -312142.323457 kJ/mol
# GULP energy per Si atom -5573.970062 kJ/mol
# Density = 2.014370 g / cm^3
# Si number density = 20.189656 Si / 1000 Ang^3
#
#
#
# Elastic Constant Matrix: (Units=GPa)
#
#
# Indices 1 2 3 4 5 6 
#
# 1 80.4005 25.3280 32.7700 0.0000 0.0000 0.0000
# 2 25.3280 82.6816 28.6416 0.0000 0.0000 0.0000
# 3 32.7700 28.6416 114.4349 0.0000 0.0000 0.0000
# 4 0.0000 0.0000 0.0000 17.3471 0.0000 0.0000
# 5 0.0000 0.0000 0.0000 0.0000 35.4074 0.0000
# 6 0.0000 0.0000 0.0000 0.0000 0.0000 26.2762
#
#
#
# Elastic Compliance Matrix: (Units=1/GPa)
#
#
# Indices 1 2 3 4 5 6 
#
# 1 0.014896 -0.003378 -0.003420 0.000000 0.000000 0.000000
# 2 -0.003378 0.014009 -0.002539 0.000000 0.000000 0.000000
# 3 -0.003420 -0.002539 0.010353 0.000000 0.000000 0.000000
# 4 0.000000 0.000000 0.000000 0.057646 0.000000 0.000000
# 5 0.000000 0.000000 0.000000 0.000000 0.028243 0.000000
# 6 0.000000 0.000000 0.000000 0.000000 0.000000 0.038057
#
#
# Mechanical properties :
#
#
# Convention : Reuss Voigt Hill
#
# Bulk Modulus (GPa) = 48.58194 50.11068 49.34631
# Shear Modulus (GPa) = 26.49139 28.52464 27.50802
#
# Velocity S-wave (km/s) = 3.62626 3.76285 3.69518
# Velocity P-wave (km/s) = 6.45353 6.61457 6.53455
#
# Compressibility (1/GPa) = 0.02058378
#
# Stress axis : x y z
#
# Youngs Moduli (GPa) = 67.13227 71.38293 96.58640
#
# Poissons Ratio (x) = 0.24116 0.33034
# Poissons Ratio (y) = 0.22680 0.24522
# Poissons Ratio (z) = 0.22960 0.18123
#
# Static dielectric constant tensor:
#      x y z
#    x 1.742680 0.000000 0.000000 
#    y 0.000000 1.729890 0.000000 
#    z 0.000000 0.000000 1.718090 
# 
# From -- ./inp_files/18983.got.cif
#   From: 2010.05.17/outbox.cif.g08.bks.cpg/sg62_10_cif.got.tgz:18983.got - 2010.06.03 15:25:27.
