data_PCOD9465578
_publ_section_title
;
Structure prediction by ZEFSAII (Michael W. Deem and Ramdas Pophale) SiO2 
 PCOD9465578
Probable space group: P N M A
;
_chemical_formula_sum "Si O2"
_cell_formula_units_Z 48
_cell_length_a 11.387356
_cell_length_b 15.982540
_cell_length_c 12.270393
_cell_angle_alpha 90.000000
_cell_angle_beta 90.000000
_cell_angle_gamma 90.000000
_cell_volume 2233.197694
_symmetry_space_group_name_H-M "P N M A"
_symmetry_group_IT_number 62
_symmetry_cell_setting 'orthorhombic'
loop_
_space_group_symop_operation_xyz
x,y,z
1/2-x,-y,1/2+z
1/2+x,1/2-y,1/2-z
-x,1/2+y,-z
-x,-y,-z
1/2+x,y,1/2-z
1/2-x,1/2+y,1/2+z
x,1/2-y,z
loop_
_atom_site_type_symbol
_atom_site_label
_atom_site_fract_x
_atom_site_fract_y
_atom_site_fract_z
Si Si1 0.339282 0.750000 0.279668
Si Si2 0.110386 0.404739 0.936532
Si Si3 0.661375 0.750000 0.730930
Si Si4 0.947930 0.411731 0.132282
Si Si5 0.405578 0.750000 0.839692
Si Si6 0.935866 0.927558 0.642998
Si Si7 0.079392 0.750000 0.352006
Si Si8 0.858178 0.083827 0.515981
O O1 0.367694 0.667679 0.350372
O O2 0.194556 0.750000 0.268301
O O3 0.445180 0.750000 0.191324
O O4 0.100713 0.494671 0.879291
O O5 0.223748 0.404930 0.014166
O O6 0.000366 0.390444 0.014284
O O7 0.636791 0.663445 0.667185
O O8 0.546014 0.750000 0.810452
O O9 0.801987 0.750000 0.753511
O O10 0.045315 0.418206 0.228291
O O11 0.388417 0.661714 0.899026
O O12 0.063502 0.937593 0.587599
O O13 0.866911 0.007708 0.601814
O O14 0.097799 0.667466 0.424923
#
# Coordination Sequence:
#
# PCOD9465578 Si02
#       8
#     4   8   4   8   4   8   4   8
#     4  10  21  40  63  88 119 154 194 238 288 344
#     4  10  21  37  58  85 117 154 196 240 289 347
#     4  10  21  36  56  82 112 146 186 232 284 342
#     4  10  21  37  58  84 116 152 195 241 291 345
#     4  10  21  36  56  82 112 146 186 232 284 342
#     4  10  21  37  58  84 116 152 195 241 291 345
#     4  10  21  40  63  88 119 154 194 238 288 344
#     4  10  21  37  58  85 117 154 196 240 289 347
#
# _framework density 21.493843999999999
#
# number of rings (size 3 to 8) (size 9 to 14) (size 15 to 20)
#    0.000    2.000    0.000    3.000    0.000    6.667 
#    0.000   15.000    0.000    0.000    0.000    0.000 
#    0.000    0.000    0.000    0.000    0.000    0.000 
#
# Total GULP energy -267388.453978 kJ/mol
# GULP energy per Si atom -5570.592791 kJ/mol
# Density = 2.144492 g / cm^3
# Si number density = 21.493844 Si / 1000 Ang^3
#
#
#
# Elastic Constant Matrix: (Units=GPa)
#
#
# Indices 1 2 3 4 5 6 
#
# 1 72.4016 0.2515 5.5937 0.0000 0.0000 0.0000
# 2 0.2515 67.8327 14.3620 0.0000 0.0000 0.0000
# 3 5.5937 14.3620 36.0281 0.0000 0.0000 0.0000
# 4 0.0000 0.0000 0.0000 16.5314 0.0000 0.0000
# 5 0.0000 0.0000 0.0000 0.0000 17.7805 0.0000
# 6 0.0000 0.0000 0.0000 0.0000 0.0000 60.6162
#
#
#
# Elastic Compliance Matrix: (Units=1/GPa)
#
#
# Indices 1 2 3 4 5 6 
#
# 1 0.013992 0.000446 -0.002350 0.000000 0.000000 0.000000
# 2 0.000446 0.016115 -0.006493 0.000000 0.000000 0.000000
# 3 -0.002350 -0.006493 0.030709 0.000000 0.000000 0.000000
# 4 0.000000 0.000000 0.000000 0.060491 0.000000 0.000000
# 5 0.000000 0.000000 0.000000 0.000000 0.056241 0.000000
# 6 0.000000 0.000000 0.000000 0.000000 0.000000 0.016497
#
#
# Mechanical properties :
#
#
# Convention : Reuss Voigt Hill
#
# Bulk Modulus (GPa) = 22.71628 24.07521 23.39574
# Shear Modulus (GPa) = 22.17147 29.38931 25.78039
#
# Velocity S-wave (km/s) = 3.21522 3.70176 3.46704
# Velocity P-wave (km/s) = 4.93713 5.43102 5.18995
#
# Compressibility (1/GPa) = 0.04402129
#
# Stress axis : x y z
#
# Youngs Moduli (GPa) = 71.47009 62.05289 32.56333
#
# Poissons Ratio (x) = -0.02766 0.07653
# Poissons Ratio (y) = -0.03185 0.21144
# Poissons Ratio (z) = 0.16796 0.40293
#
# Static dielectric constant tensor:
#      x y z
#    x 1.854600 0.000000 0.000000 
#    y 0.000000 1.793430 0.000000 
#    z 0.000000 0.000000 1.783430 
# 
# From -- ./inp_files/12304.got.cif
#   From: 2010.05.17/outbox.cif.g08.bks.cpg/sg62_7_cif.got.tgz:12304.got - 2010.06.03 15:25:27.
