data_PCOD9465384
_publ_section_title
;
Structure prediction by ZEFSAII (Michael W. Deem and Ramdas Pophale) SiO2 
 PCOD9465384
Probable space group: P N M A
;
_chemical_formula_sum "Si O2"
_cell_formula_units_Z 36
_cell_length_a 5.331021
_cell_length_b 13.427390
_cell_length_c 24.303096
_cell_angle_alpha 90.000000
_cell_angle_beta 90.000000
_cell_angle_gamma 90.000000
_cell_volume 1739.656880
_symmetry_space_group_name_H-M "P N M A"
_symmetry_group_IT_number 62
_symmetry_cell_setting 'orthorhombic'
loop_
_space_group_symop_operation_xyz
x,y,z
1/2-x,-y,1/2+z
1/2+x,1/2-y,1/2-z
-x,1/2+y,-z
-x,-y,-z
1/2+x,y,1/2-z
1/2-x,1/2+y,1/2+z
x,1/2-y,z
loop_
_atom_site_type_symbol
_atom_site_label
_atom_site_fract_x
_atom_site_fract_y
_atom_site_fract_z
Si Si1 0.292711 0.250000 0.784170
Si Si2 0.572848 0.428374 0.646640
Si Si3 0.265270 0.250000 0.607463
Si Si4 0.749843 0.954570 0.022544
Si Si5 0.006419 0.634968 0.787499
Si Si6 0.235432 0.750000 0.465141
O O1 0.571258 0.250000 0.760783
O O2 0.242792 0.147985 0.817735
O O3 0.328212 0.355534 0.637480
O O4 0.711802 0.446611 0.588278
O O5 0.517524 0.536056 0.673603
O O6 0.495712 0.250000 0.564353
O O7 0.998635 0.250000 0.577344
O O8 0.727479 0.845138 0.998428
O O9 0.500000 0.000000 0.000000
O O10 0.000000 0.000000 0.000000
O O11 0.752059 0.627955 0.751542
O O12 0.010462 0.750000 0.811186
#
# Coordination Sequence:
#
# PCOD9465384 Si02
#       6
#     4   8   4   8   8   4
#     4  11  24  39  66 104 126 164 210 262 348 414
#     4  10  22  40  64  92 133 160 214 273 318 393
#     4   9  20  34  62  89 118 164 192 255 341 368
#     4  11  24  41  63  93 126 176 219 260 329 382
#     4  10  22  40  61  86 122 167 208 259 322 377
#     4  10  20  41  60  85 124 160 208 265 313 370
#
# _framework density 20.693735
#
# number of rings (size 3 to 8) (size 9 to 14) (size 15 to 20)
#    0.000    1.778    0.000    4.667    0.000   14.222 
#    4.000    0.000    0.000    0.000    0.000    0.000 
#    0.000    0.000    0.000    0.000    0.000    0.000 
#
# Total GULP energy -200560.700981 kJ/mol
# GULP energy per Si atom -5571.130583 kJ/mol
# Density = 2.064664 g / cm^3
# Si number density = 20.693735 Si / 1000 Ang^3
#
#
#
# Elastic Constant Matrix: (Units=GPa)
#
#
# Indices 1 2 3 4 5 6 
#
# 1 147.9437 51.5110 33.2712 0.0000 0.0000 0.0000
# 2 51.5110 222.6342 45.8120 0.0000 0.0000 0.0000
# 3 33.2712 45.8120 58.4128 0.0000 0.0000 0.0000
# 4 0.0000 0.0000 0.0000 46.5506 0.0000 0.0000
# 5 0.0000 0.0000 0.0000 0.0000 26.6506 0.0000
# 6 0.0000 0.0000 0.0000 0.0000 0.0000 19.7453
#
#
#
# Elastic Compliance Matrix: (Units=1/GPa)
#
#
# Indices 1 2 3 4 5 6 
#
# 1 0.007966 -0.001084 -0.003687 0.000000 0.000000 0.000000
# 2 -0.001084 0.005504 -0.003699 0.000000 0.000000 0.000000
# 3 -0.003687 -0.003699 0.022120 0.000000 0.000000 0.000000
# 4 0.000000 0.000000 0.000000 0.021482 0.000000 0.000000
# 5 0.000000 0.000000 0.000000 0.000000 0.037523 0.000000
# 6 0.000000 0.000000 0.000000 0.000000 0.000000 0.050645
#
#
# Mechanical properties :
#
#
# Convention : Reuss Voigt Hill
#
# Bulk Modulus (GPa) = 53.61926 76.68656 65.15291
# Shear Modulus (GPa) = 29.69187 38.48241 34.08714
#
# Velocity S-wave (km/s) = 3.79202 4.31701 4.06300
# Velocity P-wave (km/s) = 6.71860 7.87318 7.31870
#
# Compressibility (1/GPa) = 0.01865001
#
# Stress axis : x y z
#
# Youngs Moduli (GPa) = 125.53274 181.69654 45.20729
#
# Poissons Ratio (x) = 0.19704 0.16667
# Poissons Ratio (y) = 0.13614 0.16721
# Poissons Ratio (z) = 0.46282 0.67205
#
# Static dielectric constant tensor:
#      x y z
#    x 1.721650 0.000000 0.000000 
#    y 0.000000 1.924640 0.000000 
#    z 0.000000 0.000000 1.792140 
# 
# From -- ./inp_files/28181.got.cif
#   From: 2010.05.17/outbox.cif.g08.bks.cpg/sg62_15_cif.got.tgz:28181.got - 2010.06.03 15:25:27.
