data_PCOD9465061
_publ_section_title
;
Structure prediction by ZEFSAII (Michael W. Deem and Ramdas Pophale) SiO2 
 PCOD9465061
Probable space group: P N M A
;
_chemical_formula_sum "Si O2"
_cell_formula_units_Z 40
_cell_length_a 17.989979
_cell_length_b 9.828070
_cell_length_c 11.455741
_cell_angle_alpha 90.000000
_cell_angle_beta 90.000000
_cell_angle_gamma 90.000000
_cell_volume 2025.452598
_symmetry_space_group_name_H-M "P N M A"
_symmetry_group_IT_number 62
_symmetry_cell_setting 'orthorhombic'
loop_
_space_group_symop_operation_xyz
x,y,z
1/2-x,-y,1/2+z
1/2+x,1/2-y,1/2-z
-x,1/2+y,-z
-x,-y,-z
1/2+x,y,1/2-z
1/2-x,1/2+y,1/2+z
x,1/2-y,z
loop_
_atom_site_type_symbol
_atom_site_label
_atom_site_fract_x
_atom_site_fract_y
_atom_site_fract_z
Si Si1 0.065564 0.028584 0.201873
Si Si2 0.299960 0.967791 0.871839
Si Si3 0.910893 0.250000 0.925324
Si Si4 0.280843 0.750000 0.332895
Si Si5 0.943827 0.250000 0.203172
Si Si6 0.781202 0.250000 0.287607
Si Si7 0.350918 0.750000 0.551255
Si Si8 0.730796 0.250000 0.934527
O O1 0.058837 0.882256 0.142182
O O2 0.118045 0.026523 0.316087
O O3 0.110131 0.120173 0.107509
O O4 0.991851 0.114598 0.227221
O O5 0.249382 0.878903 0.784013
O O6 0.293967 0.883476 0.992180
O O7 0.265652 0.116570 0.866960
O O8 0.928503 0.250000 0.063335
O O9 0.820561 0.250000 0.920720
O O10 0.353483 0.750000 0.413312
O O11 0.798497 0.750000 0.303478
O O12 0.869182 0.250000 0.278997
O O13 0.734981 0.250000 0.406704
#
# Coordination Sequence:
#
# PCOD9465061 Si02
#       8
#     8   8   4   4   4   4   4   4
#     4  10  21  38  58  88 121 161 196 248 307 358
#     4  10  20  38  58  88 121 153 200 250 295 360
#     4  12  19  36  53  91 130 149 200 253 302 355
#     4  12  22  34  64  92 119 157 201 256 301 354
#     4  11  21  35  60  84 119 170 198 236 307 367
#     4   9  20  37  59  84 120 154 193 248 301 352
#     4   9  21  36  58  90 120 148 201 249 304 358
#     4  11  21  36  60  89 124 154 197 246 307 348
#
# _framework density 19.748671000000002
#
# number of rings (size 3 to 8) (size 9 to 14) (size 15 to 20)
#    0.000    1.600    4.000    3.600    2.800    0.000 
#    0.000    0.000    0.000    1.200   10.400    0.000 
#    0.000    0.000    0.000    0.000    0.000    0.000 
#
# Total GULP energy -223399.838633 kJ/mol
# GULP energy per Si atom -5584.995966 kJ/mol
# Density = 1.970372 g / cm^3
# Si number density = 19.748671 Si / 1000 Ang^3
#
#
#
# Elastic Constant Matrix: (Units=GPa)
#
#
# Indices 1 2 3 4 5 6 
#
# 1 53.5981 9.6142 -10.1125 0.0000 0.0000 0.0000
# 2 9.6142 162.7325 26.1286 0.0000 0.0000 0.0000
# 3 -10.1125 26.1286 89.1850 0.0000 0.0000 0.0000
# 4 0.0000 0.0000 0.0000 -8.2058 0.0000 0.0000
# 5 0.0000 0.0000 0.0000 0.0000 17.9413 0.0000
# 6 0.0000 0.0000 0.0000 0.0000 0.0000 76.3460
#
#
#
# Elastic Compliance Matrix: (Units=1/GPa)
#
#
# Indices 1 2 3 4 5 6 
#
# 1 0.019443 -0.001577 0.002667 0.000000 0.000000 0.000000
# 2 -0.001577 0.006576 -0.002105 0.000000 0.000000 0.000000
# 3 0.002667 -0.002105 0.012132 0.000000 0.000000 0.000000
# 4 0.000000 0.000000 0.000000 -0.121865 0.000000 0.000000
# 5 0.000000 0.000000 0.000000 0.000000 0.055737 0.000000
# 6 0.000000 0.000000 0.000000 0.000000 0.000000 0.013098
#
#
# Mechanical properties :
#
#
# Convention : Reuss Voigt Hill
#
# Bulk Modulus (GPa) = 27.68544 39.64180 33.66362
# Shear Modulus (GPa) = -6203.48414 35.87532 -3083.80441
#
# Velocity S-wave (km/s) = -56.10736 4.26678 -39.55901
# Velocity P-wave (km/s) = 64.67868 6.66262 45.49143
#
# Compressibility (1/GPa) = 0.03612007
#
# Stress axis : x y z
#
# Youngs Moduli (GPa) = 51.43147 152.06192 82.42768
#
# Poissons Ratio (x) = 0.23978 -0.21980
# Poissons Ratio (y) = 0.08110 0.17355
# Poissons Ratio (z) = -0.13715 0.32016
#
# Static dielectric constant tensor:
#      x y z
#    x 1.704050 0.000000 0.000000 
#    y 0.000000 1.710240 0.000000 
#    z 0.000000 0.000000 1.705310 
# 
# From -- ./inp_files/18709.got.cif
#   From: 2010.05.17/outbox.cif.g08.bks.cpg/sg62_10_cif.got.tgz:18709.got - 2010.06.03 15:25:27.
