data_PCOD9465002
_publ_section_title
;
Structure prediction by ZEFSAII (Michael W. Deem and Ramdas Pophale) SiO2 
 PCOD9465002
Probable space group: P N M A
;
_chemical_formula_sum "Si O2"
_cell_formula_units_Z 56
_cell_length_a 24.224203
_cell_length_b 13.799526
_cell_length_c 5.981809
_cell_angle_alpha 90.000000
_cell_angle_beta 90.000000
_cell_angle_gamma 90.000000
_cell_volume 1999.614181
_symmetry_space_group_name_H-M "P N M A"
_symmetry_group_IT_number 62
_symmetry_cell_setting 'orthorhombic'
loop_
_space_group_symop_operation_xyz
x,y,z
1/2-x,-y,1/2+z
1/2+x,1/2-y,1/2-z
-x,1/2+y,-z
-x,-y,-z
1/2+x,y,1/2-z
1/2-x,1/2+y,1/2+z
x,1/2-y,z
loop_
_atom_site_type_symbol
_atom_site_label
_atom_site_fract_x
_atom_site_fract_y
_atom_site_fract_z
Si Si1 0.853332 0.250000 0.314234
Si Si2 0.611418 0.357956 0.486317
Si Si3 0.870153 0.060422 0.766514
Si Si4 0.575163 0.461216 0.869374
Si Si5 0.498332 0.364301 0.233350
Si Si6 0.096649 0.750000 0.182291
Si Si7 0.252876 0.611769 0.187708
Si Si8 0.750598 0.382748 0.311375
O O1 0.882808 0.250000 0.554626
O O2 0.811021 0.338371 0.309226
O O3 0.883023 0.250000 0.076831
O O4 0.628624 0.250000 0.415098
O O5 0.636378 0.458321 0.393601
O O6 0.610226 0.378542 0.747284
O O7 0.546514 0.365348 0.417955
O O8 0.920143 0.135573 0.815518
O O9 0.814466 0.122839 0.804001
O O10 0.883199 0.019304 0.525410
O O11 0.546267 0.549740 0.735308
O O12 0.530120 0.402786 0.012370
O O13 0.482765 0.250000 0.207941
O O14 0.272204 0.645167 0.437510
O O15 0.258358 0.496914 0.190472
O O16 0.272737 0.643940 0.938798
#
# Coordination Sequence:
#
# PCOD9465002 Si02
#       8
#     4   8   8   8   8   4   8   8
#     4  12  20  40  64  92 128 179 214 268 333 402
#     4  10  22  41  64  86 122 173 220 265 326 390
#     4  11  24  40  60  94 132 168 208 271 332 402
#     4  10  21  36  64  89 124 166 216 263 331 396
#     4   9  19  38  59  89 122 160 213 271 324 392
#     4  12  26  38  66 100 140 171 212 268 351 398
#     4  10  21  38  60  87 123 167 213 267 313 381
#     4  10  20  37  62  86 118 169 217 261 317 381
#
# _framework density 28.005400999999999
#
# number of rings (size 3 to 8) (size 9 to 14) (size 15 to 20)
#    0.000    1.714    2.857    0.857    5.000    0.571 
#    2.571    0.000    0.000    0.000    0.000    0.000 
#    0.000    0.000    0.000    0.000    0.000    0.000 
#
# Total GULP energy -312155.502864 kJ/mol
# GULP energy per Si atom -5574.205408 kJ/mol
# Density = 2.794166 g / cm^3
# Si number density = 28.005401 Si / 1000 Ang^3
#
#
#
# Elastic Constant Matrix: (Units=GPa)
#
#
# Indices 1 2 3 4 5 6 
#
# 1 62.7176 21.2982 32.4190 0.0000 0.0000 0.0000
# 2 21.2982 198.7300 53.4625 0.0000 0.0000 0.0000
# 3 32.4190 53.4625 220.4632 0.0000 0.0000 0.0000
# 4 0.0000 0.0000 0.0000 72.5712 0.0000 0.0000
# 5 0.0000 0.0000 0.0000 0.0000 42.1976 0.0000
# 6 0.0000 0.0000 0.0000 0.0000 0.0000 48.0806
#
#
#
# Elastic Compliance Matrix: (Units=1/GPa)
#
#
# Indices 1 2 3 4 5 6 
#
# 1 0.017550 -0.001269 -0.002273 0.000000 0.000000 0.000000
# 2 -0.001269 0.005475 -0.001141 0.000000 0.000000 0.000000
# 3 -0.002273 -0.001141 0.005147 0.000000 0.000000 0.000000
# 4 0.000000 0.000000 0.000000 0.013780 0.000000 0.000000
# 5 0.000000 0.000000 0.000000 0.000000 0.023698 0.000000
# 6 0.000000 0.000000 0.000000 0.000000 0.000000 0.020798
#
#
# Mechanical properties :
#
#
# Convention : Reuss Voigt Hill
#
# Bulk Modulus (GPa) = 53.17601 77.36333 65.26967
# Shear Modulus (GPa) = 48.97949 57.55196 53.26572
#
# Velocity S-wave (km/s) = 4.18656 4.53816 4.36590
# Velocity P-wave (km/s) = 6.51143 7.42592 6.98366
#
# Compressibility (1/GPa) = 0.01880547
#
# Stress axis : x y z
#
# Youngs Moduli (GPa) = 56.97853 182.64985 194.29419
#
# Poissons Ratio (x) = 0.23186 0.44162
# Poissons Ratio (y) = 0.07233 0.22169
# Poissons Ratio (z) = 0.12951 0.20841
#
# Static dielectric constant tensor:
#      x y z
#    x 2.388280 0.000000 0.000000 
#    y 0.000000 1.725260 0.000000 
#    z 0.000000 0.000000 2.244290 
# 
# From -- ./inp_files/3630.got.cif
#   From: 2010.05.17/outbox.cif.g08.bks.cpg/sg62_2_cif.got.tgz:3630.got - 2010.06.03 15:25:27.
