data_PCOD9465023
_publ_section_title
;
Structure prediction by ZEFSAII (Michael W. Deem and Ramdas Pophale) SiO2 
 PCOD9465023
Probable space group: P N M A
;
_chemical_formula_sum "Si O2"
_cell_formula_units_Z 56
_cell_length_a 14.873877
_cell_length_b 28.630654
_cell_length_c 5.244103
_cell_angle_alpha 90.000000
_cell_angle_beta 90.000000
_cell_angle_gamma 90.000000
_cell_volume 2233.195106
_symmetry_space_group_name_H-M "P N M A"
_symmetry_group_IT_number 62
_symmetry_cell_setting 'orthorhombic'
loop_
_space_group_symop_operation_xyz
x,y,z
1/2-x,-y,1/2+z
1/2+x,1/2-y,1/2-z
-x,1/2+y,-z
-x,-y,-z
1/2+x,y,1/2-z
1/2-x,1/2+y,1/2+z
x,1/2-y,z
loop_
_atom_site_type_symbol
_atom_site_label
_atom_site_fract_x
_atom_site_fract_y
_atom_site_fract_z
Si Si1 0.944536 0.437675 0.591345
Si Si2 0.622265 0.477374 0.762434
Si Si3 0.736697 0.140017 0.281283
Si Si4 0.237176 0.196915 0.728850
Si Si5 0.479659 0.639718 0.738234
Si Si6 0.019199 0.303105 0.744316
Si Si7 0.801135 0.439040 0.969927
O O1 0.903898 0.486074 0.484896
O O2 0.031952 0.447890 0.767914
O O3 0.978072 0.407562 0.351160
O O4 0.869577 0.416480 0.773312
O O5 0.658355 0.510289 0.538351
O O6 0.703905 0.444789 0.843867
O O7 0.756966 0.172787 0.038984
O O8 0.628514 0.132814 0.283981
O O9 0.767589 0.166009 0.533824
O O10 0.784201 0.091163 0.221624
O O11 0.269604 0.250000 0.740823
O O12 0.128342 0.198277 0.754897
O O13 0.500175 0.676383 0.965869
O O14 0.510038 0.662721 0.472968
O O15 0.987348 0.250000 0.778156
#
# Coordination Sequence:
#
# PCOD9465023 Si02
#       7
#     8   8   8   8   8   8   8
#     4  11  25  44  65  95 134 175 228 276 341 396
#     4  11  25  45  66  96 128 180 224 279 334 408
#     4  10  21  36  64  96 133 172 222 276 329 400
#     4   9  18  35  61  96 132 173 220 271 331 400
#     4  10  20  37  62  97 131 173 219 278 329 398
#     4   9  18  34  61  95 132 172 220 269 331 402
#     4  12  24  43  67  96 134 176 226 277 341 399
#
# _framework density 25.076180999999998
#
# number of rings (size 3 to 8) (size 9 to 14) (size 15 to 20)
#    0.000    1.714    2.857    1.286    4.000    3.429 
#    2.571    0.000    0.000    5.143    0.000    0.000 
#    0.000    0.000    0.000    0.000    0.000    0.000 
#
# Total GULP energy -313935.573602 kJ/mol
# GULP energy per Si atom -5605.992386 kJ/mol
# Density = 2.501911 g / cm^3
# Si number density = 25.076181 Si / 1000 Ang^3
#
#
#
# Elastic Constant Matrix: (Units=GPa)
#
#
# Indices 1 2 3 4 5 6 
#
# 1 127.8230 35.3192 21.8216 0.0000 0.0000 0.0000
# 2 35.3192 96.2556 19.6682 0.0000 0.0000 0.0000
# 3 21.8216 19.6682 93.7098 0.0000 0.0000 0.0000
# 4 0.0000 0.0000 0.0000 35.5870 0.0000 0.0000
# 5 0.0000 0.0000 0.0000 0.0000 22.6774 0.0000
# 6 0.0000 0.0000 0.0000 0.0000 0.0000 -2.8609
#
#
#
# Elastic Compliance Matrix: (Units=1/GPa)
#
#
# Indices 1 2 3 4 5 6 
#
# 1 0.008890 -0.002966 -0.001448 0.000000 0.000000 0.000000
# 2 -0.002966 0.011844 -0.001795 0.000000 0.000000 0.000000
# 3 -0.001448 -0.001795 0.011385 0.000000 0.000000 0.000000
# 4 0.000000 0.000000 0.000000 0.028100 0.000000 0.000000
# 5 0.000000 0.000000 0.000000 0.000000 0.044097 0.000000
# 6 0.000000 0.000000 0.000000 0.000000 0.000000 -0.349544
#
#
# Mechanical properties :
#
#
# Convention : Reuss Voigt Hill
#
# Bulk Modulus (GPa) = 50.75796 52.37848 51.56822
# Shear Modulus (GPa) = -22.10023 27.14600 2.52289
#
# Velocity S-wave (km/s) = -2.97193 3.29377 1.00413
# Velocity P-wave (km/s) = 2.91701 5.94965 4.68547
#
# Compressibility (1/GPa) = 0.01970134
#
# Stress axis : x y z
#
# Youngs Moduli (GPa) = 112.48514 84.42931 87.83394
#
# Poissons Ratio (x) = 0.25044 0.12715
# Poissons Ratio (y) = 0.33366 0.15768
# Poissons Ratio (z) = 0.16283 0.15157
#
# Static dielectric constant tensor:
#      x y z
#    x 1.980300 0.000000 0.000000 
#    y 0.000000 1.955280 0.000000 
#    z 0.000000 0.000000 1.927670 
# 
# From -- ./inp_files/1265.got.cif
#   From: 2010.05.17/outbox.cif.g08.bks.cpg/sg62_1_cif.got.tgz:1265.got - 2010.06.03 15:25:27.
