data_PCOD9465127
_publ_section_title
;
Structure prediction by ZEFSAII (Michael W. Deem and Ramdas Pophale) SiO2 
 PCOD9465127
Probable space group: P N M A
;
_chemical_formula_sum "Si O2"
_cell_formula_units_Z 48
_cell_length_a 23.736199
_cell_length_b 8.161572
_cell_length_c 11.145874
_cell_angle_alpha 90.000000
_cell_angle_beta 90.000000
_cell_angle_gamma 90.000000
_cell_volume 2159.231065
_symmetry_space_group_name_H-M "P N M A"
_symmetry_group_IT_number 62
_symmetry_cell_setting 'orthorhombic'
loop_
_space_group_symop_operation_xyz
x,y,z
1/2-x,-y,1/2+z
1/2+x,1/2-y,1/2-z
-x,1/2+y,-z
-x,-y,-z
1/2+x,y,1/2-z
1/2-x,1/2+y,1/2+z
x,1/2-y,z
loop_
_atom_site_type_symbol
_atom_site_label
_atom_site_fract_x
_atom_site_fract_y
_atom_site_fract_z
Si Si1 0.421591 0.435604 0.413520
Si Si2 0.085174 0.058968 0.169341
Si Si3 0.314335 0.551207 0.822533
Si Si4 0.014265 0.439252 0.688485
Si Si5 0.877659 0.550853 0.438513
Si Si6 0.313964 0.555355 0.305820
O O1 0.436920 0.250000 0.381781
O O2 0.436459 0.470095 0.550684
O O3 0.450353 0.549198 0.313626
O O4 0.354770 0.465040 0.399234
O O5 0.088418 0.250000 0.139737
O O6 0.146457 0.000002 0.211305
O O7 0.042470 0.034708 0.280310
O O8 0.313413 0.750000 0.824073
O O9 0.251053 0.489066 0.817258
O O10 0.347104 0.494279 0.941737
O O11 0.000997 0.250000 0.663761
O O12 0.058578 0.505924 0.590276
O O13 0.881051 0.750000 0.442234
O O14 0.838439 0.508388 0.324923
O O15 0.320992 0.750000 0.321070
#
# Coordination Sequence:
#
# PCOD9465127 Si02
#       6
#     8   8   8   8   8   8
#     4  11  22  38  61  86 115 154 197 240 294 345
#     4  11  23  37  56  87 123 153 193 241 288 341
#     4  10  22  39  58  84 117 156 195 236 286 345
#     4  10  20  38  62  86 115 152 195 240 293 346
#     4   8  18  38  60  81 111 151 190 234 287 343
#     4  10  21  38  60  86 116 149 191 241 293 345
#
# _framework density 22.230134
#
# number of rings (size 3 to 8) (size 9 to 14) (size 15 to 20)
#    0.000    2.000    0.000    4.500    2.333    2.000 
#    0.000    4.167    0.000    0.000    0.000    0.000 
#    0.000    0.000    0.000    0.000    0.000    0.000 
#
# Total GULP energy -268311.806603 kJ/mol
# GULP energy per Si atom -5589.829304 kJ/mol
# Density = 2.217954 g / cm^3
# Si number density = 22.230134 Si / 1000 Ang^3
#
#
#
# Elastic Constant Matrix: (Units=GPa)
#
#
# Indices 1 2 3 4 5 6 
#
# 1 104.3123 -10.8806 0.5267 0.0000 0.0000 0.0000
# 2 -10.8806 36.2542 2.1498 0.0000 0.0000 0.0000
# 3 0.5267 2.1498 51.0149 0.0000 0.0000 0.0000
# 4 0.0000 0.0000 0.0000 13.7417 0.0000 0.0000
# 5 0.0000 0.0000 0.0000 0.0000 29.9599 0.0000
# 6 0.0000 0.0000 0.0000 0.0000 0.0000 31.2911
#
#
#
# Elastic Compliance Matrix: (Units=1/GPa)
#
#
# Indices 1 2 3 4 5 6 
#
# 1 0.009899 0.002984 -0.000228 0.000000 0.000000 0.000000
# 2 0.002984 0.028552 -0.001234 0.000000 0.000000 0.000000
# 3 -0.000228 -0.001234 0.019656 0.000000 0.000000 0.000000
# 4 0.000000 0.000000 0.000000 0.072771 0.000000 0.000000
# 5 0.000000 0.000000 0.000000 0.000000 0.033378 0.000000
# 6 0.000000 0.000000 0.000000 0.000000 0.000000 0.031958
#
#
# Mechanical properties :
#
#
# Convention : Reuss Voigt Hill
#
# Bulk Modulus (GPa) = 16.35262 19.46369 17.90816
# Shear Modulus (GPa) = 23.41333 28.31758 25.86545
#
# Velocity S-wave (km/s) = 3.24886 3.57296 3.41476
# Velocity P-wave (km/s) = 4.63093 5.07897 4.86012
#
# Compressibility (1/GPa) = 0.06115227
#
# Stress axis : x y z
#
# Youngs Moduli (GPa) = 101.01985 35.02400 50.87387
#
# Poissons Ratio (x) = -0.10453 0.01160
# Poissons Ratio (y) = -0.30148 0.06278
# Poissons Ratio (z) = 0.02303 0.04322
#
# Static dielectric constant tensor:
#      x y z
#    x 1.826900 0.000000 0.000000 
#    y 0.000000 1.775330 0.000000 
#    z 0.000000 0.000000 1.823570 
# 
# From -- ./inp_files/15135.got.cif
#   From: 2010.05.17/outbox.cif.g08.bks.cpg/sg62_8_cif.got.tgz:15135.got - 2010.06.03 15:25:27.
