data_PCOD9465132
_publ_section_title
;
Structure prediction by ZEFSAII (Michael W. Deem and Ramdas Pophale) SiO2 
 PCOD9465132
Probable space group: P N M A
;
_chemical_formula_sum "Si O2"
_cell_formula_units_Z 64
_cell_length_a 9.397911
_cell_length_b 16.011931
_cell_length_c 19.612180
_cell_angle_alpha 90.000000
_cell_angle_beta 90.000000
_cell_angle_gamma 90.000000
_cell_volume 2951.215399
_symmetry_space_group_name_H-M "P N M A"
_symmetry_group_IT_number 62
_symmetry_cell_setting 'orthorhombic'
loop_
_space_group_symop_operation_xyz
x,y,z
1/2-x,-y,1/2+z
1/2+x,1/2-y,1/2-z
-x,1/2+y,-z
-x,-y,-z
1/2+x,y,1/2-z
1/2-x,1/2+y,1/2+z
x,1/2-y,z
loop_
_atom_site_type_symbol
_atom_site_label
_atom_site_fract_x
_atom_site_fract_y
_atom_site_fract_z
Si Si1 0.955630 0.843688 0.906793
Si Si2 0.044037 0.062891 0.716226
Si Si3 0.898873 0.649442 0.526283
Si Si4 0.190534 0.050398 0.206516
Si Si5 0.401258 0.350543 0.544507
Si Si6 0.115852 0.409409 0.855555
Si Si7 0.398728 0.347521 0.910967
Si Si8 0.238554 0.598247 0.847784
O O1 0.896989 0.750000 0.910514
O O2 0.862614 0.902936 0.860025
O O3 0.111979 0.842617 0.872266
O O4 0.993585 0.874326 0.982337
O O5 0.108704 0.119850 0.776959
O O6 0.973359 0.107948 0.652940
O O7 0.169955 0.003165 0.692063
O O8 0.928113 0.008282 0.757764
O O9 0.903134 0.750000 0.536889
O O10 0.759133 0.630872 0.479573
O O11 0.868072 0.607970 0.599354
O O12 0.036044 0.622247 0.482875
O O13 0.224659 0.112794 0.269303
O O14 0.409259 0.250000 0.554125
O O15 0.462813 0.397234 0.609812
O O16 0.231602 0.360208 0.899839
O O17 0.173850 0.504482 0.853915
O O18 0.433747 0.250000 0.907638
#
# Coordination Sequence:
#
# PCOD9465132 Si02
#       8
#     8   8   8   8   8   8   8   8
#     4  10  21  39  63  91 122 157 200 247 293 352
#     4  11  23  42  60  86 120 156 196 252 296 354
#     4   9  21  39  59  85 117 154 200 245 293 356
#     4  11  21  42  62  85 123 155 200 246 295 352
#     4   9  20  38  59  86 118 154 200 247 292 354
#     4  11  22  38  61  88 121 157 196 246 302 348
#     4  11  24  41  60  87 121 157 199 251 301 352
#     4  10  20  38  62  87 120 158 195 241 299 349
#
# _framework density 21.685980000000001
#
# number of rings (size 3 to 8) (size 9 to 14) (size 15 to 20)
#    0.000    1.750    5.000    1.500    1.750    5.500 
#    2.250    0.000    0.000    0.000    0.000    0.000 
#    0.000    0.000    0.000    0.000    0.000    0.000 
#
# Total GULP energy -357513.308873 kJ/mol
# GULP energy per Si atom -5586.145451 kJ/mol
# Density = 2.163662 g / cm^3
# Si number density = 21.685980 Si / 1000 Ang^3
#
#
#
# Elastic Constant Matrix: (Units=GPa)
#
#
# Indices 1 2 3 4 5 6 
#
# 1 45.8803 -8.3442 -8.4444 0.0000 0.0000 0.0000
# 2 -8.3442 24.6594 -0.7453 0.0000 0.0000 0.0000
# 3 -8.4444 -0.7453 46.0252 0.0000 0.0000 0.0000
# 4 0.0000 0.0000 0.0000 27.4280 0.0000 0.0000
# 5 0.0000 0.0000 0.0000 0.0000 38.2119 0.0000
# 6 0.0000 0.0000 0.0000 0.0000 0.0000 26.2617
#
#
#
# Elastic Compliance Matrix: (Units=1/GPa)
#
#
# Indices 1 2 3 4 5 6 
#
# 1 0.024147 0.008309 0.004565 0.000000 0.000000 0.000000
# 2 0.008309 0.043431 0.002228 0.000000 0.000000 0.000000
# 3 0.004565 0.002228 0.022601 0.000000 0.000000 0.000000
# 4 0.000000 0.000000 0.000000 0.036459 0.000000 0.000000
# 5 0.000000 0.000000 0.000000 0.000000 0.026170 0.000000
# 6 0.000000 0.000000 0.000000 0.000000 0.000000 0.038078
#
#
# Mechanical properties :
#
#
# Convention : Reuss Voigt Hill
#
# Bulk Modulus (GPa) = 8.30687 9.05524 8.68106
# Shear Modulus (GPa) = 24.89902 27.32023 26.10963
#
# Velocity S-wave (km/s) = 3.39213 3.55323 3.47362
# Velocity P-wave (km/s) = 4.37960 4.58461 4.48328
#
# Compressibility (1/GPa) = 0.12038227
#
# Stress axis : x y z
#
# Youngs Moduli (GPa) = 41.41279 23.02483 44.24611
#
# Poissons Ratio (x) = -0.19131 -0.20198
# Poissons Ratio (y) = -0.34409 -0.09857
# Poissons Ratio (z) = -0.18904 -0.05129
#
# Static dielectric constant tensor:
#      x y z
#    x 1.837490 0.000000 0.000000 
#    y 0.000000 1.805690 0.000000 
#    z 0.000000 0.000000 1.802370 
# 
# From -- ./inp_files/26186.got.cif
#   From: 2010.05.17/outbox.cif.g08.bks.cpg/sg62_14_cif.got.tgz:26186.got - 2010.06.03 15:25:27.
