data_PCOD9465658
_publ_section_title
;
Structure prediction by ZEFSAII (Michael W. Deem and Ramdas Pophale) SiO2 
 PCOD9465658
Probable space group: P N M A
;
_chemical_formula_sum "Si O2"
_cell_formula_units_Z 32
_cell_length_a 18.397321
_cell_length_b 14.452383
_cell_length_c 5.265886
_cell_angle_alpha 90.000000
_cell_angle_beta 90.000000
_cell_angle_gamma 90.000000
_cell_volume 1400.120780
_symmetry_space_group_name_H-M "P N M A"
_symmetry_group_IT_number 62
_symmetry_cell_setting 'orthorhombic'
loop_
_space_group_symop_operation_xyz
x,y,z
1/2-x,-y,1/2+z
1/2+x,1/2-y,1/2-z
-x,1/2+y,-z
-x,-y,-z
1/2+x,y,1/2-z
1/2-x,1/2+y,1/2+z
x,1/2-y,z
loop_
_atom_site_type_symbol
_atom_site_label
_atom_site_fract_x
_atom_site_fract_y
_atom_site_fract_z
Si Si1 0.717596 0.044403 0.501859
Si Si2 0.924532 0.445899 0.183087
Si Si3 0.082529 0.250000 0.528197
Si Si4 0.534340 0.899616 0.182712
Si Si5 0.820662 0.750000 0.973537
O O1 0.722164 0.153746 0.453266
O O2 0.736609 0.991199 0.242668
O O3 0.635475 0.017179 0.583990
O O4 0.906599 0.405159 0.459766
O O5 0.998902 0.500778 0.248877
O O6 0.936115 0.372113 0.959392
O O7 0.119183 0.250000 0.252136
O O8 0.030065 0.163437 0.578408
O O9 0.142578 0.250000 0.748636
#
# Coordination Sequence:
#
# PCOD9465658 Si02
#       5
#     8   8   4   8   4
#     4  12  26  46  69  97 136 190 235 285 338 404
#     4  10  21  39  61  94 128 169 211 270 344 406
#     4  12  22  40  67 104 133 168 228 287 337 420
#     4  10  21  36  64  96 131 160 207 281 347 395
#     4  12  26  44  69 100 131 178 246 283 327 422
#
# _framework density 22.855170000000001
#
# number of rings (size 3 to 8) (size 9 to 14) (size 15 to 20)
#    0.000    1.000    2.500    4.500    7.000    0.000 
#    0.000    7.500    0.000    0.000    0.000    0.000 
#    0.000    0.000    0.000    0.000    0.000    0.000 
#
# Total GULP energy -178706.430161 kJ/mol
# GULP energy per Si atom -5584.575943 kJ/mol
# Density = 2.280315 g / cm^3
# Si number density = 22.855170 Si / 1000 Ang^3
#
#
#
# Elastic Constant Matrix: (Units=GPa)
#
#
# Indices 1 2 3 4 5 6 
#
# 1 52.9771 32.2397 35.2801 0.0000 0.0000 0.0000
# 2 32.2397 129.5292 60.0370 0.0000 0.0000 0.0000
# 3 35.2801 60.0370 188.7942 0.0000 0.0000 0.0000
# 4 0.0000 0.0000 0.0000 24.6612 0.0000 0.0000
# 5 0.0000 0.0000 0.0000 0.0000 51.9051 0.0000
# 6 0.0000 0.0000 0.0000 0.0000 0.0000 26.9815
#
#
#
# Elastic Compliance Matrix: (Units=1/GPa)
#
#
# Indices 1 2 3 4 5 6 
#
# 1 0.023594 -0.004491 -0.002981 0.000000 0.000000 0.000000
# 2 -0.004491 0.009910 -0.002312 0.000000 0.000000 0.000000
# 3 -0.002981 -0.002312 0.006589 0.000000 0.000000 0.000000
# 4 0.000000 0.000000 0.000000 0.040549 0.000000 0.000000
# 5 0.000000 0.000000 0.000000 0.000000 0.019266 0.000000
# 6 0.000000 0.000000 0.000000 0.000000 0.000000 0.037062
#
#
# Mechanical properties :
#
#
# Convention : Reuss Voigt Hill
#
# Bulk Modulus (GPa) = 48.72076 69.60156 59.16116
# Shear Modulus (GPa) = 30.60340 36.95914 33.78127
#
# Velocity S-wave (km/s) = 3.66322 4.02568 3.84872
# Velocity P-wave (km/s) = 6.26544 7.21994 6.75956
#
# Compressibility (1/GPa) = 0.02052513
#
# Stress axis : x y z
#
# Youngs Moduli (GPa) = 42.38322 100.91118 151.76633
#
# Poissons Ratio (x) = 0.45318 0.45241
# Poissons Ratio (y) = 0.19034 0.35090
# Poissons Ratio (z) = 0.12634 0.23332
#
# Static dielectric constant tensor:
#      x y z
#    x 1.868130 0.000000 0.000000 
#    y 0.000000 1.829920 0.000000 
#    z 0.000000 0.000000 2.008870 
# 
# From -- ./inp_files/2054.got.cif
#   From: 2010.05.17/outbox.cif.g08.bks.cpg/sg62_2_cif.got.tgz:2054.got - 2010.06.03 15:25:27.
