data_PCOD9465712
_publ_section_title
;
Structure prediction by ZEFSAII (Michael W. Deem and Ramdas Pophale) SiO2 
 PCOD9465712
Probable space group: P N M A
;
_chemical_formula_sum "Si O2"
_cell_formula_units_Z 48
_cell_length_a 12.100521
_cell_length_b 16.845217
_cell_length_c 11.755567
_cell_angle_alpha 90.000000
_cell_angle_beta 90.000000
_cell_angle_gamma 90.000000
_cell_volume 2396.206604
_symmetry_space_group_name_H-M "P N M A"
_symmetry_group_IT_number 62
_symmetry_cell_setting 'orthorhombic'
loop_
_space_group_symop_operation_xyz
x,y,z
1/2-x,-y,1/2+z
1/2+x,1/2-y,1/2-z
-x,1/2+y,-z
-x,-y,-z
1/2+x,y,1/2-z
1/2-x,1/2+y,1/2+z
x,1/2-y,z
loop_
_atom_site_type_symbol
_atom_site_label
_atom_site_fract_x
_atom_site_fract_y
_atom_site_fract_z
Si Si1 0.726943 0.339498 0.123062
Si Si2 0.813263 0.340584 0.863733
Si Si3 0.424340 0.063769 0.327661
Si Si4 0.563404 0.013213 0.116165
Si Si5 0.536294 0.157655 0.524057
Si Si6 0.224519 0.083236 0.852090
O O1 0.693207 0.250000 0.152892
O O2 0.832796 0.368166 0.196507
O O3 0.631994 0.404778 0.127073
O O4 0.767866 0.340515 0.992022
O O5 0.811212 0.250000 0.819991
O O6 0.738395 0.392632 0.780125
O O7 0.942033 0.364297 0.881583
O O8 0.480623 0.022417 0.220994
O O9 0.511088 0.101696 0.416034
O O10 0.349013 0.994194 0.379665
O O11 0.650910 0.941338 0.120050
O O12 0.500000 0.000000 0.000000
O O13 0.515580 0.250000 0.494105
O O14 0.657831 0.148171 0.576416
#
# Coordination Sequence:
#
# PCOD9465712 Si02
#       6
#     8   8   8   8   8   8
#     4   9  20  38  60  84 113 154 198 238 289 352
#     4   9  18  35  57  82 113 147 188 240 293 345
#     4  10  21  37  58  82 114 154 196 244 292 349
#     4  11  24  39  56  84 119 150 189 244 302 354
#     4  10  21  38  60  86 116 154 202 246 291 355
#     4  11  21  35  59  86 115 151 193 238 293 351
#
# _framework density 20.031661
#
# number of rings (size 3 to 8) (size 9 to 14) (size 15 to 20)
#    0.000    2.000    0.000    4.500    0.000    6.667 
#    0.000    3.333    0.000    0.000    0.000    0.000 
#    0.000    0.000    0.000    0.000    0.000    0.000 
#
# Total GULP energy -267556.986373 kJ/mol
# GULP energy per Si atom -5574.103883 kJ/mol
# Density = 1.998607 g / cm^3
# Si number density = 20.031661 Si / 1000 Ang^3
#
#
#
# Elastic Constant Matrix: (Units=GPa)
#
#
# Indices 1 2 3 4 5 6 
#
# 1 63.5331 3.8008 29.3125 0.0000 0.0000 0.0000
# 2 3.8008 46.3418 6.4852 0.0000 0.0000 0.0000
# 3 29.3125 6.4852 64.5803 0.0000 0.0000 0.0000
# 4 0.0000 0.0000 0.0000 23.6151 0.0000 0.0000
# 5 0.0000 0.0000 0.0000 0.0000 21.3609 0.0000
# 6 0.0000 0.0000 0.0000 0.0000 0.0000 28.4111
#
#
#
# Elastic Compliance Matrix: (Units=1/GPa)
#
#
# Indices 1 2 3 4 5 6 
#
# 1 0.019915 -0.000374 -0.009002 0.000000 0.000000 0.000000
# 2 -0.000374 0.021893 -0.002029 0.000000 0.000000 0.000000
# 3 -0.009002 -0.002029 0.019774 0.000000 0.000000 0.000000
# 4 0.000000 0.000000 0.000000 0.042346 0.000000 0.000000
# 5 0.000000 0.000000 0.000000 0.000000 0.046814 0.000000
# 6 0.000000 0.000000 0.000000 0.000000 0.000000 0.035198
#
#
# Mechanical properties :
#
#
# Convention : Reuss Voigt Hill
#
# Bulk Modulus (GPa) = 25.79045 28.18356 26.98700
# Shear Modulus (GPa) = 22.55557 23.66786 23.11171
#
# Velocity S-wave (km/s) = 3.35923 3.44106 3.40039
# Velocity P-wave (km/s) = 5.28665 5.46698 5.37757
#
# Compressibility (1/GPa) = 0.03877404
#
# Stress axis : x y z
#
# Youngs Moduli (GPa) = 50.21228 45.67589 50.57076
#
# Poissons Ratio (x) = 0.01707 0.45524
# Poissons Ratio (y) = 0.01876 0.10261
# Poissons Ratio (z) = 0.45201 0.09267
#
# Static dielectric constant tensor:
#      x y z
#    x 1.798340 0.000000 0.000000 
#    y 0.000000 1.768830 0.000000 
#    z 0.000000 0.000000 1.670490 
# 
# From -- ./inp_files/12225.got.cif
#   From: 2010.05.17/outbox.cif.g08.bks.cpg/sg62_7_cif.got.tgz:12225.got - 2010.06.03 15:25:27.
