data_PCOD9465163
_publ_section_title
;
Structure prediction by ZEFSAII (Michael W. Deem and Ramdas Pophale) SiO2 
 PCOD9465163
Probable space group: P N M A
;
_chemical_formula_sum "Si O2"
_cell_formula_units_Z 48
_cell_length_a 8.049481
_cell_length_b 16.252197
_cell_length_c 19.596462
_cell_angle_alpha 90.000000
_cell_angle_beta 90.000000
_cell_angle_gamma 90.000000
_cell_volume 2563.643471
_symmetry_space_group_name_H-M "P N M A"
_symmetry_group_IT_number 62
_symmetry_cell_setting 'orthorhombic'
loop_
_space_group_symop_operation_xyz
x,y,z
1/2-x,-y,1/2+z
1/2+x,1/2-y,1/2-z
-x,1/2+y,-z
-x,-y,-z
1/2+x,y,1/2-z
1/2-x,1/2+y,1/2+z
x,1/2-y,z
loop_
_atom_site_type_symbol
_atom_site_label
_atom_site_fract_x
_atom_site_fract_y
_atom_site_fract_z
Si Si1 0.831659 0.943598 0.225334
Si Si2 0.217596 0.158680 0.056808
Si Si3 0.456174 0.151761 0.836332
Si Si4 0.952999 0.595220 0.487091
Si Si5 0.115546 0.491710 0.152508
Si Si6 0.074727 0.588461 0.023304
O O1 0.723210 0.888864 0.174561
O O2 0.726639 0.990610 0.282244
O O3 0.944510 0.882319 0.270597
O O4 0.930738 0.010972 0.181905
O O5 0.207212 0.250000 0.086085
O O6 0.401367 0.144494 0.025929
O O7 0.072092 0.148953 0.999453
O O8 0.178592 0.086537 0.110798
O O9 0.453309 0.250000 0.837426
O O10 0.528443 0.118256 0.907446
O O11 0.758416 0.607027 0.506946
O O12 0.000000 0.500000 0.500000
O O13 0.109225 0.571493 0.102891
O O14 0.000000 0.500000 0.000000
#
# Coordination Sequence:
#
# PCOD9465163 Si02
#       6
#     8   8   8   8   8   8
#     4  10  21  37  62  80 115 164 204 234 294 364
#     4  11  24  40  61  93 125 152 197 259 310 351
#     4  11  22  36  56  89 122 152 197 251 299 348
#     4  12  21  38  64  88 120 160 201 242 299 370
#     4  10  20  40  59  85 112 159 203 243 287 366
#     4  10  20  38  63  89 117 157 200 245 298 365
#
# _framework density 18.723351999999998
#
# number of rings (size 3 to 8) (size 9 to 14) (size 15 to 20)
#    0.000    1.333    5.000    2.000    2.333    1.333 
#    0.000    1.667    0.000    0.000    0.000    0.000 
#    0.000    0.000    0.000    0.000    0.000    0.000 
#
# Total GULP energy -267508.458640 kJ/mol
# GULP energy per Si atom -5573.092888 kJ/mol
# Density = 1.868074 g / cm^3
# Si number density = 18.723352 Si / 1000 Ang^3
#
#
#
# Elastic Constant Matrix: (Units=GPa)
#
#
# Indices 1 2 3 4 5 6 
#
# 1 136.9268 32.2269 34.9711 0.0000 0.0000 0.0000
# 2 32.2269 70.1999 23.3166 0.0000 0.0000 0.0000
# 3 34.9711 23.3166 65.7825 0.0000 0.0000 0.0000
# 4 0.0000 0.0000 0.0000 9.6124 0.0000 0.0000
# 5 0.0000 0.0000 0.0000 0.0000 50.1185 0.0000
# 6 0.0000 0.0000 0.0000 0.0000 0.0000 15.4664
#
#
#
# Elastic Compliance Matrix: (Units=1/GPa)
#
#
# Indices 1 2 3 4 5 6 
#
# 1 0.008930 -0.002859 -0.003734 0.000000 0.000000 0.000000
# 2 -0.002859 0.017061 -0.004527 0.000000 0.000000 0.000000
# 3 -0.003734 -0.004527 0.018791 0.000000 0.000000 0.000000
# 4 0.000000 0.000000 0.000000 0.104032 0.000000 0.000000
# 5 0.000000 0.000000 0.000000 0.000000 0.019953 0.000000
# 6 0.000000 0.000000 0.000000 0.000000 0.000000 0.064656
#
#
# Mechanical properties :
#
#
# Convention : Reuss Voigt Hill
#
# Bulk Modulus (GPa) = 44.36236 50.43761 47.39999
# Shear Modulus (GPa) = 18.99858 27.19911 23.09884
#
# Velocity S-wave (km/s) = 3.18889 3.81554 3.51621
# Velocity P-wave (km/s) = 6.10768 6.81234 6.46961
#
# Compressibility (1/GPa) = 0.02254163
#
# Stress axis : x y z
#
# Youngs Moduli (GPa) = 111.98562 58.61184 53.21616
#
# Poissons Ratio (x) = 0.16759 0.19870
# Poissons Ratio (y) = 0.32019 0.24093
# Poissons Ratio (z) = 0.41812 0.26536
#
# Static dielectric constant tensor:
#      x y z
#    x 1.731050 0.000000 0.000000 
#    y 0.000000 1.623030 0.000000 
#    z 0.000000 0.000000 1.657970 
# 
# From -- ./inp_files/28869.got.cif
#   From: 2010.05.17/outbox.cif.g08.bks.cpg/sg62_15_cif.got.tgz:28869.got - 2010.06.03 15:25:27.
