data_PCOD9465994
_publ_section_title
;
Structure prediction by ZEFSAII (Michael W. Deem and Ramdas Pophale) SiO2 
 PCOD9465994
Probable space group: P N M A
;
_chemical_formula_sum "Si O2"
_cell_formula_units_Z 56
_cell_length_a 18.838258
_cell_length_b 13.737521
_cell_length_c 11.457524
_cell_angle_alpha 90.000000
_cell_angle_beta 90.000000
_cell_angle_gamma 90.000000
_cell_volume 2965.103691
_symmetry_space_group_name_H-M "P N M A"
_symmetry_group_IT_number 62
_symmetry_cell_setting 'orthorhombic'
loop_
_space_group_symop_operation_xyz
x,y,z
1/2-x,-y,1/2+z
1/2+x,1/2-y,1/2-z
-x,1/2+y,-z
-x,-y,-z
1/2+x,y,1/2-z
1/2-x,1/2+y,1/2+z
x,1/2-y,z
loop_
_atom_site_type_symbol
_atom_site_label
_atom_site_fract_x
_atom_site_fract_y
_atom_site_fract_z
Si Si1 0.578895 0.036347 0.977454
Si Si2 0.068831 0.365612 0.775114
Si Si3 0.686675 0.861633 0.957838
Si Si4 0.098398 0.360066 0.285104
Si Si5 0.324335 0.528857 0.455176
Si Si6 0.049449 0.519790 0.112128
Si Si7 0.263541 0.141598 0.298640
O O1 0.583737 0.083669 0.849467
O O2 0.630477 0.943677 0.993894
O O3 0.593664 0.113861 0.078942
O O4 0.500000 0.000000 0.000000
O O5 0.077653 0.250000 0.767838
O O6 0.122885 0.412422 0.869263
O O7 0.989192 0.392571 0.819962
O O8 0.672486 0.750000 0.995850
O O9 0.689066 0.862235 0.817243
O O10 0.763743 0.897977 0.000432
O O11 0.075978 0.250000 0.262515
O O12 0.052942 0.432273 0.205471
O O13 0.182045 0.369739 0.258370
O O14 0.371705 0.479132 0.557190
O O15 0.286234 0.442756 0.384928
O O16 0.000000 0.500000 0.000000
O O17 0.269729 0.250000 0.351146
#
# Coordination Sequence:
#
# PCOD9465994 Si02
#       7
#     8   8   8   8   8   8   8
#     4  12  24  42  63  90 130 169 210 262 313 375
#     4  11  24  42  62  92 130 171 212 259 319 379
#     4  11  23  40  66  94 125 168 212 259 320 381
#     4  11  22  40  66  93 124 168 210 255 320 383
#     4  11  21  41  69  95 129 162 211 268 321 378
#     4  10  23  40  62  93 126 165 208 262 311 371
#     4  10  21  38  64  95 125 161 207 260 316 379
#
# _framework density 18.886354000000001
#
# number of rings (size 3 to 8) (size 9 to 14) (size 15 to 20)
#    0.000    1.143    5.714    0.857    0.000    4.000 
#    0.000    2.143    0.000    0.000    0.000    0.000 
#    0.000    0.000    0.000    0.000    0.000    0.000 
#
# Total GULP energy -312453.351787 kJ/mol
# GULP energy per Si atom -5579.524139 kJ/mol
# Density = 1.884337 g / cm^3
# Si number density = 18.886354 Si / 1000 Ang^3
#
#
#
# Elastic Constant Matrix: (Units=GPa)
#
#
# Indices 1 2 3 4 5 6 
#
# 1 74.6427 38.9926 19.2554 0.0000 0.0000 0.0000
# 2 38.9926 130.0944 39.2482 0.0000 0.0000 0.0000
# 3 19.2554 39.2482 85.2534 0.0000 0.0000 0.0000
# 4 0.0000 0.0000 0.0000 19.3375 0.0000 0.0000
# 5 0.0000 0.0000 0.0000 0.0000 28.8186 0.0000
# 6 0.0000 0.0000 0.0000 0.0000 0.0000 28.3620
#
#
#
# Elastic Compliance Matrix: (Units=1/GPa)
#
#
# Indices 1 2 3 4 5 6 
#
# 1 0.016079 -0.004324 -0.001641 0.000000 0.000000 0.000000
# 2 -0.004324 0.010090 -0.003668 0.000000 0.000000 0.000000
# 3 -0.001641 -0.003668 0.013789 0.000000 0.000000 0.000000
# 4 0.000000 0.000000 0.000000 0.051713 0.000000 0.000000
# 5 0.000000 0.000000 0.000000 0.000000 0.034700 0.000000
# 6 0.000000 0.000000 0.000000 0.000000 0.000000 0.035258
#
#
# Mechanical properties :
#
#
# Convention : Reuss Voigt Hill
#
# Bulk Modulus (GPa) = 48.32999 53.88699 51.10849
# Shear Modulus (GPa) = 26.62499 28.13656 27.38078
#
# Velocity S-wave (km/s) = 3.75873 3.86396 3.81171
# Velocity P-wave (km/s) = 6.66955 6.96427 6.81850
#
# Compressibility (1/GPa) = 0.02069109
#
# Stress axis : x y z
#
# Youngs Moduli (GPa) = 62.19110 99.11270 72.52108
#
# Poissons Ratio (x) = 0.42860 0.11900
# Poissons Ratio (y) = 0.26894 0.26602
# Poissons Ratio (z) = 0.10205 0.36357
#
# Static dielectric constant tensor:
#      x y z
#    x 1.604620 0.000000 0.000000 
#    y 0.000000 1.630720 0.000000 
#    z 0.000000 0.000000 1.544090 
# 
# From -- ./inp_files/14784.got.cif
#   From: 2010.05.17/outbox.cif.g08.bks.cpg/sg62_8_cif.got.tgz:14784.got - 2010.06.03 15:25:27.
