data_PCOD9465930
_publ_section_title
;
Structure prediction by ZEFSAII (Michael W. Deem and Ramdas Pophale) SiO2 
 PCOD9465930
Probable space group: P N M A
;
_chemical_formula_sum "Si O2"
_cell_formula_units_Z 40
_cell_length_a 19.518589
_cell_length_b 17.387664
_cell_length_c 4.856379
_cell_angle_alpha 90.000000
_cell_angle_beta 90.000000
_cell_angle_gamma 90.000000
_cell_volume 1648.170858
_symmetry_space_group_name_H-M "P N M A"
_symmetry_group_IT_number 62
_symmetry_cell_setting 'orthorhombic'
loop_
_space_group_symop_operation_xyz
x,y,z
1/2-x,-y,1/2+z
1/2+x,1/2-y,1/2-z
-x,1/2+y,-z
-x,-y,-z
1/2+x,y,1/2-z
1/2-x,1/2+y,1/2+z
x,1/2-y,z
loop_
_atom_site_type_symbol
_atom_site_label
_atom_site_fract_x
_atom_site_fract_y
_atom_site_fract_z
Si Si1 0.745829 0.659871 0.385415
Si Si2 0.625214 0.105245 0.199502
Si Si3 0.453067 0.663324 0.323639
Si Si4 0.655423 0.660381 0.885267
Si Si5 0.554474 0.952100 0.177330
O O1 0.766716 0.750000 0.405108
O O2 0.804151 0.611060 0.534337
O O3 0.722097 0.643014 0.076615
O O4 0.677707 0.650807 0.571189
O O5 0.612337 0.152333 0.478021
O O6 0.606715 0.017592 0.276674
O O7 0.571775 0.143468 0.983512
O O8 0.478726 0.750000 0.344709
O O9 0.511123 0.599912 0.389288
O O10 0.638603 0.750000 0.933341
O O11 0.595604 0.606155 0.984845
O O12 0.500000 0.000000 0.000000
#
# Coordination Sequence:
#
# PCOD9465930 Si02
#       5
#     8   8   8   8   8
#     4  10  21  38  61  89 119 156 204 253 301 360
#     4  11  23  39  62  92 123 155 200 254 308 358
#     4  11  22  39  63  88 120 162 204 248 299 361
#     4  10  22  40  63  89 121 161 204 249 301 365
#     4  10  24  42  61  90 126 162 203 252 305 362
#
# _framework density 24.269327000000001
#
# number of rings (size 3 to 8) (size 9 to 14) (size 15 to 20)
#    0.000    1.600    0.000    4.200    0.000    9.600 
#    0.000    6.000    0.000    0.000    0.000    0.000 
#    0.000    0.000    0.000    0.000    0.000    0.000 
#
# Total GULP energy -223834.306193 kJ/mol
# GULP energy per Si atom -5595.857655 kJ/mol
# Density = 2.421409 g / cm^3
# Si number density = 24.269327 Si / 1000 Ang^3
#
#
#
# Elastic Constant Matrix: (Units=GPa)
#
#
# Indices 1 2 3 4 5 6 
#
# 1 69.4344 35.6956 -11.9507 0.0000 0.0000 0.0000
# 2 35.6956 117.1119 14.3187 0.0000 0.0000 0.0000
# 3 -11.9507 14.3187 83.9503 0.0000 0.0000 0.0000
# 4 0.0000 0.0000 0.0000 10.3371 0.0000 0.0000
# 5 0.0000 0.0000 0.0000 0.0000 29.1118 0.0000
# 6 0.0000 0.0000 0.0000 0.0000 0.0000 38.5697
#
#
#
# Elastic Compliance Matrix: (Units=1/GPa)
#
#
# Indices 1 2 3 4 5 6 
#
# 1 0.018078 -0.005949 0.003588 0.000000 0.000000 0.000000
# 2 -0.005949 0.010678 -0.002668 0.000000 0.000000 0.000000
# 3 0.003588 -0.002668 0.012878 0.000000 0.000000 0.000000
# 4 0.000000 0.000000 0.000000 0.096739 0.000000 0.000000
# 5 0.000000 0.000000 0.000000 0.000000 0.034350 0.000000
# 6 0.000000 0.000000 0.000000 0.000000 0.000000 0.025927
#
#
# Mechanical properties :
#
#
# Convention : Reuss Voigt Hill
#
# Bulk Modulus (GPa) = 31.66953 38.51377 35.09165
# Shear Modulus (GPa) = 22.80676 31.09927 26.95302
#
# Velocity S-wave (km/s) = 3.06884 3.58358 3.33615
# Velocity P-wave (km/s) = 5.06306 5.74687 5.41577
#
# Compressibility (1/GPa) = 0.03157610
#
# Stress axis : x y z
#
# Youngs Moduli (GPa) = 55.31618 93.64820 77.65381
#
# Poissons Ratio (x) = 0.55710 -0.27863
# Poissons Ratio (y) = 0.32907 0.20719
# Poissons Ratio (z) = -0.19848 0.24987
#
# Static dielectric constant tensor:
#      x y z
#    x 2.005690 0.000000 0.000000 
#    y 0.000000 1.905910 0.000000 
#    z 0.000000 0.000000 1.885200 
# 
# From -- ./inp_files/2127.got.cif
#   From: 2010.05.17/outbox.cif.g08.bks.cpg/sg62_2_cif.got.tgz:2127.got - 2010.06.03 15:25:27.
