data_PCOD9465201
_publ_section_title
;
Structure prediction by ZEFSAII (Michael W. Deem and Ramdas Pophale) SiO2 
 PCOD9465201
Probable space group: P N M A
;
_chemical_formula_sum "Si O2"
_cell_formula_units_Z 64
_cell_length_a 14.633747
_cell_length_b 8.917331
_cell_length_c 25.320449
_cell_angle_alpha 90.000000
_cell_angle_beta 90.000000
_cell_angle_gamma 90.000000
_cell_volume 3304.165805
_symmetry_space_group_name_H-M "P N M A"
_symmetry_group_IT_number 62
_symmetry_cell_setting 'orthorhombic'
loop_
_space_group_symop_operation_xyz
x,y,z
1/2-x,-y,1/2+z
1/2+x,1/2-y,1/2-z
-x,1/2+y,-z
-x,-y,-z
1/2+x,y,1/2-z
1/2-x,1/2+y,1/2+z
x,1/2-y,z
loop_
_atom_site_type_symbol
_atom_site_label
_atom_site_fract_x
_atom_site_fract_y
_atom_site_fract_z
Si Si1 0.207097 0.569795 0.391711
Si Si2 0.846902 0.426921 0.728205
Si Si3 0.061576 0.425295 0.747862
Si Si4 0.551806 0.428523 0.450419
Si Si5 0.598426 0.429015 0.011554
Si Si6 0.755001 0.071273 0.926804
Si Si7 0.913700 0.570912 0.128445
Si Si8 0.282497 0.426280 0.185805
O O1 0.199688 0.750000 0.397711
O O2 0.175578 0.532613 0.332195
O O3 0.144899 0.491711 0.435294
O O4 0.314718 0.530538 0.395572
O O5 0.823244 0.250000 0.734688
O O6 0.788866 0.521428 0.769555
O O7 0.953898 0.444174 0.739725
O O8 0.084047 0.250000 0.737350
O O9 0.087157 0.455951 0.808749
O O10 0.119304 0.528199 0.709076
O O11 0.500000 0.500000 0.500000
O O12 0.552342 0.250000 0.454368
O O13 0.654151 0.490687 0.447519
O O14 0.494899 0.482081 0.399304
O O15 0.589221 0.250000 0.015237
O O16 0.500000 0.500000 0.000000
O O17 0.668908 0.463678 0.964116
O O18 0.769522 0.250000 0.927268
O O19 0.736416 0.015061 0.867834
O O20 0.927800 0.750000 0.120817
O O21 0.275420 0.250000 0.176148
#
# Coordination Sequence:
#
# PCOD9465201 Si02
#       8
#     8   8   8   8   8   8   8   8
#     4  10  21  39  64  94 128 167 215 263 313 375
#     4  10  21  40  66  94 127 173 220 260 311 383
#     4  10  21  39  64  91 124 168 214 257 310 381
#     4  12  25  41  65  97 131 166 209 262 322 385
#     4  11  26  45  67  93 124 166 215 268 323 380
#     4  11  25  46  68  91 125 172 220 265 320 386
#     4  10  20  38  64  94 129 171 213 260 317 380
#     4  12  25  40  63  97 134 168 208 266 324 377
#
# _framework density 19.369488
#
# number of rings (size 3 to 8) (size 9 to 14) (size 15 to 20)
#    0.000    1.250    1.250    4.500    1.750    7.000 
#    0.000    0.000    0.000    0.000    0.000    0.000 
#    0.000    0.000    0.000    0.000    0.000    0.000 
#
# Total GULP energy -358071.130993 kJ/mol
# GULP energy per Si atom -5594.861422 kJ/mol
# Density = 1.932540 g / cm^3
# Si number density = 19.369488 Si / 1000 Ang^3
#
#
#
# Elastic Constant Matrix: (Units=GPa)
#
#
# Indices 1 2 3 4 5 6 
#
# 1 180.4121 145.4010 4.6389 0.0000 0.0000 0.0000
# 2 145.4010 233.0035 -42.4348 0.0000 0.0000 0.0000
# 3 4.6389 -42.4348 169.1042 0.0000 0.0000 0.0000
# 4 0.0000 0.0000 0.0000 28.6424 0.0000 0.0000
# 5 0.0000 0.0000 0.0000 0.0000 32.6023 0.0000
# 6 0.0000 0.0000 0.0000 0.0000 0.0000 34.2226
#
#
#
# Elastic Compliance Matrix: (Units=1/GPa)
#
#
# Indices 1 2 3 4 5 6 
#
# 1 0.011951 -0.007877 -0.002305 0.000000 0.000000 0.000000
# 2 -0.007877 0.009690 0.002648 0.000000 0.000000 0.000000
# 3 -0.002305 0.002648 0.006641 0.000000 0.000000 0.000000
# 4 0.000000 0.000000 0.000000 0.034913 0.000000 0.000000
# 5 0.000000 0.000000 0.000000 0.000000 0.030673 0.000000
# 6 0.000000 0.000000 0.000000 0.000000 0.000000 0.029220
#
#
# Mechanical properties :
#
#
# Convention : Reuss Voigt Hill
#
# Bulk Modulus (GPa) = 75.68337 88.63664 82.16001
# Shear Modulus (GPa) = 35.07272 50.75443 42.91358
#
# Velocity S-wave (km/s) = 4.25987 5.12447 4.71204
# Velocity P-wave (km/s) = 7.95950 8.99299 8.49198
#
# Compressibility (1/GPa) = 0.01321294
#
# Stress axis : x y z
#
# Youngs Moduli (GPa) = 83.67663 103.20290 150.57701
#
# Poissons Ratio (x) = 0.81296 0.34701
# Poissons Ratio (y) = 0.65915 -0.39867
# Poissons Ratio (z) = 0.19284 -0.27324
#
# Static dielectric constant tensor:
#      x y z
#    x 1.654680 0.000000 0.000000 
#    y 0.000000 1.649410 0.000000 
#    z 0.000000 0.000000 1.641580 
# 
# From -- ./inp_files/29797.got.cif
#   From: 2010.05.17/outbox.cif.g08.bks.cpg/sg62_15_cif.got.tgz:29797.got - 2010.06.03 15:25:27.
