data_PCOD9465972
_publ_section_title
;
Structure prediction by ZEFSAII (Michael W. Deem and Ramdas Pophale) SiO2 
 PCOD9465972
Probable space group: P N M A
;
_chemical_formula_sum "Si O2"
_cell_formula_units_Z 32
_cell_length_a 9.446126
_cell_length_b 19.080614
_cell_length_c 9.442837
_cell_angle_alpha 90.000000
_cell_angle_beta 90.000000
_cell_angle_gamma 90.000000
_cell_volume 1701.956960
_symmetry_space_group_name_H-M "P N M A"
_symmetry_group_IT_number 62
_symmetry_cell_setting 'orthorhombic'
loop_
_space_group_symop_operation_xyz
x,y,z
1/2-x,-y,1/2+z
1/2+x,1/2-y,1/2-z
-x,1/2+y,-z
-x,-y,-z
1/2+x,y,1/2-z
1/2-x,1/2+y,1/2+z
x,1/2-y,z
loop_
_atom_site_type_symbol
_atom_site_label
_atom_site_fract_x
_atom_site_fract_y
_atom_site_fract_z
Si Si1 0.857888 0.543898 0.521632
Si Si2 0.273977 0.668092 0.165021
Si Si3 0.887592 0.966782 0.845508
Si Si4 0.467131 0.891886 0.393102
O O1 0.856748 0.619787 0.448054
O O2 0.735501 0.500916 0.441245
O O3 0.835267 0.550839 0.689512
O O4 0.000000 0.500000 0.500000
O O5 0.300767 0.750000 0.149095
O O6 0.332400 0.641115 0.316082
O O7 0.107841 0.651411 0.145034
O O8 0.947586 0.903127 0.939062
O O9 0.003083 0.029288 0.835391
#
# Coordination Sequence:
#
# PCOD9465972 Si02
#       4
#     8   8   8   8
#     4  11  22  37  66  94 122 158 209 260 312 369
#     4  11  23  40  60  89 126 167 205 253 320 384
#     4  10  21  38  62  94 117 157 206 264 308 357
#     4  10  21  38  63  86 122 156 205 258 309 368
#
# _framework density 18.801884999999999
#
# number of rings (size 3 to 8) (size 9 to 14) (size 15 to 20)
#    0.000    1.500    2.500    3.750    7.000    0.000 
#    0.000    2.500    0.000    0.000    0.000    0.000 
#    0.000    0.000    0.000    0.000    0.000    0.000 
#
# Total GULP energy -178702.437621 kJ/mol
# GULP energy per Si atom -5584.451176 kJ/mol
# Density = 1.875909 g / cm^3
# Si number density = 18.801885 Si / 1000 Ang^3
#
#
#
# Elastic Constant Matrix: (Units=GPa)
#
#
# Indices 1 2 3 4 5 6 
#
# 1 81.0916 40.4700 27.8898 0.0000 0.0000 0.0000
# 2 40.4700 108.2473 49.3534 0.0000 0.0000 0.0000
# 3 27.8898 49.3534 145.4365 0.0000 0.0000 0.0000
# 4 0.0000 0.0000 0.0000 14.8129 0.0000 0.0000
# 5 0.0000 0.0000 0.0000 0.0000 30.3316 0.0000
# 6 0.0000 0.0000 0.0000 0.0000 0.0000 21.4053
#
#
#
# Elastic Compliance Matrix: (Units=1/GPa)
#
#
# Indices 1 2 3 4 5 6 
#
# 1 0.015329 -0.005194 -0.001177 0.000000 0.000000 0.000000
# 2 -0.005194 0.012689 -0.003310 0.000000 0.000000 0.000000
# 3 -0.001177 -0.003310 0.008225 0.000000 0.000000 0.000000
# 4 0.000000 0.000000 0.000000 0.067509 0.000000 0.000000
# 5 0.000000 0.000000 0.000000 0.000000 0.032969 0.000000
# 6 0.000000 0.000000 0.000000 0.000000 0.000000 0.046717
#
#
# Mechanical properties :
#
#
# Convention : Reuss Voigt Hill
#
# Bulk Modulus (GPa) = 59.24009 63.35577 61.29793
# Shear Modulus (GPa) = 23.98921 27.78077 25.88499
#
# Velocity S-wave (km/s) = 3.57584 3.84806 3.71445
# Velocity P-wave (km/s) = 6.97315 7.31527 7.14625
#
# Compressibility (1/GPa) = 0.01688046
#
# Stress axis : x y z
#
# Youngs Moduli (GPa) = 65.23656 78.80716 121.58423
#
# Poissons Ratio (x) = 0.40935 0.14309
# Poissons Ratio (y) = 0.33886 0.40244
# Poissons Ratio (z) = 0.07677 0.26085
#
# Static dielectric constant tensor:
#      x y z
#    x 1.700660 0.000000 0.000000 
#    y 0.000000 1.633250 0.000000 
#    z 0.000000 0.000000 1.680430 
# 
# From -- ./inp_files/11132.got.cif
#   From: 2010.05.17/outbox.cif.g08.bks.cpg/sg62_6_cif.got.tgz:11132.got - 2010.06.03 15:25:27.
