data_PCOD9465487
_publ_section_title
;
Structure prediction by ZEFSAII (Michael W. Deem and Ramdas Pophale) SiO2 
 PCOD9465487
Probable space group: P N M A
;
_chemical_formula_sum "Si O2"
_cell_formula_units_Z 64
_cell_length_a 8.197243
_cell_length_b 33.113575
_cell_length_c 10.278108
_cell_angle_alpha 90.000000
_cell_angle_beta 90.000000
_cell_angle_gamma 90.000000
_cell_volume 2789.889850
_symmetry_space_group_name_H-M "P N M A"
_symmetry_group_IT_number 62
_symmetry_cell_setting 'orthorhombic'
loop_
_space_group_symop_operation_xyz
x,y,z
1/2-x,-y,1/2+z
1/2+x,1/2-y,1/2-z
-x,1/2+y,-z
-x,-y,-z
1/2+x,y,1/2-z
1/2-x,1/2+y,1/2+z
x,1/2-y,z
loop_
_atom_site_type_symbol
_atom_site_label
_atom_site_fract_x
_atom_site_fract_y
_atom_site_fract_z
Si Si1 0.587115 0.795789 0.179057
Si Si2 0.703285 0.453338 0.552363
Si Si3 0.542221 0.442147 0.072542
Si Si4 0.093831 0.970466 0.849397
Si Si5 0.051832 0.155434 0.442683
Si Si6 0.444130 0.704713 0.440696
Si Si7 0.826878 0.141612 0.214496
Si Si8 0.899624 0.879079 0.935697
O O1 0.520156 0.750000 0.169318
O O2 0.773644 0.794176 0.136747
O O3 0.572071 0.807670 0.329435
O O4 0.498469 0.824496 0.076177
O O5 0.897386 0.457506 0.525563
O O6 0.636669 0.481459 0.666198
O O7 0.573439 0.465230 0.435826
O O8 0.665855 0.405123 0.553996
O O9 0.731203 0.457602 0.081376
O O10 0.456903 0.453499 0.209445
O O11 0.549995 0.393453 0.050104
O O12 0.932191 0.165091 0.321250
O O13 0.224604 0.168522 0.384272
O O14 0.477220 0.750000 0.490872
O O15 0.416376 0.668514 0.539662
O O16 0.712789 0.115927 0.309966
O O17 0.924053 0.111462 0.120652
#
# Coordination Sequence:
#
# PCOD9465487 Si02
#       8
#     8   8   8   8   8   8   8   8
#     4  10  22  41  63  89 123 165 212 257 305 370
#     4  11  23  39  61  88 123 160 206 257 310 371
#     4  12  20  39  65  85 122 163 208 255 318 376
#     4  11  24  38  60  90 119 163 205 256 311 375
#     4  11  20  38  63  96 117 165 210 256 310 381
#     4  10  22  42  64  87 124 167 207 255 307 367
#     4  10  21  34  64  92 125 154 206 255 315 373
#     4  11  21  41  62  96 121 163 207 256 314 379
#
# _framework density 22.939972999999998
#
# number of rings (size 3 to 8) (size 9 to 14) (size 15 to 20)
#    0.000    1.250    3.750    3.375    1.750    0.000 
#    0.000    7.500    0.000    0.000    0.000    0.000 
#    0.000    0.000    0.000    0.000    0.000    0.000 
#
# Total GULP energy -356509.194959 kJ/mol
# GULP energy per Si atom -5570.456171 kJ/mol
# Density = 2.288776 g / cm^3
# Si number density = 22.939973 Si / 1000 Ang^3
#
#
#
# Elastic Constant Matrix: (Units=GPa)
#
#
# Indices 1 2 3 4 5 6 
#
# 1 120.8514 8.4678 3.4830 0.0000 0.0000 0.0000
# 2 8.4678 64.5677 15.2962 0.0000 0.0000 0.0000
# 3 3.4830 15.2962 26.0762 0.0000 0.0000 0.0000
# 4 0.0000 0.0000 0.0000 32.9584 0.0000 0.0000
# 5 0.0000 0.0000 0.0000 0.0000 28.5495 0.0000
# 6 0.0000 0.0000 0.0000 0.0000 0.0000 25.7865
#
#
#
# Elastic Compliance Matrix: (Units=1/GPa)
#
#
# Indices 1 2 3 4 5 6 
#
# 1 0.008358 -0.000966 -0.000550 0.000000 0.000000 0.000000
# 2 -0.000966 0.018099 -0.010488 0.000000 0.000000 0.000000
# 3 -0.000550 -0.010488 0.044575 0.000000 0.000000 0.000000
# 4 0.000000 0.000000 0.000000 0.030341 0.000000 0.000000
# 5 0.000000 0.000000 0.000000 0.000000 0.035027 0.000000
# 6 0.000000 0.000000 0.000000 0.000000 0.000000 0.038780
#
#
# Mechanical properties :
#
#
# Convention : Reuss Voigt Hill
#
# Bulk Modulus (GPa) = 21.26535 29.55437 25.40986
# Shear Modulus (GPa) = 23.27079 29.74208 26.50644
#
# Velocity S-wave (km/s) = 3.18845 3.60463 3.40291
# Velocity P-wave (km/s) = 4.77965 5.49870 5.15174
#
# Compressibility (1/GPa) = 0.04702486
#
# Stress axis : x y z
#
# Youngs Moduli (GPa) = 119.64375 55.25218 22.43427
#
# Poissons Ratio (x) = 0.05337 0.01233
# Poissons Ratio (y) = 0.11556 0.23528
# Poissons Ratio (z) = 0.06578 0.57947
#
# Static dielectric constant tensor:
#      x y z
#    x 2.006250 0.000000 0.000000 
#    y 0.000000 2.004400 0.000000 
#    z 0.000000 0.000000 1.815060 
# 
# From -- ./inp_files/11546.got.cif
#   From: 2010.05.17/outbox.cif.g08.bks.cpg/sg62_6_cif.got.tgz:11546.got - 2010.06.03 15:25:27.
