data_PCOD9465208
_publ_section_title
;
Structure prediction by ZEFSAII (Michael W. Deem and Ramdas Pophale) SiO2 
 PCOD9465208
Probable space group: P N M A
;
_chemical_formula_sum "Si O2"
_cell_formula_units_Z 48
_cell_length_a 13.809247
_cell_length_b 15.351340
_cell_length_c 12.045726
_cell_angle_alpha 90.000000
_cell_angle_beta 90.000000
_cell_angle_gamma 90.000000
_cell_volume 2553.578825
_symmetry_space_group_name_H-M "P N M A"
_symmetry_group_IT_number 62
_symmetry_cell_setting 'orthorhombic'
loop_
_space_group_symop_operation_xyz
x,y,z
1/2-x,-y,1/2+z
1/2+x,1/2-y,1/2-z
-x,1/2+y,-z
-x,-y,-z
1/2+x,y,1/2-z
1/2-x,1/2+y,1/2+z
x,1/2-y,z
loop_
_atom_site_type_symbol
_atom_site_label
_atom_site_fract_x
_atom_site_fract_y
_atom_site_fract_z
Si Si1 0.731135 0.750000 0.559566
Si Si2 0.214936 0.415828 0.309150
Si Si3 0.505640 0.415205 0.074615
Si Si4 0.693155 0.853238 0.897073
Si Si5 0.855017 0.250000 0.812183
Si Si6 0.914186 0.750000 0.197361
Si Si7 0.252896 0.615934 0.349774
Si Si8 0.437309 0.750000 0.045835
O O1 0.722127 0.840450 0.627822
O O2 0.679798 0.750000 0.440017
O O3 0.844195 0.750000 0.530949
O O4 0.104549 0.415226 0.355078
O O5 0.221968 0.389663 0.180529
O O6 0.254503 0.513432 0.325252
O O7 0.406152 0.400648 0.140245
O O8 0.500000 0.500000 0.000000
O O9 0.505743 0.335325 0.987789
O O10 0.684625 0.750000 0.881554
O O11 0.712058 0.872009 0.026209
O O12 0.813078 0.167704 0.741238
O O13 0.971112 0.250000 0.818326
O O14 0.856218 0.834443 0.153901
O O15 0.902365 0.750000 0.329699
#
# Coordination Sequence:
#
# PCOD9465208 Si02
#       8
#     4   8   8   8   4   4   8   4
#     4  10  22  44  58  92 131 167 208 271 328 386
#     4  11  26  41  67  97 132 169 218 278 331 377
#     4  11  23  40  68  98 122 173 227 264 320 393
#     4  12  23  44  64  94 138 169 219 274 325 395
#     4  11  23  41  67  91 133 171 217 264 327 400
#     4  11  23  39  64  94 126 168 214 270 329 381
#     4  11  24  42  66  98 126 174 220 271 326 387
#     4  10  20  38  65  89 124 160 215 269 308 375
#
# _framework density 18.797149000000001
#
# number of rings (size 3 to 8) (size 9 to 14) (size 15 to 20)
#    0.000    1.000    6.667    1.000    4.667    0.000 
#    3.000    0.833    0.000    0.000    0.000    0.000 
#    0.000    0.000    0.000    0.000    0.000    0.000 
#
# Total GULP energy -267725.243660 kJ/mol
# GULP energy per Si atom -5577.609243 kJ/mol
# Density = 1.875437 g / cm^3
# Si number density = 18.797149 Si / 1000 Ang^3
#
#
#
# Elastic Constant Matrix: (Units=GPa)
#
#
# Indices 1 2 3 4 5 6 
#
# 1 92.4092 56.5688 34.4078 0.0000 0.0000 0.0000
# 2 56.5688 156.7820 41.9410 0.0000 0.0000 0.0000
# 3 34.4078 41.9410 88.2136 0.0000 0.0000 0.0000
# 4 0.0000 0.0000 0.0000 31.5771 0.0000 0.0000
# 5 0.0000 0.0000 0.0000 0.0000 31.0560 0.0000
# 6 0.0000 0.0000 0.0000 0.0000 0.0000 10.8420
#
#
#
# Elastic Compliance Matrix: (Units=1/GPa)
#
#
# Indices 1 2 3 4 5 6 
#
# 1 0.014887 -0.004374 -0.003727 0.000000 0.000000 0.000000
# 2 -0.004374 0.008593 -0.002379 0.000000 0.000000 0.000000
# 3 -0.003727 -0.002379 0.013921 0.000000 0.000000 0.000000
# 4 0.000000 0.000000 0.000000 0.031669 0.000000 0.000000
# 5 0.000000 0.000000 0.000000 0.000000 0.032200 0.000000
# 6 0.000000 0.000000 0.000000 0.000000 0.000000 0.092234
#
#
# Mechanical properties :
#
#
# Convention : Reuss Voigt Hill
#
# Bulk Modulus (GPa) = 60.82774 67.02668 63.92721
# Shear Modulus (GPa) = 22.73296 28.32749 25.53023
#
# Velocity S-wave (km/s) = 3.48139 3.88623 3.68937
# Velocity P-wave (km/s) = 6.97069 7.47478 7.22713
#
# Compressibility (1/GPa) = 0.01643987
#
# Stress axis : x y z
#
# Youngs Moduli (GPa) = 67.17314 116.37222 71.83373
#
# Poissons Ratio (x) = 0.50906 0.26771
# Poissons Ratio (y) = 0.29384 0.17092
# Poissons Ratio (z) = 0.25034 0.27689
#
# Static dielectric constant tensor:
#      x y z
#    x 1.715450 0.000000 0.000000 
#    y 0.000000 1.671690 0.000000 
#    z 0.000000 0.000000 1.655800 
# 
# From -- ./inp_files/13327.got.cif
#   From: 2010.05.17/outbox.cif.g08.bks.cpg/sg62_7_cif.got.tgz:13327.got - 2010.06.03 15:25:27.
