data_PCOD9465422
_publ_section_title
;
Structure prediction by ZEFSAII (Michael W. Deem and Ramdas Pophale) SiO2 
 PCOD9465422
Probable space group: P N M A
;
_chemical_formula_sum "Si O2"
_cell_formula_units_Z 56
_cell_length_a 32.681626
_cell_length_b 13.102205
_cell_length_c 5.126321
_cell_angle_alpha 90.000000
_cell_angle_beta 90.000000
_cell_angle_gamma 90.000000
_cell_volume 2195.097642
_symmetry_space_group_name_H-M "P N M A"
_symmetry_group_IT_number 62
_symmetry_cell_setting 'orthorhombic'
loop_
_space_group_symop_operation_xyz
x,y,z
1/2-x,-y,1/2+z
1/2+x,1/2-y,1/2-z
-x,1/2+y,-z
-x,-y,-z
1/2+x,y,1/2-z
1/2-x,1/2+y,1/2+z
x,1/2-y,z
loop_
_atom_site_type_symbol
_atom_site_label
_atom_site_fract_x
_atom_site_fract_y
_atom_site_fract_z
Si Si1 0.996607 0.372087 0.311366
Si Si2 0.108945 0.474480 0.439294
Si Si3 0.579706 0.866388 0.452435
Si Si4 0.168106 0.361796 0.111333
Si Si5 0.047517 0.127987 0.804749
Si Si6 0.751016 0.930849 0.631104
Si Si7 0.164036 0.927465 0.797752
O O1 0.994313 0.250000 0.335572
O O2 0.012076 0.404202 0.597198
O O3 0.953991 0.397007 0.168214
O O4 0.031290 0.393247 0.093506
O O5 0.081104 0.554172 0.283470
O O6 0.126468 0.381165 0.272186
O O7 0.087639 0.426774 0.692870
O O8 0.148679 0.543167 0.510594
O O9 0.570728 0.750000 0.367955
O O10 0.625154 0.872036 0.575564
O O11 0.167560 0.250000 0.985554
O O12 0.208164 0.370048 0.295881
O O13 0.169748 0.461052 0.929422
O O14 0.053283 0.250000 0.786427
O O15 0.707740 0.874994 0.679376
O O16 0.750945 0.975355 0.339687
#
# Coordination Sequence:
#
# PCOD9465422 Si02
#       7
#     8   8   8   8   8   8   8
#     4   9  21  41  62  91 130 172 216 268 323 387
#     4  11  23  40  63  95 128 170 215 273 326 387
#     4  10  24  43  64  89 124 172 224 274 328 384
#     4  10  22  40  65  97 131 172 214 262 328 392
#     4  10  22  39  63  94 132 170 211 266 328 393
#     4  10  20  42  66  90 130 171 212 261 318 380
#     4  10  23  41  65  94 132 170 210 274 323 387
#
# _framework density 25.511393999999999
#
# number of rings (size 3 to 8) (size 9 to 14) (size 15 to 20)
#    0.000    2.000    1.429    0.429    6.000    3.429 
#    0.000    0.000    0.000    0.000    0.000    0.000 
#    0.000    0.000    0.000    0.000    0.000    0.000 
#
# Total GULP energy -313436.661121 kJ/mol
# GULP energy per Si atom -5597.083234 kJ/mol
# Density = 2.545333 g / cm^3
# Si number density = 25.511394 Si / 1000 Ang^3
#
#
#
# Elastic Constant Matrix: (Units=GPa)
#
#
# Indices 1 2 3 4 5 6 
#
# 1 155.3521 21.6175 20.0453 0.0000 0.0000 0.0000
# 2 21.6175 113.7594 7.2674 0.0000 0.0000 0.0000
# 3 20.0453 7.2674 79.7392 0.0000 0.0000 0.0000
# 4 0.0000 0.0000 0.0000 13.0304 0.0000 0.0000
# 5 0.0000 0.0000 0.0000 0.0000 53.7289 0.0000
# 6 0.0000 0.0000 0.0000 0.0000 0.0000 18.2046
#
#
#
# Elastic Compliance Matrix: (Units=1/GPa)
#
#
# Indices 1 2 3 4 5 6 
#
# 1 0.006810 -0.001192 -0.001603 0.000000 0.000000 0.000000
# 2 -0.001192 0.009050 -0.000525 0.000000 0.000000 0.000000
# 3 -0.001603 -0.000525 0.012992 0.000000 0.000000 0.000000
# 4 0.000000 0.000000 0.000000 0.076744 0.000000 0.000000
# 5 0.000000 0.000000 0.000000 0.000000 0.018612 0.000000
# 6 0.000000 0.000000 0.000000 0.000000 0.000000 0.054931
#
#
# Mechanical properties :
#
#
# Convention : Reuss Voigt Hill
#
# Bulk Modulus (GPa) = 45.02150 49.63458 47.32804
# Shear Modulus (GPa) = 25.88222 36.98749 31.43485
#
# Velocity S-wave (km/s) = 3.18863 3.81181 3.51406
# Velocity P-wave (km/s) = 5.58949 6.23468 5.92088
#
# Compressibility (1/GPa) = 0.02221161
#
# Stress axis : x y z
#
# Youngs Moduli (GPa) = 146.84996 110.49137 76.97169
#
# Poissons Ratio (x) = 0.13166 0.12340
# Poissons Ratio (y) = 0.17499 0.04043
# Poissons Ratio (z) = 0.23544 0.05804
#
# Static dielectric constant tensor:
#      x y z
#    x 2.079900 0.000000 0.000000 
#    y 0.000000 1.993440 0.000000 
#    z 0.000000 0.000000 2.018870 
# 
# From -- ./inp_files/3612.got.cif
#   From: 2010.05.17/outbox.cif.g08.bks.cpg/sg62_2_cif.got.tgz:3612.got - 2010.06.03 15:25:27.
