data_PCOD9465961
_publ_section_title
;
Structure prediction by ZEFSAII (Michael W. Deem and Ramdas Pophale) SiO2 
 PCOD9465961
Probable space group: P N M A
;
_chemical_formula_sum "Si O2"
_cell_formula_units_Z 48
_cell_length_a 28.920318
_cell_length_b 8.764748
_cell_length_c 9.648761
_cell_angle_alpha 90.000000
_cell_angle_beta 90.000000
_cell_angle_gamma 90.000000
_cell_volume 2445.761178
_symmetry_space_group_name_H-M "P N M A"
_symmetry_group_IT_number 62
_symmetry_cell_setting 'orthorhombic'
loop_
_space_group_symop_operation_xyz
x,y,z
1/2-x,-y,1/2+z
1/2+x,1/2-y,1/2-z
-x,1/2+y,-z
-x,-y,-z
1/2+x,y,1/2-z
1/2-x,1/2+y,1/2+z
x,1/2-y,z
loop_
_atom_site_type_symbol
_atom_site_label
_atom_site_fract_x
_atom_site_fract_y
_atom_site_fract_z
Si Si1 0.012311 0.068302 0.647495
Si Si2 0.697957 0.934334 0.992875
Si Si3 0.113340 0.932863 0.687354
Si Si4 0.720712 0.565724 0.308193
Si Si5 0.134167 0.932503 0.997947
Si Si6 0.961369 0.931390 0.898985
O O1 0.010469 0.250000 0.648467
O O2 0.063865 0.013808 0.687693
O O3 0.000000 0.000000 0.500000
O O4 0.974682 0.000860 0.751929
O O5 0.699433 0.750000 0.990990
O O6 0.710833 0.983992 0.149423
O O7 0.646829 0.978863 0.939013
O O8 0.734306 0.996147 0.880673
O O9 0.105467 0.750000 0.679274
O O10 0.138734 0.963996 0.833956
O O11 0.724744 0.750000 0.307189
O O12 0.677863 0.524746 0.408545
O O13 0.127288 0.750000 0.012354
O O14 0.088706 0.016476 0.051427
O O15 0.964941 0.750000 0.897665
O O16 0.000000 0.000000 0.000000
#
# Coordination Sequence:
#
# PCOD9465961 Si02
#       6
#     8   8   8   8   8   8
#     4  12  26  43  64  92 128 168 212 263 316 374
#     4  10  22  40  63  92 125 163 206 256 312 371
#     4  10  21  39  62  89 124 165 210 259 314 372
#     4  10  22  40  63  93 125 163 206 255 312 371
#     4  10  21  38  62  90 124 165 210 259 313 370
#     4  12  24  41  64  94 128 168 214 259 311 371
#
# _framework density 19.625791
#
# number of rings (size 3 to 8) (size 9 to 14) (size 15 to 20)
#    0.000    1.333    1.667    4.000    2.333    3.333 
#    0.000    0.000    0.000    0.000    0.000    0.000 
#    0.000    0.000    0.000    0.000    0.000    0.000 
#
# Total GULP energy -268318.760099 kJ/mol
# GULP energy per Si atom -5589.974169 kJ/mol
# Density = 1.958112 g / cm^3
# Si number density = 19.625791 Si / 1000 Ang^3
#
#
#
# Elastic Constant Matrix: (Units=GPa)
#
#
# Indices 1 2 3 4 5 6 
#
# 1 63.8392 27.4608 5.9272 0.0000 0.0000 0.0000
# 2 27.4608 46.9402 24.6868 0.0000 0.0000 0.0000
# 3 5.9272 24.6868 107.3549 0.0000 0.0000 0.0000
# 4 0.0000 0.0000 0.0000 28.2672 0.0000 0.0000
# 5 0.0000 0.0000 0.0000 0.0000 41.7109 0.0000
# 6 0.0000 0.0000 0.0000 0.0000 0.0000 36.2869
#
#
#
# Elastic Compliance Matrix: (Units=1/GPa)
#
#
# Indices 1 2 3 4 5 6 
#
# 1 0.021274 -0.013455 0.001920 0.000000 0.000000 0.000000
# 2 -0.013455 0.032745 -0.006787 0.000000 0.000000 0.000000
# 3 0.001920 -0.006787 0.010770 0.000000 0.000000 0.000000
# 4 0.000000 0.000000 0.000000 0.035377 0.000000 0.000000
# 5 0.000000 0.000000 0.000000 0.000000 0.023975 0.000000
# 6 0.000000 0.000000 0.000000 0.000000 0.000000 0.027558
#
#
# Mechanical properties :
#
#
# Convention : Reuss Voigt Hill
#
# Bulk Modulus (GPa) = 35.53274 37.14266 36.33770
# Shear Modulus (GPa) = 25.28781 31.92362 28.60572
#
# Velocity S-wave (km/s) = 3.59346 4.03751 3.82194
# Velocity P-wave (km/s) = 5.94657 6.37980 6.16699
#
# Compressibility (1/GPa) = 0.02814306
#
# Stress axis : x y z
#
# Youngs Moduli (GPa) = 47.00579 30.53941 92.85399
#
# Poissons Ratio (x) = 0.41091 -0.17824
# Poissons Ratio (y) = 0.63247 0.63019
# Poissons Ratio (z) = -0.09023 0.20727
#
# Static dielectric constant tensor:
#      x y z
#    x 1.608850 0.000000 0.000000 
#    y 0.000000 1.657430 0.000000 
#    z 0.000000 0.000000 1.595180 
# 
# From -- ./inp_files/10238.got.cif
#   From: 2010.05.17/outbox.cif.g08.bks.cpg/sg62_6_cif.got.tgz:10238.got - 2010.06.03 15:25:27.
