data_PCOD9465082
_publ_section_title
;
Structure prediction by ZEFSAII (Michael W. Deem and Ramdas Pophale) SiO2 
 PCOD9465082
Probable space group: P N M A
;
_chemical_formula_sum "Si O2"
_cell_formula_units_Z 48
_cell_length_a 28.295542
_cell_length_b 10.353545
_cell_length_c 8.551966
_cell_angle_alpha 90.000000
_cell_angle_beta 90.000000
_cell_angle_gamma 90.000000
_cell_volume 2505.376839
_symmetry_space_group_name_H-M "P N M A"
_symmetry_group_IT_number 62
_symmetry_cell_setting 'orthorhombic'
loop_
_space_group_symop_operation_xyz
x,y,z
1/2-x,-y,1/2+z
1/2+x,1/2-y,1/2-z
-x,1/2+y,-z
-x,-y,-z
1/2+x,y,1/2-z
1/2-x,1/2+y,1/2+z
x,1/2-y,z
loop_
_atom_site_type_symbol
_atom_site_label
_atom_site_fract_x
_atom_site_fract_y
_atom_site_fract_z
Si Si1 0.103715 0.510932 0.998971
Si Si2 0.041048 0.750000 0.961497
Si Si3 0.295306 0.102279 0.439777
Si Si4 0.896769 0.974039 0.376045
Si Si5 0.433470 0.250000 0.088969
Si Si6 0.935333 0.750000 0.871097
Si Si7 0.294565 0.896160 0.164232
Si Si8 0.039225 0.250000 0.493590
O O1 0.065034 0.621838 0.031374
O O2 0.156196 0.565051 0.027845
O O3 0.101705 0.481405 0.812818
O O4 0.092734 0.379371 0.087441
O O5 0.054490 0.750000 0.775843
O O6 0.984572 0.750000 0.968469
O O7 0.300773 0.250000 0.382471
O O8 0.249671 0.095291 0.549053
O O9 0.289846 0.002557 0.298465
O O10 0.844856 0.922267 0.418719
O O11 0.936939 0.876082 0.431675
O O12 0.905630 0.117747 0.439749
O O13 0.482714 0.250000 0.996248
O O14 0.948330 0.750000 0.689558
O O15 0.296294 0.750000 0.229446
#
# Coordination Sequence:
#
# PCOD9465082 Si02
#       8
#     8   4   8   8   4   4   8   4
#     4  10  20  38  60  84 110 155 194 230 280 343
#     4   9  18  37  58  83 114 148 193 241 276 333
#     4  10  22  40  62  87 115 149 189 236 284 339
#     4  10  20  38  61  82 112 153 192 233 279 343
#     4   9  20  35  60  85 110 150 197 233 284 339
#     4  11  23  33  56  87 118 150 191 233 288 331
#     4  10  22  39  61  89 115 147 191 234 284 340
#     4  11  21  37  54  85 122 148 187 243 284 329
#
# _framework density 19.158794
#
# number of rings (size 3 to 8) (size 9 to 14) (size 15 to 20)
#    0.000    2.000    1.667    1.500    7.000    2.000 
#    0.000    2.500    0.000    0.000    0.000    0.000 
#    0.000    0.000    0.000    0.000    0.000    0.000 
#
# Total GULP energy -268057.317512 kJ/mol
# GULP energy per Si atom -5584.527448 kJ/mol
# Density = 1.911519 g / cm^3
# Si number density = 19.158794 Si / 1000 Ang^3
#
#
#
# Elastic Constant Matrix: (Units=GPa)
#
#
# Indices 1 2 3 4 5 6 
#
# 1 79.2643 46.7444 17.8058 0.0000 0.0000 0.0000
# 2 46.7444 168.4392 22.0257 0.0000 0.0000 0.0000
# 3 17.8058 22.0257 11.6304 0.0000 0.0000 0.0000
# 4 0.0000 0.0000 0.0000 16.0293 0.0000 0.0000
# 5 0.0000 0.0000 0.0000 0.0000 19.2338 0.0000
# 6 0.0000 0.0000 0.0000 0.0000 0.0000 35.8425
#
#
#
# Elastic Compliance Matrix: (Units=1/GPa)
#
#
# Indices 1 2 3 4 5 6 
#
# 1 0.019737 -0.002028 -0.026376 0.000000 0.000000 0.000000
# 2 -0.002028 0.008099 -0.012233 0.000000 0.000000 0.000000
# 3 -0.026376 -0.012233 0.149529 0.000000 0.000000 0.000000
# 4 0.000000 0.000000 0.000000 0.062386 0.000000 0.000000
# 5 0.000000 0.000000 0.000000 0.000000 0.051992 0.000000
# 6 0.000000 0.000000 0.000000 0.000000 0.000000 0.027900
#
#
# Mechanical properties :
#
#
# Convention : Reuss Voigt Hill
#
# Bulk Modulus (GPa) = 10.40679 48.05396 29.23038
# Shear Modulus (GPa) = 11.54874 25.73833 18.64354
#
# Velocity S-wave (km/s) = 2.45784 3.66925 3.12285
# Velocity P-wave (km/s) = 3.67400 6.56411 5.31911
#
# Compressibility (1/GPa) = 0.09609109
#
# Stress axis : x y z
#
# Youngs Moduli (GPa) = 50.66580 123.46530 6.68766
#
# Poissons Ratio (x) = 0.25044 0.17639
# Poissons Ratio (y) = 0.10277 0.08181
# Poissons Ratio (z) = 1.33634 1.51039
#
# Static dielectric constant tensor:
#      x y z
#    x 1.671550 0.000000 0.000000 
#    y 0.000000 1.654070 0.000000 
#    z 0.000000 0.000000 1.647020 
# 
# From -- ./inp_files/10341.got.cif
#   From: 2010.05.17/outbox.cif.g08.bks.cpg/sg62_6_cif.got.tgz:10341.got - 2010.06.03 15:25:27.
