data_PCOD9465633
_publ_section_title
;
Structure prediction by ZEFSAII (Michael W. Deem and Ramdas Pophale) SiO2 
 PCOD9465633
Probable space group: P N M A
;
_chemical_formula_sum "Si O2"
_cell_formula_units_Z 56
_cell_length_a 30.501550
_cell_length_b 16.352342
_cell_length_c 5.403232
_cell_angle_alpha 90.000000
_cell_angle_beta 90.000000
_cell_angle_gamma 90.000000
_cell_volume 2694.979627
_symmetry_space_group_name_H-M "P N M A"
_symmetry_group_IT_number 62
_symmetry_cell_setting 'orthorhombic'
loop_
_space_group_symop_operation_xyz
x,y,z
1/2-x,-y,1/2+z
1/2+x,1/2-y,1/2-z
-x,1/2+y,-z
-x,-y,-z
1/2+x,y,1/2-z
1/2-x,1/2+y,1/2+z
x,1/2-y,z
loop_
_atom_site_type_symbol
_atom_site_label
_atom_site_fract_x
_atom_site_fract_y
_atom_site_fract_z
Si Si1 0.695524 0.656729 0.090714
Si Si2 0.072499 0.501103 0.909311
Si Si3 0.172337 0.155497 0.374763
Si Si4 0.507435 0.072939 0.191369
Si Si5 0.789001 0.576509 0.121824
Si Si6 0.835743 0.411820 0.089633
Si Si7 0.576748 0.340095 0.929858
O O1 0.709897 0.750000 0.057719
O O2 0.738516 0.600581 0.100747
O O3 0.672363 0.645477 0.354991
O O4 0.665907 0.631488 0.856324
O O5 0.119405 0.539507 0.956500
O O6 0.079259 0.422349 0.732354
O O7 0.040092 0.574166 0.816953
O O8 0.044871 0.461906 0.129792
O O9 0.187112 0.250000 0.387027
O O10 0.191342 0.109544 0.617534
O O11 0.119480 0.155077 0.395787
O O12 0.187255 0.117195 0.115895
O O13 0.530007 0.150626 0.067064
O O14 0.500000 0.000000 0.000000
O O15 0.797811 0.480422 0.102344
O O16 0.579166 0.250000 0.805857
#
# Coordination Sequence:
#
# PCOD9465633 Si02
#       7
#     8   8   8   8   8   8   8
#     4  12  27  46  66  94 133 177 223 281 333 386
#     4  10  21  40  66  92 128 170 221 267 328 396
#     4  11  22  36  62  98 137 173 208 269 341 401
#     4   9  20  38  65  92 122 169 215 262 332 394
#     4  12  23  43  67  96 129 171 227 273 334 399
#     4  12  25  43  73  96 130 171 229 276 326 403
#     4  10  21  36  59  97 136 166 209 269 340 404
#
# _framework density 20.779378999999999
#
# number of rings (size 3 to 8) (size 9 to 14) (size 15 to 20)
#    0.000    1.143    1.429    5.143    4.000    0.571 
#    0.000    1.429    0.000    0.857    0.000    0.000 
#    0.000    0.000    0.000    0.000    0.000    0.000 
#
# Total GULP energy -312665.115447 kJ/mol
# GULP energy per Si atom -5583.305633 kJ/mol
# Density = 2.073208 g / cm^3
# Si number density = 20.779379 Si / 1000 Ang^3
#
#
#
# Elastic Constant Matrix: (Units=GPa)
#
#
# Indices 1 2 3 4 5 6 
#
# 1 82.6835 10.3251 4.2379 0.0000 0.0000 0.0000
# 2 10.3251 31.9196 19.2541 0.0000 0.0000 0.0000
# 3 4.2379 19.2541 84.0062 0.0000 0.0000 0.0000
# 4 0.0000 0.0000 0.0000 19.0530 0.0000 0.0000
# 5 0.0000 0.0000 0.0000 0.0000 31.5247 0.0000
# 6 0.0000 0.0000 0.0000 0.0000 0.0000 24.9223
#
#
#
# Elastic Compliance Matrix: (Units=1/GPa)
#
#
# Indices 1 2 3 4 5 6 
#
# 1 0.012612 -0.004289 0.000347 0.000000 0.000000 0.000000
# 2 -0.004289 0.037813 -0.008450 0.000000 0.000000 0.000000
# 3 0.000347 -0.008450 0.013823 0.000000 0.000000 0.000000
# 4 0.000000 0.000000 0.000000 0.052485 0.000000 0.000000
# 5 0.000000 0.000000 0.000000 0.000000 0.031721 0.000000
# 6 0.000000 0.000000 0.000000 0.000000 0.000000 0.040125
#
#
# Mechanical properties :
#
#
# Convention : Reuss Voigt Hill
#
# Bulk Modulus (GPa) = 25.33974 29.58261 27.46118
# Shear Modulus (GPa) = 22.07320 26.08616 24.07968
#
# Velocity S-wave (km/s) = 3.26278 3.54699 3.40785
# Velocity P-wave (km/s) = 5.13959 5.57156 5.35993
#
# Compressibility (1/GPa) = 0.03946370
#
# Stress axis : x y z
#
# Youngs Moduli (GPa) = 79.28892 26.44574 72.34219
#
# Poissons Ratio (x) = 0.11342 -0.02508
# Poissons Ratio (y) = 0.34005 0.61132
# Poissons Ratio (z) = -0.02749 0.22348
#
# Static dielectric constant tensor:
#      x y z
#    x 1.703620 0.000000 0.000000 
#    y 0.000000 1.687420 0.000000 
#    z 0.000000 0.000000 1.767410 
# 
# From -- ./inp_files/3603.got.cif
#   From: 2010.05.17/outbox.cif.g08.bks.cpg/sg62_2_cif.got.tgz:3603.got - 2010.06.03 15:25:27.
