data_PCOD9465419
_publ_section_title
;
Structure prediction by ZEFSAII (Michael W. Deem and Ramdas Pophale) SiO2 
 PCOD9465419
Probable space group: P N M A
;
_chemical_formula_sum "Si O2"
_cell_formula_units_Z 56
_cell_length_a 29.588005
_cell_length_b 15.092661
_cell_length_c 5.467429
_cell_angle_alpha 90.000000
_cell_angle_beta 90.000000
_cell_angle_gamma 90.000000
_cell_volume 2441.544548
_symmetry_space_group_name_H-M "P N M A"
_symmetry_group_IT_number 62
_symmetry_cell_setting 'orthorhombic'
loop_
_space_group_symop_operation_xyz
x,y,z
1/2-x,-y,1/2+z
1/2+x,1/2-y,1/2-z
-x,1/2+y,-z
-x,-y,-z
1/2+x,y,1/2-z
1/2-x,1/2+y,1/2+z
x,1/2-y,z
loop_
_atom_site_type_symbol
_atom_site_label
_atom_site_fract_x
_atom_site_fract_y
_atom_site_fract_z
Si Si1 0.110175 0.750000 0.131444
Si Si2 0.167919 0.750000 0.622293
Si Si3 0.794544 0.917577 0.425705
Si Si4 0.472846 0.562209 0.816538
Si Si5 0.356132 0.489685 0.453831
Si Si6 0.381333 0.851352 0.807073
Si Si7 0.557390 0.910562 0.557290
Si Si8 0.792691 0.096795 0.678294
O O1 0.144529 0.750000 0.890315
O O2 0.132176 0.750000 0.398615
O O3 0.077044 0.666904 0.104344
O O4 0.196676 0.661576 0.549299
O O5 0.836692 0.860818 0.525006
O O6 0.750345 0.867998 0.329330
O O7 0.781190 0.994464 0.616054
O O8 0.816520 0.976421 0.213628
O O9 0.429602 0.615607 0.915393
O O10 0.455870 0.494092 0.609217
O O11 0.513452 0.619920 0.702937
O O12 0.500000 0.500000 0.000000
O O13 0.371939 0.578057 0.593672
O O14 0.397702 0.446788 0.302723
O O15 0.336326 0.419041 0.648784
O O16 0.385756 0.750000 0.726472
#
# Coordination Sequence:
#
# PCOD9465419 Si02
#       8
#     4   4   8   8   8   8   8   8
#     4  12  26  44  70 105 145 187 229 294 368 419
#     4  12  28  44  68 107 145 179 237 302 356 421
#     4  11  22  40  66  92 126 182 226 282 350 422
#     4  10  22  42  68  98 130 181 234 286 351 421
#     4  10  20  42  65  88 128 171 226 273 351 416
#     4  10  24  41  61  95 135 175 225 284 341 422
#     4  10  22  40  67  96 132 178 227 289 349 423
#     4  11  23  40  65  96 131 176 233 287 352 426
#
# _framework density 22.936299999999999
#
# number of rings (size 3 to 8) (size 9 to 14) (size 15 to 20)
#    0.000    1.429    2.857    1.714    4.000    0.571 
#    1.286    0.000    0.000    0.000    0.000    0.000 
#    0.000    0.000    0.000    0.000    0.000    0.000 
#
# Total GULP energy -312363.843810 kJ/mol
# GULP energy per Si atom -5577.925782 kJ/mol
# Density = 2.288410 g / cm^3
# Si number density = 22.936300 Si / 1000 Ang^3
#
#
#
# Elastic Constant Matrix: (Units=GPa)
#
#
# Indices 1 2 3 4 5 6 
#
# 1 151.0430 39.1064 18.8836 0.0000 0.0000 0.0000
# 2 39.1064 62.8389 2.2309 0.0000 0.0000 0.0000
# 3 18.8836 2.2309 38.3931 0.0000 0.0000 0.0000
# 4 0.0000 0.0000 0.0000 17.9234 0.0000 0.0000
# 5 0.0000 0.0000 0.0000 0.0000 25.6334 0.0000
# 6 0.0000 0.0000 0.0000 0.0000 0.0000 12.2156
#
#
#
# Elastic Compliance Matrix: (Units=1/GPa)
#
#
# Indices 1 2 3 4 5 6 
#
# 1 0.008423 -0.005106 -0.003846 0.000000 0.000000 0.000000
# 2 -0.005106 0.019041 0.001405 0.000000 0.000000 0.000000
# 3 -0.003846 0.001405 0.027857 0.000000 0.000000 0.000000
# 4 0.000000 0.000000 0.000000 0.055793 0.000000 0.000000
# 5 0.000000 0.000000 0.000000 0.000000 0.039012 0.000000
# 6 0.000000 0.000000 0.000000 0.000000 0.000000 0.081862
#
#
# Mechanical properties :
#
#
# Convention : Reuss Voigt Hill
#
# Bulk Modulus (GPa) = 24.85910 41.41299 33.13605
# Shear Modulus (GPa) = 19.19451 23.95810 21.57631
#
# Velocity S-wave (km/s) = 2.89599 3.23546 3.07042
# Velocity P-wave (km/s) = 4.69513 5.66149 5.20080
#
# Compressibility (1/GPa) = 0.04022671
#
# Stress axis : x y z
#
# Youngs Moduli (GPa) = 118.71720 52.51783 35.89821
#
# Poissons Ratio (x) = 0.26813 0.13808
# Poissons Ratio (y) = 0.60612 -0.05043
# Poissons Ratio (z) = 0.45663 -0.07377
#
# Static dielectric constant tensor:
#      x y z
#    x 1.960080 0.000000 0.000000 
#    y 0.000000 1.882520 0.000000 
#    z 0.000000 0.000000 1.935400 
# 
# From -- ./inp_files/3629.got.cif
#   From: 2010.05.17/outbox.cif.g08.bks.cpg/sg62_2_cif.got.tgz:3629.got - 2010.06.03 15:25:27.
