data_PCOD9465204
_publ_section_title
;
Structure prediction by ZEFSAII (Michael W. Deem and Ramdas Pophale) SiO2 
 PCOD9465204
Probable space group: P N M A
;
_chemical_formula_sum "Si O2"
_cell_formula_units_Z 40
_cell_length_a 8.901987
_cell_length_b 10.904538
_cell_length_c 19.297596
_cell_angle_alpha 90.000000
_cell_angle_beta 90.000000
_cell_angle_gamma 90.000000
_cell_volume 1873.257310
_symmetry_space_group_name_H-M "P N M A"
_symmetry_group_IT_number 62
_symmetry_cell_setting 'orthorhombic'
loop_
_space_group_symop_operation_xyz
x,y,z
1/2-x,-y,1/2+z
1/2+x,1/2-y,1/2-z
-x,1/2+y,-z
-x,-y,-z
1/2+x,y,1/2-z
1/2-x,1/2+y,1/2+z
x,1/2-y,z
loop_
_atom_site_type_symbol
_atom_site_label
_atom_site_fract_x
_atom_site_fract_y
_atom_site_fract_z
Si Si1 0.621221 0.487661 0.689745
Si Si2 0.942707 0.116390 0.692776
Si Si3 0.104358 0.998523 0.067829
Si Si4 0.423254 0.612679 0.039813
Si Si5 0.309369 0.750000 0.644656
Si Si6 0.620886 0.750000 0.722740
O O1 0.528510 0.480953 0.760689
O O2 0.505250 0.454949 0.629410
O O3 0.679728 0.627026 0.685645
O O4 0.765856 0.403743 0.692854
O O5 0.978313 0.250000 0.723345
O O6 0.001865 0.112816 0.615285
O O7 0.168307 0.129667 0.096490
O O8 0.247481 0.915141 0.050979
O O9 0.000000 0.000000 0.000000
O O10 0.444847 0.750000 0.009316
O O11 0.500000 0.500000 0.000000
O O12 0.445216 0.750000 0.701164
O O13 0.165603 0.750000 0.695959
#
# Coordination Sequence:
#
# PCOD9465204 Si02
#       6
#     8   8   8   8   4   4
#     4  11  22  41  67 100 137 177 228 288 348 421
#     4  11  23  41  65  97 133 174 231 281 346 411
#     4  11  25  43  66  98 137 185 233 290 358 431
#     4  11  26  47  69  99 138 186 236 290 353 422
#     4  10  22  40  68 100 138 176 234 292 358 426
#     4  10  20  38  64  98 130 168 224 282 348 406
#
# _framework density 21.353180999999999
#
# number of rings (size 3 to 8) (size 9 to 14) (size 15 to 20)
#    0.000    1.200    0.000    6.600    2.800    3.200 
#    7.200    0.000    0.000    0.000    0.000    0.000 
#    0.000    0.000    0.000    0.000    0.000    0.000 
#
# Total GULP energy -223464.486234 kJ/mol
# GULP energy per Si atom -5586.612156 kJ/mol
# Density = 2.130458 g / cm^3
# Si number density = 21.353181 Si / 1000 Ang^3
#
#
#
# Elastic Constant Matrix: (Units=GPa)
#
#
# Indices 1 2 3 4 5 6 
#
# 1 108.5037 40.4046 37.1143 0.0000 0.0000 0.0000
# 2 40.4046 104.4709 41.1234 0.0000 0.0000 0.0000
# 3 37.1143 41.1234 81.9617 0.0000 0.0000 0.0000
# 4 0.0000 0.0000 0.0000 26.6977 0.0000 0.0000
# 5 0.0000 0.0000 0.0000 0.0000 43.7090 0.0000
# 6 0.0000 0.0000 0.0000 0.0000 0.0000 27.8420
#
#
#
# Elastic Compliance Matrix: (Units=1/GPa)
#
#
# Indices 1 2 3 4 5 6 
#
# 1 0.011623 -0.003020 -0.003748 0.000000 0.000000 0.000000
# 2 -0.003020 0.012712 -0.005011 0.000000 0.000000 0.000000
# 3 -0.003748 -0.005011 0.016412 0.000000 0.000000 0.000000
# 4 0.000000 0.000000 0.000000 0.037456 0.000000 0.000000
# 5 0.000000 0.000000 0.000000 0.000000 0.022879 0.000000
# 6 0.000000 0.000000 0.000000 0.000000 0.000000 0.035917
#
#
# Mechanical properties :
#
#
# Convention : Reuss Voigt Hill
#
# Bulk Modulus (GPa) = 58.17306 59.13566 58.65436
# Shear Modulus (GPa) = 30.06858 31.40269 30.73564
#
# Velocity S-wave (km/s) = 3.75661 3.83904 3.79805
# Velocity P-wave (km/s) = 6.79107 6.88514 6.83827
#
# Compressibility (1/GPa) = 0.01719009
#
# Stress axis : x y z
#
# Youngs Moduli (GPa) = 86.03772 78.66314 60.93060
#
# Poissons Ratio (x) = 0.23755 0.22836
# Poissons Ratio (y) = 0.25982 0.30531
# Poissons Ratio (z) = 0.32246 0.39417
#
# Static dielectric constant tensor:
#      x y z
#    x 1.730540 0.000000 0.000000 
#    y 0.000000 1.822340 0.000000 
#    z 0.000000 0.000000 1.729720 
# 
# From -- ./inp_files/21923.got.cif
#   From: 2010.05.17/outbox.cif.g08.bks.cpg/sg62_11_cif.got.tgz:21923.got - 2010.06.03 15:25:27.
