data_PCOD9465923
_publ_section_title
;
Structure prediction by ZEFSAII (Michael W. Deem and Ramdas Pophale) SiO2 
 PCOD9465923
Probable space group: P N M A
;
_chemical_formula_sum "Si O2"
_cell_formula_units_Z 48
_cell_length_a 28.898500
_cell_length_b 8.733042
_cell_length_c 8.350587
_cell_angle_alpha 90.000000
_cell_angle_beta 90.000000
_cell_angle_gamma 90.000000
_cell_volume 2107.452791
_symmetry_space_group_name_H-M "P N M A"
_symmetry_group_IT_number 62
_symmetry_cell_setting 'orthorhombic'
loop_
_space_group_symop_operation_xyz
x,y,z
1/2-x,-y,1/2+z
1/2+x,1/2-y,1/2-z
-x,1/2+y,-z
-x,-y,-z
1/2+x,y,1/2-z
1/2-x,1/2+y,1/2+z
x,1/2-y,z
loop_
_atom_site_type_symbol
_atom_site_label
_atom_site_fract_x
_atom_site_fract_y
_atom_site_fract_z
Si Si1 0.901875 0.568342 0.077594
Si Si2 0.267430 0.430871 0.922499
Si Si3 0.068886 0.575263 0.413295
Si Si4 0.350504 0.929600 0.750879
Si Si5 0.182968 0.931258 0.756900
Si Si6 0.515508 0.926568 0.747797
O O1 0.908838 0.750000 0.080087
O O2 0.864515 0.518521 0.210516
O O3 0.950478 0.487314 0.111464
O O4 0.877256 0.525769 0.910950
O O5 0.257597 0.250000 0.921113
O O6 0.304511 0.476475 0.787169
O O7 0.220367 0.521006 0.890412
O O8 0.292469 0.470042 0.089179
O O9 0.084269 0.750000 0.387269
O O10 0.112231 0.465007 0.389222
O O11 0.045565 0.566298 0.587602
O O12 0.029334 0.526802 0.287053
O O13 0.338953 0.750000 0.743045
O O14 0.173843 0.750000 0.759296
O O15 0.501895 0.750000 0.720949
#
# Coordination Sequence:
#
# PCOD9465923 Si02
#       6
#     8   8   8   8   8   8
#     4  11  24  40  59  86 119 155 196 240 288 344
#     4  11  24  41  62  89 119 152 193 239 288 344
#     4  10  21  38  61  88 117 152 195 241 291 347
#     4  11  24  40  59  86 119 155 196 240 288 344
#     4  11  24  41  62  89 119 152 193 239 288 344
#     4  10  21  38  61  88 117 152 195 241 291 347
#
# _framework density 22.776309999999999
#
# number of rings (size 3 to 8) (size 9 to 14) (size 15 to 20)
#    0.000    1.333    0.000    5.000    0.000   16.000 
#    0.000    0.000    0.000    0.000    0.000    0.000 
#    0.000    0.000    0.000    0.000    0.000    0.000 
#
# Total GULP energy -268868.652716 kJ/mol
# GULP energy per Si atom -5601.430265 kJ/mol
# Density = 2.272447 g / cm^3
# Si number density = 22.776310 Si / 1000 Ang^3
#
#
#
# Elastic Constant Matrix: (Units=GPa)
#
#
# Indices 1 2 3 4 5 6 
#
# 1 67.3464 -4.3690 2.4450 0.0000 0.0000 0.0000
# 2 -4.3690 18.0576 20.3464 0.0000 0.0000 0.0000
# 3 2.4450 20.3464 70.4989 0.0000 0.0000 0.0000
# 4 0.0000 0.0000 0.0000 23.9094 0.0000 0.0000
# 5 0.0000 0.0000 0.0000 0.0000 35.7731 0.0000
# 6 0.0000 0.0000 0.0000 0.0000 0.0000 -3.0563
#
#
#
# Elastic Compliance Matrix: (Units=1/GPa)
#
#
# Indices 1 2 3 4 5 6 
#
# 1 0.015350 0.006392 -0.002377 0.000000 0.000000 0.000000
# 2 0.006392 0.084727 -0.024675 0.000000 0.000000 0.000000
# 3 -0.002377 -0.024675 0.021388 0.000000 0.000000 0.000000
# 4 0.000000 0.000000 0.000000 0.041825 0.000000 0.000000
# 5 0.000000 0.000000 0.000000 0.000000 0.027954 0.000000
# 6 0.000000 0.000000 0.000000 0.000000 0.000000 -0.327196
#
#
# Mechanical properties :
#
#
# Convention : Reuss Voigt Hill
#
# Bulk Modulus (GPa) = 12.47716 21.41641 16.94679
# Shear Modulus (GPa) = -73.61818 20.49062 -26.56378
#
# Velocity S-wave (km/s) = -5.69143 3.00266 -3.41880
# Velocity P-wave (km/s) = 6.14002 4.63084 2.85090
#
# Compressibility (1/GPa) = 0.08014642
#
# Stress axis : x y z
#
# Youngs Moduli (GPa) = 65.14827 11.80258 46.75457
#
# Poissons Ratio (x) = -0.07545 0.11115
# Poissons Ratio (y) = -0.41645 1.15365
# Poissons Ratio (z) = 0.15487 0.29122
#
# Static dielectric constant tensor:
#      x y z
#    x 1.821120 0.000000 0.000000 
#    y 0.000000 1.759870 0.000000 
#    z 0.000000 0.000000 1.906590 
# 
# From -- ./inp_files/10244.got.cif
#   From: 2010.05.17/outbox.cif.g08.bks.cpg/sg62_6_cif.got.tgz:10244.got - 2010.06.03 15:25:27.
