data_PCOD9465828
_publ_section_title
;
Structure prediction by ZEFSAII (Michael W. Deem and Ramdas Pophale) SiO2 
 PCOD9465828
Probable space group: P N M A
;
_chemical_formula_sum "Si O2"
_cell_formula_units_Z 60
_cell_length_a 17.683175
_cell_length_b 9.473762
_cell_length_c 18.675138
_cell_angle_alpha 90.000000
_cell_angle_beta 90.000000
_cell_angle_gamma 90.000000
_cell_volume 3128.574742
_symmetry_space_group_name_H-M "P N M A"
_symmetry_group_IT_number 62
_symmetry_cell_setting 'orthorhombic'
loop_
_space_group_symop_operation_xyz
x,y,z
1/2-x,-y,1/2+z
1/2+x,1/2-y,1/2-z
-x,1/2+y,-z
-x,-y,-z
1/2+x,y,1/2-z
1/2-x,1/2+y,1/2+z
x,1/2-y,z
loop_
_atom_site_type_symbol
_atom_site_label
_atom_site_fract_x
_atom_site_fract_y
_atom_site_fract_z
Si Si1 0.306729 0.917302 0.399845
Si Si2 0.597689 0.041125 0.974741
Si Si3 0.843437 0.088219 0.688832
Si Si4 0.482101 0.907342 0.176464
Si Si5 0.621941 0.914861 0.729645
Si Si6 0.725160 0.913534 0.462137
Si Si7 0.977979 0.250000 0.473891
Si Si8 0.722104 0.084589 0.315946
O O1 0.321342 0.750000 0.406149
O O2 0.220363 0.935104 0.370971
O O3 0.357535 0.990611 0.338769
O O4 0.313932 0.000121 0.473957
O O5 0.563833 0.085821 0.897276
O O6 0.684830 0.081603 0.977310
O O7 0.585692 0.874798 0.980935
O O8 0.544776 0.127531 0.028833
O O9 0.831960 0.250000 0.714951
O O10 0.928988 0.077834 0.662019
O O11 0.829125 0.980099 0.753049
O O12 0.469911 0.750000 0.207457
O O13 0.450648 0.025183 0.229382
O O14 0.614888 0.750000 0.711209
O O15 0.692257 0.928410 0.785174
O O16 0.701380 0.750000 0.459232
O O17 0.713277 0.993406 0.387214
O O18 0.707288 0.250000 0.328230
#
# Coordination Sequence:
#
# PCOD9465828 Si02
#       8
#     8   8   8   8   8   8   4   8
#     4  10  22  38  59  82 114 153 191 239 289 338
#     4  11  23  36  52  80 117 162 191 231 274 343
#     4   9  21  37  57  82 113 150 189 237 285 336
#     4  11  21  35  57  83 113 153 194 230 285 344
#     4  10  21  38  57  82 113 148 194 243 284 338
#     4  12  23  35  57  84 114 152 193 234 284 338
#     4  10  24  36  48  72 120 158 190 228 274 332
#     4  10  21  38  57  80 111 149 194 240 283 338
#
# _framework density 19.178063000000002
#
# number of rings (size 3 to 8) (size 9 to 14) (size 15 to 20)
#    0.000    1.600    2.667    1.600    6.533    2.133 
#    0.000    0.000    0.000    0.800    0.000    0.000 
#    0.000    0.000    0.000    0.000    0.000    0.000 
#
# Total GULP energy -334171.454616 kJ/mol
# GULP energy per Si atom -5569.524244 kJ/mol
# Density = 1.913441 g / cm^3
# Si number density = 19.178063 Si / 1000 Ang^3
#
#
#
# Elastic Constant Matrix: (Units=GPa)
#
#
# Indices 1 2 3 4 5 6 
#
# 1 14.0725 1.1124 -13.6182 0.0000 0.0000 0.0000
# 2 1.1124 184.5632 58.3358 0.0000 0.0000 0.0000
# 3 -13.6182 58.3358 76.7173 0.0000 0.0000 0.0000
# 4 0.0000 0.0000 0.0000 -9.8792 0.0000 0.0000
# 5 0.0000 0.0000 0.0000 0.0000 15.5096 0.0000
# 6 0.0000 0.0000 0.0000 0.0000 0.0000 27.6925
#
#
#
# Elastic Compliance Matrix: (Units=1/GPa)
#
#
# Indices 1 2 3 4 5 6 
#
# 1 0.093309 -0.007632 0.022367 0.000000 0.000000 0.000000
# 2 -0.007632 0.007757 -0.007253 0.000000 0.000000 0.000000
# 3 0.022367 -0.007253 0.022520 0.000000 0.000000 0.000000
# 4 0.000000 0.000000 0.000000 -0.101222 0.000000 0.000000
# 5 0.000000 0.000000 0.000000 0.000000 0.064476 0.000000
# 6 0.000000 0.000000 0.000000 0.000000 0.000000 0.036111
#
#
# Mechanical properties :
#
#
# Convention : Reuss Voigt Hill
#
# Bulk Modulus (GPa) = 7.21762 40.77921 23.99842
# Shear Modulus (GPa) = 32.43171 21.96611 27.19891
#
# Velocity S-wave (km/s) = 4.11674 3.38801 3.77003
# Velocity P-wave (km/s) = 5.13502 6.05099 5.61172
#
# Compressibility (1/GPa) = 0.13854977
#
# Stress axis : x y z
#
# Youngs Moduli (GPa) = 10.71709 128.92135 44.40426
#
# Poissons Ratio (x) = 0.98392 -0.99318
# Poissons Ratio (y) = 0.08179 0.32206
# Poissons Ratio (z) = -0.23971 0.93506
#
# Static dielectric constant tensor:
#      x y z
#    x 1.664450 0.000000 0.000000 
#    y 0.000000 1.679770 0.000000 
#    z 0.000000 0.000000 1.683080 
# 
# From -- ./inp_files/24365.got.cif
#   From: 2010.05.17/outbox.cif.g08.bks.cpg/sg62_13_cif.got.tgz:24365.got - 2010.06.03 15:25:27.
