data_PCOD9465659
_publ_section_title
;
Structure prediction by ZEFSAII (Michael W. Deem and Ramdas Pophale) SiO2 
 PCOD9465659
Probable space group: P N M A
;
_chemical_formula_sum "Si O2"
_cell_formula_units_Z 64
_cell_length_a 9.070199
_cell_length_b 28.740506
_cell_length_c 12.158450
_cell_angle_alpha 90.000000
_cell_angle_beta 90.000000
_cell_angle_gamma 90.000000
_cell_volume 3169.490386
_symmetry_space_group_name_H-M "P N M A"
_symmetry_group_IT_number 62
_symmetry_cell_setting 'orthorhombic'
loop_
_space_group_symop_operation_xyz
x,y,z
1/2-x,-y,1/2+z
1/2+x,1/2-y,1/2-z
-x,1/2+y,-z
-x,-y,-z
1/2+x,y,1/2-z
1/2-x,1/2+y,1/2+z
x,1/2-y,z
loop_
_atom_site_type_symbol
_atom_site_label
_atom_site_fract_x
_atom_site_fract_y
_atom_site_fract_z
Si Si1 0.036108 0.381374 0.959503
Si Si2 0.324420 0.338219 0.868004
Si Si3 0.964846 0.434311 0.625663
Si Si4 0.635480 0.467731 0.674424
Si Si5 0.956310 0.799749 0.528569
Si Si6 0.546839 0.097244 0.115165
Si Si7 0.821273 0.197429 0.867011
Si Si8 0.886250 0.074363 0.164046
O O1 0.199323 0.361047 0.943665
O O2 0.041622 0.429541 0.892088
O O3 0.931859 0.342238 0.907604
O O4 0.982345 0.394512 0.080784
O O5 0.435892 0.380602 0.839296
O O6 0.411432 0.301928 0.941240
O O7 0.267146 0.316823 0.754685
O O8 0.808955 0.459648 0.649672
O O9 0.092798 0.457239 0.698709
O O10 0.005933 0.429707 0.497575
O O11 0.592432 0.519645 0.642380
O O12 0.958100 0.750000 0.588659
O O13 0.965289 0.847244 0.596288
O O14 0.810240 0.802212 0.454305
O O15 0.714727 0.085762 0.146506
O O16 0.438056 0.083178 0.212221
O O17 0.884344 0.250000 0.862070
#
# Coordination Sequence:
#
# PCOD9465659 Si02
#       8
#     8   8   8   8   8   8   8   8
#     4  11  24  42  64  97 139 176 220 278 338 402
#     4  10  21  36  65  99 137 168 210 274 340 411
#     4  10  24  43  68 101 140 173 221 281 345 399
#     4  11  24  42  70 102 135 179 227 279 347 410
#     4  10  22  42  66  93 131 176 219 275 343 401
#     4  11  27  48  69  97 138 181 229 294 333 400
#     4  11  21  38  66  99 133 173 214 273 353 415
#     4  12  27  45  69  94 134 186 238 280 331 403
#
# _framework density 20.192522
#
# number of rings (size 3 to 8) (size 9 to 14) (size 15 to 20)
#    0.000    1.250    2.500    2.250   12.250    4.000 
#    0.000    1.250    0.000    0.000    0.000    0.000 
#    0.000    0.000    0.000    0.000    0.000    0.000 
#
# Total GULP energy -357617.419879 kJ/mol
# GULP energy per Si atom -5587.772186 kJ/mol
# Density = 2.014656 g / cm^3
# Si number density = 20.192522 Si / 1000 Ang^3
#
#
#
# Elastic Constant Matrix: (Units=GPa)
#
#
# Indices 1 2 3 4 5 6 
#
# 1 77.1714 41.0545 35.4673 0.0000 0.0000 0.0000
# 2 41.0545 120.1110 19.2430 0.0000 0.0000 0.0000
# 3 35.4673 19.2430 84.8124 0.0000 0.0000 0.0000
# 4 0.0000 0.0000 0.0000 22.6603 0.0000 0.0000
# 5 0.0000 0.0000 0.0000 0.0000 32.2406 0.0000
# 6 0.0000 0.0000 0.0000 0.0000 0.0000 24.4895
#
#
#
# Elastic Compliance Matrix: (Units=1/GPa)
#
#
# Indices 1 2 3 4 5 6 
#
# 1 0.018894 -0.005388 -0.006679 0.000000 0.000000 0.000000
# 2 -0.005388 0.010176 -0.000056 0.000000 0.000000 0.000000
# 3 -0.006679 -0.000056 0.014596 0.000000 0.000000 0.000000
# 4 0.000000 0.000000 0.000000 0.044130 0.000000 0.000000
# 5 0.000000 0.000000 0.000000 0.000000 0.031017 0.000000
# 6 0.000000 0.000000 0.000000 0.000000 0.000000 0.040834
#
#
# Mechanical properties :
#
#
# Convention : Reuss Voigt Hill
#
# Bulk Modulus (GPa) = 51.48889 52.62493 52.05691
# Shear Modulus (GPa) = 26.26517 28.30006 27.28261
#
# Velocity S-wave (km/s) = 3.61049 3.74774 3.67975
# Velocity P-wave (km/s) = 6.55249 6.69668 6.62498
#
# Compressibility (1/GPa) = 0.01942167
#
# Stress axis : x y z
#
# Youngs Moduli (GPa) = 52.92665 98.26828 68.51050
#
# Poissons Ratio (x) = 0.52948 0.45756
# Poissons Ratio (y) = 0.28517 0.00381
# Poissons Ratio (z) = 0.35348 0.00547
#
# Static dielectric constant tensor:
#      x y z
#    x 1.719550 0.000000 0.000000 
#    y 0.000000 1.714920 0.000000 
#    z 0.000000 0.000000 1.697770 
# 
# From -- ./inp_files/11542.got.cif
#   From: 2010.05.17/outbox.cif.g08.bks.cpg/sg62_6_cif.got.tgz:11542.got - 2010.06.03 15:25:27.
