data_PCOD9465085
_publ_section_title
;
Structure prediction by ZEFSAII (Michael W. Deem and Ramdas Pophale) SiO2 
 PCOD9465085
Probable space group: P N M A
;
_chemical_formula_sum "Si O2"
_cell_formula_units_Z 56
_cell_length_a 21.738117
_cell_length_b 7.406056
_cell_length_c 14.306604
_cell_angle_alpha 90.000000
_cell_angle_beta 90.000000
_cell_angle_gamma 90.000000
_cell_volume 2303.273282
_symmetry_space_group_name_H-M "P N M A"
_symmetry_group_IT_number 62
_symmetry_cell_setting 'orthorhombic'
loop_
_space_group_symop_operation_xyz
x,y,z
1/2-x,-y,1/2+z
1/2+x,1/2-y,1/2-z
-x,1/2+y,-z
-x,-y,-z
1/2+x,y,1/2-z
1/2-x,1/2+y,1/2+z
x,1/2-y,z
loop_
_atom_site_type_symbol
_atom_site_label
_atom_site_fract_x
_atom_site_fract_y
_atom_site_fract_z
Si Si1 0.414698 0.542284 0.054919
Si Si2 0.753111 0.968838 0.651856
Si Si3 0.518096 0.462817 0.764121
Si Si4 0.058974 0.033607 0.936527
Si Si5 0.287869 0.469200 0.151551
Si Si6 0.180352 0.045884 0.030417
Si Si7 0.893985 0.532387 0.651797
O O1 0.434965 0.750000 0.044657
O O2 0.453569 0.459021 0.139940
O O3 0.344544 0.538949 0.091441
O O4 0.415679 0.463834 0.950697
O O5 0.752177 0.750000 0.643388
O O6 0.710710 0.018759 0.739852
O O7 0.823767 0.024610 0.667678
O O8 0.726186 0.049052 0.557819
O O9 0.532770 0.250000 0.765228
O O10 0.546244 0.536616 0.668134
O O11 0.444601 0.481571 0.771733
O O12 0.068054 0.250000 0.928061
O O13 0.118522 0.960147 0.990521
O O14 0.000000 0.000000 0.000000
O O15 0.289017 0.250000 0.144934
O O16 0.222512 0.534262 0.111299
O O17 0.164800 0.250000 0.061551
O O18 0.892601 0.750000 0.648159
#
# Coordination Sequence:
#
# PCOD9465085 Si02
#       7
#     8   8   8   8   8   8   8
#     4  10  20  38  60  85 116 150 187 232 285 341
#     4  10  21  37  57  86 119 148 189 238 283 339
#     4  10  22  38  57  83 115 151 193 237 282 339
#     4  10  23  41  60  84 115 153 197 240 285 340
#     4  10  21  35  57  86 115 148 186 230 282 338
#     4  10  21  39  61  84 113 151 189 231 284 338
#     4  10  21  36  58  86 115 150 189 233 287 338
#
# _framework density 24.313226
#
# number of rings (size 3 to 8) (size 9 to 14) (size 15 to 20)
#    0.000    2.000    1.429    1.286    2.000    4.571 
#    0.000    0.000    0.000    0.000    0.000    0.000 
#    0.000    0.000    0.000    0.000    0.000    0.000 
#
# Total GULP energy -313136.279361 kJ/mol
# GULP energy per Si atom -5591.719274 kJ/mol
# Density = 2.425789 g / cm^3
# Si number density = 24.313226 Si / 1000 Ang^3
#
#
#
# Elastic Constant Matrix: (Units=GPa)
#
#
# Indices 1 2 3 4 5 6 
#
# 1 101.7653 -12.1249 -10.4727 0.0000 0.0000 0.0000
# 2 -12.1249 85.9983 -4.3090 0.0000 0.0000 0.0000
# 3 -10.4727 -4.3090 58.7545 0.0000 0.0000 0.0000
# 4 0.0000 0.0000 0.0000 -10.2149 0.0000 0.0000
# 5 0.0000 0.0000 0.0000 0.0000 35.0538 0.0000
# 6 0.0000 0.0000 0.0000 0.0000 0.0000 20.1936
#
#
#
# Elastic Compliance Matrix: (Units=1/GPa)
#
#
# Indices 1 2 3 4 5 6 
#
# 1 0.010208 0.001536 0.001932 0.000000 0.000000 0.000000
# 2 0.001536 0.011902 0.001147 0.000000 0.000000 0.000000
# 3 0.001932 0.001147 0.017448 0.000000 0.000000 0.000000
# 4 0.000000 0.000000 0.000000 -0.097897 0.000000 0.000000
# 5 0.000000 0.000000 0.000000 0.000000 0.028528 0.000000
# 6 0.000000 0.000000 0.000000 0.000000 0.000000 0.049521
#
#
# Mechanical properties :
#
#
# Convention : Reuss Voigt Hill
#
# Bulk Modulus (GPa) = 20.49637 21.41166 20.95401
# Shear Modulus (GPa) = 186.96021 27.23482 107.09751
#
# Velocity S-wave (km/s) = 8.77858 3.35052 6.64415
# Velocity P-wave (km/s) = 10.54513 4.87787 8.21564
#
# Compressibility (1/GPa) = 0.04878914
#
# Stress axis : x y z
#
# Youngs Moduli (GPa) = 97.95854 84.01829 57.31156
#
# Poissons Ratio (x) = -0.12906 -0.11074
# Poissons Ratio (y) = -0.15047 -0.06572
# Poissons Ratio (z) = -0.18928 -0.09634
#
# Static dielectric constant tensor:
#      x y z
#    x 1.915630 0.000000 0.000000 
#    y 0.000000 1.956780 0.000000 
#    z 0.000000 0.000000 2.384480 
# 
# From -- ./inp_files/20259.got.cif
#   From: 2010.05.17/outbox.cif.g08.bks.cpg/sg62_11_cif.got.tgz:20259.got - 2010.06.03 15:25:27.
