data_PCOD9465554
_publ_section_title
;
Structure prediction by ZEFSAII (Michael W. Deem and Ramdas Pophale) SiO2 
 PCOD9465554
Probable space group: P N M A
;
_chemical_formula_sum "Si O2"
_cell_formula_units_Z 56
_cell_length_a 20.169291
_cell_length_b 9.999327
_cell_length_c 15.135479
_cell_angle_alpha 90.000000
_cell_angle_beta 90.000000
_cell_angle_gamma 90.000000
_cell_volume 3052.513356
_symmetry_space_group_name_H-M "P N M A"
_symmetry_group_IT_number 62
_symmetry_cell_setting 'orthorhombic'
loop_
_space_group_symop_operation_xyz
x,y,z
1/2-x,-y,1/2+z
1/2+x,1/2-y,1/2-z
-x,1/2+y,-z
-x,-y,-z
1/2+x,y,1/2-z
1/2-x,1/2+y,1/2+z
x,1/2-y,z
loop_
_atom_site_type_symbol
_atom_site_label
_atom_site_fract_x
_atom_site_fract_y
_atom_site_fract_z
Si Si1 0.696759 0.406176 0.806179
Si Si2 0.531768 0.092716 0.269971
Si Si3 0.081772 0.408173 0.834459
Si Si4 0.188590 0.406083 0.483340
Si Si5 0.817848 0.904570 0.813731
Si Si6 0.039780 0.406258 0.434273
Si Si7 0.808322 0.596397 0.025825
O O1 0.714090 0.250000 0.793080
O O2 0.632628 0.434194 0.746635
O O3 0.681812 0.424726 0.910417
O O4 0.758571 0.500428 0.782688
O O5 0.525048 0.250000 0.293707
O O6 0.608878 0.056551 0.282703
O O7 0.516194 0.078166 0.166126
O O8 0.482269 0.999784 0.324129
O O9 0.064993 0.250000 0.833368
O O10 0.124839 0.437162 0.921825
O O11 0.203780 0.250000 0.467444
O O12 0.118026 0.437238 0.440179
O O13 0.248048 0.498975 0.451184
O O14 0.806058 0.750000 0.787044
O O15 0.818286 0.910262 0.920589
O O16 0.032519 0.250000 0.459574
O O17 0.000000 0.500000 0.500000
O O18 0.791599 0.750000 0.049322
#
# Coordination Sequence:
#
# PCOD9465554 Si02
#       7
#     8   8   8   8   8   8   8
#     4   9  18  33  53  77 105 136 174 219 265 316
#     4  10  22  37  53  78 109 142 181 221 265 321
#     4  10  21  36  54  78 108 141 179 221 267 318
#     4   9  18  33  53  76 103 135 174 219 265 316
#     4   9  19  36  55  77 107 140 176 221 269 315
#     4  10  21  36  54  78 109 143 179 219 267 322
#     4   9  19  35  54  78 106 137 176 222 268 313
#
# _framework density 18.345537
#
# number of rings (size 3 to 8) (size 9 to 14) (size 15 to 20)
#    0.000    2.571    0.000    0.857    2.000    4.571 
#    0.000    2.857    0.000    0.000    0.000    0.000 
#    0.000    0.000    0.000    0.000    0.000    0.000 
#
# Total GULP energy -312565.865935 kJ/mol
# GULP energy per Si atom -5581.533320 kJ/mol
# Density = 1.830378 g / cm^3
# Si number density = 18.345537 Si / 1000 Ang^3
#
#
#
# Elastic Constant Matrix: (Units=GPa)
#
#
# Indices 1 2 3 4 5 6 
#
# 1 62.9625 40.1336 0.1258 0.0000 0.0000 0.0000
# 2 40.1336 42.4153 8.0457 0.0000 0.0000 0.0000
# 3 0.1258 8.0457 19.6015 0.0000 0.0000 0.0000
# 4 0.0000 0.0000 0.0000 19.0863 0.0000 0.0000
# 5 0.0000 0.0000 0.0000 0.0000 25.7931 0.0000
# 6 0.0000 0.0000 0.0000 0.0000 0.0000 41.1414
#
#
#
# Elastic Compliance Matrix: (Units=1/GPa)
#
#
# Indices 1 2 3 4 5 6 
#
# 1 0.045690 -0.046822 0.018925 0.000000 0.000000 0.000000
# 2 -0.046822 0.073549 -0.029889 0.000000 0.000000 0.000000
# 3 0.018925 -0.029889 0.063163 0.000000 0.000000 0.000000
# 4 0.000000 0.000000 0.000000 0.052394 0.000000 0.000000
# 5 0.000000 0.000000 0.000000 0.000000 0.038770 0.000000
# 6 0.000000 0.000000 0.000000 0.000000 0.000000 0.024306
#
#
# Mechanical properties :
#
#
# Convention : Reuss Voigt Hill
#
# Bulk Modulus (GPa) = 14.96290 24.62104 19.79197
# Shear Modulus (GPa) = 11.47525 22.31578 16.89551
#
# Velocity S-wave (km/s) = 2.50373 3.49150 3.03803
# Velocity P-wave (km/s) = 4.06596 5.45013 4.80812
#
# Compressibility (1/GPa) = 0.06683197
#
# Stress axis : x y z
#
# Youngs Moduli (GPa) = 21.88663 13.59634 15.83198
#
# Poissons Ratio (x) = 0.63661 -0.29963
# Poissons Ratio (y) = 1.02478 0.47320
# Poissons Ratio (z) = -0.41422 0.40638
#
# Static dielectric constant tensor:
#      x y z
#    x 1.593460 0.000000 0.000000 
#    y 0.000000 1.612700 0.000000 
#    z 0.000000 0.000000 1.658730 
# 
# From -- ./inp_files/20269.got.cif
#   From: 2010.05.17/outbox.cif.g08.bks.cpg/sg62_11_cif.got.tgz:20269.got - 2010.06.03 15:25:27.
