data_PCOD9465647
_publ_section_title
;
Structure prediction by ZEFSAII (Michael W. Deem and Ramdas Pophale) SiO2 
 PCOD9465647
Probable space group: P N M A
;
_chemical_formula_sum "Si O2"
_cell_formula_units_Z 64
_cell_length_a 9.338967
_cell_length_b 26.018370
_cell_length_c 14.808842
_cell_angle_alpha 90.000000
_cell_angle_beta 90.000000
_cell_angle_gamma 90.000000
_cell_volume 3598.322013
_symmetry_space_group_name_H-M "P N M A"
_symmetry_group_IT_number 62
_symmetry_cell_setting 'orthorhombic'
loop_
_space_group_symop_operation_xyz
x,y,z
1/2-x,-y,1/2+z
1/2+x,1/2-y,1/2-z
-x,1/2+y,-z
-x,-y,-z
1/2+x,y,1/2-z
1/2-x,1/2+y,1/2+z
x,1/2-y,z
loop_
_atom_site_type_symbol
_atom_site_label
_atom_site_fract_x
_atom_site_fract_y
_atom_site_fract_z
Si Si1 0.315886 0.353022 0.765681
Si Si2 0.543684 0.309576 0.628623
Si Si3 0.031965 0.890503 0.973933
Si Si4 0.538666 0.024583 0.618322
Si Si5 0.446216 0.476928 0.091735
Si Si6 0.426664 0.580748 0.201695
Si Si7 0.679181 0.066227 0.346650
Si Si8 0.760092 0.564873 0.643106
O O1 0.423364 0.318280 0.706644
O O2 0.198270 0.325345 0.828512
O O3 0.426287 0.389576 0.821191
O O4 0.217953 0.386199 0.695582
O O5 0.547014 0.250000 0.603109
O O6 0.499921 0.345384 0.543849
O O7 0.001785 0.944520 0.027884
O O8 0.187109 0.895818 0.926901
O O9 0.924821 0.891328 0.888226
O O10 0.559600 0.068620 0.692229
O O11 0.415433 0.986122 0.654898
O O12 0.680375 0.989193 0.620437
O O13 0.414499 0.526058 0.154352
O O14 0.304346 0.444140 0.082655
O O15 0.572560 0.442454 0.130095
O O16 0.500000 0.500000 0.000000
O O17 0.752768 0.075892 0.249980
#
# Coordination Sequence:
#
# PCOD9465647 Si02
#       8
#     8   8   8   8   8   8   8   8
#     4  10  21  36  62  82 114 144 184 222 289 338
#     4  11  24  42  63  85 107 139 187 242 292 344
#     4  11  23  37  59  78 110 153 195 228 280 341
#     4  11  18  35  53  76 118 158 190 213 265 327
#     4  12  22  28  48  78 119 149 194 215 253 309
#     4  11  19  32  54  84 119 158 180 223 265 324
#     4  11  21  35  50  78 115 156 185 224 264 320
#     4  11  21  35  50  78 115 156 185 224 264 320
#
# _framework density 17.786068
#
# number of rings (size 3 to 8) (size 9 to 14) (size 15 to 20)
#    0.000    1.000    5.000    5.625    3.500    0.000 
#    0.000    0.000    0.000    0.750    0.000    0.000 
#    0.000    0.000    0.000    0.000    0.000    0.000 
#
# Total GULP energy -357031.415631 kJ/mol
# GULP energy per Si atom -5578.615869 kJ/mol
# Density = 1.774559 g / cm^3
# Si number density = 17.786068 Si / 1000 Ang^3
#
#
#
# Elastic Constant Matrix: (Units=GPa)
#
#
# Indices 1 2 3 4 5 6 
#
# 1 85.7729 21.5600 -18.1716 0.0000 0.0000 0.0000
# 2 21.5600 73.1154 7.6633 0.0000 0.0000 0.0000
# 3 -18.1716 7.6633 51.2815 0.0000 0.0000 0.0000
# 4 0.0000 0.0000 0.0000 19.9665 0.0000 0.0000
# 5 0.0000 0.0000 0.0000 0.0000 28.2133 0.0000
# 6 0.0000 0.0000 0.0000 0.0000 0.0000 11.7387
#
#
#
# Elastic Compliance Matrix: (Units=1/GPa)
#
#
# Indices 1 2 3 4 5 6 
#
# 1 0.014056 -0.004741 0.005689 0.000000 0.000000 0.000000
# 2 -0.004741 0.015494 -0.003995 0.000000 0.000000 0.000000
# 3 0.005689 -0.003995 0.022113 0.000000 0.000000 0.000000
# 4 0.000000 0.000000 0.000000 0.050084 0.000000 0.000000
# 5 0.000000 0.000000 0.000000 0.000000 0.035444 0.000000
# 6 0.000000 0.000000 0.000000 0.000000 0.000000 0.085188
#
#
# Mechanical properties :
#
#
# Convention : Reuss Voigt Hill
#
# Bulk Modulus (GPa) = 21.94508 25.80814 23.87661
# Shear Modulus (GPa) = 20.52015 25.25823 22.88919
#
# Velocity S-wave (km/s) = 3.40033 3.77253 3.59125
# Velocity P-wave (km/s) = 5.27081 5.78945 5.53621
#
# Compressibility (1/GPa) = 0.04556831
#
# Stress axis : x y z
#
# Youngs Moduli (GPa) = 71.14570 64.54213 45.22188
#
# Poissons Ratio (x) = 0.30599 -0.25727
# Poissons Ratio (y) = 0.33730 0.18067
# Poissons Ratio (z) = -0.40475 0.25786
#
# Static dielectric constant tensor:
#      x y z
#    x 1.576190 0.000000 0.000000 
#    y 0.000000 1.596660 0.000000 
#    z 0.000000 0.000000 1.688080 
# 
# From -- ./inp_files/17432.got.cif
#   From: 2010.05.17/outbox.cif.g08.bks.cpg/sg62_9_cif.got.tgz:17432.got - 2010.06.03 15:25:27.
