data_PCOD9465058
_publ_section_title
;
Structure prediction by ZEFSAII (Michael W. Deem and Ramdas Pophale) SiO2 
 PCOD9465058
Probable space group: P N M A
;
_chemical_formula_sum "Si O2"
_cell_formula_units_Z 56
_cell_length_a 9.362668
_cell_length_b 22.507521
_cell_length_c 14.159140
_cell_angle_alpha 90.000000
_cell_angle_beta 90.000000
_cell_angle_gamma 90.000000
_cell_volume 2983.761896
_symmetry_space_group_name_H-M "P N M A"
_symmetry_group_IT_number 62
_symmetry_cell_setting 'orthorhombic'
loop_
_space_group_symop_operation_xyz
x,y,z
1/2-x,-y,1/2+z
1/2+x,1/2-y,1/2-z
-x,1/2+y,-z
-x,-y,-z
1/2+x,y,1/2-z
1/2-x,1/2+y,1/2+z
x,1/2-y,z
loop_
_atom_site_type_symbol
_atom_site_label
_atom_site_fract_x
_atom_site_fract_y
_atom_site_fract_z
Si Si1 0.437383 0.679702 0.004252
Si Si2 0.415305 0.425257 0.916977
Si Si3 0.450948 0.879128 0.675437
Si Si4 0.797969 0.498397 0.421667
Si Si5 0.685826 0.021211 0.218925
Si Si6 0.820361 0.408016 0.040476
Si Si7 0.643665 0.681305 0.824006
O O1 0.420981 0.750000 0.022950
O O2 0.286029 0.645825 0.988300
O O3 0.531134 0.672219 0.908833
O O4 0.532259 0.642610 0.080234
O O5 0.561121 0.461863 0.932949
O O6 0.350012 0.456752 0.824729
O O7 0.317892 0.443140 0.007342
O O8 0.442714 0.939033 0.738580
O O9 0.523619 0.889589 0.574783
O O10 0.290796 0.854656 0.670311
O O11 0.557229 0.835503 0.730292
O O12 0.779290 0.484898 0.312688
O O13 0.674996 0.542004 0.459668
O O14 0.749627 0.059114 0.131952
O O15 0.684077 0.750000 0.823080
#
# Coordination Sequence:
#
# PCOD9465058 Si02
#       7
#     8   8   8   8   8   8   8
#     4  10  20  38  58  79 107 146 191 232 272 334
#     4   9  19  33  57  81 109 151 187 226 283 340
#     4  12  21  33  53  78 116 147 184 229 273 334
#     4   9  19  34  54  81 114 144 184 228 285 339
#     4  11  19  33  57  81 114 144 183 235 282 330
#     4  10  21  35  54  84 110 150 185 229 282 339
#     4  11  22  34  51  76 111 151 187 221 269 332
#
# _framework density 18.768253000000001
#
# number of rings (size 3 to 8) (size 9 to 14) (size 15 to 20)
#    0.000    1.714    2.857    3.000    0.000    2.857 
#    0.000    1.429    0.000    3.429    0.000    0.000 
#    0.000    0.000    0.000    0.000    0.000    0.000 
#
# Total GULP energy -312186.228031 kJ/mol
# GULP energy per Si atom -5574.754072 kJ/mol
# Density = 1.872554 g / cm^3
# Si number density = 18.768253 Si / 1000 Ang^3
#
#
#
# Elastic Constant Matrix: (Units=GPa)
#
#
# Indices 1 2 3 4 5 6 
#
# 1 31.1338 -1.1640 -5.1798 0.0000 0.0000 0.0000
# 2 -1.1640 84.6447 19.1511 0.0000 0.0000 0.0000
# 3 -5.1798 19.1511 38.6828 0.0000 0.0000 0.0000
# 4 0.0000 0.0000 0.0000 20.1673 0.0000 0.0000
# 5 0.0000 0.0000 0.0000 0.0000 13.7661 0.0000
# 6 0.0000 0.0000 0.0000 0.0000 0.0000 19.7328
#
#
#
# Elastic Compliance Matrix: (Units=1/GPa)
#
#
# Indices 1 2 3 4 5 6 
#
# 1 0.032879 -0.000613 0.004706 0.000000 0.000000 0.000000
# 2 -0.000613 0.013316 -0.006674 0.000000 0.000000 0.000000
# 3 0.004706 -0.006674 0.029786 0.000000 0.000000 0.000000
# 4 0.000000 0.000000 0.000000 0.049585 0.000000 0.000000
# 5 0.000000 0.000000 0.000000 0.000000 0.072642 0.000000
# 6 0.000000 0.000000 0.000000 0.000000 0.000000 0.050677
#
#
# Mechanical properties :
#
#
# Convention : Reuss Voigt Hill
#
# Bulk Modulus (GPa) = 14.12051 20.00845 17.06448
# Shear Modulus (GPa) = 18.00802 20.17684 19.09243
#
# Velocity S-wave (km/s) = 3.10093 3.28235 3.19293
# Velocity P-wave (km/s) = 4.51231 5.00491 4.76498
#
# Compressibility (1/GPa) = 0.07081898
#
# Stress axis : x y z
#
# Youngs Moduli (GPa) = 30.41415 75.09895 33.57306
#
# Poissons Ratio (x) = 0.04601 -0.15800
# Poissons Ratio (y) = 0.01863 0.22408
# Poissons Ratio (z) = -0.14313 0.50124
#
# Static dielectric constant tensor:
#      x y z
#    x 1.703990 0.000000 0.000000 
#    y 0.000000 1.698380 0.000000 
#    z 0.000000 0.000000 1.691020 
# 
# From -- ./inp_files/17192.got.cif
#   From: 2010.05.17/outbox.cif.g08.bks.cpg/sg62_9_cif.got.tgz:17192.got - 2010.06.03 15:25:27.
