data_PCOD9465528
_publ_section_title
;
Structure prediction by ZEFSAII (Michael W. Deem and Ramdas Pophale) SiO2 
 PCOD9465528
Probable space group: P N M A
;
_chemical_formula_sum "Si O2"
_cell_formula_units_Z 60
_cell_length_a 14.013576
_cell_length_b 9.726693
_cell_length_c 21.912504
_cell_angle_alpha 90.000000
_cell_angle_beta 90.000000
_cell_angle_gamma 90.000000
_cell_volume 2986.800327
_symmetry_space_group_name_H-M "P N M A"
_symmetry_group_IT_number 62
_symmetry_cell_setting 'orthorhombic'
loop_
_space_group_symop_operation_xyz
x,y,z
1/2-x,-y,1/2+z
1/2+x,1/2-y,1/2-z
-x,1/2+y,-z
-x,-y,-z
1/2+x,y,1/2-z
1/2-x,1/2+y,1/2+z
x,1/2-y,z
loop_
_atom_site_type_symbol
_atom_site_label
_atom_site_fract_x
_atom_site_fract_y
_atom_site_fract_z
Si Si1 0.303763 0.405180 0.220477
Si Si2 0.142582 0.411604 0.534268
Si Si3 0.022627 0.407308 0.412538
Si Si4 0.469073 0.250000 0.493820
Si Si5 0.392177 0.905596 0.778384
Si Si6 0.300092 0.589980 0.589824
Si Si7 0.520513 0.000991 0.583673
Si Si8 0.542660 0.086922 0.718504
O O1 0.344799 0.250000 0.221361
O O2 0.220825 0.415433 0.270809
O O3 0.251155 0.422165 0.155620
O O4 0.382503 0.516547 0.235739
O O5 0.152487 0.250000 0.548380
O O6 0.100210 0.425371 0.466160
O O7 0.241057 0.491082 0.545262
O O8 0.062676 0.486207 0.576082
O O9 0.984753 0.250000 0.417882
O O10 0.071088 0.421444 0.347071
O O11 0.429842 0.372157 0.448081
O O12 0.513687 0.369725 0.539033
O O13 0.417541 0.750000 0.756930
O O14 0.442200 0.019843 0.737439
O O15 0.296100 0.750000 0.570797
O O16 0.410337 0.548567 0.593772
O O17 0.562362 0.042635 0.648998
O O18 0.541788 0.250000 0.723740
#
# Coordination Sequence:
#
# PCOD9465528 Si02
#       8
#     8   8   8   4   8   8   8   8
#     4  10  23  40  62  93 122 164 217 257 313 385
#     4  10  21  35  58  89 123 160 207 256 313 374
#     4   9  19  39  59  85 121 161 206 257 313 379
#     4  10  24  44  68  92 122 166 214 254 314 374
#     4  10  21  41  65  89 118 162 212 257 312 378
#     4  11  22  40  64  93 124 163 214 264 309 385
#     4  11  23  45  66  94 125 167 211 266 319 382
#     4  12  25  41  64  95 131 167 204 270 332 379
#
# _framework density 20.088387000000001
#
# number of rings (size 3 to 8) (size 9 to 14) (size 15 to 20)
#    0.000    1.600    2.667    1.600    2.800    5.333 
#    4.800    0.000    0.000    0.000    0.000    0.000 
#    0.000    0.000    0.000    0.000    0.000    0.000 
#
# Total GULP energy -334254.927398 kJ/mol
# GULP energy per Si atom -5570.915457 kJ/mol
# Density = 2.004266 g / cm^3
# Si number density = 20.088387 Si / 1000 Ang^3
#
#
#
# Elastic Constant Matrix: (Units=GPa)
#
#
# Indices 1 2 3 4 5 6 
#
# 1 42.7255 19.5203 -1.2105 0.0000 0.0000 0.0000
# 2 19.5203 157.7336 41.6580 0.0000 0.0000 0.0000
# 3 -1.2105 41.6580 60.8967 0.0000 0.0000 0.0000
# 4 0.0000 0.0000 0.0000 24.5286 0.0000 0.0000
# 5 0.0000 0.0000 0.0000 0.0000 22.9242 0.0000
# 6 0.0000 0.0000 0.0000 0.0000 0.0000 11.4390
#
#
#
# Elastic Compliance Matrix: (Units=1/GPa)
#
#
# Indices 1 2 3 4 5 6 
#
# 1 0.025318 -0.003986 0.003230 0.000000 0.000000 0.000000
# 2 -0.003986 0.008365 -0.005802 0.000000 0.000000 0.000000
# 3 0.003230 -0.005802 0.020454 0.000000 0.000000 0.000000
# 4 0.000000 0.000000 0.000000 0.040769 0.000000 0.000000
# 5 0.000000 0.000000 0.000000 0.000000 0.043622 0.000000
# 6 0.000000 0.000000 0.000000 0.000000 0.000000 0.087420
#
#
# Mechanical properties :
#
#
# Convention : Reuss Voigt Hill
#
# Bulk Modulus (GPa) = 24.37721 42.36571 33.37146
# Shear Modulus (GPa) = 19.78329 25.20424 22.49377
#
# Velocity S-wave (km/s) = 3.14158 3.54597 3.34988
# Velocity P-wave (km/s) = 5.03196 6.15635 5.62234
#
# Compressibility (1/GPa) = 0.04102193
#
# Stress axis : x y z
#
# Youngs Moduli (GPa) = 39.49759 119.53979 48.88931
#
# Poissons Ratio (x) = 0.47653 -0.15792
# Poissons Ratio (y) = 0.15745 0.28365
# Poissons Ratio (z) = -0.12759 0.69355
#
# Static dielectric constant tensor:
#      x y z
#    x 1.729150 0.000000 0.000000 
#    y 0.000000 1.685370 0.000000 
#    z 0.000000 0.000000 1.737920 
# 
# From -- ./inp_files/29647.got.cif
#   From: 2010.05.17/outbox.cif.g08.bks.cpg/sg62_15_cif.got.tgz:29647.got - 2010.06.03 15:25:27.
