data_PCOD9465710
_publ_section_title
;
Structure prediction by ZEFSAII (Michael W. Deem and Ramdas Pophale) SiO2 
 PCOD9465710
Probable space group: P N M A
;
_chemical_formula_sum "Si O2"
_cell_formula_units_Z 64
_cell_length_a 27.375372
_cell_length_b 7.554812
_cell_length_c 13.671339
_cell_angle_alpha 90.000000
_cell_angle_beta 90.000000
_cell_angle_gamma 90.000000
_cell_volume 2827.448760
_symmetry_space_group_name_H-M "P N M A"
_symmetry_group_IT_number 62
_symmetry_cell_setting 'orthorhombic'
loop_
_space_group_symop_operation_xyz
x,y,z
1/2-x,-y,1/2+z
1/2+x,1/2-y,1/2-z
-x,1/2+y,-z
-x,-y,-z
1/2+x,y,1/2-z
1/2-x,1/2+y,1/2+z
x,1/2-y,z
loop_
_atom_site_type_symbol
_atom_site_label
_atom_site_fract_x
_atom_site_fract_y
_atom_site_fract_z
Si Si1 0.557944 0.462821 0.279030
Si Si2 0.373970 0.962723 0.899136
Si Si3 0.587835 0.466329 0.496010
Si Si4 0.229247 0.540236 0.305139
Si Si5 0.197373 0.033994 0.957300
Si Si6 0.553403 0.460843 0.706260
Si Si7 0.379140 0.544789 0.119286
Si Si8 0.269922 0.049668 0.114917
O O1 0.563599 0.250000 0.281227
O O2 0.592267 0.528505 0.190458
O O3 0.570888 0.528124 0.388853
O O4 0.501634 0.506328 0.260050
O O5 0.378954 0.750000 0.902734
O O6 0.317955 0.000644 0.869848
O O7 0.385885 0.029938 0.008840
O O8 0.585635 0.250000 0.493421
O O9 0.643658 0.522063 0.515017
O O10 0.559543 0.526917 0.594107
O O11 0.230345 0.750000 0.289598
O O12 0.280927 0.486490 0.352812
O O13 0.230378 0.448608 0.201303
O O14 0.197252 0.250000 0.963308
O O15 0.239520 0.965079 0.028082
O O16 0.562478 0.250000 0.699269
O O17 0.590896 0.531861 0.788648
O O18 0.394454 0.750000 0.113280
O O19 0.321072 0.539789 0.138698
O O20 0.283119 0.250000 0.087848
#
# Coordination Sequence:
#
# PCOD9465710 Si02
#       8
#     8   8   8   8   8   8   8   8
#     4  10  21  37  58  82 109 147 191 240 296 348
#     4  10  21  38  58  81 114 152 193 240 290 345
#     4   9  17  33  56  80 110 145 185 230 283 347
#     4  11  21  35  56  84 116 152 192 233 281 339
#     4   9  18  33  54  80 111 147 186 222 272 341
#     4  10  21  37  58  82 109 147 191 240 296 348
#     4  10  21  38  58  81 114 152 193 240 290 345
#     4  11  21  35  56  84 116 152 192 233 281 339
#
# _framework density 22.635245999999999
#
# number of rings (size 3 to 8) (size 9 to 14) (size 15 to 20)
#    0.000    2.000    1.250    2.625    0.000    5.500 
#    0.000    0.000    0.000    3.000    0.000    0.000 
#    0.000    0.000    0.000    0.000    0.000    0.000 
#
# Total GULP energy -357221.890032 kJ/mol
# GULP energy per Si atom -5581.592032 kJ/mol
# Density = 2.258373 g / cm^3
# Si number density = 22.635246 Si / 1000 Ang^3
#
#
#
# Elastic Constant Matrix: (Units=GPa)
#
#
# Indices 1 2 3 4 5 6 
#
# 1 65.0768 -13.5514 12.0547 0.0000 0.0000 0.0000
# 2 -13.5514 54.4181 5.0615 0.0000 0.0000 0.0000
# 3 12.0547 5.0615 125.9780 0.0000 0.0000 0.0000
# 4 0.0000 0.0000 0.0000 -5.1054 0.0000 0.0000
# 5 0.0000 0.0000 0.0000 0.0000 31.6617 0.0000
# 6 0.0000 0.0000 0.0000 0.0000 0.0000 12.7136
#
#
#
# Elastic Compliance Matrix: (Units=1/GPa)
#
#
# Indices 1 2 3 4 5 6 
#
# 1 0.016587 0.004294 -0.001760 0.000000 0.000000 0.000000
# 2 0.004294 0.019557 -0.001197 0.000000 0.000000 0.000000
# 3 -0.001760 -0.001197 0.008154 0.000000 0.000000 0.000000
# 4 0.000000 0.000000 0.000000 -0.195870 0.000000 0.000000
# 5 0.000000 0.000000 0.000000 0.000000 0.031584 0.000000
# 6 0.000000 0.000000 0.000000 0.000000 0.000000 0.078656
#
#
# Mechanical properties :
#
#
# Convention : Reuss Voigt Hill
#
# Bulk Modulus (GPa) = 21.28862 28.06693 24.67777
# Shear Modulus (GPa) = -176.36195 23.98120 -76.19038
#
# Velocity S-wave (km/s) = -8.83651 3.25847 -5.80802
# Velocity P-wave (km/s) = 9.73069 5.15591 5.83536
#
# Compressibility (1/GPa) = 0.04697345
#
# Stress axis : x y z
#
# Youngs Moduli (GPa) = 60.28961 51.13292 122.63386
#
# Poissons Ratio (x) = -0.21957 0.21580
# Poissons Ratio (y) = -0.25889 0.14675
# Poissons Ratio (z) = 0.10609 0.06119
#
# Static dielectric constant tensor:
#      x y z
#    x 1.781450 0.000000 0.000000 
#    y 0.000000 1.845150 0.000000 
#    z 0.000000 0.000000 1.867030 
# 
# From -- ./inp_files/15910.got.cif
#   From: 2010.05.17/outbox.cif.g08.bks.cpg/sg62_8_cif.got.tgz:15910.got - 2010.06.03 15:25:27.
