data_PCOD9465884
_publ_section_title
;
Structure prediction by ZEFSAII (Michael W. Deem and Ramdas Pophale) SiO2 
 PCOD9465884
Probable space group: P N M A
;
_chemical_formula_sum "Si O2"
_cell_formula_units_Z 56
_cell_length_a 8.560595
_cell_length_b 15.233939
_cell_length_c 22.809061
_cell_angle_alpha 90.000000
_cell_angle_beta 90.000000
_cell_angle_gamma 90.000000
_cell_volume 2974.565730
_symmetry_space_group_name_H-M "P N M A"
_symmetry_group_IT_number 62
_symmetry_cell_setting 'orthorhombic'
loop_
_space_group_symop_operation_xyz
x,y,z
1/2-x,-y,1/2+z
1/2+x,1/2-y,1/2-z
-x,1/2+y,-z
-x,-y,-z
1/2+x,y,1/2-z
1/2-x,1/2+y,1/2+z
x,1/2-y,z
loop_
_atom_site_type_symbol
_atom_site_label
_atom_site_fract_x
_atom_site_fract_y
_atom_site_fract_z
Si Si1 0.511776 0.461255 0.747702
Si Si2 0.242228 0.010750 0.163069
Si Si3 0.332205 0.354225 0.579751
Si Si4 0.168371 0.650733 0.568315
Si Si5 0.129088 0.069085 0.475047
Si Si6 0.269115 0.149107 0.817864
Si Si7 0.192836 0.095874 0.943498
O O1 0.604230 0.513480 0.797242
O O2 0.400001 0.520150 0.707994
O O3 0.629437 0.412130 0.704392
O O4 0.415567 0.387145 0.782309
O O5 0.222961 0.914015 0.134206
O O6 0.253796 0.080288 0.111330
O O7 0.332699 0.250000 0.591494
O O8 0.215266 0.378149 0.526534
O O9 0.508723 0.385057 0.563716
O O10 0.194455 0.750000 0.587416
O O11 0.244133 0.636831 0.503953
O O12 0.982577 0.630311 0.563684
O O13 0.259048 0.007030 0.445015
O O14 0.000000 0.000000 0.500000
O O15 0.238438 0.250000 0.804437
O O16 0.280522 0.136970 0.887613
#
# Coordination Sequence:
#
# PCOD9465884 Si02
#       7
#     8   8   8   8   8   8   8
#     4  10  24  39  58  82 119 169 212 251 314 365
#     4  11  23  44  62  89 122 166 208 267 314 373
#     4  12  23  37  60  93 131 171 208 250 309 381
#     4  11  23  42  67  96 125 161 212 268 327 383
#     4  10  21  38  59  88 127 167 202 249 313 378
#     4  11  21  35  55  85 121 162 209 255 298 368
#     4  11  22  38  61  94 131 166 205 255 317 380
#
# _framework density 18.826277999999999
#
# number of rings (size 3 to 8) (size 9 to 14) (size 15 to 20)
#    0.000    1.143    4.286    3.429    2.000    2.857 
#    0.000    0.714    0.000    0.000    0.000    0.000 
#    0.000    0.000    0.000    0.000    0.000    0.000 
#
# Total GULP energy -312703.028146 kJ/mol
# GULP energy per Si atom -5583.982645 kJ/mol
# Density = 1.878343 g / cm^3
# Si number density = 18.826278 Si / 1000 Ang^3
#
#
#
# Elastic Constant Matrix: (Units=GPa)
#
#
# Indices 1 2 3 4 5 6 
#
# 1 42.8173 22.8153 21.6652 0.0000 0.0000 0.0000
# 2 22.8153 77.7303 40.6871 0.0000 0.0000 0.0000
# 3 21.6652 40.6871 89.0194 0.0000 0.0000 0.0000
# 4 0.0000 0.0000 0.0000 2.6466 0.0000 0.0000
# 5 0.0000 0.0000 0.0000 0.0000 -122.0253 0.0000
# 6 0.0000 0.0000 0.0000 0.0000 0.0000 10.8131
#
#
#
# Elastic Compliance Matrix: (Units=1/GPa)
#
#
# Indices 1 2 3 4 5 6 
#
# 1 0.028798 -0.006289 -0.004134 0.000000 0.000000 0.000000
# 2 -0.006289 0.018284 -0.006826 0.000000 0.000000 0.000000
# 3 -0.004134 -0.006826 0.015360 0.000000 0.000000 0.000000
# 4 0.000000 0.000000 0.000000 0.377838 0.000000 0.000000
# 5 0.000000 0.000000 0.000000 0.000000 -0.008195 0.000000
# 6 0.000000 0.000000 0.000000 0.000000 0.000000 0.092480
#
#
# Mechanical properties :
#
#
# Convention : Reuss Voigt Hill
#
# Bulk Modulus (GPa) = 35.78732 42.21135 38.99933
# Shear Modulus (GPa) = 8.79695 -13.41981 -2.31143
#
# Velocity S-wave (km/s) = 2.16399 -2.67277 -1.10925
# Velocity P-wave (km/s) = 5.02934 3.59795 4.37262
#
# Compressibility (1/GPa) = 0.02794286
#
# Stress axis : x y z
#
# Youngs Moduli (GPa) = 34.72476 54.69264 65.10501
#
# Poissons Ratio (x) = 0.34394 0.26918
# Poissons Ratio (y) = 0.21837 0.44443
# Poissons Ratio (z) = 0.14357 0.37335
#
# Static dielectric constant tensor:
#      x y z
#    x 1.688240 0.000000 0.000000 
#    y 0.000000 1.640240 0.000000 
#    z 0.000000 0.000000 1.656340 
# 
# From -- ./inp_files/25997.got.cif
#   From: 2010.05.17/outbox.cif.g08.bks.cpg/sg62_13_cif.got.tgz:25997.got - 2010.06.03 15:25:27.
