data_PCOD9465644
_publ_section_title
;
Structure prediction by ZEFSAII (Michael W. Deem and Ramdas Pophale) SiO2 
 PCOD9465644
Probable space group: P N M A
;
_chemical_formula_sum "Si O2"
_cell_formula_units_Z 56
_cell_length_a 5.060289
_cell_length_b 29.763406
_cell_length_c 16.063601
_cell_angle_alpha 90.000000
_cell_angle_beta 90.000000
_cell_angle_gamma 90.000000
_cell_volume 2419.362014
_symmetry_space_group_name_H-M "P N M A"
_symmetry_group_IT_number 62
_symmetry_cell_setting 'orthorhombic'
loop_
_space_group_symop_operation_xyz
x,y,z
1/2-x,-y,1/2+z
1/2+x,1/2-y,1/2-z
-x,1/2+y,-z
-x,-y,-z
1/2+x,y,1/2-z
1/2-x,1/2+y,1/2+z
x,1/2-y,z
loop_
_atom_site_type_symbol
_atom_site_label
_atom_site_fract_x
_atom_site_fract_y
_atom_site_fract_z
Si Si1 0.581441 0.429464 0.439016
Si Si2 0.970371 0.395650 0.574277
Si Si3 0.212703 0.017580 0.567786
Si Si4 0.586945 0.750000 0.095510
Si Si5 0.765563 0.654486 0.561128
Si Si6 0.386785 0.196794 0.193739
Si Si7 0.194415 0.165617 0.802573
Si Si8 0.928315 0.250000 0.012018
O O1 0.827811 0.408911 0.487938
O O2 0.677920 0.473054 0.386659
O O3 0.424303 0.455369 0.512440
O O4 0.402302 0.388555 0.406502
O O5 0.764731 0.375002 0.637313
O O6 0.084682 0.440735 0.615826
O O7 0.171588 0.359039 0.535295
O O8 0.000000 0.000000 0.500000
O O9 0.692521 0.708243 0.148286
O O10 0.283089 0.750000 0.065590
O O11 0.768245 0.750000 0.014132
O O12 0.019230 0.666039 0.617605
O O13 0.621771 0.702950 0.558373
O O14 0.103022 0.188280 0.233755
O O15 0.404366 0.250000 0.172882
O O16 0.389635 0.164717 0.722831
#
# Coordination Sequence:
#
# PCOD9465644 Si02
#       8
#     8   8   8   4   8   8   8   4
#     4   9  18  33  61  91 119 153 197 259 311 369
#     4  10  21  36  61  90 120 156 212 266 311 374
#     4   8  16  33  57  92 119 149 193 257 317 374
#     4  12  24  43  58  83 122 163 219 268 316 371
#     4  11  22  37  61  93 120 159 207 261 311 363
#     4  10  23  41  59  84 122 164 199 239 302 374
#     4  12  26  41  59  84 124 174 215 263 322 380
#     4  12  24  37  64  93 122 157 209 278 306 353
#
# _framework density 23.146598999999998
#
# number of rings (size 3 to 8) (size 9 to 14) (size 15 to 20)
#    0.000    1.714    2.143    2.143    6.000    0.000 
#    0.000    0.000    0.000    1.714    0.000    0.000 
#    0.000    0.000    0.000    0.000    0.000    0.000 
#
# Total GULP energy -312524.174941 kJ/mol
# GULP energy per Si atom -5580.788838 kJ/mol
# Density = 2.309392 g / cm^3
# Si number density = 23.146599 Si / 1000 Ang^3
#
#
#
# Elastic Constant Matrix: (Units=GPa)
#
#
# Indices 1 2 3 4 5 6 
#
# 1 52.4087 11.3133 5.6809 0.0000 0.0000 0.0000
# 2 11.3133 140.4163 22.6770 0.0000 0.0000 0.0000
# 3 5.6809 22.6770 52.1126 0.0000 0.0000 0.0000
# 4 0.0000 0.0000 0.0000 149.4539 0.0000 0.0000
# 5 0.0000 0.0000 0.0000 0.0000 24.4257 0.0000
# 6 0.0000 0.0000 0.0000 0.0000 0.0000 32.3488
#
#
#
# Elastic Compliance Matrix: (Units=1/GPa)
#
#
# Indices 1 2 3 4 5 6 
#
# 1 0.019535 -0.001323 -0.001554 0.000000 0.000000 0.000000
# 2 -0.001323 0.007750 -0.003228 0.000000 0.000000 0.000000
# 3 -0.001554 -0.003228 0.020763 0.000000 0.000000 0.000000
# 4 0.000000 0.000000 0.000000 0.006691 0.000000 0.000000
# 5 0.000000 0.000000 0.000000 0.000000 0.040940 0.000000
# 6 0.000000 0.000000 0.000000 0.000000 0.000000 0.030913
#
#
# Mechanical properties :
#
#
# Convention : Reuss Voigt Hill
#
# Bulk Modulus (GPa) = 27.90334 36.03111 31.96723
# Shear Modulus (GPa) = 33.16794 54.93009 44.04902
#
# Velocity S-wave (km/s) = 3.78954 4.87677 4.36712
# Velocity P-wave (km/s) = 5.58827 6.87829 6.26656
#
# Compressibility (1/GPa) = 0.03583800
#
# Stress axis : x y z
#
# Youngs Moduli (GPa) = 51.19063 129.03896 48.16193
#
# Poissons Ratio (x) = 0.17071 0.07484
# Poissons Ratio (y) = 0.06772 0.15547
# Poissons Ratio (z) = 0.07954 0.41654
#
# Static dielectric constant tensor:
#      x y z
#    x 2.056590 0.000000 0.000000 
#    y 0.000000 2.056310 0.000000 
#    z 0.000000 0.000000 1.896350 
# 
# From -- ./inp_files/16300.got.cif
#   From: 2010.05.17/outbox.cif.g08.bks.cpg/sg62_9_cif.got.tgz:16300.got - 2010.06.03 15:25:27.
