data_PCOD9465671
_publ_section_title
;
Structure prediction by ZEFSAII (Michael W. Deem and Ramdas Pophale) SiO2 
 PCOD9465671
Probable space group: P N M A
;
_chemical_formula_sum "Si O2"
_cell_formula_units_Z 48
_cell_length_a 31.952309
_cell_length_b 8.505203
_cell_length_c 9.576031
_cell_angle_alpha 90.000000
_cell_angle_beta 90.000000
_cell_angle_gamma 90.000000
_cell_volume 2602.390557
_symmetry_space_group_name_H-M "P N M A"
_symmetry_group_IT_number 62
_symmetry_cell_setting 'orthorhombic'
loop_
_space_group_symop_operation_xyz
x,y,z
1/2-x,-y,1/2+z
1/2+x,1/2-y,1/2-z
-x,1/2+y,-z
-x,-y,-z
1/2+x,y,1/2-z
1/2-x,1/2+y,1/2+z
x,1/2-y,z
loop_
_atom_site_type_symbol
_atom_site_label
_atom_site_fract_x
_atom_site_fract_y
_atom_site_fract_z
Si Si1 0.132441 0.940237 0.914964
Si Si2 0.461492 0.439415 0.088922
Si Si3 0.038388 0.939170 0.910740
Si Si4 0.710798 0.559707 0.092594
Si Si5 0.367926 0.441489 0.089910
Si Si6 0.709759 0.438082 0.408033
O O1 0.134460 0.750000 0.919925
O O2 0.085154 0.988744 0.955981
O O3 0.139112 0.986930 0.752189
O O4 0.167516 0.008271 0.015328
O O5 0.461648 0.250000 0.084242
O O6 0.466680 0.488322 0.249868
O O7 0.414684 0.491602 0.045362
O O8 0.500000 0.500000 0.000000
O O9 0.038127 0.750000 0.914224
O O10 0.000000 0.000000 0.000000
O O11 0.710442 0.750000 0.094225
O O12 0.712553 0.502006 0.251074
O O13 0.668862 0.505503 0.012119
O O14 0.750977 0.507926 0.002550
O O15 0.367729 0.250000 0.089367
O O16 0.711063 0.250000 0.402002
#
# Coordination Sequence:
#
# PCOD9465671 Si02
#       6
#     8   8   8   8   8   8
#     4   9  18  36  58  76 102 142 179 213 261 315
#     4   9  18  33  52  75 102 133 172 214 256 304
#     4   9  19  34  53  77 105 140 179 218 261 309
#     4  10  21  37  56  77 103 137 173 209 256 312
#     4   8  16  34  57  75  96 134 179 213 247 306
#     4  11  23  36  54  82 109 134 170 217 262 306
#
# _framework density 18.444579999999998
#
# number of rings (size 3 to 8) (size 9 to 14) (size 15 to 20)
#    0.000    2.667    0.000    3.500    0.000    5.333 
#    0.000    9.167    0.000    0.000    0.000    0.000 
#    0.000    0.000    0.000    0.000    0.000    0.000 
#
# Total GULP energy -267743.882684 kJ/mol
# GULP energy per Si atom -5577.997556 kJ/mol
# Density = 1.840260 g / cm^3
# Si number density = 18.444580 Si / 1000 Ang^3
#
#
#
# Elastic Constant Matrix: (Units=GPa)
#
#
# Indices 1 2 3 4 5 6 
#
# 1 217.4899 30.6073 133.4245 0.0000 0.0000 0.0000
# 2 30.6073 8.5976 24.4602 0.0000 0.0000 0.0000
# 3 133.4245 24.4602 138.2012 0.0000 0.0000 0.0000
# 4 0.0000 0.0000 0.0000 30.3442 0.0000 0.0000
# 5 0.0000 0.0000 0.0000 0.0000 42.5948 0.0000
# 6 0.0000 0.0000 0.0000 0.0000 0.0000 26.8564
#
#
#
# Elastic Compliance Matrix: (Units=1/GPa)
#
#
# Indices 1 2 3 4 5 6 
#
# 1 0.012950 -0.021214 -0.008747 0.000000 0.000000 0.000000
# 2 -0.021214 0.269036 -0.027136 0.000000 0.000000 0.000000
# 3 -0.008747 -0.027136 0.020484 0.000000 0.000000 0.000000
# 4 0.000000 0.000000 0.000000 0.032955 0.000000 0.000000
# 5 0.000000 0.000000 0.000000 0.000000 0.023477 0.000000
# 6 0.000000 0.000000 0.000000 0.000000 0.000000 0.037235
#
#
# Mechanical properties :
#
#
# Convention : Reuss Voigt Hill
#
# Bulk Modulus (GPa) = 5.31138 82.36364 43.83751
# Shear Modulus (GPa) = 8.72463 31.67886 20.20175
#
# Velocity S-wave (km/s) = 2.17726 4.14879 3.31307
# Velocity P-wave (km/s) = 3.03422 8.22809 6.20113
#
# Compressibility (1/GPa) = 0.18827484
#
# Stress axis : x y z
#
# Youngs Moduli (GPa) = 77.22198 3.71697 48.81950
#
# Poissons Ratio (x) = 0.07885 0.42704
# Poissons Ratio (y) = 1.63821 1.32475
# Poissons Ratio (z) = 0.67549 0.10086
#
# Static dielectric constant tensor:
#      x y z
#    x 1.639760 0.000000 0.000000 
#    y 0.000000 1.654810 0.000000 
#    z 0.000000 0.000000 1.601780 
# 
# From -- ./inp_files/10126.got.cif
#   From: 2010.05.17/outbox.cif.g08.bks.cpg/sg62_6_cif.got.tgz:10126.got - 2010.06.03 15:25:27.
