data_PCOD9465662
_publ_section_title
;
Structure prediction by ZEFSAII (Michael W. Deem and Ramdas Pophale) SiO2 
 PCOD9465662
Probable space group: P N M A
;
_chemical_formula_sum "Si O2"
_cell_formula_units_Z 56
_cell_length_a 8.024112
_cell_length_b 22.189594
_cell_length_c 11.979346
_cell_angle_alpha 90.000000
_cell_angle_beta 90.000000
_cell_angle_gamma 90.000000
_cell_volume 2132.943968
_symmetry_space_group_name_H-M "P N M A"
_symmetry_group_IT_number 62
_symmetry_cell_setting 'orthorhombic'
loop_
_space_group_symop_operation_xyz
x,y,z
1/2-x,-y,1/2+z
1/2+x,1/2-y,1/2-z
-x,1/2+y,-z
-x,-y,-z
1/2+x,y,1/2-z
1/2-x,1/2+y,1/2+z
x,1/2-y,z
loop_
_atom_site_type_symbol
_atom_site_label
_atom_site_fract_x
_atom_site_fract_y
_atom_site_fract_z
Si Si1 0.635877 0.473213 0.640291
Si Si2 0.545164 0.049183 0.096203
Si Si3 0.646801 0.137254 0.793259
Si Si4 0.828090 0.558974 0.884481
Si Si5 0.498580 0.680824 0.987868
Si Si6 0.866033 0.685759 0.877583
Si Si7 0.960454 0.314291 0.892193
O O1 0.790275 0.519300 0.646402
O O2 0.625336 0.428928 0.744837
O O3 0.665824 0.436360 0.522481
O O4 0.460556 0.506881 0.632642
O O5 0.362753 0.051531 0.150816
O O6 0.581586 0.118892 0.061594
O O7 0.500000 0.000000 0.000000
O O8 0.513833 0.163387 0.881300
O O9 0.623520 0.177223 0.682683
O O10 0.823497 0.138778 0.854013
O O11 0.888630 0.620570 0.824691
O O12 0.430409 0.750000 0.974093
O O13 0.682442 0.683767 0.933897
O O14 0.882522 0.750000 0.815584
O O15 0.995981 0.685655 0.979136
O O16 0.883015 0.250000 0.863688
#
# Coordination Sequence:
#
# PCOD9465662 Si02
#       7
#     8   8   8   8   8   8   8
#     4  10  21  37  53  77 109 155 218 255 289 357
#     4   9  20  36  61  81 110 164 214 257 300 360
#     4  12  24  35  50  82 117 158 201 248 306 371
#     4   9  18  37  55  72 102 153 205 252 301 341
#     4  10  21  38  60  89 127 166 206 253 316 383
#     4   9  18  35  56  82 113 153 203 248 296 369
#     4  11  22  34  49  73 113 157 192 231 287 359
#
# _framework density 26.254791999999998
#
# number of rings (size 3 to 8) (size 9 to 14) (size 15 to 20)
#    0.000    2.000    1.429    2.143    6.000    2.286 
#    2.571    0.000    0.000    0.000    0.000    0.000 
#    0.000    2.286    0.000    0.000    0.000    2.143 
#
# Total GULP energy -312972.200452 kJ/mol
# GULP energy per Si atom -5588.789294 kJ/mol
# Density = 2.619504 g / cm^3
# Si number density = 26.254792 Si / 1000 Ang^3
#
#
#
# Elastic Constant Matrix: (Units=GPa)
#
#
# Indices 1 2 3 4 5 6 
#
# 1 100.6503 38.1166 11.4918 0.0000 0.0000 0.0000
# 2 38.1166 224.2115 27.3237 0.0000 0.0000 0.0000
# 3 11.4918 27.3237 71.4446 0.0000 0.0000 0.0000
# 4 0.0000 0.0000 0.0000 32.5091 0.0000 0.0000
# 5 0.0000 0.0000 0.0000 0.0000 30.8354 0.0000
# 6 0.0000 0.0000 0.0000 0.0000 0.0000 34.8150
#
#
#
# Elastic Compliance Matrix: (Units=1/GPa)
#
#
# Indices 1 2 3 4 5 6 
#
# 1 0.010697 -0.001688 -0.001075 0.000000 0.000000 0.000000
# 2 -0.001688 0.004944 -0.001619 0.000000 0.000000 0.000000
# 3 -0.001075 -0.001619 0.014789 0.000000 0.000000 0.000000
# 4 0.000000 0.000000 0.000000 0.030761 0.000000 0.000000
# 5 0.000000 0.000000 0.000000 0.000000 0.032430 0.000000
# 6 0.000000 0.000000 0.000000 0.000000 0.000000 0.028723
#
#
# Mechanical properties :
#
#
# Convention : Reuss Voigt Hill
#
# Bulk Modulus (GPa) = 46.15485 61.13004 53.64244
# Shear Modulus (GPa) = 36.14506 40.92352 38.53429
#
# Velocity S-wave (km/s) = 3.71442 3.95233 3.83522
# Velocity P-wave (km/s) = 6.00114 6.64543 6.33149
#
# Compressibility (1/GPa) = 0.02166620
#
# Stress axis : x y z
#
# Youngs Moduli (GPa) = 93.48223 202.25231 67.61697
#
# Poissons Ratio (x) = 0.34130 0.07270
# Poissons Ratio (y) = 0.15775 0.10951
# Poissons Ratio (z) = 0.10052 0.32755
#
# Static dielectric constant tensor:
#      x y z
#    x 2.009150 0.000000 0.000000 
#    y 0.000000 2.284460 0.000000 
#    z 0.000000 0.000000 2.156480 
# 
# From -- ./inp_files/17197.got.cif
#   From: 2010.05.17/outbox.cif.g08.bks.cpg/sg62_9_cif.got.tgz:17197.got - 2010.06.03 15:25:27.
