data_PCOD9465416
_publ_section_title
;
Structure prediction by ZEFSAII (Michael W. Deem and Ramdas Pophale) SiO2 
 PCOD9465416
Probable space group: P N M A
;
_chemical_formula_sum "Si O2"
_cell_formula_units_Z 44
_cell_length_a 13.969579
_cell_length_b 20.852570
_cell_length_c 6.766307
_cell_angle_alpha 90.000000
_cell_angle_beta 90.000000
_cell_angle_gamma 90.000000
_cell_volume 1971.036217
_symmetry_space_group_name_H-M "P N M A"
_symmetry_group_IT_number 62
_symmetry_cell_setting 'orthorhombic'
loop_
_space_group_symop_operation_xyz
x,y,z
1/2-x,-y,1/2+z
1/2+x,1/2-y,1/2-z
-x,1/2+y,-z
-x,-y,-z
1/2+x,y,1/2-z
1/2-x,1/2+y,1/2+z
x,1/2-y,z
loop_
_atom_site_type_symbol
_atom_site_label
_atom_site_fract_x
_atom_site_fract_y
_atom_site_fract_z
Si Si1 0.227541 0.250000 0.060309
Si Si2 0.992054 0.453377 0.690896
Si Si3 0.767821 0.638179 0.630164
Si Si4 0.001310 0.250000 0.099442
Si Si5 0.813100 0.250000 0.861095
Si Si6 0.006886 0.125359 0.351340
Si Si7 0.115942 0.967989 0.917827
O O1 0.289549 0.250000 0.866337
O O2 0.249218 0.185166 0.183227
O O3 0.111735 0.250000 0.028280
O O4 0.971966 0.387341 0.575189
O O5 0.091291 0.463775 0.814719
O O6 0.000000 0.500000 0.500000
O O7 0.909865 0.467092 0.851260
O O8 0.734873 0.685719 0.454566
O O9 0.879166 0.622091 0.628038
O O10 0.711391 0.571053 0.626787
O O11 0.983945 0.190945 0.244786
O O12 0.923533 0.250000 0.926940
O O13 0.963568 0.075315 0.194268
#
# Coordination Sequence:
#
# PCOD9465416 Si02
#       7
#     4   8   8   4   4   8   8
#     4   9  23  41  60  95 133 159 217 258 312 378
#     4   9  21  41  64  91 122 167 207 259 315 372
#     4  10  22  41  61  96 125 161 215 262 300 389
#     4  10  20  42  67  92 133 168 208 266 308 392
#     4  11  21  41  61  97 124 167 205 258 320 370
#     4  10  21  41  64  93 127 168 209 260 321 367
#     4  10  20  42  63  91 131 159 213 261 308 381
#
# _framework density 22.323281999999999
#
# number of rings (size 3 to 8) (size 9 to 14) (size 15 to 20)
#    0.000    2.182    1.818    0.545    0.000    5.818 
#   13.091    1.818    0.000    0.000    0.000    0.000 
#    0.000    0.000    0.000    0.000    0.000    0.000 
#
# Total GULP energy -245381.058483 kJ/mol
# GULP energy per Si atom -5576.842238 kJ/mol
# Density = 2.227247 g / cm^3
# Si number density = 22.323282 Si / 1000 Ang^3
#
#
#
# Elastic Constant Matrix: (Units=GPa)
#
#
# Indices 1 2 3 4 5 6 
#
# 1 63.3898 -8.1713 28.7793 0.0000 0.0000 0.0000
# 2 -8.1713 29.3754 16.6790 0.0000 0.0000 0.0000
# 3 28.7793 16.6790 158.9868 0.0000 0.0000 0.0000
# 4 0.0000 0.0000 0.0000 1.9529 0.0000 0.0000
# 5 0.0000 0.0000 0.0000 0.0000 7.9855 0.0000
# 6 0.0000 0.0000 0.0000 0.0000 0.0000 58.8555
#
#
#
# Elastic Compliance Matrix: (Units=1/GPa)
#
#
# Indices 1 2 3 4 5 6 
#
# 1 0.018640 0.007551 -0.004166 0.000000 0.000000 0.000000
# 2 0.007551 0.039257 -0.005485 0.000000 0.000000 0.000000
# 3 -0.004166 -0.005485 0.007619 0.000000 0.000000 0.000000
# 4 0.000000 0.000000 0.000000 0.512053 0.000000 0.000000
# 5 0.000000 0.000000 0.000000 0.000000 0.125227 0.000000
# 6 0.000000 0.000000 0.000000 0.000000 0.000000 0.016991
#
#
# Mechanical properties :
#
#
# Convention : Reuss Voigt Hill
#
# Bulk Modulus (GPa) = 16.30926 36.25846 26.28386
# Shear Modulus (GPa) = 6.71657 28.05645 17.38651
#
# Velocity S-wave (km/s) = 1.73646 3.54902 2.79382
# Velocity P-wave (km/s) = 3.36782 5.75080 4.71243
#
# Compressibility (1/GPa) = 0.06131488
#
# Stress axis : x y z
#
# Youngs Moduli (GPa) = 53.64735 25.47330 131.24317
#
# Poissons Ratio (x) = -0.19234 0.54680
# Poissons Ratio (y) = -0.40507 0.71989
# Poissons Ratio (z) = 0.22351 0.13973
#
# Static dielectric constant tensor:
#      x y z
#    x 1.829270 0.000000 0.000000 
#    y 0.000000 2.322810 0.000000 
#    z 0.000000 0.000000 1.809920 
# 
# From -- ./inp_files/1119.got.cif
#   From: 2010.05.17/outbox.cif.g08.bks.cpg/sg62_1_cif.got.tgz:1119.got - 2010.06.03 15:25:27.
