data_PCOD9465394
_publ_section_title
;
Structure prediction by ZEFSAII (Michael W. Deem and Ramdas Pophale) SiO2 
 PCOD9465394
Probable space group: P N M A
;
_chemical_formula_sum "Si O2"
_cell_formula_units_Z 56
_cell_length_a 14.706522
_cell_length_b 30.764848
_cell_length_c 5.770617
_cell_angle_alpha 90.000000
_cell_angle_beta 90.000000
_cell_angle_gamma 90.000000
_cell_volume 2610.880541
_symmetry_space_group_name_H-M "P N M A"
_symmetry_group_IT_number 62
_symmetry_cell_setting 'orthorhombic'
loop_
_space_group_symop_operation_xyz
x,y,z
1/2-x,-y,1/2+z
1/2+x,1/2-y,1/2-z
-x,1/2+y,-z
-x,-y,-z
1/2+x,y,1/2-z
1/2-x,1/2+y,1/2+z
x,1/2-y,z
loop_
_atom_site_type_symbol
_atom_site_label
_atom_site_fract_x
_atom_site_fract_y
_atom_site_fract_z
Si Si1 0.339694 0.965991 0.435131
Si Si2 0.406791 0.347516 0.754826
Si Si3 0.457711 0.750000 0.841206
Si Si4 0.492357 0.908133 0.626468
Si Si5 0.325022 0.061315 0.261618
Si Si6 0.935354 0.250000 0.846522
Si Si7 0.769211 0.890484 0.346084
Si Si8 0.918499 0.659061 0.557725
O O1 0.434744 0.948418 0.532325
O O2 0.250295 0.953760 0.581746
O O3 0.319414 0.935639 0.213106
O O4 0.341649 0.017372 0.409133
O O5 0.460183 0.378159 0.569531
O O6 0.388357 0.298007 0.664526
O O7 0.312864 0.372299 0.811759
O O8 0.478656 0.341698 0.961315
O O9 0.515571 0.750000 0.600833
O O10 0.400528 0.793975 0.840051
O O11 0.506158 0.750000 0.100817
O O12 0.572655 0.924091 0.797374
O O13 0.418648 0.878108 0.750992
O O14 0.280689 0.099552 0.412451
O O15 0.846358 0.854333 0.365671
#
# Coordination Sequence:
#
# PCOD9465394 Si02
#       8
#     8   8   4   8   8   4   8   8
#     4  12  22  42  60  87 127 162 213 268 322 387
#     4  10  22  39  63  88 127 161 210 253 321 386
#     4  10  22  37  70  93 133 169 214 267 330 387
#     4  11  22  38  63  89 120 162 210 256 323 386
#     4  11  24  39  59  89 121 163 207 264 318 382
#     4  10  20  41  64  97 129 173 208 273 322 391
#     4  11  23  39  62  89 121 164 211 257 319 381
#     4  11  21  41  62  94 122 164 208 262 321 392
#
# _framework density 21.448702999999998
#
# number of rings (size 3 to 8) (size 9 to 14) (size 15 to 20)
#    0.000    1.143    5.714    1.286    0.000    0.571 
#    0.000    1.429    0.000    1.714    0.000    0.000 
#    0.000    0.000    0.000    0.000    0.000    0.000 
#
# Total GULP energy -311949.135343 kJ/mol
# GULP energy per Si atom -5570.520274 kJ/mol
# Density = 2.139988 g / cm^3
# Si number density = 21.448703 Si / 1000 Ang^3
#
#
#
# Elastic Constant Matrix: (Units=GPa)
#
#
# Indices 1 2 3 4 5 6 
#
# 1 94.0202 29.0656 -1.6005 0.0000 0.0000 0.0000
# 2 29.0656 101.7540 -7.5869 0.0000 0.0000 0.0000
# 3 -1.6005 -7.5869 27.5201 0.0000 0.0000 0.0000
# 4 0.0000 0.0000 0.0000 25.8839 0.0000 0.0000
# 5 0.0000 0.0000 0.0000 0.0000 -5.1609 0.0000
# 6 0.0000 0.0000 0.0000 0.0000 0.0000 19.7490
#
#
#
# Elastic Compliance Matrix: (Units=1/GPa)
#
#
# Indices 1 2 3 4 5 6 
#
# 1 0.011668 -0.003351 -0.000245 0.000000 0.000000 0.000000
# 2 -0.003351 0.010996 0.002837 0.000000 0.000000 0.000000
# 3 -0.000245 0.002837 0.037105 0.000000 0.000000 0.000000
# 4 0.000000 0.000000 0.000000 0.038634 0.000000 0.000000
# 5 0.000000 0.000000 0.000000 0.000000 -0.193763 0.000000
# 6 0.000000 0.000000 0.000000 0.000000 0.000000 0.050635
#
#
# Mechanical properties :
#
#
# Convention : Reuss Voigt Hill
#
# Bulk Modulus (GPa) = 17.16752 29.22784 23.19768
# Shear Modulus (GPa) = -210.18574 21.65548 -94.26513
#
# Velocity S-wave (km/s) = -9.90996 3.18093 -6.63660
# Velocity P-wave (km/s) = 11.08701 5.21033 6.92005
#
# Compressibility (1/GPa) = 0.05824952
#
# Stress axis : x y z
#
# Youngs Moduli (GPa) = 85.70585 90.93907 26.95062
#
# Poissons Ratio (x) = 0.30475 0.00661
# Poissons Ratio (y) = 0.28721 -0.07645
# Poissons Ratio (z) = 0.02102 -0.25796
#
# Static dielectric constant tensor:
#      x y z
#    x 1.768640 0.000000 0.000000 
#    y 0.000000 1.799130 0.000000 
#    z 0.000000 0.000000 1.865550 
# 
# From -- ./inp_files/1293.got.cif
#   From: 2010.05.17/outbox.cif.g08.bks.cpg/sg62_1_cif.got.tgz:1293.got - 2010.06.03 15:25:27.
