data_PCOD9465048
_publ_section_title
;
Structure prediction by ZEFSAII (Michael W. Deem and Ramdas Pophale) SiO2 
 PCOD9465048
Probable space group: P N M A
;
_chemical_formula_sum "Si O2"
_cell_formula_units_Z 48
_cell_length_a 8.045113
_cell_length_b 15.770751
_cell_length_c 16.235171
_cell_angle_alpha 90.000000
_cell_angle_beta 90.000000
_cell_angle_gamma 90.000000
_cell_volume 2059.877485
_symmetry_space_group_name_H-M "P N M A"
_symmetry_group_IT_number 62
_symmetry_cell_setting 'orthorhombic'
loop_
_space_group_symop_operation_xyz
x,y,z
1/2-x,-y,1/2+z
1/2+x,1/2-y,1/2-z
-x,1/2+y,-z
-x,-y,-z
1/2+x,y,1/2-z
1/2-x,1/2+y,1/2+z
x,1/2-y,z
loop_
_atom_site_type_symbol
_atom_site_label
_atom_site_fract_x
_atom_site_fract_y
_atom_site_fract_z
Si Si1 0.422537 0.061701 0.281594
Si Si2 0.309160 0.250000 0.264908
Si Si3 0.243988 0.980053 0.620991
Si Si4 0.358531 0.153610 0.994556
Si Si5 0.862311 0.344688 0.852036
Si Si6 0.257395 0.604411 0.329972
Si Si7 0.008290 0.250000 0.383470
O O1 0.382432 0.159965 0.292053
O O2 0.407424 0.036530 0.184806
O O3 0.599588 0.045618 0.322150
O O4 0.297925 0.995131 0.324013
O O5 0.330735 0.250000 0.165659
O O6 0.130893 0.250000 0.307793
O O7 0.238545 0.919613 0.542411
O O8 0.275232 0.078152 0.599965
O O9 0.285155 0.250000 0.993439
O O10 0.515511 0.171112 0.054351
O O11 0.372902 0.126881 0.900767
O O12 0.816635 0.250000 0.878174
O O13 0.804299 0.360506 0.757416
O O14 0.062376 0.355637 0.852656
#
# Coordination Sequence:
#
# PCOD9465048 Si02
#       7
#     8   4   8   8   8   8   4
#     4  10  21  34  61  88 120 157 203 251 287 367
#     4  12  20  38  62  92 118 159 209 241 291 366
#     4  10  21  36  59  90 119 154 206 242 303 353
#     4  10  21  38  62  85 120 163 193 248 306 353
#     4  10  20  37  65  88 114 161 201 252 286 370
#     4  10  22  41  64  87 120 156 209 243 307 357
#     4  10  24  34  68  86 122 161 203 237 303 352
#
# _framework density 23.302357000000001
#
# number of rings (size 3 to 8) (size 9 to 14) (size 15 to 20)
#    0.500    1.333    1.667    2.500    1.167    2.667 
#    0.000    0.833    5.500    0.000    0.000    0.000 
#    0.000    0.000    0.000    0.000    0.000    0.000 
#
# Total GULP energy -267844.885692 kJ/mol
# GULP energy per Si atom -5580.101785 kJ/mol
# Density = 2.324932 g / cm^3
# Si number density = 23.302357 Si / 1000 Ang^3
#
#
#
# Elastic Constant Matrix: (Units=GPa)
#
#
# Indices 1 2 3 4 5 6 
#
# 1 44.9913 17.4608 -4.3543 0.0000 0.0000 0.0000
# 2 17.4608 210.4376 33.8483 0.0000 0.0000 0.0000
# 3 -4.3543 33.8483 47.8776 0.0000 0.0000 0.0000
# 4 0.0000 0.0000 0.0000 34.9033 0.0000 0.0000
# 5 0.0000 0.0000 0.0000 0.0000 6.5754 0.0000
# 6 0.0000 0.0000 0.0000 0.0000 0.0000 18.5116
#
#
#
# Elastic Compliance Matrix: (Units=1/GPa)
#
#
# Indices 1 2 3 4 5 6 
#
# 1 0.023622 -0.002601 0.003987 0.000000 0.000000 0.000000
# 2 -0.002601 0.005648 -0.004230 0.000000 0.000000 0.000000
# 3 0.003987 -0.004230 0.024240 0.000000 0.000000 0.000000
# 4 0.000000 0.000000 0.000000 0.028651 0.000000 0.000000
# 5 0.000000 0.000000 0.000000 0.000000 0.152083 0.000000
# 6 0.000000 0.000000 0.000000 0.000000 0.000000 0.054020
#
#
# Mechanical properties :
#
#
# Convention : Reuss Voigt Hill
#
# Bulk Modulus (GPa) = 20.91066 44.13511 32.52289
# Shear Modulus (GPa) = 16.13470 29.08817 22.61143
#
# Velocity S-wave (km/s) = 2.63422 3.53695 3.11842
# Velocity P-wave (km/s) = 4.27144 5.97171 5.19166
#
# Compressibility (1/GPa) = 0.04782249
#
# Stress axis : x y z
#
# Youngs Moduli (GPa) = 42.33341 177.04793 41.25488
#
# Poissons Ratio (x) = 0.46057 -0.16450
# Poissons Ratio (y) = 0.11013 0.17450
# Poissons Ratio (z) = -0.16880 0.74886
#
# Static dielectric constant tensor:
#      x y z
#    x 1.996400 0.000000 0.000000 
#    y 0.000000 1.913160 0.000000 
#    z 0.000000 0.000000 1.845660 
# 
# From -- ./inp_files/22363.got.cif
#   From: 2010.05.17/outbox.cif.g08.bks.cpg/sg62_12_cif.got.tgz:22363.got - 2010.06.03 15:25:27.
