data_PCOD9465707
_publ_section_title
;
Structure prediction by ZEFSAII (Michael W. Deem and Ramdas Pophale) SiO2 
 PCOD9465707
Probable space group: P N M A
;
_chemical_formula_sum "Si O2"
_cell_formula_units_Z 64
_cell_length_a 12.964536
_cell_length_b 15.450206
_cell_length_c 14.869271
_cell_angle_alpha 90.000000
_cell_angle_beta 90.000000
_cell_angle_gamma 90.000000
_cell_volume 2978.385639
_symmetry_space_group_name_H-M "P N M A"
_symmetry_group_IT_number 62
_symmetry_cell_setting 'orthorhombic'
loop_
_space_group_symop_operation_xyz
x,y,z
1/2-x,-y,1/2+z
1/2+x,1/2-y,1/2-z
-x,1/2+y,-z
-x,-y,-z
1/2+x,y,1/2-z
1/2-x,1/2+y,1/2+z
x,1/2-y,z
loop_
_atom_site_type_symbol
_atom_site_label
_atom_site_fract_x
_atom_site_fract_y
_atom_site_fract_z
Si Si1 0.729420 0.929800 0.971914
Si Si2 0.709222 0.652784 0.293203
Si Si3 0.813658 0.968027 0.154934
Si Si4 0.435805 0.647927 0.602922
Si Si5 0.031161 0.554214 0.733769
Si Si6 0.019223 0.650411 0.546316
Si Si7 0.108626 0.078270 0.613470
Si Si8 0.992652 0.353137 0.909807
O O1 0.822987 0.873780 0.934733
O O2 0.633466 0.867592 0.991647
O O3 0.686542 0.998371 0.901119
O O4 0.763827 0.983817 0.058826
O O5 0.689573 0.750000 0.258965
O O6 0.732431 0.585203 0.214465
O O7 0.818003 0.651476 0.347382
O O8 0.614413 0.629192 0.358789
O O9 0.913223 0.907205 0.132378
O O10 0.860098 0.047327 0.211683
O O11 0.446553 0.750000 0.624826
O O12 0.456100 0.587054 0.688231
O O13 0.509602 0.627328 0.516988
O O14 0.020167 0.618063 0.649176
O O15 0.026527 0.459757 0.685226
O O16 0.992241 0.750000 0.542228
O O17 0.943496 0.598825 0.480643
O O18 0.014215 0.250000 0.902062
#
# Coordination Sequence:
#
# PCOD9465707 Si02
#       8
#     8   8   8   8   8   8   8   8
#     4  10  22  40  65  91 126 164 214 257 322 384
#     4  10  21  37  57  87 123 162 209 260 317 376
#     4  10  22  37  61  92 124 164 211 265 318 378
#     4  10  21  39  63  92 127 167 211 259 322 392
#     4  10  22  39  60  92 125 160 206 265 317 373
#     4  11  23  45  67  88 128 172 215 265 322 382
#     4  10  23  42  61  92 123 164 212 266 309 385
#     4   9  20  36  58  88 127 165 208 263 318 382
#
# _framework density 21.488150000000001
#
# number of rings (size 3 to 8) (size 9 to 14) (size 15 to 20)
#    0.000    2.000    0.000    3.000    3.500    5.500 
#    9.000    2.500    0.000    0.000    0.000    0.000 
#    0.000    0.000    0.000    0.000    0.000    0.000 
#
# Total GULP energy -357167.679607 kJ/mol
# GULP energy per Si atom -5580.744994 kJ/mol
# Density = 2.143924 g / cm^3
# Si number density = 21.488150 Si / 1000 Ang^3
#
#
#
# Elastic Constant Matrix: (Units=GPa)
#
#
# Indices 1 2 3 4 5 6 
#
# 1 73.5267 6.3208 28.9583 0.0000 0.0000 0.0000
# 2 6.3208 45.5726 15.3591 0.0000 0.0000 0.0000
# 3 28.9583 15.3591 118.3378 0.0000 0.0000 0.0000
# 4 0.0000 0.0000 0.0000 18.2986 0.0000 0.0000
# 5 0.0000 0.0000 0.0000 0.0000 24.6878 0.0000
# 6 0.0000 0.0000 0.0000 0.0000 0.0000 23.5935
#
#
#
# Elastic Compliance Matrix: (Units=1/GPa)
#
#
# Indices 1 2 3 4 5 6 
#
# 1 0.015085 -0.000887 -0.003576 0.000000 0.000000 0.000000
# 2 -0.000887 0.022999 -0.002768 0.000000 0.000000 0.000000
# 3 -0.003576 -0.002768 0.009685 0.000000 0.000000 0.000000
# 4 0.000000 0.000000 0.000000 0.054649 0.000000 0.000000
# 5 0.000000 0.000000 0.000000 0.000000 0.040506 0.000000
# 6 0.000000 0.000000 0.000000 0.000000 0.000000 0.042385
#
#
# Mechanical properties :
#
#
# Convention : Reuss Voigt Hill
#
# Bulk Modulus (GPa) = 30.02430 37.63483 33.82957
# Shear Modulus (GPa) = 23.71094 25.76924 24.74009
#
# Velocity S-wave (km/s) = 3.32541 3.46675 3.39682
# Velocity P-wave (km/s) = 5.36165 5.79454 5.58229
#
# Compressibility (1/GPa) = 0.03330635
#
# Stress axis : x y z
#
# Youngs Moduli (GPa) = 66.28966 43.48037 103.25438
#
# Poissons Ratio (x) = 0.03856 0.36928
# Poissons Ratio (y) = 0.05880 0.28581
# Poissons Ratio (z) = 0.23708 0.12035
#
# Static dielectric constant tensor:
#      x y z
#    x 1.787620 0.000000 0.000000 
#    y 0.000000 1.776620 0.000000 
#    z 0.000000 0.000000 1.790580 
# 
# From -- ./inp_files/18293.got.cif
#   From: 2010.05.17/outbox.cif.g08.bks.cpg/sg62_10_cif.got.tgz:18293.got - 2010.06.03 15:25:27.
