data_PCOD9465858
_publ_section_title
;
Structure prediction by ZEFSAII (Michael W. Deem and Ramdas Pophale) SiO2 
 PCOD9465858
Probable space group: P N M A
;
_chemical_formula_sum "Si O2"
_cell_formula_units_Z 48
_cell_length_a 14.741430
_cell_length_b 17.595963
_cell_length_c 10.104762
_cell_angle_alpha 90.000000
_cell_angle_beta 90.000000
_cell_angle_gamma 90.000000
_cell_volume 2621.070748
_symmetry_space_group_name_H-M "P N M A"
_symmetry_group_IT_number 62
_symmetry_cell_setting 'orthorhombic'
loop_
_space_group_symop_operation_xyz
x,y,z
1/2-x,-y,1/2+z
1/2+x,1/2-y,1/2-z
-x,1/2+y,-z
-x,-y,-z
1/2+x,y,1/2-z
1/2-x,1/2+y,1/2+z
x,1/2-y,z
loop_
_atom_site_type_symbol
_atom_site_label
_atom_site_fract_x
_atom_site_fract_y
_atom_site_fract_z
Si Si1 0.009198 0.517554 0.221718
Si Si2 0.851321 0.336646 0.056637
Si Si3 0.946786 0.614746 0.973745
Si Si4 0.170659 0.950778 0.697509
Si Si5 0.252547 0.166221 0.991020
Si Si6 0.805552 0.407037 0.773240
O O1 0.957637 0.566643 0.109017
O O2 0.930467 0.485694 0.315030
O O3 0.093510 0.566650 0.271485
O O4 0.053715 0.446690 0.144056
O O5 0.821390 0.250000 0.081532
O O6 0.814208 0.368783 0.917491
O O7 0.960744 0.338810 0.043222
O O8 0.827955 0.395688 0.173589
O O9 0.854110 0.660009 0.977480
O O10 0.198632 0.899407 0.574063
O O11 0.240875 0.019621 0.716421
O O12 0.286714 0.250000 0.025956
O O13 0.267040 0.149317 0.836641
#
# Coordination Sequence:
#
# PCOD9465858 Si02
#       6
#     8   8   8   8   8   8
#     4   9  18  35  60  84 106 148 198 232 266 334
#     4  10  21  38  59  82 115 152 189 235 288 341
#     4   9  17  34  59  85 107 143 197 238 273 327
#     4  11  21  37  61  85 112 150 196 232 278 337
#     4  12  23  35  56  90 122 145 182 243 295 330
#     4  11  21  37  61  85 112 150 196 232 278 337
#
# _framework density 18.313126
#
# number of rings (size 3 to 8) (size 9 to 14) (size 15 to 20)
#    0.000    1.667    3.333    3.500    0.000    0.667 
#    0.000    0.000    0.000    2.000    0.000    0.000 
#    0.000    0.000    0.000    0.000    0.000    0.000 
#
# Total GULP energy -267889.972247 kJ/mol
# GULP energy per Si atom -5581.041088 kJ/mol
# Density = 1.827144 g / cm^3
# Si number density = 18.313126 Si / 1000 Ang^3
#
#
#
# Elastic Constant Matrix: (Units=GPa)
#
#
# Indices 1 2 3 4 5 6 
#
# 1 51.3615 5.1608 -5.8325 0.0000 0.0000 0.0000
# 2 5.1608 68.8507 -9.3126 0.0000 0.0000 0.0000
# 3 -5.8325 -9.3126 34.9087 0.0000 0.0000 0.0000
# 4 0.0000 0.0000 0.0000 12.6113 0.0000 0.0000
# 5 0.0000 0.0000 0.0000 0.0000 14.0993 0.0000
# 6 0.0000 0.0000 0.0000 0.0000 0.0000 15.6961
#
#
#
# Elastic Compliance Matrix: (Units=1/GPa)
#
#
# Indices 1 2 3 4 5 6 
#
# 1 0.019924 -0.001082 0.003040 0.000000 0.000000 0.000000
# 2 -0.001082 0.015127 0.003855 0.000000 0.000000 0.000000
# 3 0.003040 0.003855 0.030182 0.000000 0.000000 0.000000
# 4 0.000000 0.000000 0.000000 0.079294 0.000000 0.000000
# 5 0.000000 0.000000 0.000000 0.000000 0.070926 0.000000
# 6 0.000000 0.000000 0.000000 0.000000 0.000000 0.063710
#
#
# Mechanical properties :
#
#
# Convention : Reuss Voigt Hill
#
# Bulk Modulus (GPa) = 13.01104 15.01691 14.01398
# Shear Modulus (GPa) = 17.05570 19.48834 18.27202
#
# Velocity S-wave (km/s) = 3.05509 3.26571 3.16215
# Velocity P-wave (km/s) = 4.42323 4.73684 4.58272
#
# Compressibility (1/GPa) = 0.07685780
#
# Stress axis : x y z
#
# Youngs Moduli (GPa) = 50.19126 66.10848 33.13190
#
# Poissons Ratio (x) = 0.07154 -0.10073
# Poissons Ratio (y) = 0.05432 -0.12771
# Poissons Ratio (z) = -0.15259 -0.25482
#
# Static dielectric constant tensor:
#      x y z
#    x 1.627160 0.000000 0.000000 
#    y 0.000000 1.633440 0.000000 
#    z 0.000000 0.000000 1.609870 
# 
# From -- ./inp_files/6480.got.cif
#   From: 2010.05.17/outbox.cif.g08.bks.cpg/sg62_4_cif.got.tgz:6480.got - 2010.06.03 15:25:27.
