data_PCOD9465147
_publ_section_title
;
Structure prediction by ZEFSAII (Michael W. Deem and Ramdas Pophale) SiO2 
 PCOD9465147
Probable space group: P N M A
;
_chemical_formula_sum "Si O2"
_cell_formula_units_Z 40
_cell_length_a 14.346171
_cell_length_b 14.532379
_cell_length_c 9.276001
_cell_angle_alpha 90.000000
_cell_angle_beta 90.000000
_cell_angle_gamma 90.000000
_cell_volume 1933.897738
_symmetry_space_group_name_H-M "P N M A"
_symmetry_group_IT_number 62
_symmetry_cell_setting 'orthorhombic'
loop_
_space_group_symop_operation_xyz
x,y,z
1/2-x,-y,1/2+z
1/2+x,1/2-y,1/2-z
-x,1/2+y,-z
-x,-y,-z
1/2+x,y,1/2-z
1/2-x,1/2+y,1/2+z
x,1/2-y,z
loop_
_atom_site_type_symbol
_atom_site_label
_atom_site_fract_x
_atom_site_fract_y
_atom_site_fract_z
Si Si1 0.130399 0.649596 0.387930
Si Si2 0.789568 0.962148 0.589420
Si Si3 0.410931 0.508214 0.399998
Si Si4 0.337547 0.352030 0.224809
Si Si5 0.591067 0.144342 0.852437
O O1 0.156797 0.750000 0.323382
O O2 0.170022 0.552935 0.332882
O O3 0.163137 0.648968 0.553696
O O4 0.018824 0.644204 0.386972
O O5 0.759394 0.886399 0.706861
O O6 0.855037 0.919107 0.467690
O O7 0.688489 0.990395 0.524136
O O8 0.500000 0.500000 0.500000
O O9 0.412283 0.425678 0.282161
O O10 0.401693 0.600843 0.306873
O O11 0.359605 0.250000 0.277674
O O12 0.624167 0.250000 0.858660
#
# Coordination Sequence:
#
# PCOD9465147 Si02
#       5
#     8   8   8   8   8
#     4  10  21  40  65  93 125 163 211 258 312 379
#     4  10  20  38  62  90 126 166 204 260 308 377
#     4  10  24  40  61  90 125 164 209 263 317 369
#     4   9  20  39  60  88 123 162 205 253 307 372
#     4  11  23  41  65  95 127 167 212 260 318 378
#
# _framework density 20.683619
#
# number of rings (size 3 to 8) (size 9 to 14) (size 15 to 20)
#    1.200    0.800    2.000    1.200    0.000    4.800 
#    0.000    2.000    0.000    0.000    0.000    0.000 
#    0.000    0.000    0.000    0.000    0.000    0.000 
#
# Total GULP energy -222916.604622 kJ/mol
# GULP energy per Si atom -5572.915116 kJ/mol
# Density = 2.063654 g / cm^3
# Si number density = 20.683619 Si / 1000 Ang^3
#
#
#
# Elastic Constant Matrix: (Units=GPa)
#
#
# Indices 1 2 3 4 5 6 
#
# 1 70.9501 20.5302 4.2010 0.0000 0.0000 0.0000
# 2 20.5302 133.0671 12.0075 0.0000 0.0000 0.0000
# 3 4.2010 12.0075 43.3401 0.0000 0.0000 0.0000
# 4 0.0000 0.0000 0.0000 19.4660 0.0000 0.0000
# 5 0.0000 0.0000 0.0000 0.0000 21.1584 0.0000
# 6 0.0000 0.0000 0.0000 0.0000 0.0000 22.1642
#
#
#
# Elastic Compliance Matrix: (Units=1/GPa)
#
#
# Indices 1 2 3 4 5 6 
#
# 1 0.014782 -0.002206 -0.000821 0.000000 0.000000 0.000000
# 2 -0.002206 0.008037 -0.002013 0.000000 0.000000 0.000000
# 3 -0.000821 -0.002013 0.023711 0.000000 0.000000 0.000000
# 4 0.000000 0.000000 0.000000 0.051372 0.000000 0.000000
# 5 0.000000 0.000000 0.000000 0.000000 0.047263 0.000000
# 6 0.000000 0.000000 0.000000 0.000000 0.000000 0.045118
#
#
# Mechanical properties :
#
#
# Convention : Reuss Voigt Hill
#
# Bulk Modulus (GPa) = 27.43657 35.64830 31.54244
# Shear Modulus (GPa) = 23.52810 26.59896 25.06353
#
# Velocity S-wave (km/s) = 3.37638 3.58996 3.48481
# Velocity P-wave (km/s) = 5.33794 5.86994 5.61025
#
# Compressibility (1/GPa) = 0.03644770
#
# Stress axis : x y z
#
# Youngs Moduli (GPa) = 67.65205 124.42367 42.17524
#
# Poissons Ratio (x) = 0.27453 0.03465
# Poissons Ratio (y) = 0.14927 0.08489
# Poissons Ratio (z) = 0.05557 0.25044
#
# Static dielectric constant tensor:
#      x y z
#    x 1.738140 0.000000 0.000000 
#    y 0.000000 1.804480 0.000000 
#    z 0.000000 0.000000 1.726270 
# 
# From -- ./inp_files/12066.got.cif
#   From: 2010.05.17/outbox.cif.g08.bks.cpg/sg62_7_cif.got.tgz:12066.got - 2010.06.03 15:25:27.
