data_PCOD9465032
_publ_section_title
;
Structure prediction by ZEFSAII (Michael W. Deem and Ramdas Pophale) SiO2 
 PCOD9465032
Probable space group: P N M A
;
_chemical_formula_sum "Si O2"
_cell_formula_units_Z 64
_cell_length_a 13.991560
_cell_length_b 17.929020
_cell_length_c 12.806753
_cell_angle_alpha 90.000000
_cell_angle_beta 90.000000
_cell_angle_gamma 90.000000
_cell_volume 3212.637500
_symmetry_space_group_name_H-M "P N M A"
_symmetry_group_IT_number 62
_symmetry_cell_setting 'orthorhombic'
loop_
_space_group_symop_operation_xyz
x,y,z
1/2-x,-y,1/2+z
1/2+x,1/2-y,1/2-z
-x,1/2+y,-z
-x,-y,-z
1/2+x,y,1/2-z
1/2-x,1/2+y,1/2+z
x,1/2-y,z
loop_
_atom_site_type_symbol
_atom_site_label
_atom_site_fract_x
_atom_site_fract_y
_atom_site_fract_z
Si Si1 0.451512 0.834304 0.508583
Si Si2 0.965300 0.418702 0.205218
Si Si3 0.375348 0.924532 0.056025
Si Si4 0.298384 0.031661 0.432323
Si Si5 0.073065 0.561287 0.131514
Si Si6 0.744517 0.834154 0.294957
Si Si7 0.753326 0.362762 0.557990
Si Si8 0.431736 0.098776 0.064007
O O1 0.483858 0.750000 0.489638
O O2 0.492561 0.864986 0.616716
O O3 0.489539 0.887999 0.416717
O O4 0.337785 0.838467 0.508071
O O5 0.859176 0.439956 0.164969
O O6 0.961347 0.382436 0.318404
O O7 0.029005 0.494837 0.200451
O O8 0.290291 0.918505 0.970314
O O9 0.475788 0.898522 0.009906
O O10 0.334010 0.878678 0.154098
O O11 0.392090 0.013030 0.075754
O O12 0.371886 0.027447 0.530486
O O13 0.257251 0.950266 0.415112
O O14 0.150873 0.615200 0.183722
O O15 0.737245 0.750000 0.339884
O O16 0.751550 0.826981 0.171113
O O17 0.848775 0.354293 0.490880
#
# Coordination Sequence:
#
# PCOD9465032 Si02
#       8
#     8   8   8   8   8   8   8   8
#     4  11  22  39  60  86 121 159 202 251 309 370
#     4  11  20  37  63  95 116 160 205 257 306 369
#     4   9  21  39  59  90 122 160 201 254 304 370
#     4   9  17  35  60  88 119 149 202 251 293 348
#     4  10  20  37  63  91 117 153 205 258 295 361
#     4  11  24  39  60  90 123 163 202 250 315 367
#     4  11  21  38  57  88 122 155 196 248 303 371
#     4  10  23  37  62  92 120 157 207 257 307 362
#
# _framework density 19.921325
#
# number of rings (size 3 to 8) (size 9 to 14) (size 15 to 20)
#    0.000    1.750    2.500    2.250    5.250    1.000 
#    0.000    4.375    0.000    0.000    0.000    0.000 
#    0.000    0.000    0.000    0.000    0.000    0.000 
#
# Total GULP energy -357313.106194 kJ/mol
# GULP energy per Si atom -5583.017284 kJ/mol
# Density = 1.987598 g / cm^3
# Si number density = 19.921325 Si / 1000 Ang^3
#
#
#
# Elastic Constant Matrix: (Units=GPa)
#
#
# Indices 1 2 3 4 5 6 
#
# 1 108.2173 19.9616 33.9698 0.0000 0.0000 0.0000
# 2 19.9616 66.9312 19.2679 0.0000 0.0000 0.0000
# 3 33.9698 19.2679 85.0066 0.0000 0.0000 0.0000
# 4 0.0000 0.0000 0.0000 3.3059 0.0000 0.0000
# 5 0.0000 0.0000 0.0000 0.0000 17.8518 0.0000
# 6 0.0000 0.0000 0.0000 0.0000 0.0000 -7.4233
#
#
#
# Elastic Compliance Matrix: (Units=1/GPa)
#
#
# Indices 1 2 3 4 5 6 
#
# 1 0.010841 -0.002125 -0.003851 0.000000 0.000000 0.000000
# 2 -0.002125 0.016400 -0.002868 0.000000 0.000000 0.000000
# 3 -0.003851 -0.002868 0.013953 0.000000 0.000000 0.000000
# 4 0.000000 0.000000 0.000000 0.302491 0.000000 0.000000
# 5 0.000000 0.000000 0.000000 0.000000 0.056017 0.000000
# 6 0.000000 0.000000 0.000000 0.000000 0.000000 -0.134711
#
#
# Mechanical properties :
#
#
# Convention : Reuss Voigt Hill
#
# Bulk Modulus (GPa) = 42.54108 45.17264 43.85686
# Shear Modulus (GPa) = 17.21084 15.21059 16.21071
#
# Velocity S-wave (km/s) = 2.94248 2.76621 2.85570
# Velocity P-wave (km/s) = 5.73978 5.73823 5.73901
#
# Compressibility (1/GPa) = 0.02350669
#
# Stress axis : x y z
#
# Youngs Moduli (GPa) = 92.23928 60.97521 71.67062
#
# Poissons Ratio (x) = 0.12956 0.27599
# Poissons Ratio (y) = 0.19599 0.20557
# Poissons Ratio (z) = 0.35519 0.17489
#
# Static dielectric constant tensor:
#      x y z
#    x 1.706410 0.000000 0.000000 
#    y 0.000000 1.699960 0.000000 
#    z 0.000000 0.000000 1.752420 
# 
# From -- ./inp_files/13620.got.cif
#   From: 2010.05.17/outbox.cif.g08.bks.cpg/sg62_7_cif.got.tgz:13620.got - 2010.06.03 15:25:27.
