data_PCOD9465962
_publ_section_title
;
Structure prediction by ZEFSAII (Michael W. Deem and Ramdas Pophale) SiO2 
 PCOD9465962
Probable space group: P N M A
;
_chemical_formula_sum "Si O2"
_cell_formula_units_Z 48
_cell_length_a 29.173398
_cell_length_b 8.758204
_cell_length_c 8.457879
_cell_angle_alpha 90.000000
_cell_angle_beta 90.000000
_cell_angle_gamma 90.000000
_cell_volume 2161.043662
_symmetry_space_group_name_H-M "P N M A"
_symmetry_group_IT_number 62
_symmetry_cell_setting 'orthorhombic'
loop_
_space_group_symop_operation_xyz
x,y,z
1/2-x,-y,1/2+z
1/2+x,1/2-y,1/2-z
-x,1/2+y,-z
-x,-y,-z
1/2+x,y,1/2-z
1/2-x,1/2+y,1/2+z
x,1/2-y,z
loop_
_atom_site_type_symbol
_atom_site_label
_atom_site_fract_x
_atom_site_fract_y
_atom_site_fract_z
Si Si1 0.430001 0.572163 0.582409
Si Si2 0.188893 0.432804 0.746689
Si Si3 0.097822 0.069248 0.576319
Si Si4 0.474745 0.070998 0.274830
Si Si5 0.726993 0.067793 0.410488
Si Si6 0.646034 0.571290 0.227712
O O1 0.415756 0.750000 0.581130
O O2 0.470619 0.551128 0.711526
O O3 0.452887 0.528011 0.416582
O O4 0.387757 0.466233 0.626351
O O5 0.194641 0.250000 0.731729
O O6 0.135821 0.465293 0.712021
O O7 0.221421 0.513428 0.619131
O O8 0.206564 0.478893 0.919675
O O9 0.089424 0.250000 0.571791
O O10 0.051235 0.982381 0.618368
O O11 0.122645 0.016311 0.417292
O O12 0.466054 0.250000 0.303678
O O13 0.724181 0.250000 0.399293
O O14 0.695341 0.992494 0.276351
O O15 0.648501 0.750000 0.194623
#
# Coordination Sequence:
#
# PCOD9465962 Si02
#       6
#     8   8   8   8   8   8
#     4  10  21  39  62  88 120 158 200 245 297 356
#     4  10  23  41  61  88 119 154 196 240 290 351
#     4  11  23  40  62  87 121 161 200 245 298 356
#     4  10  21  38  62  91 121 155 198 247 297 352
#     4  11  23  40  63  89 119 154 194 242 296 355
#     4  12  25  40  60  87 120 156 200 251 300 354
#
# _framework density 22.211490999999999
#
# number of rings (size 3 to 8) (size 9 to 14) (size 15 to 20)
#    0.000    1.333    0.000    5.500    0.000    9.333 
#    0.000    0.000    0.000    0.000    0.000    0.000 
#    0.000    0.000    0.000    0.000    0.000    0.000 
#
# Total GULP energy -268710.877013 kJ/mol
# GULP energy per Si atom -5598.143271 kJ/mol
# Density = 2.216094 g / cm^3
# Si number density = 22.211491 Si / 1000 Ang^3
#
#
#
# Elastic Constant Matrix: (Units=GPa)
#
#
# Indices 1 2 3 4 5 6 
#
# 1 62.6694 23.3390 -6.2675 0.0000 0.0000 0.0000
# 2 23.3390 46.2215 1.8898 0.0000 0.0000 0.0000
# 3 -6.2675 1.8898 50.1407 0.0000 0.0000 0.0000
# 4 0.0000 0.0000 0.0000 29.4163 0.0000 0.0000
# 5 0.0000 0.0000 0.0000 0.0000 37.2538 0.0000
# 6 0.0000 0.0000 0.0000 0.0000 0.0000 35.1862
#
#
#
# Elastic Compliance Matrix: (Units=1/GPa)
#
#
# Indices 1 2 3 4 5 6 
#
# 1 0.020063 -0.010249 0.002894 0.000000 0.000000 0.000000
# 2 -0.010249 0.026904 -0.002295 0.000000 0.000000 0.000000
# 3 0.002894 -0.002295 0.020392 0.000000 0.000000 0.000000
# 4 0.000000 0.000000 0.000000 0.033995 0.000000 0.000000
# 5 0.000000 0.000000 0.000000 0.000000 0.026843 0.000000
# 6 0.000000 0.000000 0.000000 0.000000 0.000000 0.028420
#
#
# Mechanical properties :
#
#
# Convention : Reuss Voigt Hill
#
# Bulk Modulus (GPa) = 20.80764 21.88379 21.34572
# Shear Modulus (GPa) = 26.05031 29.70930 27.87980
#
# Velocity S-wave (km/s) = 3.42838 3.66124 3.54672
# Velocity P-wave (km/s) = 5.00599 5.26752 5.13842
#
# Compressibility (1/GPa) = 0.04805926
#
# Stress axis : x y z
#
# Youngs Moduli (GPa) = 49.84291 37.16943 49.03849
#
# Poissons Ratio (x) = 0.38095 -0.14192
# Poissons Ratio (y) = 0.51084 0.11255
# Poissons Ratio (z) = -0.14425 0.08531
#
# Static dielectric constant tensor:
#      x y z
#    x 1.799150 0.000000 0.000000 
#    y 0.000000 1.727410 0.000000 
#    z 0.000000 0.000000 1.859440 
# 
# From -- ./inp_files/10176.got.cif
#   From: 2010.05.17/outbox.cif.g08.bks.cpg/sg62_6_cif.got.tgz:10176.got - 2010.06.03 15:25:27.
