data_PCOD9465865
_publ_section_title
;
Structure prediction by ZEFSAII (Michael W. Deem and Ramdas Pophale) SiO2 
 PCOD9465865
Probable space group: P N M A
;
_chemical_formula_sum "Si O2"
_cell_formula_units_Z 48
_cell_length_a 17.511255
_cell_length_b 8.552222
_cell_length_c 17.180949
_cell_angle_alpha 90.000000
_cell_angle_beta 90.000000
_cell_angle_gamma 90.000000
_cell_volume 2573.021332
_symmetry_space_group_name_H-M "P N M A"
_symmetry_group_IT_number 62
_symmetry_cell_setting 'orthorhombic'
loop_
_space_group_symop_operation_xyz
x,y,z
1/2-x,-y,1/2+z
1/2+x,1/2-y,1/2-z
-x,1/2+y,-z
-x,-y,-z
1/2+x,y,1/2-z
1/2-x,1/2+y,1/2+z
x,1/2-y,z
loop_
_atom_site_type_symbol
_atom_site_label
_atom_site_fract_x
_atom_site_fract_y
_atom_site_fract_z
Si Si1 0.849100 0.438536 0.678351
Si Si2 0.313690 0.061003 0.646197
Si Si3 0.499297 0.937634 0.087706
Si Si4 0.851242 0.062642 0.323902
Si Si5 0.414290 0.060956 0.499173
Si Si6 0.815393 0.438621 0.148263
O O1 0.847805 0.250000 0.676469
O O2 0.846390 0.486822 0.769245
O O3 0.770804 0.499935 0.640980
O O4 0.924803 0.491987 0.633794
O O5 0.308744 0.250000 0.645243
O O6 0.367860 0.010796 0.575864
O O7 0.228549 0.993790 0.639281
O O8 0.500110 0.750000 0.086024
O O9 0.423893 0.993629 0.132465
O O10 0.500000 0.000000 0.000000
O O11 0.854832 0.250000 0.326706
O O12 0.846975 0.012577 0.233028
O O13 0.415860 0.250000 0.498798
O O14 0.368921 0.008616 0.422130
O O15 0.500000 0.000000 0.500000
O O16 0.812784 0.250000 0.147578
#
# Coordination Sequence:
#
# PCOD9465865 Si02
#       6
#     8   8   8   8   8   8
#     4   9  20  38  59  83 110 146 191 233 279 335
#     4   9  19  38  60  83 113 149 189 234 283 334
#     4  11  24  39  58  86 117 149 191 238 286 341
#     4  10  21  38  59  84 115 151 191 232 283 341
#     4  10  22  37  57  86 116 148 188 231 280 334
#     4   9  20  38  58  84 116 150 187 230 283 339
#
# _framework density 18.655111999999999
#
# number of rings (size 3 to 8) (size 9 to 14) (size 15 to 20)
#    0.000    2.333    0.000    1.000    4.667    3.333 
#    0.000    0.000    0.000    0.000    0.000    0.000 
#    0.000    0.000    0.000    0.000    0.000    0.000 
#
# Total GULP energy -268018.807277 kJ/mol
# GULP energy per Si atom -5583.725152 kJ/mol
# Density = 1.861265 g / cm^3
# Si number density = 18.655112 Si / 1000 Ang^3
#
#
#
# Elastic Constant Matrix: (Units=GPa)
#
#
# Indices 1 2 3 4 5 6 
#
# 1 215.4227 35.2327 142.0438 0.0000 0.0000 0.0000
# 2 35.2327 17.3944 30.0771 0.0000 0.0000 0.0000
# 3 142.0438 30.0771 138.7223 0.0000 0.0000 0.0000
# 4 0.0000 0.0000 0.0000 21.3325 0.0000 0.0000
# 5 0.0000 0.0000 0.0000 0.0000 32.9021 0.0000
# 6 0.0000 0.0000 0.0000 0.0000 0.0000 34.7757
#
#
#
# Elastic Compliance Matrix: (Units=1/GPa)
#
#
# Indices 1 2 3 4 5 6 
#
# 1 0.014670 -0.005984 -0.013723 0.000000 0.000000 0.000000
# 2 -0.005984 0.094410 -0.014342 0.000000 0.000000 0.000000
# 3 -0.013723 -0.014342 0.024370 0.000000 0.000000 0.000000
# 4 0.000000 0.000000 0.000000 0.046877 0.000000 0.000000
# 5 0.000000 0.000000 0.000000 0.000000 0.030393 0.000000
# 6 0.000000 0.000000 0.000000 0.000000 0.000000 0.028756
#
#
# Mechanical properties :
#
#
# Convention : Reuss Voigt Hill
#
# Bulk Modulus (GPa) = 15.30212 87.36075 51.33144
# Shear Modulus (GPa) = 15.18106 28.74778 21.96442
#
# Velocity S-wave (km/s) = 2.85577 3.92983 3.43504
# Velocity P-wave (km/s) = 4.36971 8.21721 6.58091
#
# Compressibility (1/GPa) = 0.06535041
#
# Stress axis : x y z
#
# Youngs Moduli (GPa) = 68.16858 10.59212 41.03380
#
# Poissons Ratio (x) = 0.06338 0.56312
# Poissons Ratio (y) = 0.40792 0.58851
# Poissons Ratio (z) = 0.93550 0.15191
#
# Static dielectric constant tensor:
#      x y z
#    x 1.599790 0.000000 0.000000 
#    y 0.000000 1.634460 0.000000 
#    z 0.000000 0.000000 1.645300 
# 
# From -- ./inp_files/19610.got.cif
#   From: 2010.05.17/outbox.cif.g08.bks.cpg/sg62_10_cif.got.tgz:19610.got - 2010.06.03 15:25:27.
