data_PCOD9465989
_publ_section_title
;
Structure prediction by ZEFSAII (Michael W. Deem and Ramdas Pophale) SiO2 
 PCOD9465989
Probable space group: P N M A
;
_chemical_formula_sum "Si O2"
_cell_formula_units_Z 64
_cell_length_a 11.743809
_cell_length_b 17.586807
_cell_length_c 15.851828
_cell_angle_alpha 90.000000
_cell_angle_beta 90.000000
_cell_angle_gamma 90.000000
_cell_volume 3273.974770
_symmetry_space_group_name_H-M "P N M A"
_symmetry_group_IT_number 62
_symmetry_cell_setting 'orthorhombic'
loop_
_space_group_symop_operation_xyz
x,y,z
1/2-x,-y,1/2+z
1/2+x,1/2-y,1/2-z
-x,1/2+y,-z
-x,-y,-z
1/2+x,y,1/2-z
1/2-x,1/2+y,1/2+z
x,1/2-y,z
loop_
_atom_site_type_symbol
_atom_site_label
_atom_site_fract_x
_atom_site_fract_y
_atom_site_fract_z
Si Si1 0.560015 0.048995 0.877608
Si Si2 0.474189 0.162511 0.354849
Si Si3 0.423695 0.965412 0.740334
Si Si4 0.771200 0.659285 0.454913
Si Si5 0.547255 0.942755 0.427392
Si Si6 0.743029 0.425700 0.111814
Si Si7 0.837505 0.436888 0.509110
Si Si8 0.630006 0.336090 0.523186
O O1 0.647138 0.118853 0.886492
O O2 0.515584 0.017579 0.789201
O O3 0.618116 0.976804 0.924375
O O4 0.447952 0.071825 0.931831
O O5 0.444502 0.250000 0.339090
O O6 0.536540 0.119988 0.279292
O O7 0.362821 0.111647 0.368353
O O8 0.554474 0.160504 0.437505
O O9 0.319198 0.953108 0.803784
O O10 0.408442 0.006596 0.650472
O O11 0.761473 0.750000 0.447269
O O12 0.649124 0.616488 0.448679
O O13 0.817594 0.635056 0.548391
O O14 0.437714 0.889296 0.411270
O O15 0.500000 0.000000 0.500000
O O16 0.742333 0.500092 0.053539
O O17 0.756205 0.365170 0.501701
O O18 0.632784 0.250000 0.553129
#
# Coordination Sequence:
#
# PCOD9465989 Si02
#       8
#     8   8   8   8   8   8   8   8
#     4   9  21  40  62  90 126 165 217 255 319 386
#     4  11  23  37  57  91 130 161 205 262 323 382
#     4  11  24  39  63  92 125 168 216 265 316 386
#     4  11  22  40  67  93 127 169 215 265 329 394
#     4  12  22  40  66  94 122 171 222 268 310 384
#     4  10  21  38  64  89 121 162 207 263 322 384
#     4   9  19  39  63  91 120 163 212 262 305 393
#     4  11  22  38  62  93 124 165 215 262 320 379
#
# _framework density 19.548103999999999
#
# number of rings (size 3 to 8) (size 9 to 14) (size 15 to 20)
#    0.000    1.500    2.500    3.750    1.750    1.500 
#    0.000    3.125    0.000    0.750    0.000    0.000 
#    0.000    0.000    0.000    0.000    0.000    0.000 
#
# Total GULP energy -356854.514406 kJ/mol
# GULP energy per Si atom -5575.851788 kJ/mol
# Density = 1.950361 g / cm^3
# Si number density = 19.548104 Si / 1000 Ang^3
#
#
#
# Elastic Constant Matrix: (Units=GPa)
#
#
# Indices 1 2 3 4 5 6 
#
# 1 77.7675 32.3951 3.1956 0.0000 0.0000 0.0000
# 2 32.3951 99.7477 9.5021 0.0000 0.0000 0.0000
# 3 3.1956 9.5021 63.9021 0.0000 0.0000 0.0000
# 4 0.0000 0.0000 0.0000 16.1618 0.0000 0.0000
# 5 0.0000 0.0000 0.0000 0.0000 7.7592 0.0000
# 6 0.0000 0.0000 0.0000 0.0000 0.0000 14.3231
#
#
#
# Elastic Compliance Matrix: (Units=1/GPa)
#
#
# Indices 1 2 3 4 5 6 
#
# 1 0.014871 -0.004827 -0.000026 0.000000 0.000000 0.000000
# 2 -0.004827 0.011736 -0.001504 0.000000 0.000000 0.000000
# 3 -0.000026 -0.001504 0.015874 0.000000 0.000000 0.000000
# 4 0.000000 0.000000 0.000000 0.061874 0.000000 0.000000
# 5 0.000000 0.000000 0.000000 0.000000 0.128880 0.000000
# 6 0.000000 0.000000 0.000000 0.000000 0.000000 0.069817
#
#
# Mechanical properties :
#
#
# Convention : Reuss Voigt Hill
#
# Bulk Modulus (GPa) = 33.59388 36.84475 35.21931
# Shear Modulus (GPa) = 15.35212 20.73712 18.04462
#
# Velocity S-wave (km/s) = 2.80545 3.26056 3.04153
# Velocity P-wave (km/s) = 5.26466 5.75015 5.51275
#
# Compressibility (1/GPa) = 0.02976733
#
# Stress axis : x y z
#
# Youngs Moduli (GPa) = 67.24637 85.20621 62.99674
#
# Poissons Ratio (x) = 0.41130 0.00163
# Poissons Ratio (y) = 0.32460 0.09473
# Poissons Ratio (z) = 0.00174 0.12813
#
# Static dielectric constant tensor:
#      x y z
#    x 1.749490 0.000000 0.000000 
#    y 0.000000 1.689020 0.000000 
#    z 0.000000 0.000000 1.735460 
# 
# From -- ./inp_files/18297.got.cif
#   From: 2010.05.17/outbox.cif.g08.bks.cpg/sg62_10_cif.got.tgz:18297.got - 2010.06.03 15:25:27.
