data_PCOD9465473
_publ_section_title
;
Structure prediction by ZEFSAII (Michael W. Deem and Ramdas Pophale) SiO2 
 PCOD9465473
Probable space group: P N M A
;
_chemical_formula_sum "Si O2"
_cell_formula_units_Z 48
_cell_length_a 8.808194
_cell_length_b 20.045343
_cell_length_c 14.417163
_cell_angle_alpha 90.000000
_cell_angle_beta 90.000000
_cell_angle_gamma 90.000000
_cell_volume 2545.541443
_symmetry_space_group_name_H-M "P N M A"
_symmetry_group_IT_number 62
_symmetry_cell_setting 'orthorhombic'
loop_
_space_group_symop_operation_xyz
x,y,z
1/2-x,-y,1/2+z
1/2+x,1/2-y,1/2-z
-x,1/2+y,-z
-x,-y,-z
1/2+x,y,1/2-z
1/2-x,1/2+y,1/2+z
x,1/2-y,z
loop_
_atom_site_type_symbol
_atom_site_label
_atom_site_fract_x
_atom_site_fract_y
_atom_site_fract_z
Si Si1 0.723844 0.945447 0.128147
Si Si2 0.237843 0.891725 0.698565
Si Si3 0.767294 0.917576 0.511592
Si Si4 0.058257 0.423997 0.025846
Si Si5 0.616645 0.462019 0.815070
Si Si6 0.936829 0.827958 0.636846
O O1 0.551290 0.938052 0.159993
O O2 0.821826 0.932568 0.219776
O O3 0.721970 0.020460 0.083862
O O4 0.808963 0.906108 0.046355
O O5 0.367917 0.913245 0.625566
O O6 0.325296 0.862373 0.787057
O O7 0.112495 0.839822 0.662609
O O8 0.137276 0.959261 0.706798
O O9 0.600571 0.885642 0.519559
O O10 0.789881 0.945159 0.407959
O O11 0.896291 0.866180 0.541855
O O12 0.000000 0.500000 0.000000
O O13 0.904266 0.750000 0.632092
#
# Coordination Sequence:
#
# PCOD9465473 Si02
#       6
#     8   8   8   8   8   8
#     4  11  21  32  52  86 120 146 189 237 309 376
#     4  12  21  37  58  81 121 159 207 251 301 366
#     4  11  21  36  58  82 119 155 197 251 301 368
#     4  10  21  34  55  85 116 151 191 247 316 370
#     4  12  20  33  56  87 117 159 188 249 319 356
#     4  12  26  40  58  86 123 174 214 247 292 363
#
# _framework density 18.8565
#
# number of rings (size 3 to 8) (size 9 to 14) (size 15 to 20)
#    0.000    0.667    6.667    4.000    4.667    0.000 
#    0.000    0.833    0.000    0.000    0.000   11.667 
#    0.000    0.000    0.000    0.000    0.000    0.000 
#
# Total GULP energy -267538.082065 kJ/mol
# GULP energy per Si atom -5573.710043 kJ/mol
# Density = 1.881358 g / cm^3
# Si number density = 18.856500 Si / 1000 Ang^3
#
#
#
# Elastic Constant Matrix: (Units=GPa)
#
#
# Indices 1 2 3 4 5 6 
#
# 1 52.5461 -9.8751 -14.1023 0.0000 0.0000 0.0000
# 2 -9.8751 36.0814 16.4613 0.0000 0.0000 0.0000
# 3 -14.1023 16.4613 76.6171 0.0000 0.0000 0.0000
# 4 0.0000 0.0000 0.0000 7.9003 0.0000 0.0000
# 5 0.0000 0.0000 0.0000 0.0000 43.5286 0.0000
# 6 0.0000 0.0000 0.0000 0.0000 0.0000 11.4233
#
#
#
# Elastic Compliance Matrix: (Units=1/GPa)
#
#
# Indices 1 2 3 4 5 6 
#
# 1 0.020614 0.004336 0.002863 0.000000 0.000000 0.000000
# 2 0.004336 0.031639 -0.006000 0.000000 0.000000 0.000000
# 3 0.002863 -0.006000 0.014868 0.000000 0.000000 0.000000
# 4 0.000000 0.000000 0.000000 0.126578 0.000000 0.000000
# 5 0.000000 0.000000 0.000000 0.000000 0.022973 0.000000
# 6 0.000000 0.000000 0.000000 0.000000 0.000000 0.087541
#
#
# Mechanical properties :
#
#
# Convention : Reuss Voigt Hill
#
# Bulk Modulus (GPa) = 14.38465 16.69027 15.53746
# Shear Modulus (GPa) = 15.38520 24.08781 19.73651
#
# Velocity S-wave (km/s) = 2.85951 3.57799 3.23874
# Velocity P-wave (km/s) = 4.30668 5.09311 4.71631
#
# Compressibility (1/GPa) = 0.06951854
#
# Stress axis : x y z
#
# Youngs Moduli (GPa) = 48.51064 31.60664 67.25912
#
# Poissons Ratio (x) = -0.13704 -0.19254
# Poissons Ratio (y) = -0.21033 0.40353
# Poissons Ratio (z) = -0.13887 0.18963
#
# Static dielectric constant tensor:
#      x y z
#    x 1.739630 0.000000 0.000000 
#    y 0.000000 1.667500 0.000000 
#    z 0.000000 0.000000 1.691330 
# 
# From -- ./inp_files/17075.got.cif
#   From: 2010.05.17/outbox.cif.g08.bks.cpg/sg62_9_cif.got.tgz:17075.got - 2010.06.03 15:25:27.
