data_PCOD9465735
_publ_section_title
;
Structure prediction by ZEFSAII (Michael W. Deem and Ramdas Pophale) SiO2 
 PCOD9465735
Probable space group: P N M A
;
_chemical_formula_sum "Si O2"
_cell_formula_units_Z 64
_cell_length_a 19.842052
_cell_length_b 7.538353
_cell_length_c 18.415931
_cell_angle_alpha 90.000000
_cell_angle_beta 90.000000
_cell_angle_gamma 90.000000
_cell_volume 2754.588518
_symmetry_space_group_name_H-M "P N M A"
_symmetry_group_IT_number 62
_symmetry_cell_setting 'orthorhombic'
loop_
_space_group_symop_operation_xyz
x,y,z
1/2-x,-y,1/2+z
1/2+x,1/2-y,1/2-z
-x,1/2+y,-z
-x,-y,-z
1/2+x,y,1/2-z
1/2-x,1/2+y,1/2+z
x,1/2-y,z
loop_
_atom_site_type_symbol
_atom_site_label
_atom_site_fract_x
_atom_site_fract_y
_atom_site_fract_z
Si Si1 0.401460 0.535619 0.029679
Si Si2 0.454081 0.033166 0.625400
Si Si3 0.744416 0.956213 0.916007
Si Si4 0.626973 0.532626 0.235785
Si Si5 0.773612 0.543096 0.249229
Si Si6 0.899477 0.548467 0.166083
Si Si7 0.126139 0.545152 0.992102
Si Si8 0.023127 0.954925 0.381677
O O1 0.405106 0.750000 0.027324
O O2 0.325434 0.479064 0.041332
O O3 0.450307 0.472103 0.095265
O O4 0.433195 0.464594 0.955365
O O5 0.456433 0.250000 0.621752
O O6 0.396653 0.986080 0.683374
O O7 0.526028 0.969942 0.655037
O O8 0.431433 0.971776 0.545983
O O9 0.759690 0.750000 0.906707
O O10 0.732423 0.034840 0.836069
O O11 0.805251 0.037850 0.961738
O O12 0.628603 0.750000 0.232061
O O13 0.702582 0.469059 0.219990
O O14 0.569571 0.467027 0.181044
O O15 0.775389 0.750000 0.227292
O O16 0.842952 0.465011 0.218027
O O17 0.911506 0.750000 0.192709
O O18 0.869612 0.550617 0.084637
O O19 0.111234 0.750000 0.975462
O O20 0.011596 0.750000 0.361230
#
# Coordination Sequence:
#
# PCOD9465735 Si02
#       8
#     8   8   8   8   8   8   8   8
#     4  10  21  37  58  86 119 155 196 243 297 357
#     4   9  18  35  60  88 119 156 199 243 293 352
#     4  12  25  40  60  84 117 156 200 250 299 355
#     4   9  17  33  58  85 115 155 198 238 285 350
#     4  10  21  39  61  86 118 154 197 240 294 357
#     4  10  22  37  62  95 122 154 197 245 295 358
#     4  11  22  40  63  86 118 160 200 248 303 357
#     4   9  19  35  60  88 117 154 198 244 291 352
#
# _framework density 23.23396
#
# number of rings (size 3 to 8) (size 9 to 14) (size 15 to 20)
#    0.000    2.000    1.250    2.250    3.500    1.000 
#    0.000    1.250    0.000    0.000    0.000    0.000 
#    0.000    0.000    0.000    0.000    0.000    0.000 
#
# Total GULP energy -357616.364459 kJ/mol
# GULP energy per Si atom -5587.755695 kJ/mol
# Density = 2.318108 g / cm^3
# Si number density = 23.233960 Si / 1000 Ang^3
#
#
#
# Elastic Constant Matrix: (Units=GPa)
#
#
# Indices 1 2 3 4 5 6 
#
# 1 134.3107 -5.6930 20.8149 0.0000 0.0000 0.0000
# 2 -5.6930 73.4240 -11.7114 0.0000 0.0000 0.0000
# 3 20.8149 -11.7114 37.8006 0.0000 0.0000 0.0000
# 4 0.0000 0.0000 0.0000 11.1443 0.0000 0.0000
# 5 0.0000 0.0000 0.0000 0.0000 44.9873 0.0000
# 6 0.0000 0.0000 0.0000 0.0000 0.0000 -0.6956
#
#
#
# Elastic Compliance Matrix: (Units=1/GPa)
#
#
# Indices 1 2 3 4 5 6 
#
# 1 0.008141 -0.000088 -0.004510 0.000000 0.000000 0.000000
# 2 -0.000088 0.014329 0.004488 0.000000 0.000000 0.000000
# 3 -0.004510 0.004488 0.030328 0.000000 0.000000 0.000000
# 4 0.000000 0.000000 0.000000 0.089732 0.000000 0.000000
# 5 0.000000 0.000000 0.000000 0.000000 0.022229 0.000000
# 6 0.000000 0.000000 0.000000 0.000000 0.000000 -1.437608
#
#
# Mechanical properties :
#
#
# Convention : Reuss Voigt Hill
#
# Bulk Modulus (GPa) = 19.01972 28.03959 23.52965
# Shear Modulus (GPa) = -3.98374 27.22884 11.62255
#
# Velocity S-wave (km/s) = -1.31085 3.42708 2.23903
# Velocity P-wave (km/s) = 2.43163 5.26824 4.10288
#
# Compressibility (1/GPa) = 0.05257701
#
# Stress axis : x y z
#
# Youngs Moduli (GPa) = 122.84072 69.79092 32.97232
#
# Poissons Ratio (x) = 0.00615 0.14870
# Poissons Ratio (y) = 0.01083 -0.14797
# Poissons Ratio (z) = 0.55401 -0.31321
#
# Static dielectric constant tensor:
#      x y z
#    x 1.883070 0.000000 0.000000 
#    y 0.000000 1.898330 0.000000 
#    z 0.000000 0.000000 1.845490 
# 
# From -- ./inp_files/24781.got.cif
#   From: 2010.05.17/outbox.cif.g08.bks.cpg/sg62_13_cif.got.tgz:24781.got - 2010.06.03 15:25:27.
