data_PCOD9465928
_publ_section_title
;
Structure prediction by ZEFSAII (Michael W. Deem and Ramdas Pophale) SiO2 
 PCOD9465928
Probable space group: P N M A
;
_chemical_formula_sum "Si O2"
_cell_formula_units_Z 48
_cell_length_a 14.733682
_cell_length_b 8.994041
_cell_length_c 18.340441
_cell_angle_alpha 90.000000
_cell_angle_beta 90.000000
_cell_angle_gamma 90.000000
_cell_volume 2430.389775
_symmetry_space_group_name_H-M "P N M A"
_symmetry_group_IT_number 62
_symmetry_cell_setting 'orthorhombic'
loop_
_space_group_symop_operation_xyz
x,y,z
1/2-x,-y,1/2+z
1/2+x,1/2-y,1/2-z
-x,1/2+y,-z
-x,-y,-z
1/2+x,y,1/2-z
1/2-x,1/2+y,1/2+z
x,1/2-y,z
loop_
_atom_site_type_symbol
_atom_site_label
_atom_site_fract_x
_atom_site_fract_y
_atom_site_fract_z
Si Si1 0.277635 0.573517 0.574491
Si Si2 0.400773 0.927073 0.129207
Si Si3 0.393309 0.076250 0.701929
Si Si4 0.215781 0.576464 0.926835
Si Si5 0.608761 0.420775 0.698855
Si Si6 0.407884 0.926056 0.857607
O O1 0.277892 0.750000 0.580522
O O2 0.176389 0.508811 0.583981
O O3 0.336928 0.501323 0.638660
O O4 0.312796 0.520575 0.495917
O O5 0.399764 0.750000 0.116344
O O6 0.378792 0.952201 0.215250
O O7 0.500919 0.992200 0.116597
O O8 0.367684 0.250000 0.708285
O O9 0.500836 0.069064 0.685404
O O10 0.381252 0.995469 0.779345
O O11 0.200763 0.750000 0.942509
O O12 0.162220 0.528011 0.854608
O O13 0.322315 0.553865 0.910189
O O14 0.637592 0.250000 0.685661
O O15 0.425356 0.750000 0.849466
#
# Coordination Sequence:
#
# PCOD9465928 Si02
#       6
#     8   8   8   8   8   8
#     4  12  25  39  58  84 116 154 194 239 289 344
#     4  10  21  39  63  88 116 151 191 237 289 343
#     4  10  21  39  62  87 117 152 191 237 289 343
#     4  11  24  39  57  83 117 155 191 234 287 342
#     4   9  20  38  61  87 113 147 189 233 282 338
#     4  10  21  38  61  89 117 149 194 240 284 338
#
# _framework density 19.749918999999998
#
# number of rings (size 3 to 8) (size 9 to 14) (size 15 to 20)
#    0.000    1.667    0.000    5.500    0.000   10.667 
#    0.000    0.000    0.000    0.000    0.000    0.000 
#    0.000    0.000    0.000    0.000    0.000    0.000 
#
# Total GULP energy -268447.225677 kJ/mol
# GULP energy per Si atom -5592.650535 kJ/mol
# Density = 1.970497 g / cm^3
# Si number density = 19.749919 Si / 1000 Ang^3
#
#
#
# Elastic Constant Matrix: (Units=GPa)
#
#
# Indices 1 2 3 4 5 6 
#
# 1 29.6066 31.7173 20.2019 0.0000 0.0000 0.0000
# 2 31.7173 106.0379 31.4999 0.0000 0.0000 0.0000
# 3 20.2019 31.4999 21.5205 0.0000 0.0000 0.0000
# 4 0.0000 0.0000 0.0000 33.4570 0.0000 0.0000
# 5 0.0000 0.0000 0.0000 0.0000 -0.7654 0.0000
# 6 0.0000 0.0000 0.0000 0.0000 0.0000 35.6075
#
#
#
# Elastic Compliance Matrix: (Units=1/GPa)
#
#
# Indices 1 2 3 4 5 6 
#
# 1 0.094648 -0.003391 -0.083885 0.000000 0.000000 0.000000
# 2 -0.003391 0.016807 -0.021418 0.000000 0.000000 0.000000
# 3 -0.083885 -0.021418 0.156563 0.000000 0.000000 0.000000
# 4 0.000000 0.000000 0.000000 0.029889 0.000000 0.000000
# 5 0.000000 0.000000 0.000000 0.000000 -1.306550 0.000000
# 6 0.000000 0.000000 0.000000 0.000000 0.000000 0.028084
#
#
# Mechanical properties :
#
#
# Convention : Reuss Voigt Hill
#
# Bulk Modulus (GPa) = 19.75130 36.00035 27.87582
# Shear Modulus (GPa) = -6.69977 18.57622 5.93822
#
# Velocity S-wave (km/s) = -1.84382 3.07020 1.73587
# Velocity P-wave (km/s) = 2.34297 5.55300 4.26177
#
# Compressibility (1/GPa) = 0.05062957
#
# Stress axis : x y z
#
# Youngs Moduli (GPa) = 10.56547 59.49774 6.38722
#
# Poissons Ratio (x) = 0.20177 0.53579
# Poissons Ratio (y) = 0.03583 0.13680
# Poissons Ratio (z) = 0.88629 1.27431
#
# Static dielectric constant tensor:
#      x y z
#    x 1.690560 0.000000 0.000000 
#    y 0.000000 1.654860 0.000000 
#    z 0.000000 0.000000 1.681540 
# 
# From -- ./inp_files/23748.got.cif
#   From: 2010.05.17/outbox.cif.g08.bks.cpg/sg62_12_cif.got.tgz:23748.got - 2010.06.03 15:25:27.
