data_PCOD9465141
_publ_section_title
;
Structure prediction by ZEFSAII (Michael W. Deem and Ramdas Pophale) SiO2 
 PCOD9465141
Probable space group: P N M A
;
_chemical_formula_sum "Si O2"
_cell_formula_units_Z 40
_cell_length_a 19.056134
_cell_length_b 8.064939
_cell_length_c 12.675049
_cell_angle_alpha 90.000000
_cell_angle_beta 90.000000
_cell_angle_gamma 90.000000
_cell_volume 1947.984657
_symmetry_space_group_name_H-M "P N M A"
_symmetry_group_IT_number 62
_symmetry_cell_setting 'orthorhombic'
loop_
_space_group_symop_operation_xyz
x,y,z
1/2-x,-y,1/2+z
1/2+x,1/2-y,1/2-z
-x,1/2+y,-z
-x,-y,-z
1/2+x,y,1/2-z
1/2-x,1/2+y,1/2+z
x,1/2-y,z
loop_
_atom_site_type_symbol
_atom_site_label
_atom_site_fract_x
_atom_site_fract_y
_atom_site_fract_z
Si Si1 0.879830 0.555899 0.325879
Si Si2 0.845791 0.443943 0.555955
Si Si3 0.189390 0.453042 0.893227
Si Si4 0.463830 0.555211 0.788624
Si Si5 0.427738 0.949814 0.556303
O O1 0.863510 0.750000 0.338767
O O2 0.855626 0.465021 0.431215
O O3 0.842057 0.495247 0.219360
O O4 0.963177 0.534897 0.311417
O O5 0.850050 0.250000 0.583031
O O6 0.769105 0.507196 0.589457
O O7 0.908235 0.531845 0.618409
O O8 0.188855 0.250000 0.894911
O O9 0.137698 0.510366 0.986741
O O10 0.480349 0.750000 0.777647
O O11 0.431139 0.494638 0.677698
O O12 0.423816 0.750000 0.556869
O O13 0.500000 0.000000 0.500000
#
# Coordination Sequence:
#
# PCOD9465141 Si02
#       5
#     8   8   8   8   8
#     4  11  22  41  65  88 120 159 203 249 299 359
#     4  11  24  41  62  88 123 162 201 247 304 359
#     4   9  21  40  61  87 121 158 194 245 305 355
#     4  11  23  39  63  93 122 157 203 249 300 357
#     4  10  20  38  62  89 119 155 197 246 297 354
#
# _framework density 20.534041999999999
#
# number of rings (size 3 to 8) (size 9 to 14) (size 15 to 20)
#    0.000    1.600    2.000    2.400    2.800    0.800 
#    0.000    5.000    0.000    0.000    0.000    0.000 
#    0.000    0.000    0.000    0.000    0.000    0.000 
#
# Total GULP energy -223609.389945 kJ/mol
# GULP energy per Si atom -5590.234749 kJ/mol
# Density = 2.048731 g / cm^3
# Si number density = 20.534042 Si / 1000 Ang^3
#
#
#
# Elastic Constant Matrix: (Units=GPa)
#
#
# Indices 1 2 3 4 5 6 
#
# 1 107.0794 -10.7095 66.6585 0.0000 0.0000 0.0000
# 2 -10.7095 17.0543 -9.8155 0.0000 0.0000 0.0000
# 3 66.6585 -9.8155 103.4828 0.0000 0.0000 0.0000
# 4 0.0000 0.0000 0.0000 13.6899 0.0000 0.0000
# 5 0.0000 0.0000 0.0000 0.0000 27.6085 0.0000
# 6 0.0000 0.0000 0.0000 0.0000 0.0000 8.0145
#
#
#
# Elastic Compliance Matrix: (Units=1/GPa)
#
#
# Indices 1 2 3 4 5 6 
#
# 1 0.015886 0.004322 -0.009823 0.000000 0.000000 0.000000
# 2 0.004322 0.063198 0.003210 0.000000 0.000000 0.000000
# 3 -0.009823 0.003210 0.016296 0.000000 0.000000 0.000000
# 4 0.000000 0.000000 0.000000 0.073047 0.000000 0.000000
# 5 0.000000 0.000000 0.000000 0.000000 0.036221 0.000000
# 6 0.000000 0.000000 0.000000 0.000000 0.000000 0.124774
#
#
# Mechanical properties :
#
#
# Convention : Reuss Voigt Hill
#
# Bulk Modulus (GPa) = 11.01337 35.54260 23.27798
# Shear Modulus (GPa) = 13.72615 21.96145 17.84380
#
# Velocity S-wave (km/s) = 2.58826 3.27389 2.95106
# Velocity P-wave (km/s) = 3.78249 5.62475 4.79297
#
# Compressibility (1/GPa) = 0.09079876
#
# Stress axis : x y z
#
# Youngs Moduli (GPa) = 62.94776 15.82324 61.36662
#
# Poissons Ratio (x) = -0.06839 0.60281
# Poissons Ratio (y) = -0.27208 -0.19700
# Poissons Ratio (z) = 0.61834 -0.05080
#
# Static dielectric constant tensor:
#      x y z
#    x 1.690360 0.000000 0.000000 
#    y 0.000000 1.719380 0.000000 
#    z 0.000000 0.000000 1.711710 
# 
# From -- ./inp_files/13845.got.cif
#   From: 2010.05.17/outbox.cif.g08.bks.cpg/sg62_7_cif.got.tgz:13845.got - 2010.06.03 15:25:27.
