data_PCOD9465569
_publ_section_title
;
Structure prediction by ZEFSAII (Michael W. Deem and Ramdas Pophale) SiO2 
 PCOD9465569
Probable space group: P N M A
;
_chemical_formula_sum "Si O2"
_cell_formula_units_Z 64
_cell_length_a 14.951011
_cell_length_b 8.792662
_cell_length_c 25.170425
_cell_angle_alpha 90.000000
_cell_angle_beta 90.000000
_cell_angle_gamma 90.000000
_cell_volume 3308.883589
_symmetry_space_group_name_H-M "P N M A"
_symmetry_group_IT_number 62
_symmetry_cell_setting 'orthorhombic'
loop_
_space_group_symop_operation_xyz
x,y,z
1/2-x,-y,1/2+z
1/2+x,1/2-y,1/2-z
-x,1/2+y,-z
-x,-y,-z
1/2+x,y,1/2-z
1/2-x,1/2+y,1/2+z
x,1/2-y,z
loop_
_atom_site_type_symbol
_atom_site_label
_atom_site_fract_x
_atom_site_fract_y
_atom_site_fract_z
Si Si1 0.094440 0.566248 0.018980
Si Si2 0.557463 0.570992 0.366851
Si Si3 0.628343 0.067817 0.259644
Si Si4 0.498598 0.066335 0.164346
Si Si5 0.335903 0.066886 0.239705
Si Si6 0.855435 0.927341 0.147724
Si Si7 0.449993 0.069003 0.949060
Si Si8 0.244594 0.430857 0.440663
O O1 0.087472 0.750000 0.017756
O O2 0.109036 0.520068 0.080346
O O3 0.177244 0.522973 0.981732
O O4 0.000000 0.500000 0.000000
O O5 0.573961 0.750000 0.357870
O O6 0.580890 0.484777 0.313358
O O7 0.452228 0.553504 0.379124
O O8 0.626007 0.250000 0.257347
O O9 0.574912 0.015211 0.206962
O O10 0.732017 0.021825 0.264865
O O11 0.505184 0.250000 0.159014
O O12 0.402605 0.030714 0.191336
O O13 0.511823 0.993259 0.106911
O O14 0.340556 0.250000 0.247254
O O15 0.368283 0.983338 0.292511
O O16 0.830737 0.750000 0.145878
O O17 0.782236 0.026317 0.117349
O O18 0.457269 0.250000 0.950098
O O19 0.346926 0.017005 0.951238
O O20 0.500000 0.000000 0.000000
O O21 0.230297 0.250000 0.444302
#
# Coordination Sequence:
#
# PCOD9465569 Si02
#       8
#     8   8   8   8   8   8   8   8
#     4  10  21  37  58  87 124 163 202 248 302 363
#     4  10  21  36  55  84 124 159 197 248 301 359
#     4  10  21  37  59  88 121 160 202 245 300 362
#     4  10  21  40  64  91 126 162 206 258 306 367
#     4  10  21  37  60  90 123 162 208 254 305 367
#     4  11  21  35  59  90 124 162 208 257 306 364
#     4  12  27  47  70  93 122 160 209 265 318 374
#     4  11  23  40  65  93 124 166 213 259 315 377
#
# _framework density 19.34187
#
# number of rings (size 3 to 8) (size 9 to 14) (size 15 to 20)
#    0.000    1.500    2.500    2.625    0.000    5.000 
#    0.000    2.500    0.000    0.000    0.000    0.000 
#    0.000    0.000    0.000    0.000    0.000    0.000 
#
# Total GULP energy -357486.292496 kJ/mol
# GULP energy per Si atom -5585.723320 kJ/mol
# Density = 1.929785 g / cm^3
# Si number density = 19.341870 Si / 1000 Ang^3
#
#
#
# Elastic Constant Matrix: (Units=GPa)
#
#
# Indices 1 2 3 4 5 6 
#
# 1 107.5952 45.9381 69.7679 0.0000 0.0000 0.0000
# 2 45.9381 38.8001 45.5741 0.0000 0.0000 0.0000
# 3 69.7679 45.5741 158.1069 0.0000 0.0000 0.0000
# 4 0.0000 0.0000 0.0000 29.2522 0.0000 0.0000
# 5 0.0000 0.0000 0.0000 0.0000 25.5014 0.0000
# 6 0.0000 0.0000 0.0000 0.0000 0.0000 22.9610
#
#
#
# Elastic Compliance Matrix: (Units=1/GPa)
#
#
# Indices 1 2 3 4 5 6 
#
# 1 0.019679 -0.019805 -0.002975 0.000000 0.000000 0.000000
# 2 -0.019805 0.058897 -0.008238 0.000000 0.000000 0.000000
# 3 -0.002975 -0.008238 0.010012 0.000000 0.000000 0.000000
# 4 0.000000 0.000000 0.000000 0.034185 0.000000 0.000000
# 5 0.000000 0.000000 0.000000 0.000000 0.039213 0.000000
# 6 0.000000 0.000000 0.000000 0.000000 0.000000 0.043552
#
#
# Mechanical properties :
#
#
# Convention : Reuss Voigt Hill
#
# Bulk Modulus (GPa) = 37.66018 69.67359 53.66688
# Shear Modulus (GPa) = 18.08802 25.09106 21.58954
#
# Velocity S-wave (km/s) = 3.06138 3.60563 3.34459
# Velocity P-wave (km/s) = 5.65766 7.30989 6.53619
#
# Compressibility (1/GPa) = 0.02655325
#
# Stress axis : x y z
#
# Youngs Moduli (GPa) = 50.81586 16.97866 99.87851
#
# Poissons Ratio (x) = 0.33626 0.29714
# Poissons Ratio (y) = 1.00640 0.82278
# Poissons Ratio (z) = 0.15118 0.13987
#
# Static dielectric constant tensor:
#      x y z
#    x 1.714990 0.000000 0.000000 
#    y 0.000000 1.649030 0.000000 
#    z 0.000000 0.000000 1.671400 
# 
# From -- ./inp_files/29855.got.cif
#   From: 2010.05.17/outbox.cif.g08.bks.cpg/sg62_15_cif.got.tgz:29855.got - 2010.06.03 15:25:27.
