data_PCOD9465024
_publ_section_title
;
Structure prediction by ZEFSAII (Michael W. Deem and Ramdas Pophale) SiO2 
 PCOD9465024
Probable space group: P N M A
;
_chemical_formula_sum "Si O2"
_cell_formula_units_Z 32
_cell_length_a 15.176458
_cell_length_b 12.169469
_cell_length_c 6.771116
_cell_angle_alpha 90.000000
_cell_angle_beta 90.000000
_cell_angle_gamma 90.000000
_cell_volume 1250.553589
_symmetry_space_group_name_H-M "P N M A"
_symmetry_group_IT_number 62
_symmetry_cell_setting 'orthorhombic'
loop_
_space_group_symop_operation_xyz
x,y,z
1/2-x,-y,1/2+z
1/2+x,1/2-y,1/2-z
-x,1/2+y,-z
-x,-y,-z
1/2+x,y,1/2-z
1/2-x,1/2+y,1/2+z
x,1/2-y,z
loop_
_atom_site_type_symbol
_atom_site_label
_atom_site_fract_x
_atom_site_fract_y
_atom_site_fract_z
Si Si1 0.729114 0.631723 0.729304
Si Si2 0.646207 0.951496 0.084003
Si Si3 0.533111 0.132323 0.954400
Si Si4 0.468438 0.121650 0.414589
O O1 0.769673 0.750000 0.676900
O O2 0.793418 0.528504 0.713610
O O3 0.701233 0.632619 0.957448
O O4 0.638503 0.619773 0.605201
O O5 0.558514 0.891480 0.158275
O O6 0.605576 0.040269 0.928141
O O7 0.567154 0.250000 0.901658
O O8 0.507872 0.127317 0.188245
O O9 0.490423 0.250000 0.485247
O O10 0.500000 0.000000 0.500000
#
# Coordination Sequence:
#
# PCOD9465024 Si02
#       4
#     8   8   8   8
#     4  10  22  40  59  86 123 154 196 258 307 357
#     4  10  20  37  63  85 116 158 201 238 305 367
#     4   9  19  38  60  83 117 159 199 247 301 359
#     4   9  19  37  59  87 122 158 199 251 306 362
#
# _framework density 25.588667000000001
#
# number of rings (size 3 to 8) (size 9 to 14) (size 15 to 20)
#    0.000    2.500    0.000    3.000    3.500    0.000 
#    0.000   23.750    0.000    0.000    0.000    0.000 
#    0.000    0.000    0.000    0.000    0.000    0.000 
#
# Total GULP energy -178305.972176 kJ/mol
# GULP energy per Si atom -5572.061630 kJ/mol
# Density = 2.553043 g / cm^3
# Si number density = 25.588667 Si / 1000 Ang^3
#
#
#
# Elastic Constant Matrix: (Units=GPa)
#
#
# Indices 1 2 3 4 5 6 
#
# 1 65.9789 23.7910 11.3428 0.0000 0.0000 0.0000
# 2 23.7910 227.8314 38.4241 0.0000 0.0000 0.0000
# 3 11.3428 38.4241 58.6311 0.0000 0.0000 0.0000
# 4 0.0000 0.0000 0.0000 35.8914 0.0000 0.0000
# 5 0.0000 0.0000 0.0000 0.0000 34.8339 0.0000
# 6 0.0000 0.0000 0.0000 0.0000 0.0000 19.4823
#
#
#
# Elastic Compliance Matrix: (Units=1/GPa)
#
#
# Indices 1 2 3 4 5 6 
#
# 1 0.016009 -0.001292 -0.002250 0.000000 0.000000 0.000000
# 2 -0.001292 0.005039 -0.003052 0.000000 0.000000 0.000000
# 3 -0.002250 -0.003052 0.019491 0.000000 0.000000 0.000000
# 4 0.000000 0.000000 0.000000 0.027862 0.000000 0.000000
# 5 0.000000 0.000000 0.000000 0.000000 0.028708 0.000000
# 6 0.000000 0.000000 0.000000 0.000000 0.000000 0.051329
#
#
# Mechanical properties :
#
#
# Convention : Reuss Voigt Hill
#
# Bulk Modulus (GPa) = 36.56309 55.50636 46.03473
# Shear Modulus (GPa) = 29.28362 36.63375 32.95868
#
# Velocity S-wave (km/s) = 3.38657 3.78781 3.59279
# Velocity P-wave (km/s) = 5.44165 6.39287 5.93635
#
# Compressibility (1/GPa) = 0.02734998
#
# Stress axis : x y z
#
# Youngs Moduli (GPa) = 62.46413 198.45517 51.30457
#
# Poissons Ratio (x) = 0.25645 0.11545
# Poissons Ratio (y) = 0.08072 0.15660
# Poissons Ratio (z) = 0.14056 0.60574
#
# Static dielectric constant tensor:
#      x y z
#    x 2.008150 0.000000 0.000000 
#    y 0.000000 2.154800 0.000000 
#    z 0.000000 0.000000 2.155040 
# 
# From -- ./inp_files/5755.got.cif
#   From: 2010.05.17/outbox.cif.g08.bks.cpg/sg62_3_cif.got.tgz:5755.got - 2010.06.03 15:25:27.
