data_PCOD9465827
_publ_section_title
;
Structure prediction by ZEFSAII (Michael W. Deem and Ramdas Pophale) SiO2 
 PCOD9465827
Probable space group: P N M A
;
_chemical_formula_sum "Si O2"
_cell_formula_units_Z 56
_cell_length_a 14.332430
_cell_length_b 7.587954
_cell_length_c 19.977555
_cell_angle_alpha 90.000000
_cell_angle_beta 90.000000
_cell_angle_gamma 90.000000
_cell_volume 2172.635411
_symmetry_space_group_name_H-M "P N M A"
_symmetry_group_IT_number 62
_symmetry_cell_setting 'orthorhombic'
loop_
_space_group_symop_operation_xyz
x,y,z
1/2-x,-y,1/2+z
1/2+x,1/2-y,1/2-z
-x,1/2+y,-z
-x,-y,-z
1/2+x,y,1/2-z
1/2-x,1/2+y,1/2+z
x,1/2-y,z
loop_
_atom_site_type_symbol
_atom_site_label
_atom_site_fract_x
_atom_site_fract_y
_atom_site_fract_z
Si Si1 0.717076 0.534934 0.142426
Si Si2 0.789029 0.034407 0.495890
Si Si3 0.065377 0.464489 0.712189
Si Si4 0.967218 0.552902 0.427039
Si Si5 0.430322 0.541569 0.356878
Si Si6 0.109268 0.049724 0.072635
Si Si7 0.287839 0.037888 0.709587
O O1 0.715152 0.750000 0.143535
O O2 0.825235 0.475184 0.135815
O O3 0.680715 0.480819 0.215492
O O4 0.676601 0.482602 0.070277
O O5 0.792230 0.250000 0.491266
O O6 0.684047 0.973260 0.479442
O O7 0.855819 0.956345 0.439493
O O8 0.054985 0.250000 0.710202
O O9 0.018300 0.536190 0.644707
O O10 0.032241 0.525828 0.784952
O O11 0.176685 0.498904 0.709061
O O12 0.002354 0.750000 0.419376
O O13 0.000000 0.500000 0.500000
O O14 0.418850 0.750000 0.349085
O O15 0.505739 0.518507 0.414512
O O16 0.097623 0.250000 0.051972
O O17 0.161076 0.038907 0.145011
O O18 0.300943 0.250000 0.705402
#
# Coordination Sequence:
#
# PCOD9465827 Si02
#       7
#     8   8   8   8   8   8   8
#     4   8  17  35  59  81 104 140 189 235 266 310
#     4  10  21  38  56  79 113 149 181 220 278 333
#     4   8  16  33  56  77  98 129 179 230 264 305
#     4  11  22  37  57  82 111 143 183 228 276 329
#     4   9  18  35  58  80 101 138 189 233 266 307
#     4  11  22  33  50  81 118 147 174 217 280 341
#     4   9  16  33  59  78  95 133 189 234 263 307
#
# _framework density 25.775147
#
# number of rings (size 3 to 8) (size 9 to 14) (size 15 to 20)
#    0.000    2.571    1.429    2.571    0.000    2.286 
#    0.000   11.429    0.000    0.000    0.000    0.000 
#    0.000    0.000    0.000    0.000    0.000    0.000 
#
# Total GULP energy -312720.583282 kJ/mol
# GULP energy per Si atom -5584.296130 kJ/mol
# Density = 2.571648 g / cm^3
# Si number density = 25.775147 Si / 1000 Ang^3
#
#
#
# Elastic Constant Matrix: (Units=GPa)
#
#
# Indices 1 2 3 4 5 6 
#
# 1 59.3823 -0.1141 12.8958 0.0000 0.0000 0.0000
# 2 -0.1141 43.9148 -4.0984 0.0000 0.0000 0.0000
# 3 12.8958 -4.0984 142.1776 0.0000 0.0000 0.0000
# 4 0.0000 0.0000 0.0000 11.8787 0.0000 0.0000
# 5 0.0000 0.0000 0.0000 0.0000 45.0455 0.0000
# 6 0.0000 0.0000 0.0000 0.0000 0.0000 15.4577
#
#
#
# Elastic Compliance Matrix: (Units=1/GPa)
#
#
# Indices 1 2 3 4 5 6 
#
# 1 0.017179 -0.000101 -0.001561 0.000000 0.000000 0.000000
# 2 -0.000101 0.022833 0.000667 0.000000 0.000000 0.000000
# 3 -0.001561 0.000667 0.007194 0.000000 0.000000 0.000000
# 4 0.000000 0.000000 0.000000 0.084184 0.000000 0.000000
# 5 0.000000 0.000000 0.000000 0.000000 0.022200 0.000000
# 6 0.000000 0.000000 0.000000 0.000000 0.000000 0.064693
#
#
# Mechanical properties :
#
#
# Convention : Reuss Voigt Hill
#
# Bulk Modulus (GPa) = 22.11556 29.20456 25.66006
# Shear Modulus (GPa) = 21.24539 30.26247 25.75393
#
# Velocity S-wave (km/s) = 2.87411 3.43022 3.16441
# Velocity P-wave (km/s) = 4.42863 5.20036 4.82993
#
# Compressibility (1/GPa) = 0.04521702
#
# Stress axis : x y z
#
# Youngs Moduli (GPa) = 58.21109 43.79556 138.99917
#
# Poissons Ratio (x) = 0.00442 0.21699
# Poissons Ratio (y) = 0.00588 -0.09276
# Poissons Ratio (z) = 0.09087 -0.02923
#
# Static dielectric constant tensor:
#      x y z
#    x 2.111270 0.000000 0.000000 
#    y 0.000000 1.982120 0.000000 
#    z 0.000000 0.000000 2.053850 
# 
# From -- ./inp_files/27250.got.cif
#   From: 2010.05.17/outbox.cif.g08.bks.cpg/sg62_14_cif.got.tgz:27250.got - 2010.06.03 15:25:27.
