data_PCOD9465492
_publ_section_title
;
Structure prediction by ZEFSAII (Michael W. Deem and Ramdas Pophale) SiO2 
 PCOD9465492
Probable space group: P N M A
;
_chemical_formula_sum "Si O2"
_cell_formula_units_Z 64
_cell_length_a 25.126303
_cell_length_b 19.776738
_cell_length_c 5.136597
_cell_angle_alpha 90.000000
_cell_angle_beta 90.000000
_cell_angle_gamma 90.000000
_cell_volume 2552.458834
_symmetry_space_group_name_H-M "P N M A"
_symmetry_group_IT_number 62
_symmetry_cell_setting 'orthorhombic'
loop_
_space_group_symop_operation_xyz
x,y,z
1/2-x,-y,1/2+z
1/2+x,1/2-y,1/2-z
-x,1/2+y,-z
-x,-y,-z
1/2+x,y,1/2-z
1/2-x,1/2+y,1/2+z
x,1/2-y,z
loop_
_atom_site_type_symbol
_atom_site_label
_atom_site_fract_x
_atom_site_fract_y
_atom_site_fract_z
Si Si1 0.493637 0.567760 0.850118
Si Si2 0.308450 0.169070 0.204253
Si Si3 0.230642 0.541484 0.920535
Si Si4 0.873727 0.587928 0.700102
Si Si5 0.649214 0.938910 0.193819
Si Si6 0.517479 0.317920 0.729998
Si Si7 0.579552 0.866635 0.532379
Si Si8 0.137641 0.173089 0.825946
O O1 0.435171 0.571713 0.718979
O O2 0.547783 0.576714 0.690026
O O3 0.500000 0.500000 0.000000
O O4 0.487982 0.623079 0.070857
O O5 0.296459 0.250000 0.164919
O O6 0.264949 0.122982 0.365048
O O7 0.367733 0.165860 0.338905
O O8 0.315677 0.117680 0.955920
O O9 0.244153 0.494040 0.676835
O O10 0.169503 0.543345 0.013048
O O11 0.855238 0.514603 0.589480
O O12 0.864380 0.640118 0.461698
O O13 0.843813 0.620121 0.951807
O O14 0.596479 0.897930 0.255541
O O15 0.513476 0.250000 0.893807
O O16 0.470197 0.319060 0.525087
O O17 0.575284 0.318501 0.604487
O O18 0.160899 0.250000 0.829703
#
# Coordination Sequence:
#
# PCOD9465492 Si02
#       8
#     8   8   8   8   8   8   8   8
#     4  11  23  36  54  82 133 189 248 299 346 406
#     4  11  25  45  73 113 155 187 229 290 359 435
#     4  11  24  50  82 110 141 185 233 282 358 455
#     4  11  23  39  64  94 133 186 245 301 355 416
#     4  11  26  41  71 106 145 186 229 289 362 432
#     4  10  21  35  51  78 119 179 240 296 350 400
#     4  11  22  37  58  93 139 189 241 289 350 415
#     4  10  22  39  61  86 122 181 252 310 355 398
#
# _framework density 25.073861000000001
#
# number of rings (size 3 to 8) (size 9 to 14) (size 15 to 20)
#    0.000    1.250    2.500    3.000    7.000    6.000 
#    0.000    0.000    0.000    4.500    0.000    0.000 
#    0.000    0.000    0.000    0.000    0.000    0.000 
#
# Total GULP energy -356338.196772 kJ/mol
# GULP energy per Si atom -5567.784325 kJ/mol
# Density = 2.501679 g / cm^3
# Si number density = 25.073861 Si / 1000 Ang^3
#
#
#
# Elastic Constant Matrix: (Units=GPa)
#
#
# Indices 1 2 3 4 5 6 
#
# 1 52.2654 -6.5578 -4.8118 0.0000 0.0000 0.0000
# 2 -6.5578 217.7086 36.2011 0.0000 0.0000 0.0000
# 3 -4.8118 36.2011 66.8258 0.0000 0.0000 0.0000
# 4 0.0000 0.0000 0.0000 65.3344 0.0000 0.0000
# 5 0.0000 0.0000 0.0000 0.0000 25.6584 0.0000
# 6 0.0000 0.0000 0.0000 0.0000 0.0000 16.5644
#
#
#
# Elastic Compliance Matrix: (Units=1/GPa)
#
#
# Indices 1 2 3 4 5 6 
#
# 1 0.019290 0.000385 0.001181 0.000000 0.000000 0.000000
# 2 0.000385 0.005056 -0.002711 0.000000 0.000000 0.000000
# 3 0.001181 -0.002711 0.016518 0.000000 0.000000 0.000000
# 4 0.000000 0.000000 0.000000 0.015306 0.000000 0.000000
# 5 0.000000 0.000000 0.000000 0.000000 0.038974 0.000000
# 6 0.000000 0.000000 0.000000 0.000000 0.000000 0.060370
#
#
# Mechanical properties :
#
#
# Convention : Reuss Voigt Hill
#
# Bulk Modulus (GPa) = 25.92542 42.94031 34.43286
# Shear Modulus (GPa) = 29.29760 42.30934 35.80347
#
# Velocity S-wave (km/s) = 3.42197 4.11224 3.78288
# Velocity P-wave (km/s) = 5.09659 6.30159 5.73085
#
# Compressibility (1/GPa) = 0.03857218
#
# Stress axis : x y z
#
# Youngs Moduli (GPa) = 51.84010 197.79704 60.54026
#
# Poissons Ratio (x) = -0.07610 -0.07147
# Poissons Ratio (y) = -0.01995 0.16413
# Poissons Ratio (z) = -0.06120 0.53624
#
# Static dielectric constant tensor:
#      x y z
#    x 2.143730 0.000000 0.000000 
#    y 0.000000 2.091550 0.000000 
#    z 0.000000 0.000000 2.067730 
# 
# From -- ./inp_files/3700.got.cif
#   From: 2010.05.17/outbox.cif.g08.bks.cpg/sg62_2_cif.got.tgz:3700.got - 2010.06.03 15:25:27.
