data_PCOD9465665
_publ_section_title
;
Structure prediction by ZEFSAII (Michael W. Deem and Ramdas Pophale) SiO2 
 PCOD9465665
Probable space group: P N M A
;
_chemical_formula_sum "Si O2"
_cell_formula_units_Z 64
_cell_length_a 9.852447
_cell_length_b 13.950679
_cell_length_c 27.262565
_cell_angle_alpha 90.000000
_cell_angle_beta 90.000000
_cell_angle_gamma 90.000000
_cell_volume 3747.193907
_symmetry_space_group_name_H-M "P N M A"
_symmetry_group_IT_number 62
_symmetry_cell_setting 'orthorhombic'
loop_
_space_group_symop_operation_xyz
x,y,z
1/2-x,-y,1/2+z
1/2+x,1/2-y,1/2-z
-x,1/2+y,-z
-x,-y,-z
1/2+x,y,1/2-z
1/2-x,1/2+y,1/2+z
x,1/2-y,z
loop_
_atom_site_type_symbol
_atom_site_label
_atom_site_fract_x
_atom_site_fract_y
_atom_site_fract_z
Si Si1 0.640671 0.045554 0.389170
Si Si2 0.110099 0.637022 0.946221
Si Si3 0.619935 0.049098 0.094207
Si Si4 0.481134 0.863352 0.805262
Si Si5 0.248222 0.640911 0.438587
Si Si6 0.925490 0.362382 0.941064
Si Si7 0.372888 0.137863 0.047292
Si Si8 0.702312 0.136294 0.289265
O O1 0.509399 0.084399 0.417690
O O2 0.767520 0.101935 0.412077
O O3 0.638157 0.072704 0.332383
O O4 0.645448 0.933542 0.402889
O O5 0.081439 0.750000 0.945833
O O6 0.249989 0.612958 0.919655
O O7 0.114206 0.607556 0.003446
O O8 0.558880 0.078112 0.146511
O O9 0.506009 0.074014 0.053927
O O10 0.671371 0.940281 0.091672
O O11 0.473502 0.750000 0.817406
O O12 0.635864 0.882041 0.788130
O O13 0.374799 0.881916 0.761595
O O14 0.217183 0.750000 0.423445
O O15 0.410959 0.628593 0.436885
O O16 0.198908 0.629304 0.494725
O O17 0.891357 0.250000 0.934691
O O18 0.406537 0.250000 0.055108
O O19 0.683653 0.250000 0.300834
#
# Coordination Sequence:
#
# PCOD9465665 Si02
#       8
#     8   8   8   8   8   8   8   8
#     4  12  20  35  58  81 109 154 191 217 277 335
#     4  11  21  32  54  85 115 148 191 230 268 333
#     4  12  22  36  55  83 115 151 186 229 280 330
#     4  10  22  39  57  82 114 143 177 224 278 335
#     4  10  21  37  55  79 112 153 195 233 273 318
#     4  10  21  37  54  80 115 149 194 240 268 311
#     4  11  21  35  55  81 118 152 180 224 281 336
#     4  10  22  38  58  83 112 144 178 222 277 337
#
# _framework density 17.079447999999999
#
# number of rings (size 3 to 8) (size 9 to 14) (size 15 to 20)
#    0.000    1.250    3.750    3.750    1.750    0.000 
#    0.000    1.875    0.000    0.750    0.000    0.000 
#    0.000    0.000    0.000    0.000    0.000    0.000 
#
# Total GULP energy -357497.911478 kJ/mol
# GULP energy per Si atom -5585.904867 kJ/mol
# Density = 1.704057 g / cm^3
# Si number density = 17.079448 Si / 1000 Ang^3
#
#
#
# Elastic Constant Matrix: (Units=GPa)
#
#
# Indices 1 2 3 4 5 6 
#
# 1 37.6695 7.1046 18.6105 0.0000 0.0000 0.0000
# 2 7.1046 71.8613 46.3250 0.0000 0.0000 0.0000
# 3 18.6105 46.3250 81.7501 0.0000 0.0000 0.0000
# 4 0.0000 0.0000 0.0000 26.1156 0.0000 0.0000
# 5 0.0000 0.0000 0.0000 0.0000 22.5927 0.0000
# 6 0.0000 0.0000 0.0000 0.0000 0.0000 23.0683
#
#
#
# Elastic Compliance Matrix: (Units=1/GPa)
#
#
# Indices 1 2 3 4 5 6 
#
# 1 0.030145 0.002274 -0.008151 0.000000 0.000000 0.000000
# 2 0.002274 0.022096 -0.013039 0.000000 0.000000 0.000000
# 3 -0.008151 -0.013039 0.021477 0.000000 0.000000 0.000000
# 4 0.000000 0.000000 0.000000 0.038291 0.000000 0.000000
# 5 0.000000 0.000000 0.000000 0.000000 0.044262 0.000000
# 6 0.000000 0.000000 0.000000 0.000000 0.000000 0.043350
#
#
# Mechanical properties :
#
#
# Convention : Reuss Voigt Hill
#
# Bulk Modulus (GPa) = 27.86591 37.26235 32.56413
# Shear Modulus (GPa) = 20.04692 22.30470 21.17581
#
# Velocity S-wave (km/s) = 3.42971 3.61770 3.52496
# Velocity P-wave (km/s) = 5.65993 6.27015 5.97284
#
# Compressibility (1/GPa) = 0.03588615
#
# Stress axis : x y z
#
# Youngs Moduli (GPa) = 33.17317 45.25632 46.56183
#
# Poissons Ratio (x) = -0.10293 0.37954
# Poissons Ratio (y) = -0.07545 0.60712
# Poissons Ratio (z) = 0.27041 0.59010
#
# Static dielectric constant tensor:
#      x y z
#    x 1.594700 0.000000 0.000000 
#    y 0.000000 1.595940 0.000000 
#    z 0.000000 0.000000 1.556190 
# 
# From -- ./inp_files/28968.got.cif
#   From: 2010.05.17/outbox.cif.g08.bks.cpg/sg62_15_cif.got.tgz:28968.got - 2010.06.03 15:25:27.
