data_PCOD9465019
_publ_section_title
;
Structure prediction by ZEFSAII (Michael W. Deem and Ramdas Pophale) SiO2 
 PCOD9465019
Probable space group: P N M A
;
_chemical_formula_sum "Si O2"
_cell_formula_units_Z 40
_cell_length_a 10.825223
_cell_length_b 13.634779
_cell_length_c 11.940747
_cell_angle_alpha 90.000000
_cell_angle_beta 90.000000
_cell_angle_gamma 90.000000
_cell_volume 1762.448564
_symmetry_space_group_name_H-M "P N M A"
_symmetry_group_IT_number 62
_symmetry_cell_setting 'orthorhombic'
loop_
_space_group_symop_operation_xyz
x,y,z
1/2-x,-y,1/2+z
1/2+x,1/2-y,1/2-z
-x,1/2+y,-z
-x,-y,-z
1/2+x,y,1/2-z
1/2-x,1/2+y,1/2+z
x,1/2-y,z
loop_
_atom_site_type_symbol
_atom_site_label
_atom_site_fract_x
_atom_site_fract_y
_atom_site_fract_z
Si Si1 0.764275 0.498636 0.377845
Si Si2 0.508874 0.029235 0.369779
Si Si3 0.063526 0.136391 0.711577
Si Si4 0.766385 0.366376 0.092031
Si Si5 0.490127 0.361776 0.052554
O O1 0.647360 0.429472 0.355467
O O2 0.806355 0.577917 0.285575
O O3 0.728719 0.570252 0.479348
O O4 0.882649 0.435106 0.413306
O O5 0.387713 0.094747 0.341544
O O6 0.500000 0.000000 0.500000
O O7 0.513103 0.930265 0.295998
O O8 0.072072 0.250000 0.742958
O O9 0.016509 0.132258 0.582171
O O10 0.780233 0.250000 0.074642
O O11 0.619650 0.381097 0.117301
O O12 0.453477 0.250000 0.075889
#
# Coordination Sequence:
#
# PCOD9465019 Si02
#       5
#     8   8   8   8   8
#     4  10  20  37  62  94 124 153 199 256 308 360
#     4  10  23  37  54  87 127 161 194 246 310 366
#     4  10  21  38  63  92 120 157 207 257 306 365
#     4   9  18  36  58  80 113 157 196 236 295 360
#     4   9  19  38  67  95 119 156 205 253 303 365
#
# _framework density 22.695696999999999
#
# number of rings (size 3 to 8) (size 9 to 14) (size 15 to 20)
#    0.000    2.400    0.000    4.200    0.000    9.600 
#    0.000    8.000    0.000    6.000    0.000    0.000 
#    0.000    0.000    0.000    0.000    0.000    0.000 
#
# Total GULP energy -222753.585800 kJ/mol
# GULP energy per Si atom -5568.839645 kJ/mol
# Density = 2.264404 g / cm^3
# Si number density = 22.695697 Si / 1000 Ang^3
#
#
#
# Elastic Constant Matrix: (Units=GPa)
#
#
# Indices 1 2 3 4 5 6 
#
# 1 197.0284 92.0950 10.8194 0.0000 0.0000 0.0000
# 2 92.0950 140.2747 27.8169 0.0000 0.0000 0.0000
# 3 10.8194 27.8169 67.2547 0.0000 0.0000 0.0000
# 4 0.0000 0.0000 0.0000 24.6766 0.0000 0.0000
# 5 0.0000 0.0000 0.0000 0.0000 7.6403 0.0000
# 6 0.0000 0.0000 0.0000 0.0000 0.0000 29.5808
#
#
#
# Elastic Compliance Matrix: (Units=1/GPa)
#
#
# Indices 1 2 3 4 5 6 
#
# 1 0.007371 -0.005016 0.000889 0.000000 0.000000 0.000000
# 2 -0.005016 0.011179 -0.003817 0.000000 0.000000 0.000000
# 3 0.000889 -0.003817 0.016304 0.000000 0.000000 0.000000
# 4 0.000000 0.000000 0.000000 0.040524 0.000000 0.000000
# 5 0.000000 0.000000 0.000000 0.000000 0.130885 0.000000
# 6 0.000000 0.000000 0.000000 0.000000 0.000000 0.033806
#
#
# Mechanical properties :
#
#
# Convention : Reuss Voigt Hill
#
# Bulk Modulus (GPa) = 52.72317 74.00227 63.36272
# Shear Modulus (GPa) = 19.06370 30.63462 24.84916
#
# Velocity S-wave (km/s) = 2.90137 3.67795 3.31249
# Velocity P-wave (km/s) = 5.87408 7.12134 6.52757
#
# Compressibility (1/GPa) = 0.01896699
#
# Stress axis : x y z
#
# Youngs Moduli (GPa) = 135.66752 89.45689 61.33287
#
# Poissons Ratio (x) = 0.44867 -0.05450
# Poissons Ratio (y) = 0.68044 0.23409
# Poissons Ratio (z) = -0.12056 0.34143
#
# Static dielectric constant tensor:
#      x y z
#    x 2.113490 0.000000 0.000000 
#    y 0.000000 1.811400 0.000000 
#    z 0.000000 0.000000 1.922430 
# 
# From -- ./inp_files/16665.got.cif
#   From: 2010.05.17/outbox.cif.g08.bks.cpg/sg62_9_cif.got.tgz:16665.got - 2010.06.03 15:25:27.
