data_PCOD9465451
_publ_section_title
;
Structure prediction by ZEFSAII (Michael W. Deem and Ramdas Pophale) SiO2 
 PCOD9465451
Probable space group: P N M A
;
_chemical_formula_sum "Si O2"
_cell_formula_units_Z 56
_cell_length_a 5.327660
_cell_length_b 13.342669
_cell_length_c 35.399915
_cell_angle_alpha 90.000000
_cell_angle_beta 90.000000
_cell_angle_gamma 90.000000
_cell_volume 2516.410177
_symmetry_space_group_name_H-M "P N M A"
_symmetry_group_IT_number 62
_symmetry_cell_setting 'orthorhombic'
loop_
_space_group_symop_operation_xyz
x,y,z
1/2-x,-y,1/2+z
1/2+x,1/2-y,1/2-z
-x,1/2+y,-z
-x,-y,-z
1/2+x,y,1/2-z
1/2-x,1/2+y,1/2+z
x,1/2-y,z
loop_
_atom_site_type_symbol
_atom_site_label
_atom_site_fract_x
_atom_site_fract_y
_atom_site_fract_z
Si Si1 0.984871 0.133035 0.725741
Si Si2 0.807195 0.068607 0.475346
Si Si3 0.059264 0.133743 0.225459
Si Si4 0.096206 0.096143 0.952013
Si Si5 0.835570 0.358094 0.878304
Si Si6 0.690184 0.010951 0.667139
Si Si7 0.529675 0.473926 0.097283
O O1 0.760333 0.118420 0.756446
O O2 0.968122 0.250000 0.714168
O O3 0.912960 0.056018 0.692853
O O4 0.690944 0.138558 0.508016
O O5 0.578374 0.998902 0.461905
O O6 0.000000 0.000000 0.500000
O O7 0.932394 0.101155 0.435531
O O8 0.833356 0.120334 0.256016
O O9 0.043924 0.250000 0.212701
O O10 0.990382 0.056926 0.192498
O O11 0.330412 0.057006 0.928095
O O12 0.938481 0.153036 0.920900
O O13 0.721773 0.250000 0.867726
O O14 0.678237 0.460076 0.881678
O O15 0.053325 0.390414 0.849543
O O16 0.786213 0.945480 0.631293
#
# Coordination Sequence:
#
# PCOD9465451 Si02
#       7
#     8   8   8   8   8   8   8
#     4  10  22  37  53  76 108 155 205 244 284 342
#     4   8  13  27  50  74 100 136 188 242 286 335
#     4  10  23  43  69  96 118 146 194 257 317 376
#     4   8  15  29  48  72 104 145 194 242 286 333
#     4  10  21  33  48  79 120 162 204 241 285 347
#     4  11  22  35  57  82 116 155 193 244 302 366
#     4   9  19  30  48  79 110 151 194 239 291 349
#
# _framework density 22.253924000000001
#
# number of rings (size 3 to 8) (size 9 to 14) (size 15 to 20)
#    0.000    2.571    0.000    1.286    4.000    2.857 
#    0.000    0.000    0.000    0.857    0.000   84.000 
#    0.000    0.000    0.000    0.000    0.000    0.000 
#
# Total GULP energy -311829.352744 kJ/mol
# GULP energy per Si atom -5568.381299 kJ/mol
# Density = 2.220327 g / cm^3
# Si number density = 22.253924 Si / 1000 Ang^3
#
#
#
# Elastic Constant Matrix: (Units=GPa)
#
#
# Indices 1 2 3 4 5 6 
#
# 1 61.0893 -9.1669 21.1400 0.0000 0.0000 0.0000
# 2 -9.1669 56.4416 23.8924 0.0000 0.0000 0.0000
# 3 21.1400 23.8924 121.7662 0.0000 0.0000 0.0000
# 4 0.0000 0.0000 0.0000 -12.8298 0.0000 0.0000
# 5 0.0000 0.0000 0.0000 0.0000 43.7340 0.0000
# 6 0.0000 0.0000 0.0000 0.0000 0.0000 9.2172
#
#
#
# Elastic Compliance Matrix: (Units=1/GPa)
#
#
# Indices 1 2 3 4 5 6 
#
# 1 0.018521 0.004765 -0.004150 0.000000 0.000000 0.000000
# 2 0.004765 0.020548 -0.004859 0.000000 0.000000 0.000000
# 3 -0.004150 -0.004859 0.009886 0.000000 0.000000 0.000000
# 4 0.000000 0.000000 0.000000 -0.077944 0.000000 0.000000
# 5 0.000000 0.000000 0.000000 0.000000 0.022865 0.000000
# 6 0.000000 0.000000 0.000000 0.000000 0.000000 0.108493
#
#
# Mechanical properties :
#
#
# Convention : Reuss Voigt Hill
#
# Bulk Modulus (GPa) = 24.71193 34.55869 29.63531
# Shear Modulus (GPa) = 40.20974 21.58641 30.89807
#
# Velocity S-wave (km/s) = 4.25533 3.11787 3.73021
# Velocity P-wave (km/s) = 5.93906 5.34083 5.64787
#
# Compressibility (1/GPa) = 0.04046628
#
# Stress axis : x y z
#
# Youngs Moduli (GPa) = 53.99358 48.66597 101.14861
#
# Poissons Ratio (x) = -0.23189 0.41980
# Poissons Ratio (y) = -0.25728 0.49149
# Poissons Ratio (z) = 0.22409 0.23647
#
# Static dielectric constant tensor:
#      x y z
#    x 2.634270 0.000000 0.000000 
#    y 0.000000 1.770660 0.000000 
#    z 0.000000 0.000000 3.734430 
# 
# From -- ./inp_files/31601.got.cif
#   From: 2010.05.17/outbox.cif.g08.bks.cpg/sg62_16_cif.got.tgz:31601.got - 2010.06.03 15:25:27.
