data_PCOD9465619
_publ_section_title
;
Structure prediction by ZEFSAII (Michael W. Deem and Ramdas Pophale) SiO2 
 PCOD9465619
Probable space group: P N M A
;
_chemical_formula_sum "Si O2"
_cell_formula_units_Z 64
_cell_length_a 15.836959
_cell_length_b 8.615332
_cell_length_c 24.332721
_cell_angle_alpha 90.000000
_cell_angle_beta 90.000000
_cell_angle_gamma 90.000000
_cell_volume 3319.972504
_symmetry_space_group_name_H-M "P N M A"
_symmetry_group_IT_number 62
_symmetry_cell_setting 'orthorhombic'
loop_
_space_group_symop_operation_xyz
x,y,z
1/2-x,-y,1/2+z
1/2+x,1/2-y,1/2-z
-x,1/2+y,-z
-x,-y,-z
1/2+x,y,1/2-z
1/2-x,1/2+y,1/2+z
x,1/2-y,z
loop_
_atom_site_type_symbol
_atom_site_label
_atom_site_fract_x
_atom_site_fract_y
_atom_site_fract_z
Si Si1 0.150547 0.563390 0.750595
Si Si2 0.095909 0.563835 0.873271
Si Si3 0.347472 0.564032 0.751486
Si Si4 0.585844 0.436862 0.861532
Si Si5 0.084660 0.564112 0.139850
Si Si6 0.745092 0.436191 0.551730
Si Si7 0.101625 0.562370 0.370452
Si Si8 0.250227 0.937764 0.071238
O O1 0.143792 0.750000 0.748040
O O2 0.121009 0.514002 0.811165
O O3 0.248990 0.521055 0.743132
O O4 0.097737 0.492514 0.700915
O O5 0.099698 0.750000 0.875456
O O6 0.163402 0.495471 0.915458
O O7 0.001218 0.506745 0.883624
O O8 0.354640 0.750000 0.750155
O O9 0.401367 0.493117 0.702084
O O10 0.375198 0.502999 0.810724
O O11 0.588247 0.250000 0.861624
O O12 0.494290 0.485863 0.883679
O O13 0.665363 0.492564 0.897292
O O14 0.079421 0.750000 0.139069
O O15 0.166967 0.515001 0.105162
O O16 0.744113 0.250000 0.550489
O O17 0.828211 0.487911 0.585685
O O18 0.747002 0.500274 0.490310
O O19 0.103983 0.750000 0.367738
O O20 0.251573 0.750000 0.070077
#
# Coordination Sequence:
#
# PCOD9465619 Si02
#       8
#     8   8   8   8   8   8   8   8
#     4  10  21  36  58  89 122 155 194 239 293 352
#     4  11  23  41  63  90 122 159 198 244 300 358
#     4  11  21  36  60  90 124 159 195 241 297 355
#     4  10  21  39  62  88 119 157 197 241 294 352
#     4  11  23  40  62  91 121 157 200 245 297 355
#     4  11  24  41  62  88 118 155 202 252 300 353
#     4  10  22  39  61  90 122 156 198 246 297 356
#     4  10  23  42  62  84 116 157 201 246 297 353
#
# _framework density 19.277266999999998
#
# number of rings (size 3 to 8) (size 9 to 14) (size 15 to 20)
#    0.000    1.500    2.500    2.250    0.000    7.000 
#    0.000    0.000    0.000    0.000    0.000    0.000 
#    0.000    0.000    0.000    0.000    0.000    0.000 
#
# Total GULP energy -357781.951118 kJ/mol
# GULP energy per Si atom -5590.342986 kJ/mol
# Density = 1.923339 g / cm^3
# Si number density = 19.277267 Si / 1000 Ang^3
#
#
#
# Elastic Constant Matrix: (Units=GPa)
#
#
# Indices 1 2 3 4 5 6 
#
# 1 106.4330 13.7836 33.1570 0.0000 0.0000 0.0000
# 2 13.7836 11.0068 11.2792 0.0000 0.0000 0.0000
# 3 33.1570 11.2792 117.2471 0.0000 0.0000 0.0000
# 4 0.0000 0.0000 0.0000 34.0291 0.0000 0.0000
# 5 0.0000 0.0000 0.0000 0.0000 2.8463 0.0000
# 6 0.0000 0.0000 0.0000 0.0000 0.0000 13.4196
#
#
#
# Elastic Compliance Matrix: (Units=1/GPa)
#
#
# Indices 1 2 3 4 5 6 
#
# 1 0.011663 -0.012453 -0.002100 0.000000 0.000000 0.000000
# 2 -0.012453 0.114085 -0.007454 0.000000 0.000000 0.000000
# 3 -0.002100 -0.007454 0.009840 0.000000 0.000000 0.000000
# 4 0.000000 0.000000 0.000000 0.029387 0.000000 0.000000
# 5 0.000000 0.000000 0.000000 0.000000 0.351334 0.000000
# 6 0.000000 0.000000 0.000000 0.000000 0.000000 0.074518
#
#
# Mechanical properties :
#
#
# Convention : Reuss Voigt Hill
#
# Bulk Modulus (GPa) = 10.92000 39.01408 24.96704
# Shear Modulus (GPa) = 7.51469 21.82347 14.66908
#
# Velocity S-wave (km/s) = 1.97653 3.36829 2.76153
# Velocity P-wave (km/s) = 3.29938 5.95059 4.81121
#
# Compressibility (1/GPa) = 0.09157509
#
# Stress axis : x y z
#
# Youngs Moduli (GPa) = 85.74470 8.76537 101.62662
#
# Poissons Ratio (x) = 0.10915 0.21343
# Poissons Ratio (y) = 1.06775 0.75748
# Poissons Ratio (z) = 0.18008 0.06533
#
# Static dielectric constant tensor:
#      x y z
#    x 1.687010 0.000000 0.000000 
#    y 0.000000 1.650300 0.000000 
#    z 0.000000 0.000000 1.622910 
# 
# From -- ./inp_files/29843.got.cif
#   From: 2010.05.17/outbox.cif.g08.bks.cpg/sg62_15_cif.got.tgz:29843.got - 2010.06.03 15:25:27.
