data_PCOD9465704
_publ_section_title
;
Structure prediction by ZEFSAII (Michael W. Deem and Ramdas Pophale) SiO2 
 PCOD9465704
Probable space group: P N M A
;
_chemical_formula_sum "Si O2"
_cell_formula_units_Z 48
_cell_length_a 14.790869
_cell_length_b 9.134110
_cell_length_c 19.639102
_cell_angle_alpha 90.000000
_cell_angle_beta 90.000000
_cell_angle_gamma 90.000000
_cell_volume 2653.270655
_symmetry_space_group_name_H-M "P N M A"
_symmetry_group_IT_number 62
_symmetry_cell_setting 'orthorhombic'
loop_
_space_group_symop_operation_xyz
x,y,z
1/2-x,-y,1/2+z
1/2+x,1/2-y,1/2-z
-x,1/2+y,-z
-x,-y,-z
1/2+x,y,1/2-z
1/2-x,1/2+y,1/2+z
x,1/2-y,z
loop_
_atom_site_type_symbol
_atom_site_label
_atom_site_fract_x
_atom_site_fract_y
_atom_site_fract_z
Si Si1 0.057706 0.424629 0.558640
Si Si2 0.933163 0.082720 0.165803
Si Si3 0.634861 0.082690 0.299183
Si Si4 0.409783 0.924693 0.470780
Si Si5 0.503617 0.576739 0.211052
Si Si6 0.751560 0.425687 0.423331
O O1 0.059078 0.250000 0.549554
O O2 0.014966 0.456236 0.632844
O O3 0.158070 0.489640 0.559104
O O4 0.000000 0.500000 0.500000
O O5 0.900873 0.250000 0.168414
O O6 0.042736 0.087528 0.155008
O O7 0.892449 0.992007 0.104003
O O8 0.100748 0.983549 0.262864
O O9 0.652108 0.250000 0.277126
O O10 0.713469 0.030824 0.348785
O O11 0.931495 0.004289 0.239341
O O12 0.423396 0.750000 0.466292
O O13 0.326110 0.953711 0.520973
O O14 0.500000 0.000000 0.500000
O O15 0.498616 0.750000 0.222294
O O16 0.766826 0.250000 0.421635
#
# Coordination Sequence:
#
# PCOD9465704 Si02
#       6
#     8   8   8   8   8   8
#     4  11  25  43  63  85 112 154 203 247 295 348
#     4   9  17  30  51  82 116 149 184 223 283 346
#     4   8  16  32  55  85 115 147 187 231 290 350
#     4  11  19  30  52  83 121 158 190 235 291 346
#     4   9  18  35  58  82 107 140 186 237 289 346
#     4  10  21  37  57  86 121 156 198 243 289 346
#
# _framework density 18.090879999999999
#
# number of rings (size 3 to 8) (size 9 to 14) (size 15 to 20)
#    1.000    1.333    1.667    1.500    0.000    4.667 
#    0.000    1.667    0.000    2.000    0.000    0.000 
#    0.000    0.000    0.000    0.000    0.000    0.000 
#
# Total GULP energy -267360.322033 kJ/mol
# GULP energy per Si atom -5570.006709 kJ/mol
# Density = 1.804970 g / cm^3
# Si number density = 18.090880 Si / 1000 Ang^3
#
#
#
# Elastic Constant Matrix: (Units=GPa)
#
#
# Indices 1 2 3 4 5 6 
#
# 1 88.0739 61.2714 64.9896 0.0000 0.0000 0.0000
# 2 61.2714 104.5723 97.6742 0.0000 0.0000 0.0000
# 3 64.9896 97.6742 150.8796 0.0000 0.0000 0.0000
# 4 0.0000 0.0000 0.0000 32.2836 0.0000 0.0000
# 5 0.0000 0.0000 0.0000 0.0000 21.1772 0.0000
# 6 0.0000 0.0000 0.0000 0.0000 0.0000 26.5968
#
#
#
# Elastic Compliance Matrix: (Units=1/GPa)
#
#
# Indices 1 2 3 4 5 6 
#
# 1 0.019545 -0.009077 -0.002543 0.000000 0.000000 0.000000
# 2 -0.009077 0.028404 -0.014478 0.000000 0.000000 0.000000
# 3 -0.002543 -0.014478 0.017096 0.000000 0.000000 0.000000
# 4 0.000000 0.000000 0.000000 0.030975 0.000000 0.000000
# 5 0.000000 0.000000 0.000000 0.000000 0.047221 0.000000
# 6 0.000000 0.000000 0.000000 0.000000 0.000000 0.037598
#
#
# Mechanical properties :
#
#
# Convention : Reuss Voigt Hill
#
# Bulk Modulus (GPa) = 77.82453 87.93289 82.87871
# Shear Modulus (GPa) = 21.06877 23.98423 22.52650
#
# Velocity S-wave (km/s) = 3.41634 3.64505 3.53255
# Velocity P-wave (km/s) = 7.65989 8.15027 7.90888
#
# Compressibility (1/GPa) = 0.01284942
#
# Stress axis : x y z
#
# Youngs Moduli (GPa) = 51.16398 35.20605 58.49432
#
# Poissons Ratio (x) = 0.31956 0.14873
# Poissons Ratio (y) = 0.46441 0.84689
# Poissons Ratio (z) = 0.13010 0.50972
#
# Static dielectric constant tensor:
#      x y z
#    x 1.610580 0.000000 0.000000 
#    y 0.000000 1.607270 0.000000 
#    z 0.000000 0.000000 1.629760 
# 
# From -- ./inp_files/26890.got.cif
#   From: 2010.05.17/outbox.cif.g08.bks.cpg/sg62_14_cif.got.tgz:26890.got - 2010.06.03 15:25:27.
