data_PCOD9465908
_publ_section_title
;
Structure prediction by ZEFSAII (Michael W. Deem and Ramdas Pophale) SiO2 
 PCOD9465908
Probable space group: P N M A
;
_chemical_formula_sum "Si O2"
_cell_formula_units_Z 48
_cell_length_a 26.631684
_cell_length_b 7.645589
_cell_length_c 9.807492
_cell_angle_alpha 90.000000
_cell_angle_beta 90.000000
_cell_angle_gamma 90.000000
_cell_volume 1996.951603
_symmetry_space_group_name_H-M "P N M A"
_symmetry_group_IT_number 62
_symmetry_cell_setting 'orthorhombic'
loop_
_space_group_symop_operation_xyz
x,y,z
1/2-x,-y,1/2+z
1/2+x,1/2-y,1/2-z
-x,1/2+y,-z
-x,-y,-z
1/2+x,y,1/2-z
1/2-x,1/2+y,1/2+z
x,1/2-y,z
loop_
_atom_site_type_symbol
_atom_site_label
_atom_site_fract_x
_atom_site_fract_y
_atom_site_fract_z
Si Si1 0.463701 0.545131 0.809892
Si Si2 0.239465 0.549774 0.349378
Si Si3 0.366322 0.544355 0.968109
Si Si4 0.081707 0.962625 0.032183
Si Si5 0.807698 0.047776 0.914890
Si Si6 0.072240 0.962151 0.719229
O O1 0.464198 0.750000 0.844456
O O2 0.456439 0.527189 0.646818
O O3 0.518955 0.473729 0.842449
O O4 0.414202 0.470593 0.883074
O O5 0.256532 0.750000 0.336057
O O6 0.185807 0.542113 0.426276
O O7 0.280826 0.457910 0.440630
O O8 0.227994 0.470178 0.201272
O O9 0.360393 0.750000 0.937135
O O10 0.382265 0.523212 0.125030
O O11 0.080538 0.750000 0.033593
O O12 0.136761 0.027094 0.078589
O O13 0.074624 0.018528 0.876364
O O14 0.814176 0.250000 0.873934
O O15 0.072170 0.750000 0.717900
#
# Coordination Sequence:
#
# PCOD9465908 Si02
#       6
#     8   8   8   8   8   8
#     4  10  21  38  60  88 122 159 203 248 296 354
#     4  11  24  42  65  89 117 156 195 243 300 356
#     4  11  23  39  60  88 122 159 199 249 297 350
#     4  10  21  39  62  87 120 157 197 247 299 355
#     4  10  23  42  62  90 121 153 198 246 296 358
#     4  10  22  38  59  90 123 161 204 245 295 354
#
# _framework density 24.036638
#
# number of rings (size 3 to 8) (size 9 to 14) (size 15 to 20)
#    0.000    1.667    1.667    2.000    2.333    4.000 
#    0.000    0.000    0.000    0.000    0.000    0.000 
#    0.000    0.000    0.000    0.000    0.000    0.000 
#
# Total GULP energy -268507.105953 kJ/mol
# GULP energy per Si atom -5593.898041 kJ/mol
# Density = 2.398193 g / cm^3
# Si number density = 24.036638 Si / 1000 Ang^3
#
#
#
# Elastic Constant Matrix: (Units=GPa)
#
#
# Indices 1 2 3 4 5 6 
#
# 1 24.1080 -0.5347 -7.0788 0.0000 0.0000 0.0000
# 2 -0.5347 54.7641 -5.5706 0.0000 0.0000 0.0000
# 3 -7.0788 -5.5706 76.0868 0.0000 0.0000 0.0000
# 4 0.0000 0.0000 0.0000 12.0717 0.0000 0.0000
# 5 0.0000 0.0000 0.0000 0.0000 42.7379 0.0000
# 6 0.0000 0.0000 0.0000 0.0000 0.0000 4.6545
#
#
#
# Elastic Compliance Matrix: (Units=1/GPa)
#
#
# Indices 1 2 3 4 5 6 
#
# 1 0.042682 0.000827 0.004031 0.000000 0.000000 0.000000
# 2 0.000827 0.018413 0.001425 0.000000 0.000000 0.000000
# 3 0.004031 0.001425 0.013622 0.000000 0.000000 0.000000
# 4 0.000000 0.000000 0.000000 0.082838 0.000000 0.000000
# 5 0.000000 0.000000 0.000000 0.000000 0.023398 0.000000
# 6 0.000000 0.000000 0.000000 0.000000 0.000000 0.214847
#
#
# Mechanical properties :
#
#
# Convention : Reuss Voigt Hill
#
# Bulk Modulus (GPa) = 11.45684 14.28787 12.87235
# Shear Modulus (GPa) = 12.12622 23.10234 17.61428
#
# Velocity S-wave (km/s) = 2.24852 3.10357 2.70998
# Velocity P-wave (km/s) = 3.39380 4.33590 3.89345
#
# Compressibility (1/GPa) = 0.08728413
#
# Stress axis : x y z
#
# Youngs Moduli (GPa) = 23.42905 54.30896 73.40917
#
# Poissons Ratio (x) = -0.04490 -0.29595
# Poissons Ratio (y) = -0.01937 -0.10461
# Poissons Ratio (z) = -0.09445 -0.07739
#
# Static dielectric constant tensor:
#      x y z
#    x 1.889140 0.000000 0.000000 
#    y 0.000000 1.861000 0.000000 
#    z 0.000000 0.000000 1.940160 
# 
# From -- ./inp_files/10283.got.cif
#   From: 2010.05.17/outbox.cif.g08.bks.cpg/sg62_6_cif.got.tgz:10283.got - 2010.06.03 15:25:27.
