data_PCOD9465316
_publ_section_title
;
Structure prediction by ZEFSAII (Michael W. Deem and Ramdas Pophale) SiO2 
 PCOD9465316
Probable space group: P N M A
;
_chemical_formula_sum "Si O2"
_cell_formula_units_Z 48
_cell_length_a 9.648820
_cell_length_b 8.315855
_cell_length_c 28.840264
_cell_angle_alpha 90.000000
_cell_angle_beta 90.000000
_cell_angle_gamma 90.000000
_cell_volume 2314.090526
_symmetry_space_group_name_H-M "P N M A"
_symmetry_group_IT_number 62
_symmetry_cell_setting 'orthorhombic'
loop_
_space_group_symop_operation_xyz
x,y,z
1/2-x,-y,1/2+z
1/2+x,1/2-y,1/2-z
-x,1/2+y,-z
-x,-y,-z
1/2+x,y,1/2-z
1/2-x,1/2+y,1/2+z
x,1/2-y,z
loop_
_atom_site_type_symbol
_atom_site_label
_atom_site_fract_x
_atom_site_fract_y
_atom_site_fract_z
Si Si1 0.590257 0.938845 0.543168
Si Si2 0.992138 0.943079 0.303634
Si Si3 0.813616 0.060018 0.384166
Si Si4 0.196653 0.446822 0.780848
Si Si5 0.017379 0.939113 0.139884
Si Si6 0.345719 0.443633 0.009815
O O1 0.565494 0.750000 0.550251
O O2 0.500000 0.000000 0.500000
O O3 0.547954 0.030190 0.589563
O O4 0.745802 0.975272 0.527555
O O5 0.996545 0.750000 0.300472
O O6 0.875757 0.999390 0.266904
O O7 0.146085 0.002072 0.290118
O O8 0.939189 0.987497 0.354622
O O9 0.832684 0.250000 0.385415
O O10 0.806854 0.004447 0.437679
O O11 0.667846 0.019343 0.360011
O O12 0.201027 0.250000 0.780584
O O13 0.091707 0.496512 0.821707
O O14 0.039668 0.750000 0.147695
O O15 0.332032 0.250000 0.006774
O O16 0.500000 0.500000 0.000000
#
# Coordination Sequence:
#
# PCOD9465316 Si02
#       6
#     8   8   8   8   8   8
#     4  12  24  41  64  93 127 167 212 257 310 371
#     4  10  20  39  65  91 122 159 202 254 306 368
#     4  11  24  41  60  89 125 163 206 256 313 373
#     4   9  20  38  64  96 122 155 204 253 305 370
#     4  11  22  39  65  94 124 163 210 258 311 369
#     4  11  25  43  63  89 126 167 214 263 313 372
#
# _framework density 20.742491999999999
#
# number of rings (size 3 to 8) (size 9 to 14) (size 15 to 20)
#    0.000    1.333    1.667    4.000    2.333    4.667 
#    0.000    5.000    0.000    0.000    0.000    0.000 
#    0.000    0.000    0.000    0.000    0.000    0.000 
#
# Total GULP energy -268387.250972 kJ/mol
# GULP energy per Si atom -5591.401062 kJ/mol
# Density = 2.069528 g / cm^3
# Si number density = 20.742492 Si / 1000 Ang^3
#
#
#
# Elastic Constant Matrix: (Units=GPa)
#
#
# Indices 1 2 3 4 5 6 
#
# 1 109.2472 -3.8495 5.8259 0.0000 0.0000 0.0000
# 2 -3.8495 7.4348 -3.3076 0.0000 0.0000 0.0000
# 3 5.8259 -3.3076 66.2671 0.0000 0.0000 0.0000
# 4 0.0000 0.0000 0.0000 22.9641 0.0000 0.0000
# 5 0.0000 0.0000 0.0000 0.0000 39.9747 0.0000
# 6 0.0000 0.0000 0.0000 0.0000 0.0000 22.7486
#
#
#
# Elastic Compliance Matrix: (Units=1/GPa)
#
#
# Indices 1 2 3 4 5 6 
#
# 1 0.009346 0.004575 -0.000593 0.000000 0.000000 0.000000
# 2 0.004575 0.139797 0.006575 0.000000 0.000000 0.000000
# 3 -0.000593 0.006575 0.015471 0.000000 0.000000 0.000000
# 4 0.000000 0.000000 0.000000 0.043546 0.000000 0.000000
# 5 0.000000 0.000000 0.000000 0.000000 0.025016 0.000000
# 6 0.000000 0.000000 0.000000 0.000000 0.000000 0.043959
#
#
# Mechanical properties :
#
#
# Convention : Reuss Voigt Hill
#
# Bulk Modulus (GPa) = 5.38420 20.03186 12.70803
# Shear Modulus (GPa) = 15.72677 29.42284 22.57481
#
# Velocity S-wave (km/s) = 2.75651 3.77036 3.30257
# Velocity P-wave (km/s) = 3.56827 5.35094 4.54780
#
# Compressibility (1/GPa) = 0.18572869
#
# Stress axis : x y z
#
# Youngs Moduli (GPa) = 106.99293 7.15325 64.63789
#
# Poissons Ratio (x) = -0.03273 0.03835
# Poissons Ratio (y) = -0.48953 -0.42502
# Poissons Ratio (z) = 0.06348 -0.04704
#
# Static dielectric constant tensor:
#      x y z
#    x 1.701040 0.000000 0.000000 
#    y 0.000000 1.738870 0.000000 
#    z 0.000000 0.000000 1.731340 
# 
# From -- ./inp_files/31980.got.cif
#   From: 2010.05.17/outbox.cif.g08.bks.cpg/sg62_16_cif.got.tgz:31980.got - 2010.06.03 15:25:27.
