data_PCOD9465938
_publ_section_title
;
Structure prediction by ZEFSAII (Michael W. Deem and Ramdas Pophale) SiO2 
 PCOD9465938
Probable space group: P N M A
;
_chemical_formula_sum "Si O2"
_cell_formula_units_Z 48
_cell_length_a 7.445665
_cell_length_b 8.684292
_cell_length_c 27.941600
_cell_angle_alpha 90.000000
_cell_angle_beta 90.000000
_cell_angle_gamma 90.000000
_cell_volume 1806.713049
_symmetry_space_group_name_H-M "P N M A"
_symmetry_group_IT_number 62
_symmetry_cell_setting 'orthorhombic'
loop_
_space_group_symop_operation_xyz
x,y,z
1/2-x,-y,1/2+z
1/2+x,1/2-y,1/2-z
-x,1/2+y,-z
-x,-y,-z
1/2+x,y,1/2-z
1/2-x,1/2+y,1/2+z
x,1/2-y,z
loop_
_atom_site_type_symbol
_atom_site_label
_atom_site_fract_x
_atom_site_fract_y
_atom_site_fract_z
Si Si1 0.012644 0.431190 0.930608
Si Si2 0.430564 0.418568 0.256649
Si Si3 0.137436 0.250000 0.668783
Si Si4 0.722218 0.919928 0.644568
Si Si5 0.906305 0.250000 0.747428
Si Si6 0.700064 0.065927 0.995711
Si Si7 0.634874 0.579394 0.856118
O O1 0.020348 0.250000 0.940328
O O2 0.078118 0.465387 0.877242
O O3 0.819462 0.489024 0.949874
O O4 0.169550 0.513730 0.961337
O O5 0.518326 0.250000 0.266136
O O6 0.279045 0.425745 0.297973
O O7 0.527852 0.580786 0.263809
O O8 0.368669 0.412417 0.201958
O O9 0.929049 0.250000 0.688648
O O10 0.192550 0.400330 0.639456
O O11 0.220587 0.250000 0.722300
O O12 0.656968 0.750000 0.630649
O O13 0.926463 0.930853 0.627445
O O14 0.684316 0.250000 0.994581
O O15 0.500000 0.000000 0.000000
O O16 0.703981 0.750000 0.871837
#
# Coordination Sequence:
#
# PCOD9465938 Si02
#       7
#     8   8   4   8   4   8   8
#     4  10  22  39  67 104 134 175 218 266 334 401
#     4   9  20  35  56  81 113 156 208 265 315 367
#     4  10  22  34  52  80 104 146 202 260 318 380
#     4  10  21  38  61  91 123 166 215 266 322 386
#     4  10  22  34  52  80 104 144 206 254 320 384
#     4  10  21  41  70 103 140 175 214 263 325 405
#     4   9  20  35  56  81 113 156 209 263 316 369
#
# _framework density 26.567585000000001
#
# number of rings (size 3 to 8) (size 9 to 14) (size 15 to 20)
#    0.000    2.333    0.000    1.000   11.667    2.667 
#    0.000    1.667    0.000    2.000    0.000    0.000 
#    0.000    0.000    0.000    0.000    0.000    0.000 
#
# Total GULP energy -267995.659529 kJ/mol
# GULP energy per Si atom -5583.242907 kJ/mol
# Density = 2.650712 g / cm^3
# Si number density = 26.567585 Si / 1000 Ang^3
#
#
#
# Elastic Constant Matrix: (Units=GPa)
#
#
# Indices 1 2 3 4 5 6 
#
# 1 124.2461 59.0302 17.9954 0.0000 0.0000 0.0000
# 2 59.0302 220.4853 5.9757 0.0000 0.0000 0.0000
# 3 17.9954 5.9757 77.8900 0.0000 0.0000 0.0000
# 4 0.0000 0.0000 0.0000 26.5496 0.0000 0.0000
# 5 0.0000 0.0000 0.0000 0.0000 30.3681 0.0000
# 6 0.0000 0.0000 0.0000 0.0000 0.0000 42.1159
#
#
#
# Elastic Compliance Matrix: (Units=1/GPa)
#
#
# Indices 1 2 3 4 5 6 
#
# 1 0.009525 -0.002496 -0.002009 0.000000 0.000000 0.000000
# 2 -0.002496 0.005199 0.000178 0.000000 0.000000 0.000000
# 3 -0.002009 0.000178 0.013289 0.000000 0.000000 0.000000
# 4 0.000000 0.000000 0.000000 0.037665 0.000000 0.000000
# 5 0.000000 0.000000 0.000000 0.000000 0.032929 0.000000
# 6 0.000000 0.000000 0.000000 0.000000 0.000000 0.023744
#
#
# Mechanical properties :
#
#
# Convention : Reuss Voigt Hill
#
# Bulk Modulus (GPa) = 51.65583 65.40266 58.52925
# Shear Modulus (GPa) = 36.37440 42.44805 39.41123
#
# Velocity S-wave (km/s) = 3.70419 4.00151 3.85571
# Velocity P-wave (km/s) = 6.14655 6.78383 6.47304
#
# Compressibility (1/GPa) = 0.01935890
#
# Stress axis : x y z
#
# Youngs Moduli (GPa) = 104.98369 192.35160 75.24916
#
# Poissons Ratio (x) = 0.48006 0.15119
# Poissons Ratio (y) = 0.26201 -0.01338
# Poissons Ratio (z) = 0.21093 -0.03419
#
# Static dielectric constant tensor:
#      x y z
#    x 2.328890 0.000000 0.000000 
#    y 0.000000 2.083010 0.000000 
#    z 0.000000 0.000000 2.145930 
# 
# From -- ./inp_files/32068.got.cif
#   From: 2010.05.17/outbox.cif.g08.bks.cpg/sg62_17_cif.got.tgz:32068.got - 2010.06.03 15:25:27.
