data_PCOD9465514
_publ_section_title
;
Structure prediction by ZEFSAII (Michael W. Deem and Ramdas Pophale) SiO2 
 PCOD9465514
Probable space group: P N M A
;
_chemical_formula_sum "Si O2"
_cell_formula_units_Z 48
_cell_length_a 9.146671
_cell_length_b 22.486727
_cell_length_c 13.092692
_cell_angle_alpha 90.000000
_cell_angle_beta 90.000000
_cell_angle_gamma 90.000000
_cell_volume 2692.887788
_symmetry_space_group_name_H-M "P N M A"
_symmetry_group_IT_number 62
_symmetry_cell_setting 'orthorhombic'
loop_
_space_group_symop_operation_xyz
x,y,z
1/2-x,-y,1/2+z
1/2+x,1/2-y,1/2-z
-x,1/2+y,-z
-x,-y,-z
1/2+x,y,1/2-z
1/2-x,1/2+y,1/2+z
x,1/2-y,z
loop_
_atom_site_type_symbol
_atom_site_label
_atom_site_fract_x
_atom_site_fract_y
_atom_site_fract_z
Si Si1 0.776867 0.037612 0.054818
Si Si2 0.864356 0.991646 0.757389
Si Si3 0.473042 0.180553 0.795108
Si Si4 0.841479 0.818422 0.102676
Si Si5 0.618657 0.062351 0.857892
Si Si6 0.582464 0.078166 0.466022
O O1 0.724352 0.042407 0.169773
O O2 0.907572 0.081746 0.024975
O O3 0.646270 0.044038 0.974684
O O4 0.851661 0.972912 0.039803
O O5 0.891545 0.947608 0.852373
O O6 0.769858 0.046397 0.801491
O O7 0.002404 0.020706 0.700815
O O8 0.511693 0.250000 0.817165
O O9 0.519461 0.170909 0.677028
O O10 0.304611 0.172768 0.828596
O O11 0.565661 0.129952 0.852290
O O12 0.842717 0.750000 0.070401
O O13 0.845603 0.861952 0.006389
#
# Coordination Sequence:
#
# PCOD9465514 Si02
#       6
#     8   8   8   8   8   8
#     4  10  21  35  55  87 112 149 181 229 287 331
#     4  11  21  37  56  85 114 148 188 229 282 336
#     4  10  21  36  56  85 115 149 187 226 280 333
#     4  10  22  38  58  82 113 152 188 231 279 333
#     4  11  21  33  57  83 119 146 185 230 280 337
#     4  10  21  37  57  83 116 143 186 233 283 336
#
# _framework density 17.824732000000001
#
# number of rings (size 3 to 8) (size 9 to 14) (size 15 to 20)
#    0.000    1.667    1.667    3.500    7.000    1.333 
#    0.000    0.000    0.000    2.000    0.000    0.000 
#    0.000    0.000    0.000    0.000    0.000    0.000 
#
# Total GULP energy -267742.341272 kJ/mol
# GULP energy per Si atom -5577.965443 kJ/mol
# Density = 1.778416 g / cm^3
# Si number density = 17.824732 Si / 1000 Ang^3
#
#
#
# Elastic Constant Matrix: (Units=GPa)
#
#
# Indices 1 2 3 4 5 6 
#
# 1 77.0977 44.2167 47.1349 0.0000 0.0000 0.0000
# 2 44.2167 87.9736 45.7678 0.0000 0.0000 0.0000
# 3 47.1349 45.7678 100.4518 0.0000 0.0000 0.0000
# 4 0.0000 0.0000 0.0000 21.7143 0.0000 0.0000
# 5 0.0000 0.0000 0.0000 0.0000 26.1587 0.0000
# 6 0.0000 0.0000 0.0000 0.0000 0.0000 22.8396
#
#
#
# Elastic Compliance Matrix: (Units=1/GPa)
#
#
# Indices 1 2 3 4 5 6 
#
# 1 0.021152 -0.007167 -0.006660 0.000000 0.000000 0.000000
# 2 -0.007167 0.017327 -0.004532 0.000000 0.000000 0.000000
# 3 -0.006660 -0.004532 0.015145 0.000000 0.000000 0.000000
# 4 0.000000 0.000000 0.000000 0.046053 0.000000 0.000000
# 5 0.000000 0.000000 0.000000 0.000000 0.038228 0.000000
# 6 0.000000 0.000000 0.000000 0.000000 0.000000 0.043784
#
#
# Mechanical properties :
#
#
# Convention : Reuss Voigt Hill
#
# Bulk Modulus (GPa) = 59.14596 59.97353 59.55974
# Shear Modulus (GPa) = 22.31739 22.70277 22.51008
#
# Velocity S-wave (km/s) = 3.54227 3.57272 3.55752
# Velocity P-wave (km/s) = 7.06995 7.12309 7.09657
#
# Compressibility (1/GPa) = 0.01690733
#
# Stress axis : x y z
#
# Youngs Moduli (GPa) = 47.27583 57.71472 66.02923
#
# Poissons Ratio (x) = 0.41362 0.43976
# Poissons Ratio (y) = 0.33881 0.29922
# Poissons Ratio (z) = 0.31486 0.26154
#
# Static dielectric constant tensor:
#      x y z
#    x 1.674400 0.000000 0.000000 
#    y 0.000000 1.603950 0.000000 
#    z 0.000000 0.000000 1.607490 
# 
# From -- ./inp_files/11294.got.cif
#   From: 2010.05.17/outbox.cif.g08.bks.cpg/sg62_6_cif.got.tgz:11294.got - 2010.06.03 15:25:27.
