data_PCOD9465772
_publ_section_title
;
Structure prediction by ZEFSAII (Michael W. Deem and Ramdas Pophale) SiO2 
 PCOD9465772
Probable space group: P N M A
;
_chemical_formula_sum "Si O2"
_cell_formula_units_Z 48
_cell_length_a 9.150607
_cell_length_b 8.613048
_cell_length_c 31.659417
_cell_angle_alpha 90.000000
_cell_angle_beta 90.000000
_cell_angle_gamma 90.000000
_cell_volume 2495.224835
_symmetry_space_group_name_H-M "P N M A"
_symmetry_group_IT_number 62
_symmetry_cell_setting 'orthorhombic'
loop_
_space_group_symop_operation_xyz
x,y,z
1/2-x,-y,1/2+z
1/2+x,1/2-y,1/2-z
-x,1/2+y,-z
-x,-y,-z
1/2+x,y,1/2-z
1/2-x,1/2+y,1/2+z
x,1/2-y,z
loop_
_atom_site_type_symbol
_atom_site_label
_atom_site_fract_x
_atom_site_fract_y
_atom_site_fract_z
Si Si1 0.079744 0.561786 0.705868
Si Si2 0.914574 0.435339 0.459466
Si Si3 0.422024 0.436511 0.877294
Si Si4 0.080462 0.062811 0.207760
Si Si5 0.417276 0.937122 0.374415
Si Si6 0.086051 0.936831 0.040470
O O1 0.072988 0.750000 0.702945
O O2 0.249815 0.515427 0.707263
O O3 0.000719 0.490484 0.665407
O O4 0.998603 0.513991 0.748955
O O5 0.910861 0.250000 0.461295
O O6 0.750268 0.500061 0.459281
O O7 0.000000 0.500000 0.500000
O O8 0.996921 0.490437 0.417338
O O9 0.428298 0.250000 0.880787
O O10 0.252102 0.485219 0.876327
O O11 0.076425 0.250000 0.206570
O O12 0.996173 0.000556 0.167064
O O13 0.420474 0.750000 0.372820
O O14 0.502704 0.985742 0.416699
O O15 0.088471 0.750000 0.039045
O O16 0.000000 0.000000 0.000000
#
# Coordination Sequence:
#
# PCOD9465772 Si02
#       6
#     8   8   8   8   8   8
#     4  10  21  38  59  87 118 154 198 246 298 355
#     4  12  25  42  64  91 122 158 200 249 302 361
#     4  11  23  40  61  88 120 157 199 245 296 357
#     4  10  21  37  60  86 116 153 198 246 296 355
#     4  10  23  40  59  85 119 155 196 243 296 355
#     4  11  23  41  64  91 123 161 203 251 302 359
#
# _framework density 19.236742
#
# number of rings (size 3 to 8) (size 9 to 14) (size 15 to 20)
#    0.000    1.333    0.000    5.500    0.000    9.333 
#    0.000    0.000    0.000    0.000    0.000    0.000 
#    0.000    0.000    0.000    0.000    0.000    0.000 
#
# Total GULP energy -268544.678265 kJ/mol
# GULP energy per Si atom -5594.680797 kJ/mol
# Density = 1.919296 g / cm^3
# Si number density = 19.236742 Si / 1000 Ang^3
#
#
#
# Elastic Constant Matrix: (Units=GPa)
#
#
# Indices 1 2 3 4 5 6 
#
# 1 235.6137 59.7006 140.0100 0.0000 0.0000 0.0000
# 2 59.7006 60.8870 57.9370 0.0000 0.0000 0.0000
# 3 140.0100 57.9370 230.7368 0.0000 0.0000 0.0000
# 4 0.0000 0.0000 0.0000 39.9741 0.0000 0.0000
# 5 0.0000 0.0000 0.0000 0.0000 46.9289 0.0000
# 6 0.0000 0.0000 0.0000 0.0000 0.0000 33.8376
#
#
#
# Elastic Compliance Matrix: (Units=1/GPa)
#
#
# Indices 1 2 3 4 5 6 
#
# 1 0.007265 -0.003848 -0.003442 0.000000 0.000000 0.000000
# 2 -0.003848 0.023618 -0.003596 0.000000 0.000000 0.000000
# 3 -0.003442 -0.003596 0.007325 0.000000 0.000000 0.000000
# 4 0.000000 0.000000 0.000000 0.025016 0.000000 0.000000
# 5 0.000000 0.000000 0.000000 0.000000 0.021309 0.000000
# 6 0.000000 0.000000 0.000000 0.000000 0.000000 0.029553
#
#
# Mechanical properties :
#
#
# Convention : Reuss Voigt Hill
#
# Bulk Modulus (GPa) = 60.83713 115.83699 88.33706
# Shear Modulus (GPa) = 35.37682 42.12078 38.74880
#
# Velocity S-wave (km/s) = 4.29304 4.68439 4.49298
# Velocity P-wave (km/s) = 7.50118 9.46601 8.54029
#
# Compressibility (1/GPa) = 0.01643733
#
# Stress axis : x y z
#
# Youngs Moduli (GPa) = 137.65561 42.34045 136.51318
#
# Poissons Ratio (x) = 0.16292 0.46986
# Poissons Ratio (y) = 0.52967 0.49084
# Poissons Ratio (z) = 0.47380 0.15224
#
# Static dielectric constant tensor:
#      x y z
#    x 1.642000 0.000000 0.000000 
#    y 0.000000 1.656210 0.000000 
#    z 0.000000 0.000000 1.622640 
# 
# From -- ./inp_files/31903.got.cif
#   From: 2010.05.17/outbox.cif.g08.bks.cpg/sg62_16_cif.got.tgz:31903.got - 2010.06.03 15:25:27.
