data_PCOD9465176
_publ_section_title
;
Structure prediction by ZEFSAII (Michael W. Deem and Ramdas Pophale) SiO2 
 PCOD9465176
Probable space group: P N M A
;
_chemical_formula_sum "Si O2"
_cell_formula_units_Z 64
_cell_length_a 14.535330
_cell_length_b 8.363955
_cell_length_c 25.347400
_cell_angle_alpha 90.000000
_cell_angle_beta 90.000000
_cell_angle_gamma 90.000000
_cell_volume 3081.555557
_symmetry_space_group_name_H-M "P N M A"
_symmetry_group_IT_number 62
_symmetry_cell_setting 'orthorhombic'
loop_
_space_group_symop_operation_xyz
x,y,z
1/2-x,-y,1/2+z
1/2+x,1/2-y,1/2-z
-x,1/2+y,-z
-x,-y,-z
1/2+x,y,1/2-z
1/2-x,1/2+y,1/2+z
x,1/2-y,z
loop_
_atom_site_type_symbol
_atom_site_label
_atom_site_fract_x
_atom_site_fract_y
_atom_site_fract_z
Si Si1 0.188124 0.557860 0.125022
Si Si2 0.096808 0.440665 0.022300
Si Si3 0.254789 0.941570 0.438299
Si Si4 0.892344 0.943181 0.363017
Si Si5 0.333887 0.061027 0.746244
Si Si6 0.965847 0.440261 0.255784
Si Si7 0.180998 0.939464 0.826231
Si Si8 0.545234 0.556571 0.054102
O O1 0.180531 0.750000 0.124105
O O2 0.118720 0.490148 0.082065
O O3 0.293981 0.513842 0.111783
O O4 0.172581 0.505429 0.185435
O O5 0.096664 0.250000 0.019455
O O6 0.179442 0.503434 0.984833
O O7 0.000000 0.500000 0.000000
O O8 0.249611 0.750000 0.443794
O O9 0.149907 0.002741 0.440633
O O10 0.298659 0.979856 0.381802
O O11 0.894155 0.750000 0.357578
O O12 0.978216 0.995232 0.398542
O O13 0.901939 0.018730 0.305509
O O14 0.313115 0.250000 0.747706
O O15 0.438156 0.029115 0.763523
O O16 0.263543 0.976159 0.785540
O O17 0.981257 0.250000 0.253329
O O18 0.912395 0.492930 0.203032
O O19 0.175163 0.750000 0.834333
O O20 0.546443 0.750000 0.054966
O O21 0.500000 0.500000 0.000000
#
# Coordination Sequence:
#
# PCOD9465176 Si02
#       8
#     8   8   8   8   8   8   8   8
#     4  10  22  40  63  92 123 160 209 258 310 373
#     4  11  25  43  64  89 122 165 215 267 315 370
#     4  10  23  42  62  89 124 164 208 252 308 378
#     4  10  20  38  63  92 124 161 204 248 305 377
#     4  11  23  40  64  91 125 169 211 255 309 377
#     4  11  24  39  59  91 126 160 206 258 313 372
#     4  11  24  41  63  94 128 162 204 258 315 368
#     4  10  21  37  61  91 121 154 196 244 299 366
#
# _framework density 20.768732
#
# number of rings (size 3 to 8) (size 9 to 14) (size 15 to 20)
#    0.000    1.500    1.250    3.000    1.750    6.000 
#    0.000    0.000    0.000    0.000    0.000    0.000 
#    0.000    0.000    0.000    0.000    0.000    0.000 
#
# Total GULP energy -357838.904294 kJ/mol
# GULP energy per Si atom -5591.232880 kJ/mol
# Density = 2.072146 g / cm^3
# Si number density = 20.768732 Si / 1000 Ang^3
#
#
#
# Elastic Constant Matrix: (Units=GPa)
#
#
# Indices 1 2 3 4 5 6 
#
# 1 36.1993 -1.3900 -19.5458 0.0000 0.0000 0.0000
# 2 -1.3900 4.6318 -5.6252 0.0000 0.0000 0.0000
# 3 -19.5458 -5.6252 66.7454 0.0000 0.0000 0.0000
# 4 0.0000 0.0000 0.0000 34.6467 0.0000 0.0000
# 5 0.0000 0.0000 0.0000 0.0000 39.8583 0.0000
# 6 0.0000 0.0000 0.0000 0.0000 0.0000 19.0286
#
#
#
# Elastic Compliance Matrix: (Units=1/GPa)
#
#
# Indices 1 2 3 4 5 6 
#
# 1 0.035390 0.025853 0.012543 0.000000 0.000000 0.000000
# 2 0.025853 0.259403 0.029433 0.000000 0.000000 0.000000
# 3 0.012543 0.029433 0.021136 0.000000 0.000000 0.000000
# 4 0.000000 0.000000 0.000000 0.028863 0.000000 0.000000
# 5 0.000000 0.000000 0.000000 0.000000 0.025089 0.000000
# 6 0.000000 0.000000 0.000000 0.000000 0.000000 0.052552
#
#
# Mechanical properties :
#
#
# Convention : Reuss Voigt Hill
#
# Bulk Modulus (GPa) = 2.21442 6.05049 4.13245
# Shear Modulus (GPa) = 11.43368 27.64923 19.54146
#
# Velocity S-wave (km/s) = 2.34887 3.65264 3.07075
# Velocity P-wave (km/s) = 2.90255 4.55068 3.81664
#
# Compressibility (1/GPa) = 0.45158647
#
# Stress axis : x y z
#
# Youngs Moduli (GPa) = 28.25664 3.85500 47.31294
#
# Poissons Ratio (x) = -0.09966 -0.59342
# Poissons Ratio (y) = -0.73052 -1.39257
# Poissons Ratio (z) = -0.35441 -0.11346
#
# Static dielectric constant tensor:
#      x y z
#    x 1.756000 0.000000 0.000000 
#    y 0.000000 1.725380 0.000000 
#    z 0.000000 0.000000 1.721540 
# 
# From -- ./inp_files/29894.got.cif
#   From: 2010.05.17/outbox.cif.g08.bks.cpg/sg62_15_cif.got.tgz:29894.got - 2010.06.03 15:25:27.
