data_PCOD9465331
_publ_section_title
;
Structure prediction by ZEFSAII (Michael W. Deem and Ramdas Pophale) SiO2 
 PCOD9465331
Probable space group: P N M A
;
_chemical_formula_sum "Si O2"
_cell_formula_units_Z 56
_cell_length_a 15.759463
_cell_length_b 12.357917
_cell_length_c 12.501406
_cell_angle_alpha 90.000000
_cell_angle_beta 90.000000
_cell_angle_gamma 90.000000
_cell_volume 2434.700521
_symmetry_space_group_name_H-M "P N M A"
_symmetry_group_IT_number 62
_symmetry_cell_setting 'orthorhombic'
loop_
_space_group_symop_operation_xyz
x,y,z
1/2-x,-y,1/2+z
1/2+x,1/2-y,1/2-z
-x,1/2+y,-z
-x,-y,-z
1/2+x,y,1/2-z
1/2-x,1/2+y,1/2+z
x,1/2-y,z
loop_
_atom_site_type_symbol
_atom_site_label
_atom_site_fract_x
_atom_site_fract_y
_atom_site_fract_z
Si Si1 0.935942 0.367957 0.346910
Si Si2 0.745704 0.119465 0.303664
Si Si3 0.423994 0.622524 0.022515
Si Si4 0.643515 0.051161 0.501589
Si Si5 0.692791 0.980529 0.110931
Si Si6 0.036296 0.625527 0.268600
Si Si7 0.488497 0.427275 0.378506
O O1 0.914126 0.250000 0.391072
O O2 0.843731 0.412145 0.318932
O O3 0.980648 0.363048 0.231437
O O4 0.002892 0.405351 0.434893
O O5 0.734355 0.250000 0.316417
O O6 0.692071 0.051359 0.389116
O O7 0.715505 0.078944 0.189306
O O8 0.401709 0.750000 0.006845
O O9 0.349436 0.540802 0.990507
O O10 0.461604 0.613736 0.142134
O O11 0.558622 0.113672 0.462262
O O12 0.721020 0.083017 0.579827
O O13 0.599520 0.948020 0.559127
O O14 0.622553 0.907375 0.169348
O O15 0.039883 0.750000 0.234916
O O16 0.017403 0.543795 0.171831
#
# Coordination Sequence:
#
# PCOD9465331 Si02
#       7
#     8   8   8   8   8   8   8
#     4  10  20  39  68  99 128 161 212 269 316 370
#     4  11  23  41  66  99 129 162 214 270 317 377
#     4  10  21  37  64  97 125 165 213 263 322 374
#     4  11  25  40  66  94 128 169 211 259 323 381
#     4  12  22  39  68  93 130 164 212 270 319 371
#     4  11  24  42  63  93 129 170 216 259 313 387
#     4  11  23  44  63  92 131 174 212 253 323 390
#
# _framework density 23.000775999999998
#
# number of rings (size 3 to 8) (size 9 to 14) (size 15 to 20)
#    0.000    1.143    4.286    1.714    2.000    4.000 
#    0.000    3.571    0.000    0.000    0.000    0.000 
#    0.000    0.000    0.000    0.000    0.000    0.000 
#
# Total GULP energy -312132.845908 kJ/mol
# GULP energy per Si atom -5573.800820 kJ/mol
# Density = 2.294843 g / cm^3
# Si number density = 23.000776 Si / 1000 Ang^3
#
#
#
# Elastic Constant Matrix: (Units=GPa)
#
#
# Indices 1 2 3 4 5 6 
#
# 1 112.0217 22.3099 33.5331 0.0000 0.0000 0.0000
# 2 22.3099 97.8910 17.7455 0.0000 0.0000 0.0000
# 3 33.5331 17.7455 105.2293 0.0000 0.0000 0.0000
# 4 0.0000 0.0000 0.0000 5.5348 0.0000 0.0000
# 5 0.0000 0.0000 0.0000 0.0000 46.9759 0.0000
# 6 0.0000 0.0000 0.0000 0.0000 0.0000 10.5015
#
#
#
# Elastic Compliance Matrix: (Units=1/GPa)
#
#
# Indices 1 2 3 4 5 6 
#
# 1 0.010161 -0.001783 -0.002937 0.000000 0.000000 0.000000
# 2 -0.001783 0.010851 -0.001262 0.000000 0.000000 0.000000
# 3 -0.002937 -0.001262 0.010652 0.000000 0.000000 0.000000
# 4 0.000000 0.000000 0.000000 0.180675 0.000000 0.000000
# 5 0.000000 0.000000 0.000000 0.000000 0.021287 0.000000
# 6 0.000000 0.000000 0.000000 0.000000 0.000000 0.095225
#
#
# Mechanical properties :
#
#
# Convention : Reuss Voigt Hill
#
# Bulk Modulus (GPa) = 50.76320 51.36878 51.06599
# Shear Modulus (GPa) = 14.39338 28.70602 21.54970
#
# Velocity S-wave (km/s) = 2.50427 3.53660 3.06422
# Velocity P-wave (km/s) = 5.52086 6.24970 5.89655
#
# Compressibility (1/GPa) = 0.01969931
#
# Stress axis : x y z
#
# Youngs Moduli (GPa) = 98.41284 92.16112 93.88072
#
# Poissons Ratio (x) = 0.16435 0.27576
# Poissons Ratio (y) = 0.17550 0.11843
# Poissons Ratio (z) = 0.28907 0.11626
#
# Static dielectric constant tensor:
#      x y z
#    x 1.917000 0.000000 0.000000 
#    y 0.000000 1.923970 0.000000 
#    z 0.000000 0.000000 1.856940 
# 
# From -- ./inp_files/13386.got.cif
#   From: 2010.05.17/outbox.cif.g08.bks.cpg/sg62_7_cif.got.tgz:13386.got - 2010.06.03 15:25:27.
