data_PCOD9465340
_publ_section_title
;
Structure prediction by ZEFSAII (Michael W. Deem and Ramdas Pophale) SiO2 
 PCOD9465340
Probable space group: P N M A
;
_chemical_formula_sum "Si O2"
_cell_formula_units_Z 48
_cell_length_a 27.266085
_cell_length_b 13.982882
_cell_length_c 6.575736
_cell_angle_alpha 90.000000
_cell_angle_beta 90.000000
_cell_angle_gamma 90.000000
_cell_volume 2507.054909
_symmetry_space_group_name_H-M "P N M A"
_symmetry_group_IT_number 62
_symmetry_cell_setting 'orthorhombic'
loop_
_space_group_symop_operation_xyz
x,y,z
1/2-x,-y,1/2+z
1/2+x,1/2-y,1/2-z
-x,1/2+y,-z
-x,-y,-z
1/2+x,y,1/2-z
1/2-x,1/2+y,1/2+z
x,1/2-y,z
loop_
_atom_site_type_symbol
_atom_site_label
_atom_site_fract_x
_atom_site_fract_y
_atom_site_fract_z
Si Si1 0.130486 0.363124 0.195994
Si Si2 0.705759 0.042156 0.607067
Si Si3 0.769939 0.355309 0.911432
Si Si4 0.883333 0.141300 0.776376
Si Si5 0.881119 0.991131 0.421640
Si Si6 0.442729 0.990797 0.461107
O O1 0.135704 0.250000 0.187556
O O2 0.125000 0.402827 0.423829
O O3 0.176062 0.415589 0.084339
O O4 0.082706 0.400424 0.072771
O O5 0.739049 0.122647 0.709646
O O6 0.664952 0.009650 0.770034
O O7 0.737129 0.948401 0.551261
O O8 0.757372 0.250000 0.994283
O O9 0.827523 0.356933 0.857334
O O10 0.900222 0.250000 0.753521
O O11 0.883483 0.083723 0.565077
O O12 0.915708 0.081622 0.935473
O O13 0.928085 0.985314 0.275213
O O14 0.500000 0.000000 0.500000
#
# Coordination Sequence:
#
# PCOD9465340 Si02
#       6
#     8   8   8   8   8   8
#     4  10  22  40  61  89 121 163 209 257 314 374
#     4  11  22  41  60  89 131 161 210 260 306 373
#     4  11  22  38  62  89 122 164 204 249 312 373
#     4  10  21  39  59  88 120 156 202 250 309 372
#     4  10  20  40  61  85 120 163 200 258 302 370
#     4  10  22  41  63  88 123 162 202 261 319 375
#
# _framework density 19.145970999999999
#
# number of rings (size 3 to 8) (size 9 to 14) (size 15 to 20)
#    0.000    1.667    5.000    1.500    0.000    8.000 
#    0.000    2.500    0.000    0.000    0.000    0.000 
#    0.000    0.000    0.000    0.000    0.000    0.000 
#
# Total GULP energy -268055.611204 kJ/mol
# GULP energy per Si atom -5584.491900 kJ/mol
# Density = 1.910239 g / cm^3
# Si number density = 19.145971 Si / 1000 Ang^3
#
#
#
# Elastic Constant Matrix: (Units=GPa)
#
#
# Indices 1 2 3 4 5 6 
#
# 1 83.9590 15.5588 15.0834 0.0000 0.0000 0.0000
# 2 15.5588 165.5416 40.2434 0.0000 0.0000 0.0000
# 3 15.0834 40.2434 87.0240 0.0000 0.0000 0.0000
# 4 0.0000 0.0000 0.0000 11.6569 0.0000 0.0000
# 5 0.0000 0.0000 0.0000 0.0000 21.3170 0.0000
# 6 0.0000 0.0000 0.0000 0.0000 0.0000 11.2135
#
#
#
# Elastic Compliance Matrix: (Units=1/GPa)
#
#
# Indices 1 2 3 4 5 6 
#
# 1 0.012370 -0.000723 -0.001810 0.000000 0.000000 0.000000
# 2 -0.000723 0.006848 -0.003042 0.000000 0.000000 0.000000
# 3 -0.001810 -0.003042 0.013211 0.000000 0.000000 0.000000
# 4 0.000000 0.000000 0.000000 0.085786 0.000000 0.000000
# 5 0.000000 0.000000 0.000000 0.000000 0.046911 0.000000
# 6 0.000000 0.000000 0.000000 0.000000 0.000000 0.089179
#
#
# Mechanical properties :
#
#
# Convention : Reuss Voigt Hill
#
# Bulk Modulus (GPa) = 46.99018 53.14397 50.06708
# Shear Modulus (GPa) = 18.34548 26.54674 22.44611
#
# Velocity S-wave (km/s) = 3.09882 3.72767 3.42770
# Velocity P-wave (km/s) = 6.11555 6.80771 6.47089
#
# Compressibility (1/GPa) = 0.02128104
#
# Stress axis : x y z
#
# Youngs Moduli (GPa) = 80.84325 146.02572 75.69268
#
# Poissons Ratio (x) = 0.10552 0.13699
# Poissons Ratio (y) = 0.05842 0.23023
# Poissons Ratio (z) = 0.14631 0.44415
#
# Static dielectric constant tensor:
#      x y z
#    x 1.664760 0.000000 0.000000 
#    y 0.000000 1.667170 0.000000 
#    z 0.000000 0.000000 1.678410 
# 
# From -- ./inp_files/3168.got.cif
#   From: 2010.05.17/outbox.cif.g08.bks.cpg/sg62_2_cif.got.tgz:3168.got - 2010.06.03 15:25:27.
