data_PCOD9465676
_publ_section_title
;
Structure prediction by ZEFSAII (Michael W. Deem and Ramdas Pophale) SiO2 
 PCOD9465676
Probable space group: P N M A
;
_chemical_formula_sum "Si O2"
_cell_formula_units_Z 48
_cell_length_a 10.489117
_cell_length_b 7.757417
_cell_length_c 29.101934
_cell_angle_alpha 90.000000
_cell_angle_beta 90.000000
_cell_angle_gamma 90.000000
_cell_volume 2367.979393
_symmetry_space_group_name_H-M "P N M A"
_symmetry_group_IT_number 62
_symmetry_cell_setting 'orthorhombic'
loop_
_space_group_symop_operation_xyz
x,y,z
1/2-x,-y,1/2+z
1/2+x,1/2-y,1/2-z
-x,1/2+y,-z
-x,-y,-z
1/2+x,y,1/2-z
1/2-x,1/2+y,1/2+z
x,1/2-y,z
loop_
_atom_site_type_symbol
_atom_site_label
_atom_site_fract_x
_atom_site_fract_y
_atom_site_fract_z
Si Si1 0.755130 0.040347 0.852549
Si Si2 0.480922 0.949487 0.306433
Si Si3 0.997099 0.047813 0.297970
Si Si4 0.851031 0.458529 0.051110
Si Si5 0.648014 0.956881 0.448647
Si Si6 0.770086 0.550110 0.642712
O O1 0.749420 0.250000 0.851259
O O2 0.884787 0.986804 0.826564
O O3 0.769792 0.982452 0.905423
O O4 0.631590 0.971815 0.826955
O O5 0.468065 0.750000 0.320464
O O6 0.482997 0.962125 0.251598
O O7 0.359204 0.043024 0.327711
O O8 0.021543 0.250000 0.288827
O O9 0.114642 0.974020 0.327679
O O10 0.843032 0.250000 0.050994
O O11 0.764473 0.525164 0.092774
O O12 0.999115 0.502570 0.060013
O O13 0.819250 0.522148 0.999730
O O14 0.659298 0.750000 0.449812
O O15 0.805098 0.750000 0.634923
#
# Coordination Sequence:
#
# PCOD9465676 Si02
#       6
#     8   8   8   8   8   8
#     4  10  21  37  56  81 111 143 180 221 269 321
#     4  11  22  37  58  81 105 138 183 228 269 318
#     4  11  24  38  53  76 110 146 182 222 267 322
#     4   9  17  31  55  82 109 139 174 220 269 316
#     4   9  17  32  54  82 110 137 175 221 267 317
#     4  10  21  37  56  82 111 143 180 220 269 320
#
# _framework density 20.270447999999998
#
# number of rings (size 3 to 8) (size 9 to 14) (size 15 to 20)
#    0.000    2.000    1.667    2.000    0.000    6.000 
#    0.000    0.833    0.000    0.000    0.000    0.000 
#    0.000    0.000    0.000    0.000    0.000    0.000 
#
# Total GULP energy -268024.309891 kJ/mol
# GULP energy per Si atom -5583.839789 kJ/mol
# Density = 2.022431 g / cm^3
# Si number density = 20.270448 Si / 1000 Ang^3
#
#
#
# Elastic Constant Matrix: (Units=GPa)
#
#
# Indices 1 2 3 4 5 6 
#
# 1 88.8606 -8.7149 44.3354 0.0000 0.0000 0.0000
# 2 -8.7149 30.8010 -6.9783 0.0000 0.0000 0.0000
# 3 44.3354 -6.9783 143.8334 0.0000 0.0000 0.0000
# 4 0.0000 0.0000 0.0000 4.6060 0.0000 0.0000
# 5 0.0000 0.0000 0.0000 0.0000 -23.2241 0.0000
# 6 0.0000 0.0000 0.0000 0.0000 0.0000 18.0656
#
#
#
# Elastic Compliance Matrix: (Units=1/GPa)
#
#
# Indices 1 2 3 4 5 6 
#
# 1 0.013554 0.002920 -0.004036 0.000000 0.000000 0.000000
# 2 0.002920 0.033457 0.000723 0.000000 0.000000 0.000000
# 3 -0.004036 0.000723 0.008232 0.000000 0.000000 0.000000
# 4 0.000000 0.000000 0.000000 0.217106 0.000000 0.000000
# 5 0.000000 0.000000 0.000000 0.000000 -0.043059 0.000000
# 6 0.000000 0.000000 0.000000 0.000000 0.000000 0.055354
#
#
# Mechanical properties :
#
#
# Convention : Reuss Voigt Hill
#
# Bulk Modulus (GPa) = 18.36323 35.64216 27.00269
# Shear Modulus (GPa) = 16.47007 15.54635 16.00821
#
# Velocity S-wave (km/s) = 2.85356 2.77238 2.81326
# Velocity P-wave (km/s) = 4.46496 5.27917 4.88904
#
# Compressibility (1/GPa) = 0.05445667
#
# Stress axis : x y z
#
# Youngs Moduli (GPa) = 73.78030 29.88949 121.48208
#
# Poissons Ratio (x) = -0.08729 0.49032
# Poissons Ratio (y) = -0.21547 -0.08783
# Poissons Ratio (z) = 0.29779 -0.02161
#
# Static dielectric constant tensor:
#      x y z
#    x 1.672750 0.000000 0.000000 
#    y 0.000000 1.725870 0.000000 
#    z 0.000000 0.000000 1.742460 
# 
# From -- ./inp_files/31920.got.cif
#   From: 2010.05.17/outbox.cif.g08.bks.cpg/sg62_16_cif.got.tgz:31920.got - 2010.06.03 15:25:27.
