data_PCOD9465861
_publ_section_title
;
Structure prediction by ZEFSAII (Michael W. Deem and Ramdas Pophale) SiO2 
 PCOD9465861
Probable space group: P N M A
;
_chemical_formula_sum "Si O2"
_cell_formula_units_Z 64
_cell_length_a 14.314439
_cell_length_b 8.287325
_cell_length_c 25.039370
_cell_angle_alpha 90.000000
_cell_angle_beta 90.000000
_cell_angle_gamma 90.000000
_cell_volume 2970.380605
_symmetry_space_group_name_H-M "P N M A"
_symmetry_group_IT_number 62
_symmetry_cell_setting 'orthorhombic'
loop_
_space_group_symop_operation_xyz
x,y,z
1/2-x,-y,1/2+z
1/2+x,1/2-y,1/2-z
-x,1/2+y,-z
-x,-y,-z
1/2+x,y,1/2-z
1/2-x,1/2+y,1/2+z
x,1/2-y,z
loop_
_atom_site_type_symbol
_atom_site_label
_atom_site_fract_x
_atom_site_fract_y
_atom_site_fract_z
Si Si1 0.611442 0.446863 0.662485
Si Si2 0.108053 0.555235 0.163308
Si Si3 0.117191 0.060860 0.721890
Si Si4 0.894198 0.943598 0.606342
Si Si5 0.286381 0.939789 0.442688
Si Si6 0.093791 0.442648 0.274947
Si Si7 0.290942 0.438744 0.557475
Si Si8 0.389791 0.440285 0.105643
O O1 0.617545 0.250000 0.663992
O O2 0.501635 0.486638 0.659143
O O3 0.650210 0.502176 0.720228
O O4 0.661928 0.509511 0.609566
O O5 0.116748 0.750000 0.165730
O O6 0.144235 0.487751 0.219937
O O7 0.158131 0.492791 0.110049
O O8 0.140591 0.250000 0.716220
O O9 0.141321 0.973747 0.666837
O O10 0.004580 0.038322 0.726068
O O11 0.890648 0.750000 0.600949
O O12 0.863858 0.984665 0.667356
O O13 0.002330 0.993457 0.600157
O O14 0.822445 0.020296 0.565524
O O15 0.299769 0.750000 0.440906
O O16 0.320620 0.997173 0.500073
O O17 0.074450 0.250000 0.275626
O O18 0.309337 0.250000 0.557489
O O19 0.181585 0.471274 0.567010
O O20 0.385642 0.250000 0.095520
#
# Coordination Sequence:
#
# PCOD9465861 Si02
#       8
#     8   8   8   8   8   8   8   8
#     4   8  17  35  57  82 112 144 179 220 268 323
#     4   9  19  37  59  81 110 148 184 222 273 333
#     4   9  16  31  56  84 115 147 179 219 270 331
#     4   9  20  38  57  80 112 145 177 219 272 327
#     4  11  23  38  57  80 107 143 188 232 271 319
#     4   9  17  31  54  85 116 144 179 224 273 325
#     4  11  24  40  57  79 108 144 188 233 278 330
#     4  10  21  38  59  83 112 145 182 227 277 329
#
# _framework density 21.546059
#
# number of rings (size 3 to 8) (size 9 to 14) (size 15 to 20)
#    0.000    2.500    0.000    3.375    0.000    6.000 
#    0.000   10.000    0.000    0.000    0.000    0.000 
#    0.000    0.000    0.000    0.000    0.000    0.000 
#
# Total GULP energy -357251.572057 kJ/mol
# GULP energy per Si atom -5582.055813 kJ/mol
# Density = 2.149702 g / cm^3
# Si number density = 21.546059 Si / 1000 Ang^3
#
#
#
# Elastic Constant Matrix: (Units=GPa)
#
#
# Indices 1 2 3 4 5 6 
#
# 1 35.5076 -6.6052 14.2368 0.0000 0.0000 0.0000
# 2 -6.6052 11.9883 1.8057 0.0000 0.0000 0.0000
# 3 14.2368 1.8057 94.9956 0.0000 0.0000 0.0000
# 4 0.0000 0.0000 0.0000 36.2917 0.0000 0.0000
# 5 0.0000 0.0000 0.0000 0.0000 22.5294 0.0000
# 6 0.0000 0.0000 0.0000 0.0000 0.0000 9.0572
#
#
#
# Elastic Compliance Matrix: (Units=1/GPa)
#
#
# Indices 1 2 3 4 5 6 
#
# 1 0.033991 0.019551 -0.005466 0.000000 0.000000 0.000000
# 2 0.019551 0.094900 -0.004734 0.000000 0.000000 0.000000
# 3 -0.005466 -0.004734 0.011436 0.000000 0.000000 0.000000
# 4 0.000000 0.000000 0.000000 0.027555 0.000000 0.000000
# 5 0.000000 0.000000 0.000000 0.000000 0.044386 0.000000
# 6 0.000000 0.000000 0.000000 0.000000 0.000000 0.110409
#
#
# Mechanical properties :
#
#
# Convention : Reuss Voigt Hill
#
# Bulk Modulus (GPa) = 6.28812 17.92959 12.10885
# Shear Modulus (GPa) = 14.00623 22.44595 18.22609
#
# Velocity S-wave (km/s) = 2.55239 3.23114 2.91161
# Velocity P-wave (km/s) = 3.40750 4.71804 4.11528
#
# Compressibility (1/GPa) = 0.15902998
#
# Stress axis : x y z
#
# Youngs Moduli (GPa) = 29.41915 10.53746 87.44359
#
# Poissons Ratio (x) = -0.20602 0.47796
# Poissons Ratio (y) = -0.57518 0.41395
# Poissons Ratio (z) = 0.16080 0.04988
#
# Static dielectric constant tensor:
#      x y z
#    x 1.802350 0.000000 0.000000 
#    y 0.000000 1.741580 0.000000 
#    z 0.000000 0.000000 1.814400 
# 
# From -- ./inp_files/29841.got.cif
#   From: 2010.05.17/outbox.cif.g08.bks.cpg/sg62_15_cif.got.tgz:29841.got - 2010.06.03 15:25:27.
