data_PCOD9465915
_publ_section_title
;
Structure prediction by ZEFSAII (Michael W. Deem and Ramdas Pophale) SiO2 
 PCOD9465915
Probable space group: P N M A
;
_chemical_formula_sum "Si O2"
_cell_formula_units_Z 64
_cell_length_a 31.228972
_cell_length_b 7.994571
_cell_length_c 12.239237
_cell_angle_alpha 90.000000
_cell_angle_beta 90.000000
_cell_angle_gamma 90.000000
_cell_volume 3055.675251
_symmetry_space_group_name_H-M "P N M A"
_symmetry_group_IT_number 62
_symmetry_cell_setting 'orthorhombic'
loop_
_space_group_symop_operation_xyz
x,y,z
1/2-x,-y,1/2+z
1/2+x,1/2-y,1/2-z
-x,1/2+y,-z
-x,-y,-z
1/2+x,y,1/2-z
1/2-x,1/2+y,1/2+z
x,1/2-y,z
loop_
_atom_site_type_symbol
_atom_site_label
_atom_site_fract_x
_atom_site_fract_y
_atom_site_fract_z
Si Si1 0.696583 0.053199 0.734153
Si Si2 0.840751 0.055003 0.007018
Si Si3 0.064093 0.055616 0.984011
Si Si4 0.873651 0.447030 0.404593
Si Si5 0.872378 0.452443 0.654238
Si Si6 0.791127 0.046309 0.795258
Si Si7 0.042000 0.449893 0.218835
Si Si8 0.548495 0.447386 0.758575
O O1 0.699527 0.250000 0.707877
O O2 0.743662 0.988534 0.765529
O O3 0.678030 0.964259 0.627469
O O4 0.663363 0.031009 0.832864
O O5 0.850839 0.250000 0.985555
O O6 0.885023 0.956554 0.998060
O O7 0.807050 0.997512 0.915772
O O8 0.051288 0.250000 0.978481
O O9 0.055450 0.981100 0.864398
O O10 0.042861 0.982849 0.093482
O O11 0.864076 0.250000 0.407462
O O12 0.875185 0.509732 0.528913
O O13 0.918690 0.472930 0.343213
O O14 0.872810 0.250000 0.655123
O O15 0.828171 0.507024 0.711260
O O16 0.913254 0.509632 0.723592
O O17 0.789603 0.250000 0.793519
O O18 0.037305 0.250000 0.214990
O O19 0.001414 0.524532 0.281763
O O20 0.558385 0.250000 0.756650
#
# Coordination Sequence:
#
# PCOD9465915 Si02
#       8
#     8   8   8   8   8   8   8   8
#     4  11  23  40  62  89 127 163 199 248 306 362
#     4  11  21  37  64  92 121 158 204 250 298 355
#     4  10  21  38  60  91 125 158 195 244 303 357
#     4  11  24  41  63  89 119 158 208 255 297 355
#     4  10  22  43  64  85 118 161 205 250 302 356
#     4   9  21  40  62  89 121 161 200 246 302 357
#     4  11  23  39  62  93 124 154 200 251 300 361
#     4  11  23  40  63  88 122 163 200 243 305 364
#
# _framework density 20.944634000000001
#
# number of rings (size 3 to 8) (size 9 to 14) (size 15 to 20)
#    0.000    1.500    2.500    2.250    1.750    2.500 
#    0.000    3.125    0.000    0.000    0.000    0.000 
#    0.000    0.000    0.000    0.000    0.000    0.000 
#
# Total GULP energy -357752.840743 kJ/mol
# GULP energy per Si atom -5589.888137 kJ/mol
# Density = 2.089696 g / cm^3
# Si number density = 20.944634 Si / 1000 Ang^3
#
#
#
# Elastic Constant Matrix: (Units=GPa)
#
#
# Indices 1 2 3 4 5 6 
#
# 1 84.9339 -8.8874 12.5721 0.0000 0.0000 0.0000
# 2 -8.8874 28.9341 0.6663 0.0000 0.0000 0.0000
# 3 12.5721 0.6663 108.9457 0.0000 0.0000 0.0000
# 4 0.0000 0.0000 0.0000 0.0696 0.0000 0.0000
# 5 0.0000 0.0000 0.0000 0.0000 17.7070 0.0000
# 6 0.0000 0.0000 0.0000 0.0000 0.0000 24.1191
#
#
#
# Elastic Compliance Matrix: (Units=1/GPa)
#
#
# Indices 1 2 3 4 5 6 
#
# 1 0.012391 0.003839 -0.001453 0.000000 0.000000 0.000000
# 2 0.003839 0.035756 -0.000662 0.000000 0.000000 0.000000
# 3 -0.001453 -0.000662 0.009351 0.000000 0.000000 0.000000
# 4 0.000000 0.000000 0.000000 14.377884 0.000000 0.000000
# 5 0.000000 0.000000 0.000000 0.000000 0.056475 0.000000
# 6 0.000000 0.000000 0.000000 0.000000 0.000000 0.041461
#
#
# Mechanical properties :
#
#
# Convention : Reuss Voigt Hill
#
# Bulk Modulus (GPa) = 16.40800 25.72398 21.06599
# Shear Modulus (GPa) = 0.34364 22.94331 11.64347
#
# Velocity S-wave (km/s) = 0.40549 3.31331 2.36035
# Velocity P-wave (km/s) = 2.84081 5.19095 4.18427
#
# Compressibility (1/GPa) = 0.06094590
#
# Stress axis : x y z
#
# Youngs Moduli (GPa) = 80.70546 27.96741 106.94447
#
# Poissons Ratio (x) = -0.10738 0.15543
# Poissons Ratio (y) = -0.30986 0.07077
# Poissons Ratio (z) = 0.11729 0.01851
#
# Static dielectric constant tensor:
#      x y z
#    x 1.723870 0.000000 0.000000 
#    y 0.000000 1.757140 0.000000 
#    z 0.000000 0.000000 1.746530 
# 
# From -- ./inp_files/15925.got.cif
#   From: 2010.05.17/outbox.cif.g08.bks.cpg/sg62_8_cif.got.tgz:15925.got - 2010.06.03 15:25:27.
