data_PCOD9465553
_publ_section_title
;
Structure prediction by ZEFSAII (Michael W. Deem and Ramdas Pophale) SiO2 
 PCOD9465553
Probable space group: P N M A
;
_chemical_formula_sum "Si O2"
_cell_formula_units_Z 48
_cell_length_a 28.434821
_cell_length_b 9.514003
_cell_length_c 8.138470
_cell_angle_alpha 90.000000
_cell_angle_beta 90.000000
_cell_angle_gamma 90.000000
_cell_volume 2201.691925
_symmetry_space_group_name_H-M "P N M A"
_symmetry_group_IT_number 62
_symmetry_cell_setting 'orthorhombic'
loop_
_space_group_symop_operation_xyz
x,y,z
1/2-x,-y,1/2+z
1/2+x,1/2-y,1/2-z
-x,1/2+y,-z
-x,-y,-z
1/2+x,y,1/2-z
1/2-x,1/2+y,1/2+z
x,1/2-y,z
loop_
_atom_site_type_symbol
_atom_site_label
_atom_site_fract_x
_atom_site_fract_y
_atom_site_fract_z
Si Si1 0.568052 0.587922 0.596104
Si Si2 0.761077 0.914791 0.424544
Si Si3 0.591177 0.413592 0.087409
Si Si4 0.145992 0.086189 0.759674
Si Si5 0.985174 0.412004 0.746801
Si Si6 0.315592 0.585693 0.731271
O O1 0.571640 0.750000 0.649364
O O2 0.617869 0.510395 0.614338
O O3 0.546387 0.586725 0.413380
O O4 0.531003 0.500958 0.706361
O O5 0.751795 0.750000 0.398902
O O6 0.801592 0.957239 0.293458
O O7 0.785523 0.931017 0.600707
O O8 0.713534 0.999996 0.401162
O O9 0.578672 0.250000 0.118209
O O10 0.546641 0.512393 0.111085
O O11 0.631741 0.455293 0.218170
O O12 0.616099 0.420869 0.910701
O O13 0.146306 0.250000 0.810708
O O14 0.996886 0.250000 0.707326
O O15 0.316177 0.750000 0.689336
#
# Coordination Sequence:
#
# PCOD9465553 Si02
#       6
#     8   8   8   8   8   8
#     4  10  21  36  54  77 104 134 169 209 253 302
#     4   9  19  35  53  75 104 136 171 211 253 300
#     4   9  19  36  55  75 102 136 172 210 253 301
#     4   9  19  36  55  75 102 136 172 210 253 301
#     4  10  21  36  54  77 104 134 169 209 253 302
#     4   9  19  35  53  75 104 136 171 211 253 300
#
# _framework density 21.801416
#
# number of rings (size 3 to 8) (size 9 to 14) (size 15 to 20)
#    0.000    2.667    0.000    3.000    0.000    6.667 
#    0.000   10.000    0.000    0.000    0.000    0.000 
#    0.000    0.000    0.000    0.000    0.000    0.000 
#
# Total GULP energy -268349.754538 kJ/mol
# GULP energy per Si atom -5590.619886 kJ/mol
# Density = 2.175179 g / cm^3
# Si number density = 21.801416 Si / 1000 Ang^3
#
#
#
# Elastic Constant Matrix: (Units=GPa)
#
#
# Indices 1 2 3 4 5 6 
#
# 1 101.0732 48.7186 22.3432 0.0000 0.0000 0.0000
# 2 48.7186 68.1170 13.9150 0.0000 0.0000 0.0000
# 3 22.3432 13.9150 58.1567 0.0000 0.0000 0.0000
# 4 0.0000 0.0000 0.0000 18.8793 0.0000 0.0000
# 5 0.0000 0.0000 0.0000 0.0000 47.6608 0.0000
# 6 0.0000 0.0000 0.0000 0.0000 0.0000 -41.6299
#
#
#
# Elastic Compliance Matrix: (Units=1/GPa)
#
#
# Indices 1 2 3 4 5 6 
#
# 1 0.015760 -0.010550 -0.003530 0.000000 0.000000 0.000000
# 2 -0.010550 0.022498 -0.001330 0.000000 0.000000 0.000000
# 3 -0.003530 -0.001330 0.018869 0.000000 0.000000 0.000000
# 4 0.000000 0.000000 0.000000 0.052968 0.000000 0.000000
# 5 0.000000 0.000000 0.000000 0.000000 0.020982 0.000000
# 6 0.000000 0.000000 0.000000 0.000000 0.000000 -0.024021
#
#
# Mechanical properties :
#
#
# Convention : Reuss Voigt Hill
#
# Bulk Modulus (GPa) = 38.01376 44.14449 41.07913
# Shear Modulus (GPa) = 34.09582 14.47337 24.28459
#
# Velocity S-wave (km/s) = 3.95894 2.57937 3.34113
# Velocity P-wave (km/s) = 6.19450 5.40030 5.81099
#
# Compressibility (1/GPa) = 0.02630627
#
# Stress axis : x y z
#
# Youngs Moduli (GPa) = 63.45302 44.44808 52.99587
#
# Poissons Ratio (x) = 0.46895 0.18709
# Poissons Ratio (y) = 0.66946 0.07047
# Poissons Ratio (z) = 0.22401 0.05910
#
# Static dielectric constant tensor:
#      x y z
#    x 1.760770 0.000000 0.000000 
#    y 0.000000 1.734130 0.000000 
#    z 0.000000 0.000000 1.864350 
# 
# From -- ./inp_files/10174.got.cif
#   From: 2010.05.17/outbox.cif.g08.bks.cpg/sg62_6_cif.got.tgz:10174.got - 2010.06.03 15:25:27.
