data_PCOD9465274
_publ_section_title
;
Structure prediction by ZEFSAII (Michael W. Deem and Ramdas Pophale) SiO2 
 PCOD9465274
Probable space group: P N M A
;
_chemical_formula_sum "Si O2"
_cell_formula_units_Z 60
_cell_length_a 20.538583
_cell_length_b 12.352908
_cell_length_c 11.633355
_cell_angle_alpha 90.000000
_cell_angle_beta 90.000000
_cell_angle_gamma 90.000000
_cell_volume 2951.512762
_symmetry_space_group_name_H-M "P N M A"
_symmetry_group_IT_number 62
_symmetry_cell_setting 'orthorhombic'
loop_
_space_group_symop_operation_xyz
x,y,z
1/2-x,-y,1/2+z
1/2+x,1/2-y,1/2-z
-x,1/2+y,-z
-x,-y,-z
1/2+x,y,1/2-z
1/2-x,1/2+y,1/2+z
x,1/2-y,z
loop_
_atom_site_type_symbol
_atom_site_label
_atom_site_fract_x
_atom_site_fract_y
_atom_site_fract_z
Si Si1 0.627652 0.485673 0.845864
Si Si2 0.335868 0.997000 0.551324
Si Si3 0.499901 0.870430 0.872813
Si Si4 0.481134 0.250000 0.901168
Si Si5 0.940354 0.056691 0.767817
Si Si6 0.249365 0.873586 0.715484
Si Si7 0.788599 0.876411 0.533736
Si Si8 0.072979 0.377518 0.868987
O O1 0.569513 0.570190 0.863529
O O2 0.687879 0.547401 0.786355
O O3 0.657095 0.440279 0.963319
O O4 0.603086 0.392775 0.759216
O O5 0.293332 0.900494 0.606192
O O6 0.383968 0.946179 0.457252
O O7 0.376498 0.051015 0.654492
O O8 0.282769 0.080103 0.501962
O O9 0.502395 0.750000 0.818666
O O10 0.450735 0.946930 0.805097
O O11 0.490227 0.843628 0.007600
O O12 0.448492 0.344451 0.819934
O O13 0.001202 0.072639 0.855432
O O14 0.226632 0.750000 0.714340
O O15 0.291236 0.890985 0.829974
O O16 0.794601 0.750000 0.506644
O O17 0.070291 0.250000 0.896715
#
# Coordination Sequence:
#
# PCOD9465274 Si02
#       8
#     8   8   8   4   8   8   8   8
#     4  10  20  39  62  91 121 162 210 258 314 378
#     4  11  24  40  62  92 126 166 215 265 306 387
#     4   9  22  38  65  92 126 164 204 261 315 377
#     4  10  22  42  62  92 124 170 202 264 312 380
#     4  11  23  42  63  96 130 166 217 255 325 379
#     4  10  21  39  61  86 121 160 206 259 314 368
#     4  10  22  40  61  89 123 164 209 266 323 372
#     4  11  22  41  63  89 128 171 210 261 317 381
#
# _framework density 20.328558000000001
#
# number of rings (size 3 to 8) (size 9 to 14) (size 15 to 20)
#    0.400    1.333    2.000    2.000    2.800    1.067 
#    0.000    0.000    5.867    0.000    0.000    0.000 
#    0.000    0.000    0.000    0.000    0.000    0.000 
#
# Total GULP energy -334029.353357 kJ/mol
# GULP energy per Si atom -5567.155889 kJ/mol
# Density = 2.028229 g / cm^3
# Si number density = 20.328558 Si / 1000 Ang^3
#
#
#
# Elastic Constant Matrix: (Units=GPa)
#
#
# Indices 1 2 3 4 5 6 
#
# 1 56.7420 11.8760 -1.5077 0.0000 0.0000 0.0000
# 2 11.8760 97.1294 21.0095 0.0000 0.0000 0.0000
# 3 -1.5077 21.0095 48.2126 0.0000 0.0000 0.0000
# 4 0.0000 0.0000 0.0000 29.1819 0.0000 0.0000
# 5 0.0000 0.0000 0.0000 0.0000 26.8264 0.0000
# 6 0.0000 0.0000 0.0000 0.0000 0.0000 0.5564
#
#
#
# Elastic Compliance Matrix: (Units=1/GPa)
#
#
# Indices 1 2 3 4 5 6 
#
# 1 0.018212 -0.002594 0.001700 0.000000 0.000000 0.000000
# 2 -0.002594 0.011737 -0.005196 0.000000 0.000000 0.000000
# 3 0.001700 -0.005196 0.023059 0.000000 0.000000 0.000000
# 4 0.000000 0.000000 0.000000 0.034268 0.000000 0.000000
# 5 0.000000 0.000000 0.000000 0.000000 0.037277 0.000000
# 6 0.000000 0.000000 0.000000 0.000000 0.000000 1.797274
#
#
# Mechanical properties :
#
#
# Convention : Reuss Voigt Hill
#
# Bulk Modulus (GPa) = 24.49348 29.42662 26.96005
# Shear Modulus (GPa) = 2.56724 22.69336 12.63030
#
# Velocity S-wave (km/s) = 1.12500 3.34478 2.49531
# Velocity P-wave (km/s) = 3.70978 5.42436 4.64683
#
# Compressibility (1/GPa) = 0.04082720
#
# Stress axis : x y z
#
# Youngs Moduli (GPa) = 54.90942 85.20355 43.36755
#
# Poissons Ratio (x) = 0.22106 -0.07373
# Poissons Ratio (y) = 0.14246 0.22532
# Poissons Ratio (z) = -0.09335 0.44268
#
# Static dielectric constant tensor:
#      x y z
#    x 1.723200 0.000000 0.000000 
#    y 0.000000 1.700090 0.000000 
#    z 0.000000 0.000000 1.731890 
# 
# From -- ./inp_files/14860.got.cif
#   From: 2010.05.17/outbox.cif.g08.bks.cpg/sg62_8_cif.got.tgz:14860.got - 2010.06.03 15:25:27.
