data_PCOD9465705
_publ_section_title
;
Structure prediction by ZEFSAII (Michael W. Deem and Ramdas Pophale) SiO2 
 PCOD9465705
Probable space group: P N M A
;
_chemical_formula_sum "Si O2"
_cell_formula_units_Z 64
_cell_length_a 14.770541
_cell_length_b 7.994135
_cell_length_c 25.235833
_cell_angle_alpha 90.000000
_cell_angle_beta 90.000000
_cell_angle_gamma 90.000000
_cell_volume 2979.789087
_symmetry_space_group_name_H-M "P N M A"
_symmetry_group_IT_number 62
_symmetry_cell_setting 'orthorhombic'
loop_
_space_group_symop_operation_xyz
x,y,z
1/2-x,-y,1/2+z
1/2+x,1/2-y,1/2-z
-x,1/2+y,-z
-x,-y,-z
1/2+x,y,1/2-z
1/2-x,1/2+y,1/2+z
x,1/2-y,z
loop_
_atom_site_type_symbol
_atom_site_label
_atom_site_fract_x
_atom_site_fract_y
_atom_site_fract_z
Si Si1 0.155840 0.949481 0.598073
Si Si2 0.298136 0.055566 0.520684
Si Si3 0.469277 0.951131 0.940801
Si Si4 0.975336 0.938241 0.941349
Si Si5 0.989631 0.054861 0.826867
Si Si6 0.230424 0.047692 0.410332
Si Si7 0.213539 0.546803 0.194261
Si Si8 0.316698 0.951351 0.298992
O O1 0.159373 0.750000 0.590326
O O2 0.050737 0.000787 0.598778
O O3 0.200678 0.037007 0.547117
O O4 0.217027 0.995728 0.648126
O O5 0.326210 0.250000 0.523415
O O6 0.292965 0.997391 0.460190
O O7 0.366675 0.949796 0.555827
O O8 0.463072 0.750000 0.940129
O O9 0.371110 0.015212 0.922781
O O10 0.500000 0.000000 0.000000
O O11 0.007697 0.750000 0.934065
O O12 0.004783 0.040583 0.890201
O O13 0.000000 0.000000 0.000000
O O14 0.985622 0.250000 0.812496
O O15 0.889726 0.984113 0.814197
O O16 0.079800 0.982205 0.799764
O O17 0.229179 0.250000 0.411517
O O18 0.269383 0.992286 0.354536
O O19 0.209704 0.750000 0.193094
O O20 0.256428 0.489715 0.249793
O O21 0.322029 0.750000 0.294910
#
# Coordination Sequence:
#
# PCOD9465705 Si02
#       8
#     8   8   8   8   8   8   8   8
#     4  11  22  36  59  90 120 154 202 253 300 357
#     4  11  21  36  59  86 120 159 199 245 304 365
#     4  10  21  37  57  86 123 161 202 247 303 364
#     4  12  24  37  57  88 123 159 204 248 305 366
#     4  10  21  40  63  87 121 159 200 250 306 361
#     4  10  22  39  59  86 122 162 200 247 308 367
#     4  10  22  41  64  87 119 161 204 250 302 361
#     4  10  23  41  62  90 119 157 207 254 300 356
#
# _framework density 21.478027999999998
#
# number of rings (size 3 to 8) (size 9 to 14) (size 15 to 20)
#    0.000    1.500    2.500    2.625    0.000    6.000 
#    0.000    1.250    0.000    0.000    0.000    0.000 
#    0.000    0.000    0.000    0.000    0.000    0.000 
#
# Total GULP energy -357510.338654 kJ/mol
# GULP energy per Si atom -5586.099041 kJ/mol
# Density = 2.142914 g / cm^3
# Si number density = 21.478028 Si / 1000 Ang^3
#
#
#
# Elastic Constant Matrix: (Units=GPa)
#
#
# Indices 1 2 3 4 5 6 
#
# 1 139.9065 5.8213 53.0802 0.0000 0.0000 0.0000
# 2 5.8213 24.0416 -2.6764 0.0000 0.0000 0.0000
# 3 53.0802 -2.6764 123.4434 0.0000 0.0000 0.0000
# 4 0.0000 0.0000 0.0000 26.0618 0.0000 0.0000
# 5 0.0000 0.0000 0.0000 0.0000 34.2438 0.0000
# 6 0.0000 0.0000 0.0000 0.0000 0.0000 17.8852
#
#
#
# Elastic Compliance Matrix: (Units=1/GPa)
#
#
# Indices 1 2 3 4 5 6 
#
# 1 0.008691 -0.002527 -0.003792 0.000000 0.000000 0.000000
# 2 -0.002527 0.042430 0.002006 0.000000 0.000000 0.000000
# 3 -0.003792 0.002006 0.009775 0.000000 0.000000 0.000000
# 4 0.000000 0.000000 0.000000 0.038370 0.000000 0.000000
# 5 0.000000 0.000000 0.000000 0.000000 0.029202 0.000000
# 6 0.000000 0.000000 0.000000 0.000000 0.000000 0.055912
#
#
# Mechanical properties :
#
#
# Convention : Reuss Voigt Hill
#
# Bulk Modulus (GPa) = 19.13095 44.42686 31.77890
# Shear Modulus (GPa) = 23.76093 31.04924 27.40509
#
# Velocity S-wave (km/s) = 3.32970 3.80627 3.57593
# Velocity P-wave (km/s) = 4.86920 6.32824 5.64605
#
# Compressibility (1/GPa) = 0.05227133
#
# Stress axis : x y z
#
# Youngs Moduli (GPa) = 115.05542 23.56844 102.30229
#
# Poissons Ratio (x) = 0.05955 0.38794
# Poissons Ratio (y) = 0.29070 -0.20525
# Poissons Ratio (z) = 0.43630 -0.04729
#
# Static dielectric constant tensor:
#      x y z
#    x 1.856090 0.000000 0.000000 
#    y 0.000000 1.775260 0.000000 
#    z 0.000000 0.000000 1.750230 
# 
# From -- ./inp_files/29928.got.cif
#   From: 2010.05.17/outbox.cif.g08.bks.cpg/sg62_15_cif.got.tgz:29928.got - 2010.06.03 15:25:27.
