data_PCOD9465267
_publ_section_title
;
Structure prediction by ZEFSAII (Michael W. Deem and Ramdas Pophale) SiO2 
 PCOD9465267
Probable space group: P N M A
;
_chemical_formula_sum "Si O2"
_cell_formula_units_Z 64
_cell_length_a 31.613936
_cell_length_b 7.711159
_cell_length_c 12.039185
_cell_angle_alpha 90.000000
_cell_angle_beta 90.000000
_cell_angle_gamma 90.000000
_cell_volume 2934.913568
_symmetry_space_group_name_H-M "P N M A"
_symmetry_group_IT_number 62
_symmetry_cell_setting 'orthorhombic'
loop_
_space_group_symop_operation_xyz
x,y,z
1/2-x,-y,1/2+z
1/2+x,1/2-y,1/2-z
-x,1/2+y,-z
-x,-y,-z
1/2+x,y,1/2-z
1/2-x,1/2+y,1/2+z
x,1/2-y,z
loop_
_atom_site_type_symbol
_atom_site_label
_atom_site_fract_x
_atom_site_fract_y
_atom_site_fract_z
Si Si1 0.693788 0.047273 0.757070
Si Si2 0.124864 0.950578 0.909929
Si Si3 0.431840 0.452514 0.990897
Si Si4 0.040446 0.049380 0.256180
Si Si5 0.835603 0.959926 0.497174
Si Si6 0.289577 0.540125 0.783475
Si Si7 0.872902 0.950763 0.839724
Si Si8 0.948063 0.463066 0.257687
O O1 0.683035 0.250000 0.751715
O O2 0.676859 0.977872 0.874804
O O3 0.668969 0.961117 0.655853
O O4 0.743976 0.027652 0.750469
O O5 0.115123 0.750000 0.933683
O O6 0.088724 0.018580 0.826095
O O7 0.126764 0.042766 0.027811
O O8 0.443149 0.250000 0.987373
O O9 0.381815 0.473989 0.970544
O O10 0.439860 0.519558 0.115398
O O11 0.455981 0.542353 0.889873
O O12 0.039727 0.250000 0.220064
O O13 0.083462 0.969653 0.207017
O O14 0.994824 0.976592 0.223196
O O15 0.837488 0.750000 0.495851
O O16 0.801840 0.008973 0.590747
O O17 0.287173 0.750000 0.776683
O O18 0.328916 0.477335 0.708161
O O19 0.873120 0.750000 0.800854
O O20 0.947260 0.250000 0.259741
#
# Coordination Sequence:
#
# PCOD9465267 Si02
#       8
#     8   8   8   8   8   8   8   8
#     4  11  24  40  62  92 119 151 199 244 291 349
#     4  11  23  41  61  84 120 159 196 242 296 348
#     4  11  20  34  58  91 124 151 193 241 290 347
#     4  10  20  39  62  84 118 158 196 240 295 351
#     4  10  21  40  63  87 117 156 195 235 291 352
#     4  10  22  41  62  87 119 156 195 239 297 350
#     4  10  22  40  61  86 116 155 200 244 292 348
#     4   9  20  37  59  87 118 156 195 239 295 349
#
# _framework density 21.806436000000001
#
# number of rings (size 3 to 8) (size 9 to 14) (size 15 to 20)
#    0.000    1.750    2.500    1.500    1.750    2.500 
#    0.000    1.875    0.000    0.000    0.000    0.000 
#    0.000    0.000    0.000    0.000    0.000    0.000 
#
# Total GULP energy -357661.232518 kJ/mol
# GULP energy per Si atom -5588.456758 kJ/mol
# Density = 2.175680 g / cm^3
# Si number density = 21.806436 Si / 1000 Ang^3
#
#
#
# Elastic Constant Matrix: (Units=GPa)
#
#
# Indices 1 2 3 4 5 6 
#
# 1 121.7687 -5.8738 22.8730 0.0000 0.0000 0.0000
# 2 -5.8738 37.0131 -7.1182 0.0000 0.0000 0.0000
# 3 22.8730 -7.1182 85.8544 0.0000 0.0000 0.0000
# 4 0.0000 0.0000 0.0000 -8.2870 0.0000 0.0000
# 5 0.0000 0.0000 0.0000 0.0000 22.4874 0.0000
# 6 0.0000 0.0000 0.0000 0.0000 0.0000 0.9604
#
#
#
# Elastic Compliance Matrix: (Units=1/GPa)
#
#
# Indices 1 2 3 4 5 6 
#
# 1 0.008677 0.000948 -0.002233 0.000000 0.000000 0.000000
# 2 0.000948 0.027559 0.002032 0.000000 0.000000 0.000000
# 3 -0.002233 0.002032 0.012411 0.000000 0.000000 0.000000
# 4 0.000000 0.000000 0.000000 -0.120670 0.000000 0.000000
# 5 0.000000 0.000000 0.000000 0.000000 0.044469 0.000000
# 6 0.000000 0.000000 0.000000 0.000000 0.000000 1.041230
#
#
# Mechanical properties :
#
#
# Convention : Reuss Voigt Hill
#
# Bulk Modulus (GPa) = 19.94381 29.37756 24.66068
# Shear Modulus (GPa) = 4.85957 18.68251 11.77104
#
# Velocity S-wave (km/s) = 1.49444 2.93019 2.32587
# Velocity P-wave (km/s) = 3.48475 4.99492 4.30655
#
# Compressibility (1/GPa) = 0.05014087
#
# Stress axis : x y z
#
# Youngs Moduli (GPa) = 115.24060 36.28619 80.57291
#
# Poissons Ratio (x) = -0.03438 0.17994
# Poissons Ratio (y) = -0.10920 -0.16376
# Poissons Ratio (z) = 0.25736 -0.07375
#
# Static dielectric constant tensor:
#      x y z
#    x 1.790840 0.000000 0.000000 
#    y 0.000000 1.815680 0.000000 
#    z 0.000000 0.000000 1.760610 
# 
# From -- ./inp_files/15786.got.cif
#   From: 2010.05.17/outbox.cif.g08.bks.cpg/sg62_8_cif.got.tgz:15786.got - 2010.06.03 15:25:27.
