data_PCOD9465087
_publ_section_title
;
Structure prediction by ZEFSAII (Michael W. Deem and Ramdas Pophale) SiO2 
 PCOD9465087
Probable space group: P N M A
;
_chemical_formula_sum "Si O2"
_cell_formula_units_Z 48
_cell_length_a 14.236989
_cell_length_b 20.230646
_cell_length_c 7.148315
_cell_angle_alpha 90.000000
_cell_angle_beta 90.000000
_cell_angle_gamma 90.000000
_cell_volume 2058.882595
_symmetry_space_group_name_H-M "P N M A"
_symmetry_group_IT_number 62
_symmetry_cell_setting 'orthorhombic'
loop_
_space_group_symop_operation_xyz
x,y,z
1/2-x,-y,1/2+z
1/2+x,1/2-y,1/2-z
-x,1/2+y,-z
-x,-y,-z
1/2+x,y,1/2-z
1/2-x,1/2+y,1/2+z
x,1/2-y,z
loop_
_atom_site_type_symbol
_atom_site_label
_atom_site_fract_x
_atom_site_fract_y
_atom_site_fract_z
Si Si1 0.353593 0.553674 0.010605
Si Si2 0.620090 0.180415 0.203905
Si Si3 0.238789 0.926998 0.355253
Si Si4 0.460037 0.175701 0.494551
Si Si5 0.169473 0.674895 0.646965
Si Si6 0.951002 0.947467 0.130665
O O1 0.312571 0.496875 0.881178
O O2 0.266841 0.582561 0.138175
O O3 0.425975 0.525675 0.163984
O O4 0.400901 0.614950 0.909914
O O5 0.602606 0.250000 0.098985
O O6 0.559166 0.182794 0.389703
O O7 0.727660 0.177894 0.262805
O O8 0.180730 0.872358 0.468333
O O9 0.344774 0.931751 0.442032
O O10 0.430752 0.250000 0.558172
O O11 0.394767 0.153112 0.321186
O O12 0.482346 0.117186 0.638518
O O13 0.140405 0.750000 0.595943
O O14 0.000000 0.000000 0.000000
#
# Coordination Sequence:
#
# PCOD9465087 Si02
#       6
#     8   8   8   8   8   8
#     4  10  22  36  57  83 115 154 187 241 290 338
#     4  10  20  38  60  86 117 149 193 240 292 347
#     4  10  21  37  57  82 117 150 194 238 283 349
#     4  10  21  38  62  86 114 152 194 241 291 352
#     4  10  20  38  63  87 113 152 194 238 291 349
#     4  10  22  37  58  85 115 154 193 240 286 348
#
# _framework density 23.313616
#
# number of rings (size 3 to 8) (size 9 to 14) (size 15 to 20)
#    1.000    1.000    1.667    2.000    2.333    1.333 
#    3.000    1.667    0.000    6.000    0.000    0.000 
#    0.000    0.000    0.000    0.000    0.000    0.000 
#
# Total GULP energy -267801.381276 kJ/mol
# GULP energy per Si atom -5579.195443 kJ/mol
# Density = 2.326055 g / cm^3
# Si number density = 23.313616 Si / 1000 Ang^3
#
#
#
# Elastic Constant Matrix: (Units=GPa)
#
#
# Indices 1 2 3 4 5 6 
#
# 1 57.2286 7.3276 -2.7626 0.0000 0.0000 0.0000
# 2 7.3276 71.9761 20.6073 0.0000 0.0000 0.0000
# 3 -2.7626 20.6073 35.8420 0.0000 0.0000 0.0000
# 4 0.0000 0.0000 0.0000 25.4343 0.0000 0.0000
# 5 0.0000 0.0000 0.0000 0.0000 22.5707 0.0000
# 6 0.0000 0.0000 0.0000 0.0000 0.0000 36.9895
#
#
#
# Elastic Compliance Matrix: (Units=1/GPa)
#
#
# Indices 1 2 3 4 5 6 
#
# 1 0.017955 -0.002662 0.002915 0.000000 0.000000 0.000000
# 2 -0.002662 0.017026 -0.009994 0.000000 0.000000 0.000000
# 3 0.002915 -0.009994 0.033871 0.000000 0.000000 0.000000
# 4 0.000000 0.000000 0.000000 0.039317 0.000000 0.000000
# 5 0.000000 0.000000 0.000000 0.000000 0.044305 0.000000
# 6 0.000000 0.000000 0.000000 0.000000 0.000000 0.027035
#
#
# Mechanical properties :
#
#
# Convention : Reuss Voigt Hill
#
# Bulk Modulus (GPa) = 20.25584 23.93236 22.09410
# Shear Modulus (GPa) = 23.20729 26.32385 24.76557
#
# Velocity S-wave (km/s) = 3.15848 3.36388 3.26280
# Velocity P-wave (km/s) = 4.69133 5.03739 4.86744
#
# Compressibility (1/GPa) = 0.04936847
#
# Stress axis : x y z
#
# Youngs Moduli (GPa) = 55.69357 58.73376 29.52372
#
# Poissons Ratio (x) = 0.15638 -0.08605
# Poissons Ratio (y) = 0.14828 0.29507
# Poissons Ratio (z) = -0.16233 0.58700
#
# Static dielectric constant tensor:
#      x y z
#    x 1.903130 0.000000 0.000000 
#    y 0.000000 1.898260 0.000000 
#    z 0.000000 0.000000 1.871170 
# 
# From -- ./inp_files/6637.got.cif
#   From: 2010.05.17/outbox.cif.g08.bks.cpg/sg62_4_cif.got.tgz:6637.got - 2010.06.03 15:25:27.
