data_PCOD9465769
_publ_section_title
;
Structure prediction by ZEFSAII (Michael W. Deem and Ramdas Pophale) SiO2 
 PCOD9465769
Probable space group: P N M A
;
_chemical_formula_sum "Si O2"
_cell_formula_units_Z 32
_cell_length_a 14.928340
_cell_length_b 11.265754
_cell_length_c 7.169923
_cell_angle_alpha 90.000000
_cell_angle_beta 90.000000
_cell_angle_gamma 90.000000
_cell_volume 1205.830524
_symmetry_space_group_name_H-M "P N M A"
_symmetry_group_IT_number 62
_symmetry_cell_setting 'orthorhombic'
loop_
_space_group_symop_operation_xyz
x,y,z
1/2-x,-y,1/2+z
1/2+x,1/2-y,1/2-z
-x,1/2+y,-z
-x,-y,-z
1/2+x,y,1/2-z
1/2-x,1/2+y,1/2+z
x,1/2-y,z
loop_
_atom_site_type_symbol
_atom_site_label
_atom_site_fract_x
_atom_site_fract_y
_atom_site_fract_z
Si Si1 0.204281 0.073911 0.530491
Si Si2 0.906756 0.123877 0.025441
Si Si3 0.479502 0.877563 0.898468
Si Si4 0.168101 0.114927 0.964650
O O1 0.298661 0.130837 0.476240
O O2 0.128402 0.111111 0.386577
O O3 0.172942 0.106980 0.738002
O O4 0.234236 0.935316 0.525554
O O5 0.936298 0.250000 0.929976
O O6 0.955412 0.126585 0.222635
O O7 0.905939 0.982677 0.970407
O O8 0.494365 0.750000 0.996824
O O9 0.500000 0.000000 0.000000
O O10 0.150487 0.250000 0.016636
#
# Coordination Sequence:
#
# PCOD9465769 Si02
#       4
#     8   8   8   8
#     4  10  21  38  60  84 122 152 196 240 296 345
#     4   9  20  34  56  84 114 147 190 239 289 343
#     4  11  20  34  58  87 115 154 198 243 291 347
#     4  10  21  37  60  84 117 157 193 240 298 348
#
# _framework density 26.537724000000001
#
# number of rings (size 3 to 8) (size 9 to 14) (size 15 to 20)
#    1.500    0.500    2.500    2.250    0.000    2.000 
#    0.000    1.250    0.000    0.000    0.000    0.000 
#    0.000    0.000    0.000    0.000    0.000    0.000 
#
# Total GULP energy -178253.929595 kJ/mol
# GULP energy per Si atom -5570.435300 kJ/mol
# Density = 2.647732 g / cm^3
# Si number density = 26.537724 Si / 1000 Ang^3
#
#
#
# Elastic Constant Matrix: (Units=GPa)
#
#
# Indices 1 2 3 4 5 6 
#
# 1 114.0324 35.9079 34.8888 0.0000 0.0000 0.0000
# 2 35.9079 318.0235 43.1899 0.0000 0.0000 0.0000
# 3 34.8888 43.1899 82.6785 0.0000 0.0000 0.0000
# 4 0.0000 0.0000 0.0000 28.4923 0.0000 0.0000
# 5 0.0000 0.0000 0.0000 0.0000 35.4929 0.0000
# 6 0.0000 0.0000 0.0000 0.0000 0.0000 -1.3711
#
#
#
# Elastic Compliance Matrix: (Units=1/GPa)
#
#
# Indices 1 2 3 4 5 6 
#
# 1 0.010178 -0.000609 -0.003977 0.000000 0.000000 0.000000
# 2 -0.000609 0.003421 -0.001530 0.000000 0.000000 0.000000
# 3 -0.003977 -0.001530 0.014572 0.000000 0.000000 0.000000
# 4 0.000000 0.000000 0.000000 0.035097 0.000000 0.000000
# 5 0.000000 0.000000 0.000000 0.000000 0.028175 0.000000
# 6 0.000000 0.000000 0.000000 0.000000 0.000000 -0.729320
#
#
# Mechanical properties :
#
#
# Convention : Reuss Voigt Hill
#
# Bulk Modulus (GPa) = 62.73679 82.52306 72.62992
# Shear Modulus (GPa) = -8.06020 39.23933 15.58957
#
# Velocity S-wave (km/s) = -1.74466 3.84946 2.42636
# Velocity P-wave (km/s) = 4.43097 7.13595 5.93950
#
# Compressibility (1/GPa) = 0.01593961
#
# Stress axis : x y z
#
# Youngs Moduli (GPa) = 98.25168 292.31334 68.62285
#
# Poissons Ratio (x) = 0.17805 0.27289
# Poissons Ratio (y) = 0.05985 0.10500
# Poissons Ratio (z) = 0.39072 0.44725
#
# Static dielectric constant tensor:
#      x y z
#    x 2.061850 0.000000 0.000000 
#    y 0.000000 2.491510 0.000000 
#    z 0.000000 0.000000 2.067960 
# 
# From -- ./inp_files/12827.got.cif
#   From: 2010.05.17/outbox.cif.g08.bks.cpg/sg62_7_cif.got.tgz:12827.got - 2010.06.03 15:25:27.
