data_PCOD9465336
_publ_section_title
;
Structure prediction by ZEFSAII (Michael W. Deem and Ramdas Pophale) SiO2 
 PCOD9465336
Probable space group: P N M A
;
_chemical_formula_sum "Si O2"
_cell_formula_units_Z 24
_cell_length_a 17.858749
_cell_length_b 10.141052
_cell_length_c 4.890257
_cell_angle_alpha 90.000000
_cell_angle_beta 90.000000
_cell_angle_gamma 90.000000
_cell_volume 885.657340
_symmetry_space_group_name_H-M "P N M A"
_symmetry_group_IT_number 62
_symmetry_cell_setting 'orthorhombic'
loop_
_space_group_symop_operation_xyz
x,y,z
1/2-x,-y,1/2+z
1/2+x,1/2-y,1/2-z
-x,1/2+y,-z
-x,-y,-z
1/2+x,y,1/2-z
1/2-x,1/2+y,1/2+z
x,1/2-y,z
loop_
_atom_site_type_symbol
_atom_site_label
_atom_site_fract_x
_atom_site_fract_y
_atom_site_fract_z
Si Si1 0.925050 0.750000 0.443619
Si Si2 0.773408 0.408069 0.742255
Si Si3 0.027611 0.750000 0.951002
Si Si4 0.585379 0.969490 0.905281
O O1 0.951942 0.750000 0.758686
O O2 0.883848 0.616845 0.365542
O O3 0.999732 0.750000 0.256985
O O4 0.768952 0.499617 0.013820
O O5 0.756192 0.250000 0.775224
O O6 0.857549 0.406772 0.615477
O O7 0.072861 0.623214 0.852541
O O8 0.500000 0.000000 0.000000
#
# Coordination Sequence:
#
# PCOD9465336 Si02
#       4
#     4   8   4   8
#     4  10  22  34  66 100 138 172 235 300 373 436
#     4  12  29  53  79 113 159 211 264 323 394 472
#     4  10  20  40  60 100 136 180 229 306 365 434
#     4  10  23  46  73 106 146 195 255 317 386 455
#
# _framework density 27.098514999999999
#
# number of rings (size 3 to 8) (size 9 to 14) (size 15 to 20)
#    0.000    1.333    1.667    2.000    4.667   10.667 
#    0.000    0.000    0.000    0.000    0.000    0.000 
#    0.000    0.000    0.000    0.000    0.000    0.000 
#
# Total GULP energy -134267.087472 kJ/mol
# GULP energy per Si atom -5594.461978 kJ/mol
# Density = 2.703684 g / cm^3
# Si number density = 27.098515 Si / 1000 Ang^3
#
#
#
# Elastic Constant Matrix: (Units=GPa)
#
#
# Indices 1 2 3 4 5 6 
#
# 1 103.9613 46.1656 19.3562 0.0000 0.0000 0.0000
# 2 46.1656 293.9658 41.4172 0.0000 0.0000 0.0000
# 3 19.3562 41.4172 103.0195 0.0000 0.0000 0.0000
# 4 0.0000 0.0000 0.0000 45.0345 0.0000 0.0000
# 5 0.0000 0.0000 0.0000 0.0000 48.5753 0.0000
# 6 0.0000 0.0000 0.0000 0.0000 0.0000 58.4233
#
#
#
# Elastic Compliance Matrix: (Units=1/GPa)
#
#
# Indices 1 2 3 4 5 6 
#
# 1 0.010525 -0.001457 -0.001392 0.000000 0.000000 0.000000
# 2 -0.001457 0.003808 -0.001257 0.000000 0.000000 0.000000
# 3 -0.001392 -0.001257 0.010474 0.000000 0.000000 0.000000
# 4 0.000000 0.000000 0.000000 0.022205 0.000000 0.000000
# 5 0.000000 0.000000 0.000000 0.000000 0.020587 0.000000
# 6 0.000000 0.000000 0.000000 0.000000 0.000000 0.017116
#
#
# Mechanical properties :
#
#
# Convention : Reuss Voigt Hill
#
# Bulk Modulus (GPa) = 60.25905 79.42496 69.84201
# Shear Modulus (GPa) = 50.78316 56.67381 53.72848
#
# Velocity S-wave (km/s) = 4.33369 4.57814 4.45759
# Velocity P-wave (km/s) = 6.87942 7.57094 7.23345
#
# Compressibility (1/GPa) = 0.01659502
#
# Stress axis : x y z
#
# Youngs Moduli (GPa) = 95.01166 262.62921 95.47628
#
# Poissons Ratio (x) = 0.38260 0.13289
# Poissons Ratio (y) = 0.13841 0.12002
# Poissons Ratio (z) = 0.13224 0.33015
#
# Static dielectric constant tensor:
#      x y z
#    x 2.236910 0.000000 0.000000 
#    y 0.000000 2.301180 0.000000 
#    z 0.000000 0.000000 2.022450 
# 
# From -- ./inp_files/1384.got.cif
#   From: 2010.05.17/outbox.cif.g08.bks.cpg/sg62_1_cif.got.tgz:1384.got - 2010.06.03 15:25:27.
