data_PCOD9465495
_publ_section_title
;
Structure prediction by ZEFSAII (Michael W. Deem and Ramdas Pophale) SiO2 
 PCOD9465495
Probable space group: P N M A
;
_chemical_formula_sum "Si O2"
_cell_formula_units_Z 56
_cell_length_a 5.400539
_cell_length_b 15.744835
_cell_length_c 30.833370
_cell_angle_alpha 90.000000
_cell_angle_beta 90.000000
_cell_angle_gamma 90.000000
_cell_volume 2621.779811
_symmetry_space_group_name_H-M "P N M A"
_symmetry_group_IT_number 62
_symmetry_cell_setting 'orthorhombic'
loop_
_space_group_symop_operation_xyz
x,y,z
1/2-x,-y,1/2+z
1/2+x,1/2-y,1/2-z
-x,1/2+y,-z
-x,-y,-z
1/2+x,y,1/2-z
1/2-x,1/2+y,1/2+z
x,1/2-y,z
loop_
_atom_site_type_symbol
_atom_site_label
_atom_site_fract_x
_atom_site_fract_y
_atom_site_fract_z
Si Si1 0.690945 0.944088 0.077395
Si Si2 0.196977 0.154971 0.629719
Si Si3 0.926819 0.156576 0.962555
Si Si4 0.441684 0.516308 0.649171
Si Si5 0.401129 0.887437 0.962016
Si Si6 0.067760 0.847761 0.778272
Si Si7 0.124933 0.342503 0.084884
O O1 0.548092 0.870235 0.102866
O O2 0.862737 0.913066 0.037730
O O3 0.539037 0.017877 0.054002
O O4 0.840756 0.987676 0.116808
O O5 0.181318 0.250000 0.649823
O O6 0.382144 0.161145 0.589014
O O7 0.284333 0.071081 0.656680
O O8 0.999594 0.250000 0.977737
O O9 0.685979 0.129540 0.989091
O O10 0.540359 0.572894 0.688822
O O11 0.301690 0.586473 0.620069
O O12 0.649258 0.839966 0.948793
O O13 0.142801 0.861701 0.937036
O O14 0.829326 0.854498 0.746682
O O15 0.060968 0.750000 0.796204
O O16 0.105001 0.250000 0.105606
#
# Coordination Sequence:
#
# PCOD9465495 Si02
#       7
#     8   8   8   8   8   8   8
#     4  10  21  37  56  84 114 161 211 260 313 365
#     4  10  21  38  60  85 115 161 219 265 312 357
#     4  10  21  35  52  78 114 159 211 270 320 362
#     4  10  22  40  62  90 125 161 200 248 300 362
#     4  11  23  37  55  82 117 160 209 262 316 370
#     4  10  23  42  70 107 138 164 193 230 290 369
#     4  11  22  37  57  86 121 160 203 247 308 373
#
# _framework density 21.359537
#
# number of rings (size 3 to 8) (size 9 to 14) (size 15 to 20)
#    0.000    1.714    1.429    2.571    4.000    1.143 
#    0.000    2.857    0.000    0.857    0.000    0.000 
#    0.000    0.000    0.000    0.000    0.000    0.000 
#
# Total GULP energy -311918.642626 kJ/mol
# GULP energy per Si atom -5569.975761 kJ/mol
# Density = 2.131092 g / cm^3
# Si number density = 21.359537 Si / 1000 Ang^3
#
#
#
# Elastic Constant Matrix: (Units=GPa)
#
#
# Indices 1 2 3 4 5 6 
#
# 1 65.1090 16.7665 1.8693 0.0000 0.0000 0.0000
# 2 16.7665 163.4039 35.7915 0.0000 0.0000 0.0000
# 3 1.8693 35.7915 41.1426 0.0000 0.0000 0.0000
# 4 0.0000 0.0000 0.0000 31.1329 0.0000 0.0000
# 5 0.0000 0.0000 0.0000 0.0000 14.4197 0.0000
# 6 0.0000 0.0000 0.0000 0.0000 0.0000 35.6873
#
#
#
# Elastic Compliance Matrix: (Units=1/GPa)
#
#
# Indices 1 2 3 4 5 6 
#
# 1 0.015800 -0.001809 0.000855 0.000000 0.000000 0.000000
# 2 -0.001809 0.007767 -0.006675 0.000000 0.000000 0.000000
# 3 0.000855 -0.006675 0.030074 0.000000 0.000000 0.000000
# 4 0.000000 0.000000 0.000000 0.032120 0.000000 0.000000
# 5 0.000000 0.000000 0.000000 0.000000 0.069350 0.000000
# 6 0.000000 0.000000 0.000000 0.000000 0.000000 0.028021
#
#
# Mechanical properties :
#
#
# Convention : Reuss Voigt Hill
#
# Bulk Modulus (GPa) = 26.05189 42.05669 34.05429
# Shear Modulus (GPa) = 23.67606 30.59650 27.13628
#
# Velocity S-wave (km/s) = 3.33296 3.78888 3.56821
# Velocity P-wave (km/s) = 5.19950 6.23486 5.74057
#
# Compressibility (1/GPa) = 0.03838492
#
# Stress axis : x y z
#
# Youngs Moduli (GPa) = 63.29102 128.74213 33.25162
#
# Poissons Ratio (x) = 0.23284 -0.02845
# Poissons Ratio (y) = 0.11447 0.22196
# Poissons Ratio (z) = -0.05414 0.85936
#
# Static dielectric constant tensor:
#      x y z
#    x 1.867800 0.000000 0.000000 
#    y 0.000000 1.829920 0.000000 
#    z 0.000000 0.000000 1.785830 
# 
# From -- ./inp_files/31610.got.cif
#   From: 2010.05.17/outbox.cif.g08.bks.cpg/sg62_16_cif.got.tgz:31610.got - 2010.06.03 15:25:27.
