data_PCOD9465743
_publ_section_title
;
Structure prediction by ZEFSAII (Michael W. Deem and Ramdas Pophale) SiO2 
 PCOD9465743
Probable space group: P N M A
;
_chemical_formula_sum "Si O2"
_cell_formula_units_Z 36
_cell_length_a 5.177589
_cell_length_b 11.858754
_cell_length_c 24.479030
_cell_angle_alpha 90.000000
_cell_angle_beta 90.000000
_cell_angle_gamma 90.000000
_cell_volume 1503.006427
_symmetry_space_group_name_H-M "P N M A"
_symmetry_group_IT_number 62
_symmetry_cell_setting 'orthorhombic'
loop_
_space_group_symop_operation_xyz
x,y,z
1/2-x,-y,1/2+z
1/2+x,1/2-y,1/2-z
-x,1/2+y,-z
-x,-y,-z
1/2+x,y,1/2-z
1/2-x,1/2+y,1/2+z
x,1/2-y,z
loop_
_atom_site_type_symbol
_atom_site_label
_atom_site_fract_x
_atom_site_fract_y
_atom_site_fract_z
Si Si1 0.351110 0.928356 0.618553
Si Si2 0.627338 0.126511 0.499965
Si Si3 0.238106 0.250000 0.212422
Si Si4 0.200416 0.377099 0.772763
Si Si5 0.860430 0.062617 0.610712
O O1 0.264426 0.871535 0.561397
O O2 0.295206 0.854136 0.670947
O O3 0.655913 0.957494 0.613354
O O4 0.160001 0.035437 0.619925
O O5 0.488789 0.250000 0.506651
O O6 0.817273 0.118019 0.551807
O O7 0.500000 0.000000 0.500000
O O8 0.511984 0.250000 0.242666
O O9 0.433797 0.435487 0.741574
O O10 0.167420 0.250000 0.750086
O O11 0.262238 0.371771 0.836192
#
# Coordination Sequence:
#
# PCOD9465743 Si02
#       5
#     8   8   4   8   8
#     4  11  24  44  64  98 135 180 230 304 355 425
#     4  10  22  45  73 106 146 191 244 303 374 432
#     4  12  26  44  68  98 138 194 242 296 370 442
#     4  10  21  37  58  88 129 171 216 281 345 407
#     4  11  23  40  68  98 130 181 239 284 365 434
#
# _framework density 23.951996000000001
#
# number of rings (size 3 to 8) (size 9 to 14) (size 15 to 20)
#    0.000    1.333    1.111    4.000    0.000    5.333 
#    2.000   14.444    0.000    0.000    0.000    0.000 
#    0.000    0.000    0.000    0.000    0.000    0.000 
#
# Total GULP energy -200701.318476 kJ/mol
# GULP energy per Si atom -5575.036624 kJ/mol
# Density = 2.389748 g / cm^3
# Si number density = 23.951996 Si / 1000 Ang^3
#
#
#
# Elastic Constant Matrix: (Units=GPa)
#
#
# Indices 1 2 3 4 5 6 
#
# 1 80.0465 11.1623 5.3116 0.0000 0.0000 0.0000
# 2 11.1623 104.1232 20.8242 0.0000 0.0000 0.0000
# 3 5.3116 20.8242 132.5494 0.0000 0.0000 0.0000
# 4 0.0000 0.0000 0.0000 127.8751 0.0000 0.0000
# 5 0.0000 0.0000 0.0000 0.0000 28.0120 0.0000
# 6 0.0000 0.0000 0.0000 0.0000 0.0000 7.3534
#
#
#
# Elastic Compliance Matrix: (Units=1/GPa)
#
#
# Indices 1 2 3 4 5 6 
#
# 1 0.012694 -0.001300 -0.000304 0.000000 0.000000 0.000000
# 2 -0.001300 0.010049 -0.001527 0.000000 0.000000 0.000000
# 3 -0.000304 -0.001527 0.007796 0.000000 0.000000 0.000000
# 4 0.000000 0.000000 0.000000 0.007820 0.000000 0.000000
# 5 0.000000 0.000000 0.000000 0.000000 0.035699 0.000000
# 6 0.000000 0.000000 0.000000 0.000000 0.000000 0.135992
#
#
# Mechanical properties :
#
#
# Convention : Reuss Voigt Hill
#
# Bulk Modulus (GPa) = 41.19087 43.47949 42.33518
# Shear Modulus (GPa) = 22.28112 51.27616 36.77864
#
# Velocity S-wave (km/s) = 3.05329 4.63189 3.92282
# Velocity P-wave (km/s) = 5.44653 6.84091 6.18315
#
# Compressibility (1/GPa) = 0.02427722
#
# Stress axis : x y z
#
# Youngs Moduli (GPa) = 78.77599 99.51552 128.26438
#
# Poissons Ratio (x) = 0.12937 0.03905
# Poissons Ratio (y) = 0.10241 0.19581
# Poissons Ratio (z) = 0.02398 0.15192
#
# Static dielectric constant tensor:
#      x y z
#    x 1.957950 0.000000 0.000000 
#    y 0.000000 1.349610 0.000000 
#    z 0.000000 0.000000 1.888070 
# 
# From -- ./inp_files/28163.got.cif
#   From: 2010.05.17/outbox.cif.g08.bks.cpg/sg62_15_cif.got.tgz:28163.got - 2010.06.03 15:25:27.
