data_PCOD9465114
_publ_section_title
;
Structure prediction by ZEFSAII (Michael W. Deem and Ramdas Pophale) SiO2 
 PCOD9465114
Probable space group: P N M A
;
_chemical_formula_sum "Si O2"
_cell_formula_units_Z 52
_cell_length_a 9.662283
_cell_length_b 19.411338
_cell_length_c 10.775849
_cell_angle_alpha 90.000000
_cell_angle_beta 90.000000
_cell_angle_gamma 90.000000
_cell_volume 2021.094975
_symmetry_space_group_name_H-M "P N M A"
_symmetry_group_IT_number 62
_symmetry_cell_setting 'orthorhombic'
loop_
_space_group_symop_operation_xyz
x,y,z
1/2-x,-y,1/2+z
1/2+x,1/2-y,1/2-z
-x,1/2+y,-z
-x,-y,-z
1/2+x,y,1/2-z
1/2-x,1/2+y,1/2+z
x,1/2-y,z
loop_
_atom_site_type_symbol
_atom_site_label
_atom_site_fract_x
_atom_site_fract_y
_atom_site_fract_z
Si Si1 0.609002 0.852004 0.324909
Si Si2 0.312312 0.508986 0.893463
Si Si3 0.081345 0.148562 0.052864
Si Si4 0.994800 0.508815 0.826766
Si Si5 0.321835 0.845613 0.980975
Si Si6 0.123316 0.854815 0.462745
Si Si7 0.381579 0.250000 0.337538
O O1 0.491942 0.828556 0.423257
O O2 0.750090 0.826751 0.388530
O O3 0.613040 0.832218 0.181344
O O4 0.579245 0.934342 0.328014
O O5 0.431000 0.535839 0.801051
O O6 0.360570 0.437819 0.952869
O O7 0.160571 0.500179 0.830467
O O8 0.297588 0.572530 0.984279
O O9 0.241239 0.166408 0.037779
O O10 0.002523 0.189837 0.158648
O O11 0.054105 0.066530 0.074041
O O12 0.482491 0.831319 0.975812
O O13 0.234383 0.809949 0.873703
#
# Coordination Sequence:
#
# PCOD9465114 Si02
#       7
#     8   8   8   8   8   8   4
#     4  10  20  38  61  92 127 161 191 248 321 378
#     4  11  23  38  63  98 129 155 202 259 324 382
#     4  11  21  42  63  85 123 174 206 252 310 360
#     4  11  22  37  64  93 129 158 202 252 318 384
#     4  11  23  42  61  88 130 165 205 259 312 352
#     4  11  23  35  65  99 122 155 205 259 318 389
#     4  10  24  44  66  78 122 180 216 256 294 364
#
# _framework density 25.728628
#
# number of rings (size 3 to 8) (size 9 to 14) (size 15 to 20)
#    0.000    1.231    4.615    2.769    8.615    0.615 
#    0.000   13.077    0.000    0.000    0.000    0.000 
#    0.000    0.000    0.000    0.000    0.000    0.000 
#
# Total GULP energy -289860.423831 kJ/mol
# GULP energy per Si atom -5574.238920 kJ/mol
# Density = 2.567007 g / cm^3
# Si number density = 25.728628 Si / 1000 Ang^3
#
#
#
# Elastic Constant Matrix: (Units=GPa)
#
#
# Indices 1 2 3 4 5 6 
#
# 1 234.8035 23.8381 25.3812 0.0000 0.0000 0.0000
# 2 23.8381 143.4635 3.3956 0.0000 0.0000 0.0000
# 3 25.3812 3.3956 54.7053 0.0000 0.0000 0.0000
# 4 0.0000 0.0000 0.0000 -145.6255 0.0000 0.0000
# 5 0.0000 0.0000 0.0000 0.0000 29.2393 0.0000
# 6 0.0000 0.0000 0.0000 0.0000 0.0000 72.0260
#
#
#
# Elastic Compliance Matrix: (Units=1/GPa)
#
#
# Indices 1 2 3 4 5 6 
#
# 1 0.004554 -0.000708 -0.002069 0.000000 0.000000 0.000000
# 2 -0.000708 0.007091 -0.000112 0.000000 0.000000 0.000000
# 3 -0.002069 -0.000112 0.019247 0.000000 0.000000 0.000000
# 4 0.000000 0.000000 0.000000 -0.006867 0.000000 0.000000
# 5 0.000000 0.000000 0.000000 0.000000 0.034201 0.000000
# 6 0.000000 0.000000 0.000000 0.000000 0.000000 0.013884
#
#
# Mechanical properties :
#
#
# Convention : Reuss Voigt Hill
#
# Bulk Modulus (GPa) = 39.81770 59.80021 49.80896
# Shear Modulus (GPa) = 57.96558 16.48512 37.22535
#
# Velocity S-wave (km/s) = 4.75169 2.53401 3.80787
# Velocity P-wave (km/s) = 6.75384 5.64400 6.22371
#
# Compressibility (1/GPa) = 0.02511446
#
# Stress axis : x y z
#
# Youngs Moduli (GPa) = 219.56777 141.03047 51.95692
#
# Poissons Ratio (x) = 0.09982 0.10751
# Poissons Ratio (y) = 0.15541 0.00581
# Poissons Ratio (z) = 0.45432 0.01576
#
# Static dielectric constant tensor:
#      x y z
#    x 1.966730 0.000000 0.000000 
#    y 0.000000 2.042050 0.000000 
#    z 0.000000 0.000000 2.109300 
# 
# From -- ./inp_files/17147.got.cif
#   From: 2010.05.17/outbox.cif.g08.bks.cpg/sg62_9_cif.got.tgz:17147.got - 2010.06.03 15:25:27.
