data_PCOD9465574
_publ_section_title
;
Structure prediction by ZEFSAII (Michael W. Deem and Ramdas Pophale) SiO2 
 PCOD9465574
Probable space group: P N M A
;
_chemical_formula_sum "Si O2"
_cell_formula_units_Z 64
_cell_length_a 18.384499
_cell_length_b 14.048521
_cell_length_c 11.764225
_cell_angle_alpha 90.000000
_cell_angle_beta 90.000000
_cell_angle_gamma 90.000000
_cell_volume 3038.405450
_symmetry_space_group_name_H-M "P N M A"
_symmetry_group_IT_number 62
_symmetry_cell_setting 'orthorhombic'
loop_
_space_group_symop_operation_xyz
x,y,z
1/2-x,-y,1/2+z
1/2+x,1/2-y,1/2-z
-x,1/2+y,-z
-x,-y,-z
1/2+x,y,1/2-z
1/2-x,1/2+y,1/2+z
x,1/2-y,z
loop_
_atom_site_type_symbol
_atom_site_label
_atom_site_fract_x
_atom_site_fract_y
_atom_site_fract_z
Si Si1 0.093082 0.863001 0.377999
Si Si2 0.266181 0.077444 0.740883
Si Si3 0.000138 0.515855 0.210805
Si Si4 0.715798 0.860240 0.507372
Si Si5 0.470751 0.135520 0.114438
Si Si6 0.131147 0.145287 0.402995
Si Si7 0.140338 0.052482 0.913759
Si Si8 0.647723 0.087831 0.345561
O O1 0.090375 0.750000 0.363216
O O2 0.168254 0.901792 0.327856
O O3 0.083473 0.882811 0.511430
O O4 0.028380 0.910327 0.305336
O O5 0.277588 0.141186 0.629157
O O6 0.191359 0.081564 0.808370
O O7 0.281867 0.973306 0.688981
O O8 0.959898 0.428076 0.274647
O O9 0.942998 0.558495 0.123725
O O10 0.074308 0.476888 0.154657
O O11 0.702497 0.750000 0.546593
O O12 0.794360 0.897061 0.552096
O O13 0.660890 0.943026 0.549050
O O14 0.472958 0.250000 0.136860
O O15 0.552019 0.103875 0.073078
O O16 0.130085 0.250000 0.454790
O O17 0.135412 0.150570 0.265913
O O18 0.155826 0.117514 0.024605
#
# Coordination Sequence:
#
# PCOD9465574 Si02
#       8
#     8   8   8   8   8   8   8   8
#     4  10  21  39  57  82 119 159 193 241 302 357
#     4  10  21  36  56  81 116 150 191 241 293 348
#     4  10  21  36  59  86 117 156 197 247 293 353
#     4  10  21  37  58  83 116 156 195 239 295 358
#     4   9  19  34  58  87 115 150 197 245 290 344
#     4   9  17  34  57  81 109 148 192 241 286 339
#     4  11  22  36  60  87 115 154 198 243 293 354
#     4   9  19  38  54  80 115 151 189 233 293 348
#
# _framework density 21.063680000000002
#
# number of rings (size 3 to 8) (size 9 to 14) (size 15 to 20)
#    0.000    2.250    1.250    1.125    1.750    2.500 
#    0.000    2.500    0.000    3.000    0.000    0.000 
#    0.000    0.000    0.000    0.000    0.000    0.000 
#
# Total GULP energy -356696.199666 kJ/mol
# GULP energy per Si atom -5573.378120 kJ/mol
# Density = 2.101574 g / cm^3
# Si number density = 21.063680 Si / 1000 Ang^3
#
#
#
# Elastic Constant Matrix: (Units=GPa)
#
#
# Indices 1 2 3 4 5 6 
#
# 1 46.2620 -15.8890 8.7642 0.0000 0.0000 0.0000
# 2 -15.8890 46.1209 -12.7665 0.0000 0.0000 0.0000
# 3 8.7642 -12.7665 47.5382 0.0000 0.0000 0.0000
# 4 0.0000 0.0000 0.0000 16.4422 0.0000 0.0000
# 5 0.0000 0.0000 0.0000 0.0000 27.1129 0.0000
# 6 0.0000 0.0000 0.0000 0.0000 0.0000 11.6292
#
#
#
# Elastic Compliance Matrix: (Units=1/GPa)
#
#
# Indices 1 2 3 4 5 6 
#
# 1 0.024780 0.007856 -0.002459 0.000000 0.000000 0.000000
# 2 0.007856 0.025914 0.005511 0.000000 0.000000 0.000000
# 3 -0.002459 0.005511 0.022969 0.000000 0.000000 0.000000
# 4 0.000000 0.000000 0.000000 0.060819 0.000000 0.000000
# 5 0.000000 0.000000 0.000000 0.000000 0.036883 0.000000
# 6 0.000000 0.000000 0.000000 0.000000 0.000000 0.085991
#
#
# Mechanical properties :
#
#
# Convention : Reuss Voigt Hill
#
# Bulk Modulus (GPa) = 10.47335 11.12651 10.79993
# Shear Modulus (GPa) = 18.70098 21.69100 20.19599
#
# Velocity S-wave (km/s) = 2.98288 3.21250 3.09982
# Velocity P-wave (km/s) = 4.10444 4.36509 4.23677
#
# Compressibility (1/GPa) = 0.09548044
#
# Stress axis : x y z
#
# Youngs Moduli (GPa) = 40.35493 38.58895 43.53705
#
# Poissons Ratio (x) = -0.30317 0.10704
# Poissons Ratio (y) = -0.31704 -0.23993
# Poissons Ratio (z) = 0.09922 -0.21266
#
# Static dielectric constant tensor:
#      x y z
#    x 1.743300 0.000000 0.000000 
#    y 0.000000 1.776040 0.000000 
#    z 0.000000 0.000000 1.780860 
# 
# From -- ./inp_files/13584.got.cif
#   From: 2010.05.17/outbox.cif.g08.bks.cpg/sg62_7_cif.got.tgz:13584.got - 2010.06.03 15:25:27.
