data_PCOD9465817
_publ_section_title
;
Structure prediction by ZEFSAII (Michael W. Deem and Ramdas Pophale) SiO2 
 PCOD9465817
Probable space group: P N M A
;
_chemical_formula_sum "Si O2"
_cell_formula_units_Z 48
_cell_length_a 28.406657
_cell_length_b 13.497002
_cell_length_c 6.715118
_cell_angle_alpha 90.000000
_cell_angle_beta 90.000000
_cell_angle_gamma 90.000000
_cell_volume 2574.607845
_symmetry_space_group_name_H-M "P N M A"
_symmetry_group_IT_number 62
_symmetry_cell_setting 'orthorhombic'
loop_
_space_group_symop_operation_xyz
x,y,z
1/2-x,-y,1/2+z
1/2+x,1/2-y,1/2-z
-x,1/2+y,-z
-x,-y,-z
1/2+x,y,1/2-z
1/2-x,1/2+y,1/2+z
x,1/2-y,z
loop_
_atom_site_type_symbol
_atom_site_label
_atom_site_fract_x
_atom_site_fract_y
_atom_site_fract_z
Si Si1 0.300991 0.508300 0.538140
Si Si2 0.287382 0.133476 0.192212
Si Si3 0.963065 0.637574 0.020935
Si Si4 0.968154 0.029972 0.688839
Si Si5 0.364748 0.864997 0.243933
Si Si6 0.363286 0.033119 0.925997
O O1 0.253411 0.563650 0.601615
O O2 0.292426 0.407147 0.416748
O O3 0.327386 0.582594 0.387958
O O4 0.333410 0.484783 0.726990
O O5 0.276712 0.250000 0.182849
O O6 0.334697 0.107718 0.068990
O O7 0.968176 0.750000 0.953060
O O8 0.914753 0.627824 0.144391
O O9 0.004455 0.607950 0.172824
O O10 0.962142 0.564733 0.833500
O O11 0.916542 0.064617 0.621523
O O12 0.000000 0.000000 0.500000
O O13 0.353862 0.750000 0.208604
O O14 0.366383 0.928994 0.043844
#
# Coordination Sequence:
#
# PCOD9465817 Si02
#       6
#     8   8   8   8   8   8
#     4  11  22  44  62  93 128 159 207 260 309 373
#     4  11  25  43  66  94 126 166 208 255 314 376
#     4  10  22  38  61  93 121 159 214 259 305 367
#     4  11  22  40  62  87 128 169 200 258 314 363
#     4  10  21  37  63  95 123 155 205 262 312 365
#     4  11  23  41  63  92 127 163 207 254 314 379
#
# _framework density 18.643615
#
# number of rings (size 3 to 8) (size 9 to 14) (size 15 to 20)
#    0.000    1.333    5.000    0.500    0.000    4.000 
#    0.000    1.667    0.000    0.000    0.000    0.000 
#    0.000    0.000    0.000    0.000    0.000    0.000 
#
# Total GULP energy -268155.615611 kJ/mol
# GULP energy per Si atom -5586.575325 kJ/mol
# Density = 1.860118 g / cm^3
# Si number density = 18.643615 Si / 1000 Ang^3
#
#
#
# Elastic Constant Matrix: (Units=GPa)
#
#
# Indices 1 2 3 4 5 6 
#
# 1 102.0923 8.3217 26.8802 0.0000 0.0000 0.0000
# 2 8.3217 51.2838 5.7041 0.0000 0.0000 0.0000
# 3 26.8802 5.7041 78.6196 0.0000 0.0000 0.0000
# 4 0.0000 0.0000 0.0000 9.4201 0.0000 0.0000
# 5 0.0000 0.0000 0.0000 0.0000 39.5258 0.0000
# 6 0.0000 0.0000 0.0000 0.0000 0.0000 18.4554
#
#
#
# Elastic Compliance Matrix: (Units=1/GPa)
#
#
# Indices 1 2 3 4 5 6 
#
# 1 0.010857 -0.001360 -0.003613 0.000000 0.000000 0.000000
# 2 -0.001360 0.019828 -0.000974 0.000000 0.000000 0.000000
# 3 -0.003613 -0.000974 0.014026 0.000000 0.000000 0.000000
# 4 0.000000 0.000000 0.000000 0.106156 0.000000 0.000000
# 5 0.000000 0.000000 0.000000 0.000000 0.025300 0.000000
# 6 0.000000 0.000000 0.000000 0.000000 0.000000 0.054185
#
#
# Mechanical properties :
#
#
# Convention : Reuss Voigt Hill
#
# Bulk Modulus (GPa) = 30.47187 34.86752 32.66969
# Shear Modulus (GPa) = 19.74844 26.21958 22.98401
#
# Velocity S-wave (km/s) = 3.25816 3.75421 3.51495
# Velocity P-wave (km/s) = 5.52576 6.12657 5.83390
#
# Compressibility (1/GPa) = 0.03281716
#
# Stress axis : x y z
#
# Youngs Moduli (GPa) = 92.10389 50.43293 71.29830
#
# Poissons Ratio (x) = 0.06858 0.25763
# Poissons Ratio (y) = 0.12525 0.06942
# Poissons Ratio (z) = 0.33282 0.04911
#
# Static dielectric constant tensor:
#      x y z
#    x 1.651540 0.000000 0.000000 
#    y 0.000000 1.606990 0.000000 
#    z 0.000000 0.000000 1.629750 
# 
# From -- ./inp_files/3187.got.cif
#   From: 2010.05.17/outbox.cif.g08.bks.cpg/sg62_2_cif.got.tgz:3187.got - 2010.06.03 15:25:27.
