data_PCOD9465069
_publ_section_title
;
Structure prediction by ZEFSAII (Michael W. Deem and Ramdas Pophale) SiO2 
 PCOD9465069
Probable space group: P N M A
;
_chemical_formula_sum "Si O2"
_cell_formula_units_Z 24
_cell_length_a 13.093523
_cell_length_b 17.022550
_cell_length_c 5.140105
_cell_angle_alpha 90.000000
_cell_angle_beta 90.000000
_cell_angle_gamma 90.000000
_cell_volume 1145.653074
_symmetry_space_group_name_H-M "P N M A"
_symmetry_group_IT_number 62
_symmetry_cell_setting 'orthorhombic'
loop_
_space_group_symop_operation_xyz
x,y,z
1/2-x,-y,1/2+z
1/2+x,1/2-y,1/2-z
-x,1/2+y,-z
-x,-y,-z
1/2+x,y,1/2-z
1/2-x,1/2+y,1/2+z
x,1/2-y,z
loop_
_atom_site_type_symbol
_atom_site_label
_atom_site_fract_x
_atom_site_fract_y
_atom_site_fract_z
Si Si1 0.225914 0.901890 0.546383
Si Si2 0.821743 0.661764 0.433530
Si Si3 0.594245 0.013594 0.686856
O O1 0.274836 0.854399 0.784695
O O2 0.119925 0.940571 0.628068
O O3 0.304479 0.974347 0.492303
O O4 0.266465 0.148389 0.784544
O O5 0.861830 0.750000 0.416052
O O6 0.902816 0.594422 0.351679
O O7 0.500000 0.000000 0.500000
#
# Coordination Sequence:
#
# PCOD9465069 Si02
#       3
#     8   8   8
#     4  10  20  39  59  85 114 154 201 232 299 351
#     4  10  20  38  59  83 123 153 190 250 297 342
#     4  10  21  39  65  85 118 156 206 240 296 357
#
# _framework density 20.948747999999998
#
# number of rings (size 3 to 8) (size 9 to 14) (size 15 to 20)
#    2.000    0.000    3.333    1.000    0.000    1.333 
#    0.000    3.333    0.000    0.000    0.000    0.000 
#    0.000    0.000    0.000    0.000    0.000    0.000 
#
# Total GULP energy -133742.027252 kJ/mol
# GULP energy per Si atom -5572.584469 kJ/mol
# Density = 2.090107 g / cm^3
# Si number density = 20.948748 Si / 1000 Ang^3
#
#
#
# Elastic Constant Matrix: (Units=GPa)
#
#
# Indices 1 2 3 4 5 6 
#
# 1 48.9339 9.0999 4.3258 0.0000 0.0000 0.0000
# 2 9.0999 69.5899 10.7517 0.0000 0.0000 0.0000
# 3 4.3258 10.7517 111.8493 0.0000 0.0000 0.0000
# 4 0.0000 0.0000 0.0000 20.7568 0.0000 0.0000
# 5 0.0000 0.0000 0.0000 0.0000 27.6172 0.0000
# 6 0.0000 0.0000 0.0000 0.0000 0.0000 5.0747
#
#
#
# Elastic Compliance Matrix: (Units=1/GPa)
#
#
# Indices 1 2 3 4 5 6 
#
# 1 0.020979 -0.002657 -0.000556 0.000000 0.000000 0.000000
# 2 -0.002657 0.014923 -0.001332 0.000000 0.000000 0.000000
# 3 -0.000556 -0.001332 0.009090 0.000000 0.000000 0.000000
# 4 0.000000 0.000000 0.000000 0.048177 0.000000 0.000000
# 5 0.000000 0.000000 0.000000 0.000000 0.036209 0.000000
# 6 0.000000 0.000000 0.000000 0.000000 0.000000 0.197056
#
#
# Mechanical properties :
#
#
# Convention : Reuss Voigt Hill
#
# Bulk Modulus (GPa) = 27.85349 30.96978 29.41163
# Shear Modulus (GPa) = 14.38883 24.43614 19.41248
#
# Velocity S-wave (km/s) = 2.62364 3.41907 3.04742
# Velocity P-wave (km/s) = 4.74372 5.51384 5.14321
#
# Compressibility (1/GPa) = 0.03590214
#
# Stress axis : x y z
#
# Youngs Moduli (GPa) = 47.66661 67.01000 110.00963
#
# Poissons Ratio (x) = 0.17807 0.06116
# Poissons Ratio (y) = 0.12667 0.14650
# Poissons Ratio (z) = 0.02650 0.08924
#
# Static dielectric constant tensor:
#      x y z
#    x 1.771660 0.000000 0.000000 
#    y 0.000000 1.792960 0.000000 
#    z 0.000000 0.000000 1.804880 
# 
# From -- ./inp_files/795.got.cif
#   From: 2010.05.17/outbox.cif.g08.bks.cpg/sg62_1_cif.got.tgz:795.got - 2010.06.03 15:25:27.
