data_PCOD9465134
_publ_section_title
;
Structure prediction by ZEFSAII (Michael W. Deem and Ramdas Pophale) SiO2 
 PCOD9465134
Probable space group: P N M A
;
_chemical_formula_sum "Si O2"
_cell_formula_units_Z 52
_cell_length_a 12.779859
_cell_length_b 7.475150
_cell_length_c 27.688346
_cell_angle_alpha 90.000000
_cell_angle_beta 90.000000
_cell_angle_gamma 90.000000
_cell_volume 2645.105433
_symmetry_space_group_name_H-M "P N M A"
_symmetry_group_IT_number 62
_symmetry_cell_setting 'orthorhombic'
loop_
_space_group_symop_operation_xyz
x,y,z
1/2-x,-y,1/2+z
1/2+x,1/2-y,1/2-z
-x,1/2+y,-z
-x,-y,-z
1/2+x,y,1/2-z
1/2-x,1/2+y,1/2+z
x,1/2-y,z
loop_
_atom_site_type_symbol
_atom_site_label
_atom_site_fract_x
_atom_site_fract_y
_atom_site_fract_z
Si Si1 0.379012 0.250000 0.699120
Si Si2 0.810010 0.533290 0.965588
Si Si3 0.876885 0.960665 0.608966
Si Si4 0.149122 0.250000 0.658234
Si Si5 0.646178 0.037152 0.569935
Si Si6 0.924405 0.250000 0.689522
Si Si7 0.056535 0.046111 0.126956
Si Si8 0.399834 0.463519 0.077979
O O1 0.258512 0.250000 0.683941
O O2 0.383612 0.250000 0.756524
O O3 0.431272 0.421097 0.673182
O O4 0.816555 0.750000 0.966582
O O5 0.686641 0.486628 0.962108
O O6 0.869990 0.476413 0.917120
O O7 0.861981 0.468568 0.014925
O O8 0.882799 0.750000 0.619802
O O9 0.976441 0.004673 0.573981
O O10 0.764863 0.002202 0.586209
O O11 0.891200 0.080283 0.656808
O O12 0.136491 0.423712 0.624283
O O13 0.049867 0.250000 0.692958
O O14 0.628453 0.250000 0.570270
O O15 0.560204 0.956778 0.605351
O O16 0.087470 0.250000 0.137728
O O17 0.390463 0.250000 0.085165
#
# Coordination Sequence:
#
# PCOD9465134 Si02
#       8
#     4   8   8   4   8   4   8   8
#     4  12  24  40  68  94 116 164 209 260 314 363
#     4   9  19  35  59  89 122 163 206 248 305 366
#     4  10  21  40  61  85 122 165 202 256 317 363
#     4  10  20  38  62  88 114 160 196 250 311 348
#     4  11  21  37  60  88 128 170 200 250 311 371
#     4  10  24  42  64  92 124 156 209 262 315 367
#     4  11  23  41  59  86 126 160 205 260 303 370
#     4   9  18  36  59  83 118 156 201 251 288 356
#
# _framework density 19.658950999999998
#
# number of rings (size 3 to 8) (size 9 to 14) (size 15 to 20)
#    0.000    1.846    3.077    0.923    0.000    2.462 
#    5.538    0.000    0.000    0.000    0.000    0.000 
#    0.000    0.000    0.000    0.000    0.000    0.000 
#
# Total GULP energy -290270.793993 kJ/mol
# GULP energy per Si atom -5582.130654 kJ/mol
# Density = 1.961421 g / cm^3
# Si number density = 19.658951 Si / 1000 Ang^3
#
#
#
# Elastic Constant Matrix: (Units=GPa)
#
#
# Indices 1 2 3 4 5 6 
#
# 1 86.8016 -10.7612 -2.6032 0.0000 0.0000 0.0000
# 2 -10.7612 77.9673 3.6416 0.0000 0.0000 0.0000
# 3 -2.6032 3.6416 34.9815 0.0000 0.0000 0.0000
# 4 0.0000 0.0000 0.0000 3.2403 0.0000 0.0000
# 5 0.0000 0.0000 0.0000 0.0000 15.7202 0.0000
# 6 0.0000 0.0000 0.0000 0.0000 0.0000 -5.2262
#
#
#
# Elastic Compliance Matrix: (Units=1/GPa)
#
#
# Indices 1 2 3 4 5 6 
#
# 1 0.011739 0.001587 0.000708 0.000000 0.000000 0.000000
# 2 0.001587 0.013103 -0.001246 0.000000 0.000000 0.000000
# 3 0.000708 -0.001246 0.028769 0.000000 0.000000 0.000000
# 4 0.000000 0.000000 0.000000 0.308609 0.000000 0.000000
# 5 0.000000 0.000000 0.000000 0.000000 0.063612 0.000000
# 6 0.000000 0.000000 0.000000 0.000000 0.000000 -0.191342
#
#
# Mechanical properties :
#
#
# Convention : Reuss Voigt Hill
#
# Bulk Modulus (GPa) = 17.95023 20.03385 18.99204
# Shear Modulus (GPa) = 19.92341 16.71175 18.31758
#
# Velocity S-wave (km/s) = 3.18693 2.91878 3.05580
# Velocity P-wave (km/s) = 4.76368 4.64455 4.70450
#
# Compressibility (1/GPa) = 0.05570959
#
# Stress axis : x y z
#
# Youngs Moduli (GPa) = 85.18956 76.31761 34.75971
#
# Poissons Ratio (x) = -0.12112 -0.02462
# Poissons Ratio (y) = -0.13520 0.04331
# Poissons Ratio (z) = -0.06034 0.09509
#
# Static dielectric constant tensor:
#      x y z
#    x 1.723340 0.000000 0.000000 
#    y 0.000000 1.735760 0.000000 
#    z 0.000000 0.000000 1.645550 
# 
# From -- ./inp_files/31100.got.cif
#   From: 2010.05.17/outbox.cif.g08.bks.cpg/sg62_16_cif.got.tgz:31100.got - 2010.06.03 15:25:27.
