data_PCOD9465109
_publ_section_title
;
Structure prediction by ZEFSAII (Michael W. Deem and Ramdas Pophale) SiO2 
 PCOD9465109
Probable space group: P N M A
;
_chemical_formula_sum "Si O2"
_cell_formula_units_Z 48
_cell_length_a 8.345117
_cell_length_b 10.943170
_cell_length_c 22.596579
_cell_angle_alpha 90.000000
_cell_angle_beta 90.000000
_cell_angle_gamma 90.000000
_cell_volume 2063.565556
_symmetry_space_group_name_H-M "P N M A"
_symmetry_group_IT_number 62
_symmetry_cell_setting 'orthorhombic'
loop_
_space_group_symop_operation_xyz
x,y,z
1/2-x,-y,1/2+z
1/2+x,1/2-y,1/2-z
-x,1/2+y,-z
-x,-y,-z
1/2+x,y,1/2-z
1/2-x,1/2+y,1/2+z
x,1/2-y,z
loop_
_atom_site_type_symbol
_atom_site_label
_atom_site_fract_x
_atom_site_fract_y
_atom_site_fract_z
Si Si1 0.041932 0.519639 0.341369
Si Si2 0.682436 0.112351 0.928766
Si Si3 0.945831 0.975319 0.855257
Si Si4 0.892155 0.394441 0.031960
Si Si5 0.850417 0.891642 0.232112
Si Si6 0.447994 0.750000 0.835225
Si Si7 0.304623 0.750000 0.714011
O O1 0.990246 0.596039 0.398915
O O2 0.900991 0.536410 0.291518
O O3 0.060283 0.381540 0.364295
O O4 0.194830 0.562957 0.303661
O O5 0.736197 0.250000 0.914427
O O6 0.721160 0.097032 0.998337
O O7 0.798030 0.017206 0.895591
O O8 0.084119 0.927816 0.899642
O O9 0.894230 0.866643 0.812545
O O10 0.008006 0.085196 0.814990
O O11 0.943614 0.250000 0.025094
O O12 0.000000 0.500000 0.000000
O O13 0.834114 0.750000 0.247374
O O14 0.316282 0.750000 0.784029
O O15 0.622132 0.750000 0.805038
#
# Coordination Sequence:
#
# PCOD9465109 Si02
#       7
#     8   8   8   8   8   4   4
#     4  12  24  41  61  87 121 158 203 249 309 360
#     4  10  20  38  61  88 121 157 199 253 299 361
#     4  11  21  37  61  90 120 160 200 251 301 362
#     4   9  19  35  61  91 121 158 207 252 310 362
#     4  12  25  40  61  89 122 160 200 249 303 372
#     4  12  24  40  58  90 120 158 202 249 299 366
#     4  12  22  38  60  86 128 154 202 249 297 366
#
# _framework density 23.26071
#
# number of rings (size 3 to 8) (size 9 to 14) (size 15 to 20)
#    0.000    1.000    4.167    4.000    0.000    0.667 
#    0.000    0.833    0.000    0.000    0.000    0.000 
#    0.000    0.000    0.000    0.000    0.000    0.000 
#
# Total GULP energy -268081.993189 kJ/mol
# GULP energy per Si atom -5585.041525 kJ/mol
# Density = 2.320777 g / cm^3
# Si number density = 23.260710 Si / 1000 Ang^3
#
#
#
# Elastic Constant Matrix: (Units=GPa)
#
#
# Indices 1 2 3 4 5 6 
#
# 1 58.0070 0.1216 7.6569 0.0000 0.0000 0.0000
# 2 0.1216 140.4993 23.2073 0.0000 0.0000 0.0000
# 3 7.6569 23.2073 48.6118 0.0000 0.0000 0.0000
# 4 0.0000 0.0000 0.0000 28.4128 0.0000 0.0000
# 5 0.0000 0.0000 0.0000 0.0000 32.5220 0.0000
# 6 0.0000 0.0000 0.0000 0.0000 0.0000 17.0625
#
#
#
# Elastic Compliance Matrix: (Units=1/GPa)
#
#
# Indices 1 2 3 4 5 6 
#
# 1 0.017635 0.000482 -0.003008 0.000000 0.000000 0.000000
# 2 0.000482 0.007740 -0.003771 0.000000 0.000000 0.000000
# 3 -0.003008 -0.003771 0.022845 0.000000 0.000000 0.000000
# 4 0.000000 0.000000 0.000000 0.035195 0.000000 0.000000
# 5 0.000000 0.000000 0.000000 0.000000 0.030748 0.000000
# 6 0.000000 0.000000 0.000000 0.000000 0.000000 0.058608
#
#
# Mechanical properties :
#
#
# Convention : Reuss Voigt Hill
#
# Bulk Modulus (GPa) = 28.06913 34.34330 31.20621
# Shear Modulus (GPa) = 25.34960 30.00828 27.67894
#
# Velocity S-wave (km/s) = 3.30480 3.59567 3.45330
# Velocity P-wave (km/s) = 5.16291 5.65995 5.41713
#
# Compressibility (1/GPa) = 0.03562632
#
# Stress axis : x y z
#
# Youngs Moduli (GPa) = 56.70442 129.20036 43.77307
#
# Poissons Ratio (x) = -0.06221 0.13165
# Poissons Ratio (y) = -0.02731 0.16506
# Poissons Ratio (z) = 0.17055 0.48720
#
# Static dielectric constant tensor:
#      x y z
#    x 1.963030 0.000000 0.000000 
#    y 0.000000 1.841970 0.000000 
#    z 0.000000 0.000000 1.862330 
# 
# From -- ./inp_files/28841.got.cif
#   From: 2010.05.17/outbox.cif.g08.bks.cpg/sg62_15_cif.got.tgz:28841.got - 2010.06.03 15:25:27.
