data_PCOD9465311
_publ_section_title
;
Structure prediction by ZEFSAII (Michael W. Deem and Ramdas Pophale) SiO2 
 PCOD9465311
Probable space group: P N M A
;
_chemical_formula_sum "Si O2"
_cell_formula_units_Z 60
_cell_length_a 12.509130
_cell_length_b 25.953643
_cell_length_c 8.504507
_cell_angle_alpha 90.000000
_cell_angle_beta 90.000000
_cell_angle_gamma 90.000000
_cell_volume 2761.051933
_symmetry_space_group_name_H-M "P N M A"
_symmetry_group_IT_number 62
_symmetry_cell_setting 'orthorhombic'
loop_
_space_group_symop_operation_xyz
x,y,z
1/2-x,-y,1/2+z
1/2+x,1/2-y,1/2-z
-x,1/2+y,-z
-x,-y,-z
1/2+x,y,1/2-z
1/2-x,1/2+y,1/2+z
x,1/2-y,z
loop_
_atom_site_type_symbol
_atom_site_label
_atom_site_fract_x
_atom_site_fract_y
_atom_site_fract_z
Si Si1 0.544228 0.072389 0.288859
Si Si2 0.419967 0.750000 0.762509
Si Si3 0.348811 0.100551 0.485170
Si Si4 0.520635 0.617431 0.230640
Si Si5 0.452468 0.160065 0.070038
Si Si6 0.827057 0.542750 0.302316
Si Si7 0.273418 0.849374 0.690394
Si Si8 0.643030 0.520320 0.098788
O O1 0.442915 0.067222 0.403385
O O2 0.502890 0.108724 0.147251
O O3 0.643460 0.105608 0.357384
O O4 0.588556 0.020039 0.217854
O O5 0.504835 0.705493 0.822596
O O6 0.335316 0.796249 0.714459
O O7 0.418589 0.133014 0.611155
O O8 0.261397 0.069922 0.585718
O O9 0.284999 0.131853 0.352223
O O10 0.412978 0.584791 0.250399
O O11 0.595688 0.575836 0.139644
O O12 0.504579 0.663148 0.107453
O O13 0.324841 0.157517 0.072552
O O14 0.766338 0.520781 0.151813
O O15 0.872033 0.499096 0.420912
#
# Coordination Sequence:
#
# PCOD9465311 Si02
#       8
#     8   4   8   8   8   8   8   8
#     4  10  21  37  61  86 121 164 210 260 297 360
#     4  10  20  40  66  92 114 150 198 262 324 384
#     4  10  23  39  60  88 120 162 212 251 312 372
#     4  11  24  38  56  87 130 166 206 257 308 381
#     4  10  21  38  63  89 118 157 200 258 326 378
#     4  11  23  37  53  83 122 171 208 259 297 352
#     4  10  20  39  65  89 116 153 204 267 314 372
#     4  11  24  34  58  84 125 169 221 247 306 359
#
# _framework density 21.730847000000001
#
# number of rings (size 3 to 8) (size 9 to 14) (size 15 to 20)
#    0.000    1.600    2.667    1.600    5.600    2.133 
#    0.000    0.667    0.000    4.800    0.000    0.000 
#    0.000    0.000    0.000    0.000    0.000    0.000 
#
# Total GULP energy -334327.958675 kJ/mol
# GULP energy per Si atom -5572.132645 kJ/mol
# Density = 2.168139 g / cm^3
# Si number density = 21.730847 Si / 1000 Ang^3
#
#
#
# Elastic Constant Matrix: (Units=GPa)
#
#
# Indices 1 2 3 4 5 6 
#
# 1 116.6322 23.0493 14.5362 0.0000 0.0000 0.0000
# 2 23.0493 61.5974 2.4526 0.0000 0.0000 0.0000
# 3 14.5362 2.4526 40.7021 0.0000 0.0000 0.0000
# 4 0.0000 0.0000 0.0000 9.3200 0.0000 0.0000
# 5 0.0000 0.0000 0.0000 0.0000 27.8677 0.0000
# 6 0.0000 0.0000 0.0000 0.0000 0.0000 24.1669
#
#
#
# Elastic Compliance Matrix: (Units=1/GPa)
#
#
# Indices 1 2 3 4 5 6 
#
# 1 0.009667 -0.003488 -0.003242 0.000000 0.000000 0.000000
# 2 -0.003488 0.017532 0.000189 0.000000 0.000000 0.000000
# 3 -0.003242 0.000189 0.025715 0.000000 0.000000 0.000000
# 4 0.000000 0.000000 0.000000 0.107296 0.000000 0.000000
# 5 0.000000 0.000000 0.000000 0.000000 0.035884 0.000000
# 6 0.000000 0.000000 0.000000 0.000000 0.000000 0.041379
#
#
# Mechanical properties :
#
#
# Convention : Reuss Voigt Hill
#
# Bulk Modulus (GPa) = 25.10527 33.22307 29.16417
# Shear Modulus (GPa) = 18.95130 24.19716 21.57423
#
# Velocity S-wave (km/s) = 2.95632 3.34052 3.15428
# Velocity P-wave (km/s) = 4.81986 5.49549 5.16873
#
# Compressibility (1/GPa) = 0.03983227
#
# Stress axis : x y z
#
# Youngs Moduli (GPa) = 103.43977 57.03776 38.88727
#
# Poissons Ratio (x) = 0.19897 0.12609
# Poissons Ratio (y) = 0.36084 -0.00737
# Poissons Ratio (z) = 0.33539 -0.01080
#
# Static dielectric constant tensor:
#      x y z
#    x 1.851130 0.000000 0.000000 
#    y 0.000000 1.777550 0.000000 
#    z 0.000000 0.000000 1.854120 
# 
# From -- ./inp_files/5436.got.cif
#   From: 2010.05.17/outbox.cif.g08.bks.cpg/sg62_3_cif.got.tgz:5436.got - 2010.06.03 15:25:27.
