data_PCOD9465756
_publ_section_title
;
Structure prediction by ZEFSAII (Michael W. Deem and Ramdas Pophale) SiO2 
 PCOD9465756
Probable space group: P N M A
;
_chemical_formula_sum "Si O2"
_cell_formula_units_Z 56
_cell_length_a 20.395868
_cell_length_b 8.965889
_cell_length_c 16.277581
_cell_angle_alpha 90.000000
_cell_angle_beta 90.000000
_cell_angle_gamma 90.000000
_cell_volume 2976.633846
_symmetry_space_group_name_H-M "P N M A"
_symmetry_group_IT_number 62
_symmetry_cell_setting 'orthorhombic'
loop_
_space_group_symop_operation_xyz
x,y,z
1/2-x,-y,1/2+z
1/2+x,1/2-y,1/2-z
-x,1/2+y,-z
-x,-y,-z
1/2+x,y,1/2-z
1/2-x,1/2+y,1/2+z
x,1/2-y,z
loop_
_atom_site_type_symbol
_atom_site_label
_atom_site_fract_x
_atom_site_fract_y
_atom_site_fract_z
Si Si1 0.826239 0.073311 0.007413
Si Si2 0.534662 0.571399 0.744296
Si Si3 0.193904 0.572400 0.184769
Si Si4 0.832612 0.428587 0.337695
Si Si5 0.898467 0.928857 0.679181
Si Si6 0.674963 0.071135 0.014569
Si Si7 0.544671 0.073017 0.570234
O O1 0.839003 0.250000 0.019997
O O2 0.751619 0.041812 0.034581
O O3 0.880926 0.979008 0.053195
O O4 0.828158 0.042756 0.909432
O O5 0.534813 0.750000 0.729307
O O6 0.604341 0.530445 0.783651
O O7 0.474711 0.538076 0.805561
O O8 0.523969 0.488010 0.658898
O O9 0.198858 0.750000 0.193591
O O10 0.265448 0.499864 0.195119
O O11 0.143633 0.505519 0.249623
O O12 0.826501 0.250000 0.338193
O O13 0.841394 0.488147 0.430305
O O14 0.889665 0.750000 0.685938
O O15 0.870732 0.972998 0.590348
O O16 0.669828 0.250000 0.000898
O O17 0.538626 0.250000 0.566797
O O18 0.500000 0.000000 0.500000
#
# Coordination Sequence:
#
# PCOD9465756 Si02
#       7
#     8   8   8   8   8   8   8
#     4   9  19  37  58  82 115 151 190 238 293 348
#     4  10  23  41  60  85 119 157 198 240 290 353
#     4  10  21  37  59  87 118 152 192 243 295 348
#     4  10  21  38  60  86 117 156 197 241 293 348
#     4  10  21  38  60  86 116 155 197 239 292 350
#     4   9  20  38  60  86 116 151 192 241 293 344
#     4  12  25  39  59  86 118 155 196 242 295 354
#
# _framework density 18.813196999999999
#
# number of rings (size 3 to 8) (size 9 to 14) (size 15 to 20)
#    0.000    2.000    0.000    3.857    2.000    8.000 
#    0.000    0.000    0.000    0.000    0.000    0.000 
#    0.000    0.000    0.000    0.000    0.000    0.000 
#
# Total GULP energy -312934.302077 kJ/mol
# GULP energy per Si atom -5588.112537 kJ/mol
# Density = 1.877038 g / cm^3
# Si number density = 18.813197 Si / 1000 Ang^3
#
#
#
# Elastic Constant Matrix: (Units=GPa)
#
#
# Indices 1 2 3 4 5 6 
#
# 1 50.3897 17.1244 13.7148 0.0000 0.0000 0.0000
# 2 17.1244 27.1945 12.1857 0.0000 0.0000 0.0000
# 3 13.7148 12.1857 25.5304 0.0000 0.0000 0.0000
# 4 0.0000 0.0000 0.0000 32.4951 0.0000 0.0000
# 5 0.0000 0.0000 0.0000 0.0000 31.7261 0.0000
# 6 0.0000 0.0000 0.0000 0.0000 0.0000 23.2993
#
#
#
# Elastic Compliance Matrix: (Units=1/GPa)
#
#
# Indices 1 2 3 4 5 6 
#
# 1 0.026464 -0.013095 -0.007966 0.000000 0.000000 0.000000
# 2 -0.013095 0.053256 -0.018385 0.000000 0.000000 0.000000
# 3 -0.007966 -0.018385 0.052223 0.000000 0.000000 0.000000
# 4 0.000000 0.000000 0.000000 0.030774 0.000000 0.000000
# 5 0.000000 0.000000 0.000000 0.000000 0.031520 0.000000
# 6 0.000000 0.000000 0.000000 0.000000 0.000000 0.042920
#
#
# Mechanical properties :
#
#
# Convention : Reuss Voigt Hill
#
# Bulk Modulus (GPa) = 18.84941 21.01829 19.93385
# Shear Modulus (GPa) = 14.98211 21.51006 18.24609
#
# Velocity S-wave (km/s) = 2.82505 3.38501 3.11763
# Velocity P-wave (km/s) = 4.54777 5.14530 4.85573
#
# Compressibility (1/GPa) = 0.05305205
#
# Stress axis : x y z
#
# Youngs Moduli (GPa) = 37.78778 18.77724 19.14848
#
# Poissons Ratio (x) = 0.24588 0.15254
# Poissons Ratio (y) = 0.49482 0.35204
# Poissons Ratio (z) = 0.30102 0.34522
#
# Static dielectric constant tensor:
#      x y z
#    x 1.644960 0.000000 0.000000 
#    y 0.000000 1.625310 0.000000 
#    z 0.000000 0.000000 1.628230 
# 
# From -- ./inp_files/20232.got.cif
#   From: 2010.05.17/outbox.cif.g08.bks.cpg/sg62_11_cif.got.tgz:20232.got - 2010.06.03 15:25:27.
