data_PCOD9465898
_publ_section_title
;
Structure prediction by ZEFSAII (Michael W. Deem and Ramdas Pophale) SiO2 
 PCOD9465898
Probable space group: P N M A
;
_chemical_formula_sum "Si O2"
_cell_formula_units_Z 64
_cell_length_a 12.129430
_cell_length_b 8.829417
_cell_length_c 31.359548
_cell_angle_alpha 90.000000
_cell_angle_beta 90.000000
_cell_angle_gamma 90.000000
_cell_volume 3358.475738
_symmetry_space_group_name_H-M "P N M A"
_symmetry_group_IT_number 62
_symmetry_cell_setting 'orthorhombic'
loop_
_space_group_symop_operation_xyz
x,y,z
1/2-x,-y,1/2+z
1/2+x,1/2-y,1/2-z
-x,1/2+y,-z
-x,-y,-z
1/2+x,y,1/2-z
1/2-x,1/2+y,1/2+z
x,1/2-y,z
loop_
_atom_site_type_symbol
_atom_site_label
_atom_site_fract_x
_atom_site_fract_y
_atom_site_fract_z
Si Si1 0.210723 0.567705 0.453889
Si Si2 0.496276 0.571979 0.165164
Si Si3 0.987826 0.430798 0.427773
Si Si4 0.202454 0.430021 0.291247
Si Si5 0.096252 0.932475 0.121619
Si Si6 0.749389 0.928915 0.299449
Si Si7 0.340679 0.933249 0.368281
Si Si8 0.739317 0.067618 0.453544
O O1 0.203081 0.750000 0.453709
O O2 0.087332 0.502893 0.454337
O O3 0.272427 0.521391 0.410546
O O4 0.274644 0.523451 0.496978
O O5 0.519354 0.750000 0.158100
O O6 0.505598 0.485474 0.120565
O O7 0.585016 0.504111 0.197353
O O8 0.372983 0.556165 0.182773
O O9 0.994401 0.250000 0.430777
O O10 0.864516 0.477546 0.441089
O O11 0.196180 0.250000 0.294520
O O12 0.235845 0.480570 0.244037
O O13 0.287032 0.493656 0.326583
O O14 0.102122 0.750000 0.119446
O O15 0.165580 0.979469 0.163422
O O16 0.968525 0.975405 0.126109
O O17 0.154143 0.997387 0.079592
O O18 0.729322 0.750000 0.290968
O O19 0.334081 0.750000 0.364439
O O20 0.732570 0.250000 0.450424
#
# Coordination Sequence:
#
# PCOD9465898 Si02
#       8
#     8   8   8   8   8   8   8   8
#     4  10  21  38  60  86 120 165 204 243 302 364
#     4  11  22  40  66  90 119 159 200 244 296 360
#     4  11  21  35  58  90 124 155 197 255 306 351
#     4  12  26  41  62  93 126 156 197 249 306 357
#     4  10  22  41  63  88 116 156 207 251 294 356
#     4  10  23  42  64  89 118 158 205 245 295 360
#     4  10  22  41  63  86 119 161 207 250 292 355
#     4  10  22  38  58  88 124 159 199 250 308 361
#
# _framework density 19.056263999999999
#
# number of rings (size 3 to 8) (size 9 to 14) (size 15 to 20)
#    0.000    1.500    2.500    2.250    1.750    3.500 
#    0.000    0.000    0.000    0.000    0.000    0.000 
#    0.000    0.000    0.000    0.000    0.000    0.000 
#
# Total GULP energy -357721.288634 kJ/mol
# GULP energy per Si atom -5589.395135 kJ/mol
# Density = 1.901289 g / cm^3
# Si number density = 19.056264 Si / 1000 Ang^3
#
#
#
# Elastic Constant Matrix: (Units=GPa)
#
#
# Indices 1 2 3 4 5 6 
#
# 1 93.1438 26.2014 17.7579 0.0000 0.0000 0.0000
# 2 26.2014 15.6982 14.1752 0.0000 0.0000 0.0000
# 3 17.7579 14.1752 84.7591 0.0000 0.0000 0.0000
# 4 0.0000 0.0000 0.0000 29.4050 0.0000 0.0000
# 5 0.0000 0.0000 0.0000 0.0000 9.0421 0.0000
# 6 0.0000 0.0000 0.0000 0.0000 0.0000 22.1128
#
#
#
# Elastic Compliance Matrix: (Units=1/GPa)
#
#
# Indices 1 2 3 4 5 6 
#
# 1 0.020438 -0.035626 0.001676 0.000000 0.000000 0.000000
# 2 -0.035626 0.137133 -0.015470 0.000000 0.000000 0.000000
# 3 0.001676 -0.015470 0.014034 0.000000 0.000000 0.000000
# 4 0.000000 0.000000 0.000000 0.034008 0.000000 0.000000
# 5 0.000000 0.000000 0.000000 0.000000 0.110594 0.000000
# 6 0.000000 0.000000 0.000000 0.000000 0.000000 0.045223
#
#
# Mechanical properties :
#
#
# Convention : Reuss Voigt Hill
#
# Bulk Modulus (GPa) = 13.74287 34.43000 24.08644
# Shear Modulus (GPa) = 10.31938 21.14310 15.73124
#
# Velocity S-wave (km/s) = 2.32959 3.33454 2.87630
# Velocity P-wave (km/s) = 3.80307 5.73867 4.86804
#
# Compressibility (1/GPa) = 0.07276500
#
# Stress axis : x y z
#
# Youngs Moduli (GPa) = 48.92806 7.29219 71.25433
#
# Poissons Ratio (x) = 0.25979 -0.11943
# Poissons Ratio (y) = 1.74312 1.10232
# Poissons Ratio (z) = -0.08201 0.11281
#
# Static dielectric constant tensor:
#      x y z
#    x 1.643240 0.000000 0.000000 
#    y 0.000000 1.644020 0.000000 
#    z 0.000000 0.000000 1.648930 
# 
# From -- ./inp_files/32461.got.cif
#   From: 2010.05.17/outbox.cif.g08.bks.cpg/sg62_17_cif.got.tgz:32461.got - 2010.06.03 15:25:27.
