data_PCOD9465151
_publ_section_title
;
Structure prediction by ZEFSAII (Michael W. Deem and Ramdas Pophale) SiO2 
 PCOD9465151
Probable space group: P N M A
;
_chemical_formula_sum "Si O2"
_cell_formula_units_Z 56
_cell_length_a 15.616197
_cell_length_b 8.372479
_cell_length_c 19.366154
_cell_angle_alpha 90.000000
_cell_angle_beta 90.000000
_cell_angle_gamma 90.000000
_cell_volume 2532.052621
_symmetry_space_group_name_H-M "P N M A"
_symmetry_group_IT_number 62
_symmetry_cell_setting 'orthorhombic'
loop_
_space_group_symop_operation_xyz
x,y,z
1/2-x,-y,1/2+z
1/2+x,1/2-y,1/2-z
-x,1/2+y,-z
-x,-y,-z
1/2+x,y,1/2-z
1/2-x,1/2+y,1/2+z
x,1/2-y,z
loop_
_atom_site_type_symbol
_atom_site_label
_atom_site_fract_x
_atom_site_fract_y
_atom_site_fract_z
Si Si1 0.830523 0.566883 0.146105
Si Si2 0.169815 0.934162 0.141308
Si Si3 0.666875 0.566560 0.919931
Si Si4 0.094540 0.066305 0.007817
Si Si5 0.499257 0.058254 0.719694
Si Si6 0.316561 0.932155 0.933678
Si Si7 0.987964 0.433564 0.617319
O O1 0.814033 0.750000 0.168670
O O2 0.867145 0.567166 0.068380
O O3 0.740223 0.480565 0.133136
O O4 0.909170 0.497208 0.190995
O O5 0.183693 0.750000 0.161189
O O6 0.089105 0.001026 0.184798
O O7 0.261222 0.020855 0.136576
O O8 0.138114 0.950580 0.062648
O O9 0.643334 0.750000 0.911269
O O10 0.582167 0.461612 0.912195
O O11 0.699841 0.539201 0.998283
O O12 0.097570 0.250000 0.033881
O O13 0.000000 0.000000 0.000000
O O14 0.501065 0.250000 0.704088
O O15 0.493663 0.036670 0.801049
O O16 0.297092 0.750000 0.951850
O O17 0.415803 0.956090 0.915446
O O18 0.961274 0.250000 0.605729
#
# Coordination Sequence:
#
# PCOD9465151 Si02
#       7
#     8   8   8   8   8   8   8
#     4  10  20  38  62  92 127 163 206 253 304 367
#     4  11  21  38  63  94 127 162 207 254 306 371
#     4  12  25  43  65  94 126 160 205 261 317 369
#     4  11  20  32  56  89 128 165 203 253 311 365
#     4   9  21  41  65  92 126 168 210 247 298 372
#     4  12  25  42  65  95 125 160 206 260 316 369
#     4  11  24  45  68  89 119 166 214 258 306 364
#
# _framework density 22.116444999999999
#
# number of rings (size 3 to 8) (size 9 to 14) (size 15 to 20)
#    0.000    1.143    2.857    4.286    0.000    1.714 
#    0.000   10.000    0.000    0.000    0.000    0.000 
#    0.000    0.000    0.000    0.000    0.000    0.000 
#
# Total GULP energy -312842.315266 kJ/mol
# GULP energy per Si atom -5586.469915 kJ/mol
# Density = 2.206611 g / cm^3
# Si number density = 22.116445 Si / 1000 Ang^3
#
#
#
# Elastic Constant Matrix: (Units=GPa)
#
#
# Indices 1 2 3 4 5 6 
#
# 1 103.6375 -13.6820 14.2143 0.0000 0.0000 0.0000
# 2 -13.6820 39.3087 6.0773 0.0000 0.0000 0.0000
# 3 14.2143 6.0773 31.7024 0.0000 0.0000 0.0000
# 4 0.0000 0.0000 0.0000 14.1430 0.0000 0.0000
# 5 0.0000 0.0000 0.0000 0.0000 25.7649 0.0000
# 6 0.0000 0.0000 0.0000 0.0000 0.0000 18.9490
#
#
#
# Elastic Compliance Matrix: (Units=1/GPa)
#
#
# Indices 1 2 3 4 5 6 
#
# 1 0.011086 0.004768 -0.005885 0.000000 0.000000 0.000000
# 2 0.004768 0.028268 -0.007557 0.000000 0.000000 0.000000
# 3 -0.005885 -0.007557 0.035630 0.000000 0.000000 0.000000
# 4 0.000000 0.000000 0.000000 0.070706 0.000000 0.000000
# 5 0.000000 0.000000 0.000000 0.000000 0.038812 0.000000
# 6 0.000000 0.000000 0.000000 0.000000 0.000000 0.052773
#
#
# Mechanical properties :
#
#
# Convention : Reuss Voigt Hill
#
# Bulk Modulus (GPa) = 17.34979 20.87421 19.11200
# Shear Modulus (GPa) = 18.25921 22.97398 20.61659
#
# Velocity S-wave (km/s) = 2.87643 3.22650 3.05648
# Velocity P-wave (km/s) = 4.34668 4.83107 4.59526
#
# Compressibility (1/GPa) = 0.05763760
#
# Stress axis : x y z
#
# Youngs Moduli (GPa) = 90.20707 35.37613 28.06587
#
# Poissons Ratio (x) = -0.16868 0.16515
# Poissons Ratio (y) = -0.43013 0.21209
# Poissons Ratio (z) = 0.53083 0.26733
#
# Static dielectric constant tensor:
#      x y z
#    x 1.845130 0.000000 0.000000 
#    y 0.000000 1.787140 0.000000 
#    z 0.000000 0.000000 1.792280 
# 
# From -- ./inp_files/27173.got.cif
#   From: 2010.05.17/outbox.cif.g08.bks.cpg/sg62_14_cif.got.tgz:27173.got - 2010.06.03 15:25:27.
