data_PCOD9465829
_publ_section_title
;
Structure prediction by ZEFSAII (Michael W. Deem and Ramdas Pophale) SiO2 
 PCOD9465829
Probable space group: P N M A
;
_chemical_formula_sum "Si O2"
_cell_formula_units_Z 40
_cell_length_a 13.798103
_cell_length_b 8.746950
_cell_length_c 18.505754
_cell_angle_alpha 90.000000
_cell_angle_beta 90.000000
_cell_angle_gamma 90.000000
_cell_volume 2233.483823
_symmetry_space_group_name_H-M "P N M A"
_symmetry_group_IT_number 62
_symmetry_cell_setting 'orthorhombic'
loop_
_space_group_symop_operation_xyz
x,y,z
1/2-x,-y,1/2+z
1/2+x,1/2-y,1/2-z
-x,1/2+y,-z
-x,-y,-z
1/2+x,y,1/2-z
1/2-x,1/2+y,1/2+z
x,1/2-y,z
loop_
_atom_site_type_symbol
_atom_site_label
_atom_site_fract_x
_atom_site_fract_y
_atom_site_fract_z
Si Si1 0.912406 0.433462 0.163910
Si Si2 0.307524 0.566047 0.475518
Si Si3 0.813924 0.434387 0.315987
Si Si4 0.381714 0.067594 0.624655
Si Si5 0.902478 0.066908 0.467469
O O1 0.918573 0.250000 0.159013
O O2 0.849649 0.497354 0.097554
O O3 0.862657 0.473172 0.240114
O O4 0.019095 0.503821 0.157190
O O5 0.315219 0.750000 0.475070
O O6 0.365517 0.502056 0.544662
O O7 0.194851 0.523761 0.488655
O O8 0.800134 0.250000 0.319383
O O9 0.710584 0.512831 0.328903
O O10 0.881189 0.477968 0.384364
O O11 0.384640 0.250000 0.620053
O O12 0.909439 0.250000 0.469411
O O13 0.000000 0.000000 0.500000
#
# Coordination Sequence:
#
# PCOD9465829 Si02
#       5
#     8   8   8   8   8
#     4  11  22  37  59  84 111 146 186 228 278 333
#     4  10  21  38  57  81 113 146 186 231 276 329
#     4   9  21  40  57  78 111 148 184 225 275 329
#     4  11  22  37  58  82 111 146 184 229 278 328
#     4   9  19  36  57  79 107 144 182 223 270 323
#
# _framework density 17.909241999999999
#
# number of rings (size 3 to 8) (size 9 to 14) (size 15 to 20)
#    0.000    2.000    0.000    4.800    0.000    7.200 
#    0.000    6.000    0.000    0.000    0.000    0.000 
#    0.000    0.000    0.000    0.000    0.000    0.000 
#
# Total GULP energy -223431.711752 kJ/mol
# GULP energy per Si atom -5585.792794 kJ/mol
# Density = 1.786848 g / cm^3
# Si number density = 17.909242 Si / 1000 Ang^3
#
#
#
# Elastic Constant Matrix: (Units=GPa)
#
#
# Indices 1 2 3 4 5 6 
#
# 1 151.9642 64.4479 128.9395 0.0000 0.0000 0.0000
# 2 64.4479 66.0026 65.3711 0.0000 0.0000 0.0000
# 3 128.9395 65.3711 160.8407 0.0000 0.0000 0.0000
# 4 0.0000 0.0000 0.0000 31.2397 0.0000 0.0000
# 5 0.0000 0.0000 0.0000 0.0000 21.9180 0.0000
# 6 0.0000 0.0000 0.0000 0.0000 0.0000 37.3890
#
#
#
# Elastic Compliance Matrix: (Units=1/GPa)
#
#
# Indices 1 2 3 4 5 6 
#
# 1 0.022261 -0.006798 -0.015083 0.000000 0.000000 0.000000
# 2 -0.006798 0.027435 -0.005701 0.000000 0.000000 0.000000
# 3 -0.015083 -0.005701 0.020626 0.000000 0.000000 0.000000
# 4 0.000000 0.000000 0.000000 0.032011 0.000000 0.000000
# 5 0.000000 0.000000 0.000000 0.000000 0.045625 0.000000
# 6 0.000000 0.000000 0.000000 0.000000 0.000000 0.026746
#
#
# Mechanical properties :
#
#
# Convention : Reuss Voigt Hill
#
# Bulk Modulus (GPa) = 65.97019 99.59162 82.78090
# Shear Modulus (GPa) = 21.28385 26.11260 23.69823
#
# Velocity S-wave (km/s) = 3.45110 3.82259 3.64158
# Velocity P-wave (km/s) = 7.26608 8.67252 8.00027
#
# Compressibility (1/GPa) = 0.01515836
#
# Stress axis : x y z
#
# Youngs Moduli (GPa) = 44.92097 36.44946 48.48336
#
# Poissons Ratio (x) = 0.24780 0.73127
# Poissons Ratio (y) = 0.30539 0.27639
# Poissons Ratio (z) = 0.67754 0.20779
#
# Static dielectric constant tensor:
#      x y z
#    x 1.590670 0.000000 0.000000 
#    y 0.000000 1.598210 0.000000 
#    z 0.000000 0.000000 1.592540 
# 
# From -- ./inp_files/22768.got.cif
#   From: 2010.05.17/outbox.cif.g08.bks.cpg/sg62_12_cif.got.tgz:22768.got - 2010.06.03 15:25:27.
