data_PCOD9465079
_publ_section_title
;
Structure prediction by ZEFSAII (Michael W. Deem and Ramdas Pophale) SiO2 
 PCOD9465079
Probable space group: P N M A
;
_chemical_formula_sum "Si O2"
_cell_formula_units_Z 48
_cell_length_a 27.574369
_cell_length_b 8.437782
_cell_length_c 10.606806
_cell_angle_alpha 90.000000
_cell_angle_beta 90.000000
_cell_angle_gamma 90.000000
_cell_volume 2467.848581
_symmetry_space_group_name_H-M "P N M A"
_symmetry_group_IT_number 62
_symmetry_cell_setting 'orthorhombic'
loop_
_space_group_symop_operation_xyz
x,y,z
1/2-x,-y,1/2+z
1/2+x,1/2-y,1/2-z
-x,1/2+y,-z
-x,-y,-z
1/2+x,y,1/2-z
1/2-x,1/2+y,1/2+z
x,1/2-y,z
loop_
_atom_site_type_symbol
_atom_site_label
_atom_site_fract_x
_atom_site_fract_y
_atom_site_fract_z
Si Si1 0.028395 0.940063 0.877543
Si Si2 0.139022 0.058084 0.371937
Si Si3 0.973078 0.941525 0.624694
Si Si4 0.638365 0.059793 0.622540
Si Si5 0.194130 0.443233 0.625441
Si Si6 0.693988 0.940114 0.375901
O O1 0.028064 0.750000 0.878518
O O2 0.001140 0.994882 0.750401
O O3 0.083477 0.998950 0.878620
O O4 0.000000 0.000000 0.000000
O O5 0.139569 0.250000 0.369224
O O6 0.082961 0.006262 0.372927
O O7 0.166350 0.005764 0.499103
O O8 0.166565 0.997224 0.248972
O O9 0.973220 0.750000 0.623683
O O10 0.000000 0.000000 0.500000
O O11 0.637513 0.250000 0.622759
O O12 0.666092 0.004863 0.748889
O O13 0.666762 0.002593 0.499303
O O14 0.193999 0.250000 0.625811
O O15 0.250027 0.494954 0.625513
O O16 0.693756 0.750000 0.378761
#
# Coordination Sequence:
#
# PCOD9465079 Si02
#       6
#     8   8   8   8   8   8
#     4  11  23  39  59  88 120 153 194 241 288 343
#     4  10  20  38  60  83 112 150 189 231 283 342
#     4  10  22  38  59  85 114 147 188 232 282 339
#     4  11  22  39  61  85 114 154 196 238 290 348
#     4   9  20  37  59  85 115 150 193 239 287 341
#     4  11  22  37  57  86 118 150 190 239 288 341
#
# _framework density 19.450139
#
# number of rings (size 3 to 8) (size 9 to 14) (size 15 to 20)
#    0.000    1.667    0.000    4.500    0.000    4.667 
#    0.000    5.000    0.000    0.000    0.000    0.000 
#    0.000    0.000    0.000    0.000    0.000    0.000 
#
# Total GULP energy -268393.146649 kJ/mol
# GULP energy per Si atom -5591.523889 kJ/mol
# Density = 1.940587 g / cm^3
# Si number density = 19.450139 Si / 1000 Ang^3
#
#
#
# Elastic Constant Matrix: (Units=GPa)
#
#
# Indices 1 2 3 4 5 6 
#
# 1 246.0573 37.2490 150.7732 0.0000 0.0000 0.0000
# 2 37.2490 30.8125 35.7874 0.0000 0.0000 0.0000
# 3 150.7732 35.7874 245.1334 0.0000 0.0000 0.0000
# 4 0.0000 0.0000 0.0000 12.5958 0.0000 0.0000
# 5 0.0000 0.0000 0.0000 0.0000 47.3516 0.0000
# 6 0.0000 0.0000 0.0000 0.0000 0.0000 18.1214
#
#
#
# Elastic Compliance Matrix: (Units=1/GPa)
#
#
# Indices 1 2 3 4 5 6 
#
# 1 0.006933 -0.004128 -0.003661 0.000000 0.000000 0.000000
# 2 -0.004128 0.041539 -0.003525 0.000000 0.000000 0.000000
# 3 -0.003661 -0.003525 0.006846 0.000000 0.000000 0.000000
# 4 0.000000 0.000000 0.000000 0.079391 0.000000 0.000000
# 5 0.000000 0.000000 0.000000 0.000000 0.021119 0.000000
# 6 0.000000 0.000000 0.000000 0.000000 0.000000 0.055183
#
#
# Mechanical properties :
#
#
# Convention : Reuss Voigt Hill
#
# Bulk Modulus (GPa) = 30.59188 107.73583 69.16385
# Shear Modulus (GPa) = 20.44681 35.49334 27.97007
#
# Velocity S-wave (km/s) = 3.24580 4.27645 3.79626
# Velocity P-wave (km/s) = 5.45981 8.93840 7.40623
#
# Compressibility (1/GPa) = 0.03268842
#
# Stress axis : x y z
#
# Youngs Moduli (GPa) = 144.24811 24.07347 146.07100
#
# Poissons Ratio (x) = 0.09938 0.53480
# Poissons Ratio (y) = 0.59549 0.51494
# Poissons Ratio (z) = 0.52813 0.08487
#
# Static dielectric constant tensor:
#      x y z
#    x 1.652810 0.000000 0.000000 
#    y 0.000000 1.674440 0.000000 
#    z 0.000000 0.000000 1.639110 
# 
# From -- ./inp_files/10155.got.cif
#   From: 2010.05.17/outbox.cif.g08.bks.cpg/sg62_6_cif.got.tgz:10155.got - 2010.06.03 15:25:27.
