data_PCOD9465349
_publ_section_title
;
Structure prediction by ZEFSAII (Michael W. Deem and Ramdas Pophale) SiO2 
 PCOD9465349
Probable space group: P N M A
;
_chemical_formula_sum "Si O2"
_cell_formula_units_Z 48
_cell_length_a 28.137169
_cell_length_b 8.564049
_cell_length_c 10.363725
_cell_angle_alpha 90.000000
_cell_angle_beta 90.000000
_cell_angle_gamma 90.000000
_cell_volume 2497.327060
_symmetry_space_group_name_H-M "P N M A"
_symmetry_group_IT_number 62
_symmetry_cell_setting 'orthorhombic'
loop_
_space_group_symop_operation_xyz
x,y,z
1/2-x,-y,1/2+z
1/2+x,1/2-y,1/2-z
-x,1/2+y,-z
-x,-y,-z
1/2+x,y,1/2-z
1/2-x,1/2+y,1/2+z
x,1/2-y,z
loop_
_atom_site_type_symbol
_atom_site_label
_atom_site_fract_x
_atom_site_fract_y
_atom_site_fract_z
Si Si1 0.962940 0.561459 0.395834
Si Si2 0.290382 0.560858 0.253118
Si Si3 0.140942 0.937572 0.973823
Si Si4 0.962423 0.937294 0.102862
Si Si5 0.642463 0.061710 0.981544
Si Si6 0.680407 0.561623 0.249418
O O1 0.963841 0.750000 0.397837
O O2 0.973925 0.510900 0.249369
O O3 0.909507 0.511229 0.433017
O O4 0.000000 0.500000 0.500000
O O5 0.291971 0.750000 0.259839
O O6 0.318945 0.493467 0.374095
O O7 0.317962 0.512712 0.122925
O O8 0.235558 0.511062 0.251412
O O9 0.138409 0.750000 0.971395
O O10 0.155217 0.988413 0.118174
O O11 0.090345 0.006022 0.932261
O O12 0.963135 0.750000 0.100813
O O13 0.000000 0.000000 0.000000
O O14 0.642710 0.250000 0.985368
O O15 0.654552 0.999091 0.122296
O O16 0.680011 0.750000 0.247358
#
# Coordination Sequence:
#
# PCOD9465349 Si02
#       6
#     8   8   8   8   8   8
#     4  10  23  42  64  89 119 156 197 245 300 355
#     4  10  20  40  63  85 120 161 202 249 300 352
#     4  11  23  40  62  91 124 160 202 249 300 358
#     4  11  24  44  66  91 122 158 199 248 303 360
#     4  10  21  40  62  86 119 160 200 244 300 358
#     4  10  23  38  58  90 124 159 200 248 297 350
#
# _framework density 19.220548999999998
#
# number of rings (size 3 to 8) (size 9 to 14) (size 15 to 20)
#    0.000    1.667    1.667    2.000    2.333    6.000 
#    0.000    0.000    0.000    0.000    0.000    0.000 
#    0.000    0.000    0.000    0.000    0.000    0.000 
#
# Total GULP energy -268297.666930 kJ/mol
# GULP energy per Si atom -5589.534728 kJ/mol
# Density = 1.917680 g / cm^3
# Si number density = 19.220549 Si / 1000 Ang^3
#
#
#
# Elastic Constant Matrix: (Units=GPa)
#
#
# Indices 1 2 3 4 5 6 
#
# 1 111.9036 24.3602 82.0291 0.0000 0.0000 0.0000
# 2 24.3602 20.7288 33.5670 0.0000 0.0000 0.0000
# 3 82.0291 33.5670 211.3044 0.0000 0.0000 0.0000
# 4 0.0000 0.0000 0.0000 33.5115 0.0000 0.0000
# 5 0.0000 0.0000 0.0000 0.0000 43.6506 0.0000
# 6 0.0000 0.0000 0.0000 0.0000 0.0000 28.8332
#
#
#
# Elastic Compliance Matrix: (Units=1/GPa)
#
#
# Indices 1 2 3 4 5 6 
#
# 1 0.013943 -0.010259 -0.003783 0.000000 0.000000 0.000000
# 2 -0.010259 0.072499 -0.007534 0.000000 0.000000 0.000000
# 3 -0.003783 -0.007534 0.007398 0.000000 0.000000 0.000000
# 4 0.000000 0.000000 0.000000 0.029841 0.000000 0.000000
# 5 0.000000 0.000000 0.000000 0.000000 0.022909 0.000000
# 6 0.000000 0.000000 0.000000 0.000000 0.000000 0.034682
#
#
# Mechanical properties :
#
#
# Convention : Reuss Voigt Hill
#
# Bulk Modulus (GPa) = 19.72904 69.31660 44.52282
# Shear Modulus (GPa) = 20.71940 34.79777 27.75858
#
# Velocity S-wave (km/s) = 3.28682 4.25955 3.80440
# Velocity P-wave (km/s) = 4.96902 7.76748 6.52016
#
# Compressibility (1/GPa) = 0.05068669
#
# Stress axis : x y z
#
# Youngs Moduli (GPa) = 71.72301 13.79327 135.17458
#
# Poissons Ratio (x) = 0.14151 0.51133
# Poissons Ratio (y) = 0.73584 1.01843
# Poissons Ratio (z) = 0.27131 0.10392
#
# Static dielectric constant tensor:
#      x y z
#    x 1.640020 0.000000 0.000000 
#    y 0.000000 1.663370 0.000000 
#    z 0.000000 0.000000 1.644440 
# 
# From -- ./inp_files/10217.got.cif
#   From: 2010.05.17/outbox.cif.g08.bks.cpg/sg62_6_cif.got.tgz:10217.got - 2010.06.03 15:25:27.
