data_PCOD9465461
_publ_section_title
;
Structure prediction by ZEFSAII (Michael W. Deem and Ramdas Pophale) SiO2 
 PCOD9465461
Probable space group: P N M A
;
_chemical_formula_sum "Si O2"
_cell_formula_units_Z 64
_cell_length_a 17.259544
_cell_length_b 7.676154
_cell_length_c 20.988958
_cell_angle_alpha 90.000000
_cell_angle_beta 90.000000
_cell_angle_gamma 90.000000
_cell_volume 2780.762351
_symmetry_space_group_name_H-M "P N M A"
_symmetry_group_IT_number 62
_symmetry_cell_setting 'orthorhombic'
loop_
_space_group_symop_operation_xyz
x,y,z
1/2-x,-y,1/2+z
1/2+x,1/2-y,1/2-z
-x,1/2+y,-z
-x,-y,-z
1/2+x,y,1/2-z
1/2-x,1/2+y,1/2+z
x,1/2-y,z
loop_
_atom_site_type_symbol
_atom_site_label
_atom_site_fract_x
_atom_site_fract_y
_atom_site_fract_z
Si Si1 0.650864 0.463919 0.515707
Si Si2 0.467003 0.547299 0.385398
Si Si3 0.776700 0.044104 0.617601
Si Si4 0.904132 0.456595 0.793781
Si Si5 0.056475 0.046715 0.350515
Si Si6 0.613810 0.950988 0.859278
Si Si7 0.221421 0.460841 0.114019
Si Si8 0.167441 0.452727 0.778034
O O1 0.648053 0.250000 0.515695
O O2 0.573076 0.526617 0.551147
O O3 0.724193 0.518485 0.559292
O O4 0.668532 0.522159 0.444534
O O5 0.485583 0.750000 0.398793
O O6 0.539960 0.467241 0.349037
O O7 0.399225 0.544481 0.332109
O O8 0.761261 0.250000 0.621621
O O9 0.741747 0.973286 0.684164
O O10 0.868101 0.022017 0.613336
O O11 0.917788 0.250000 0.789184
O O12 0.925887 0.526630 0.724745
O O13 0.817999 0.485910 0.819773
O O14 0.052632 0.250000 0.364415
O O15 0.971734 0.969025 0.365689
O O16 0.608454 0.750000 0.880259
O O17 0.690526 0.026786 0.892115
O O18 0.636530 0.953771 0.784462
O O19 0.223893 0.250000 0.112746
O O20 0.179767 0.250000 0.759858
#
# Coordination Sequence:
#
# PCOD9465461 Si02
#       8
#     8   8   8   8   8   8   8   8
#     4   8  16  34  57  77 103 142 184 216 254 314
#     4   8  15  29  51  78 104 133 168 211 255 302
#     4   9  18  33  56  81 101 132 179 221 259 309
#     4  11  21  34  54  81 111 137 171 218 267 318
#     4  11  22  35  51  76 109 139 171 215 269 321
#     4  10  21  34  49  72 104 139 173 211 261 317
#     4  10  21  37  55  76 106 144 180 217 262 315
#     4   9  16  30  52  75  99 130 167 209 260 311
#
# _framework density 23.015273000000001
#
# number of rings (size 3 to 8) (size 9 to 14) (size 15 to 20)
#    0.000    2.500    1.250    3.000    0.000    4.000 
#    0.000    1.250    0.000    1.500    0.000    0.000 
#    0.000    0.000    0.000    0.000    0.000    0.000 
#
# Total GULP energy -357218.908229 kJ/mol
# GULP energy per Si atom -5581.545441 kJ/mol
# Density = 2.296289 g / cm^3
# Si number density = 23.015273 Si / 1000 Ang^3
#
#
#
# Elastic Constant Matrix: (Units=GPa)
#
#
# Indices 1 2 3 4 5 6 
#
# 1 67.7826 -4.5400 -18.9330 0.0000 0.0000 0.0000
# 2 -4.5400 41.9195 -6.5270 0.0000 0.0000 0.0000
# 3 -18.9330 -6.5270 40.9149 0.0000 0.0000 0.0000
# 4 0.0000 0.0000 0.0000 6.8090 0.0000 0.0000
# 5 0.0000 0.0000 0.0000 0.0000 33.5895 0.0000
# 6 0.0000 0.0000 0.0000 0.0000 0.0000 10.8624
#
#
#
# Elastic Compliance Matrix: (Units=1/GPa)
#
#
# Indices 1 2 3 4 5 6 
#
# 1 0.017354 0.003210 0.008542 0.000000 0.000000 0.000000
# 2 0.003210 0.025056 0.005482 0.000000 0.000000 0.000000
# 3 0.008542 0.005482 0.029269 0.000000 0.000000 0.000000
# 4 0.000000 0.000000 0.000000 0.146864 0.000000 0.000000
# 5 0.000000 0.000000 0.000000 0.000000 0.029771 0.000000
# 6 0.000000 0.000000 0.000000 0.000000 0.000000 0.092061
#
#
# Mechanical properties :
#
#
# Convention : Reuss Voigt Hill
#
# Bulk Modulus (GPa) = 9.42081 10.06855 9.74468
# Shear Modulus (GPa) = 14.65035 22.29333 18.47184
#
# Velocity S-wave (km/s) = 2.52573 3.11566 2.83608
# Velocity P-wave (km/s) = 3.55076 4.16261 3.86880
#
# Compressibility (1/GPa) = 0.10614798
#
# Stress axis : x y z
#
# Youngs Moduli (GPa) = 57.62324 39.90980 34.16642
#
# Poissons Ratio (x) = -0.12809 -0.29187
# Poissons Ratio (y) = -0.18495 -0.18731
# Poissons Ratio (z) = -0.49225 -0.21880
#
# Static dielectric constant tensor:
#      x y z
#    x 1.931100 0.000000 0.000000 
#    y 0.000000 1.839920 0.000000 
#    z 0.000000 0.000000 1.843830 
# 
# From -- ./inp_files/27670.got.cif
#   From: 2010.05.17/outbox.cif.g08.bks.cpg/sg62_14_cif.got.tgz:27670.got - 2010.06.03 15:25:27.
