data_PCOD9465761
_publ_section_title
;
Structure prediction by ZEFSAII (Michael W. Deem and Ramdas Pophale) SiO2 
 PCOD9465761
Probable space group: P N M A
;
_chemical_formula_sum "Si O2"
_cell_formula_units_Z 64
_cell_length_a 15.857932
_cell_length_b 17.819888
_cell_length_c 11.499145
_cell_angle_alpha 90.000000
_cell_angle_beta 90.000000
_cell_angle_gamma 90.000000
_cell_volume 3249.503968
_symmetry_space_group_name_H-M "P N M A"
_symmetry_group_IT_number 62
_symmetry_cell_setting 'orthorhombic'
loop_
_space_group_symop_operation_xyz
x,y,z
1/2-x,-y,1/2+z
1/2+x,1/2-y,1/2-z
-x,1/2+y,-z
-x,-y,-z
1/2+x,y,1/2-z
1/2-x,1/2+y,1/2+z
x,1/2-y,z
loop_
_atom_site_type_symbol
_atom_site_label
_atom_site_fract_x
_atom_site_fract_y
_atom_site_fract_z
Si Si1 0.832413 0.888804 0.969706
Si Si2 0.166812 0.589831 0.392773
Si Si3 0.845951 0.925696 0.512542
Si Si4 0.776259 0.835455 0.727486
Si Si5 0.510480 0.837170 0.002369
Si Si6 0.514159 0.910909 0.510140
Si Si7 0.822808 0.061676 0.879532
Si Si8 0.922041 0.160654 0.242582
O O1 0.755340 0.879758 0.058025
O O2 0.924523 0.875025 0.023196
O O3 0.817127 0.840765 0.854318
O O4 0.829636 0.975217 0.922983
O O5 0.146174 0.514269 0.465390
O O6 0.090829 0.646299 0.417504
O O7 0.174284 0.568174 0.258430
O O8 0.822709 0.888098 0.636093
O O9 0.766214 0.910650 0.429762
O O10 0.931938 0.889714 0.467855
O O11 0.780326 0.750000 0.684913
O O12 0.677834 0.857296 0.740670
O O13 0.486207 0.750000 0.007851
O O14 0.539772 0.853599 0.869577
O O15 0.597573 0.894765 0.435255
O O16 0.533351 0.886498 0.642095
O O17 0.500000 0.000000 0.500000
O O18 0.930853 0.250000 0.219281
#
# Coordination Sequence:
#
# PCOD9465761 Si02
#       8
#     8   8   8   8   8   8   8   8
#     4  10  21  37  59  89 122 158 202 253 304 362
#     4  11  23  40  62  90 127 165 202 255 310 370
#     4  11  22  40  63  95 123 161 208 256 310 370
#     4  11  20  37  66  93 124 159 203 261 314 361
#     4  11  24  42  62  90 124 164 213 262 306 361
#     4  10  21  37  59  89 124 159 201 254 304 367
#     4  10  22  39  59  89 123 161 204 249 305 368
#     4  10  21  38  62  92 125 160 203 261 317 361
#
# _framework density 19.695315000000001
#
# number of rings (size 3 to 8) (size 9 to 14) (size 15 to 20)
#    0.000    1.500    3.750    1.500    1.750    2.500 
#    0.000    1.875    0.000    1.500    0.000    0.000 
#    0.000    0.000    0.000    0.000    0.000    0.000 
#
# Total GULP energy -357547.729141 kJ/mol
# GULP energy per Si atom -5586.683268 kJ/mol
# Density = 1.965049 g / cm^3
# Si number density = 19.695315 Si / 1000 Ang^3
#
#
#
# Elastic Constant Matrix: (Units=GPa)
#
#
# Indices 1 2 3 4 5 6 
#
# 1 115.2641 5.6435 23.8637 0.0000 0.0000 0.0000
# 2 5.6435 16.8524 -4.2027 0.0000 0.0000 0.0000
# 3 23.8637 -4.2027 69.1114 0.0000 0.0000 0.0000
# 4 0.0000 0.0000 0.0000 26.3503 0.0000 0.0000
# 5 0.0000 0.0000 0.0000 0.0000 17.0517 0.0000
# 6 0.0000 0.0000 0.0000 0.0000 0.0000 24.1060
#
#
#
# Elastic Compliance Matrix: (Units=1/GPa)
#
#
# Indices 1 2 3 4 5 6 
#
# 1 0.009616 -0.004111 -0.003570 0.000000 0.000000 0.000000
# 2 -0.004111 0.062010 0.005190 0.000000 0.000000 0.000000
# 3 -0.003570 0.005190 0.016018 0.000000 0.000000 0.000000
# 4 0.000000 0.000000 0.000000 0.037950 0.000000 0.000000
# 5 0.000000 0.000000 0.000000 0.000000 0.058645 0.000000
# 6 0.000000 0.000000 0.000000 0.000000 0.000000 0.041483
#
#
# Mechanical properties :
#
#
# Convention : Reuss Voigt Hill
#
# Bulk Modulus (GPa) = 12.09744 27.98187 20.03966
# Shear Modulus (GPa) = 19.36049 25.22984 22.29517
#
# Velocity S-wave (km/s) = 3.13868 3.58300 3.36818
# Velocity P-wave (km/s) = 4.39212 5.59959 5.03220
#
# Compressibility (1/GPa) = 0.08266210
#
# Stress axis : x y z
#
# Youngs Moduli (GPa) = 103.99130 16.12653 62.43032
#
# Poissons Ratio (x) = 0.06629 0.22290
# Poissons Ratio (y) = 0.42747 -0.32403
# Poissons Ratio (z) = 0.37129 -0.08370
#
# Static dielectric constant tensor:
#      x y z
#    x 1.717760 0.000000 0.000000 
#    y 0.000000 1.712550 0.000000 
#    z 0.000000 0.000000 1.645830 
# 
# From -- ./inp_files/13578.got.cif
#   From: 2010.05.17/outbox.cif.g08.bks.cpg/sg62_7_cif.got.tgz:13578.got - 2010.06.03 15:25:27.
