data_PCOD9465222
_publ_section_title
;
Structure prediction by ZEFSAII (Michael W. Deem and Ramdas Pophale) SiO2 
 PCOD9465222
Probable space group: P N M A
;
_chemical_formula_sum "Si O2"
_cell_formula_units_Z 48
_cell_length_a 11.427380
_cell_length_b 10.949892
_cell_length_c 18.548937
_cell_angle_alpha 90.000000
_cell_angle_beta 90.000000
_cell_angle_gamma 90.000000
_cell_volume 2321.002089
_symmetry_space_group_name_H-M "P N M A"
_symmetry_group_IT_number 62
_symmetry_cell_setting 'orthorhombic'
loop_
_space_group_symop_operation_xyz
x,y,z
1/2-x,-y,1/2+z
1/2+x,1/2-y,1/2-z
-x,1/2+y,-z
-x,-y,-z
1/2+x,y,1/2-z
1/2-x,1/2+y,1/2+z
x,1/2-y,z
loop_
_atom_site_type_symbol
_atom_site_label
_atom_site_fract_x
_atom_site_fract_y
_atom_site_fract_z
Si Si1 0.556056 0.884242 0.039490
Si Si2 0.334488 0.891231 0.469307
Si Si3 0.666603 0.502753 0.382308
Si Si4 0.055418 0.750000 0.695796
Si Si5 0.441378 0.892049 0.319236
Si Si6 0.921226 0.517806 0.339607
Si Si7 0.678155 0.250000 0.294107
O O1 0.512289 0.750000 0.017214
O O2 0.694220 0.886901 0.028195
O O3 0.522589 0.904705 0.123229
O O4 0.500000 0.000000 0.000000
O O5 0.377219 0.750000 0.478045
O O6 0.370734 0.976326 0.535735
O O7 0.372275 0.935042 0.390283
O O8 0.576023 0.587328 0.340630
O O9 0.798261 0.551658 0.376065
O O10 0.668235 0.371318 0.342490
O O11 0.056232 0.626141 0.649812
O O12 0.185694 0.750000 0.734355
O O13 0.935441 0.750000 0.742096
O O14 0.414847 0.750000 0.307860
O O15 0.414130 0.961856 0.245805
#
# Coordination Sequence:
#
# PCOD9465222 Si02
#       7
#     8   8   8   4   8   8   4
#     4  11  24  42  68  94 130 171 216 267 328 390
#     4  10  22  42  66  92 125 172 214 265 334 394
#     4  11  21  41  66  89 128 166 214 266 324 388
#     4  10  22  38  68  96 124 171 215 267 333 392
#     4  11  25  40  63  94 129 172 216 262 326 398
#     4  11  24  41  66  95 128 166 217 271 324 390
#     4  10  20  38  66  94 126 167 215 265 327 394
#
# _framework density 20.680720999999998
#
# number of rings (size 3 to 8) (size 9 to 14) (size 15 to 20)
#    0.000    1.333    4.167    1.000    3.500    1.333 
#    0.000    0.000    3.667    0.000    0.000    0.000 
#    0.000    0.000    0.000    0.000    0.000    0.000 
#
# Total GULP energy -267995.469413 kJ/mol
# GULP energy per Si atom -5583.238946 kJ/mol
# Density = 2.063365 g / cm^3
# Si number density = 20.680721 Si / 1000 Ang^3
#
#
#
# Elastic Constant Matrix: (Units=GPa)
#
#
# Indices 1 2 3 4 5 6 
#
# 1 58.4000 6.8173 7.0248 0.0000 0.0000 0.0000
# 2 6.8173 72.6931 20.6312 0.0000 0.0000 0.0000
# 3 7.0248 20.6312 99.5958 0.0000 0.0000 0.0000
# 4 0.0000 0.0000 0.0000 22.3105 0.0000 0.0000
# 5 0.0000 0.0000 0.0000 0.0000 37.2184 0.0000
# 6 0.0000 0.0000 0.0000 0.0000 0.0000 24.2714
#
#
#
# Elastic Compliance Matrix: (Units=1/GPa)
#
#
# Indices 1 2 3 4 5 6 
#
# 1 0.017396 -0.001363 -0.000945 0.000000 0.000000 0.000000
# 2 -0.001363 0.014723 -0.002954 0.000000 0.000000 0.000000
# 3 -0.000945 -0.002954 0.010719 0.000000 0.000000 0.000000
# 4 0.000000 0.000000 0.000000 0.044822 0.000000 0.000000
# 5 0.000000 0.000000 0.000000 0.000000 0.026868 0.000000
# 6 0.000000 0.000000 0.000000 0.000000 0.000000 0.041201
#
#
# Mechanical properties :
#
#
# Convention : Reuss Voigt Hill
#
# Bulk Modulus (GPa) = 30.94576 33.29284 32.11930
# Shear Modulus (GPa) = 28.24484 29.84110 29.04297
#
# Velocity S-wave (km/s) = 3.69962 3.80273 3.75153
# Velocity P-wave (km/s) = 5.76591 5.95100 5.85919
#
# Compressibility (1/GPa) = 0.03231460
#
# Stress axis : x y z
#
# Youngs Moduli (GPa) = 57.48426 67.92279 93.29188
#
# Poissons Ratio (x) = 0.09260 0.08812
# Poissons Ratio (y) = 0.07837 0.27555
# Poissons Ratio (z) = 0.05430 0.20062
#
# Static dielectric constant tensor:
#      x y z
#    x 1.735170 0.000000 0.000000 
#    y 0.000000 1.726570 0.000000 
#    z 0.000000 0.000000 1.761090 
# 
# From -- ./inp_files/23044.got.cif
#   From: 2010.05.17/outbox.cif.g08.bks.cpg/sg62_12_cif.got.tgz:23044.got - 2010.06.03 15:25:27.
