data_PCOD9465052
_publ_section_title
;
Structure prediction by ZEFSAII (Michael W. Deem and Ramdas Pophale) SiO2 
 PCOD9465052
Probable space group: P N M A
;
_chemical_formula_sum "Si O2"
_cell_formula_units_Z 48
_cell_length_a 17.373628
_cell_length_b 14.804158
_cell_length_c 9.875788
_cell_angle_alpha 90.000000
_cell_angle_beta 90.000000
_cell_angle_gamma 90.000000
_cell_volume 2540.071773
_symmetry_space_group_name_H-M "P N M A"
_symmetry_group_IT_number 62
_symmetry_cell_setting 'orthorhombic'
loop_
_space_group_symop_operation_xyz
x,y,z
1/2-x,-y,1/2+z
1/2+x,1/2-y,1/2-z
-x,1/2+y,-z
-x,-y,-z
1/2+x,y,1/2-z
1/2-x,1/2+y,1/2+z
x,1/2-y,z
loop_
_atom_site_type_symbol
_atom_site_label
_atom_site_fract_x
_atom_site_fract_y
_atom_site_fract_z
Si Si1 0.934699 0.565677 0.436641
Si Si2 0.442750 0.149996 0.468530
Si Si3 0.847839 0.989756 0.166612
Si Si4 0.122564 0.145921 0.064752
Si Si5 0.928871 0.150507 0.708497
Si Si6 0.831682 0.968806 0.676949
O O1 0.884403 0.522758 0.315291
O O2 0.874854 0.586130 0.557056
O O3 0.000000 0.500000 0.500000
O O4 0.989664 0.640340 0.368608
O O5 0.412243 0.250000 0.432360
O O6 0.530317 0.143706 0.419674
O O7 0.443877 0.143601 0.631003
O O8 0.394933 0.068903 0.406970
O O9 0.758777 0.016512 0.162342
O O10 0.858217 0.898805 0.079276
O O11 0.148010 0.250000 0.073387
O O12 0.155434 0.083043 0.182631
O O13 0.896002 0.250000 0.679223
O O14 0.872724 0.067280 0.675305
#
# Coordination Sequence:
#
# PCOD9465052 Si02
#       6
#     8   8   8   8   8   8
#     4  10  22  38  60  91 126 165 213 259 315 372
#     4  10  20  37  65  92 115 163 217 257 300 367
#     4  12  22  40  65  90 131 170 207 262 318 383
#     4  11  23  41  66  92 122 166 217 259 305 376
#     4  10  20  39  64  90 122 164 214 261 311 378
#     4  11  24  40  61  97 130 167 203 264 332 380
#
# _framework density 18.897103999999999
#
# number of rings (size 3 to 8) (size 9 to 14) (size 15 to 20)
#    0.000    1.333    3.333    3.500    0.000    2.000 
#    0.000    5.000    0.000    0.000    0.000    0.000 
#    0.000    0.000    0.000    0.000    0.000    0.000 
#
# Total GULP energy -267859.575093 kJ/mol
# GULP energy per Si atom -5580.407814 kJ/mol
# Density = 1.885409 g / cm^3
# Si number density = 18.897104 Si / 1000 Ang^3
#
#
#
# Elastic Constant Matrix: (Units=GPa)
#
#
# Indices 1 2 3 4 5 6 
#
# 1 83.5048 12.5719 20.2238 0.0000 0.0000 0.0000
# 2 12.5719 71.2732 12.6127 0.0000 0.0000 0.0000
# 3 20.2238 12.6127 80.3029 0.0000 0.0000 0.0000
# 4 0.0000 0.0000 0.0000 -0.9484 0.0000 0.0000
# 5 0.0000 0.0000 0.0000 0.0000 -5.8470 0.0000
# 6 0.0000 0.0000 0.0000 0.0000 0.0000 5.1114
#
#
#
# Elastic Compliance Matrix: (Units=1/GPa)
#
#
# Indices 1 2 3 4 5 6 
#
# 1 0.012964 -0.001758 -0.002989 0.000000 0.000000 0.000000
# 2 -0.001758 0.014670 -0.001861 0.000000 0.000000 0.000000
# 3 -0.002989 -0.001861 0.013498 0.000000 0.000000 0.000000
# 4 0.000000 0.000000 0.000000 -1.054411 0.000000 0.000000
# 5 0.000000 0.000000 0.000000 0.000000 -0.171028 0.000000
# 6 0.000000 0.000000 0.000000 0.000000 0.000000 0.195641
#
#
# Mechanical properties :
#
#
# Convention : Reuss Voigt Hill
#
# Bulk Modulus (GPa) = 35.82211 36.21087 36.01649
# Shear Modulus (GPa) = -5.17521 12.30804 3.56641
#
# Velocity S-wave (km/s) = -1.65667 2.55486 1.37527
# Velocity P-wave (km/s) = 3.91639 5.28269 4.65000
#
# Compressibility (1/GPa) = 0.02791572
#
# Stress axis : x y z
#
# Youngs Moduli (GPa) = 77.13762 68.16646 74.08546
#
# Poissons Ratio (x) = 0.11982 0.22143
# Poissons Ratio (y) = 0.13559 0.13790
# Poissons Ratio (z) = 0.23055 0.12689
#
# Static dielectric constant tensor:
#      x y z
#    x 1.629050 0.000000 0.000000 
#    y 0.000000 1.675950 0.000000 
#    z 0.000000 0.000000 1.664410 
# 
# From -- ./inp_files/7670.got.cif
#   From: 2010.05.17/outbox.cif.g08.bks.cpg/sg62_4_cif.got.tgz:7670.got - 2010.06.03 15:25:27.
