data_PCOD9465119
_publ_section_title
;
Structure prediction by ZEFSAII (Michael W. Deem and Ramdas Pophale) SiO2 
 PCOD9465119
Probable space group: P N M A
;
_chemical_formula_sum "Si O2"
_cell_formula_units_Z 48
_cell_length_a 22.723407
_cell_length_b 12.499524
_cell_length_c 7.912486
_cell_angle_alpha 90.000000
_cell_angle_beta 90.000000
_cell_angle_gamma 90.000000
_cell_volume 2247.397413
_symmetry_space_group_name_H-M "P N M A"
_symmetry_group_IT_number 62
_symmetry_cell_setting 'orthorhombic'
loop_
_space_group_symop_operation_xyz
x,y,z
1/2-x,-y,1/2+z
1/2+x,1/2-y,1/2-z
-x,1/2+y,-z
-x,-y,-z
1/2+x,y,1/2-z
1/2-x,1/2+y,1/2+z
x,1/2-y,z
loop_
_atom_site_type_symbol
_atom_site_label
_atom_site_fract_x
_atom_site_fract_y
_atom_site_fract_z
Si Si1 0.407957 0.996578 0.839127
Si Si2 0.125287 0.873046 0.641343
Si Si3 0.776185 0.531860 0.220938
Si Si4 0.308882 0.628974 0.947053
Si Si5 0.627841 0.125558 0.498692
Si Si6 0.969230 0.511236 0.182539
O O1 0.378494 0.901615 0.954235
O O2 0.387814 0.954616 0.654538
O O3 0.476997 0.020015 0.813288
O O4 0.384407 0.097975 0.944181
O O5 0.136402 0.750000 0.664589
O O6 0.178930 0.941525 0.713178
O O7 0.068834 0.911705 0.749346
O O8 0.719587 0.465612 0.165052
O O9 0.774926 0.614417 0.375755
O O10 0.808221 0.593196 0.068233
O O11 0.301566 0.750000 0.886148
O O12 0.624814 0.250000 0.450224
O O13 0.579684 0.102474 0.646301
O O14 0.000000 0.500000 0.000000
#
# Coordination Sequence:
#
# PCOD9465119 Si02
#       6
#     8   8   8   8   8   8
#     4  10  21  37  57  87 118 148 197 241 282 351
#     4  10  21  38  59  82 117 157 190 238 297 344
#     4  10  22  40  59  88 117 146 198 245 282 352
#     4  11  22  38  61  85 116 155 191 238 295 345
#     4  10  20  38  62  84 114 154 191 239 298 346
#     4   9  20  37  57  86 117 146 193 243 283 346
#
# _framework density 21.358038000000001
#
# number of rings (size 3 to 8) (size 9 to 14) (size 15 to 20)
#    0.000    2.000    0.000    3.000    0.000    4.000 
#    0.000   19.167    0.000    0.000    0.000    0.000 
#    0.000    0.000    0.000    0.000    0.000    0.000 
#
# Total GULP energy -267271.412888 kJ/mol
# GULP energy per Si atom -5568.154435 kJ/mol
# Density = 2.130943 g / cm^3
# Si number density = 21.358038 Si / 1000 Ang^3
#
#
#
# Elastic Constant Matrix: (Units=GPa)
#
#
# Indices 1 2 3 4 5 6 
#
# 1 62.8577 22.0794 19.8615 0.0000 0.0000 0.0000
# 2 22.0794 73.3357 9.4373 0.0000 0.0000 0.0000
# 3 19.8615 9.4373 96.0521 0.0000 0.0000 0.0000
# 4 0.0000 0.0000 0.0000 20.6586 0.0000 0.0000
# 5 0.0000 0.0000 0.0000 0.0000 32.3248 0.0000
# 6 0.0000 0.0000 0.0000 0.0000 0.0000 13.3581
#
#
#
# Elastic Compliance Matrix: (Units=1/GPa)
#
#
# Indices 1 2 3 4 5 6 
#
# 1 0.018813 -0.005230 -0.003376 0.000000 0.000000 0.000000
# 2 -0.005230 0.015264 -0.000418 0.000000 0.000000 0.000000
# 3 -0.003376 -0.000418 0.011150 0.000000 0.000000 0.000000
# 4 0.000000 0.000000 0.000000 0.048406 0.000000 0.000000
# 5 0.000000 0.000000 0.000000 0.000000 0.030936 0.000000
# 6 0.000000 0.000000 0.000000 0.000000 0.000000 0.074861
#
#
# Mechanical properties :
#
#
# Convention : Reuss Voigt Hill
#
# Bulk Modulus (GPa) = 36.79325 37.22240 37.00783
# Shear Modulus (GPa) = 22.07136 25.32613 23.69875
#
# Velocity S-wave (km/s) = 3.21814 3.44726 3.33467
# Velocity P-wave (km/s) = 5.57430 5.77152 5.67377
#
# Compressibility (1/GPa) = 0.02717890
#
# Stress axis : x y z
#
# Youngs Moduli (GPa) = 53.15560 65.51261 89.68404
#
# Poissons Ratio (x) = 0.34260 0.30280
# Poissons Ratio (y) = 0.27798 0.03752
# Poissons Ratio (z) = 0.17947 0.02741
#
# Static dielectric constant tensor:
#      x y z
#    x 1.840890 0.000000 0.000000 
#    y 0.000000 1.708680 0.000000 
#    z 0.000000 0.000000 1.873390 
# 
# From -- ./inp_files/9325.got.cif
#   From: 2010.05.17/outbox.cif.g08.bks.cpg/sg62_5_cif.got.tgz:9325.got - 2010.06.03 15:25:27.
