data_PCOD9465008
_publ_section_title
;
Structure prediction by ZEFSAII (Michael W. Deem and Ramdas Pophale) SiO2 
 PCOD9465008
Probable space group: P N M A
;
_chemical_formula_sum "Si O2"
_cell_formula_units_Z 48
_cell_length_a 28.912887
_cell_length_b 8.844893
_cell_length_c 8.290100
_cell_angle_alpha 90.000000
_cell_angle_beta 90.000000
_cell_angle_gamma 90.000000
_cell_volume 2120.038811
_symmetry_space_group_name_H-M "P N M A"
_symmetry_group_IT_number 62
_symmetry_cell_setting 'orthorhombic'
loop_
_space_group_symop_operation_xyz
x,y,z
1/2-x,-y,1/2+z
1/2+x,1/2-y,1/2-z
-x,1/2+y,-z
-x,-y,-z
1/2+x,y,1/2-z
1/2-x,1/2+y,1/2+z
x,1/2-y,z
loop_
_atom_site_type_symbol
_atom_site_label
_atom_site_fract_x
_atom_site_fract_y
_atom_site_fract_z
Si Si1 0.522031 0.573218 0.243609
Si Si2 0.318368 0.427595 0.737560
Si Si3 0.346834 0.073832 0.227972
Si Si4 0.103486 0.427292 0.424793
Si Si5 0.560878 0.925371 0.601591
Si Si6 0.227592 0.073264 0.928957
O O1 0.525583 0.750000 0.205575
O O2 0.551586 0.478311 0.116997
O O3 0.469443 0.525388 0.276941
O O4 0.545842 0.544521 0.418733
O O5 0.330850 0.250000 0.731931
O O6 0.363088 0.527179 0.775748
O O7 0.292017 0.474998 0.575257
O O8 0.280789 0.451240 0.880497
O O9 0.333692 0.250000 0.214718
O O10 0.384923 0.056312 0.369641
O O11 0.303225 0.973570 0.274776
O O12 0.374344 0.020855 0.070977
O O13 0.105560 0.250000 0.456923
O O14 0.549396 0.750000 0.635854
O O15 0.221532 0.250000 0.965988
#
# Coordination Sequence:
#
# PCOD9465008 Si02
#       6
#     8   8   8   8   8   8
#     4  10  20  37  62  89 118 154 197 245 300 360
#     4  11  24  42  64  90 122 159 199 243 295 355
#     4  11  23  40  62  87 121 161 201 247 299 356
#     4  12  25  40  60  87 121 158 201 251 300 355
#     4   9  20  38  60  87 117 153 197 244 296 355
#     4  11  24  41  64  93 123 157 199 246 296 351
#
# _framework density 22.641096999999998
#
# number of rings (size 3 to 8) (size 9 to 14) (size 15 to 20)
#    0.000    1.333    0.000    5.500    0.000    9.333 
#    0.000    0.000    0.000    0.000    0.000    0.000 
#    0.000    0.000    0.000    0.000    0.000    0.000 
#
# Total GULP energy -268782.326022 kJ/mol
# GULP energy per Si atom -5599.631792 kJ/mol
# Density = 2.258956 g / cm^3
# Si number density = 22.641097 Si / 1000 Ang^3
#
#
#
# Elastic Constant Matrix: (Units=GPa)
#
#
# Indices 1 2 3 4 5 6 
#
# 1 63.8813 14.4152 -12.2208 0.0000 0.0000 0.0000
# 2 14.4152 47.7866 2.5387 0.0000 0.0000 0.0000
# 3 -12.2208 2.5387 39.3717 0.0000 0.0000 0.0000
# 4 0.0000 0.0000 0.0000 32.9384 0.0000 0.0000
# 5 0.0000 0.0000 0.0000 0.0000 28.1526 0.0000
# 6 0.0000 0.0000 0.0000 0.0000 0.0000 30.2684
#
#
#
# Elastic Compliance Matrix: (Units=1/GPa)
#
#
# Indices 1 2 3 4 5 6 
#
# 1 0.018105 -0.005780 0.005992 0.000000 0.000000 0.000000
# 2 -0.005780 0.022843 -0.003267 0.000000 0.000000 0.000000
# 3 0.005992 -0.003267 0.027470 0.000000 0.000000 0.000000
# 4 0.000000 0.000000 0.000000 0.030360 0.000000 0.000000
# 5 0.000000 0.000000 0.000000 0.000000 0.035521 0.000000
# 6 0.000000 0.000000 0.000000 0.000000 0.000000 0.033038
#
#
# Mechanical properties :
#
#
# Convention : Reuss Voigt Hill
#
# Bulk Modulus (GPa) = 16.04908 17.83396 16.94152
# Shear Modulus (GPa) = 25.74476 28.02565 26.88520
#
# Velocity S-wave (km/s) = 3.37572 3.52209 3.44968
# Velocity P-wave (km/s) = 4.72206 4.94308 4.83383
#
# Compressibility (1/GPa) = 0.06230886
#
# Stress axis : x y z
#
# Youngs Moduli (GPa) = 55.23447 43.77624 36.40387
#
# Poissons Ratio (x) = 0.25302 -0.21814
# Poissons Ratio (y) = 0.31924 0.11893
# Poissons Ratio (z) = -0.33098 0.14302
#
# Static dielectric constant tensor:
#      x y z
#    x 1.836180 0.000000 0.000000 
#    y 0.000000 1.743050 0.000000 
#    z 0.000000 0.000000 1.901600 
# 
# From -- ./inp_files/10241.got.cif
#   From: 2010.05.17/outbox.cif.g08.bks.cpg/sg62_6_cif.got.tgz:10241.got - 2010.06.03 15:25:27.
