data_PCOD9465279
_publ_section_title
;
Structure prediction by ZEFSAII (Michael W. Deem and Ramdas Pophale) SiO2 
 PCOD9465279
Probable space group: P N M A
;
_chemical_formula_sum "Si O2"
_cell_formula_units_Z 48
_cell_length_a 10.393640
_cell_length_b 8.587027
_cell_length_c 30.204402
_cell_angle_alpha 90.000000
_cell_angle_beta 90.000000
_cell_angle_gamma 90.000000
_cell_volume 2695.756993
_symmetry_space_group_name_H-M "P N M A"
_symmetry_group_IT_number 62
_symmetry_cell_setting 'orthorhombic'
loop_
_space_group_symop_operation_xyz
x,y,z
1/2-x,-y,1/2+z
1/2+x,1/2-y,1/2-z
-x,1/2+y,-z
-x,-y,-z
1/2+x,y,1/2-z
1/2-x,1/2+y,1/2+z
x,1/2-y,z
loop_
_atom_site_type_symbol
_atom_site_label
_atom_site_fract_x
_atom_site_fract_y
_atom_site_fract_z
Si Si1 0.774302 0.938367 0.383957
Si Si2 0.125798 0.436880 0.523653
Si Si3 0.375572 0.562725 0.474269
Si Si4 0.015885 0.564935 0.783727
Si Si5 0.976092 0.562591 0.119651
Si Si6 0.772529 0.562395 0.283923
O O1 0.781563 0.750000 0.383598
O O2 0.857713 0.993221 0.425456
O O3 0.624391 0.977891 0.391868
O O4 0.806694 0.990034 0.334230
O O5 0.122742 0.250000 0.524164
O O6 0.250006 0.492843 0.496718
O O7 0.000000 0.500000 0.500000
O O8 0.500000 0.500000 0.500000
O O9 0.373654 0.750000 0.477017
O O10 0.390006 0.520148 0.422438
O O11 0.007377 0.750000 0.780428
O O12 0.123079 0.501622 0.750165
O O13 0.053998 0.516077 0.833715
O O14 0.873668 0.493725 0.775122
O O15 0.970888 0.750000 0.125671
O O16 0.772917 0.750000 0.282645
#
# Coordination Sequence:
#
# PCOD9465279 Si02
#       6
#     8   8   8   8   8   8
#     4   8  16  34  59  81 107 146 193 230 269 337
#     4  11  22  39  57  83 118 154 192 237 286 338
#     4  11  21  36  60  88 115 150 192 235 280 334
#     4  11  22  37  58  89 120 145 185 246 294 328
#     4   9  18  36  59  83 111 151 194 230 279 349
#     4  10  20  39  63  84 110 155 196 227 281 353
#
# _framework density 17.805759999999999
#
# number of rings (size 3 to 8) (size 9 to 14) (size 15 to 20)
#    0.000    2.000    1.667    4.000    0.000    1.333 
#    3.000    2.500    0.000    0.000    0.000    0.000 
#    0.000    0.000    0.000    0.000    0.000    0.000 
#
# Total GULP energy -267877.776980 kJ/mol
# GULP energy per Si atom -5580.787020 kJ/mol
# Density = 1.776523 g / cm^3
# Si number density = 17.805760 Si / 1000 Ang^3
#
#
#
# Elastic Constant Matrix: (Units=GPa)
#
#
# Indices 1 2 3 4 5 6 
#
# 1 118.5329 40.1773 93.4194 0.0000 0.0000 0.0000
# 2 40.1773 71.5204 51.7872 0.0000 0.0000 0.0000
# 3 93.4194 51.7872 163.3475 0.0000 0.0000 0.0000
# 4 0.0000 0.0000 0.0000 27.0982 0.0000 0.0000
# 5 0.0000 0.0000 0.0000 0.0000 35.9528 0.0000
# 6 0.0000 0.0000 0.0000 0.0000 0.0000 32.4384
#
#
#
# Elastic Compliance Matrix: (Units=1/GPa)
#
#
# Indices 1 2 3 4 5 6 
#
# 1 0.015852 -0.003038 -0.008103 0.000000 0.000000 0.000000
# 2 -0.003038 0.018730 -0.004201 0.000000 0.000000 0.000000
# 3 -0.008103 -0.004201 0.012088 0.000000 0.000000 0.000000
# 4 0.000000 0.000000 0.000000 0.036903 0.000000 0.000000
# 5 0.000000 0.000000 0.000000 0.000000 0.027814 0.000000
# 6 0.000000 0.000000 0.000000 0.000000 0.000000 0.030828
#
#
# Mechanical properties :
#
#
# Convention : Reuss Voigt Hill
#
# Bulk Modulus (GPa) = 62.54992 80.46317 71.50655
# Shear Modulus (GPa) = 28.05399 30.29901 29.17650
#
# Velocity S-wave (km/s) = 3.97363 4.12957 4.05235
# Velocity P-wave (km/s) = 7.50056 8.24775 7.88301
#
# Compressibility (1/GPa) = 0.01598723
#
# Stress axis : x y z
#
# Youngs Moduli (GPa) = 63.08208 53.38911 82.72785
#
# Poissons Ratio (x) = 0.16219 0.67034
# Poissons Ratio (y) = 0.19164 0.34752
# Poissons Ratio (z) = 0.51115 0.22428
#
# Static dielectric constant tensor:
#      x y z
#    x 1.569270 0.000000 0.000000 
#    y 0.000000 1.607770 0.000000 
#    z 0.000000 0.000000 1.622310 
# 
# From -- ./inp_files/31947.got.cif
#   From: 2010.05.17/outbox.cif.g08.bks.cpg/sg62_16_cif.got.tgz:31947.got - 2010.06.03 15:25:27.
