data_PCOD9465674
_publ_section_title
;
Structure prediction by ZEFSAII (Michael W. Deem and Ramdas Pophale) SiO2 
 PCOD9465674
Probable space group: P N M A
;
_chemical_formula_sum "Si O2"
_cell_formula_units_Z 64
_cell_length_a 34.522588
_cell_length_b 7.952634
_cell_length_c 11.870574
_cell_angle_alpha 90.000000
_cell_angle_beta 90.000000
_cell_angle_gamma 90.000000
_cell_volume 3259.012758
_symmetry_space_group_name_H-M "P N M A"
_symmetry_group_IT_number 62
_symmetry_cell_setting 'orthorhombic'
loop_
_space_group_symop_operation_xyz
x,y,z
1/2-x,-y,1/2+z
1/2+x,1/2-y,1/2-z
-x,1/2+y,-z
-x,-y,-z
1/2+x,y,1/2-z
1/2-x,1/2+y,1/2+z
x,1/2-y,z
loop_
_atom_site_type_symbol
_atom_site_label
_atom_site_fract_x
_atom_site_fract_y
_atom_site_fract_z
Si Si1 0.471835 0.546307 0.658959
Si Si2 0.631712 0.456605 0.711884
Si Si3 0.554537 0.451409 0.587392
Si Si4 0.202582 0.054565 0.939743
Si Si5 0.170682 0.556098 0.174971
Si Si6 0.361016 0.544913 0.032152
Si Si7 0.787665 0.554013 0.609235
Si Si8 0.904489 0.548500 0.686194
O O1 0.471131 0.750000 0.658077
O O2 0.516352 0.491768 0.659737
O O3 0.453891 0.486064 0.539397
O O4 0.444368 0.485528 0.759718
O O5 0.631506 0.250000 0.710522
O O6 0.593871 0.514448 0.643701
O O7 0.670703 0.510387 0.648422
O O8 0.631300 0.512309 0.841434
O O9 0.557924 0.250000 0.579426
O O10 0.209616 0.250000 0.914631
O O11 0.184529 0.038243 0.063824
O O12 0.243868 0.966268 0.929704
O O13 0.165734 0.750000 0.144947
O O14 0.202204 0.538547 0.274662
O O15 0.130701 0.489294 0.228095
O O16 0.362342 0.750000 0.034559
O O17 0.318544 0.497265 0.985270
O O18 0.391212 0.485763 0.936522
O O19 0.796010 0.750000 0.631251
O O20 0.907539 0.750000 0.677533
#
# Coordination Sequence:
#
# PCOD9465674 Si02
#       8
#     8   8   8   8   8   8   8   8
#     4   9  17  30  50  75 104 137 172 217 272 321
#     4   9  18  33  53  77 105 139 176 215 267 325
#     4   9  17  30  49  74 103 136 175 217 260 317
#     4  11  22  35  55  80 107 140 178 224 274 324
#     4  11  22  36  54  77 107 139 178 224 269 320
#     4   8  16  32  54  76 101 136 174 216 262 319
#     4  10  21  37  56  79 107 138 179 224 271 327
#     4   9  17  33  56  78 102 136 178 221 268 321
#
# _framework density 19.637848999999999
#
# number of rings (size 3 to 8) (size 9 to 14) (size 15 to 20)
#    0.000    2.500    0.000    3.375    1.750    2.500 
#    0.000    4.375    0.000    4.500    0.000    0.000 
#    0.000    0.000    0.000    0.000    0.000    0.000 
#
# Total GULP energy -357161.698050 kJ/mol
# GULP energy per Si atom -5580.651532 kJ/mol
# Density = 1.959315 g / cm^3
# Si number density = 19.637849 Si / 1000 Ang^3
#
#
#
# Elastic Constant Matrix: (Units=GPa)
#
#
# Indices 1 2 3 4 5 6 
#
# 1 81.9595 3.1791 28.2312 0.0000 0.0000 0.0000
# 2 3.1791 18.3103 3.6331 0.0000 0.0000 0.0000
# 3 28.2312 3.6331 55.4786 0.0000 0.0000 0.0000
# 4 0.0000 0.0000 0.0000 9.4188 0.0000 0.0000
# 5 0.0000 0.0000 0.0000 0.0000 15.3339 0.0000
# 6 0.0000 0.0000 0.0000 0.0000 0.0000 23.6095
#
#
#
# Elastic Compliance Matrix: (Units=1/GPa)
#
#
# Indices 1 2 3 4 5 6 
#
# 1 0.014816 -0.001091 -0.007468 0.000000 0.000000 0.000000
# 2 -0.001091 0.055413 -0.003074 0.000000 0.000000 0.000000
# 3 -0.007468 -0.003074 0.022026 0.000000 0.000000 0.000000
# 4 0.000000 0.000000 0.000000 0.106171 0.000000 0.000000
# 5 0.000000 0.000000 0.000000 0.000000 0.065215 0.000000
# 6 0.000000 0.000000 0.000000 0.000000 0.000000 0.042356
#
#
# Mechanical properties :
#
#
# Convention : Reuss Voigt Hill
#
# Bulk Modulus (GPa) = 14.49468 25.09280 19.79374
# Shear Modulus (GPa) = 14.19410 17.71943 15.95677
#
# Velocity S-wave (km/s) = 2.69140 3.00711 2.85362
# Velocity P-wave (km/s) = 4.12979 4.98622 4.57808
#
# Compressibility (1/GPa) = 0.06899082
#
# Stress axis : x y z
#
# Youngs Moduli (GPa) = 67.49569 18.04623 45.40008
#
# Poissons Ratio (x) = 0.01968 0.33904
# Poissons Ratio (y) = 0.07361 0.13955
# Poissons Ratio (z) = 0.50405 0.05547
#
# Static dielectric constant tensor:
#      x y z
#    x 1.671360 0.000000 0.000000 
#    y 0.000000 1.702480 0.000000 
#    z 0.000000 0.000000 1.677630 
# 
# From -- ./inp_files/15797.got.cif
#   From: 2010.05.17/outbox.cif.g08.bks.cpg/sg62_8_cif.got.tgz:15797.got - 2010.06.03 15:25:27.
