data_PCOD9465779
_publ_section_title
;
Structure prediction by ZEFSAII (Michael W. Deem and Ramdas Pophale) SiO2 
 PCOD9465779
Probable space group: P N M A
;
_chemical_formula_sum "Si O2"
_cell_formula_units_Z 40
_cell_length_a 10.611855
_cell_length_b 8.817754
_cell_length_c 21.174263
_cell_angle_alpha 90.000000
_cell_angle_beta 90.000000
_cell_angle_gamma 90.000000
_cell_volume 1981.333528
_symmetry_space_group_name_H-M "P N M A"
_symmetry_group_IT_number 62
_symmetry_cell_setting 'orthorhombic'
loop_
_space_group_symop_operation_xyz
x,y,z
1/2-x,-y,1/2+z
1/2+x,1/2-y,1/2-z
-x,1/2+y,-z
-x,-y,-z
1/2+x,y,1/2-z
1/2-x,1/2+y,1/2+z
x,1/2-y,z
loop_
_atom_site_type_symbol
_atom_site_label
_atom_site_fract_x
_atom_site_fract_y
_atom_site_fract_z
Si Si1 0.298779 0.567346 0.784908
Si Si2 0.323079 0.070224 0.051262
Si Si3 0.083199 0.569927 0.409324
Si Si4 0.978027 0.067455 0.193373
Si Si5 0.053427 0.930075 0.064401
O O1 0.307933 0.750000 0.789629
O O2 0.338895 0.496700 0.851491
O O3 0.399659 0.517613 0.732644
O O4 0.153062 0.529947 0.771756
O O5 0.307778 0.250000 0.061732
O O6 0.447513 0.010608 0.086181
O O7 0.197684 0.983975 0.071208
O O8 0.348106 0.043661 0.976549
O O9 0.066557 0.750000 0.402458
O O10 0.983792 0.250000 0.186074
O O11 0.979341 0.992938 0.124773
O O12 0.044507 0.750000 0.061509
O O13 0.000000 0.000000 0.000000
#
# Coordination Sequence:
#
# PCOD9465779 Si02
#       5
#     8   8   8   8   8
#     4  10  22  40  63  90 124 167 211 256 309 376
#     4  10  21  38  62  91 125 165 207 256 314 375
#     4  10  21  37  60  92 126 162 206 256 312 370
#     4  10  23  42  64  93 126 168 215 258 313 378
#     4  12  25  41  63  92 125 164 211 265 321 377
#
# _framework density 20.188423
#
# number of rings (size 3 to 8) (size 9 to 14) (size 15 to 20)
#    0.000    1.600    0.000    4.200    2.800    7.200 
#    0.000    0.000    0.000    0.000    0.000    0.000 
#    0.000    0.000    0.000    0.000    0.000    0.000 
#
# Total GULP energy -223731.668234 kJ/mol
# GULP energy per Si atom -5593.291706 kJ/mol
# Density = 2.014247 g / cm^3
# Si number density = 20.188423 Si / 1000 Ang^3
#
#
#
# Elastic Constant Matrix: (Units=GPa)
#
#
# Indices 1 2 3 4 5 6 
#
# 1 122.8772 43.3251 51.6907 0.0000 0.0000 0.0000
# 2 43.3251 41.3442 30.3337 0.0000 0.0000 0.0000
# 3 51.6907 30.3337 70.6630 0.0000 0.0000 0.0000
# 4 0.0000 0.0000 0.0000 30.5906 0.0000 0.0000
# 5 0.0000 0.0000 0.0000 0.0000 28.5026 0.0000
# 6 0.0000 0.0000 0.0000 0.0000 0.0000 28.8570
#
#
#
# Elastic Compliance Matrix: (Units=1/GPa)
#
#
# Indices 1 2 3 4 5 6 
#
# 1 0.014432 -0.010769 -0.005934 0.000000 0.000000 0.000000
# 2 -0.010769 0.043344 -0.010728 0.000000 0.000000 0.000000
# 3 -0.005934 -0.010728 0.023098 0.000000 0.000000 0.000000
# 4 0.000000 0.000000 0.000000 0.032690 0.000000 0.000000
# 5 0.000000 0.000000 0.000000 0.000000 0.035084 0.000000
# 6 0.000000 0.000000 0.000000 0.000000 0.000000 0.034654
#
#
# Mechanical properties :
#
#
# Convention : Reuss Voigt Hill
#
# Bulk Modulus (GPa) = 38.44690 53.95372 46.20031
# Shear Modulus (GPa) = 20.25647 24.89235 22.57441
#
# Velocity S-wave (km/s) = 3.17104 3.51522 3.34756
# Velocity P-wave (km/s) = 5.70024 6.57714 6.15433
#
# Compressibility (1/GPa) = 0.02600990
#
# Stress axis : x y z
#
# Youngs Moduli (GPa) = 69.29249 23.07124 43.29423
#
# Poissons Ratio (x) = 0.24847 0.25690
# Poissons Ratio (y) = 0.74624 0.46448
# Poissons Ratio (z) = 0.41117 0.24752
#
# Static dielectric constant tensor:
#      x y z
#    x 1.741220 0.000000 0.000000 
#    y 0.000000 1.667360 0.000000 
#    z 0.000000 0.000000 1.692430 
# 
# From -- ./inp_files/22797.got.cif
#   From: 2010.05.17/outbox.cif.g08.bks.cpg/sg62_12_cif.got.tgz:22797.got - 2010.06.03 15:25:27.
