data_PCOD9465631
_publ_section_title
;
Structure prediction by ZEFSAII (Michael W. Deem and Ramdas Pophale) SiO2 
 PCOD9465631
Probable space group: P N M A
;
_chemical_formula_sum "Si O2"
_cell_formula_units_Z 56
_cell_length_a 22.838728
_cell_length_b 22.937527
_cell_length_c 5.380784
_cell_angle_alpha 90.000000
_cell_angle_beta 90.000000
_cell_angle_gamma 90.000000
_cell_volume 2818.798707
_symmetry_space_group_name_H-M "P N M A"
_symmetry_group_IT_number 62
_symmetry_cell_setting 'orthorhombic'
loop_
_space_group_symop_operation_xyz
x,y,z
1/2-x,-y,1/2+z
1/2+x,1/2-y,1/2-z
-x,1/2+y,-z
-x,-y,-z
1/2+x,y,1/2-z
1/2-x,1/2+y,1/2+z
x,1/2-y,z
loop_
_atom_site_type_symbol
_atom_site_label
_atom_site_fract_x
_atom_site_fract_y
_atom_site_fract_z
Si Si1 0.745869 0.037076 0.238796
Si Si2 0.582748 0.964630 0.408236
Si Si3 0.616881 0.078103 0.187501
Si Si4 0.562236 0.183591 0.420980
Si Si5 0.548345 0.816266 0.896565
Si Si6 0.970786 0.907033 0.294375
Si Si7 0.864674 0.408833 0.401902
O O1 0.685507 0.068483 0.163713
O O2 0.797517 0.079385 0.331675
O O3 0.735337 0.996935 0.485709
O O4 0.515764 0.947477 0.353417
O O5 0.600238 0.938835 0.674066
O O6 0.596586 0.033314 0.401787
O O7 0.619889 0.936662 0.173342
O O8 0.599307 0.145329 0.227051
O O9 0.574141 0.058295 0.965644
O O10 0.581016 0.250000 0.446058
O O11 0.493020 0.184182 0.347884
O O12 0.566389 0.142214 0.655344
O O13 0.546116 0.750000 0.994581
O O14 0.613409 0.841926 0.884261
O O15 0.515306 0.865720 0.052040
#
# Coordination Sequence:
#
# PCOD9465631 Si02
#       7
#     8   8   8   8   8   8   8
#     4  12  24  42  64  88 125 166 208 254 310 378
#     4  11  22  38  62  93 129 154 200 260 320 369
#     4  11  24  37  60  91 124 165 210 257 315 379
#     4  10  21  38  60  86 124 165 207 248 307 376
#     4   9  19  37  60  88 121 162 203 251 308 366
#     4  10  21  36  59  95 125 165 199 262 316 385
#     4  11  21  40  61  93 121 159 207 255 304 368
#
# _framework density 19.866617999999999
#
# number of rings (size 3 to 8) (size 9 to 14) (size 15 to 20)
#    0.000    1.429    4.286    0.857    4.000    1.143 
#    0.000    0.714    0.000    0.000    0.000    0.000 
#    0.000    0.000    0.000    0.000    0.000    0.000 
#
# Total GULP energy -312101.033805 kJ/mol
# GULP energy per Si atom -5573.232747 kJ/mol
# Density = 1.982140 g / cm^3
# Si number density = 19.866618 Si / 1000 Ang^3
#
#
#
# Elastic Constant Matrix: (Units=GPa)
#
#
# Indices 1 2 3 4 5 6 
#
# 1 122.2832 24.3719 0.4544 0.0000 0.0000 0.0000
# 2 24.3719 98.0375 9.4556 0.0000 0.0000 0.0000
# 3 0.4544 9.4556 65.9563 0.0000 0.0000 0.0000
# 4 0.0000 0.0000 0.0000 16.5424 0.0000 0.0000
# 5 0.0000 0.0000 0.0000 0.0000 26.1299 0.0000
# 6 0.0000 0.0000 0.0000 0.0000 0.0000 23.4105
#
#
#
# Elastic Compliance Matrix: (Units=1/GPa)
#
#
# Indices 1 2 3 4 5 6 
#
# 1 0.008608 -0.002164 0.000251 0.000000 0.000000 0.000000
# 2 -0.002164 0.010887 -0.001546 0.000000 0.000000 0.000000
# 3 0.000251 -0.001546 0.015381 0.000000 0.000000 0.000000
# 4 0.000000 0.000000 0.000000 0.060451 0.000000 0.000000
# 5 0.000000 0.000000 0.000000 0.000000 0.038270 0.000000
# 6 0.000000 0.000000 0.000000 0.000000 0.000000 0.042716
#
#
# Mechanical properties :
#
#
# Convention : Reuss Voigt Hill
#
# Bulk Modulus (GPa) = 35.76711 39.42673 37.59692
# Shear Modulus (GPa) = 25.96704 30.01622 27.99163
#
# Velocity S-wave (km/s) = 3.61926 3.89123 3.75771
# Velocity P-wave (km/s) = 5.95887 6.33069 6.14759
#
# Compressibility (1/GPa) = 0.02795864
#
# Stress axis : x y z
#
# Youngs Moduli (GPa) = 116.16915 91.85022 65.01334
#
# Poissons Ratio (x) = 0.19878 -0.01632
# Poissons Ratio (y) = 0.25141 0.10051
# Poissons Ratio (z) = -0.02915 0.14199
#
# Static dielectric constant tensor:
#      x y z
#    x 1.728310 0.000000 0.000000 
#    y 0.000000 1.697420 0.000000 
#    z 0.000000 0.000000 1.829600 
# 
# From -- ./inp_files/2279.got.cif
#   From: 2010.05.17/outbox.cif.g08.bks.cpg/sg62_2_cif.got.tgz:2279.got - 2010.06.03 15:25:27.
