data_PCOD9465632
_publ_section_title
;
Structure prediction by ZEFSAII (Michael W. Deem and Ramdas Pophale) SiO2 
 PCOD9465632
Probable space group: P N M A
;
_chemical_formula_sum "Si O2"
_cell_formula_units_Z 40
_cell_length_a 5.032671
_cell_length_b 21.790993
_cell_length_c 17.185755
_cell_angle_alpha 90.000000
_cell_angle_beta 90.000000
_cell_angle_gamma 90.000000
_cell_volume 1884.708450
_symmetry_space_group_name_H-M "P N M A"
_symmetry_group_IT_number 62
_symmetry_cell_setting 'orthorhombic'
loop_
_space_group_symop_operation_xyz
x,y,z
1/2-x,-y,1/2+z
1/2+x,1/2-y,1/2-z
-x,1/2+y,-z
-x,-y,-z
1/2+x,y,1/2-z
1/2-x,1/2+y,1/2+z
x,1/2-y,z
loop_
_atom_site_type_symbol
_atom_site_label
_atom_site_fract_x
_atom_site_fract_y
_atom_site_fract_z
Si Si1 0.562979 0.750000 0.052348
Si Si2 0.500081 0.111209 0.701088
Si Si3 0.899624 0.933702 0.026290
Si Si4 0.546228 0.677663 0.800159
Si Si5 0.901727 0.627577 0.537294
Si Si6 0.062673 0.750000 0.151683
O O1 0.371407 0.750000 0.127779
O O2 0.869659 0.750000 0.076391
O O3 0.487294 0.809950 0.004915
O O4 0.213149 0.093739 0.733579
O O5 0.565641 0.081283 0.617813
O O6 0.503945 0.185474 0.691958
O O7 0.598086 0.922594 0.999990
O O8 0.097604 0.886950 0.981779
O O9 0.000000 0.000000 0.000000
O O10 0.344451 0.667195 0.728825
O O11 0.519075 0.750000 0.821526
O O12 0.461125 0.636459 0.872228
#
# Coordination Sequence:
#
# PCOD9465632 Si02
#       6
#     4   8   8   8   8   4
#     4  12  20  37  66 103 128 164 210 270 328 397
#     4  12  24  42  66  99 137 172 211 274 337 391
#     4  12  27  47  68  92 127 182 228 268 314 385
#     4  10  21  36  59  96 133 162 200 262 335 384
#     4  12  22  43  68  94 131 167 222 271 326 398
#     4  12  22  39  64 103 146 162 210 262 344 417
#
# _framework density 21.223441999999999
#
# number of rings (size 3 to 8) (size 9 to 14) (size 15 to 20)
#    0.000    0.400    5.000    4.800    0.000    0.000 
#    0.000    6.000    0.000    0.000    0.000    0.000 
#    0.000    0.000    0.000    0.000    0.000    0.000 
#
# Total GULP energy -223857.702005 kJ/mol
# GULP energy per Si atom -5596.442550 kJ/mol
# Density = 2.117514 g / cm^3
# Si number density = 21.223442 Si / 1000 Ang^3
#
#
#
# Elastic Constant Matrix: (Units=GPa)
#
#
# Indices 1 2 3 4 5 6 
#
# 1 56.7250 -3.9611 -11.8339 0.0000 0.0000 0.0000
# 2 -3.9611 53.7422 20.6606 0.0000 0.0000 0.0000
# 3 -11.8339 20.6606 89.1243 0.0000 0.0000 0.0000
# 4 0.0000 0.0000 0.0000 4.5252 0.0000 0.0000
# 5 0.0000 0.0000 0.0000 0.0000 28.2902 0.0000
# 6 0.0000 0.0000 0.0000 0.0000 0.0000 13.8881
#
#
#
# Elastic Compliance Matrix: (Units=1/GPa)
#
#
# Indices 1 2 3 4 5 6 
#
# 1 0.018141 0.000451 0.002304 0.000000 0.000000 0.000000
# 2 0.000451 0.020439 -0.004678 0.000000 0.000000 0.000000
# 3 0.002304 -0.004678 0.012611 0.000000 0.000000 0.000000
# 4 0.000000 0.000000 0.000000 0.220983 0.000000 0.000000
# 5 0.000000 0.000000 0.000000 0.000000 0.035348 0.000000
# 6 0.000000 0.000000 0.000000 0.000000 0.000000 0.072004
#
#
# Mechanical properties :
#
#
# Convention : Reuss Voigt Hill
#
# Bulk Modulus (GPa) = 21.12137 23.25806 22.18972
# Shear Modulus (GPa) = 12.52650 22.32244 17.42447
#
# Velocity S-wave (km/s) = 2.43208 3.24664 2.86842
# Velocity P-wave (km/s) = 4.22613 5.00366 4.63124
#
# Compressibility (1/GPa) = 0.04734541
#
# Stress axis : x y z
#
# Youngs Moduli (GPa) = 55.12343 48.92585 79.29762
#
# Poissons Ratio (x) = -0.02208 -0.18271
# Poissons Ratio (y) = -0.02488 0.37097
# Poissons Ratio (z) = -0.12701 0.22889
#
# Static dielectric constant tensor:
#      x y z
#    x 1.727020 0.000000 0.000000 
#    y 0.000000 1.768160 0.000000 
#    z 0.000000 0.000000 1.757000 
# 
# From -- ./inp_files/16177.got.cif
#   From: 2010.05.17/outbox.cif.g08.bks.cpg/sg62_9_cif.got.tgz:16177.got - 2010.06.03 15:25:27.
