data_PCOD9465615
_publ_section_title
;
Structure prediction by ZEFSAII (Michael W. Deem and Ramdas Pophale) SiO2 
 PCOD9465615
Probable space group: P N M A
;
_chemical_formula_sum "Si O2"
_cell_formula_units_Z 64
_cell_length_a 17.499250
_cell_length_b 27.394135
_cell_length_c 6.805618
_cell_angle_alpha 90.000000
_cell_angle_beta 90.000000
_cell_angle_gamma 90.000000
_cell_volume 3262.455494
_symmetry_space_group_name_H-M "P N M A"
_symmetry_group_IT_number 62
_symmetry_cell_setting 'orthorhombic'
loop_
_space_group_symop_operation_xyz
x,y,z
1/2-x,-y,1/2+z
1/2+x,1/2-y,1/2-z
-x,1/2+y,-z
-x,-y,-z
1/2+x,y,1/2-z
1/2-x,1/2+y,1/2+z
x,1/2-y,z
loop_
_atom_site_type_symbol
_atom_site_label
_atom_site_fract_x
_atom_site_fract_y
_atom_site_fract_z
Si Si1 0.800838 0.881196 0.213970
Si Si2 0.453646 0.483051 0.811636
Si Si3 0.808455 0.694268 0.553372
Si Si4 0.851760 0.192895 0.291964
Si Si5 0.133249 0.197438 0.040865
Si Si6 0.129105 0.617131 0.348274
Si Si7 0.478977 0.343001 0.506557
Si Si8 0.427758 0.939835 0.500566
O O1 0.825057 0.848903 0.401511
O O2 0.712686 0.892701 0.241908
O O3 0.810139 0.842754 0.037835
O O4 0.855407 0.923861 0.133581
O O5 0.404487 0.436774 0.882358
O O6 0.515140 0.465227 0.651625
O O7 0.410612 0.526067 0.689104
O O8 0.500000 0.500000 0.000000
O O9 0.807747 0.750000 0.471079
O O10 0.726089 0.687228 0.661772
O O11 0.871288 0.692846 0.725161
O O12 0.853850 0.250000 0.356629
O O13 0.859858 0.153477 0.467423
O O14 0.923270 0.181306 0.150183
O O15 0.166929 0.250000 0.999081
O O16 0.050608 0.191446 0.944915
O O17 0.072240 0.642390 0.192612
O O18 0.524622 0.391588 0.433529
#
# Coordination Sequence:
#
# PCOD9465615 Si02
#       8
#     8   8   8   8   8   8   8   8
#     4  11  21  39  61  91 124 163 208 262 321 376
#     4  10  21  44  66  89 119 161 203 257 335 386
#     4  10  21  36  58  86 127 175 211 256 321 377
#     4  11  22  36  58  92 128 170 215 256 308 379
#     4  10  21  37  57  88 127 167 214 263 306 375
#     4  11  23  39  63  93 125 166 209 264 320 385
#     4  10  21  39  61  87 122 165 209 260 315 371
#     4   9  22  40  65  89 119 156 208 262 316 394
#
# _framework density 19.617125000000001
#
# number of rings (size 3 to 8) (size 9 to 14) (size 15 to 20)
#    0.000    1.750    2.500    1.500    0.000    6.500 
#    2.250    0.000    0.000    0.000    0.000    0.000 
#    0.000    0.000    0.000    0.000    0.000    0.000 
#
# Total GULP energy -356556.802184 kJ/mol
# GULP energy per Si atom -5571.200034 kJ/mol
# Density = 1.957248 g / cm^3
# Si number density = 19.617125 Si / 1000 Ang^3
#
#
#
# Elastic Constant Matrix: (Units=GPa)
#
#
# Indices 1 2 3 4 5 6 
#
# 1 90.6326 21.6538 15.3842 0.0000 0.0000 0.0000
# 2 21.6538 100.5105 42.9718 0.0000 0.0000 0.0000
# 3 15.3842 42.9718 59.6952 0.0000 0.0000 0.0000
# 4 0.0000 0.0000 0.0000 41.2653 0.0000 0.0000
# 5 0.0000 0.0000 0.0000 0.0000 29.8861 0.0000
# 6 0.0000 0.0000 0.0000 0.0000 0.0000 134.0555
#
#
#
# Elastic Compliance Matrix: (Units=1/GPa)
#
#
# Indices 1 2 3 4 5 6 
#
# 1 0.011757 -0.001788 -0.001743 0.000000 0.000000 0.000000
# 2 -0.001788 0.014644 -0.010081 0.000000 0.000000 0.000000
# 3 -0.001743 -0.010081 0.024458 0.000000 0.000000 0.000000
# 4 0.000000 0.000000 0.000000 0.024233 0.000000 0.000000
# 5 0.000000 0.000000 0.000000 0.000000 0.033460 0.000000
# 6 0.000000 0.000000 0.000000 0.000000 0.000000 0.007460
#
#
# Mechanical properties :
#
#
# Convention : Reuss Voigt Hill
#
# Bulk Modulus (GPa) = 42.30953 45.65088 43.98021
# Shear Modulus (GPa) = 33.08761 52.42994 42.75877
#
# Velocity S-wave (km/s) = 4.11136 5.17539 4.67375
# Velocity P-wave (km/s) = 6.64471 7.68338 7.18284
#
# Compressibility (1/GPa) = 0.02363533
#
# Stress axis : x y z
#
# Youngs Moduli (GPa) = 85.05919 68.28574 40.88669
#
# Poissons Ratio (x) = 0.12207 0.07126
# Poissons Ratio (y) = 0.15205 0.41218
# Poissons Ratio (z) = 0.14826 0.68839
#
# Static dielectric constant tensor:
#      x y z
#    x 1.702430 0.000000 0.000000 
#    y 0.000000 1.736550 0.000000 
#    z 0.000000 0.000000 1.697090 
# 
# From -- ./inp_files/1899.got.cif
#   From: 2010.05.17/outbox.cif.g08.bks.cpg/sg62_1_cif.got.tgz:1899.got - 2010.06.03 15:25:27.
