data_PCOD9465315
_publ_section_title
;
Structure prediction by ZEFSAII (Michael W. Deem and Ramdas Pophale) SiO2 
 PCOD9465315
Probable space group: P N M A
;
_chemical_formula_sum "Si O2"
_cell_formula_units_Z 64
_cell_length_a 16.899561
_cell_length_b 13.667675
_cell_length_c 12.425009
_cell_angle_alpha 90.000000
_cell_angle_beta 90.000000
_cell_angle_gamma 90.000000
_cell_volume 2869.900093
_symmetry_space_group_name_H-M "P N M A"
_symmetry_group_IT_number 62
_symmetry_cell_setting 'orthorhombic'
loop_
_space_group_symop_operation_xyz
x,y,z
1/2-x,-y,1/2+z
1/2+x,1/2-y,1/2-z
-x,1/2+y,-z
-x,-y,-z
1/2+x,y,1/2-z
1/2-x,1/2+y,1/2+z
x,1/2-y,z
loop_
_atom_site_type_symbol
_atom_site_label
_atom_site_fract_x
_atom_site_fract_y
_atom_site_fract_z
Si Si1 0.716505 0.945377 0.995826
Si Si2 0.688530 0.860837 0.228383
Si Si3 0.500444 0.864180 0.279839
Si Si4 0.307121 0.135079 0.420721
Si Si5 0.268704 0.933241 0.717652
Si Si6 0.011409 0.867539 0.979585
Si Si7 0.062820 0.134593 0.242434
Si Si8 0.548526 0.518961 0.891424
O O1 0.771959 0.897342 0.904887
O O2 0.635856 0.958160 0.930038
O O3 0.751517 0.050768 0.029951
O O4 0.701190 0.881576 0.101644
O O5 0.712144 0.750000 0.256382
O O6 0.595560 0.871156 0.259077
O O7 0.736784 0.948785 0.283350
O O8 0.479511 0.750000 0.270570
O O9 0.483826 0.898495 0.402018
O O10 0.457463 0.927897 0.190123
O O11 0.289473 0.250000 0.444562
O O12 0.296504 0.117292 0.292552
O O13 0.395801 0.113056 0.460057
O O14 0.353312 0.911696 0.772128
O O15 0.005724 0.750000 0.980802
O O16 0.962241 0.900567 0.876361
O O17 0.072158 0.250000 0.241415
O O18 0.995407 0.104032 0.325615
O O19 0.500000 0.500000 0.000000
#
# Coordination Sequence:
#
# PCOD9465315 Si02
#       8
#     8   8   8   8   8   8   8   8
#     4  11  24  39  63  94 127 165 217 267 327 395
#     4  10  21  41  63  88 123 169 214 262 324 387
#     4  10  20  39  65  90 123 163 211 269 316 375
#     4  10  21  40  65  92 129 172 214 263 324 392
#     4  11  22  41  61  95 130 165 212 269 328 390
#     4   9  20  40  67  96 124 168 222 263 320 394
#     4  11  24  42  65  95 131 170 217 273 329 389
#     4  12  23  41  62  93 129 166 219 263 323 390
#
# _framework density 22.300428
#
# number of rings (size 3 to 8) (size 9 to 14) (size 15 to 20)
#    0.000    1.500    2.500    2.625    0.000    4.500 
#    4.500    0.000    0.000    0.000    0.000    0.000 
#    0.000    0.000    0.000    0.000    0.000    0.000 
#
# Total GULP energy -357833.716438 kJ/mol
# GULP energy per Si atom -5591.151819 kJ/mol
# Density = 2.224967 g / cm^3
# Si number density = 22.300428 Si / 1000 Ang^3
#
#
#
# Elastic Constant Matrix: (Units=GPa)
#
#
# Indices 1 2 3 4 5 6 
#
# 1 33.2030 -10.1974 -0.3224 0.0000 0.0000 0.0000
# 2 -10.1974 90.9326 -5.0142 0.0000 0.0000 0.0000
# 3 -0.3224 -5.0142 126.7728 0.0000 0.0000 0.0000
# 4 0.0000 0.0000 0.0000 -22.2501 0.0000 0.0000
# 5 0.0000 0.0000 0.0000 0.0000 33.0996 0.0000
# 6 0.0000 0.0000 0.0000 0.0000 0.0000 14.0341
#
#
#
# Elastic Compliance Matrix: (Units=1/GPa)
#
#
# Indices 1 2 3 4 5 6 
#
# 1 0.031198 0.003511 0.000218 0.000000 0.000000 0.000000
# 2 0.003511 0.011416 0.000460 0.000000 0.000000 0.000000
# 3 0.000218 0.000460 0.007907 0.000000 0.000000 0.000000
# 4 0.000000 0.000000 0.000000 -0.044944 0.000000 0.000000
# 5 0.000000 0.000000 0.000000 0.000000 0.030212 0.000000
# 6 0.000000 0.000000 0.000000 0.000000 0.000000 0.071255
#
#
# Mechanical properties :
#
#
# Convention : Reuss Voigt Hill
#
# Bulk Modulus (GPa) = 16.97796 24.42671 20.70234
# Shear Modulus (GPa) = 42.26568 22.73953 32.50261
#
# Velocity S-wave (km/s) = 4.35821 3.19672 3.82185
# Velocity P-wave (km/s) = 5.74066 4.96010 5.36460
#
# Compressibility (1/GPa) = 0.05889989
#
# Stress axis : x y z
#
# Youngs Moduli (GPa) = 32.05323 87.59449 126.47185
#
# Poissons Ratio (x) = -0.30752 -0.02759
# Poissons Ratio (y) = -0.11253 -0.05824
# Poissons Ratio (z) = -0.00699 -0.04033
#
# Static dielectric constant tensor:
#      x y z
#    x 1.863250 0.000000 0.000000 
#    y 0.000000 1.821830 0.000000 
#    z 0.000000 0.000000 1.922560 
# 
# From -- ./inp_files/14310.got.cif
#   From: 2010.05.17/outbox.cif.g08.bks.cpg/sg62_8_cif.got.tgz:14310.got - 2010.06.03 15:25:27.
