data_PCOD9465562
_publ_section_title
;
Structure prediction by ZEFSAII (Michael W. Deem and Ramdas Pophale) SiO2 
 PCOD9465562
Probable space group: P N M A
;
_chemical_formula_sum "Si O2"
_cell_formula_units_Z 56
_cell_length_a 23.333976
_cell_length_b 9.099114
_cell_length_c 14.047876
_cell_angle_alpha 90.000000
_cell_angle_beta 90.000000
_cell_angle_gamma 90.000000
_cell_volume 2982.624069
_symmetry_space_group_name_H-M "P N M A"
_symmetry_group_IT_number 62
_symmetry_cell_setting 'orthorhombic'
loop_
_space_group_symop_operation_xyz
x,y,z
1/2-x,-y,1/2+z
1/2+x,1/2-y,1/2-z
-x,1/2+y,-z
-x,-y,-z
1/2+x,y,1/2-z
1/2-x,1/2+y,1/2+z
x,1/2-y,z
loop_
_atom_site_type_symbol
_atom_site_label
_atom_site_fract_x
_atom_site_fract_y
_atom_site_fract_z
Si Si1 0.121842 0.575593 0.726402
Si Si2 0.655389 0.424814 0.278993
Si Si3 0.266179 0.425845 0.100954
Si Si4 0.938043 0.075693 0.893216
Si Si5 0.072798 0.424519 0.907996
Si Si6 0.058328 0.926206 0.534750
Si Si7 0.331497 0.925060 0.940039
O O1 0.120504 0.750000 0.746429
O O2 0.182395 0.542080 0.675574
O O3 0.110208 0.487769 0.822220
O O4 0.073827 0.544181 0.645561
O O5 0.644835 0.250000 0.286990
O O6 0.706011 0.464343 0.351741
O O7 0.598297 0.510292 0.307020
O O8 0.675384 0.453884 0.171645
O O9 0.267956 0.250000 0.083565
O O10 0.280742 0.511432 0.004833
O O11 0.930846 0.250000 0.899417
O O12 0.005786 0.044423 0.884491
O O13 0.916428 0.000636 0.990687
O O14 0.080208 0.250000 0.917216
O O15 0.056548 0.750000 0.522712
O O16 0.111066 0.994306 0.475920
O O17 0.000000 0.000000 0.500000
O O18 0.336872 0.750000 0.954291
#
# Coordination Sequence:
#
# PCOD9465562 Si02
#       7
#     8   8   8   8   8   8   8
#     4   9  19  35  56  80 110 149 187 230 285 340
#     4  10  22  39  60  84 115 153 193 238 291 345
#     4   9  20  40  59  81 114 151 192 239 285 336
#     4  10  22  38  56  82 113 147 189 236 286 341
#     4  10  21  37  57  83 114 148 187 235 285 342
#     4  10  21  36  55  82 115 151 189 234 287 344
#     4  10  21  37  57  85 117 151 191 237 286 342
#
# _framework density 18.775414999999999
#
# number of rings (size 3 to 8) (size 9 to 14) (size 15 to 20)
#    0.000    2.286    0.000    2.571    2.000    7.429 
#    0.000    1.429    0.000    0.000    0.000    0.000 
#    0.000    0.000    0.000    0.000    0.000    0.000 
#
# Total GULP energy -312732.352740 kJ/mol
# GULP energy per Si atom -5584.506299 kJ/mol
# Density = 1.873268 g / cm^3
# Si number density = 18.775415 Si / 1000 Ang^3
#
#
#
# Elastic Constant Matrix: (Units=GPa)
#
#
# Indices 1 2 3 4 5 6 
#
# 1 21.6603 15.1488 9.8769 0.0000 0.0000 0.0000
# 2 15.1488 38.1749 36.5625 0.0000 0.0000 0.0000
# 3 9.8769 36.5625 73.3154 0.0000 0.0000 0.0000
# 4 0.0000 0.0000 0.0000 36.3457 0.0000 0.0000
# 5 0.0000 0.0000 0.0000 0.0000 17.8758 0.0000
# 6 0.0000 0.0000 0.0000 0.0000 0.0000 22.3446
#
#
#
# Elastic Compliance Matrix: (Units=1/GPa)
#
#
# Indices 1 2 3 4 5 6 
#
# 1 0.066275 -0.033977 0.008016 0.000000 0.000000 0.000000
# 2 -0.033977 0.067566 -0.029118 0.000000 0.000000 0.000000
# 3 0.008016 -0.029118 0.027081 0.000000 0.000000 0.000000
# 4 0.000000 0.000000 0.000000 0.027514 0.000000 0.000000
# 5 0.000000 0.000000 0.000000 0.000000 0.055941 0.000000
# 6 0.000000 0.000000 0.000000 0.000000 0.000000 0.044753
#
#
# Mechanical properties :
#
#
# Convention : Reuss Voigt Hill
#
# Bulk Modulus (GPa) = 19.69893 28.48078 24.08986
# Shear Modulus (GPa) = 12.01314 20.08406 16.04860
#
# Velocity S-wave (km/s) = 2.53224 3.27418 2.92681
# Velocity P-wave (km/s) = 4.36627 5.43100 4.92748
#
# Compressibility (1/GPa) = 0.05076417
#
# Stress axis : x y z
#
# Youngs Moduli (GPa) = 15.08864 14.80026 36.92613
#
# Poissons Ratio (x) = 0.50287 -0.29600
# Poissons Ratio (y) = 0.51266 1.07522
# Poissons Ratio (z) = -0.12095 0.43096
#
# Static dielectric constant tensor:
#      x y z
#    x 1.642230 0.000000 0.000000 
#    y 0.000000 1.621660 0.000000 
#    z 0.000000 0.000000 1.636480 
# 
# From -- ./inp_files/20322.got.cif
#   From: 2010.05.17/outbox.cif.g08.bks.cpg/sg62_11_cif.got.tgz:20322.got - 2010.06.03 15:25:27.
