data_PCOD9465095
_publ_section_title
;
Structure prediction by ZEFSAII (Michael W. Deem and Ramdas Pophale) SiO2 
 PCOD9465095
Probable space group: P N M A
;
_chemical_formula_sum "Si O2"
_cell_formula_units_Z 48
_cell_length_a 20.321582
_cell_length_b 8.458059
_cell_length_c 15.515403
_cell_angle_alpha 90.000000
_cell_angle_beta 90.000000
_cell_angle_gamma 90.000000
_cell_volume 2666.805148
_symmetry_space_group_name_H-M "P N M A"
_symmetry_group_IT_number 62
_symmetry_cell_setting 'orthorhombic'
loop_
_space_group_symop_operation_xyz
x,y,z
1/2-x,-y,1/2+z
1/2+x,1/2-y,1/2-z
-x,1/2+y,-z
-x,-y,-z
1/2+x,y,1/2-z
1/2-x,1/2+y,1/2+z
x,1/2-y,z
loop_
_atom_site_type_symbol
_atom_site_label
_atom_site_fract_x
_atom_site_fract_y
_atom_site_fract_z
Si Si1 0.460992 0.060679 0.582162
Si Si2 0.484864 0.441881 0.771695
Si Si3 0.666662 0.941008 0.200065
Si Si4 0.803411 0.441109 0.510034
Si Si5 0.814561 0.560563 0.886974
Si Si6 0.058153 0.440217 0.561878
O O1 0.461610 0.250000 0.582033
O O2 0.492691 0.005344 0.673111
O O3 0.500000 0.000000 0.500000
O O4 0.385499 0.004716 0.584555
O O5 0.486066 0.250000 0.771687
O O6 0.410829 0.487122 0.800734
O O7 0.537865 0.494138 0.841785
O O8 0.669012 0.750000 0.204781
O O9 0.696517 0.007287 0.288268
O O10 0.698843 0.992673 0.110130
O O11 0.803078 0.250000 0.510684
O O12 0.742775 0.495305 0.451179
O O13 0.872244 0.495819 0.469734
O O14 0.816925 0.750000 0.889600
O O15 0.059266 0.250000 0.559775
O O16 0.000000 0.500000 0.500000
#
# Coordination Sequence:
#
# PCOD9465095 Si02
#       6
#     8   8   8   8   8   8
#     4  10  20  38  61  82 109 145 187 230 274 330
#     4   8  16  32  54  77 105 140 177 217 268 329
#     4   9  17  35  58  75 103 147 184 217 271 333
#     4  10  21  38  56  78 113 150 182 226 280 331
#     4  10  21  37  57  82 112 145 184 230 276 327
#     4  11  20  33  55  84 113 144 183 227 274 330
#
# _framework density 17.999064000000001
#
# number of rings (size 3 to 8) (size 9 to 14) (size 15 to 20)
#    0.000    2.333    1.667    2.500    0.000    2.000 
#    3.000    2.500    0.000    0.000    0.000    0.000 
#    0.000    0.000    0.000    0.000    0.000    0.000 
#
# Total GULP energy -267741.004525 kJ/mol
# GULP energy per Si atom -5577.937594 kJ/mol
# Density = 1.795810 g / cm^3
# Si number density = 17.999064 Si / 1000 Ang^3
#
#
#
# Elastic Constant Matrix: (Units=GPa)
#
#
# Indices 1 2 3 4 5 6 
#
# 1 93.0648 18.7594 100.4373 0.0000 0.0000 0.0000
# 2 18.7594 21.2312 30.8601 0.0000 0.0000 0.0000
# 3 100.4373 30.8601 206.0101 0.0000 0.0000 0.0000
# 4 0.0000 0.0000 0.0000 29.2109 0.0000 0.0000
# 5 0.0000 0.0000 0.0000 0.0000 36.0904 0.0000
# 6 0.0000 0.0000 0.0000 0.0000 0.0000 24.1322
#
#
#
# Elastic Compliance Matrix: (Units=1/GPa)
#
#
# Indices 1 2 3 4 5 6 
#
# 1 0.023112 -0.005168 -0.010494 0.000000 0.000000 0.000000
# 2 -0.005168 0.061366 -0.006673 0.000000 0.000000 0.000000
# 3 -0.010494 -0.006673 0.010970 0.000000 0.000000 0.000000
# 4 0.000000 0.000000 0.000000 0.034234 0.000000 0.000000
# 5 0.000000 0.000000 0.000000 0.000000 0.027708 0.000000
# 6 0.000000 0.000000 0.000000 0.000000 0.000000 0.041438
#
#
# Mechanical properties :
#
#
# Convention : Reuss Voigt Hill
#
# Bulk Modulus (GPa) = 19.69351 68.93551 44.31451
# Shear Modulus (GPa) = 19.19943 29.23665 24.21804
#
# Velocity S-wave (km/s) = 3.26957 4.03469 3.67211
# Velocity P-wave (km/s) = 5.02181 7.75162 6.53093
#
# Compressibility (1/GPa) = 0.05077816
#
# Stress axis : x y z
#
# Youngs Moduli (GPa) = 43.26749 16.29561 91.15960
#
# Poissons Ratio (x) = 0.08422 0.95660
# Poissons Ratio (y) = 0.22362 0.60829
# Poissons Ratio (z) = 0.45404 0.10874
#
# Static dielectric constant tensor:
#      x y z
#    x 1.581110 0.000000 0.000000 
#    y 0.000000 1.623430 0.000000 
#    z 0.000000 0.000000 1.640550 
# 
# From -- ./inp_files/19598.got.cif
#   From: 2010.05.17/outbox.cif.g08.bks.cpg/sg62_10_cif.got.tgz:19598.got - 2010.06.03 15:25:27.
