data_PCOD9465868
_publ_section_title
;
Structure prediction by ZEFSAII (Michael W. Deem and Ramdas Pophale) SiO2 
 PCOD9465868
Probable space group: P N M A
;
_chemical_formula_sum "Si O2"
_cell_formula_units_Z 64
_cell_length_a 33.105700
_cell_length_b 9.029704
_cell_length_c 11.006710
_cell_angle_alpha 90.000000
_cell_angle_beta 90.000000
_cell_angle_gamma 90.000000
_cell_volume 3290.287240
_symmetry_space_group_name_H-M "P N M A"
_symmetry_group_IT_number 62
_symmetry_cell_setting 'orthorhombic'
loop_
_space_group_symop_operation_xyz
x,y,z
1/2-x,-y,1/2+z
1/2+x,1/2-y,1/2-z
-x,1/2+y,-z
-x,-y,-z
1/2+x,y,1/2-z
1/2-x,1/2+y,1/2+z
x,1/2-y,z
loop_
_atom_site_type_symbol
_atom_site_label
_atom_site_fract_x
_atom_site_fract_y
_atom_site_fract_z
Si Si1 0.881635 0.923687 0.113301
Si Si2 0.830053 0.081560 0.520992
Si Si3 0.394837 0.573430 0.851610
Si Si4 0.232320 0.926405 0.275686
Si Si5 0.988652 0.930788 0.632592
Si Si6 0.314455 0.083571 0.256985
Si Si7 0.523111 0.429134 0.616917
Si Si8 0.665348 0.073859 0.362762
O O1 0.878170 0.750000 0.144609
O O2 0.928908 0.955643 0.098779
O O3 0.858232 0.021568 0.210080
O O4 0.855937 0.949619 0.991049
O O5 0.839998 0.250000 0.557406
O O6 0.795846 0.024740 0.612026
O O7 0.812502 0.083935 0.387851
O O8 0.870681 0.988288 0.533565
O O9 0.393614 0.750000 0.852561
O O10 0.441351 0.531594 0.847630
O O11 0.367925 0.523173 0.736796
O O12 0.232971 0.750000 0.267693
O O13 0.277147 0.984116 0.297581
O O14 0.207753 0.993255 0.161309
O O15 0.993545 0.750000 0.630045
O O16 0.000000 0.000000 0.500000
O O17 0.010647 0.999141 0.752375
O O18 0.309752 0.250000 0.303986
O O19 0.500000 0.500000 0.500000
O O20 0.516457 0.250000 0.619510
O O21 0.672027 0.250000 0.347501
#
# Coordination Sequence:
#
# PCOD9465868 Si02
#       8
#     8   8   8   8   8   8   8   8
#     4  10  23  41  62  88 123 161 201 249 306 364
#     4   9  21  39  58  82 116 152 192 244 299 353
#     4   9  19  37  62  87 114 152 200 245 296 361
#     4  10  21  38  59  85 115 153 197 242 295 358
#     4  11  24  41  63  94 130 169 214 264 320 384
#     4  11  24  39  57  85 119 156 198 246 299 355
#     4  11  24  44  69  98 131 170 214 264 324 390
#     4   9  18  37  62  86 114 152 195 247 298 350
#
# _framework density 19.451188999999999
#
# number of rings (size 3 to 8) (size 9 to 14) (size 15 to 20)
#    0.000    2.000    0.000    2.250    3.500    6.000 
#    0.000    2.500    0.000    0.000    0.000    0.000 
#    0.000    0.000    0.000    0.000    0.000    0.000 
#
# Total GULP energy -356947.441700 kJ/mol
# GULP energy per Si atom -5577.303777 kJ/mol
# Density = 1.940692 g / cm^3
# Si number density = 19.451189 Si / 1000 Ang^3
#
#
#
# Elastic Constant Matrix: (Units=GPa)
#
#
# Indices 1 2 3 4 5 6 
#
# 1 101.9980 46.1329 19.6424 0.0000 0.0000 0.0000
# 2 46.1329 49.9063 42.2374 0.0000 0.0000 0.0000
# 3 19.6424 42.2374 67.0521 0.0000 0.0000 0.0000
# 4 0.0000 0.0000 0.0000 21.4499 0.0000 0.0000
# 5 0.0000 0.0000 0.0000 0.0000 23.2094 0.0000
# 6 0.0000 0.0000 0.0000 0.0000 0.0000 32.9247
#
#
#
# Elastic Compliance Matrix: (Units=1/GPa)
#
#
# Indices 1 2 3 4 5 6 
#
# 1 0.021129 -0.030613 0.013095 0.000000 0.000000 0.000000
# 2 -0.030613 0.087274 -0.046008 0.000000 0.000000 0.000000
# 3 0.013095 -0.046008 0.040059 0.000000 0.000000 0.000000
# 4 0.000000 0.000000 0.000000 0.046620 0.000000 0.000000
# 5 0.000000 0.000000 0.000000 0.000000 0.043086 0.000000
# 6 0.000000 0.000000 0.000000 0.000000 0.000000 0.030372
#
#
# Mechanical properties :
#
#
# Convention : Reuss Voigt Hill
#
# Bulk Modulus (GPa) = 46.71036 48.33134 47.52085
# Shear Modulus (GPa) = 12.41526 22.91305 17.66416
#
# Velocity S-wave (km/s) = 2.52916 3.43589 3.01678
# Velocity P-wave (km/s) = 5.70921 6.37510 6.05132
#
# Compressibility (1/GPa) = 0.02140853
#
# Stress axis : x y z
#
# Youngs Moduli (GPa) = 47.32908 11.45813 24.96318
#
# Poissons Ratio (x) = 0.35077 -0.32688
# Poissons Ratio (y) = 1.44891 1.14850
# Poissons Ratio (z) = -0.61975 0.52716
#
# Static dielectric constant tensor:
#      x y z
#    x 1.666150 0.000000 0.000000 
#    y 0.000000 1.610280 0.000000 
#    z 0.000000 0.000000 1.728690 
# 
# From -- ./inp_files/15771.got.cif
#   From: 2010.05.17/outbox.cif.g08.bks.cpg/sg62_8_cif.got.tgz:15771.got - 2010.06.03 15:25:27.
