data_PCOD9465025
_publ_section_title
;
Structure prediction by ZEFSAII (Michael W. Deem and Ramdas Pophale) SiO2 
 PCOD9465025
Probable space group: P N M A
;
_chemical_formula_sum "Si O2"
_cell_formula_units_Z 36
_cell_length_a 11.438367
_cell_length_b 14.009525
_cell_length_c 12.001133
_cell_angle_alpha 90.000000
_cell_angle_beta 90.000000
_cell_angle_gamma 90.000000
_cell_volume 1923.134620
_symmetry_space_group_name_H-M "P N M A"
_symmetry_group_IT_number 62
_symmetry_cell_setting 'orthorhombic'
loop_
_space_group_symop_operation_xyz
x,y,z
1/2-x,-y,1/2+z
1/2+x,1/2-y,1/2-z
-x,1/2+y,-z
-x,-y,-z
1/2+x,y,1/2-z
1/2-x,1/2+y,1/2+z
x,1/2-y,z
loop_
_atom_site_type_symbol
_atom_site_label
_atom_site_fract_x
_atom_site_fract_y
_atom_site_fract_z
Si Si1 0.681566 0.964604 0.511151
Si Si2 0.059662 0.750000 0.759616
Si Si3 0.921684 0.049775 0.592855
Si Si4 0.255657 0.250000 0.456673
Si Si5 0.035398 0.046621 0.175884
Si Si6 0.975095 0.250000 0.492984
O O1 0.703465 0.851226 0.490441
O O2 0.574706 0.974785 0.596917
O O3 0.792801 0.010294 0.570309
O O4 0.647926 0.020816 0.398793
O O5 0.177151 0.750000 0.836335
O O6 0.983551 0.656163 0.788158
O O7 0.086238 0.750000 0.628237
O O8 0.938216 0.159785 0.565565
O O9 0.962164 0.017584 0.714352
O O10 0.000000 0.000000 0.500000
O O11 0.114388 0.250000 0.462622
#
# Coordination Sequence:
#
# PCOD9465025 Si02
#       6
#     8   4   8   4   8   4
#     4  10  23  41  66  93 128 167 207 257 314 373
#     4  10  20  38  64  88 119 161 214 264 305 364
#     4  12  24  39  64  91 126 160 207 260 307 369
#     4  10  20  37  63  87 124 167 202 257 308 377
#     4  10  23  42  64  94 126 166 209 258 316 371
#     4  12  24  39  57  99 119 164 214 251 319 371
#
# _framework density 18.719436999999999
#
# number of rings (size 3 to 8) (size 9 to 14) (size 15 to 20)
#    0.000    1.333    4.444    0.000    3.111    3.556 
#    0.000    3.333    0.000    0.000    0.000    0.000 
#    0.000    0.000    0.000    0.000    0.000    0.000 
#
# Total GULP energy -200925.736930 kJ/mol
# GULP energy per Si atom -5581.270470 kJ/mol
# Density = 1.867683 g / cm^3
# Si number density = 18.719437 Si / 1000 Ang^3
#
#
#
# Elastic Constant Matrix: (Units=GPa)
#
#
# Indices 1 2 3 4 5 6 
#
# 1 64.1404 32.8774 8.4023 0.0000 0.0000 0.0000
# 2 32.8774 171.9622 64.5816 0.0000 0.0000 0.0000
# 3 8.4023 64.5816 106.5031 0.0000 0.0000 0.0000
# 4 0.0000 0.0000 0.0000 31.3870 0.0000 0.0000
# 5 0.0000 0.0000 0.0000 0.0000 8.7417 0.0000
# 6 0.0000 0.0000 0.0000 0.0000 0.0000 10.6795
#
#
#
# Elastic Compliance Matrix: (Units=1/GPa)
#
#
# Indices 1 2 3 4 5 6 
#
# 1 0.017341 -0.003628 0.000832 0.000000 0.000000 0.000000
# 2 -0.003628 0.008289 -0.004740 0.000000 0.000000 0.000000
# 3 0.000832 -0.004740 0.012198 0.000000 0.000000 0.000000
# 4 0.000000 0.000000 0.000000 0.031860 0.000000 0.000000
# 5 0.000000 0.000000 0.000000 0.000000 0.114395 0.000000
# 6 0.000000 0.000000 0.000000 0.000000 0.000000 0.093637
#
#
# Mechanical properties :
#
#
# Convention : Reuss Voigt Hill
#
# Bulk Modulus (GPa) = 43.94420 61.59203 52.76811
# Shear Modulus (GPa) = 16.64566 25.94460 21.29513
#
# Velocity S-wave (km/s) = 2.98521 3.72690 3.37648
# Velocity P-wave (km/s) = 5.95047 7.17592 6.59174
#
# Compressibility (1/GPa) = 0.02275613
#
# Stress axis : x y z
#
# Youngs Moduli (GPa) = 57.66537 120.64135 81.97996
#
# Poissons Ratio (x) = 0.43767 -0.06819
# Poissons Ratio (y) = 0.20920 0.38859
# Poissons Ratio (z) = -0.04797 0.57185
#
# Static dielectric constant tensor:
#      x y z
#    x 1.703480 0.000000 0.000000 
#    y 0.000000 1.611870 0.000000 
#    z 0.000000 0.000000 1.594680 
# 
# From -- ./inp_files/11889.got.cif
#   From: 2010.05.17/outbox.cif.g08.bks.cpg/sg62_6_cif.got.tgz:11889.got - 2010.06.03 15:25:27.
