data_PCOD9465379
_publ_section_title
;
Structure prediction by ZEFSAII (Michael W. Deem and Ramdas Pophale) SiO2 
 PCOD9465379
Probable space group: P N M A
;
_chemical_formula_sum "Si O2"
_cell_formula_units_Z 56
_cell_length_a 12.124855
_cell_length_b 13.156285
_cell_length_c 13.319668
_cell_angle_alpha 90.000000
_cell_angle_beta 90.000000
_cell_angle_gamma 90.000000
_cell_volume 2124.727439
_symmetry_space_group_name_H-M "P N M A"
_symmetry_group_IT_number 62
_symmetry_cell_setting 'orthorhombic'
loop_
_space_group_symop_operation_xyz
x,y,z
1/2-x,-y,1/2+z
1/2+x,1/2-y,1/2-z
-x,1/2+y,-z
-x,-y,-z
1/2+x,y,1/2-z
1/2-x,1/2+y,1/2+z
x,1/2-y,z
loop_
_atom_site_type_symbol
_atom_site_label
_atom_site_fract_x
_atom_site_fract_y
_atom_site_fract_z
Si Si1 0.069018 0.594594 0.446406
Si Si2 0.011070 0.636390 0.890011
Si Si3 0.897145 0.637984 0.581911
Si Si4 0.634981 0.536474 0.440148
Si Si5 0.340759 0.572662 0.170491
Si Si6 0.694585 0.138530 0.602838
Si Si7 0.722930 0.639793 0.755032
O O1 0.026984 0.641296 0.551900
O O2 0.960419 0.597790 0.375090
O O3 0.111866 0.478220 0.457176
O O4 0.173145 0.645633 0.398071
O O5 0.963535 0.750000 0.877727
O O6 0.121004 0.636419 0.822875
O O7 0.934349 0.538357 0.866203
O O8 0.054250 0.613377 0.002144
O O9 0.857623 0.750000 0.545239
O O10 0.834796 0.630844 0.688300
O O11 0.734148 0.604299 0.395371
O O12 0.667683 0.452159 0.525186
O O13 0.339481 0.611245 0.284223
O O14 0.304184 0.454313 0.175421
O O15 0.651304 0.250000 0.574723
O O16 0.724289 0.750000 0.804681
#
# Coordination Sequence:
#
# PCOD9465379 Si02
#       7
#     8   8   8   8   8   8   8
#     4  11  23  40  68  98 132 174 224 280 344 406
#     4  10  21  40  69  99 134 181 228 275 336 404
#     4  10  20  40  68  96 129 175 227 281 339 401
#     4  11  24  44  70  98 138 183 227 282 342 403
#     4  12  26  42  67 101 134 177 225 278 342 408
#     4  12  27  48  68  99 140 178 227 288 344 410
#     4  10  21  39  64  97 136 171 220 280 335 402
#
# _framework density 26.356321000000001
#
# number of rings (size 3 to 8) (size 9 to 14) (size 15 to 20)
#    0.000    1.143    2.857    3.429    2.000    3.429 
#    0.000    2.857    0.000    0.000    0.000    0.000 
#    0.000    0.000    0.000    0.000    0.000    0.000 
#
# Total GULP energy -312315.483412 kJ/mol
# GULP energy per Si atom -5577.062204 kJ/mol
# Density = 2.629633 g / cm^3
# Si number density = 26.356321 Si / 1000 Ang^3
#
#
#
# Elastic Constant Matrix: (Units=GPa)
#
#
# Indices 1 2 3 4 5 6 
#
# 1 130.0642 14.9965 60.1435 0.0000 0.0000 0.0000
# 2 14.9965 129.2745 -1.8955 0.0000 0.0000 0.0000
# 3 60.1435 -1.8955 73.2277 0.0000 0.0000 0.0000
# 4 0.0000 0.0000 0.0000 -27.8051 0.0000 0.0000
# 5 0.0000 0.0000 0.0000 0.0000 44.2648 0.0000
# 6 0.0000 0.0000 0.0000 0.0000 0.0000 27.1323
#
#
#
# Elastic Compliance Matrix: (Units=1/GPa)
#
#
# Indices 1 2 3 4 5 6 
#
# 1 0.012731 -0.001631 -0.010499 0.000000 0.000000 0.000000
# 2 -0.001631 0.007947 0.001545 0.000000 0.000000 0.000000
# 3 -0.010499 0.001545 0.022319 0.000000 0.000000 0.000000
# 4 0.000000 0.000000 0.000000 -0.035965 0.000000 0.000000
# 5 0.000000 0.000000 0.000000 0.000000 0.022591 0.000000
# 6 0.000000 0.000000 0.000000 0.000000 0.000000 0.036856
#
#
# Mechanical properties :
#
#
# Convention : Reuss Voigt Hill
#
# Bulk Modulus (GPa) = 45.81128 53.22840 49.51984
# Shear Modulus (GPa) = 52.67284 26.00653 39.33969
#
# Velocity S-wave (km/s) = 4.47530 3.14463 3.86762
# Velocity P-wave (km/s) = 6.64256 5.78139 6.22688
#
# Compressibility (1/GPa) = 0.02182869
#
# Stress axis : x y z
#
# Youngs Moduli (GPa) = 78.54656 125.82857 44.80518
#
# Poissons Ratio (x) = 0.20521 0.47040
# Poissons Ratio (y) = 0.12810 -0.06923
# Poissons Ratio (z) = 0.82464 -0.19442
#
# Static dielectric constant tensor:
#      x y z
#    x 2.211150 0.000000 0.000000 
#    y 0.000000 2.107500 0.000000 
#    z 0.000000 0.000000 2.157300 
# 
# From -- ./inp_files/18057.got.cif
#   From: 2010.05.17/outbox.cif.g08.bks.cpg/sg62_10_cif.got.tgz:18057.got - 2010.06.03 15:25:27.
