data_PCOD9465456
_publ_section_title
;
Structure prediction by ZEFSAII (Michael W. Deem and Ramdas Pophale) SiO2 
 PCOD9465456
Probable space group: P N M A
;
_chemical_formula_sum "Si O2"
_cell_formula_units_Z 56
_cell_length_a 22.954779
_cell_length_b 14.779426
_cell_length_c 9.182417
_cell_angle_alpha 90.000000
_cell_angle_beta 90.000000
_cell_angle_gamma 90.000000
_cell_volume 3115.212628
_symmetry_space_group_name_H-M "P N M A"
_symmetry_group_IT_number 62
_symmetry_cell_setting 'orthorhombic'
loop_
_space_group_symop_operation_xyz
x,y,z
1/2-x,-y,1/2+z
1/2+x,1/2-y,1/2-z
-x,1/2+y,-z
-x,-y,-z
1/2+x,y,1/2-z
1/2-x,1/2+y,1/2+z
x,1/2-y,z
loop_
_atom_site_type_symbol
_atom_site_label
_atom_site_fract_x
_atom_site_fract_y
_atom_site_fract_z
Si Si1 0.140224 0.526861 0.808762
Si Si2 0.921762 0.360335 0.939886
Si Si3 0.883740 0.355101 0.621570
Si Si4 0.713422 0.856983 0.906288
Si Si5 0.466365 0.641925 0.618810
Si Si6 0.157359 0.355946 0.987107
Si Si7 0.533669 0.935964 0.890433
O O1 0.189133 0.582887 0.723879
O O2 0.159922 0.428240 0.858237
O O3 0.084823 0.517195 0.702182
O O4 0.119045 0.588189 0.944828
O O5 0.915878 0.250000 0.951999
O O6 0.906329 0.391781 0.776278
O O7 0.987807 0.383220 0.990579
O O8 0.874483 0.250000 0.650832
O O9 0.823151 0.387996 0.550023
O O10 0.931898 0.366471 0.495129
O O11 0.699514 0.750000 0.883189
O O12 0.782219 0.864503 0.926966
O O13 0.468551 0.750000 0.630378
O O14 0.400499 0.618135 0.577629
O O15 0.490229 0.604021 0.770455
O O16 0.151539 0.250000 0.943259
O O17 0.500000 0.000000 0.000000
#
# Coordination Sequence:
#
# PCOD9465456 Si02
#       7
#     8   8   8   8   8   8   8
#     4  10  21  36  57  82 110 145 186 236 279 329
#     4   9  18  32  58  89 112 141 187 236 277 325
#     4   9  18  33  55  81 108 141 181 234 280 318
#     4   9  19  39  60  79 108 146 189 231 281 331
#     4   9  19  36  55  77 112 152 185 221 280 343
#     4  10  22  38  58  81 113 154 189 226 278 343
#     4  10  21  33  52  81 112 142 183 229 278 332
#
# _framework density 17.976300999999999
#
# number of rings (size 3 to 8) (size 9 to 14) (size 15 to 20)
#    0.000    2.571    0.000    0.857    4.000    5.714 
#    2.571    0.714    0.000    0.857    0.000    0.000 
#    0.000    0.000    0.000    0.000    0.000    0.000 
#
# Total GULP energy -312081.659145 kJ/mol
# GULP energy per Si atom -5572.886770 kJ/mol
# Density = 1.793539 g / cm^3
# Si number density = 17.976301 Si / 1000 Ang^3
#
#
#
# Elastic Constant Matrix: (Units=GPa)
#
#
# Indices 1 2 3 4 5 6 
#
# 1 120.2427 48.1135 69.6525 0.0000 0.0000 0.0000
# 2 48.1135 64.2829 42.3637 0.0000 0.0000 0.0000
# 3 69.6525 42.3637 120.1374 0.0000 0.0000 0.0000
# 4 0.0000 0.0000 0.0000 32.6898 0.0000 0.0000
# 5 0.0000 0.0000 0.0000 0.0000 11.8567 0.0000
# 6 0.0000 0.0000 0.0000 0.0000 0.0000 14.7190
#
#
#
# Elastic Compliance Matrix: (Units=1/GPa)
#
#
# Indices 1 2 3 4 5 6 
#
# 1 0.014573 -0.006956 -0.005996 0.000000 0.000000 0.000000
# 2 -0.006956 0.023586 -0.004284 0.000000 0.000000 0.000000
# 3 -0.005996 -0.004284 0.013311 0.000000 0.000000 0.000000
# 4 0.000000 0.000000 0.000000 0.030591 0.000000 0.000000
# 5 0.000000 0.000000 0.000000 0.000000 0.084341 0.000000
# 6 0.000000 0.000000 0.000000 0.000000 0.000000 0.067939
#
#
# Mechanical properties :
#
#
# Convention : Reuss Voigt Hill
#
# Bulk Modulus (GPa) = 58.83279 69.43582 64.13430
# Shear Modulus (GPa) = 18.21631 21.48865 19.85248
#
# Velocity S-wave (km/s) = 3.18677 3.46119 3.32681
# Velocity P-wave (km/s) = 6.80733 7.39481 7.10714
#
# Compressibility (1/GPa) = 0.01699732
#
# Stress axis : x y z
#
# Youngs Moduli (GPa) = 68.61852 42.39841 75.12549
#
# Poissons Ratio (x) = 0.29492 0.45048
# Poissons Ratio (y) = 0.47730 0.32185
# Poissons Ratio (z) = 0.41146 0.18164
#
# Static dielectric constant tensor:
#      x y z
#    x 1.624060 0.000000 0.000000 
#    y 0.000000 1.627890 0.000000 
#    z 0.000000 0.000000 1.612960 
# 
# From -- ./inp_files/8721.got.cif
#   From: 2010.05.17/outbox.cif.g08.bks.cpg/sg62_5_cif.got.tgz:8721.got - 2010.06.03 15:25:27.
