data_PCOD9465159
_publ_section_title
;
Structure prediction by ZEFSAII (Michael W. Deem and Ramdas Pophale) SiO2 
 PCOD9465159
Probable space group: P N M A
;
_chemical_formula_sum "Si O2"
_cell_formula_units_Z 64
_cell_length_a 23.121634
_cell_length_b 8.776948
_cell_length_c 16.186512
_cell_angle_alpha 90.000000
_cell_angle_beta 90.000000
_cell_angle_gamma 90.000000
_cell_volume 3284.848325
_symmetry_space_group_name_H-M "P N M A"
_symmetry_group_IT_number 62
_symmetry_cell_setting 'orthorhombic'
loop_
_space_group_symop_operation_xyz
x,y,z
1/2-x,-y,1/2+z
1/2+x,1/2-y,1/2-z
-x,1/2+y,-z
-x,-y,-z
1/2+x,y,1/2-z
1/2-x,1/2+y,1/2+z
x,1/2-y,z
loop_
_atom_site_type_symbol
_atom_site_label
_atom_site_fract_x
_atom_site_fract_y
_atom_site_fract_z
Si Si1 0.647106 0.421925 0.132274
Si Si2 0.483786 0.932183 0.910392
Si Si3 0.323381 0.066550 0.451254
Si Si4 0.548269 0.434623 0.562508
Si Si5 0.949284 0.929870 0.253589
Si Si6 0.748486 0.427322 0.701506
Si Si7 0.335572 0.423742 0.188518
Si Si8 0.288570 0.920119 0.042492
O O1 0.645979 0.250000 0.168059
O O2 0.582600 0.469617 0.110887
O O3 0.684569 0.536917 0.185824
O O4 0.682787 0.411706 0.047275
O O5 0.489531 0.750000 0.916157
O O6 0.520008 0.990222 0.831496
O O7 0.500000 0.000000 0.000000
O O8 0.324891 0.250000 0.436432
O O9 0.278937 0.042109 0.527749
O O10 0.388130 0.002412 0.458794
O O11 0.290929 0.982926 0.375586
O O12 0.500000 0.500000 0.500000
O O13 0.550076 0.250000 0.557584
O O14 0.535260 0.475905 0.659236
O O15 0.958949 0.750000 0.260440
O O16 0.882147 0.969945 0.267426
O O17 0.739113 0.250000 0.715781
O O18 0.726311 0.532206 0.775078
O O19 0.351230 0.250000 0.203290
O O20 0.327522 0.463639 0.093285
O O21 0.292802 0.750000 0.080127
#
# Coordination Sequence:
#
# PCOD9465159 Si02
#       8
#     8   8   8   8   8   8   8   8
#     4   9  20  39  59  83 117 157 197 242 300 360
#     4  11  23  40  65  95 130 171 213 262 317 379
#     4  10  20  38  63  88 118 154 197 251 310 372
#     4  11  24  42  66  91 121 166 216 270 324 379
#     4  11  24  42  64  92 127 169 217 267 319 380
#     4  11  21  35  59  86 116 154 194 242 302 364
#     4  12  23  36  59  89 120 156 202 253 305 367
#     4   9  19  36  59  88 121 156 193 246 307 367
#
# _framework density 19.483395999999999
#
# number of rings (size 3 to 8) (size 9 to 14) (size 15 to 20)
#    0.000    1.500    1.250    5.250    0.000    6.000 
#    2.250    0.000    0.000    0.000    0.000    0.000 
#    0.000    0.000    0.000    0.000    0.000    0.000 
#
# Total GULP energy -357061.082390 kJ/mol
# GULP energy per Si atom -5579.079412 kJ/mol
# Density = 1.943905 g / cm^3
# Si number density = 19.483396 Si / 1000 Ang^3
#
#
#
# Elastic Constant Matrix: (Units=GPa)
#
#
# Indices 1 2 3 4 5 6 
#
# 1 102.4684 21.8765 34.5512 0.0000 0.0000 0.0000
# 2 21.8765 30.5809 15.5907 0.0000 0.0000 0.0000
# 3 34.5512 15.5907 76.1881 0.0000 0.0000 0.0000
# 4 0.0000 0.0000 0.0000 26.5837 0.0000 0.0000
# 5 0.0000 0.0000 0.0000 0.0000 22.6013 0.0000
# 6 0.0000 0.0000 0.0000 0.0000 0.0000 34.3148
#
#
#
# Elastic Compliance Matrix: (Units=1/GPa)
#
#
# Indices 1 2 3 4 5 6 
#
# 1 0.012691 -0.006860 -0.004352 0.000000 0.000000 0.000000
# 2 -0.006860 0.040217 -0.005119 0.000000 0.000000 0.000000
# 3 -0.004352 -0.005119 0.016146 0.000000 0.000000 0.000000
# 4 0.000000 0.000000 0.000000 0.037617 0.000000 0.000000
# 5 0.000000 0.000000 0.000000 0.000000 0.044245 0.000000
# 6 0.000000 0.000000 0.000000 0.000000 0.000000 0.029142
#
#
# Mechanical properties :
#
#
# Convention : Reuss Voigt Hill
#
# Bulk Modulus (GPa) = 27.47733 39.25269 33.36501
# Shear Modulus (GPa) = 22.23696 25.84791 24.04243
#
# Velocity S-wave (km/s) = 3.38202 3.64629 3.51664
# Velocity P-wave (km/s) = 5.42073 6.15774 5.80095
#
# Compressibility (1/GPa) = 0.03639364
#
# Stress axis : x y z
#
# Youngs Moduli (GPa) = 78.79599 24.86494 61.93372
#
# Poissons Ratio (x) = 0.17058 0.26951
# Poissons Ratio (y) = 0.54056 0.31702
# Poissons Ratio (z) = 0.34288 0.12728
#
# Static dielectric constant tensor:
#      x y z
#    x 1.705500 0.000000 0.000000 
#    y 0.000000 1.714790 0.000000 
#    z 0.000000 0.000000 1.759760 
# 
# From -- ./inp_files/20966.got.cif
#   From: 2010.05.17/outbox.cif.g08.bks.cpg/sg62_11_cif.got.tgz:20966.got - 2010.06.03 15:25:27.
