data_PCOD9465587
_publ_section_title
;
Structure prediction by ZEFSAII (Michael W. Deem and Ramdas Pophale) SiO2 
 PCOD9465587
Probable space group: P N M A
;
_chemical_formula_sum "Si O2"
_cell_formula_units_Z 32
_cell_length_a 9.492260
_cell_length_b 22.025546
_cell_length_c 5.458669
_cell_angle_alpha 90.000000
_cell_angle_beta 90.000000
_cell_angle_gamma 90.000000
_cell_volume 1141.255988
_symmetry_space_group_name_H-M "P N M A"
_symmetry_group_IT_number 62
_symmetry_cell_setting 'orthorhombic'
loop_
_space_group_symop_operation_xyz
x,y,z
1/2-x,-y,1/2+z
1/2+x,1/2-y,1/2-z
-x,1/2+y,-z
-x,-y,-z
1/2+x,y,1/2-z
1/2-x,1/2+y,1/2+z
x,1/2-y,z
loop_
_atom_site_type_symbol
_atom_site_label
_atom_site_fract_x
_atom_site_fract_y
_atom_site_fract_z
Si Si1 0.969991 0.377089 0.211397
Si Si2 0.796106 0.871600 0.452714
Si Si3 0.599694 0.250000 0.708355
Si Si4 0.665930 0.004358 0.774963
Si Si5 0.640020 0.750000 0.953767
O O1 0.872433 0.376161 0.969140
O O2 0.932746 0.445801 0.304425
O O3 0.913838 0.313288 0.333079
O O4 0.135737 0.375465 0.273983
O O5 0.841070 0.809617 0.334880
O O6 0.871109 0.924898 0.299194
O O7 0.689098 0.250000 0.457121
O O8 0.434968 0.250000 0.775488
O O9 0.728908 0.999711 0.504573
#
# Coordination Sequence:
#
# PCOD9465587 Si02
#       5
#     8   8   4   8   4
#     4  10  21  38  59  87 121 161 208 260 315 376
#     4  10  21  38  59  87 121 161 208 260 315 376
#     4  10  21  36  56  84 120 160 208 260 315 376
#     4  10  21  40  65  94 127 166 211 262 315 374
#     4  10  21  36  56  84 120 160 208 260 315 376
#
# _framework density 28.039283000000001
#
# number of rings (size 3 to 8) (size 9 to 14) (size 15 to 20)
#    0.000    2.000    0.000    3.000    0.000    2.000 
#    0.000   36.250    0.000    0.000    0.000    0.000 
#    0.000    0.000    0.000    0.000    0.000    0.000 
#
# Total GULP energy -178473.868986 kJ/mol
# GULP energy per Si atom -5577.308406 kJ/mol
# Density = 2.797546 g / cm^3
# Si number density = 28.039283 Si / 1000 Ang^3
#
#
#
# Elastic Constant Matrix: (Units=GPa)
#
#
# Indices 1 2 3 4 5 6 
#
# 1 98.2936 53.6143 25.3824 0.0000 0.0000 0.0000
# 2 53.6143 267.7065 52.8368 0.0000 0.0000 0.0000
# 3 25.3824 52.8368 47.9134 0.0000 0.0000 0.0000
# 4 0.0000 0.0000 0.0000 16.0446 0.0000 0.0000
# 5 0.0000 0.0000 0.0000 0.0000 40.5339 0.0000
# 6 0.0000 0.0000 0.0000 0.0000 0.0000 -156.0231
#
#
#
# Elastic Compliance Matrix: (Units=1/GPa)
#
#
# Indices 1 2 3 4 5 6 
#
# 1 0.012238 -0.001497 -0.004832 0.000000 0.000000 0.000000
# 2 -0.001497 0.004958 -0.004674 0.000000 0.000000 0.000000
# 3 -0.004832 -0.004674 0.028585 0.000000 0.000000 0.000000
# 4 0.000000 0.000000 0.000000 0.062326 0.000000 0.000000
# 5 0.000000 0.000000 0.000000 0.000000 0.024671 0.000000
# 6 0.000000 0.000000 0.000000 0.000000 0.000000 -0.006409
#
#
# Mechanical properties :
#
#
# Convention : Reuss Voigt Hill
#
# Bulk Modulus (GPa) = 42.06233 75.28674 58.67453
# Shear Modulus (GPa) = 31.98969 -1.08359 15.45305
#
# Velocity S-wave (km/s) = 3.38137 -0.62233 2.35014
# Velocity P-wave (km/s) = 5.50260 5.13735 5.32311
#
# Compressibility (1/GPa) = 0.02377424
#
# Stress axis : x y z
#
# Youngs Moduli (GPa) = 81.71225 201.70203 34.98309
#
# Poissons Ratio (x) = 0.30200 0.16904
# Poissons Ratio (y) = 0.12234 0.16351
# Poissons Ratio (z) = 0.39484 0.94277
#
# Static dielectric constant tensor:
#      x y z
#    x 2.177960 0.000000 0.000000 
#    y 0.000000 2.195960 0.000000 
#    z 0.000000 0.000000 2.279980 
# 
# From -- ./inp_files/453.got.cif
#   From: 2010.05.17/outbox.cif.g08.bks.cpg/sg62_1_cif.got.tgz:453.got - 2010.06.03 15:25:27.
