data_PCOD9465420
_publ_section_title
;
Structure prediction by ZEFSAII (Michael W. Deem and Ramdas Pophale) SiO2 
 PCOD9465420
Probable space group: P N M A
;
_chemical_formula_sum "Si O2"
_cell_formula_units_Z 40
_cell_length_a 27.898357
_cell_length_b 8.209939
_cell_length_c 9.207886
_cell_angle_alpha 90.000000
_cell_angle_beta 90.000000
_cell_angle_gamma 90.000000
_cell_volume 2109.009284
_symmetry_space_group_name_H-M "P N M A"
_symmetry_group_IT_number 62
_symmetry_cell_setting 'orthorhombic'
loop_
_space_group_symop_operation_xyz
x,y,z
1/2-x,-y,1/2+z
1/2+x,1/2-y,1/2-z
-x,1/2+y,-z
-x,-y,-z
1/2+x,y,1/2-z
1/2-x,1/2+y,1/2+z
x,1/2-y,z
loop_
_atom_site_type_symbol
_atom_site_label
_atom_site_fract_x
_atom_site_fract_y
_atom_site_fract_z
Si Si1 0.339666 0.750000 0.722597
Si Si2 0.219118 0.557351 0.108664
Si Si3 0.911612 0.750000 0.519806
Si Si4 0.571351 0.250000 0.499747
Si Si5 0.915941 0.996076 0.258702
Si Si6 0.499566 0.250000 0.239767
Si Si7 0.687945 0.445547 0.707878
O O1 0.310321 0.582665 0.695747
O O2 0.364954 0.750000 0.878912
O O3 0.382527 0.750000 0.604416
O O4 0.205451 0.750000 0.130775
O O5 0.273644 0.541323 0.163618
O O6 0.211721 0.508087 0.941016
O O7 0.912474 0.898532 0.408654
O O8 0.958163 0.750000 0.622187
O O9 0.573347 0.100626 0.610215
O O10 0.525483 0.250000 0.395811
O O11 0.860608 0.046609 0.234317
O O12 0.962538 0.104090 0.276435
O O13 0.675949 0.250000 0.694437
#
# Coordination Sequence:
#
# PCOD9465420 Si02
#       7
#     4   8   4   4   8   4   8
#     4  11  22  45  64  89 134 172 207 262 315 371
#     4  11  25  39  65  97 129 166 220 252 308 381
#     4  10  24  42  66  81 129 175 198 258 337 368
#     4  10  20  42  66  85 125 169 203 259 330 375
#     4  11  21  41  64  89 124 167 210 255 326 380
#     4  11  24  37  64  99 118 156 220 271 308 384
#     4  11  23  42  63  91 129 171 204 258 314 377
#
# _framework density 18.966251
#
# number of rings (size 3 to 8) (size 9 to 14) (size 15 to 20)
#    0.000    1.200    5.000    1.200    5.600    0.000 
#    1.800    0.000    4.400    0.000    0.000    0.000 
#    0.000    0.000    0.000    0.000    0.000    0.000 
#
# Total GULP energy -222946.591680 kJ/mol
# GULP energy per Si atom -5573.664792 kJ/mol
# Density = 1.892308 g / cm^3
# Si number density = 18.966251 Si / 1000 Ang^3
#
#
#
# Elastic Constant Matrix: (Units=GPa)
#
#
# Indices 1 2 3 4 5 6 
#
# 1 121.8943 31.6931 58.1919 0.0000 0.0000 0.0000
# 2 31.6931 68.3984 21.7372 0.0000 0.0000 0.0000
# 3 58.1919 21.7372 123.7379 0.0000 0.0000 0.0000
# 4 0.0000 0.0000 0.0000 -125.6143 0.0000 0.0000
# 5 0.0000 0.0000 0.0000 0.0000 40.5154 0.0000
# 6 0.0000 0.0000 0.0000 0.0000 0.0000 27.9392
#
#
#
# Elastic Compliance Matrix: (Units=1/GPa)
#
#
# Indices 1 2 3 4 5 6 
#
# 1 0.011443 -0.003804 -0.004713 0.000000 0.000000 0.000000
# 2 -0.003804 0.016750 -0.001153 0.000000 0.000000 0.000000
# 3 -0.004713 -0.001153 0.010501 0.000000 0.000000 0.000000
# 4 0.000000 0.000000 0.000000 -0.007961 0.000000 0.000000
# 5 0.000000 0.000000 0.000000 0.000000 0.024682 0.000000
# 6 0.000000 0.000000 0.000000 0.000000 0.000000 0.035792
#
#
# Mechanical properties :
#
#
# Convention : Reuss Voigt Hill
#
# Bulk Modulus (GPa) = 51.67516 59.69723 55.68619
# Shear Modulus (GPa) = 42.73560 2.06197 22.39878
#
# Velocity S-wave (km/s) = 4.75198 1.04381 3.44027
# Velocity P-wave (km/s) = 7.57717 5.74426 6.72347
#
# Compressibility (1/GPa) = 0.01935166
#
# Stress axis : x y z
#
# Youngs Moduli (GPa) = 87.38948 59.70309 95.23173
#
# Poissons Ratio (x) = 0.22713 0.44884
# Poissons Ratio (y) = 0.33246 0.10983
# Poissons Ratio (z) = 0.41188 0.06885
#
# Static dielectric constant tensor:
#      x y z
#    x 1.642390 0.000000 0.000000 
#    y 0.000000 1.613190 0.000000 
#    z 0.000000 0.000000 1.625660 
# 
# From -- ./inp_files/9154.got.cif
#   From: 2010.05.17/outbox.cif.g08.bks.cpg/sg62_5_cif.got.tgz:9154.got - 2010.06.03 15:25:27.
