data_PCOD9465180
_publ_section_title
;
Structure prediction by ZEFSAII (Michael W. Deem and Ramdas Pophale) SiO2 
 PCOD9465180
Probable space group: P N M A
;
_chemical_formula_sum "Si O2"
_cell_formula_units_Z 64
_cell_length_a 14.509787
_cell_length_b 16.867070
_cell_length_c 11.611442
_cell_angle_alpha 90.000000
_cell_angle_beta 90.000000
_cell_angle_gamma 90.000000
_cell_volume 2841.756367
_symmetry_space_group_name_H-M "P N M A"
_symmetry_group_IT_number 62
_symmetry_cell_setting 'orthorhombic'
loop_
_space_group_symop_operation_xyz
x,y,z
1/2-x,-y,1/2+z
1/2+x,1/2-y,1/2-z
-x,1/2+y,-z
-x,-y,-z
1/2+x,y,1/2-z
1/2-x,1/2+y,1/2+z
x,1/2-y,z
loop_
_atom_site_type_symbol
_atom_site_label
_atom_site_fract_x
_atom_site_fract_y
_atom_site_fract_z
Si Si1 0.679653 0.100886 0.388328
Si Si2 0.967473 0.843577 0.060260
Si Si3 0.069197 0.903266 0.289883
Si Si4 0.258663 0.078740 0.658800
Si Si5 0.342379 0.341224 0.436360
Si Si6 0.860738 0.157963 0.313662
Si Si7 0.409453 0.658064 0.078564
Si Si8 0.439024 0.589914 0.833522
O O1 0.618522 0.111700 0.502661
O O2 0.773311 0.150707 0.395831
O O3 0.613650 0.122766 0.279674
O O4 0.716571 0.012893 0.359572
O O5 0.948106 0.750000 0.085010
O O6 0.012797 0.885448 0.171450
O O7 0.049107 0.845084 0.965176
O O8 0.015891 0.852780 0.384868
O O9 0.175769 0.887063 0.259038
O O10 0.065747 0.994911 0.326685
O O11 0.292388 0.117335 0.540170
O O12 0.152732 0.104140 0.663705
O O13 0.313568 0.250000 0.436574
O O14 0.325550 0.374268 0.310094
O O15 0.886067 0.250000 0.299607
O O16 0.953705 0.112392 0.339696
O O17 0.383976 0.750000 0.088162
O O18 0.396906 0.625701 0.949727
#
# Coordination Sequence:
#
# PCOD9465180 Si02
#       8
#     8   8   8   8   8   8   8   8
#     4  11  23  38  63  98 134 174 222 279 336 401
#     4  10  20  38  63  93 129 170 218 273 332 395
#     4  10  24  44  69  94 132 177 226 279 332 402
#     4  10  23  41  64  97 127 176 228 273 329 401
#     4   9  18  34  61  87 120 164 214 271 323 387
#     4  11  22  37  60  95 133 170 216 275 340 397
#     4  12  25  45  69  96 135 178 226 279 337 405
#     4  11  24  43  69  96 134 174 226 280 343 400
#
# _framework density 22.521283
#
# number of rings (size 3 to 8) (size 9 to 14) (size 15 to 20)
#    0.000    1.500    1.250    3.375    1.750    5.500 
#    6.750    0.000    0.000    0.000    0.000    0.000 
#    0.000    0.000    0.000    0.000    0.000    0.000 
#
# Total GULP energy -357653.092730 kJ/mol
# GULP energy per Si atom -5588.329574 kJ/mol
# Density = 2.247002 g / cm^3
# Si number density = 22.521283 Si / 1000 Ang^3
#
#
#
# Elastic Constant Matrix: (Units=GPa)
#
#
# Indices 1 2 3 4 5 6 
#
# 1 56.9975 6.4923 -5.4011 0.0000 0.0000 0.0000
# 2 6.4923 56.5099 7.6920 0.0000 0.0000 0.0000
# 3 -5.4011 7.6920 43.8302 0.0000 0.0000 0.0000
# 4 0.0000 0.0000 0.0000 56.3249 0.0000 0.0000
# 5 0.0000 0.0000 0.0000 0.0000 31.9169 0.0000
# 6 0.0000 0.0000 0.0000 0.0000 0.0000 321.6116
#
#
#
# Elastic Compliance Matrix: (Units=1/GPa)
#
#
# Indices 1 2 3 4 5 6 
#
# 1 0.018074 -0.002438 0.002655 0.000000 0.000000 0.000000
# 2 -0.002438 0.018458 -0.003540 0.000000 0.000000 0.000000
# 3 0.002655 -0.003540 0.023764 0.000000 0.000000 0.000000
# 4 0.000000 0.000000 0.000000 0.017754 0.000000 0.000000
# 5 0.000000 0.000000 0.000000 0.000000 0.031331 0.000000
# 6 0.000000 0.000000 0.000000 0.000000 0.000000 0.003109
#
#
# Mechanical properties :
#
#
# Convention : Reuss Voigt Hill
#
# Bulk Modulus (GPa) = 18.63916 19.43377 19.03646
# Shear Modulus (GPa) = 36.49132 91.87431 64.18281
#
# Velocity S-wave (km/s) = 4.02967 6.39398 5.34421
# Velocity P-wave (km/s) = 5.47222 7.94723 6.82289
#
# Compressibility (1/GPa) = 0.05365049
#
# Stress axis : x y z
#
# Youngs Moduli (GPa) = 55.32839 54.17731 42.08097
#
# Poissons Ratio (x) = 0.13208 -0.11173
# Poissons Ratio (y) = 0.13488 0.14895
# Poissons Ratio (z) = -0.14690 0.19177
#
# Static dielectric constant tensor:
#      x y z
#    x 1.880300 0.000000 0.000000 
#    y 0.000000 1.779000 0.000000 
#    z 0.000000 0.000000 1.835180 
# 
# From -- ./inp_files/13569.got.cif
#   From: 2010.05.17/outbox.cif.g08.bks.cpg/sg62_7_cif.got.tgz:13569.got - 2010.06.03 15:25:27.
