data_PCOD9465290
_publ_section_title
;
Structure prediction by ZEFSAII (Michael W. Deem and Ramdas Pophale) SiO2 
 PCOD9465290
Probable space group: P N M A
;
_chemical_formula_sum "Si O2"
_cell_formula_units_Z 64
_cell_length_a 15.269370
_cell_length_b 21.679576
_cell_length_c 8.864885
_cell_angle_alpha 90.000000
_cell_angle_beta 90.000000
_cell_angle_gamma 90.000000
_cell_volume 2934.573620
_symmetry_space_group_name_H-M "P N M A"
_symmetry_group_IT_number 62
_symmetry_cell_setting 'orthorhombic'
loop_
_space_group_symop_operation_xyz
x,y,z
1/2-x,-y,1/2+z
1/2+x,1/2-y,1/2-z
-x,1/2+y,-z
-x,-y,-z
1/2+x,y,1/2-z
1/2-x,1/2+y,1/2+z
x,1/2-y,z
loop_
_atom_site_type_symbol
_atom_site_label
_atom_site_fract_x
_atom_site_fract_y
_atom_site_fract_z
Si Si1 0.963084 0.991381 0.167366
Si Si2 0.754798 0.317816 0.233610
Si Si3 0.629597 0.935275 0.158781
Si Si4 0.674518 0.069787 0.085274
Si Si5 0.519618 0.385574 0.273450
Si Si6 0.613472 0.181165 0.506638
Si Si7 0.918698 0.181545 0.452164
Si Si8 0.316258 0.903979 0.244795
O O1 0.828542 0.004950 0.570654
O O2 0.949583 0.059905 0.233781
O O3 0.870981 0.957151 0.170571
O O4 0.000000 0.000000 0.000000
O O5 0.744759 0.250000 0.155792
O O6 0.682044 0.318984 0.367322
O O7 0.845062 0.317120 0.323037
O O8 0.747858 0.380276 0.135746
O O9 0.605342 0.875111 0.060679
O O10 0.539081 0.955629 0.239298
O O11 0.712582 0.916722 0.262888
O O12 0.645966 0.095346 0.923140
O O13 0.606238 0.078978 0.220666
O O14 0.533790 0.358747 0.439343
O O15 0.504038 0.334326 0.146865
O O16 0.583319 0.250000 0.534874
O O17 0.660869 0.154556 0.653120
O O18 0.923021 0.250000 0.522411
#
# Coordination Sequence:
#
# PCOD9465290 Si02
#       8
#     8   8   8   8   8   8   8   8
#     4  11  24  43  66  99 141 173 224 291 343 409
#     4   9  20  39  62  90 127 169 220 272 325 402
#     4  11  26  41  68 100 136 182 229 283 349 408
#     4  10  24  39  62  97 127 167 230 274 334 403
#     4  10  21  41  66  89 128 171 221 279 332 409
#     4  10  20  39  63  91 123 170 221 267 333 405
#     4  11  22  40  67  96 133 179 227 285 346 415
#     4  12  24  39  66  96 134 177 218 280 354 392
#
# _framework density 21.808961
#
# number of rings (size 3 to 8) (size 9 to 14) (size 15 to 20)
#    0.000    1.500    2.500    1.875    5.250    3.000 
#    0.000    1.875    0.000    0.000    0.000    0.000 
#    0.000    0.000    0.000    0.000    0.000    0.000 
#
# Total GULP energy -356529.520630 kJ/mol
# GULP energy per Si atom -5570.773760 kJ/mol
# Density = 2.175932 g / cm^3
# Si number density = 21.808961 Si / 1000 Ang^3
#
#
#
# Elastic Constant Matrix: (Units=GPa)
#
#
# Indices 1 2 3 4 5 6 
#
# 1 40.9983 18.3283 -7.9205 0.0000 0.0000 0.0000
# 2 18.3283 154.1593 41.0692 0.0000 0.0000 0.0000
# 3 -7.9205 41.0692 66.1503 0.0000 0.0000 0.0000
# 4 0.0000 0.0000 0.0000 22.6172 0.0000 0.0000
# 5 0.0000 0.0000 0.0000 0.0000 25.4420 0.0000
# 6 0.0000 0.0000 0.0000 0.0000 0.0000 20.4198
#
#
#
# Elastic Compliance Matrix: (Units=1/GPa)
#
#
# Indices 1 2 3 4 5 6 
#
# 1 0.027894 -0.005040 0.006469 0.000000 0.000000 0.000000
# 2 -0.005040 0.008683 -0.005994 0.000000 0.000000 0.000000
# 3 0.006469 -0.005994 0.019613 0.000000 0.000000 0.000000
# 4 0.000000 0.000000 0.000000 0.044214 0.000000 0.000000
# 5 0.000000 0.000000 0.000000 0.000000 0.039305 0.000000
# 6 0.000000 0.000000 0.000000 0.000000 0.000000 0.048972
#
#
# Mechanical properties :
#
#
# Convention : Reuss Voigt Hill
#
# Bulk Modulus (GPa) = 21.24962 40.47357 30.86159
# Shear Modulus (GPa) = 23.41942 27.68452 25.55197
#
# Velocity S-wave (km/s) = 3.28051 3.56674 3.42662
# Velocity P-wave (km/s) = 4.91057 5.96328 5.46234
#
# Compressibility (1/GPa) = 0.04705968
#
# Stress axis : x y z
#
# Youngs Moduli (GPa) = 35.85006 115.16930 50.98640
#
# Poissons Ratio (x) = 0.58042 -0.32982
# Poissons Ratio (y) = 0.18067 0.30562
# Poissons Ratio (z) = -0.23190 0.69034
#
# Static dielectric constant tensor:
#      x y z
#    x 1.895410 0.000000 0.000000 
#    y 0.000000 1.904900 0.000000 
#    z 0.000000 0.000000 1.778220 
# 
# From -- ./inp_files/8097.got.cif
#   From: 2010.05.17/outbox.cif.g08.bks.cpg/sg62_5_cif.got.tgz:8097.got - 2010.06.03 15:25:27.
