data_PCOD9465635
_publ_section_title
;
Structure prediction by ZEFSAII (Michael W. Deem and Ramdas Pophale) SiO2 
 PCOD9465635
Probable space group: P N M A
;
_chemical_formula_sum "Si O2"
_cell_formula_units_Z 64
_cell_length_a 14.985350
_cell_length_b 7.489595
_cell_length_c 22.629494
_cell_angle_alpha 90.000000
_cell_angle_beta 90.000000
_cell_angle_gamma 90.000000
_cell_volume 2539.803211
_symmetry_space_group_name_H-M "P N M A"
_symmetry_group_IT_number 62
_symmetry_cell_setting 'orthorhombic'
loop_
_space_group_symop_operation_xyz
x,y,z
1/2-x,-y,1/2+z
1/2+x,1/2-y,1/2-z
-x,1/2+y,-z
-x,-y,-z
1/2+x,y,1/2-z
1/2-x,1/2+y,1/2+z
x,1/2-y,z
loop_
_atom_site_type_symbol
_atom_site_label
_atom_site_fract_x
_atom_site_fract_y
_atom_site_fract_z
Si Si1 0.187920 0.465057 0.506181
Si Si2 0.126585 0.533477 0.962993
Si Si3 0.948275 0.456452 0.912615
Si Si4 0.937822 0.031298 0.785537
Si Si5 0.312251 0.033107 0.821441
Si Si6 0.452693 0.543624 0.921065
Si Si7 0.863402 0.460063 0.367407
Si Si8 0.637159 0.457935 0.734959
O O1 0.186157 0.250000 0.502997
O O2 0.271183 0.525692 0.466282
O O3 0.093992 0.533548 0.479966
O O4 0.198017 0.511178 0.575090
O O5 0.124061 0.750000 0.960262
O O6 0.056194 0.466374 0.915066
O O7 0.087396 0.467307 0.026181
O O8 0.921031 0.250000 0.913987
O O9 0.915688 0.533221 0.851181
O O10 0.938554 0.250000 0.786374
O O11 0.867627 0.979623 0.736614
O O12 0.037369 0.968107 0.769297
O O13 0.311776 0.250000 0.825525
O O14 0.212005 0.967460 0.809135
O O15 0.370335 0.963336 0.875337
O O16 0.474246 0.750000 0.932210
O O17 0.539968 0.463777 0.889361
O O18 0.873052 0.250000 0.357401
O O19 0.834534 0.534448 0.304086
O O20 0.630210 0.250000 0.719605
#
# Coordination Sequence:
#
# PCOD9465635 Si02
#       8
#     8   8   8   8   8   8   8   8
#     4  10  22  38  59  82 108 146 189 232 281 336
#     4   9  19  35  54  80 109 144 183 223 274 330
#     4   9  18  33  55  78 110 144 177 225 275 325
#     4   9  18  34  55  83 112 142 183 231 275 324
#     4  10  21  36  60  87 111 148 194 232 275 336
#     4  10  22  40  58  81 115 148 182 232 290 339
#     4  11  23  39  58  83 113 146 186 233 286 337
#     4  10  21  37  59  85 114 150 190 230 281 339
#
# _framework density 25.198802000000001
#
# number of rings (size 3 to 8) (size 9 to 14) (size 15 to 20)
#    0.000    2.250    1.250    0.750    3.500    2.000 
#    0.000    1.250    0.000    0.000    0.000    0.000 
#    0.000    0.000    0.000    0.000    0.000    0.000 
#
# Total GULP energy -357809.042843 kJ/mol
# GULP energy per Si atom -5590.766294 kJ/mol
# Density = 2.514145 g / cm^3
# Si number density = 25.198802 Si / 1000 Ang^3
#
#
#
# Elastic Constant Matrix: (Units=GPa)
#
#
# Indices 1 2 3 4 5 6 
#
# 1 70.3919 2.4984 -17.4227 0.0000 0.0000 0.0000
# 2 2.4984 83.2509 -5.5321 0.0000 0.0000 0.0000
# 3 -17.4227 -5.5321 69.4790 0.0000 0.0000 0.0000
# 4 0.0000 0.0000 0.0000 32.1475 0.0000 0.0000
# 5 0.0000 0.0000 0.0000 0.0000 40.4703 0.0000
# 6 0.0000 0.0000 0.0000 0.0000 0.0000 6.3709
#
#
#
# Elastic Compliance Matrix: (Units=1/GPa)
#
#
# Indices 1 2 3 4 5 6 
#
# 1 0.015150 -0.000203 0.003783 0.000000 0.000000 0.000000
# 2 -0.000203 0.012079 0.000911 0.000000 0.000000 0.000000
# 3 0.003783 0.000911 0.015414 0.000000 0.000000 0.000000
# 4 0.000000 0.000000 0.000000 0.031107 0.000000 0.000000
# 5 0.000000 0.000000 0.000000 0.000000 0.024710 0.000000
# 6 0.000000 0.000000 0.000000 0.000000 0.000000 0.156964
#
#
# Mechanical properties :
#
#
# Convention : Reuss Voigt Hill
#
# Bulk Modulus (GPa) = 19.37136 20.24544 19.80840
# Shear Modulus (GPa) = 18.96461 32.03627 25.50044
#
# Velocity S-wave (km/s) = 2.74633 3.56945 3.18460
# Velocity P-wave (km/s) = 4.21433 5.00397 4.62603
#
# Compressibility (1/GPa) = 0.05162260
#
# Stress axis : x y z
#
# Youngs Moduli (GPa) = 66.00801 82.79172 64.87635
#
# Poissons Ratio (x) = 0.01683 -0.24541
# Poissons Ratio (y) = 0.01342 -0.05909
# Poissons Ratio (z) = -0.24969 -0.07540
#
# Static dielectric constant tensor:
#      x y z
#    x 2.025900 0.000000 0.000000 
#    y 0.000000 1.937530 0.000000 
#    z 0.000000 0.000000 1.985000 
# 
# From -- ./inp_files/29942.got.cif
#   From: 2010.05.17/outbox.cif.g08.bks.cpg/sg62_15_cif.got.tgz:29942.got - 2010.06.03 15:25:27.
