data_PCOD9465567
_publ_section_title
;
Structure prediction by ZEFSAII (Michael W. Deem and Ramdas Pophale) SiO2 
 PCOD9465567
Probable space group: P N M A
;
_chemical_formula_sum "Si O2"
_cell_formula_units_Z 40
_cell_length_a 28.946285
_cell_length_b 8.993515
_cell_length_c 7.290332
_cell_angle_alpha 90.000000
_cell_angle_beta 90.000000
_cell_angle_gamma 90.000000
_cell_volume 1897.883734
_symmetry_space_group_name_H-M "P N M A"
_symmetry_group_IT_number 62
_symmetry_cell_setting 'orthorhombic'
loop_
_space_group_symop_operation_xyz
x,y,z
1/2-x,-y,1/2+z
1/2+x,1/2-y,1/2-z
-x,1/2+y,-z
-x,-y,-z
1/2+x,y,1/2-z
1/2-x,1/2+y,1/2+z
x,1/2-y,z
loop_
_atom_site_type_symbol
_atom_site_label
_atom_site_fract_x
_atom_site_fract_y
_atom_site_fract_z
Si Si1 0.097671 0.426511 0.095246
Si Si2 0.279839 0.083537 0.278407
Si Si3 0.188505 0.916299 0.199868
Si Si4 0.121297 0.927876 0.708151
Si Si5 0.543925 0.926691 0.096241
O O1 0.093787 0.250000 0.091450
O O2 0.144390 0.477644 0.200806
O O3 0.056153 0.499773 0.209268
O O4 0.102705 0.490445 0.889711
O O5 0.267063 0.250000 0.213589
O O6 0.298556 0.094304 0.484846
O O7 0.325265 0.027300 0.170050
O O8 0.235230 0.980715 0.283891
O O9 0.176859 0.750000 0.267718
O O10 0.122736 0.750000 0.744996
O O11 0.087052 0.953005 0.540633
O O12 0.537706 0.750000 0.117064
O O13 0.500000 0.000000 0.000000
#
# Coordination Sequence:
#
# PCOD9465567 Si02
#       5
#     8   8   8   8   8
#     4  11  23  40  63  91 124 162 204 254 309 369
#     4   9  19  35  54  83 116 153 201 248 298 358
#     4  10  21  36  55  83 119 160 201 245 298 359
#     4   9  21  42  64  88 122 162 205 254 308 363
#     4  11  24  43  67  95 124 161 207 259 313 370
#
# _framework density 21.076107
#
# number of rings (size 3 to 8) (size 9 to 14) (size 15 to 20)
#    0.000    2.000    0.000    4.200    2.800    6.400 
#    0.000    0.000    0.000    0.000    0.000    0.000 
#    0.000    0.000    0.000    0.000    0.000    0.000 
#
# Total GULP energy -223554.937563 kJ/mol
# GULP energy per Si atom -5588.873439 kJ/mol
# Density = 2.102814 g / cm^3
# Si number density = 21.076107 Si / 1000 Ang^3
#
#
#
# Elastic Constant Matrix: (Units=GPa)
#
#
# Indices 1 2 3 4 5 6 
#
# 1 30.5821 14.6912 9.5701 0.0000 0.0000 0.0000
# 2 14.6912 90.4583 34.7185 0.0000 0.0000 0.0000
# 3 9.5701 34.7185 52.8765 0.0000 0.0000 0.0000
# 4 0.0000 0.0000 0.0000 22.7985 0.0000 0.0000
# 5 0.0000 0.0000 0.0000 0.0000 31.0613 0.0000
# 6 0.0000 0.0000 0.0000 0.0000 0.0000 36.8527
#
#
#
# Elastic Compliance Matrix: (Units=1/GPa)
#
#
# Indices 1 2 3 4 5 6 
#
# 1 0.035964 -0.004469 -0.003575 0.000000 0.000000 0.000000
# 2 -0.004469 0.015335 -0.009260 0.000000 0.000000 0.000000
# 3 -0.003575 -0.009260 0.025639 0.000000 0.000000 0.000000
# 4 0.000000 0.000000 0.000000 0.043863 0.000000 0.000000
# 5 0.000000 0.000000 0.000000 0.000000 0.032194 0.000000
# 6 0.000000 0.000000 0.000000 0.000000 0.000000 0.027135
#
#
# Mechanical properties :
#
#
# Convention : Reuss Voigt Hill
#
# Bulk Modulus (GPa) = 23.62354 32.43074 28.02714
# Shear Modulus (GPa) = 21.84862 25.80496 23.82679
#
# Velocity S-wave (km/s) = 3.22320 3.50290 3.36596
# Velocity P-wave (km/s) = 5.00850 5.63748 5.33227
#
# Compressibility (1/GPa) = 0.04233066
#
# Stress axis : x y z
#
# Youngs Moduli (GPa) = 27.80535 65.21209 39.00308
#
# Poissons Ratio (x) = 0.29142 0.13943
# Poissons Ratio (y) = 0.12426 0.36116
# Poissons Ratio (z) = 0.09940 0.60385
#
# Static dielectric constant tensor:
#      x y z
#    x 1.788760 0.000000 0.000000 
#    y 0.000000 1.735190 0.000000 
#    z 0.000000 0.000000 1.801770 
# 
# From -- ./inp_files/9099.got.cif
#   From: 2010.05.17/outbox.cif.g08.bks.cpg/sg62_5_cif.got.tgz:9099.got - 2010.06.03 15:25:27.
