data_PCOD9465404
_publ_section_title
;
Structure prediction by ZEFSAII (Michael W. Deem and Ramdas Pophale) SiO2 
 PCOD9465404
Probable space group: P N M A
;
_chemical_formula_sum "Si O2"
_cell_formula_units_Z 60
_cell_length_a 15.102789
_cell_length_b 9.427112
_cell_length_c 21.200991
_cell_angle_alpha 90.000000
_cell_angle_beta 90.000000
_cell_angle_gamma 90.000000
_cell_volume 3018.505583
_symmetry_space_group_name_H-M "P N M A"
_symmetry_group_IT_number 62
_symmetry_cell_setting 'orthorhombic'
loop_
_space_group_symop_operation_xyz
x,y,z
1/2-x,-y,1/2+z
1/2+x,1/2-y,1/2-z
-x,1/2+y,-z
-x,-y,-z
1/2+x,y,1/2-z
1/2-x,1/2+y,1/2+z
x,1/2-y,z
loop_
_atom_site_type_symbol
_atom_site_label
_atom_site_fract_x
_atom_site_fract_y
_atom_site_fract_z
Si Si1 0.472600 0.415649 0.602515
Si Si2 0.548026 0.588538 0.806494
Si Si3 0.893905 0.025292 0.445019
Si Si4 0.847528 0.416743 0.105346
Si Si5 0.009926 0.750000 0.474035
Si Si6 0.208295 0.916661 0.035026
Si Si7 0.598932 0.587925 0.254980
Si Si8 0.302794 0.581534 0.269464
O O1 0.494744 0.250000 0.588476
O O2 0.555581 0.517359 0.593077
O O3 0.387625 0.458284 0.561515
O O4 0.442968 0.422243 0.675583
O O5 0.552701 0.750000 0.783094
O O6 0.564260 0.586136 0.880974
O O7 0.453995 0.519274 0.789267
O O8 0.623138 0.493100 0.773309
O O9 0.920092 0.126580 0.502208
O O10 0.937496 0.873420 0.456413
O O11 0.788984 0.005812 0.437909
O O12 0.853591 0.250000 0.121615
O O13 0.807411 0.507147 0.162438
O O14 0.793077 0.428613 0.040617
O O15 0.218972 0.750000 0.051996
O O16 0.585801 0.750000 0.231774
O O17 0.703846 0.562660 0.257282
O O18 0.321123 0.750000 0.274303
#
# Coordination Sequence:
#
# PCOD9465404 Si02
#       8
#     8   8   8   8   4   8   8   8
#     4  10  20  41  67  93 128 171 220 266 321 389
#     4  12  25  42  67  98 134 171 217 270 332 386
#     4  11  23  46  65  98 128 175 216 271 320 396
#     4  11  23  41  62  95 135 170 211 273 334 383
#     4  10  24  42  68  88 132 168 212 266 326 368
#     4  10  22  41  68  95 128 174 220 268 328 384
#     4  10  23  41  66  97 126 173 222 268 322 388
#     4  11  24  43  66  96 131 173 222 272 326 396
#
# _framework density 19.877386000000001
#
# number of rings (size 3 to 8) (size 9 to 14) (size 15 to 20)
#    0.000    1.333    2.667    2.400    1.867    4.267 
#    6.000    0.000    0.000    0.000    0.000    0.000 
#    0.000    0.000    0.000    0.000    0.000    0.000 
#
# Total GULP energy -334302.543300 kJ/mol
# GULP energy per Si atom -5571.709055 kJ/mol
# Density = 1.983214 g / cm^3
# Si number density = 19.877386 Si / 1000 Ang^3
#
#
#
# Elastic Constant Matrix: (Units=GPa)
#
#
# Indices 1 2 3 4 5 6 
#
# 1 47.3708 31.8210 3.5350 0.0000 0.0000 0.0000
# 2 31.8210 122.8878 12.4646 0.0000 0.0000 0.0000
# 3 3.5350 12.4646 6.4549 0.0000 0.0000 0.0000
# 4 0.0000 0.0000 0.0000 20.4665 0.0000 0.0000
# 5 0.0000 0.0000 0.0000 0.0000 25.1492 0.0000
# 6 0.0000 0.0000 0.0000 0.0000 0.0000 16.1747
#
#
#
# Elastic Compliance Matrix: (Units=1/GPa)
#
#
# Indices 1 2 3 4 5 6 
#
# 1 0.025567 -0.006467 -0.001514 0.000000 0.000000 0.000000
# 2 -0.006467 0.011755 -0.019158 0.000000 0.000000 0.000000
# 3 -0.001514 -0.019158 0.192744 0.000000 0.000000 0.000000
# 4 0.000000 0.000000 0.000000 0.048860 0.000000 0.000000
# 5 0.000000 0.000000 0.000000 0.000000 0.039763 0.000000
# 6 0.000000 0.000000 0.000000 0.000000 0.000000 0.061825
#
#
# Mechanical properties :
#
#
# Convention : Reuss Voigt Hill
#
# Bulk Modulus (GPa) = 5.68867 30.26165 17.97516
# Shear Modulus (GPa) = 10.13400 20.95095 15.54248
#
# Velocity S-wave (km/s) = 2.26038 3.25007 2.79931
# Velocity P-wave (km/s) = 3.11135 5.41675 4.41711
#
# Compressibility (1/GPa) = 0.17578800
#
# Stress axis : x y z
#
# Youngs Moduli (GPa) = 39.11276 85.06808 5.18823
#
# Poissons Ratio (x) = 0.55012 0.00786
# Poissons Ratio (y) = 0.25294 0.09940
# Poissons Ratio (z) = 0.05922 1.62975
#
# Static dielectric constant tensor:
#      x y z
#    x 1.696850 0.000000 0.000000 
#    y 0.000000 1.677460 0.000000 
#    z 0.000000 0.000000 1.720340 
# 
# From -- ./inp_files/29687.got.cif
#   From: 2010.05.17/outbox.cif.g08.bks.cpg/sg62_15_cif.got.tgz:29687.got - 2010.06.03 15:25:27.
