data_PCOD9465333
_publ_section_title
;
Structure prediction by ZEFSAII (Michael W. Deem and Ramdas Pophale) SiO2 
 PCOD9465333
Probable space group: P N M A
;
_chemical_formula_sum "Si O2"
_cell_formula_units_Z 48
_cell_length_a 12.990862
_cell_length_b 29.132447
_cell_length_c 5.508849
_cell_angle_alpha 90.000000
_cell_angle_beta 90.000000
_cell_angle_gamma 90.000000
_cell_volume 2084.854746
_symmetry_space_group_name_H-M "P N M A"
_symmetry_group_IT_number 62
_symmetry_cell_setting 'orthorhombic'
loop_
_space_group_symop_operation_xyz
x,y,z
1/2-x,-y,1/2+z
1/2+x,1/2-y,1/2-z
-x,1/2+y,-z
-x,-y,-z
1/2+x,y,1/2-z
1/2-x,1/2+y,1/2+z
x,1/2-y,z
loop_
_atom_site_type_symbol
_atom_site_label
_atom_site_fract_x
_atom_site_fract_y
_atom_site_fract_z
Si Si1 0.062730 0.003276 0.252291
Si Si2 0.976409 0.350235 0.725494
Si Si3 0.022295 0.250000 0.890249
Si Si4 0.688973 0.152499 0.091942
Si Si5 0.195355 0.912325 0.244429
Si Si6 0.657067 0.250000 0.103773
Si Si7 0.890353 0.906837 0.962153
O O1 0.141168 0.961362 0.236815
O O2 0.103749 0.055212 0.244204
O O3 0.000000 0.000000 0.500000
O O4 0.000000 0.000000 0.000000
O O5 0.965247 0.299498 0.844165
O O6 0.079379 0.349255 0.556749
O O7 0.875940 0.374743 0.610683
O O8 0.004307 0.389903 0.922664
O O9 0.097554 0.250000 0.654309
O O10 0.081174 0.250000 0.155151
O O11 0.724241 0.204467 0.098045
O O12 0.658223 0.139408 0.361240
O O13 0.771818 0.117162 0.990525
O O14 0.307114 0.924659 0.351368
#
# Coordination Sequence:
#
# PCOD9465333 Si02
#       7
#     8   8   4   8   8   4   8
#     4  12  28  47  73  99 137 189 235 291 357 427
#     4  10  21  44  66  98 140 184 235 284 363 415
#     4  10  20  39  71  98 133 188 228 282 344 431
#     4  10  23  41  68  99 135 187 230 294 354 428
#     4  11  26  42  68 103 140 180 239 298 350 430
#     4  10  20  41  69  98 135 180 232 282 352 411
#     4  11  24  42  70  97 140 183 232 295 354 422
#
# _framework density 23.023187
#
# number of rings (size 3 to 8) (size 9 to 14) (size 15 to 20)
#    0.000    1.333    3.333    1.000    7.000    2.000 
#    0.000    1.667    0.000    0.000    0.000    0.000 
#    0.000    0.000    0.000    0.000    0.000    0.000 
#
# Total GULP energy -267434.789706 kJ/mol
# GULP energy per Si atom -5571.558119 kJ/mol
# Density = 2.297079 g / cm^3
# Si number density = 23.023187 Si / 1000 Ang^3
#
#
#
# Elastic Constant Matrix: (Units=GPa)
#
#
# Indices 1 2 3 4 5 6 
#
# 1 60.8648 17.6754 8.3357 0.0000 0.0000 0.0000
# 2 17.6754 126.3357 0.9064 0.0000 0.0000 0.0000
# 3 8.3357 0.9064 73.8584 0.0000 0.0000 0.0000
# 4 0.0000 0.0000 0.0000 35.1271 0.0000 0.0000
# 5 0.0000 0.0000 0.0000 0.0000 13.8158 0.0000
# 6 0.0000 0.0000 0.0000 0.0000 0.0000 33.4879
#
#
#
# Elastic Compliance Matrix: (Units=1/GPa)
#
#
# Indices 1 2 3 4 5 6 
#
# 1 0.017398 -0.002420 -0.001934 0.000000 0.000000 0.000000
# 2 -0.002420 0.008253 0.000172 0.000000 0.000000 0.000000
# 3 -0.001934 0.000172 0.013756 0.000000 0.000000 0.000000
# 4 0.000000 0.000000 0.000000 0.028468 0.000000 0.000000
# 5 0.000000 0.000000 0.000000 0.000000 0.072381 0.000000
# 6 0.000000 0.000000 0.000000 0.000000 0.000000 0.029862
#
#
# Mechanical properties :
#
#
# Convention : Reuss Voigt Hill
#
# Bulk Modulus (GPa) = 32.21476 34.98820 33.60148
# Shear Modulus (GPa) = 26.47914 32.09557 29.28735
#
# Velocity S-wave (km/s) = 3.39500 3.73775 3.57049
# Velocity P-wave (km/s) = 5.42132 5.81873 5.62354
#
# Compressibility (1/GPa) = 0.03104168
#
# Stress axis : x y z
#
# Youngs Moduli (GPa) = 57.47939 121.17112 72.69786
#
# Poissons Ratio (x) = 0.29326 0.14058
# Poissons Ratio (y) = 0.13911 -0.01249
# Poissons Ratio (z) = 0.11115 -0.02082
#
# Static dielectric constant tensor:
#      x y z
#    x 2.014030 0.000000 0.000000 
#    y 0.000000 1.871610 0.000000 
#    z 0.000000 0.000000 1.769530 
# 
# From -- ./inp_files/1201.got.cif
#   From: 2010.05.17/outbox.cif.g08.bks.cpg/sg62_1_cif.got.tgz:1201.got - 2010.06.03 15:25:27.
