data_PCOD9465926
_publ_section_title
;
Structure prediction by ZEFSAII (Michael W. Deem and Ramdas Pophale) SiO2 
 PCOD9465926
Probable space group: P N M A
;
_chemical_formula_sum "Si O2"
_cell_formula_units_Z 56
_cell_length_a 14.687081
_cell_length_b 8.691513
_cell_length_c 21.562821
_cell_angle_alpha 90.000000
_cell_angle_beta 90.000000
_cell_angle_gamma 90.000000
_cell_volume 2752.557828
_symmetry_space_group_name_H-M "P N M A"
_symmetry_group_IT_number 62
_symmetry_cell_setting 'orthorhombic'
loop_
_space_group_symop_operation_xyz
x,y,z
1/2-x,-y,1/2+z
1/2+x,1/2-y,1/2-z
-x,1/2+y,-z
-x,-y,-z
1/2+x,y,1/2-z
1/2-x,1/2+y,1/2+z
x,1/2-y,z
loop_
_atom_site_type_symbol
_atom_site_label
_atom_site_fract_x
_atom_site_fract_y
_atom_site_fract_z
Si Si1 0.697133 0.934202 0.600758
Si Si2 0.246356 0.927980 0.272463
Si Si3 0.043434 0.071088 0.735632
Si Si4 0.497157 0.932900 0.430900
Si Si5 0.020640 0.435265 0.592839
Si Si6 0.102288 0.070229 0.178353
Si Si7 0.145821 0.434889 0.486042
O O1 0.684074 0.750000 0.599227
O O2 0.757839 0.985591 0.541710
O O3 0.752335 0.980193 0.662762
O O4 0.599397 0.015241 0.598497
O O5 0.221987 0.750000 0.284922
O O6 0.349782 0.934662 0.248661
O O7 0.181654 0.994064 0.219215
O O8 0.014279 0.250000 0.745686
O O9 0.025381 0.026905 0.664756
O O10 0.987606 0.961977 0.780626
O O11 0.501813 0.750000 0.432698
O O12 0.500000 0.000000 0.500000
O O13 0.578717 0.995282 0.387802
O O14 0.013073 0.250000 0.587969
O O15 0.933901 0.509296 0.559786
O O16 0.110778 0.482950 0.554056
O O17 0.119140 0.250000 0.170934
O O18 0.148238 0.250000 0.485127
#
# Coordination Sequence:
#
# PCOD9465926 Si02
#       7
#     8   8   8   8   8   8   8
#     4  11  22  39  63  93 127 166 214 265 324 389
#     4  11  23  39  63  92 125 167 215 265 324 388
#     4  10  21  38  61  88 119 160 206 257 316 379
#     4  12  26  46  69  94 127 168 216 268 330 398
#     4   9  18  34  55  82 117 156 202 250 303 366
#     4  12  25  42  65  94 130 168 214 272 330 389
#     4   9  19  34  54  83 119 158 199 247 304 368
#
# _framework density 20.344712999999999
#
# number of rings (size 3 to 8) (size 9 to 14) (size 15 to 20)
#    0.000    1.429    1.429    4.286    0.000    5.714 
#    0.000    2.857    0.000    0.000    0.000    0.000 
#    0.000    0.000    0.000    0.000    0.000    0.000 
#
# Total GULP energy -313000.836491 kJ/mol
# GULP energy per Si atom -5589.300652 kJ/mol
# Density = 2.029841 g / cm^3
# Si number density = 20.344713 Si / 1000 Ang^3
#
#
#
# Elastic Constant Matrix: (Units=GPa)
#
#
# Indices 1 2 3 4 5 6 
#
# 1 42.3578 5.5592 -6.4211 0.0000 0.0000 0.0000
# 2 5.5592 75.9398 12.5309 0.0000 0.0000 0.0000
# 3 -6.4211 12.5309 76.0447 0.0000 0.0000 0.0000
# 4 0.0000 0.0000 0.0000 30.4063 0.0000 0.0000
# 5 0.0000 0.0000 0.0000 0.0000 32.8864 0.0000
# 6 0.0000 0.0000 0.0000 0.0000 0.0000 30.4085
#
#
#
# Elastic Compliance Matrix: (Units=1/GPa)
#
#
# Indices 1 2 3 4 5 6 
#
# 1 0.024258 -0.002173 0.002406 0.000000 0.000000 0.000000
# 2 -0.002173 0.013731 -0.002446 0.000000 0.000000 0.000000
# 3 0.002406 -0.002446 0.013756 0.000000 0.000000 0.000000
# 4 0.000000 0.000000 0.000000 0.032888 0.000000 0.000000
# 5 0.000000 0.000000 0.000000 0.000000 0.030408 0.000000
# 6 0.000000 0.000000 0.000000 0.000000 0.000000 0.032886
#
#
# Mechanical properties :
#
#
# Convention : Reuss Voigt Hill
#
# Bulk Modulus (GPa) = 21.13249 24.18671 22.65960
# Shear Modulus (GPa) = 29.73964 30.91846 30.32905
#
# Velocity S-wave (km/s) = 3.82748 3.90260 3.86522
# Velocity P-wave (km/s) = 5.47198 5.67638 5.57512
#
# Compressibility (1/GPa) = 0.04732050
#
# Stress axis : x y z
#
# Youngs Moduli (GPa) = 41.22291 72.82772 72.69328
#
# Poissons Ratio (x) = 0.15825 -0.17493
# Poissons Ratio (y) = 0.08957 0.17782
# Poissons Ratio (z) = -0.09920 0.17815
#
# Static dielectric constant tensor:
#      x y z
#    x 1.722840 0.000000 0.000000 
#    y 0.000000 1.684700 0.000000 
#    z 0.000000 0.000000 1.734010 
# 
# From -- ./inp_files/27234.got.cif
#   From: 2010.05.17/outbox.cif.g08.bks.cpg/sg62_14_cif.got.tgz:27234.got - 2010.06.03 15:25:27.
