data_PCOD9465876
_publ_section_title
;
Structure prediction by ZEFSAII (Michael W. Deem and Ramdas Pophale) SiO2 
 PCOD9465876
Probable space group: P N M A
;
_chemical_formula_sum "Si O2"
_cell_formula_units_Z 64
_cell_length_a 18.959193
_cell_length_b 18.979377
_cell_length_c 10.180480
_cell_angle_alpha 90.000000
_cell_angle_beta 90.000000
_cell_angle_gamma 90.000000
_cell_volume 3663.279497
_symmetry_space_group_name_H-M "P N M A"
_symmetry_group_IT_number 62
_symmetry_cell_setting 'orthorhombic'
loop_
_space_group_symop_operation_xyz
x,y,z
1/2-x,-y,1/2+z
1/2+x,1/2-y,1/2-z
-x,1/2+y,-z
-x,-y,-z
1/2+x,y,1/2-z
1/2-x,1/2+y,1/2+z
x,1/2-y,z
loop_
_atom_site_type_symbol
_atom_site_label
_atom_site_fract_x
_atom_site_fract_y
_atom_site_fract_z
Si Si1 0.661933 0.933108 0.945185
Si Si2 0.820797 0.600646 0.866748
Si Si3 0.469082 0.332251 0.034294
Si Si4 0.626680 0.167003 0.104514
Si Si5 0.396501 0.833158 0.383376
Si Si6 0.548547 0.830336 0.277558
Si Si7 0.833504 0.444889 0.760309
Si Si8 0.677377 0.412964 0.853697
O O1 0.737373 0.902005 0.899982
O O2 0.596806 0.880257 0.925014
O O3 0.650942 0.006758 0.870071
O O4 0.666666 0.948974 0.101536
O O5 0.839731 0.650000 0.744372
O O6 0.842918 0.521771 0.823400
O O7 0.863449 0.627946 0.992175
O O8 0.456088 0.250000 0.066051
O O9 0.543869 0.354038 0.096443
O O10 0.475345 0.336975 0.875411
O O11 0.629053 0.250000 0.075714
O O12 0.667708 0.124598 0.992886
O O13 0.379021 0.750000 0.386863
O O14 0.480791 0.839090 0.369703
O O15 0.364723 0.869139 0.254106
O O16 0.575797 0.750000 0.292268
O O17 0.606778 0.889375 0.300432
O O18 0.758087 0.417290 0.808798
#
# Coordination Sequence:
#
# PCOD9465876 Si02
#       8
#     8   8   8   8   8   8   8   8
#     4  10  21  38  60  86 118 153 194 246 290 345
#     4  11  23  39  59  87 120 157 190 237 298 346
#     4   9  19  36  59  86 115 150 197 245 288 340
#     4  11  22  38  58  86 118 151 194 242 291 349
#     4  11  22  38  59  86 117 152 194 237 286 350
#     4   9  19  36  58  86 117 150 194 246 289 338
#     4  10  21  38  59  86 120 150 197 245 290 344
#     4  11  21  37  60  85 115 152 195 241 288 344
#
# _framework density 17.470685
#
# number of rings (size 3 to 8) (size 9 to 14) (size 15 to 20)
#    0.000    1.750    3.750    0.750    0.000    4.000 
#    0.000    1.250    0.000    0.000    0.000    0.000 
#    0.000    0.000    0.000    0.000    0.000    0.000 
#
# Total GULP energy -357246.446350 kJ/mol
# GULP energy per Si atom -5581.975724 kJ/mol
# Density = 1.743092 g / cm^3
# Si number density = 17.470685 Si / 1000 Ang^3
#
#
#
# Elastic Constant Matrix: (Units=GPa)
#
#
# Indices 1 2 3 4 5 6 
#
# 1 64.0665 59.7119 14.0640 0.0000 0.0000 0.0000
# 2 59.7119 80.2558 13.4820 0.0000 0.0000 0.0000
# 3 14.0640 13.4820 43.9961 0.0000 0.0000 0.0000
# 4 0.0000 0.0000 0.0000 23.3210 0.0000 0.0000
# 5 0.0000 0.0000 0.0000 0.0000 25.8359 0.0000
# 6 0.0000 0.0000 0.0000 0.0000 0.0000 23.9436
#
#
#
# Elastic Compliance Matrix: (Units=1/GPa)
#
#
# Indices 1 2 3 4 5 6 
#
# 1 0.051948 -0.037807 -0.005021 0.000000 0.000000 0.000000
# 2 -0.037807 0.040652 -0.000372 0.000000 0.000000 0.000000
# 3 -0.005021 -0.000372 0.024448 0.000000 0.000000 0.000000
# 4 0.000000 0.000000 0.000000 0.042880 0.000000 0.000000
# 5 0.000000 0.000000 0.000000 0.000000 0.038706 0.000000
# 6 0.000000 0.000000 0.000000 0.000000 0.000000 0.041765
#
#
# Mechanical properties :
#
#
# Convention : Reuss Voigt Hill
#
# Bulk Modulus (GPa) = 32.62683 40.31490 36.47086
# Shear Modulus (GPa) = 14.83617 21.35747 18.09682
#
# Velocity S-wave (km/s) = 2.91727 3.50018 3.22194
# Velocity P-wave (km/s) = 5.48298 6.28179 5.89593
#
# Compressibility (1/GPa) = 0.03064962
#
# Stress axis : x y z
#
# Youngs Moduli (GPa) = 19.24986 24.59908 40.90306
#
# Poissons Ratio (x) = 0.93002 0.20535
# Poissons Ratio (y) = 0.72778 0.01520
# Poissons Ratio (z) = 0.09664 0.00914
#
# Static dielectric constant tensor:
#      x y z
#    x 1.576140 0.000000 0.000000 
#    y 0.000000 1.586360 0.000000 
#    z 0.000000 0.000000 1.579640 
# 
# From -- ./inp_files/8885.got.cif
#   From: 2010.05.17/outbox.cif.g08.bks.cpg/sg62_5_cif.got.tgz:8885.got - 2010.06.03 15:25:27.
