data_PCOD9465190
_publ_section_title
;
Structure prediction by ZEFSAII (Michael W. Deem and Ramdas Pophale) SiO2 
 PCOD9465190
Probable space group: P N M A
;
_chemical_formula_sum "Si O2"
_cell_formula_units_Z 40
_cell_length_a 9.939024
_cell_length_b 10.942080
_cell_length_c 16.553615
_cell_angle_alpha 90.000000
_cell_angle_beta 90.000000
_cell_angle_gamma 90.000000
_cell_volume 1800.265154
_symmetry_space_group_name_H-M "P N M A"
_symmetry_group_IT_number 62
_symmetry_cell_setting 'orthorhombic'
loop_
_space_group_symop_operation_xyz
x,y,z
1/2-x,-y,1/2+z
1/2+x,1/2-y,1/2-z
-x,1/2+y,-z
-x,-y,-z
1/2+x,y,1/2-z
1/2-x,1/2+y,1/2+z
x,1/2-y,z
loop_
_atom_site_type_symbol
_atom_site_label
_atom_site_fract_x
_atom_site_fract_y
_atom_site_fract_z
Si Si1 0.480855 0.607841 0.295982
Si Si2 0.787846 0.750000 0.697703
Si Si3 0.910431 0.250000 0.344495
Si Si4 0.959739 0.985010 0.383145
Si Si5 0.183182 0.891217 0.065942
Si Si6 0.738618 0.997986 0.597727
O O1 0.501990 0.750000 0.276434
O O2 0.473902 0.534490 0.213231
O O3 0.600323 0.566240 0.355722
O O4 0.344151 0.589370 0.346258
O O5 0.712445 0.750000 0.782559
O O6 0.748731 0.870038 0.646553
O O7 0.948892 0.750000 0.705049
O O8 0.915167 0.374518 0.395114
O O9 0.841512 0.899416 0.414428
O O10 0.107766 0.962779 0.417810
O O11 0.145035 0.750000 0.050822
O O12 0.164207 0.971414 0.986210
#
# Coordination Sequence:
#
# PCOD9465190 Si02
#       6
#     8   4   4   8   8   8
#     4  11  24  41  63  93 122 162 207 253 308 367
#     4  10  20  38  64  90 122 156 202 254 304 362
#     4  10  22  36  62  94 116 154 206 254 304 360
#     4  11  23  40  64  91 122 160 210 253 304 368
#     4  11  24  42  63  90 126 164 202 255 313 366
#     4  11  22  42  63  90 127 162 203 252 307 370
#
# _framework density 22.218947
#
# number of rings (size 3 to 8) (size 9 to 14) (size 15 to 20)
#    0.000    1.200    3.000    3.000    2.800    3.200 
#    1.800    0.000    0.000    0.000    0.000    0.000 
#    0.000    0.000    0.000    0.000    0.000    0.000 
#
# Total GULP energy -223827.695906 kJ/mol
# GULP energy per Si atom -5595.692398 kJ/mol
# Density = 2.216838 g / cm^3
# Si number density = 22.218947 Si / 1000 Ang^3
#
#
#
# Elastic Constant Matrix: (Units=GPa)
#
#
# Indices 1 2 3 4 5 6 
#
# 1 52.7189 -3.9601 -13.7300 0.0000 0.0000 0.0000
# 2 -3.9601 52.7360 10.8314 0.0000 0.0000 0.0000
# 3 -13.7300 10.8314 73.4908 0.0000 0.0000 0.0000
# 4 0.0000 0.0000 0.0000 -10.1053 0.0000 0.0000
# 5 0.0000 0.0000 0.0000 0.0000 27.7232 0.0000
# 6 0.0000 0.0000 0.0000 0.0000 0.0000 20.9917
#
#
#
# Elastic Compliance Matrix: (Units=1/GPa)
#
#
# Indices 1 2 3 4 5 6 
#
# 1 0.019968 0.000756 0.003619 0.000000 0.000000 0.000000
# 2 0.000756 0.019583 -0.002745 0.000000 0.000000 0.000000
# 3 0.003619 -0.002745 0.014688 0.000000 0.000000 0.000000
# 4 0.000000 0.000000 0.000000 -0.098958 0.000000 0.000000
# 5 0.000000 0.000000 0.000000 0.000000 0.036071 0.000000
# 6 0.000000 0.000000 0.000000 0.000000 0.000000 0.047638
#
#
# Mechanical properties :
#
#
# Convention : Reuss Voigt Hill
#
# Bulk Modulus (GPa) = 17.39155 18.35868 17.87512
# Shear Modulus (GPa) = 91.08230 20.10887 55.59559
#
# Velocity S-wave (km/s) = 6.40953 3.01164 5.00760
# Velocity P-wave (km/s) = 7.91331 4.51374 6.44183
#
# Compressibility (1/GPa) = 0.05749919
#
# Stress axis : x y z
#
# Youngs Moduli (GPa) = 50.08045 51.06482 68.08346
#
# Poissons Ratio (x) = -0.03861 -0.24640
# Poissons Ratio (y) = -0.03787 0.18689
# Poissons Ratio (z) = -0.18125 0.14017
#
# Static dielectric constant tensor:
#      x y z
#    x 1.810790 0.000000 0.000000 
#    y 0.000000 1.780870 0.000000 
#    z 0.000000 0.000000 1.797470 
# 
# From -- ./inp_files/17815.got.cif
#   From: 2010.05.17/outbox.cif.g08.bks.cpg/sg62_9_cif.got.tgz:17815.got - 2010.06.03 15:25:27.
