data_PCOD9465846
_publ_section_title
;
Structure prediction by ZEFSAII (Michael W. Deem and Ramdas Pophale) SiO2 
 PCOD9465846
Probable space group: P N M A
;
_chemical_formula_sum "Si O2"
_cell_formula_units_Z 56
_cell_length_a 14.925243
_cell_length_b 8.368690
_cell_length_c 22.095145
_cell_angle_alpha 90.000000
_cell_angle_beta 90.000000
_cell_angle_gamma 90.000000
_cell_volume 2759.788161
_symmetry_space_group_name_H-M "P N M A"
_symmetry_group_IT_number 62
_symmetry_cell_setting 'orthorhombic'
loop_
_space_group_symop_operation_xyz
x,y,z
1/2-x,-y,1/2+z
1/2+x,1/2-y,1/2-z
-x,1/2+y,-z
-x,-y,-z
1/2+x,y,1/2-z
1/2-x,1/2+y,1/2+z
x,1/2-y,z
loop_
_atom_site_type_symbol
_atom_site_label
_atom_site_fract_x
_atom_site_fract_y
_atom_site_fract_z
Si Si1 0.372603 0.065525 0.954076
Si Si2 0.648483 0.438083 0.917203
Si Si3 0.509107 0.435614 0.149968
Si Si4 0.204722 0.942115 0.887367
Si Si5 0.824352 0.557426 0.726282
Si Si6 0.666923 0.942456 0.362176
Si Si7 0.012226 0.442585 0.930787
O O1 0.392609 0.250000 0.940299
O O2 0.433342 0.955837 0.911422
O O3 0.270846 0.022950 0.936026
O O4 0.386209 0.029521 0.024063
O O5 0.649534 0.250000 0.930842
O O6 0.582266 0.471050 0.861327
O O7 0.748183 0.494345 0.901849
O O8 0.489024 0.250000 0.161031
O O9 0.578916 0.496433 0.200162
O O10 0.211935 0.750000 0.892669
O O11 0.246832 0.989400 0.821821
O O12 0.103796 0.993407 0.901184
O O13 0.825513 0.750000 0.726268
O O14 0.815890 0.497042 0.793924
O O15 0.666241 0.750000 0.362885
O O16 0.573470 0.997105 0.391202
O O17 0.014628 0.250000 0.930830
O O18 0.000000 0.500000 0.000000
#
# Coordination Sequence:
#
# PCOD9465846 Si02
#       7
#     8   8   8   8   8   8   8
#     4  11  21  35  58  88 117 150 188 231 282 342
#     4  11  22  37  56  82 115 152 188 232 286 339
#     4  10  21  38  58  84 116 151 188 232 281 339
#     4  10  21  39  61  87 118 154 193 240 291 349
#     4   9  21  40  61  83 112 150 193 237 290 349
#     4  10  24  41  58  82 116 151 191 243 294 343
#     4  11  23  40  62  90 120 158 202 249 303 357
#
# _framework density 20.291412000000001
#
# number of rings (size 3 to 8) (size 9 to 14) (size 15 to 20)
#    0.000    1.714    0.000    5.143    0.000    8.000 
#    0.000    5.714    0.000    0.000    0.000    0.000 
#    0.000    0.000    0.000    0.000    0.000    0.000 
#
# Total GULP energy -312885.572624 kJ/mol
# GULP energy per Si atom -5587.242368 kJ/mol
# Density = 2.024523 g / cm^3
# Si number density = 20.291412 Si / 1000 Ang^3
#
#
#
# Elastic Constant Matrix: (Units=GPa)
#
#
# Indices 1 2 3 4 5 6 
#
# 1 93.0375 -7.1872 0.0008 0.0000 0.0000 0.0000
# 2 -7.1872 27.6277 -2.6821 0.0000 0.0000 0.0000
# 3 0.0008 -2.6821 69.1829 0.0000 0.0000 0.0000
# 4 0.0000 0.0000 0.0000 31.6288 0.0000 0.0000
# 5 0.0000 0.0000 0.0000 0.0000 15.3753 0.0000
# 6 0.0000 0.0000 0.0000 0.0000 0.0000 27.8242
#
#
#
# Elastic Compliance Matrix: (Units=1/GPa)
#
#
# Indices 1 2 3 4 5 6 
#
# 1 0.010970 0.002864 0.000111 0.000000 0.000000 0.000000
# 2 0.002864 0.037080 0.001438 0.000000 0.000000 0.000000
# 3 0.000111 0.001438 0.014510 0.000000 0.000000 0.000000
# 4 0.000000 0.000000 0.000000 0.031617 0.000000 0.000000
# 5 0.000000 0.000000 0.000000 0.000000 0.065039 0.000000
# 6 0.000000 0.000000 0.000000 0.000000 0.000000 0.035940
#
#
# Mechanical properties :
#
#
# Convention : Reuss Voigt Hill
#
# Bulk Modulus (GPa) = 14.00837 18.90122 16.45479
# Shear Modulus (GPa) = 23.79530 28.28010 26.03770
#
# Velocity S-wave (km/s) = 3.42815 3.73728 3.58605
# Velocity P-wave (km/s) = 4.75271 5.28754 5.02724
#
# Compressibility (1/GPa) = 0.07138590
#
# Stress axis : x y z
#
# Youngs Moduli (GPa) = 91.16073 26.96851 68.91715
#
# Poissons Ratio (x) = -0.07725 -0.00764
# Poissons Ratio (y) = -0.26113 -0.09907
# Poissons Ratio (z) = -0.01011 -0.03877
#
# Static dielectric constant tensor:
#      x y z
#    x 1.746120 0.000000 0.000000 
#    y 0.000000 1.696280 0.000000 
#    z 0.000000 0.000000 1.703030 
# 
# From -- ./inp_files/27168.got.cif
#   From: 2010.05.17/outbox.cif.g08.bks.cpg/sg62_14_cif.got.tgz:27168.got - 2010.06.03 15:25:27.
