data_PCOD9465286
_publ_section_title
;
Structure prediction by ZEFSAII (Michael W. Deem and Ramdas Pophale) SiO2 
 PCOD9465286
Probable space group: P N M A
;
_chemical_formula_sum "Si O2"
_cell_formula_units_Z 64
_cell_length_a 8.978009
_cell_length_b 20.984063
_cell_length_c 15.447644
_cell_angle_alpha 90.000000
_cell_angle_beta 90.000000
_cell_angle_gamma 90.000000
_cell_volume 2910.260536
_symmetry_space_group_name_H-M "P N M A"
_symmetry_group_IT_number 62
_symmetry_cell_setting 'orthorhombic'
loop_
_space_group_symop_operation_xyz
x,y,z
1/2-x,-y,1/2+z
1/2+x,1/2-y,1/2-z
-x,1/2+y,-z
-x,-y,-z
1/2+x,y,1/2-z
1/2-x,1/2+y,1/2+z
x,1/2-y,z
loop_
_atom_site_type_symbol
_atom_site_label
_atom_site_fract_x
_atom_site_fract_y
_atom_site_fract_z
Si Si1 0.826131 0.177342 0.040274
Si Si2 0.795991 0.554286 0.130786
Si Si3 0.629147 0.172907 0.199332
Si Si4 0.195548 0.867354 0.637077
Si Si5 0.668272 0.998125 0.963156
Si Si6 0.856504 0.677093 0.026080
Si Si7 0.794316 0.632580 0.371386
Si Si8 0.455232 0.092527 0.749608
O O1 0.861218 0.250000 0.064718
O O2 0.738638 0.149785 0.121914
O O3 0.985174 0.150445 0.010261
O O4 0.721362 0.175981 0.955529
O O5 0.651638 0.549745 0.191147
O O6 0.941077 0.548234 0.189684
O O7 0.776072 0.512301 0.045626
O O8 0.801643 0.627873 0.097982
O O9 0.638474 0.250000 0.206334
O O10 0.462225 0.154470 0.174636
O O11 0.682796 0.142677 0.288644
O O12 0.185366 0.938671 0.600799
O O13 0.242825 0.826062 0.553768
O O14 0.702968 0.062069 0.912606
O O15 0.500000 0.000000 0.000000
O O16 0.874992 0.750000 0.055920
O O17 0.649695 0.635676 0.310633
O O18 0.938616 0.634804 0.310846
#
# Coordination Sequence:
#
# PCOD9465286 Si02
#       8
#     8   8   8   8   8   8   8   8
#     4  10  22  41  65  92 127 166 212 263 322 388
#     4  10  21  41  61  92 121 162 206 251 316 372
#     4  11  22  39  64  94 130 168 210 266 323 388
#     4  11  24  40  62  96 128 168 216 261 325 387
#     4  11  23  42  66  91 129 165 213 267 313 388
#     4  10  20  39  63  89 123 162 205 256 313 376
#     4  11  22  43  63  92 125 169 205 261 321 370
#     4  10  22  40  64  87 126 159 205 257 312 372
#
# _framework density 21.991159
#
# number of rings (size 3 to 8) (size 9 to 14) (size 15 to 20)
#    0.000    1.500    2.500    2.625    1.750    2.500 
#    4.500    3.750    0.000    0.000    0.000    0.000 
#    0.000    0.000    0.000    0.000    0.000    0.000 
#
# Total GULP energy -357875.633134 kJ/mol
# GULP energy per Si atom -5591.806768 kJ/mol
# Density = 2.194111 g / cm^3
# Si number density = 21.991159 Si / 1000 Ang^3
#
#
#
# Elastic Constant Matrix: (Units=GPa)
#
#
# Indices 1 2 3 4 5 6 
#
# 1 98.7456 13.5489 39.3800 0.0000 0.0000 0.0000
# 2 13.5489 59.2985 25.2634 0.0000 0.0000 0.0000
# 3 39.3800 25.2634 119.3083 0.0000 0.0000 0.0000
# 4 0.0000 0.0000 0.0000 17.6384 0.0000 0.0000
# 5 0.0000 0.0000 0.0000 0.0000 45.7257 0.0000
# 6 0.0000 0.0000 0.0000 0.0000 0.0000 15.5427
#
#
#
# Elastic Compliance Matrix: (Units=1/GPa)
#
#
# Indices 1 2 3 4 5 6 
#
# 1 0.011731 -0.001133 -0.003632 0.000000 0.000000 0.000000
# 2 -0.001133 0.018645 -0.003574 0.000000 0.000000 0.000000
# 3 -0.003632 -0.003574 0.010337 0.000000 0.000000 0.000000
# 4 0.000000 0.000000 0.000000 0.056694 0.000000 0.000000
# 5 0.000000 0.000000 0.000000 0.000000 0.021870 0.000000
# 6 0.000000 0.000000 0.000000 0.000000 0.000000 0.064339
#
#
# Mechanical properties :
#
#
# Convention : Reuss Voigt Hill
#
# Bulk Modulus (GPa) = 41.60561 48.19299 44.89930
# Shear Modulus (GPa) = 24.00306 29.05871 26.53089
#
# Velocity S-wave (km/s) = 3.30735 3.63902 3.47714
# Velocity P-wave (km/s) = 5.79181 6.29436 6.04831
#
# Compressibility (1/GPa) = 0.02403522
#
# Stress axis : x y z
#
# Youngs Moduli (GPa) = 85.24428 53.63239 96.73670
#
# Poissons Ratio (x) = 0.06076 0.35136
# Poissons Ratio (y) = 0.09658 0.34576
# Poissons Ratio (z) = 0.30962 0.19169
#
# Static dielectric constant tensor:
#      x y z
#    x 1.830200 0.000000 0.000000 
#    y 0.000000 1.801530 0.000000 
#    z 0.000000 0.000000 1.814150 
# 
# From -- ./inp_files/17338.got.cif
#   From: 2010.05.17/outbox.cif.g08.bks.cpg/sg62_9_cif.got.tgz:17338.got - 2010.06.03 15:25:27.
