data_PCOD9465444
_publ_section_title
;
Structure prediction by ZEFSAII (Michael W. Deem and Ramdas Pophale) SiO2 
 PCOD9465444
Probable space group: P N M A
;
_chemical_formula_sum "Si O2"
_cell_formula_units_Z 32
_cell_length_a 12.054164
_cell_length_b 12.850085
_cell_length_c 9.572823
_cell_angle_alpha 90.000000
_cell_angle_beta 90.000000
_cell_angle_gamma 90.000000
_cell_volume 1482.801871
_symmetry_space_group_name_H-M "P N M A"
_symmetry_group_IT_number 62
_symmetry_cell_setting 'orthorhombic'
loop_
_space_group_symop_operation_xyz
x,y,z
1/2-x,-y,1/2+z
1/2+x,1/2-y,1/2-z
-x,1/2+y,-z
-x,-y,-z
1/2+x,y,1/2-z
1/2-x,1/2+y,1/2+z
x,1/2-y,z
loop_
_atom_site_type_symbol
_atom_site_label
_atom_site_fract_x
_atom_site_fract_y
_atom_site_fract_z
Si Si1 0.156284 0.461190 0.015841
Si Si2 0.885252 0.250000 0.697880
Si Si3 0.530018 0.869551 0.663723
Si Si4 0.100633 0.926306 0.533284
Si Si5 0.135761 0.250000 0.830040
O O1 0.102725 0.560066 0.940320
O O2 0.144423 0.357726 0.918660
O O3 0.282779 0.483884 0.047669
O O4 0.088845 0.427041 0.153523
O O5 0.888883 0.348015 0.594725
O O6 0.755800 0.250000 0.757262
O O7 0.007520 0.250000 0.772616
O O8 0.522625 0.750000 0.618524
O O9 0.577021 0.872678 0.818941
O O10 0.000000 0.000000 0.500000
#
# Coordination Sequence:
#
# PCOD9465444 Si02
#       5
#     8   4   8   8   4
#     4  10  24  44  69 100 135 181 227 284 348 408
#     4  10  22  43  68 100 136 183 221 287 344 410
#     4  11  23  45  72  99 137 180 230 282 346 409
#     4  11  24  44  67 100 135 175 230 282 342 411
#     4  10  20  45  68  98 144 179 229 289 344 406
#
# _framework density 21.580765
#
# number of rings (size 3 to 8) (size 9 to 14) (size 15 to 20)
#    0.000    1.500    2.500    1.500    3.500    0.000 
#   15.750    0.000    0.000    0.000    0.000    0.000 
#    0.000    0.000    0.000    0.000    0.000    0.000 
#
# Total GULP energy -178529.045143 kJ/mol
# GULP energy per Si atom -5579.032661 kJ/mol
# Density = 2.153165 g / cm^3
# Si number density = 21.580765 Si / 1000 Ang^3
#
#
#
# Elastic Constant Matrix: (Units=GPa)
#
#
# Indices 1 2 3 4 5 6 
#
# 1 186.1472 18.3547 28.9241 0.0000 0.0000 0.0000
# 2 18.3547 94.6584 6.9836 0.0000 0.0000 0.0000
# 3 28.9241 6.9836 46.5767 0.0000 0.0000 0.0000
# 4 0.0000 0.0000 0.0000 0.2063 0.0000 0.0000
# 5 0.0000 0.0000 0.0000 0.0000 24.5917 0.0000
# 6 0.0000 0.0000 0.0000 0.0000 0.0000 24.7084
#
#
#
# Elastic Compliance Matrix: (Units=1/GPa)
#
#
# Indices 1 2 3 4 5 6 
#
# 1 0.006021 -0.000902 -0.003604 0.000000 0.000000 0.000000
# 2 -0.000902 0.010817 -0.001062 0.000000 0.000000 0.000000
# 3 -0.003604 -0.001062 0.023867 0.000000 0.000000 0.000000
# 4 0.000000 0.000000 0.000000 4.847449 0.000000 0.000000
# 5 0.000000 0.000000 0.000000 0.000000 0.040664 0.000000
# 6 0.000000 0.000000 0.000000 0.000000 0.000000 0.040472
#
#
# Mechanical properties :
#
#
# Convention : Reuss Voigt Hill
#
# Bulk Modulus (GPa) = 33.81732 48.43413 41.12573
# Shear Modulus (GPa) = 1.00195 28.10927 14.55561
#
# Velocity S-wave (km/s) = 0.68212 3.61295 2.59988
# Velocity P-wave (km/s) = 4.04036 6.31637 5.30193
#
# Compressibility (1/GPa) = 0.02957064
#
# Stress axis : x y z
#
# Youngs Moduli (GPa) = 166.08627 92.44288 41.89856
#
# Poissons Ratio (x) = 0.08335 0.15100
# Poissons Ratio (y) = 0.14975 0.04450
# Poissons Ratio (z) = 0.59855 0.09818
#
# Static dielectric constant tensor:
#      x y z
#    x 1.848260 0.000000 0.000000 
#    y 0.000000 1.746300 0.000000 
#    z 0.000000 0.000000 1.804420 
# 
# From -- ./inp_files/4854.got.cif
#   From: 2010.05.17/outbox.cif.g08.bks.cpg/sg62_3_cif.got.tgz:4854.got - 2010.06.03 15:25:27.
