data_PCOD9465265
_publ_section_title
;
Structure prediction by ZEFSAII (Michael W. Deem and Ramdas Pophale) SiO2 
 PCOD9465265
Probable space group: P N M A
;
_chemical_formula_sum "Si O2"
_cell_formula_units_Z 56
_cell_length_a 19.560122
_cell_length_b 8.887791
_cell_length_c 14.599882
_cell_angle_alpha 90.000000
_cell_angle_beta 90.000000
_cell_angle_gamma 90.000000
_cell_volume 2538.135120
_symmetry_space_group_name_H-M "P N M A"
_symmetry_group_IT_number 62
_symmetry_cell_setting 'orthorhombic'
loop_
_space_group_symop_operation_xyz
x,y,z
1/2-x,-y,1/2+z
1/2+x,1/2-y,1/2-z
-x,1/2+y,-z
-x,-y,-z
1/2+x,y,1/2-z
1/2-x,1/2+y,1/2+z
x,1/2-y,z
loop_
_atom_site_type_symbol
_atom_site_label
_atom_site_fract_x
_atom_site_fract_y
_atom_site_fract_z
Si Si1 0.852927 0.571301 0.769379
Si Si2 0.933427 0.926598 0.044996
Si Si3 0.358198 0.928355 0.947435
Si Si4 0.006845 0.927587 0.787160
Si Si5 0.908297 0.427011 0.383493
Si Si6 0.786538 0.928792 0.268105
Si Si7 0.795242 0.429876 0.064975
O O1 0.838490 0.750000 0.779145
O O2 0.861761 0.540106 0.660503
O O3 0.788660 0.476855 0.803532
O O4 0.927863 0.540990 0.809167
O O5 0.932733 0.750000 0.029235
O O6 0.945197 0.968558 0.151597
O O7 0.860785 0.996609 0.017591
O O8 0.000000 0.000000 0.000000
O O9 0.368036 0.750000 0.959206
O O10 0.409556 0.014448 0.013311
O O11 0.279572 0.966280 0.974707
O O12 0.019972 0.750000 0.807632
O O13 0.025600 0.949793 0.680758
O O14 0.893722 0.250000 0.383245
O O15 0.846518 0.512799 0.332966
O O16 0.790309 0.750000 0.257247
O O17 0.793433 0.009682 0.169433
O O18 0.802505 0.250000 0.066404
#
# Coordination Sequence:
#
# PCOD9465265 Si02
#       7
#     8   8   8   8   8   8   8
#     4   9  20  40  62  85 119 162 202 249 304 355
#     4  12  25  40  62  90 121 159 200 250 307 365
#     4   9  20  37  59  87 119 155 199 249 298 348
#     4  10  22  41  63  87 120 162 205 248 303 366
#     4  11  22  36  59  88 121 160 203 248 300 361
#     4  11  21  35  59  87 115 153 199 249 301 358
#     4  10  20  39  62  84 115 153 195 246 300 356
#
# _framework density 22.063442999999999
#
# number of rings (size 3 to 8) (size 9 to 14) (size 15 to 20)
#    0.000    1.714    1.429    4.286    0.000    5.714 
#    0.000    0.000    0.000    0.000    0.000    0.000 
#    0.000    0.000    0.000    0.000    0.000    0.000 
#
# Total GULP energy -313182.938178 kJ/mol
# GULP energy per Si atom -5592.552467 kJ/mol
# Density = 2.201323 g / cm^3
# Si number density = 22.063443 Si / 1000 Ang^3
#
#
#
# Elastic Constant Matrix: (Units=GPa)
#
#
# Indices 1 2 3 4 5 6 
#
# 1 84.0991 35.0513 2.1644 0.0000 0.0000 0.0000
# 2 35.0513 67.7451 3.2188 0.0000 0.0000 0.0000
# 3 2.1644 3.2188 33.4966 0.0000 0.0000 0.0000
# 4 0.0000 0.0000 0.0000 24.0243 0.0000 0.0000
# 5 0.0000 0.0000 0.0000 0.0000 32.7828 0.0000
# 6 0.0000 0.0000 0.0000 0.0000 0.0000 26.8947
#
#
#
# Elastic Compliance Matrix: (Units=1/GPa)
#
#
# Indices 1 2 3 4 5 6 
#
# 1 0.015162 -0.007834 -0.000227 0.000000 0.000000 0.000000
# 2 -0.007834 0.018877 -0.001308 0.000000 0.000000 0.000000
# 3 -0.000227 -0.001308 0.029994 0.000000 0.000000 0.000000
# 4 0.000000 0.000000 0.000000 0.041625 0.000000 0.000000
# 5 0.000000 0.000000 0.000000 0.000000 0.030504 0.000000
# 6 0.000000 0.000000 0.000000 0.000000 0.000000 0.037182
#
#
# Mechanical properties :
#
#
# Convention : Reuss Voigt Hill
#
# Bulk Modulus (GPa) = 22.07731 29.57887 25.82809
# Shear Modulus (GPa) = 24.13381 26.40076 25.26729
#
# Velocity S-wave (km/s) = 3.31091 3.46292 3.38777
# Velocity P-wave (km/s) = 4.96429 5.42443 5.19945
#
# Compressibility (1/GPa) = 0.04529538
#
# Stress axis : x y z
#
# Youngs Moduli (GPa) = 65.95612 52.97569 33.33985
#
# Poissons Ratio (x) = 0.41500 0.00756
# Poissons Ratio (y) = 0.51669 0.04360
# Poissons Ratio (z) = 0.01496 0.06928
#
# Static dielectric constant tensor:
#      x y z
#    x 1.819890 0.000000 0.000000 
#    y 0.000000 1.730160 0.000000 
#    z 0.000000 0.000000 1.891420 
# 
# From -- ./inp_files/20240.got.cif
#   From: 2010.05.17/outbox.cif.g08.bks.cpg/sg62_11_cif.got.tgz:20240.got - 2010.06.03 15:25:27.
