data_PCOD9465363
_publ_section_title
;
Structure prediction by ZEFSAII (Michael W. Deem and Ramdas Pophale) SiO2 
 PCOD9465363
Probable space group: P N M A
;
_chemical_formula_sum "Si O2"
_cell_formula_units_Z 64
_cell_length_a 23.661548
_cell_length_b 14.843463
_cell_length_c 8.565200
_cell_angle_alpha 90.000000
_cell_angle_beta 90.000000
_cell_angle_gamma 90.000000
_cell_volume 3008.263653
_symmetry_space_group_name_H-M "P N M A"
_symmetry_group_IT_number 62
_symmetry_cell_setting 'orthorhombic'
loop_
_space_group_symop_operation_xyz
x,y,z
1/2-x,-y,1/2+z
1/2+x,1/2-y,1/2-z
-x,1/2+y,-z
-x,-y,-z
1/2+x,y,1/2-z
1/2-x,1/2+y,1/2+z
x,1/2-y,z
loop_
_atom_site_type_symbol
_atom_site_label
_atom_site_fract_x
_atom_site_fract_y
_atom_site_fract_z
Si Si1 0.866773 0.576769 0.039909
Si Si2 0.782736 0.152288 0.777223
Si Si3 0.308163 0.977246 0.145827
Si Si4 0.916888 0.503840 0.536647
Si Si5 0.509577 0.391692 0.476927
Si Si6 0.096375 0.594189 0.142867
Si Si7 0.752788 0.852900 0.914498
Si Si8 0.007774 0.855725 0.612439
O O1 0.880497 0.475606 0.985457
O O2 0.818542 0.618663 0.928647
O O3 0.926714 0.627522 0.031676
O O4 0.841473 0.568813 0.212132
O O5 0.759986 0.250000 0.820363
O O6 0.749034 0.078817 0.876100
O O7 0.849329 0.148632 0.802827
O O8 0.769968 0.138978 0.593419
O O9 0.285390 0.077361 0.180855
O O10 0.352100 0.977901 0.004493
O O11 0.922546 0.466842 0.711194
O O12 0.940023 0.422264 0.428705
O O13 0.955741 0.592905 0.525625
O O14 0.500000 0.500000 0.500000
O O15 0.457756 0.354052 0.577940
O O16 0.502846 0.363210 0.297763
O O17 0.747487 0.750000 0.863804
O O18 0.014715 0.750000 0.570393
#
# Coordination Sequence:
#
# PCOD9465363 Si02
#       8
#     8   8   8   8   8   8   8   8
#     4  10  21  38  63  94 124 166 215 266 323 386
#     4  10  22  40  62  92 127 165 213 267 323 386
#     4  11  22  39  68  92 129 168 217 272 325 391
#     4  11  23  41  69  95 129 179 216 269 332 395
#     4  10  20  40  65  92 123 168 212 267 323 385
#     4  11  20  39  69  88 127 168 217 260 331 395
#     4  10  21  39  63  91 125 169 215 262 319 385
#     4  11  25  43  65  98 136 171 220 275 323 388
#
# _framework density 21.274730999999999
#
# number of rings (size 3 to 8) (size 9 to 14) (size 15 to 20)
#    0.000    1.500    5.000    1.500    1.750    2.500 
#    0.000    0.625    0.000    0.000    0.000    0.000 
#    0.000    0.000    0.000    0.000    0.000    0.000 
#
# Total GULP energy -357245.670565 kJ/mol
# GULP energy per Si atom -5581.963603 kJ/mol
# Density = 2.122631 g / cm^3
# Si number density = 21.274731 Si / 1000 Ang^3
#
#
#
# Elastic Constant Matrix: (Units=GPa)
#
#
# Indices 1 2 3 4 5 6 
#
# 1 127.0018 15.4906 21.1015 0.0000 0.0000 0.0000
# 2 15.4906 98.2636 1.5618 0.0000 0.0000 0.0000
# 3 21.1015 1.5618 38.2749 0.0000 0.0000 0.0000
# 4 0.0000 0.0000 0.0000 17.3468 0.0000 0.0000
# 5 0.0000 0.0000 0.0000 0.0000 14.9994 0.0000
# 6 0.0000 0.0000 0.0000 0.0000 0.0000 2.7297
#
#
#
# Elastic Compliance Matrix: (Units=1/GPa)
#
#
# Indices 1 2 3 4 5 6 
#
# 1 0.008835 -0.001316 -0.004817 0.000000 0.000000 0.000000
# 2 -0.001316 0.010379 0.000302 0.000000 0.000000 0.000000
# 3 -0.004817 0.000302 0.028770 0.000000 0.000000 0.000000
# 4 0.000000 0.000000 0.000000 0.057648 0.000000 0.000000
# 5 0.000000 0.000000 0.000000 0.000000 0.066669 0.000000
# 6 0.000000 0.000000 0.000000 0.000000 0.000000 0.366339
#
#
# Mechanical properties :
#
#
# Convention : Reuss Voigt Hill
#
# Bulk Modulus (GPa) = 27.53148 37.76091 32.64619
# Shear Modulus (GPa) = 8.89031 22.04093 15.46562
#
# Velocity S-wave (km/s) = 2.04643 3.22221 2.69912
# Velocity P-wave (km/s) = 4.30730 5.62416 5.00920
#
# Compressibility (1/GPa) = 0.03632206
#
# Stress axis : x y z
#
# Youngs Moduli (GPa) = 113.18881 96.34472 34.75827
#
# Poissons Ratio (x) = 0.12681 0.16743
# Poissons Ratio (y) = 0.14898 -0.01050
# Poissons Ratio (z) = 0.54523 -0.02910
#
# Static dielectric constant tensor:
#      x y z
#    x 1.796930 0.000000 0.000000 
#    y 0.000000 1.785870 0.000000 
#    z 0.000000 0.000000 1.783220 
# 
# From -- ./inp_files/9524.got.cif
#   From: 2010.05.17/outbox.cif.g08.bks.cpg/sg62_5_cif.got.tgz:9524.got - 2010.06.03 15:25:27.
