data_PCOD9465195
_publ_section_title
;
Structure prediction by ZEFSAII (Michael W. Deem and Ramdas Pophale) SiO2 
 PCOD9465195
Probable space group: P N M A
;
_chemical_formula_sum "Si O2"
_cell_formula_units_Z 32
_cell_length_a 8.774838
_cell_length_b 18.827616
_cell_length_c 10.358096
_cell_angle_alpha 90.000000
_cell_angle_beta 90.000000
_cell_angle_gamma 90.000000
_cell_volume 1711.253586
_symmetry_space_group_name_H-M "P N M A"
_symmetry_group_IT_number 62
_symmetry_cell_setting 'orthorhombic'
loop_
_space_group_symop_operation_xyz
x,y,z
1/2-x,-y,1/2+z
1/2+x,1/2-y,1/2-z
-x,1/2+y,-z
-x,-y,-z
1/2+x,y,1/2-z
1/2-x,1/2+y,1/2+z
x,1/2-y,z
loop_
_atom_site_type_symbol
_atom_site_label
_atom_site_fract_x
_atom_site_fract_y
_atom_site_fract_z
Si Si1 0.072209 0.975657 0.866840
Si Si2 0.890045 0.331708 0.449326
Si Si3 0.423850 0.667713 0.706813
Si Si4 0.407759 0.033819 0.882428
O O1 0.029347 0.893106 0.852886
O O2 0.249213 0.993144 0.867235
O O3 0.998883 0.019734 0.748621
O O4 0.000000 0.000000 0.000000
O O5 0.883208 0.250000 0.491542
O O6 0.745018 0.343485 0.352431
O O7 0.882376 0.385807 0.568118
O O8 0.041286 0.340781 0.360071
O O9 0.465845 0.750000 0.678002
O O10 0.500000 0.000000 0.000000
#
# Coordination Sequence:
#
# PCOD9465195 Si02
#       4
#     8   8   8   8
#     4  12  23  40  63  96 126 164 208 257 322 373
#     4  10  21  39  62  93 127 166 209 262 318 374
#     4  10  20  38  64  93 124 159 209 259 310 373
#     4  12  24  41  63  91 129 163 211 265 311 381
#
# _framework density 18.699741
#
# number of rings (size 3 to 8) (size 9 to 14) (size 15 to 20)
#    0.000    1.000    5.000    3.000    0.000    0.000 
#    0.000    2.500    0.000    0.000    0.000    0.000 
#    0.000    0.000    0.000    0.000    0.000    0.000 
#
# Total GULP energy -178597.223639 kJ/mol
# GULP energy per Si atom -5581.163239 kJ/mol
# Density = 1.865718 g / cm^3
# Si number density = 18.699741 Si / 1000 Ang^3
#
#
#
# Elastic Constant Matrix: (Units=GPa)
#
#
# Indices 1 2 3 4 5 6 
#
# 1 117.7610 47.1052 56.5333 0.0000 0.0000 0.0000
# 2 47.1052 140.0431 61.9709 0.0000 0.0000 0.0000
# 3 56.5333 61.9709 129.7770 0.0000 0.0000 0.0000
# 4 0.0000 0.0000 0.0000 40.4094 0.0000 0.0000
# 5 0.0000 0.0000 0.0000 0.0000 37.6701 0.0000
# 6 0.0000 0.0000 0.0000 0.0000 0.0000 23.8427
#
#
#
# Elastic Compliance Matrix: (Units=1/GPa)
#
#
# Indices 1 2 3 4 5 6 
#
# 1 0.011177 -0.002035 -0.003897 0.000000 0.000000 0.000000
# 2 -0.002035 0.009424 -0.003614 0.000000 0.000000 0.000000
# 3 -0.003897 -0.003614 0.011129 0.000000 0.000000 0.000000
# 4 0.000000 0.000000 0.000000 0.024747 0.000000 0.000000
# 5 0.000000 0.000000 0.000000 0.000000 0.026546 0.000000
# 6 0.000000 0.000000 0.000000 0.000000 0.000000 0.041941
#
#
# Mechanical properties :
#
#
# Convention : Reuss Voigt Hill
#
# Bulk Modulus (GPa) = 79.12532 79.86664 79.49598
# Shear Modulus (GPa) = 33.72263 35.18256 34.45259
#
# Velocity S-wave (km/s) = 4.25122 4.34227 4.29699
# Velocity P-wave (km/s) = 8.15491 8.24276 8.19896
#
# Compressibility (1/GPa) = 0.01263818
#
# Stress axis : x y z
#
# Youngs Moduli (GPa) = 89.47273 106.10884 89.85683
#
# Poissons Ratio (x) = 0.21592 0.35017
# Poissons Ratio (y) = 0.18207 0.32473
# Poissons Ratio (z) = 0.34868 0.38346
#
# Static dielectric constant tensor:
#      x y z
#    x 1.688780 0.000000 0.000000 
#    y 0.000000 1.675500 0.000000 
#    z 0.000000 0.000000 1.620820 
# 
# From -- ./inp_files/4112.got.cif
#   From: 2010.05.17/outbox.cif.g08.bks.cpg/sg62_3_cif.got.tgz:4112.got - 2010.06.03 15:25:27.
