data_PCOD9465062
_publ_section_title
;
Structure prediction by ZEFSAII (Michael W. Deem and Ramdas Pophale) SiO2 
 PCOD9465062
Probable space group: P N M A
;
_chemical_formula_sum "Si O2"
_cell_formula_units_Z 60
_cell_length_a 9.113931
_cell_length_b 16.685263
_cell_length_c 20.072341
_cell_angle_alpha 90.000000
_cell_angle_beta 90.000000
_cell_angle_gamma 90.000000
_cell_volume 3052.367489
_symmetry_space_group_name_H-M "P N M A"
_symmetry_group_IT_number 62
_symmetry_cell_setting 'orthorhombic'
loop_
_space_group_symop_operation_xyz
x,y,z
1/2-x,-y,1/2+z
1/2+x,1/2-y,1/2-z
-x,1/2+y,-z
-x,-y,-z
1/2+x,y,1/2-z
1/2-x,1/2+y,1/2+z
x,1/2-y,z
loop_
_atom_site_type_symbol
_atom_site_label
_atom_site_fract_x
_atom_site_fract_y
_atom_site_fract_z
Si Si1 0.668337 0.750000 0.319624
Si Si2 0.222324 0.344328 0.220124
Si Si3 0.957007 0.844046 0.659303
Si Si4 0.631924 0.843660 0.107524
Si Si5 0.876172 0.904508 0.298973
Si Si6 0.830625 0.526498 0.879781
Si Si7 0.077656 0.922029 0.528554
Si Si8 0.549788 0.101039 0.648911
O O1 0.784983 0.821370 0.296299
O O2 0.553501 0.679085 0.344678
O O3 0.184810 0.250000 0.215317
O O4 0.393695 0.352200 0.202646
O O5 0.137398 0.395920 0.165017
O O6 0.175098 0.371768 0.293581
O O7 0.938108 0.750000 0.643845
O O8 0.985581 0.890175 0.591301
O O9 0.625119 0.750000 0.124713
O O10 0.518969 0.888599 0.156049
O O11 0.794709 0.875683 0.118551
O O12 0.587032 0.858758 0.031204
O O13 0.778703 0.971637 0.334772
O O14 0.922824 0.927788 0.224821
O O15 0.737931 0.554791 0.943328
O O16 0.968210 0.469227 0.891189
O O17 0.000000 0.000000 0.500000
#
# Coordination Sequence:
#
# PCOD9465062 Si02
#       8
#     4   8   8   8   8   8   8   8
#     4  10  20  38  58  88 136 158 200 256 314 368
#     4   9  19  37  64  90 122 154 196 262 329 377
#     4   9  19  38  64  92 118 153 204 259 313 377
#     4  12  24  40  65  91 121 173 223 250 310 385
#     4  11  22  37  63  93 125 166 206 261 315 376
#     4  10  23  40  60  92 128 159 208 264 320 379
#     4  11  23  41  60  86 124 170 216 254 308 383
#     4  11  24  37  62  97 129 164 204 269 323 369
#
# _framework density 19.656873000000001
#
# number of rings (size 3 to 8) (size 9 to 14) (size 15 to 20)
#    0.000    1.600    2.667    2.400    5.600    2.133 
#    0.000    0.000    0.000    0.000    6.933    0.000 
#    0.000    0.000    0.000    0.000    0.000    0.000 
#
# Total GULP energy -334194.689549 kJ/mol
# GULP energy per Si atom -5569.911492 kJ/mol
# Density = 1.961213 g / cm^3
# Si number density = 19.656873 Si / 1000 Ang^3
#
#
#
# Elastic Constant Matrix: (Units=GPa)
#
#
# Indices 1 2 3 4 5 6 
#
# 1 40.9055 13.3094 22.8356 0.0000 0.0000 0.0000
# 2 13.3094 46.3500 7.2752 0.0000 0.0000 0.0000
# 3 22.8356 7.2752 84.9861 0.0000 0.0000 0.0000
# 4 0.0000 0.0000 0.0000 26.0024 0.0000 0.0000
# 5 0.0000 0.0000 0.0000 0.0000 29.8097 0.0000
# 6 0.0000 0.0000 0.0000 0.0000 0.0000 25.5278
#
#
#
# Elastic Compliance Matrix: (Units=1/GPa)
#
#
# Indices 1 2 3 4 5 6 
#
# 1 0.031299 -0.007772 -0.007745 0.000000 0.000000 0.000000
# 2 -0.007772 0.023799 0.000051 0.000000 0.000000 0.000000
# 3 -0.007745 0.000051 0.013843 0.000000 0.000000 0.000000
# 4 0.000000 0.000000 0.000000 0.038458 0.000000 0.000000
# 5 0.000000 0.000000 0.000000 0.000000 0.033546 0.000000
# 6 0.000000 0.000000 0.000000 0.000000 0.000000 0.039173
#
#
# Mechanical properties :
#
#
# Convention : Reuss Voigt Hill
#
# Bulk Modulus (GPa) = 26.30901 28.78686 27.54794
# Shear Modulus (GPa) = 22.34951 24.85608 23.60280
#
# Velocity S-wave (km/s) = 3.37557 3.55984 3.46893
# Velocity P-wave (km/s) = 5.34844 5.61899 5.48539
#
# Compressibility (1/GPa) = 0.03800979
#
# Stress axis : x y z
#
# Youngs Moduli (GPa) = 31.95014 42.01919 72.23751
#
# Poissons Ratio (x) = 0.32657 0.55945
# Poissons Ratio (y) = 0.24831 -0.00368
# Poissons Ratio (z) = 0.24744 -0.00214
#
# Static dielectric constant tensor:
#      x y z
#    x 1.705210 0.000000 0.000000 
#    y 0.000000 1.697330 0.000000 
#    z 0.000000 0.000000 1.686400 
# 
# From -- ./inp_files/22457.got.cif
#   From: 2010.05.17/outbox.cif.g08.bks.cpg/sg62_12_cif.got.tgz:22457.got - 2010.06.03 15:25:27.
