data_PCOD9465312
_publ_section_title
;
Structure prediction by ZEFSAII (Michael W. Deem and Ramdas Pophale) SiO2 
 PCOD9465312
Probable space group: P N M A
;
_chemical_formula_sum "Si O2"
_cell_formula_units_Z 48
_cell_length_a 10.303903
_cell_length_b 8.861950
_cell_length_c 27.996958
_cell_angle_alpha 90.000000
_cell_angle_beta 90.000000
_cell_angle_gamma 90.000000
_cell_volume 2556.477076
_symmetry_space_group_name_H-M "P N M A"
_symmetry_group_IT_number 62
_symmetry_cell_setting 'orthorhombic'
loop_
_space_group_symop_operation_xyz
x,y,z
1/2-x,-y,1/2+z
1/2+x,1/2-y,1/2-z
-x,1/2+y,-z
-x,-y,-z
1/2+x,y,1/2-z
1/2-x,1/2+y,1/2+z
x,1/2-y,z
loop_
_atom_site_type_symbol
_atom_site_label
_atom_site_fract_x
_atom_site_fract_y
_atom_site_fract_z
Si Si1 0.897862 0.931826 0.963257
Si Si2 0.746522 0.431958 0.679377
Si Si3 0.101347 0.930900 0.537039
Si Si4 0.528333 0.431311 0.861347
Si Si5 0.018193 0.430695 0.143647
Si Si6 0.761837 0.431385 0.790314
O O1 0.904565 0.750000 0.965645
O O2 0.749697 0.977072 0.974217
O O3 0.932607 0.977157 0.909003
O O4 0.000000 0.000000 0.000000
O O5 0.732081 0.250000 0.677502
O O6 0.883409 0.471149 0.655162
O O7 0.624718 0.506823 0.653698
O O8 0.750105 0.476666 0.735142
O O9 0.094816 0.750000 0.535280
O O10 0.000000 0.000000 0.500000
O O11 0.067578 0.987188 0.590059
O O12 0.532928 0.250000 0.868668
O O13 0.631909 0.468163 0.819946
O O14 0.018352 0.250000 0.145708
O O15 0.116850 0.494788 0.183028
O O16 0.778866 0.250000 0.791352
#
# Coordination Sequence:
#
# PCOD9465312 Si02
#       6
#     8   8   8   8   8   8
#     4  10  24  43  63  88 120 156 197 247 299 358
#     4  10  22  39  61  91 124 160 205 249 290 349
#     4  11  24  43  64  89 121 155 197 248 302 360
#     4  10  21  38  62  91 121 158 202 246 299 353
#     4  11  23  40  60  90 126 159 199 245 301 358
#     4  10  20  39  65  89 119 161 205 248 295 350
#
# _framework density 18.775838
#
# number of rings (size 3 to 8) (size 9 to 14) (size 15 to 20)
#    0.000    1.667    1.667    2.000    2.333    6.667 
#    0.000    1.667    0.000    0.000    0.000    0.000 
#    0.000    0.000    0.000    0.000    0.000    0.000 
#
# Total GULP energy -268305.993658 kJ/mol
# GULP energy per Si atom -5589.708201 kJ/mol
# Density = 1.873310 g / cm^3
# Si number density = 18.775838 Si / 1000 Ang^3
#
#
#
# Elastic Constant Matrix: (Units=GPa)
#
#
# Indices 1 2 3 4 5 6 
#
# 1 190.4544 50.3686 72.8418 0.0000 0.0000 0.0000
# 2 50.3686 22.2870 32.5752 0.0000 0.0000 0.0000
# 3 72.8418 32.5752 104.4431 0.0000 0.0000 0.0000
# 4 0.0000 0.0000 0.0000 30.6329 0.0000 0.0000
# 5 0.0000 0.0000 0.0000 0.0000 40.9473 0.0000
# 6 0.0000 0.0000 0.0000 0.0000 0.0000 30.8597
#
#
#
# Elastic Compliance Matrix: (Units=1/GPa)
#
#
# Indices 1 2 3 4 5 6 
#
# 1 0.013053 -0.029761 0.000179 0.000000 0.000000 0.000000
# 2 -0.029761 0.150315 -0.026126 0.000000 0.000000 0.000000
# 3 0.000179 -0.026126 0.017599 0.000000 0.000000 0.000000
# 4 0.000000 0.000000 0.000000 0.032645 0.000000 0.000000
# 5 0.000000 0.000000 0.000000 0.000000 0.024422 0.000000
# 6 0.000000 0.000000 0.000000 0.000000 0.000000 0.032405
#
#
# Mechanical properties :
#
#
# Convention : Reuss Voigt Hill
#
# Bulk Modulus (GPa) = 14.37817 69.86175 42.11996
# Shear Modulus (GPa) = 12.34452 31.24790 21.79621
#
# Velocity S-wave (km/s) = 2.56690 4.08396 3.41084
# Velocity P-wave (km/s) = 4.05706 7.71540 6.16389
#
# Compressibility (1/GPa) = 0.06954990
#
# Stress axis : x y z
#
# Youngs Moduli (GPa) = 76.61082 6.65269 56.82267
#
# Poissons Ratio (x) = 0.19799 -0.01015
# Poissons Ratio (y) = 2.28000 1.48457
# Poissons Ratio (z) = -0.01369 0.17381
#
# Static dielectric constant tensor:
#      x y z
#    x 1.624660 0.000000 0.000000 
#    y 0.000000 1.632510 0.000000 
#    z 0.000000 0.000000 1.618850 
# 
# From -- ./inp_files/31983.got.cif
#   From: 2010.05.17/outbox.cif.g08.bks.cpg/sg62_16_cif.got.tgz:31983.got - 2010.06.03 15:25:27.
