data_PCOD9465988
_publ_section_title
;
Structure prediction by ZEFSAII (Michael W. Deem and Ramdas Pophale) SiO2 
 PCOD9465988
Probable space group: P N M A
;
_chemical_formula_sum "Si O2"
_cell_formula_units_Z 56
_cell_length_a 8.554106
_cell_length_b 20.206178
_cell_length_c 14.538108
_cell_angle_alpha 90.000000
_cell_angle_beta 90.000000
_cell_angle_gamma 90.000000
_cell_volume 2512.850740
_symmetry_space_group_name_H-M "P N M A"
_symmetry_group_IT_number 62
_symmetry_cell_setting 'orthorhombic'
loop_
_space_group_symop_operation_xyz
x,y,z
1/2-x,-y,1/2+z
1/2+x,1/2-y,1/2-z
-x,1/2+y,-z
-x,-y,-z
1/2+x,y,1/2-z
1/2-x,1/2+y,1/2+z
x,1/2-y,z
loop_
_atom_site_type_symbol
_atom_site_label
_atom_site_fract_x
_atom_site_fract_y
_atom_site_fract_z
Si Si1 0.044538 0.326394 0.046384
Si Si2 0.717717 0.526634 0.190782
Si Si3 0.241504 0.084930 0.175504
Si Si4 0.443361 0.557900 0.930582
Si Si5 0.443455 0.616966 0.214652
Si Si6 0.865258 0.324675 0.865818
Si Si7 0.287237 0.825504 0.857783
O O1 0.106653 0.250000 0.040041
O O2 0.891982 0.323855 0.110526
O O3 0.161695 0.379818 0.088790
O O4 0.976232 0.347769 0.947856
O O5 0.678835 0.484276 0.282909
O O6 0.716145 0.473498 0.110797
O O7 0.580563 0.577513 0.165079
O O8 0.871185 0.566861 0.210797
O O9 0.417544 0.066423 0.144598
O O10 0.216358 0.136888 0.259372
O O11 0.387317 0.634549 0.935697
O O12 0.500000 0.500000 0.000000
O O13 0.531698 0.672731 0.272728
O O14 0.294947 0.636852 0.154408
O O15 0.821105 0.250000 0.889460
O O16 0.344522 0.750000 0.847829
#
# Coordination Sequence:
#
# PCOD9465988 Si02
#       7
#     8   8   8   8   8   8   8
#     4  10  23  40  63  96 127 162 213 268 318 382
#     4  10  21  39  57  89 122 165 209 256 317 388
#     4  11  22  40  63  93 130 173 220 266 325 396
#     4  11  25  38  61  95 135 170 220 276 338 394
#     4  10  21  38  64  84 122 163 203 261 326 384
#     4  10  22  41  64  91 120 161 216 266 323 388
#     4  10  22  42  68  95 133 181 223 276 339 403
#
# _framework density 22.285444999999999
#
# number of rings (size 3 to 8) (size 9 to 14) (size 15 to 20)
#    0.000    1.714    1.429    2.571    6.000    2.286 
#    0.000    3.571    0.000    0.000    0.000    0.000 
#    0.000    0.000    0.000    0.000    0.000    0.000 
#
# Total GULP energy -311886.893998 kJ/mol
# GULP energy per Si atom -5569.408821 kJ/mol
# Density = 2.223472 g / cm^3
# Si number density = 22.285445 Si / 1000 Ang^3
#
#
#
# Elastic Constant Matrix: (Units=GPa)
#
#
# Indices 1 2 3 4 5 6 
#
# 1 41.8714 21.9516 -1.2531 0.0000 0.0000 0.0000
# 2 21.9516 101.1067 19.9867 0.0000 0.0000 0.0000
# 3 -1.2531 19.9867 55.6181 0.0000 0.0000 0.0000
# 4 0.0000 0.0000 0.0000 29.8902 0.0000 0.0000
# 5 0.0000 0.0000 0.0000 0.0000 26.5843 0.0000
# 6 0.0000 0.0000 0.0000 0.0000 0.0000 24.9433
#
#
#
# Elastic Compliance Matrix: (Units=1/GPa)
#
#
# Indices 1 2 3 4 5 6 
#
# 1 0.027397 -0.006535 0.002966 0.000000 0.000000 0.000000
# 2 -0.006535 0.012205 -0.004533 0.000000 0.000000 0.000000
# 3 0.002966 -0.004533 0.019676 0.000000 0.000000 0.000000
# 4 0.000000 0.000000 0.000000 0.033456 0.000000 0.000000
# 5 0.000000 0.000000 0.000000 0.000000 0.037616 0.000000
# 6 0.000000 0.000000 0.000000 0.000000 0.000000 0.040091
#
#
# Mechanical properties :
#
#
# Convention : Reuss Voigt Hill
#
# Bulk Modulus (GPa) = 23.21606 31.10739 27.16173
# Shear Modulus (GPa) = 24.87516 26.81096 25.84306
#
# Velocity S-wave (km/s) = 3.34459 3.47229 3.40904
# Velocity P-wave (km/s) = 5.03540 5.48313 5.26403
#
# Compressibility (1/GPa) = 0.04307363
#
# Stress axis : x y z
#
# Youngs Moduli (GPa) = 36.50004 81.93080 50.82421
#
# Poissons Ratio (x) = 0.53538 -0.15072
# Poissons Ratio (y) = 0.23851 0.23040
# Poissons Ratio (z) = -0.10824 0.37142
#
# Static dielectric constant tensor:
#      x y z
#    x 1.812400 0.000000 0.000000 
#    y 0.000000 1.873130 0.000000 
#    z 0.000000 0.000000 1.922590 
# 
# From -- ./inp_files/17222.got.cif
#   From: 2010.05.17/outbox.cif.g08.bks.cpg/sg62_9_cif.got.tgz:17222.got - 2010.06.03 15:25:27.
