data_PCOD9465371
_publ_section_title
;
Structure prediction by ZEFSAII (Michael W. Deem and Ramdas Pophale) SiO2 
 PCOD9465371
Probable space group: P N M A
;
_chemical_formula_sum "Si O2"
_cell_formula_units_Z 36
_cell_length_a 9.834182
_cell_length_b 20.673303
_cell_length_c 6.744134
_cell_angle_alpha 90.000000
_cell_angle_beta 90.000000
_cell_angle_gamma 90.000000
_cell_volume 1371.116326
_symmetry_space_group_name_H-M "P N M A"
_symmetry_group_IT_number 62
_symmetry_cell_setting 'orthorhombic'
loop_
_space_group_symop_operation_xyz
x,y,z
1/2-x,-y,1/2+z
1/2+x,1/2-y,1/2-z
-x,1/2+y,-z
-x,-y,-z
1/2+x,y,1/2-z
1/2-x,1/2+y,1/2+z
x,1/2-y,z
loop_
_atom_site_type_symbol
_atom_site_label
_atom_site_fract_x
_atom_site_fract_y
_atom_site_fract_z
Si Si1 0.469318 0.842288 0.773956
Si Si2 0.958904 0.173588 0.744447
Si Si3 0.707715 0.405210 0.620985
Si Si4 0.090232 0.531227 0.671813
Si Si5 0.713698 0.750000 0.709143
O O1 0.490762 0.917596 0.724456
O O2 0.595597 0.805021 0.679746
O O3 0.328303 0.805979 0.745384
O O4 0.492897 0.833909 0.014257
O O5 0.928708 0.250000 0.770595
O O6 0.083788 0.145908 0.871574
O O7 0.824043 0.129708 0.756384
O O8 0.789847 0.426967 0.426756
O O9 0.650729 0.472218 0.706662
O O10 0.000000 0.500000 0.500000
#
# Coordination Sequence:
#
# PCOD9465371 Si02
#       5
#     8   8   8   8   4
#     4  10  22  39  69  94 139 170 233 281 336 401
#     4  11  22  45  67  99 138 177 227 288 336 410
#     4  11  24  43  76  99 136 189 224 286 349 397
#     4  11  24  46  70 100 142 176 229 289 337 410
#     4  10  20  40  66  96 126 190 214 272 348 388
#
# _framework density 26.255977000000001
#
# number of rings (size 3 to 8) (size 9 to 14) (size 15 to 20)
#    0.000    1.333    6.667    0.667    3.111    0.889 
#    0.000    8.889    0.000    0.000    0.000    0.000 
#    0.000    0.000    0.000    0.000    0.000    0.000 
#
# Total GULP energy -200777.146580 kJ/mol
# GULP energy per Si atom -5577.142961 kJ/mol
# Density = 2.619622 g / cm^3
# Si number density = 26.255977 Si / 1000 Ang^3
#
#
#
# Elastic Constant Matrix: (Units=GPa)
#
#
# Indices 1 2 3 4 5 6 
#
# 1 230.5849 83.1478 4.2794 0.0000 0.0000 0.0000
# 2 83.1478 205.1222 15.2602 0.0000 0.0000 0.0000
# 3 4.2794 15.2602 55.8736 0.0000 0.0000 0.0000
# 4 0.0000 0.0000 0.0000 32.6422 0.0000 0.0000
# 5 0.0000 0.0000 0.0000 0.0000 22.9637 0.0000
# 6 0.0000 0.0000 0.0000 0.0000 0.0000 76.5944
#
#
#
# Elastic Compliance Matrix: (Units=1/GPa)
#
#
# Indices 1 2 3 4 5 6 
#
# 1 0.005081 -0.002073 0.000177 0.000000 0.000000 0.000000
# 2 -0.002073 0.005822 -0.001431 0.000000 0.000000 0.000000
# 3 0.000177 -0.001431 0.018275 0.000000 0.000000 0.000000
# 4 0.000000 0.000000 0.000000 0.030635 0.000000 0.000000
# 5 0.000000 0.000000 0.000000 0.000000 0.043547 0.000000
# 6 0.000000 0.000000 0.000000 0.000000 0.000000 0.013056
#
#
# Mechanical properties :
#
#
# Convention : Reuss Voigt Hill
#
# Bulk Modulus (GPa) = 44.39815 77.43949 60.91882
# Shear Modulus (GPa) = 38.29136 52.36628 45.32882
#
# Velocity S-wave (km/s) = 3.82303 4.47077 4.15953
# Velocity P-wave (km/s) = 6.03604 7.49723 6.80596
#
# Compressibility (1/GPa) = 0.02252346
#
# Stress axis : x y z
#
# Youngs Moduli (GPa) = 196.81390 171.76713 54.71988
#
# Poissons Ratio (x) = 0.35603 -0.00968
# Poissons Ratio (y) = 0.40795 0.07832
# Poissons Ratio (z) = -0.03483 0.24585
#
# Static dielectric constant tensor:
#      x y z
#    x 2.162040 0.000000 0.000000 
#    y 0.000000 2.028440 0.000000 
#    z 0.000000 0.000000 2.391720 
# 
# From -- ./inp_files/4193.got.cif
#   From: 2010.05.17/outbox.cif.g08.bks.cpg/sg62_3_cif.got.tgz:4193.got - 2010.06.03 15:25:27.
