data_PCOD9465914
_publ_section_title
;
Structure prediction by ZEFSAII (Michael W. Deem and Ramdas Pophale) SiO2 
 PCOD9465914
Probable space group: P N M A
;
_chemical_formula_sum "Si O2"
_cell_formula_units_Z 64
_cell_length_a 23.831605
_cell_length_b 15.336995
_cell_length_c 8.644850
_cell_angle_alpha 90.000000
_cell_angle_beta 90.000000
_cell_angle_gamma 90.000000
_cell_volume 3159.737686
_symmetry_space_group_name_H-M "P N M A"
_symmetry_group_IT_number 62
_symmetry_cell_setting 'orthorhombic'
loop_
_space_group_symop_operation_xyz
x,y,z
1/2-x,-y,1/2+z
1/2+x,1/2-y,1/2-z
-x,1/2+y,-z
-x,-y,-z
1/2+x,y,1/2-z
1/2-x,1/2+y,1/2+z
x,1/2-y,z
loop_
_atom_site_type_symbol
_atom_site_label
_atom_site_fract_x
_atom_site_fract_y
_atom_site_fract_z
Si Si1 0.983276 0.353843 0.081793
Si Si2 0.494984 0.906633 0.919843
Si Si3 0.391982 0.154197 0.959855
Si Si4 0.367403 0.351423 0.597353
Si Si5 0.310900 0.013972 0.094133
Si Si6 0.806974 0.987146 0.040353
Si Si7 0.621716 0.349305 0.954716
Si Si8 0.401895 0.648578 0.410640
O O1 0.985245 0.250000 0.120503
O O2 0.989542 0.406913 0.239562
O O3 0.035987 0.372472 0.971129
O O4 0.924556 0.369628 0.997184
O O5 0.542079 0.849819 0.005595
O O6 0.432556 0.870321 0.942299
O O7 0.500000 0.000000 0.000000
O O8 0.370638 0.250000 0.003009
O O9 0.360626 0.080822 0.056929
O O10 0.380423 0.139747 0.779033
O O11 0.351307 0.250000 0.569182
O O12 0.322769 0.423004 0.545138
O O13 0.303885 0.003934 0.276811
O O14 0.330241 0.921056 0.023910
O O15 0.253014 0.044530 0.019284
O O16 0.856147 0.916267 0.017337
O O17 0.640222 0.250000 0.979006
O O18 0.602020 0.358694 0.775391
O O19 0.390164 0.750000 0.449695
#
# Coordination Sequence:
#
# PCOD9465914 Si02
#       8
#     8   8   8   8   8   8   8   8
#     4  10  21  38  60  91 125 156 200 249 301 365
#     4  12  23  35  59  94 128 157 195 244 304 370
#     4  11  23  42  64  88 124 163 204 252 305 365
#     4  10  23  41  64  91 121 163 206 253 308 361
#     4  11  24  42  61  93 119 163 208 252 308 361
#     4  11  24  40  64  87 126 158 204 260 301 364
#     4  10  21  41  63  86 121 160 200 247 302 364
#     4   9  21  40  63  89 118 159 203 247 303 361
#
# _framework density 20.254845
#
# number of rings (size 3 to 8) (size 9 to 14) (size 15 to 20)
#    0.000    1.500    1.250    3.375    3.500    6.000 
#    0.000    2.500    0.000    0.000    0.000    0.000 
#    0.000    0.000    0.000    0.000    0.000    0.000 
#
# Total GULP energy -357917.935020 kJ/mol
# GULP energy per Si atom -5592.467735 kJ/mol
# Density = 2.020874 g / cm^3
# Si number density = 20.254845 Si / 1000 Ang^3
#
#
#
# Elastic Constant Matrix: (Units=GPa)
#
#
# Indices 1 2 3 4 5 6 
#
# 1 39.3238 -6.2152 -9.6315 0.0000 0.0000 0.0000
# 2 -6.2152 50.8740 3.1581 0.0000 0.0000 0.0000
# 3 -9.6315 3.1581 23.4600 0.0000 0.0000 0.0000
# 4 0.0000 0.0000 0.0000 25.3421 0.0000 0.0000
# 5 0.0000 0.0000 0.0000 0.0000 32.1423 0.0000
# 6 0.0000 0.0000 0.0000 0.0000 0.0000 13.0428
#
#
#
# Elastic Compliance Matrix: (Units=1/GPa)
#
#
# Indices 1 2 3 4 5 6 
#
# 1 0.028661 0.002794 0.011391 0.000000 0.000000 0.000000
# 2 0.002794 0.020095 -0.001558 0.000000 0.000000 0.000000
# 3 0.011391 -0.001558 0.047512 0.000000 0.000000 0.000000
# 4 0.000000 0.000000 0.000000 0.039460 0.000000 0.000000
# 5 0.000000 0.000000 0.000000 0.000000 0.031112 0.000000
# 6 0.000000 0.000000 0.000000 0.000000 0.000000 0.076671
#
#
# Mechanical properties :
#
#
# Convention : Reuss Voigt Hill
#
# Bulk Modulus (GPa) = 8.22890 9.80895 9.01892
# Shear Modulus (GPa) = 19.32271 22.52854 20.92562
#
# Velocity S-wave (km/s) = 3.09201 3.33867 3.21770
# Velocity P-wave (km/s) = 4.10108 4.44022 4.27401
#
# Compressibility (1/GPa) = 0.12152295
#
# Stress axis : x y z
#
# Youngs Moduli (GPa) = 34.89003 49.76485 21.04732
#
# Poissons Ratio (x) = -0.13906 -0.23975
# Poissons Ratio (y) = -0.09750 0.03279
# Poissons Ratio (z) = -0.39743 0.07752
#
# Static dielectric constant tensor:
#      x y z
#    x 1.669580 0.000000 0.000000 
#    y 0.000000 1.736180 0.000000 
#    z 0.000000 0.000000 1.692300 
# 
# From -- ./inp_files/9489.got.cif
#   From: 2010.05.17/outbox.cif.g08.bks.cpg/sg62_5_cif.got.tgz:9489.got - 2010.06.03 15:25:27.
