data_PCOD9465509
_publ_section_title
;
Structure prediction by ZEFSAII (Michael W. Deem and Ramdas Pophale) SiO2 
 PCOD9465509
Probable space group: P N M A
;
_chemical_formula_sum "Si O2"
_cell_formula_units_Z 56
_cell_length_a 14.168762
_cell_length_b 7.587759
_cell_length_c 19.905233
_cell_angle_alpha 90.000000
_cell_angle_beta 90.000000
_cell_angle_gamma 90.000000
_cell_volume 2139.994708
_symmetry_space_group_name_H-M "P N M A"
_symmetry_group_IT_number 62
_symmetry_cell_setting 'orthorhombic'
loop_
_space_group_symop_operation_xyz
x,y,z
1/2-x,-y,1/2+z
1/2+x,1/2-y,1/2-z
-x,1/2+y,-z
-x,-y,-z
1/2+x,y,1/2-z
1/2-x,1/2+y,1/2+z
x,1/2-y,z
loop_
_atom_site_type_symbol
_atom_site_label
_atom_site_fract_x
_atom_site_fract_y
_atom_site_fract_z
Si Si1 0.712603 0.463230 0.205092
Si Si2 0.703829 0.049023 0.351692
Si Si3 0.948982 0.042091 0.069304
Si Si4 0.436382 0.461837 0.288019
Si Si5 0.597785 0.955829 0.071843
Si Si6 0.581140 0.455184 0.858730
Si Si7 0.769195 0.538889 0.993758
O O1 0.703349 0.250000 0.204092
O O2 0.678708 0.526507 0.278954
O O3 0.824466 0.501643 0.203440
O O4 0.657096 0.533671 0.141282
O O5 0.667173 0.250000 0.352323
O O6 0.686224 0.966570 0.424729
O O7 0.819053 0.052249 0.353928
O O8 0.953335 0.250000 0.076537
O O9 0.981660 0.972454 0.141995
O O10 0.841338 0.991818 0.053880
O O11 0.000000 0.000000 0.000000
O O12 0.447339 0.250000 0.282562
O O13 0.464209 0.535376 0.215855
O O14 0.583541 0.750000 0.056679
O O15 0.495006 0.030654 0.088945
O O16 0.667177 0.032726 0.015332
O O17 0.600571 0.250000 0.872717
O O18 0.761178 0.750000 0.985049
#
# Coordination Sequence:
#
# PCOD9465509 Si02
#       7
#     8   8   8   8   8   8   8
#     4   9  17  33  56  78 102 139 188 233 275 331
#     4   9  20  38  57  80 113 152 192 234 282 340
#     4  11  23  39  59  85 116 149 191 237 288 347
#     4   9  19  37  57  78 107 143 186 231 279 339
#     4  10  21  35  54  83 115 146 186 234 287 338
#     4  10  21  35  54  84 116 147 188 238 286 335
#     4  10  21  39  60  82 114 154 192 234 288 343
#
# _framework density 26.168288
#
# number of rings (size 3 to 8) (size 9 to 14) (size 15 to 20)
#    0.000    2.286    1.429    1.714    0.000    6.857 
#    0.000    4.286    0.000    0.000    0.000    0.000 
#    0.000    0.000    0.000    0.000    0.000    0.000 
#
# Total GULP energy -313112.828763 kJ/mol
# GULP energy per Si atom -5591.300514 kJ/mol
# Density = 2.610873 g / cm^3
# Si number density = 26.168288 Si / 1000 Ang^3
#
#
#
# Elastic Constant Matrix: (Units=GPa)
#
#
# Indices 1 2 3 4 5 6 
#
# 1 87.4257 -2.4359 16.0007 0.0000 0.0000 0.0000
# 2 -2.4359 71.1145 14.1339 0.0000 0.0000 0.0000
# 3 16.0007 14.1339 120.1832 0.0000 0.0000 0.0000
# 4 0.0000 0.0000 0.0000 17.0373 0.0000 0.0000
# 5 0.0000 0.0000 0.0000 0.0000 55.7726 0.0000
# 6 0.0000 0.0000 0.0000 0.0000 0.0000 6.4805
#
#
#
# Elastic Compliance Matrix: (Units=1/GPa)
#
#
# Indices 1 2 3 4 5 6 
#
# 1 0.011761 0.000731 -0.001652 0.000000 0.000000 0.000000
# 2 0.000731 0.014444 -0.001796 0.000000 0.000000 0.000000
# 3 -0.001652 -0.001796 0.008752 0.000000 0.000000 0.000000
# 4 0.000000 0.000000 0.000000 0.058695 0.000000 0.000000
# 5 0.000000 0.000000 0.000000 0.000000 0.017930 0.000000
# 6 0.000000 0.000000 0.000000 0.000000 0.000000 0.154309
#
#
# Mechanical properties :
#
#
# Convention : Reuss Voigt Hill
#
# Bulk Modulus (GPa) = 33.87156 37.12454 35.49805
# Shear Modulus (GPa) = 17.78319 32.59306 25.18812
#
# Velocity S-wave (km/s) = 2.60968 3.53302 3.10585
# Velocity P-wave (km/s) = 4.69600 5.55523 5.14359
#
# Compressibility (1/GPa) = 0.02952329
#
# Stress axis : x y z
#
# Youngs Moduli (GPa) = 85.02707 69.23371 114.26279
#
# Poissons Ratio (x) = -0.05062 0.18874
# Poissons Ratio (y) = -0.06217 0.20521
# Poissons Ratio (z) = 0.14045 0.12434
#
# Static dielectric constant tensor:
#      x y z
#    x 2.116330 0.000000 0.000000 
#    y 0.000000 1.957260 0.000000 
#    z 0.000000 0.000000 2.103960 
# 
# From -- ./inp_files/27076.got.cif
#   From: 2010.05.17/outbox.cif.g08.bks.cpg/sg62_14_cif.got.tgz:27076.got - 2010.06.03 15:25:27.
