data_PCOD9465813
_publ_section_title
;
Structure prediction by ZEFSAII (Michael W. Deem and Ramdas Pophale) SiO2 
 PCOD9465813
Probable space group: P N M A
;
_chemical_formula_sum "Si O2"
_cell_formula_units_Z 60
_cell_length_a 14.668501
_cell_length_b 17.907568
_cell_length_c 9.244808
_cell_angle_alpha 90.000000
_cell_angle_beta 90.000000
_cell_angle_gamma 90.000000
_cell_volume 2428.400087
_symmetry_space_group_name_H-M "P N M A"
_symmetry_group_IT_number 62
_symmetry_cell_setting 'orthorhombic'
loop_
_space_group_symop_operation_xyz
x,y,z
1/2-x,-y,1/2+z
1/2+x,1/2-y,1/2-z
-x,1/2+y,-z
-x,-y,-z
1/2+x,y,1/2-z
1/2-x,1/2+y,1/2+z
x,1/2-y,z
loop_
_atom_site_type_symbol
_atom_site_label
_atom_site_fract_x
_atom_site_fract_y
_atom_site_fract_z
Si Si1 0.513379 0.164310 0.360094
Si Si2 0.701192 0.328813 0.950324
Si Si3 0.540616 0.875898 0.311668
Si Si4 0.260647 0.121018 0.824044
Si Si5 0.765286 0.668425 0.867422
Si Si6 0.762178 0.955674 0.651269
Si Si7 0.520738 0.025393 0.165807
Si Si8 0.462268 0.750000 0.096279
O O1 0.487554 0.250000 0.322217
O O2 0.475942 0.144440 0.520715
O O3 0.624459 0.163008 0.373778
O O4 0.485298 0.101687 0.241542
O O5 0.750673 0.250000 0.980017
O O6 0.692210 0.334868 0.778141
O O7 0.597574 0.313776 0.998632
O O8 0.743965 0.402519 0.013194
O O9 0.647174 0.880646 0.268363
O O10 0.504873 0.814553 0.199864
O O11 0.497161 0.955822 0.270114
O O12 0.223613 0.038167 0.855981
O O13 0.274569 0.162229 0.973329
O O14 0.743384 0.750000 0.805149
O O15 0.730003 0.597461 0.779665
O O16 0.869940 0.967614 0.669595
O O17 0.500000 0.000000 0.000000
#
# Coordination Sequence:
#
# PCOD9465813 Si02
#       8
#     8   8   8   8   8   8   8   4
#     4  10  21  40  66  94 129 176 230 271 332 412
#     4  10  22  38  64  92 120 167 218 263 320 396
#     4  11  22  39  62  94 131 172 216 278 337 396
#     4  11  23  37  63  93 130 162 212 274 331 394
#     4  10  21  37  63  91 121 163 217 265 319 392
#     4  10  21  41  61  91 125 169 211 267 329 399
#     4  10  22  40  62  95 134 171 220 279 341 398
#     4  10  22  36  66  90 122 166 230 268 318 402
#
# _framework density 24.707625
#
# number of rings (size 3 to 8) (size 9 to 14) (size 15 to 20)
#    0.400    1.333    0.667    3.600    3.733    0.533 
#    1.200    5.333    0.000    3.200    0.000    0.000 
#    0.000    0.000    0.000    0.000    0.000    0.000 
#
# Total GULP energy -334119.770711 kJ/mol
# GULP energy per Si atom -5568.662845 kJ/mol
# Density = 2.465139 g / cm^3
# Si number density = 24.707625 Si / 1000 Ang^3
#
#
#
# Elastic Constant Matrix: (Units=GPa)
#
#
# Indices 1 2 3 4 5 6 
#
# 1 60.3658 17.0648 10.2198 0.0000 0.0000 0.0000
# 2 17.0648 207.5340 53.8053 0.0000 0.0000 0.0000
# 3 10.2198 53.8053 103.7195 0.0000 0.0000 0.0000
# 4 0.0000 0.0000 0.0000 51.4708 0.0000 0.0000
# 5 0.0000 0.0000 0.0000 0.0000 17.7438 0.0000
# 6 0.0000 0.0000 0.0000 0.0000 0.0000 -71.8194
#
#
#
# Elastic Compliance Matrix: (Units=1/GPa)
#
#
# Indices 1 2 3 4 5 6 
#
# 1 0.017068 -0.001118 -0.001102 0.000000 0.000000 0.000000
# 2 -0.001118 0.005640 -0.002816 0.000000 0.000000 0.000000
# 3 -0.001102 -0.002816 0.011211 0.000000 0.000000 0.000000
# 4 0.000000 0.000000 0.000000 0.019428 0.000000 0.000000
# 5 0.000000 0.000000 0.000000 0.000000 0.056358 0.000000
# 6 0.000000 0.000000 0.000000 0.000000 0.000000 -0.013924
#
#
# Mechanical properties :
#
#
# Convention : Reuss Voigt Hill
#
# Bulk Modulus (GPa) = 41.93186 59.31102 50.62144
# Shear Modulus (GPa) = 43.93583 18.84767 31.39175
#
# Velocity S-wave (km/s) = 4.22148 2.76493 3.56831
# Velocity P-wave (km/s) = 6.38508 5.85238 6.12453
#
# Compressibility (1/GPa) = 0.02384822
#
# Stress axis : x y z
#
# Youngs Moduli (GPa) = 58.58841 177.29091 89.20028
#
# Poissons Ratio (x) = 0.19817 0.09829
# Poissons Ratio (y) = 0.06549 0.25118
# Poissons Ratio (z) = 0.06456 0.49923
#
# Static dielectric constant tensor:
#      x y z
#    x 2.014190 0.000000 0.000000 
#    y 0.000000 1.971540 0.000000 
#    z 0.000000 0.000000 2.008510 
# 
# From -- ./inp_files/7966.got.cif
#   From: 2010.05.17/outbox.cif.g08.bks.cpg/sg62_4_cif.got.tgz:7966.got - 2010.06.03 15:25:27.
