data_PCOD9465166
_publ_section_title
;
Structure prediction by ZEFSAII (Michael W. Deem and Ramdas Pophale) SiO2 
 PCOD9465166
Probable space group: P N M A
;
_chemical_formula_sum "Si O2"
_cell_formula_units_Z 56
_cell_length_a 10.188447
_cell_length_b 14.006847
_cell_length_c 20.295710
_cell_angle_alpha 90.000000
_cell_angle_beta 90.000000
_cell_angle_gamma 90.000000
_cell_volume 2896.360554
_symmetry_space_group_name_H-M "P N M A"
_symmetry_group_IT_number 62
_symmetry_cell_setting 'orthorhombic'
loop_
_space_group_symop_operation_xyz
x,y,z
1/2-x,-y,1/2+z
1/2+x,1/2-y,1/2-z
-x,1/2+y,-z
-x,-y,-z
1/2+x,y,1/2-z
1/2-x,1/2+y,1/2+z
x,1/2-y,z
loop_
_atom_site_type_symbol
_atom_site_label
_atom_site_fract_x
_atom_site_fract_y
_atom_site_fract_z
Si Si1 0.698490 0.639732 0.818171
Si Si2 0.482465 0.864632 0.307981
Si Si3 0.807727 0.860322 0.961750
Si Si4 0.555050 0.863983 0.456001
Si Si5 0.034405 0.033973 0.387350
Si Si6 0.165209 0.044791 0.518420
Si Si7 0.286033 0.466963 0.771927
O O1 0.694521 0.750000 0.796896
O O2 0.790556 0.632664 0.883169
O O3 0.556447 0.604338 0.844384
O O4 0.749392 0.566173 0.763995
O O5 0.483082 0.750000 0.301548
O O6 0.495721 0.890335 0.385151
O O7 0.606981 0.909909 0.270950
O O8 0.347614 0.907880 0.280400
O O9 0.784337 0.750000 0.980618
O O10 0.702692 0.932985 0.992077
O O11 0.950964 0.889330 0.987273
O O12 0.568422 0.750000 0.457105
O O13 0.698140 0.906950 0.465005
O O14 0.100118 0.081813 0.451591
O O15 0.144622 0.989106 0.341327
O O16 0.934534 0.956912 0.420151
#
# Coordination Sequence:
#
# PCOD9465166 Si02
#       7
#     8   8   8   8   8   8   8
#     4  10  22  41  63  89 130 173 216 266 320 380
#     4  11  24  41  65  93 128 167 211 265 320 382
#     4   9  18  35  60  88 120 159 206 259 316 373
#     4  10  21  37  61  94 123 156 207 262 317 376
#     4  10  22  39  62  88 122 164 212 258 319 378
#     4  10  20  38  63  89 121 162 206 265 322 370
#     4  12  23  43  63  91 129 171 217 260 313 389
#
# _framework density 19.334609
#
# number of rings (size 3 to 8) (size 9 to 14) (size 15 to 20)
#    0.000    1.714    1.429    3.429    0.000    2.286 
#    0.000    3.571    0.000    0.000    0.000    0.000 
#    0.000    0.000    0.000    0.000    0.000    0.000 
#
# Total GULP energy -312690.016618 kJ/mol
# GULP energy per Si atom -5583.750297 kJ/mol
# Density = 1.929060 g / cm^3
# Si number density = 19.334609 Si / 1000 Ang^3
#
#
#
# Elastic Constant Matrix: (Units=GPa)
#
#
# Indices 1 2 3 4 5 6 
#
# 1 126.2706 39.4936 36.1558 0.0000 0.0000 0.0000
# 2 39.4936 61.1540 30.8133 0.0000 0.0000 0.0000
# 3 36.1558 30.8133 54.4963 0.0000 0.0000 0.0000
# 4 0.0000 0.0000 0.0000 20.5892 0.0000 0.0000
# 5 0.0000 0.0000 0.0000 0.0000 37.4758 0.0000
# 6 0.0000 0.0000 0.0000 0.0000 0.0000 12.6079
#
#
#
# Elastic Compliance Matrix: (Units=1/GPa)
#
#
# Indices 1 2 3 4 5 6 
#
# 1 0.010640 -0.004635 -0.004438 0.000000 0.000000 0.000000
# 2 -0.004635 0.024886 -0.010996 0.000000 0.000000 0.000000
# 3 -0.004438 -0.010996 0.027512 0.000000 0.000000 0.000000
# 4 0.000000 0.000000 0.000000 0.048569 0.000000 0.000000
# 5 0.000000 0.000000 0.000000 0.000000 0.026684 0.000000
# 6 0.000000 0.000000 0.000000 0.000000 0.000000 0.079315
#
#
# Mechanical properties :
#
#
# Convention : Reuss Voigt Hill
#
# Bulk Modulus (GPa) = 43.66977 50.53848 47.10413
# Shear Modulus (GPa) = 18.84104 23.16511 21.00308
#
# Velocity S-wave (km/s) = 3.12504 3.46514 3.29947
# Velocity P-wave (km/s) = 5.97131 6.49655 6.23946
#
# Compressibility (1/GPa) = 0.02289914
#
# Stress axis : x y z
#
# Youngs Moduli (GPa) = 93.98415 40.18336 36.34795
#
# Poissons Ratio (x) = 0.18625 0.16133
# Poissons Ratio (y) = 0.43562 0.39968
# Poissons Ratio (z) = 0.41715 0.44185
#
# Static dielectric constant tensor:
#      x y z
#    x 1.665420 0.000000 0.000000 
#    y 0.000000 1.677290 0.000000 
#    z 0.000000 0.000000 1.679690 
# 
# From -- ./inp_files/26012.got.cif
#   From: 2010.05.17/outbox.cif.g08.bks.cpg/sg62_14_cif.got.tgz:26012.got - 2010.06.03 15:25:27.
