data_PCOD9465335
_publ_section_title
;
Structure prediction by ZEFSAII (Michael W. Deem and Ramdas Pophale) SiO2 
 PCOD9465335
Probable space group: P N M A
;
_chemical_formula_sum "Si O2"
_cell_formula_units_Z 56
_cell_length_a 7.200092
_cell_length_b 16.355011
_cell_length_c 20.990785
_cell_angle_alpha 90.000000
_cell_angle_beta 90.000000
_cell_angle_gamma 90.000000
_cell_volume 2471.824125
_symmetry_space_group_name_H-M "P N M A"
_symmetry_group_IT_number 62
_symmetry_cell_setting 'orthorhombic'
loop_
_space_group_symop_operation_xyz
x,y,z
1/2-x,-y,1/2+z
1/2+x,1/2-y,1/2-z
-x,1/2+y,-z
-x,-y,-z
1/2+x,y,1/2-z
1/2-x,1/2+y,1/2+z
x,1/2-y,z
loop_
_atom_site_type_symbol
_atom_site_label
_atom_site_fract_x
_atom_site_fract_y
_atom_site_fract_z
Si Si1 0.372075 0.337837 0.593626
Si Si2 0.874946 0.904126 0.306189
Si Si3 0.744201 0.750000 0.652308
Si Si4 0.722843 0.074264 0.114045
Si Si5 0.306006 0.586074 0.336440
Si Si6 0.671552 0.750000 0.800774
Si Si7 0.304688 0.421699 0.146356
Si Si8 0.785323 0.492802 0.981373
O O1 0.369672 0.250000 0.562636
O O2 0.254898 0.340013 0.658443
O O3 0.581511 0.365283 0.609930
O O4 0.268836 0.406468 0.553651
O O5 0.881821 0.888031 0.231740
O O6 0.083208 0.903765 0.334900
O O7 0.773870 0.992804 0.316553
O O8 0.699367 0.833708 0.613779
O O9 0.659513 0.750000 0.723894
O O10 0.966434 0.750000 0.667401
O O11 0.527809 0.082600 0.148905
O O12 0.847684 0.010306 0.152695
O O13 0.684619 0.024084 0.048376
O O14 0.763671 0.835827 0.824437
O O15 0.256265 0.438502 0.071716
O O16 0.000000 0.500000 0.000000
#
# Coordination Sequence:
#
# PCOD9465335 Si02
#       8
#     8   8   4   8   8   4   8   8
#     4  11  25  42  60  90 122 156 205 261 307 359
#     4  10  21  38  64  90 122 164 197 248 313 367
#     4  10  22  36  62  96 128 162 195 262 311 372
#     4  10  21  38  62  88 122 163 208 245 306 371
#     4  11  20  39  63  90 122 162 202 248 307 371
#     4  10  20  40  58  98 130 154 203 254 319 366
#     4   9  21  38  61  88 124 161 202 251 308 368
#     4  11  22  41  62  83 117 161 211 251 303 369
#
# _framework density 22.655332999999999
#
# number of rings (size 3 to 8) (size 9 to 14) (size 15 to 20)
#    0.000    1.714    2.857    1.286    1.000    2.286 
#    1.286    0.000    0.000    0.000    0.000    0.000 
#    0.000    0.000    0.000    0.000    0.000    0.000 
#
# Total GULP energy -312323.476135 kJ/mol
# GULP energy per Si atom -5577.204931 kJ/mol
# Density = 2.260377 g / cm^3
# Si number density = 22.655333 Si / 1000 Ang^3
#
#
#
# Elastic Constant Matrix: (Units=GPa)
#
#
# Indices 1 2 3 4 5 6 
#
# 1 64.1407 4.3266 -15.7669 0.0000 0.0000 0.0000
# 2 4.3266 110.4236 4.2911 0.0000 0.0000 0.0000
# 3 -15.7669 4.2911 54.2324 0.0000 0.0000 0.0000
# 4 0.0000 0.0000 0.0000 15.3026 0.0000 0.0000
# 5 0.0000 0.0000 0.0000 0.0000 29.7044 0.0000
# 6 0.0000 0.0000 0.0000 0.0000 0.0000 16.6982
#
#
#
# Elastic Compliance Matrix: (Units=1/GPa)
#
#
# Indices 1 2 3 4 5 6 
#
# 1 0.016871 -0.000854 0.004972 0.000000 0.000000 0.000000
# 2 -0.000854 0.009127 -0.000971 0.000000 0.000000 0.000000
# 3 0.004972 -0.000971 0.019962 0.000000 0.000000 0.000000
# 4 0.000000 0.000000 0.000000 0.065348 0.000000 0.000000
# 5 0.000000 0.000000 0.000000 0.000000 0.033665 0.000000
# 6 0.000000 0.000000 0.000000 0.000000 0.000000 0.059887
#
#
# Mechanical properties :
#
#
# Convention : Reuss Voigt Hill
#
# Bulk Modulus (GPa) = 19.13707 23.83313 21.48510
# Shear Modulus (GPa) = 23.15000 28.07075 25.61037
#
# Velocity S-wave (km/s) = 3.20008 3.52381 3.36584
# Velocity P-wave (km/s) = 4.70313 5.20567 4.96077
#
# Compressibility (1/GPa) = 0.05225460
#
# Stress axis : x y z
#
# Youngs Moduli (GPa) = 59.27455 109.56235 50.09628
#
# Poissons Ratio (x) = 0.09359 -0.24910
# Poissons Ratio (y) = 0.05064 0.04862
# Poissons Ratio (z) = -0.29473 0.10633
#
# Static dielectric constant tensor:
#      x y z
#    x 1.881910 0.000000 0.000000 
#    y 0.000000 1.886790 0.000000 
#    z 0.000000 0.000000 1.926350 
# 
# From -- ./inp_files/26039.got.cif
#   From: 2010.05.17/outbox.cif.g08.bks.cpg/sg62_14_cif.got.tgz:26039.got - 2010.06.03 15:25:27.
