data_PCOD9465305
_publ_section_title
;
Structure prediction by ZEFSAII (Michael W. Deem and Ramdas Pophale) SiO2 
 PCOD9465305
Probable space group: P N M A
;
_chemical_formula_sum "Si O2"
_cell_formula_units_Z 40
_cell_length_a 13.901611
_cell_length_b 14.426943
_cell_length_c 9.860046
_cell_angle_alpha 90.000000
_cell_angle_beta 90.000000
_cell_angle_gamma 90.000000
_cell_volume 1977.508636
_symmetry_space_group_name_H-M "P N M A"
_symmetry_group_IT_number 62
_symmetry_cell_setting 'orthorhombic'
loop_
_space_group_symop_operation_xyz
x,y,z
1/2-x,-y,1/2+z
1/2+x,1/2-y,1/2-z
-x,1/2+y,-z
-x,-y,-z
1/2+x,y,1/2-z
1/2-x,1/2+y,1/2+z
x,1/2-y,z
loop_
_atom_site_type_symbol
_atom_site_label
_atom_site_fract_x
_atom_site_fract_y
_atom_site_fract_z
Si Si1 0.193786 0.402591 0.211440
Si Si2 0.918580 0.250000 0.860422
Si Si3 0.900349 0.750000 0.938733
Si Si4 0.606741 0.552536 0.898385
Si Si5 0.733834 0.750000 0.605764
Si Si6 0.949326 0.250000 0.303855
Si Si7 0.569835 0.560231 0.195128
O O1 0.169134 0.337158 0.082991
O O2 0.297034 0.448042 0.188389
O O3 0.203911 0.339844 0.348645
O O4 0.111094 0.478503 0.212884
O O5 0.919435 0.341883 0.768085
O O6 0.825857 0.250000 0.964358
O O7 0.019809 0.250000 0.944482
O O8 0.964891 0.750000 0.802380
O O9 0.553269 0.652419 0.881198
O O10 0.536967 0.470136 0.850937
O O11 0.630004 0.550410 0.056743
O O12 0.649026 0.750000 0.717710
#
# Coordination Sequence:
#
# PCOD9465305 Si02
#       7
#     8   4   4   8   4   4   8
#     4  10  21  40  68  92 122 174 218 257 323 392
#     4  11  25  41  62  99 132 164 211 286 322 365
#     4  10  20  39  64  93 120 161 215 269 322 375
#     4  10  22  40  63  89 128 167 212 262 316 395
#     4   8  20  38  61  92 124 159 207 260 319 376
#     4   9  15  38  61  82 116 160 203 255 309 378
#     4  11  24  40  62  95 128 172 212 263 331 377
#
# _framework density 20.227471000000001
#
# number of rings (size 3 to 8) (size 9 to 14) (size 15 to 20)
#    0.000    2.000    2.000    1.200    2.800    2.400 
#    0.000    1.000    0.000    0.000    0.000    0.000 
#    0.000    0.000    0.000    0.000    0.000    0.000 
#
# Total GULP energy -222918.118208 kJ/mol
# GULP energy per Si atom -5572.952955 kJ/mol
# Density = 2.018143 g / cm^3
# Si number density = 20.227471 Si / 1000 Ang^3
#
#
#
# Elastic Constant Matrix: (Units=GPa)
#
#
# Indices 1 2 3 4 5 6 
#
# 1 52.6087 14.8231 10.1963 0.0000 0.0000 0.0000
# 2 14.8231 115.8352 40.9107 0.0000 0.0000 0.0000
# 3 10.1963 40.9107 66.0767 0.0000 0.0000 0.0000
# 4 0.0000 0.0000 0.0000 12.2573 0.0000 0.0000
# 5 0.0000 0.0000 0.0000 0.0000 10.3803 0.0000
# 6 0.0000 0.0000 0.0000 0.0000 0.0000 12.9547
#
#
#
# Elastic Compliance Matrix: (Units=1/GPa)
#
#
# Indices 1 2 3 4 5 6 
#
# 1 0.019906 -0.001872 -0.001913 0.000000 0.000000 0.000000
# 2 -0.001872 0.011225 -0.006661 0.000000 0.000000 0.000000
# 3 -0.001913 -0.006661 0.019553 0.000000 0.000000 0.000000
# 4 0.000000 0.000000 0.000000 0.081584 0.000000 0.000000
# 5 0.000000 0.000000 0.000000 0.000000 0.096337 0.000000
# 6 0.000000 0.000000 0.000000 0.000000 0.000000 0.077192
#
#
# Mechanical properties :
#
#
# Convention : Reuss Voigt Hill
#
# Bulk Modulus (GPa) = 33.56459 40.70897 37.13678
# Shear Modulus (GPa) = 14.85355 18.35782 16.60569
#
# Velocity S-wave (km/s) = 2.71278 3.01586 2.86833
# Velocity P-wave (km/s) = 5.14216 5.68300 5.41933
#
# Compressibility (1/GPa) = 0.02979331
#
# Stress axis : x y z
#
# Youngs Moduli (GPa) = 50.23509 89.08670 51.14252
#
# Poissons Ratio (x) = 0.16675 0.09783
# Poissons Ratio (y) = 0.09403 0.34066
# Poissons Ratio (z) = 0.09609 0.59341
#
# Static dielectric constant tensor:
#      x y z
#    x 1.731790 0.000000 0.000000 
#    y 0.000000 1.783140 0.000000 
#    z 0.000000 0.000000 1.705160 
# 
# From -- ./inp_files/6170.got.cif
#   From: 2010.05.17/outbox.cif.g08.bks.cpg/sg62_4_cif.got.tgz:6170.got - 2010.06.03 15:25:27.
