data_PCOD9465291
_publ_section_title
;
Structure prediction by ZEFSAII (Michael W. Deem and Ramdas Pophale) SiO2 
 PCOD9465291
Probable space group: P N M A
;
_chemical_formula_sum "Si O2"
_cell_formula_units_Z 40
_cell_length_a 8.924730
_cell_length_b 17.929249
_cell_length_c 13.017379
_cell_angle_alpha 90.000000
_cell_angle_beta 90.000000
_cell_angle_gamma 90.000000
_cell_volume 2082.959062
_symmetry_space_group_name_H-M "P N M A"
_symmetry_group_IT_number 62
_symmetry_cell_setting 'orthorhombic'
loop_
_space_group_symop_operation_xyz
x,y,z
1/2-x,-y,1/2+z
1/2+x,1/2-y,1/2-z
-x,1/2+y,-z
-x,-y,-z
1/2+x,y,1/2-z
1/2-x,1/2+y,1/2+z
x,1/2-y,z
loop_
_atom_site_type_symbol
_atom_site_label
_atom_site_fract_x
_atom_site_fract_y
_atom_site_fract_z
Si Si1 0.375209 0.512583 0.739006
Si Si2 0.751873 0.466569 0.047069
Si Si3 0.214922 0.250000 0.694607
Si Si4 0.576642 0.099790 0.466596
Si Si5 0.944932 0.750000 0.093676
Si Si6 0.123674 0.085259 0.645065
O O1 0.286807 0.546076 0.835275
O O2 0.402788 0.576512 0.653578
O O3 0.508233 0.464184 0.789456
O O4 0.279100 0.449068 0.684227
O O5 0.907103 0.427691 0.015967
O O6 0.795540 0.552450 0.026037
O O7 0.620738 0.436572 0.974464
O O8 0.388247 0.250000 0.650607
O O9 0.182789 0.250000 0.817466
O O10 0.132383 0.173823 0.658568
O O11 0.576288 0.180125 0.517891
#
# Coordination Sequence:
#
# PCOD9465291 Si02
#       6
#     8   8   4   8   4   8
#     4  11  21  39  65  89 123 168 211 254 302 370
#     4  10  20  39  63  92 121 162 213 254 303 371
#     4  12  24  36  61  93 127 159 192 260 320 359
#     4  10  22  40  64  92 124 165 207 256 316 367
#     4  12  24  44  63  93 129 163 204 256 318 373
#     4  11  22  36  61  94 126 159 209 257 309 372
#
# _framework density 19.20345
#
# number of rings (size 3 to 8) (size 9 to 14) (size 15 to 20)
#    0.000    1.200    4.000    3.000    2.800    0.000 
#    0.000    2.000    0.000    0.000    0.000    0.000 
#    0.000    0.000    0.000    0.000    0.000    0.000 
#
# Total GULP energy -222784.425809 kJ/mol
# GULP energy per Si atom -5569.610645 kJ/mol
# Density = 1.915974 g / cm^3
# Si number density = 19.203450 Si / 1000 Ang^3
#
#
#
# Elastic Constant Matrix: (Units=GPa)
#
#
# Indices 1 2 3 4 5 6 
#
# 1 40.9179 19.9538 17.2029 0.0000 0.0000 0.0000
# 2 19.9538 146.8189 39.4201 0.0000 0.0000 0.0000
# 3 17.2029 39.4201 93.3217 0.0000 0.0000 0.0000
# 4 0.0000 0.0000 0.0000 24.5436 0.0000 0.0000
# 5 0.0000 0.0000 0.0000 0.0000 29.8329 0.0000
# 6 0.0000 0.0000 0.0000 0.0000 0.0000 5.5769
#
#
#
# Elastic Compliance Matrix: (Units=1/GPa)
#
#
# Indices 1 2 3 4 5 6 
#
# 1 0.027390 -0.002670 -0.003921 0.000000 0.000000 0.000000
# 2 -0.002670 0.007943 -0.002863 0.000000 0.000000 0.000000
# 3 -0.003921 -0.002863 0.012648 0.000000 0.000000 0.000000
# 4 0.000000 0.000000 0.000000 0.040744 0.000000 0.000000
# 5 0.000000 0.000000 0.000000 0.000000 0.033520 0.000000
# 6 0.000000 0.000000 0.000000 0.000000 0.000000 0.179312
#
#
# Mechanical properties :
#
#
# Convention : Reuss Voigt Hill
#
# Bulk Modulus (GPa) = 34.39696 48.24579 41.32137
# Shear Modulus (GPa) = 15.14441 25.62278 20.38360
#
# Velocity S-wave (km/s) = 2.81130 3.65674 3.26153
# Velocity P-wave (km/s) = 5.33747 6.55798 5.97895
#
# Compressibility (1/GPa) = 0.02907234
#
# Stress axis : x y z
#
# Youngs Moduli (GPa) = 36.51014 125.90315 79.06500
#
# Poissons Ratio (x) = 0.33611 0.31004
# Poissons Ratio (y) = 0.09747 0.22636
# Poissons Ratio (z) = 0.14317 0.36045
#
# Static dielectric constant tensor:
#      x y z
#    x 1.724410 0.000000 0.000000 
#    y 0.000000 1.676880 0.000000 
#    z 0.000000 0.000000 1.726750 
# 
# From -- ./inp_files/11096.got.cif
#   From: 2010.05.17/outbox.cif.g08.bks.cpg/sg62_6_cif.got.tgz:11096.got - 2010.06.03 15:25:27.
