data_PCOD9465860
_publ_section_title
;
Structure prediction by ZEFSAII (Michael W. Deem and Ramdas Pophale) SiO2 
 PCOD9465860
Probable space group: P N M A
;
_chemical_formula_sum "Si O2"
_cell_formula_units_Z 48
_cell_length_a 31.835199
_cell_length_b 8.491426
_cell_length_c 9.177942
_cell_angle_alpha 90.000000
_cell_angle_beta 90.000000
_cell_angle_gamma 90.000000
_cell_volume 2481.038520
_symmetry_space_group_name_H-M "P N M A"
_symmetry_group_IT_number 62
_symmetry_cell_setting 'orthorhombic'
loop_
_space_group_symop_operation_xyz
x,y,z
1/2-x,-y,1/2+z
1/2+x,1/2-y,1/2-z
-x,1/2+y,-z
-x,-y,-z
1/2+x,y,1/2-z
1/2-x,1/2+y,1/2+z
x,1/2-y,z
loop_
_atom_site_type_symbol
_atom_site_label
_atom_site_fract_x
_atom_site_fract_y
_atom_site_fract_z
Si Si1 0.374957 0.940620 0.412181
Si Si2 0.041175 0.059706 0.082275
Si Si3 0.041386 0.060956 0.419046
Si Si4 0.291429 0.940384 0.584349
Si Si5 0.292141 0.440283 0.913859
Si Si6 0.623862 0.938933 0.917441
O O1 0.374993 0.750000 0.407610
O O2 0.416689 0.991840 0.498618
O O3 0.333114 0.991605 0.497806
O O4 0.375268 0.002995 0.248358
O O5 0.040632 0.250000 0.081366
O O6 0.041556 0.007782 0.250527
O O7 0.000000 0.000000 0.000000
O O8 0.041134 0.250000 0.420996
O O9 0.082765 0.001795 0.501085
O O10 0.000000 0.000000 0.500000
O O11 0.291387 0.750000 0.587178
O O12 0.249516 0.993052 0.499925
O O13 0.291858 0.000148 0.749059
O O14 0.291933 0.250000 0.911967
O O15 0.334129 0.492258 0.998085
O O16 0.622899 0.750000 0.918497
#
# Coordination Sequence:
#
# PCOD9465860 Si02
#       6
#     8   8   8   8   8   8
#     4  10  21  38  59  83 111 147 192 237 283 339
#     4  10  22  38  57  82 111 144 184 230 279 333
#     4  11  23  40  61  86 116 151 191 235 284 338
#     4  10  21  38  60  85 114 151 195 240 289 346
#     4  10  22  38  57  85 118 150 189 238 289 341
#     4  11  23  38  57  85 118 151 189 234 286 343
#
# _framework density 19.346737999999998
#
# number of rings (size 3 to 8) (size 9 to 14) (size 15 to 20)
#    0.000    1.667    0.000    4.000    0.000    8.667 
#    0.000    0.000    0.000    0.000    0.000    0.000 
#    0.000    0.000    0.000    0.000    0.000    0.000 
#
# Total GULP energy -268393.577284 kJ/mol
# GULP energy per Si atom -5591.532860 kJ/mol
# Density = 1.930270 g / cm^3
# Si number density = 19.346738 Si / 1000 Ang^3
#
#
#
# Elastic Constant Matrix: (Units=GPa)
#
#
# Indices 1 2 3 4 5 6 
#
# 1 246.8130 36.7493 151.0466 0.0000 0.0000 0.0000
# 2 36.7493 16.8965 33.7242 0.0000 0.0000 0.0000
# 3 151.0466 33.7242 243.6740 0.0000 0.0000 0.0000
# 4 0.0000 0.0000 0.0000 37.4935 0.0000 0.0000
# 5 0.0000 0.0000 0.0000 0.0000 47.2504 0.0000
# 6 0.0000 0.0000 0.0000 0.0000 0.0000 25.5853
#
#
#
# Elastic Compliance Matrix: (Units=1/GPa)
#
#
# Indices 1 2 3 4 5 6 
#
# 1 0.007538 -0.009767 -0.003321 0.000000 0.000000 0.000000
# 2 -0.009767 0.094427 -0.007014 0.000000 0.000000 0.000000
# 3 -0.003321 -0.007014 0.007133 0.000000 0.000000 0.000000
# 4 0.000000 0.000000 0.000000 0.026671 0.000000 0.000000
# 5 0.000000 0.000000 0.000000 0.000000 0.021164 0.000000
# 6 0.000000 0.000000 0.000000 0.000000 0.000000 0.039085
#
#
# Mechanical properties :
#
#
# Convention : Reuss Voigt Hill
#
# Bulk Modulus (GPa) = 14.51512 105.60263 60.05888
# Shear Modulus (GPa) = 19.29102 41.12338 30.20720
#
# Velocity S-wave (km/s) = 3.16115 4.61542 3.95569
# Velocity P-wave (km/s) = 4.56538 9.11622 7.20931
#
# Compressibility (1/GPa) = 0.06889368
#
# Stress axis : x y z
#
# Youngs Moduli (GPa) = 132.65428 10.59021 140.18872
#
# Poissons Ratio (x) = 0.10344 0.46558
# Poissons Ratio (y) = 1.29565 0.98331
# Poissons Ratio (z) = 0.44056 0.07428
#
# Static dielectric constant tensor:
#      x y z
#    x 1.652490 0.000000 0.000000 
#    y 0.000000 1.670640 0.000000 
#    z 0.000000 0.000000 1.627350 
# 
# From -- ./inp_files/10159.got.cif
#   From: 2010.05.17/outbox.cif.g08.bks.cpg/sg62_6_cif.got.tgz:10159.got - 2010.06.03 15:25:27.
