data_PCOD9465533
_publ_section_title
;
Structure prediction by ZEFSAII (Michael W. Deem and Ramdas Pophale) SiO2 
 PCOD9465533
Probable space group: P N M A
;
_chemical_formula_sum "Si O2"
_cell_formula_units_Z 32
_cell_length_a 14.539801
_cell_length_b 14.584541
_cell_length_c 7.049890
_cell_angle_alpha 90.000000
_cell_angle_beta 90.000000
_cell_angle_gamma 90.000000
_cell_volume 1494.973757
_symmetry_space_group_name_H-M "P N M A"
_symmetry_group_IT_number 62
_symmetry_cell_setting 'orthorhombic'
loop_
_space_group_symop_operation_xyz
x,y,z
1/2-x,-y,1/2+z
1/2+x,1/2-y,1/2-z
-x,1/2+y,-z
-x,-y,-z
1/2+x,y,1/2-z
1/2-x,1/2+y,1/2+z
x,1/2-y,z
loop_
_atom_site_type_symbol
_atom_site_label
_atom_site_fract_x
_atom_site_fract_y
_atom_site_fract_z
Si Si1 0.113171 0.354467 0.752549
Si Si2 0.332365 0.858696 0.689107
Si Si3 0.205221 0.854898 0.002289
Si Si4 0.550846 0.976691 0.305790
O O1 0.077625 0.250000 0.759429
O O2 0.197253 0.358401 0.608561
O O3 0.028392 0.420169 0.701161
O O4 0.157636 0.372153 0.962300
O O5 0.348238 0.750000 0.726544
O O6 0.407838 0.928774 0.771578
O O7 0.234128 0.882415 0.786913
O O8 0.171489 0.750000 0.996834
O O9 0.135545 0.914428 0.124199
O O10 0.500000 0.000000 0.500000
#
# Coordination Sequence:
#
# PCOD9465533 Si02
#       4
#     8   8   8   8
#     4   9  19  38  59  85 118 149 190 240 284 337
#     4   9  20  37  56  82 117 153 190 234 282 338
#     4  10  21  38  61  84 115 155 191 233 289 343
#     4  10  21  35  60  87 113 151 190 239 286 335
#
# _framework density 21.405059000000001
#
# number of rings (size 3 to 8) (size 9 to 14) (size 15 to 20)
#    0.000    2.500    0.000    0.750    7.000    2.000 
#    0.000    5.000    0.000   21.000    0.000    0.000 
#    0.000    0.000    0.000    0.000    0.000    0.000 
#
# Total GULP energy -178314.085667 kJ/mol
# GULP energy per Si atom -5572.315177 kJ/mol
# Density = 2.135634 g / cm^3
# Si number density = 21.405059 Si / 1000 Ang^3
#
#
#
# Elastic Constant Matrix: (Units=GPa)
#
#
# Indices 1 2 3 4 5 6 
#
# 1 58.9988 19.0980 5.3309 0.0000 0.0000 0.0000
# 2 19.0980 39.8338 8.8688 0.0000 0.0000 0.0000
# 3 5.3309 8.8688 62.9250 0.0000 0.0000 0.0000
# 4 0.0000 0.0000 0.0000 9.3972 0.0000 0.0000
# 5 0.0000 0.0000 0.0000 0.0000 24.4290 0.0000
# 6 0.0000 0.0000 0.0000 0.0000 0.0000 30.7134
#
#
#
# Elastic Compliance Matrix: (Units=1/GPa)
#
#
# Indices 1 2 3 4 5 6 
#
# 1 0.020071 -0.009544 -0.000355 0.000000 0.000000 0.000000
# 2 -0.009544 0.030456 -0.003484 0.000000 0.000000 0.000000
# 3 -0.000355 -0.003484 0.016413 0.000000 0.000000 0.000000
# 4 0.000000 0.000000 0.000000 0.106414 0.000000 0.000000
# 5 0.000000 0.000000 0.000000 0.000000 0.040935 0.000000
# 6 0.000000 0.000000 0.000000 0.000000 0.000000 0.032559
#
#
# Mechanical properties :
#
#
# Convention : Reuss Voigt Hill
#
# Bulk Modulus (GPa) = 24.89189 25.37256 25.13223
# Shear Modulus (GPa) = 17.42129 21.47192 19.44661
#
# Velocity S-wave (km/s) = 2.85596 3.17065 3.01741
# Velocity P-wave (km/s) = 4.74654 5.02825 4.88942
#
# Compressibility (1/GPa) = 0.04017372
#
# Stress axis : x y z
#
# Youngs Moduli (GPa) = 49.82333 32.83459 60.92705
#
# Poissons Ratio (x) = 0.31337 0.02165
# Poissons Ratio (y) = 0.47550 0.21227
# Poissons Ratio (z) = 0.01770 0.11439
#
# Static dielectric constant tensor:
#      x y z
#    x 1.740650 0.000000 0.000000 
#    y 0.000000 2.136860 0.000000 
#    z 0.000000 0.000000 1.722990 
# 
# From -- ./inp_files/4827.got.cif
#   From: 2010.05.17/outbox.cif.g08.bks.cpg/sg62_3_cif.got.tgz:4827.got - 2010.06.03 15:25:27.
