data_PCOD9465993
_publ_section_title
;
Structure prediction by ZEFSAII (Michael W. Deem and Ramdas Pophale) SiO2 
 PCOD9465993
Probable space group: P N M A
;
_chemical_formula_sum "Si O2"
_cell_formula_units_Z 48
_cell_length_a 15.249714
_cell_length_b 8.854555
_cell_length_c 18.865063
_cell_angle_alpha 90.000000
_cell_angle_beta 90.000000
_cell_angle_gamma 90.000000
_cell_volume 2547.338729
_symmetry_space_group_name_H-M "P N M A"
_symmetry_group_IT_number 62
_symmetry_cell_setting 'orthorhombic'
loop_
_space_group_symop_operation_xyz
x,y,z
1/2-x,-y,1/2+z
1/2+x,1/2-y,1/2-z
-x,1/2+y,-z
-x,-y,-z
1/2+x,y,1/2-z
1/2-x,1/2+y,1/2+z
x,1/2-y,z
loop_
_atom_site_type_symbol
_atom_site_label
_atom_site_fract_x
_atom_site_fract_y
_atom_site_fract_z
Si Si1 0.094430 0.570632 0.017586
Si Si2 0.363974 0.929596 0.667583
Si Si3 0.006186 0.569013 0.710883
Si Si4 0.758127 0.930862 0.083711
Si Si5 0.056704 0.569206 0.436594
Si Si6 0.800474 0.430606 0.235467
O O1 0.089742 0.750000 0.010191
O O2 0.119627 0.522744 0.097055
O O3 0.168047 0.505641 0.965013
O O4 0.000000 0.500000 0.000000
O O5 0.369861 0.750000 0.651189
O O6 0.436412 0.964001 0.727359
O O7 0.270066 0.959509 0.703064
O O8 0.004458 0.750000 0.698391
O O9 0.980203 0.487487 0.638600
O O10 0.102693 0.527971 0.738405
O O11 0.765457 0.750000 0.079322
O O12 0.659620 0.974433 0.059985
O O13 0.773266 0.984366 0.164197
O O14 0.051991 0.750000 0.439992
O O15 0.000000 0.500000 0.500000
O O16 0.799147 0.250000 0.220836
#
# Coordination Sequence:
#
# PCOD9465993 Si02
#       6
#     8   8   8   8   8   8
#     4  12  26  43  66  94 128 168 212 263 318 379
#     4  10  21  39  62  92 130 165 205 256 312 378
#     4  10  21  39  64  92 123 162 205 254 312 373
#     4  11  24  43  66  94 129 168 212 265 318 378
#     4  11  25  42  63  91 126 167 214 264 316 374
#     4  10  21  38  64  94 124 163 207 255 314 378
#
# _framework density 18.843194
#
# number of rings (size 3 to 8) (size 9 to 14) (size 15 to 20)
#    0.000    1.333    1.667    3.500    2.333    5.333 
#    0.000    0.000    0.000    0.000    0.000    0.000 
#    0.000    0.000    0.000    0.000    0.000    0.000 
#
# Total GULP energy -268464.639216 kJ/mol
# GULP energy per Si atom -5593.013317 kJ/mol
# Density = 1.880031 g / cm^3
# Si number density = 18.843194 Si / 1000 Ang^3
#
#
#
# Elastic Constant Matrix: (Units=GPa)
#
#
# Indices 1 2 3 4 5 6 
#
# 1 136.1038 49.5609 39.4763 0.0000 0.0000 0.0000
# 2 49.5609 69.7311 52.2211 0.0000 0.0000 0.0000
# 3 39.4763 52.2211 92.0338 0.0000 0.0000 0.0000
# 4 0.0000 0.0000 0.0000 42.3086 0.0000 0.0000
# 5 0.0000 0.0000 0.0000 0.0000 29.4817 0.0000
# 6 0.0000 0.0000 0.0000 0.0000 0.0000 25.1341
#
#
#
# Elastic Compliance Matrix: (Units=1/GPa)
#
#
# Indices 1 2 3 4 5 6 
#
# 1 0.009923 -0.006721 -0.000443 0.000000 0.000000 0.000000
# 2 -0.006721 0.029490 -0.013850 0.000000 0.000000 0.000000
# 3 -0.000443 -0.013850 0.018914 0.000000 0.000000 0.000000
# 4 0.000000 0.000000 0.000000 0.023636 0.000000 0.000000
# 5 0.000000 0.000000 0.000000 0.000000 0.033919 0.000000
# 6 0.000000 0.000000 0.000000 0.000000 0.000000 0.039787
#
#
# Mechanical properties :
#
#
# Convention : Reuss Voigt Hill
#
# Bulk Modulus (GPa) = 61.35189 64.48724 62.91957
# Shear Modulus (GPa) = 24.61473 29.82560 27.22017
#
# Velocity S-wave (km/s) = 3.61819 3.98280 3.80486
# Velocity P-wave (km/s) = 7.07707 7.44632 7.26404
#
# Compressibility (1/GPa) = 0.01629942
#
# Stress axis : x y z
#
# Youngs Moduli (GPa) = 100.77356 33.90962 52.87064
#
# Poissons Ratio (x) = 0.22792 0.02340
# Poissons Ratio (y) = 0.67734 0.73226
# Poissons Ratio (z) = 0.04460 0.46965
#
# Static dielectric constant tensor:
#      x y z
#    x 1.636120 0.000000 0.000000 
#    y 0.000000 1.635500 0.000000 
#    z 0.000000 0.000000 1.603790 
# 
# From -- ./inp_files/23740.got.cif
#   From: 2010.05.17/outbox.cif.g08.bks.cpg/sg62_12_cif.got.tgz:23740.got - 2010.06.03 15:25:27.
