data_PCOD9465670
_publ_section_title
;
Structure prediction by ZEFSAII (Michael W. Deem and Ramdas Pophale) SiO2 
 PCOD9465670
Probable space group: P N M A
;
_chemical_formula_sum "Si O2"
_cell_formula_units_Z 64
_cell_length_a 5.293898
_cell_length_b 27.220258
_cell_length_c 21.687974
_cell_angle_alpha 90.000000
_cell_angle_beta 90.000000
_cell_angle_gamma 90.000000
_cell_volume 3125.264584
_symmetry_space_group_name_H-M "P N M A"
_symmetry_group_IT_number 62
_symmetry_cell_setting 'orthorhombic'
loop_
_space_group_symop_operation_xyz
x,y,z
1/2-x,-y,1/2+z
1/2+x,1/2-y,1/2-z
-x,1/2+y,-z
-x,-y,-z
1/2+x,y,1/2-z
1/2-x,1/2+y,1/2+z
x,1/2-y,z
loop_
_atom_site_type_symbol
_atom_site_label
_atom_site_fract_x
_atom_site_fract_y
_atom_site_fract_z
Si Si1 0.077142 0.443380 0.790983
Si Si2 0.007553 0.307762 0.000836
Si Si3 0.977433 0.899436 0.075687
Si Si4 0.475777 0.557938 0.009658
Si Si5 0.544360 0.306863 0.277514
Si Si6 0.430718 0.058582 0.291345
Si Si7 0.264159 0.880378 0.901802
Si Si8 0.854822 0.303374 0.392325
O O1 0.333819 0.434927 0.752535
O O2 0.061808 0.411503 0.852847
O O3 0.073727 0.500987 0.810204
O O4 0.931514 0.250000 0.995645
O O5 0.010613 0.341098 0.939962
O O6 0.851725 0.342524 0.047970
O O7 0.276676 0.307118 0.036576
O O8 0.736626 0.920623 0.037473
O O9 0.236113 0.925631 0.051926
O O10 0.500000 0.500000 0.000000
O O11 0.411918 0.579980 0.942729
O O12 0.285640 0.329159 0.255741
O O13 0.524205 0.250000 0.257151
O O14 0.606589 0.304842 0.349471
O O15 0.684956 0.065606 0.251976
O O16 0.410977 0.092234 0.352455
O O17 0.473712 0.846911 0.870226
O O18 0.975649 0.250000 0.382259
#
# Coordination Sequence:
#
# PCOD9465670 Si02
#       8
#     8   8   8   8   8   8   8   8
#     4  10  21  41  67  96 129 166 205 254 319 395
#     4  10  23  42  62  90 126 167 216 268 323 378
#     4  11  22  41  66  98 127 170 214 257 327 398
#     4  11  23  38  62  96 130 164 209 269 326 387
#     4   9  19  33  49  70  95 133 190 248 296 340
#     4  10  24  40  60  88 125 168 212 265 322 381
#     4  11  23  38  60  85 124 164 216 262 324 381
#     4  10  21  37  56  76 111 158 207 261 312 360
#
# _framework density 20.478266999999999
#
# number of rings (size 3 to 8) (size 9 to 14) (size 15 to 20)
#    0.000    1.750    1.250    2.250    3.500    4.000 
#    0.000    0.000    0.000    2.250    0.000    0.000 
#    0.000    0.000    0.000    0.000    0.000    0.000 
#
# Total GULP energy -357494.441709 kJ/mol
# GULP energy per Si atom -5585.850652 kJ/mol
# Density = 2.043166 g / cm^3
# Si number density = 20.478267 Si / 1000 Ang^3
#
#
#
# Elastic Constant Matrix: (Units=GPa)
#
#
# Indices 1 2 3 4 5 6 
#
# 1 95.1533 42.2935 25.9189 0.0000 0.0000 0.0000
# 2 42.2935 157.1609 79.4872 0.0000 0.0000 0.0000
# 3 25.9189 79.4872 102.9769 0.0000 0.0000 0.0000
# 4 0.0000 0.0000 0.0000 33.7180 0.0000 0.0000
# 5 0.0000 0.0000 0.0000 0.0000 25.2120 0.0000
# 6 0.0000 0.0000 0.0000 0.0000 0.0000 23.2376
#
#
#
# Elastic Compliance Matrix: (Units=1/GPa)
#
#
# Indices 1 2 3 4 5 6 
#
# 1 0.011984 -0.002788 -0.000864 0.000000 0.000000 0.000000
# 2 -0.002788 0.011086 -0.007856 0.000000 0.000000 0.000000
# 3 -0.000864 -0.007856 0.015992 0.000000 0.000000 0.000000
# 4 0.000000 0.000000 0.000000 0.029658 0.000000 0.000000
# 5 0.000000 0.000000 0.000000 0.000000 0.039664 0.000000
# 6 0.000000 0.000000 0.000000 0.000000 0.000000 0.043034
#
#
# Mechanical properties :
#
#
# Convention : Reuss Voigt Hill
#
# Bulk Modulus (GPa) = 62.31864 72.29893 67.30879
# Shear Modulus (GPa) = 27.81134 30.27294 29.04214
#
# Velocity S-wave (km/s) = 3.68923 3.84903 3.76998
# Velocity P-wave (km/s) = 6.97459 7.42531 7.20347
#
# Compressibility (1/GPa) = 0.01604656
#
# Stress axis : x y z
#
# Youngs Moduli (GPa) = 83.44511 90.20083 62.52987
#
# Poissons Ratio (x) = 0.25146 0.05405
# Poissons Ratio (y) = 0.23263 0.49122
# Poissons Ratio (z) = 0.07213 0.70860
#
# Static dielectric constant tensor:
#      x y z
#    x 1.816050 0.000000 0.000000 
#    y 0.000000 1.755850 0.000000 
#    z 0.000000 0.000000 1.754080 
# 
# From -- ./inp_files/25469.got.cif
#   From: 2010.05.17/outbox.cif.g08.bks.cpg/sg62_13_cif.got.tgz:25469.got - 2010.06.03 15:25:27.
