data_PCOD9465595
_publ_section_title
;
Structure prediction by ZEFSAII (Michael W. Deem and Ramdas Pophale) SiO2 
 PCOD9465595
Probable space group: P N M A
;
_chemical_formula_sum "Si O2"
_cell_formula_units_Z 48
_cell_length_a 17.913126
_cell_length_b 9.591710
_cell_length_c 12.582432
_cell_angle_alpha 90.000000
_cell_angle_beta 90.000000
_cell_angle_gamma 90.000000
_cell_volume 2161.882133
_symmetry_space_group_name_H-M "P N M A"
_symmetry_group_IT_number 62
_symmetry_cell_setting 'orthorhombic'
loop_
_space_group_symop_operation_xyz
x,y,z
1/2-x,-y,1/2+z
1/2+x,1/2-y,1/2-z
-x,1/2+y,-z
-x,-y,-z
1/2+x,y,1/2-z
1/2-x,1/2+y,1/2+z
x,1/2-y,z
loop_
_atom_site_type_symbol
_atom_site_label
_atom_site_fract_x
_atom_site_fract_y
_atom_site_fract_z
Si Si1 0.028159 0.417991 0.814606
Si Si2 0.663802 0.589725 0.703031
Si Si3 0.514092 0.091034 0.104698
Si Si4 0.634402 0.907310 0.374859
Si Si5 0.173945 0.000358 0.358371
Si Si6 0.771716 0.092911 0.424045
O O1 0.033408 0.250000 0.801218
O O2 0.105514 0.486061 0.852836
O O3 0.014905 0.501494 0.704571
O O4 0.952917 0.446169 0.882164
O O5 0.638075 0.750000 0.696612
O O6 0.747749 0.577060 0.659793
O O7 0.675521 0.545795 0.826922
O O8 0.484461 0.250000 0.099319
O O9 0.603224 0.097147 0.121467
O O10 0.500000 0.000000 0.000000
O O11 0.643343 0.750000 0.413654
O O12 0.654353 0.915347 0.248434
O O13 0.696543 0.003608 0.426734
O O14 0.185994 0.912721 0.464917
O O15 0.749904 0.250000 0.397017
#
# Coordination Sequence:
#
# PCOD9465595 Si02
#       6
#     8   8   8   8   8   8
#     4  10  21  37  56  80 111 148 188 232 283 338
#     4  10  21  37  58  85 114 147 189 236 282 334
#     4  11  22  36  57  85 116 150 188 233 285 341
#     4   9  20  37  57  81 112 147 185 231 282 336
#     4  10  21  37  59  85 115 150 190 233 281 337
#     4  10  21  36  57  84 113 146 187 233 284 340
#
# _framework density 22.202877000000001
#
# number of rings (size 3 to 8) (size 9 to 14) (size 15 to 20)
#    0.000    2.000    0.000    3.000    0.000   12.667 
#    0.000    0.833    0.000    0.000    0.000    0.000 
#    0.000    0.000    0.000    0.000    0.000    0.000 
#
# Total GULP energy -268101.077314 kJ/mol
# GULP energy per Si atom -5585.439111 kJ/mol
# Density = 2.215234 g / cm^3
# Si number density = 22.202877 Si / 1000 Ang^3
#
#
#
# Elastic Constant Matrix: (Units=GPa)
#
#
# Indices 1 2 3 4 5 6 
#
# 1 159.3119 53.3098 10.5064 0.0000 0.0000 0.0000
# 2 53.3098 96.5749 -4.5289 0.0000 0.0000 0.0000
# 3 10.5064 -4.5289 59.3080 0.0000 0.0000 0.0000
# 4 0.0000 0.0000 0.0000 -0.0623 0.0000 0.0000
# 5 0.0000 0.0000 0.0000 0.0000 25.2718 0.0000
# 6 0.0000 0.0000 0.0000 0.0000 0.0000 30.4827
#
#
#
# Elastic Compliance Matrix: (Units=1/GPa)
#
#
# Indices 1 2 3 4 5 6 
#
# 1 0.007873 -0.004427 -0.001733 0.000000 0.000000 0.000000
# 2 -0.004427 0.012881 0.001768 0.000000 0.000000 0.000000
# 3 -0.001733 0.001768 0.017303 0.000000 0.000000 0.000000
# 4 0.000000 0.000000 0.000000-16.057776 0.000000 0.000000
# 5 0.000000 0.000000 0.000000 0.000000 0.039570 0.000000
# 6 0.000000 0.000000 0.000000 0.000000 0.000000 0.032805
#
#
# Mechanical properties :
#
#
# Convention : Reuss Voigt Hill
#
# Bulk Modulus (GPa) = 34.16072 48.19660 41.17866
# Shear Modulus (GPa) = -0.31390 28.19894 13.94252
#
# Velocity S-wave (km/s) = -0.37641 3.56765 2.50863
# Velocity P-wave (km/s) = 3.90259 6.22297 5.19401
#
# Compressibility (1/GPa) = 0.02927338
#
# Stress axis : x y z
#
# Youngs Moduli (GPa) = 127.02206 77.63200 57.79323
#
# Poissons Ratio (x) = 0.34368 0.10014
# Poissons Ratio (y) = 0.56233 -0.10217
# Poissons Ratio (z) = 0.22009 -0.13724
#
# Static dielectric constant tensor:
#      x y z
#    x 1.849750 0.000000 0.000000 
#    y 0.000000 1.780450 0.000000 
#    z 0.000000 0.000000 1.864370 
# 
# From -- ./inp_files/19650.got.cif
#   From: 2010.05.17/outbox.cif.g08.bks.cpg/sg62_10_cif.got.tgz:19650.got - 2010.06.03 15:25:27.
