data_PCOD9465568
_publ_section_title
;
Structure prediction by ZEFSAII (Michael W. Deem and Ramdas Pophale) SiO2 
 PCOD9465568
Probable space group: P N M A
;
_chemical_formula_sum "Si O2"
_cell_formula_units_Z 48
_cell_length_a 12.316162
_cell_length_b 8.792719
_cell_length_c 23.637993
_cell_angle_alpha 90.000000
_cell_angle_beta 90.000000
_cell_angle_gamma 90.000000
_cell_volume 2559.818577
_symmetry_space_group_name_H-M "P N M A"
_symmetry_group_IT_number 62
_symmetry_cell_setting 'orthorhombic'
loop_
_space_group_symop_operation_xyz
x,y,z
1/2-x,-y,1/2+z
1/2+x,1/2-y,1/2-z
-x,1/2+y,-z
-x,-y,-z
1/2+x,y,1/2-z
1/2-x,1/2+y,1/2+z
x,1/2-y,z
loop_
_atom_site_type_symbol
_atom_site_label
_atom_site_fract_x
_atom_site_fract_y
_atom_site_fract_z
Si Si1 0.331234 0.567322 0.849927
Si Si2 0.494600 0.067121 0.625302
Si Si3 0.266937 0.433733 0.580109
Si Si4 0.650733 0.432355 0.727120
Si Si5 0.672912 0.932283 0.547103
Si Si6 0.417605 0.067948 0.153568
O O1 0.325530 0.750000 0.841926
O O2 0.263346 0.487390 0.800368
O O3 0.268678 0.531465 0.908353
O O4 0.456504 0.521249 0.851804
O O5 0.497378 0.250000 0.623702
O O6 0.369878 0.019942 0.618865
O O7 0.556686 0.018935 0.682391
O O8 0.564938 0.006776 0.572648
O O9 0.258188 0.250000 0.581660
O O10 0.295734 0.479499 0.516014
O O11 0.157359 0.504635 0.603674
O O12 0.650140 0.250000 0.731380
O O13 0.628473 0.504270 0.787604
O O14 0.657957 0.750000 0.546814
O O15 0.413338 0.250000 0.153723
#
# Coordination Sequence:
#
# PCOD9465568 Si02
#       6
#     8   8   8   8   8   8
#     4   9  20  39  58  80 111 147 187 229 279 334
#     4   9  19  35  56  84 113 143 182 231 281 332
#     4  10  21  36  55  84 117 148 186 229 278 332
#     4  10  21  37  58  81 108 143 185 233 283 334
#     4   9  18  35  59  83 112 149 186 229 277 330
#     4  11  24  38  54  80 112 148 189 232 277 332
#
# _framework density 18.751328999999998
#
# number of rings (size 3 to 8) (size 9 to 14) (size 15 to 20)
#    0.000    2.333    0.000    1.500    2.333    4.000 
#    0.000    0.000    0.000    0.000    0.000    0.000 
#    0.000    0.000    0.000    0.000    0.000    0.000 
#
# Total GULP energy -268026.891854 kJ/mol
# GULP energy per Si atom -5583.893580 kJ/mol
# Density = 1.870865 g / cm^3
# Si number density = 18.751329 Si / 1000 Ang^3
#
#
#
# Elastic Constant Matrix: (Units=GPa)
#
#
# Indices 1 2 3 4 5 6 
#
# 1 100.4265 17.5100 -3.7057 0.0000 0.0000 0.0000
# 2 17.5100 10.4337 4.8877 0.0000 0.0000 0.0000
# 3 -3.7057 4.8877 29.3844 0.0000 0.0000 0.0000
# 4 0.0000 0.0000 0.0000 25.3875 0.0000 0.0000
# 5 0.0000 0.0000 0.0000 0.0000 12.7223 0.0000
# 6 0.0000 0.0000 0.0000 0.0000 0.0000 25.6386
#
#
#
# Elastic Compliance Matrix: (Units=1/GPa)
#
#
# Indices 1 2 3 4 5 6 
#
# 1 0.015196 -0.028631 0.006679 0.000000 0.000000 0.000000
# 2 -0.028631 0.157885 -0.029873 0.000000 0.000000 0.000000
# 3 0.006679 -0.029873 0.039843 0.000000 0.000000 0.000000
# 4 0.000000 0.000000 0.000000 0.039389 0.000000 0.000000
# 5 0.000000 0.000000 0.000000 0.000000 0.078602 0.000000
# 6 0.000000 0.000000 0.000000 0.000000 0.000000 0.039004
#
#
# Mechanical properties :
#
#
# Convention : Reuss Voigt Hill
#
# Bulk Modulus (GPa) = 9.15122 19.73650 14.44386
# Shear Modulus (GPa) = 9.80405 20.85320 15.32862
#
# Velocity S-wave (km/s) = 2.28906 3.33842 2.86224
# Velocity P-wave (km/s) = 3.44635 5.04067 4.31773
#
# Compressibility (1/GPa) = 0.10927500
#
# Stress axis : x y z
#
# Youngs Moduli (GPa) = 65.80731 6.33371 25.09865
#
# Poissons Ratio (x) = 0.18134 -0.16763
# Poissons Ratio (y) = 1.88410 0.74976
# Poissons Ratio (z) = -0.43950 0.18920
#
# Static dielectric constant tensor:
#      x y z
#    x 1.640190 0.000000 0.000000 
#    y 0.000000 1.626140 0.000000 
#    z 0.000000 0.000000 1.634160 
# 
# From -- ./inp_files/29252.got.cif
#   From: 2010.05.17/outbox.cif.g08.bks.cpg/sg62_15_cif.got.tgz:29252.got - 2010.06.03 15:25:27.
