data_PCOD9465324
_publ_section_title
;
Structure prediction by ZEFSAII (Michael W. Deem and Ramdas Pophale) SiO2 
 PCOD9465324
Probable space group: P N M A
;
_chemical_formula_sum "Si O2"
_cell_formula_units_Z 56
_cell_length_a 16.080053
_cell_length_b 7.770052
_cell_length_c 19.838893
_cell_angle_alpha 90.000000
_cell_angle_beta 90.000000
_cell_angle_gamma 90.000000
_cell_volume 2478.727792
_symmetry_space_group_name_H-M "P N M A"
_symmetry_group_IT_number 62
_symmetry_cell_setting 'orthorhombic'
loop_
_space_group_symop_operation_xyz
x,y,z
1/2-x,-y,1/2+z
1/2+x,1/2-y,1/2-z
-x,1/2+y,-z
-x,-y,-z
1/2+x,y,1/2-z
1/2-x,1/2+y,1/2+z
x,1/2-y,z
loop_
_atom_site_type_symbol
_atom_site_label
_atom_site_fract_x
_atom_site_fract_y
_atom_site_fract_z
Si Si1 0.319323 0.542452 0.421933
Si Si2 0.405425 0.052808 0.008814
Si Si3 0.495790 0.952191 0.212034
Si Si4 0.501244 0.956622 0.633577
Si Si5 0.831462 0.558459 0.356985
Si Si6 0.838540 0.050218 0.642891
Si Si7 0.328893 0.545548 0.573176
O O1 0.308135 0.750000 0.421800
O O2 0.413810 0.502736 0.403706
O O3 0.254512 0.475464 0.364941
O O4 0.304268 0.478950 0.498656
O O5 0.397393 0.250000 0.032557
O O6 0.365676 0.045934 0.935376
O O7 0.500000 0.000000 0.000000
O O8 0.365913 0.939210 0.066701
O O9 0.495068 0.750000 0.190609
O O10 0.408222 0.025250 0.183872
O O11 0.582727 0.026446 0.182921
O O12 0.496686 0.967394 0.291723
O O13 0.495814 0.750000 0.639174
O O14 0.418867 0.021040 0.595374
O O15 0.819219 0.750000 0.329090
O O16 0.740146 0.482158 0.369015
O O17 0.831331 0.250000 0.666049
O O18 0.336247 0.750000 0.564563
#
# Coordination Sequence:
#
# PCOD9465324 Si02
#       7
#     8   8   8   8   8   8   8
#     4  10  20  39  66  90 115 156 197 241 304 360
#     4  11  19  33  56  87 125 159 193 242 300 355
#     4  10  22  41  60  84 121 163 201 236 288 367
#     4  11  25  42  59  85 119 158 204 253 300 347
#     4  11  22  36  60  93 122 155 201 246 296 360
#     4   9  18  35  60  87 117 152 194 237 290 356
#     4  10  22  41  64  89 121 156 193 248 312 357
#
# _framework density 22.592234000000001
#
# number of rings (size 3 to 8) (size 9 to 14) (size 15 to 20)
#    0.000    1.714    2.857    1.714    0.000    4.000 
#    0.000    5.000    0.000    0.000    0.000    0.000 
#    0.000    0.000    0.000    0.000    0.000    0.000 
#
# Total GULP energy -312491.537574 kJ/mol
# GULP energy per Si atom -5580.206028 kJ/mol
# Density = 2.254081 g / cm^3
# Si number density = 22.592234 Si / 1000 Ang^3
#
#
#
# Elastic Constant Matrix: (Units=GPa)
#
#
# Indices 1 2 3 4 5 6 
#
# 1 188.8911 -2.4046 38.7023 0.0000 0.0000 0.0000
# 2 -2.4046 36.2532 -3.3047 0.0000 0.0000 0.0000
# 3 38.7023 -3.3047 63.9300 0.0000 0.0000 0.0000
# 4 0.0000 0.0000 0.0000 -21.5633 0.0000 0.0000
# 5 0.0000 0.0000 0.0000 0.0000 26.6063 0.0000
# 6 0.0000 0.0000 0.0000 0.0000 0.0000 -5.9344
#
#
#
# Elastic Compliance Matrix: (Units=1/GPa)
#
#
# Indices 1 2 3 4 5 6 
#
# 1 0.006044 0.000068 -0.003655 0.000000 0.000000 0.000000
# 2 0.000068 0.027715 0.001392 0.000000 0.000000 0.000000
# 3 -0.003655 0.001392 0.017927 0.000000 0.000000 0.000000
# 4 0.000000 0.000000 0.000000 -0.046375 0.000000 0.000000
# 5 0.000000 0.000000 0.000000 0.000000 0.037585 0.000000
# 6 0.000000 0.000000 0.000000 0.000000 0.000000 -0.168508
#
#
# Mechanical properties :
#
#
# Convention : Reuss Voigt Hill
#
# Bulk Modulus (GPa) = 21.14433 39.45114 30.29773
# Shear Modulus (GPa) = -47.41351 16.89379 -15.25986
#
# Velocity S-wave (km/s) = -4.58609 2.73750 -2.60176
# Velocity P-wave (km/s) = 4.32013 5.24329 2.10102
#
# Compressibility (1/GPa) = 0.04729400
#
# Stress axis : x y z
#
# Youngs Moduli (GPa) = 165.45668 36.08137 55.78184
#
# Poissons Ratio (x) = -0.00244 0.20390
# Poissons Ratio (y) = -0.01120 -0.07763
# Poissons Ratio (z) = 0.60481 -0.05022
#
# Static dielectric constant tensor:
#      x y z
#    x 1.906210 0.000000 0.000000 
#    y 0.000000 1.847790 0.000000 
#    z 0.000000 0.000000 1.769100 
# 
# From -- ./inp_files/27204.got.cif
#   From: 2010.05.17/outbox.cif.g08.bks.cpg/sg62_14_cif.got.tgz:27204.got - 2010.06.03 15:25:27.
