data_PCOD9465113
_publ_section_title
;
Structure prediction by ZEFSAII (Michael W. Deem and Ramdas Pophale) SiO2 
 PCOD9465113
Probable space group: P N M A
;
_chemical_formula_sum "Si O2"
_cell_formula_units_Z 64
_cell_length_a 9.296889
_cell_length_b 11.605137
_cell_length_c 30.361021
_cell_angle_alpha 90.000000
_cell_angle_beta 90.000000
_cell_angle_gamma 90.000000
_cell_volume 3275.701274
_symmetry_space_group_name_H-M "P N M A"
_symmetry_group_IT_number 62
_symmetry_cell_setting 'orthorhombic'
loop_
_space_group_symop_operation_xyz
x,y,z
1/2-x,-y,1/2+z
1/2+x,1/2-y,1/2-z
-x,1/2+y,-z
-x,-y,-z
1/2+x,y,1/2-z
1/2-x,1/2+y,1/2+z
x,1/2-y,z
loop_
_atom_site_type_symbol
_atom_site_label
_atom_site_fract_x
_atom_site_fract_y
_atom_site_fract_z
Si Si1 0.544900 0.880218 0.701933
Si Si2 0.988312 0.043262 0.105238
Si Si3 0.440059 0.625305 0.513300
Si Si4 0.259463 0.887341 0.106996
Si Si5 0.461950 0.612936 0.030029
Si Si6 0.074116 0.115941 0.691878
Si Si7 0.255196 0.875716 0.431953
Si Si8 0.807278 0.485447 0.744383
O O1 0.539737 0.750000 0.717583
O O2 0.406847 0.945580 0.721393
O O3 0.691804 0.937238 0.718809
O O4 0.539155 0.888470 0.649447
O O5 0.105505 0.944294 0.113491
O O6 0.843485 0.978558 0.089460
O O7 0.054560 0.118529 0.065707
O O8 0.500000 0.500000 0.500000
O O9 0.512211 0.750000 0.501036
O O10 0.296162 0.627743 0.484120
O O11 0.249124 0.750000 0.111794
O O12 0.316523 0.909421 0.057463
O O13 0.365695 0.932104 0.145527
O O14 0.458539 0.750000 0.013153
O O15 0.585368 0.613644 0.067558
O O16 0.500000 0.500000 0.000000
O O17 0.047566 0.250000 0.685584
O O18 0.203622 0.098623 0.727329
O O19 0.925695 0.065055 0.710771
O O20 0.297286 0.750000 0.413382
#
# Coordination Sequence:
#
# PCOD9465113 Si02
#       8
#     8   8   8   8   8   8   8   8
#     4  11  23  40  61  84 116 157 205 250 298 357
#     4  11  20  35  57  89 116 153 196 247 292 350
#     4   9  18  33  54  80 114 147 188 239 289 343
#     4  10  21  36  57  86 123 157 191 240 299 364
#     4  10  21  39  61  84 119 162 203 247 302 361
#     4  10  20  38  61  92 121 150 192 244 304 367
#     4   9  19  35  57  84 114 153 192 236 294 357
#     4  10  22  40  62  85 117 156 195 244 307 362
#
# _framework density 19.537801999999999
#
# number of rings (size 3 to 8) (size 9 to 14) (size 15 to 20)
#    0.000    2.000    1.250    2.250    1.750    0.500 
#    0.000    7.500    0.000    0.000    0.000    0.000 
#    0.000    0.000    0.000    0.000    0.000    0.000 
#
# Total GULP energy -356295.266705 kJ/mol
# GULP energy per Si atom -5567.113542 kJ/mol
# Density = 1.949333 g / cm^3
# Si number density = 19.537802 Si / 1000 Ang^3
#
#
#
# Elastic Constant Matrix: (Units=GPa)
#
#
# Indices 1 2 3 4 5 6 
#
# 1 75.2912 13.1035 4.2607 0.0000 0.0000 0.0000
# 2 13.1035 77.8992 12.6039 0.0000 0.0000 0.0000
# 3 4.2607 12.6039 61.2938 0.0000 0.0000 0.0000
# 4 0.0000 0.0000 0.0000 21.6768 0.0000 0.0000
# 5 0.0000 0.0000 0.0000 0.0000 24.8157 0.0000
# 6 0.0000 0.0000 0.0000 0.0000 0.0000 6.3463
#
#
#
# Elastic Compliance Matrix: (Units=1/GPa)
#
#
# Indices 1 2 3 4 5 6 
#
# 1 0.013697 -0.002224 -0.000495 0.000000 0.000000 0.000000
# 2 -0.002224 0.013640 -0.002650 0.000000 0.000000 0.000000
# 3 -0.000495 -0.002650 0.016894 0.000000 0.000000 0.000000
# 4 0.000000 0.000000 0.000000 0.046132 0.000000 0.000000
# 5 0.000000 0.000000 0.000000 0.000000 0.040297 0.000000
# 6 0.000000 0.000000 0.000000 0.000000 0.000000 0.157573
#
#
# Mechanical properties :
#
#
# Convention : Reuss Voigt Hill
#
# Bulk Modulus (GPa) = 29.85681 30.49115 30.17398
# Shear Modulus (GPa) = 16.12198 22.86883 19.49541
#
# Velocity S-wave (km/s) = 2.87569 3.42496 3.16227
# Velocity P-wave (km/s) = 5.13234 5.59290 5.36756
#
# Compressibility (1/GPa) = 0.03349320
#
# Stress axis : x y z
#
# Youngs Moduli (GPa) = 73.00974 73.31385 59.19184
#
# Poissons Ratio (x) = 0.16304 0.02929
# Poissons Ratio (y) = 0.16237 0.15687
# Poissons Ratio (z) = 0.03613 0.19430
#
# Static dielectric constant tensor:
#      x y z
#    x 1.686080 0.000000 0.000000 
#    y 0.000000 1.096090 0.000000 
#    z 0.000000 0.000000 1.725860 
# 
# From -- ./inp_files/32237.got.cif
#   From: 2010.05.17/outbox.cif.g08.bks.cpg/sg62_17_cif.got.tgz:32237.got - 2010.06.03 15:25:27.
