data_PCOD9465099
_publ_section_title
;
Structure prediction by ZEFSAII (Michael W. Deem and Ramdas Pophale) SiO2 
 PCOD9465099
Probable space group: P N M A
;
_chemical_formula_sum "Si O2"
_cell_formula_units_Z 64
_cell_length_a 13.407441
_cell_length_b 8.491514
_cell_length_c 28.971763
_cell_angle_alpha 90.000000
_cell_angle_beta 90.000000
_cell_angle_gamma 90.000000
_cell_volume 3298.419948
_symmetry_space_group_name_H-M "P N M A"
_symmetry_group_IT_number 62
_symmetry_cell_setting 'orthorhombic'
loop_
_space_group_symop_operation_xyz
x,y,z
1/2-x,-y,1/2+z
1/2+x,1/2-y,1/2-z
-x,1/2+y,-z
-x,-y,-z
1/2+x,y,1/2-z
1/2-x,1/2+y,1/2+z
x,1/2-y,z
loop_
_atom_site_type_symbol
_atom_site_label
_atom_site_fract_x
_atom_site_fract_y
_atom_site_fract_z
Si Si1 0.116119 0.559589 0.549483
Si Si2 0.511436 0.558394 0.642133
Si Si3 0.720883 0.075832 0.801199
Si Si4 0.401293 0.438287 0.941586
Si Si5 0.733784 0.561470 0.627535
Si Si6 0.200656 0.066000 0.109468
Si Si7 0.646890 0.927821 0.211853
Si Si8 0.038392 0.567966 0.750864
O O1 0.113049 0.750000 0.553140
O O2 0.114803 0.517538 0.495313
O O3 0.217902 0.501080 0.573471
O O4 0.013008 0.495399 0.571107
O O5 0.505740 0.750000 0.641373
O O6 0.618215 0.512393 0.620523
O O7 0.411248 0.498678 0.616730
O O8 0.514548 0.515378 0.696618
O O9 0.713919 0.250000 0.822310
O O10 0.804975 0.076696 0.762278
O O11 0.747329 0.953343 0.840787
O O12 0.622981 0.033931 0.772865
O O13 0.397788 0.250000 0.937576
O O14 0.313144 0.510012 0.910958
O O15 0.734766 0.750000 0.631808
O O16 0.773260 0.486069 0.674945
O O17 0.188512 0.250000 0.097893
O O18 0.613840 0.750000 0.199708
O O19 0.556142 0.046753 0.217647
O O20 0.069922 0.750000 0.753412
#
# Coordination Sequence:
#
# PCOD9465099 Si02
#       8
#     8   8   8   8   8   8   8   8
#     4   9  20  39  64  88 112 146 186 232 287 346
#     4   9  19  35  57  82 110 147 192 239 277 324
#     4  11  23  36  52  80 117 152 187 232 286 336
#     4  10  21  39  61  87 117 146 181 233 293 344
#     4  11  22  38  59  84 112 150 196 233 280 344
#     4  10  20  38  61  84 110 147 196 239 279 335
#     4  11  23  37  53  79 114 151 190 236 285 330
#     4  11  21  36  56  77 107 152 197 236 279 330
#
# _framework density 19.403230000000001
#
# number of rings (size 3 to 8) (size 9 to 14) (size 15 to 20)
#    0.000    1.750    2.500    1.875    1.750    2.000 
#    0.000    1.875    0.000    0.000    0.000    0.000 
#    0.000    0.000    0.000    0.000    0.000    0.000 
#
# Total GULP energy -357015.720364 kJ/mol
# GULP energy per Si atom -5578.370631 kJ/mol
# Density = 1.935907 g / cm^3
# Si number density = 19.403230 Si / 1000 Ang^3
#
#
#
# Elastic Constant Matrix: (Units=GPa)
#
#
# Indices 1 2 3 4 5 6 
#
# 1 117.6013 3.1735 23.3904 0.0000 0.0000 0.0000
# 2 3.1735 20.6863 0.3771 0.0000 0.0000 0.0000
# 3 23.3904 0.3771 39.8652 0.0000 0.0000 0.0000
# 4 0.0000 0.0000 0.0000 10.1443 0.0000 0.0000
# 5 0.0000 0.0000 0.0000 0.0000 33.8944 0.0000
# 6 0.0000 0.0000 0.0000 0.0000 0.0000 -1.9812
#
#
#
# Elastic Compliance Matrix: (Units=1/GPa)
#
#
# Indices 1 2 3 4 5 6 
#
# 1 0.009666 -0.001380 -0.005658 0.000000 0.000000 0.000000
# 2 -0.001380 0.048546 0.000350 0.000000 0.000000 0.000000
# 3 -0.005658 0.000350 0.028401 0.000000 0.000000 0.000000
# 4 0.000000 0.000000 0.000000 0.098578 0.000000 0.000000
# 5 0.000000 0.000000 0.000000 0.000000 0.029503 0.000000
# 6 0.000000 0.000000 0.000000 0.000000 0.000000 -0.504738
#
#
# Mechanical properties :
#
#
# Convention : Reuss Voigt Hill
#
# Bulk Modulus (GPa) = 13.65409 25.78162 19.71786
# Shear Modulus (GPa) = -19.82118 18.49228 -0.66445
#
# Velocity S-wave (km/s) = -3.19962 3.09050 -0.58582
# Velocity P-wave (km/s) = 2.56862 5.10402 3.11875
#
# Compressibility (1/GPa) = 0.07323812
#
# Stress axis : x y z
#
# Youngs Moduli (GPa) = 103.45589 20.59887 35.20984
#
# Poissons Ratio (x) = 0.02842 0.19923
# Poissons Ratio (y) = 0.14274 -0.01234
# Poissons Ratio (z) = 0.58539 -0.00722
#
# Static dielectric constant tensor:
#      x y z
#    x 1.721500 0.000000 0.000000 
#    y 0.000000 1.674040 0.000000 
#    z 0.000000 0.000000 1.656680 
# 
# From -- ./inp_files/32526.got.cif
#   From: 2010.05.17/outbox.cif.g08.bks.cpg/sg62_17_cif.got.tgz:32526.got - 2010.06.03 15:25:27.
