data_PCOD9465577
_publ_section_title
;
Structure prediction by ZEFSAII (Michael W. Deem and Ramdas Pophale) SiO2 
 PCOD9465577
Probable space group: P N M A
;
_chemical_formula_sum "Si O2"
_cell_formula_units_Z 56
_cell_length_a 14.104107
_cell_length_b 7.559824
_cell_length_c 20.055025
_cell_angle_alpha 90.000000
_cell_angle_beta 90.000000
_cell_angle_gamma 90.000000
_cell_volume 2138.358349
_symmetry_space_group_name_H-M "P N M A"
_symmetry_group_IT_number 62
_symmetry_cell_setting 'orthorhombic'
loop_
_space_group_symop_operation_xyz
x,y,z
1/2-x,-y,1/2+z
1/2+x,1/2-y,1/2-z
-x,1/2+y,-z
-x,-y,-z
1/2+x,y,1/2-z
1/2-x,1/2+y,1/2+z
x,1/2-y,z
loop_
_atom_site_type_symbol
_atom_site_label
_atom_site_fract_x
_atom_site_fract_y
_atom_site_fract_z
Si Si1 0.950246 0.038125 0.930257
Si Si2 0.890780 0.040862 0.418300
Si Si3 0.723757 0.962445 0.505071
Si Si4 0.266946 0.466210 0.207462
Si Si5 0.543788 0.546006 0.289650
Si Si6 0.427357 0.042972 0.852026
Si Si7 0.211865 0.548643 0.852901
O O1 0.947218 0.250000 0.922311
O O2 0.843904 0.971559 0.945829
O O3 0.990020 0.967129 0.860219
O O4 0.000000 0.000000 0.000000
O O5 0.897168 0.250000 0.412163
O O6 0.829068 0.972768 0.355040
O O7 0.830659 0.000631 0.484087
O O8 0.996491 0.970502 0.410323
O O9 0.714100 0.750000 0.509031
O O10 0.688086 0.037299 0.575917
O O11 0.321771 0.250000 0.352318
O O12 0.158894 0.534624 0.204459
O O13 0.308270 0.526063 0.279583
O O14 0.513494 0.750000 0.287399
O O15 0.524369 0.470151 0.216438
O O16 0.404662 0.250000 0.842102
O O17 0.327116 0.949015 0.858890
O O18 0.737118 0.750000 0.791846
#
# Coordination Sequence:
#
# PCOD9465577 Si02
#       7
#     8   8   8   8   8   8   8
#     4  10  21  36  56  83 114 149 186 227 278 336
#     4  11  22  35  56  85 114 146 188 234 279 334
#     4  10  21  38  59  81 111 152 188 228 282 337
#     4   9  18  33  55  80 105 139 183 231 279 327
#     4   9  18  35  56  78 106 140 182 226 273 328
#     4  10  21  36  56  82 111 147 187 231 281 330
#     4   9  19  37  58  81 111 145 187 234 281 331
#
# _framework density 26.188316
#
# number of rings (size 3 to 8) (size 9 to 14) (size 15 to 20)
#    0.000    2.286    1.429    0.857    0.000    4.571 
#    0.000    1.429    0.000    0.000    0.000    0.000 
#    0.000    0.000    0.000    0.000    0.000    0.000 
#
# Total GULP energy -313085.063477 kJ/mol
# GULP energy per Si atom -5590.804705 kJ/mol
# Density = 2.612871 g / cm^3
# Si number density = 26.188316 Si / 1000 Ang^3
#
#
#
# Elastic Constant Matrix: (Units=GPa)
#
#
# Indices 1 2 3 4 5 6 
#
# 1 73.2345 4.9410 7.1190 0.0000 0.0000 0.0000
# 2 4.9410 90.7462 6.6751 0.0000 0.0000 0.0000
# 3 7.1190 6.6751 120.5541 0.0000 0.0000 0.0000
# 4 0.0000 0.0000 0.0000 15.1187 0.0000 0.0000
# 5 0.0000 0.0000 0.0000 0.0000 51.1713 0.0000
# 6 0.0000 0.0000 0.0000 0.0000 0.0000 20.1647
#
#
#
# Elastic Compliance Matrix: (Units=1/GPa)
#
#
# Indices 1 2 3 4 5 6 
#
# 1 0.013777 -0.000693 -0.000775 0.000000 0.000000 0.000000
# 2 -0.000693 0.011100 -0.000574 0.000000 0.000000 0.000000
# 3 -0.000775 -0.000574 0.008373 0.000000 0.000000 0.000000
# 4 0.000000 0.000000 0.000000 0.066143 0.000000 0.000000
# 5 0.000000 0.000000 0.000000 0.000000 0.019542 0.000000
# 6 0.000000 0.000000 0.000000 0.000000 0.000000 0.049592
#
#
# Mechanical properties :
#
#
# Convention : Reuss Voigt Hill
#
# Bulk Modulus (GPa) = 34.28741 35.77834 35.03287
# Shear Modulus (GPa) = 27.42254 35.01093 31.21673
#
# Velocity S-wave (km/s) = 3.23945 3.66032 3.45630
# Velocity P-wave (km/s) = 5.20702 5.61743 5.41612
#
# Compressibility (1/GPa) = 0.02916523
#
# Stress axis : x y z
#
# Youngs Moduli (GPa) = 72.58533 90.09264 119.43766
#
# Poissons Ratio (x) = 0.06244 0.09259
# Poissons Ratio (y) = 0.05031 0.06852
# Poissons Ratio (z) = 0.05627 0.05168
#
# Static dielectric constant tensor:
#      x y z
#    x 2.091450 0.000000 0.000000 
#    y 0.000000 1.962550 0.000000 
#    z 0.000000 0.000000 2.124910 
# 
# From -- ./inp_files/27121.got.cif
#   From: 2010.05.17/outbox.cif.g08.bks.cpg/sg62_14_cif.got.tgz:27121.got - 2010.06.03 15:25:27.
