data_PCOD9465803
_publ_section_title
;
Structure prediction by ZEFSAII (Michael W. Deem and Ramdas Pophale) SiO2 
 PCOD9465803
Probable space group: P N M A
;
_chemical_formula_sum "Si O2"
_cell_formula_units_Z 48
_cell_length_a 27.902227
_cell_length_b 8.819003
_cell_length_c 9.628531
_cell_angle_alpha 90.000000
_cell_angle_beta 90.000000
_cell_angle_gamma 90.000000
_cell_volume 2369.290925
_symmetry_space_group_name_H-M "P N M A"
_symmetry_group_IT_number 62
_symmetry_cell_setting 'orthorhombic'
loop_
_space_group_symop_operation_xyz
x,y,z
1/2-x,-y,1/2+z
1/2+x,1/2-y,1/2-z
-x,1/2+y,-z
-x,-y,-z
1/2+x,y,1/2-z
1/2-x,1/2+y,1/2+z
x,1/2-y,z
loop_
_atom_site_type_symbol
_atom_site_label
_atom_site_fract_x
_atom_site_fract_y
_atom_site_fract_z
Si Si1 0.797049 0.068007 0.821833
Si Si2 0.898960 0.574551 0.201887
Si Si3 0.294716 0.932870 0.368968
Si Si4 0.544413 0.076392 0.427147
Si Si5 0.450315 0.070181 0.055110
Si Si6 0.391913 0.566552 0.817943
O O1 0.803010 0.250000 0.825603
O O2 0.750334 0.032354 0.728850
O O3 0.842624 0.993067 0.746089
O O4 0.791681 0.007147 0.978919
O O5 0.902222 0.750000 0.249303
O O6 0.844204 0.520854 0.207021
O O7 0.936897 0.478346 0.288911
O O8 0.913173 0.572377 0.040165
O O9 0.297349 0.750000 0.387275
O O10 0.531357 0.250000 0.400001
O O11 0.565539 0.012451 0.285531
O O12 0.500000 0.000000 0.500000
O O13 0.452810 0.250000 0.042196
O O14 0.500000 0.000000 0.000000
O O15 0.406558 0.001595 0.965095
O O16 0.391471 0.750000 0.821782
#
# Coordination Sequence:
#
# PCOD9465803 Si02
#       6
#     8   8   8   8   8   8
#     4  11  24  41  66 100 129 165 214 264 318 380
#     4  10  21  42  65  89 124 169 211 259 318 380
#     4  10  23  44  66  93 129 167 212 261 318 383
#     4  10  21  37  62  90 118 157 203 251 310 371
#     4  12  26  43  63  95 130 170 217 265 317 382
#     4  11  23  43  66  91 127 171 210 260 321 378
#
# _framework density 20.259226999999999
#
# number of rings (size 3 to 8) (size 9 to 14) (size 15 to 20)
#    0.000    1.333    1.667    3.500    2.333    6.667 
#    0.000    0.000    0.000    0.000    0.000    0.000 
#    0.000    0.000    0.000    0.000    0.000    0.000 
#
# Total GULP energy -268289.709173 kJ/mol
# GULP energy per Si atom -5589.368941 kJ/mol
# Density = 2.021312 g / cm^3
# Si number density = 20.259227 Si / 1000 Ang^3
#
#
#
# Elastic Constant Matrix: (Units=GPa)
#
#
# Indices 1 2 3 4 5 6 
#
# 1 95.8110 31.7172 10.8523 0.0000 0.0000 0.0000
# 2 31.7172 71.1533 22.1667 0.0000 0.0000 0.0000
# 3 10.8523 22.1667 70.0833 0.0000 0.0000 0.0000
# 4 0.0000 0.0000 0.0000 34.4532 0.0000 0.0000
# 5 0.0000 0.0000 0.0000 0.0000 36.0904 0.0000
# 6 0.0000 0.0000 0.0000 0.0000 0.0000 30.1828
#
#
#
# Elastic Compliance Matrix: (Units=1/GPa)
#
#
# Indices 1 2 3 4 5 6 
#
# 1 0.012246 -0.005400 -0.000188 0.000000 0.000000 0.000000
# 2 -0.005400 0.017972 -0.004848 0.000000 0.000000 0.000000
# 3 -0.000188 -0.004848 0.015831 0.000000 0.000000 0.000000
# 4 0.000000 0.000000 0.000000 0.029025 0.000000 0.000000
# 5 0.000000 0.000000 0.000000 0.000000 0.027708 0.000000
# 6 0.000000 0.000000 0.000000 0.000000 0.000000 0.033131
#
#
# Mechanical properties :
#
#
# Convention : Reuss Voigt Hill
#
# Bulk Modulus (GPa) = 39.72018 40.72442 40.22230
# Shear Modulus (GPa) = 30.27022 31.63270 30.95146
#
# Velocity S-wave (km/s) = 3.86961 3.95574 3.91291
# Velocity P-wave (km/s) = 6.29394 6.40384 6.34913
#
# Compressibility (1/GPa) = 0.02517612
#
# Stress axis : x y z
#
# Youngs Moduli (GPa) = 81.65786 55.64309 63.16608
#
# Poissons Ratio (x) = 0.30048 0.01189
# Poissons Ratio (y) = 0.44097 0.30623
# Poissons Ratio (z) = 0.01537 0.26976
#
# Static dielectric constant tensor:
#      x y z
#    x 1.728430 0.000000 0.000000 
#    y 0.000000 1.725760 0.000000 
#    z 0.000000 0.000000 1.703970 
# 
# From -- ./inp_files/10164.got.cif
#   From: 2010.05.17/outbox.cif.g08.bks.cpg/sg62_6_cif.got.tgz:10164.got - 2010.06.03 15:25:27.
