data_PCOD9465298
_publ_section_title
;
Structure prediction by ZEFSAII (Michael W. Deem and Ramdas Pophale) SiO2 
 PCOD9465298
Probable space group: P N M A
;
_chemical_formula_sum "Si O2"
_cell_formula_units_Z 64
_cell_length_a 12.306007
_cell_length_b 18.596948
_cell_length_c 13.184631
_cell_angle_alpha 90.000000
_cell_angle_beta 90.000000
_cell_angle_gamma 90.000000
_cell_volume 3017.357814
_symmetry_space_group_name_H-M "P N M A"
_symmetry_group_IT_number 62
_symmetry_cell_setting 'orthorhombic'
loop_
_space_group_symop_operation_xyz
x,y,z
1/2-x,-y,1/2+z
1/2+x,1/2-y,1/2-z
-x,1/2+y,-z
-x,-y,-z
1/2+x,y,1/2-z
1/2-x,1/2+y,1/2+z
x,1/2-y,z
loop_
_atom_site_type_symbol
_atom_site_label
_atom_site_fract_x
_atom_site_fract_y
_atom_site_fract_z
Si Si1 0.869227 0.165125 0.465846
Si Si2 0.592288 0.023601 0.277941
Si Si3 0.352238 0.831900 0.636493
Si Si4 0.238397 0.564234 0.367422
Si Si5 0.811552 0.045318 0.981993
Si Si6 0.056181 0.422208 0.520194
Si Si7 0.519193 0.667304 0.453631
Si Si8 0.933375 0.904549 0.247614
O O1 0.874713 0.250000 0.484749
O O2 0.776077 0.153641 0.381036
O O3 0.821572 0.121148 0.561826
O O4 0.987823 0.131229 0.448433
O O5 0.597052 0.108276 0.291397
O O6 0.657432 0.992337 0.183069
O O7 0.653475 0.990963 0.376259
O O8 0.475567 0.986232 0.269499
O O9 0.366080 0.750000 0.671672
O O10 0.413970 0.837017 0.527370
O O11 0.320538 0.518296 0.436511
O O12 0.306922 0.601159 0.278712
O O13 0.685732 0.068646 0.986980
O O14 0.891694 0.112138 0.996407
O O15 0.042628 0.391436 0.635058
O O16 0.000000 0.500000 0.500000
O O17 0.555724 0.750000 0.454621
O O18 0.492167 0.643322 0.338201
#
# Coordination Sequence:
#
# PCOD9465298 Si02
#       8
#     8   8   8   8   8   8   8   8
#     4  11  23  39  60  90 124 160 201 245 304 370
#     4  11  20  37  60  91 120 155 209 253 300 362
#     4  10  20  39  64  87 119 161 203 254 310 363
#     4  12  21  38  62  94 118 157 207 254 303 359
#     4  11  22  38  62  89 121 159 202 257 305 362
#     4  12  22  40  59  85 126 166 201 241 300 368
#     4  10  22  40  62  91 126 159 200 259 320 366
#     4  11  22  34  60  91 118 159 203 250 298 364
#
# _framework density 21.210609000000002
#
# number of rings (size 3 to 8) (size 9 to 14) (size 15 to 20)
#    0.000    1.000    6.250    0.750    0.000    3.000 
#    0.000    0.625    0.000    3.000    0.000    0.000 
#    0.000    0.000    0.000    0.000    0.000    0.000 
#
# Total GULP energy -357364.049334 kJ/mol
# GULP energy per Si atom -5583.813271 kJ/mol
# Density = 2.116233 g / cm^3
# Si number density = 21.210609 Si / 1000 Ang^3
#
#
#
# Elastic Constant Matrix: (Units=GPa)
#
#
# Indices 1 2 3 4 5 6 
#
# 1 61.4045 -4.8580 -16.0425 0.0000 0.0000 0.0000
# 2 -4.8580 100.4399 -7.2526 0.0000 0.0000 0.0000
# 3 -16.0425 -7.2526 35.1345 0.0000 0.0000 0.0000
# 4 0.0000 0.0000 0.0000 23.1533 0.0000 0.0000
# 5 0.0000 0.0000 0.0000 0.0000 24.7907 0.0000
# 6 0.0000 0.0000 0.0000 0.0000 0.0000 29.8469
#
#
#
# Elastic Compliance Matrix: (Units=1/GPa)
#
#
# Indices 1 2 3 4 5 6 
#
# 1 0.018725 0.001546 0.008869 0.000000 0.000000 0.000000
# 2 0.001546 0.010235 0.002819 0.000000 0.000000 0.000000
# 3 0.008869 0.002819 0.033094 0.000000 0.000000 0.000000
# 4 0.000000 0.000000 0.000000 0.043190 0.000000 0.000000
# 5 0.000000 0.000000 0.000000 0.000000 0.040338 0.000000
# 6 0.000000 0.000000 0.000000 0.000000 0.000000 0.033504
#
#
# Mechanical properties :
#
#
# Convention : Reuss Voigt Hill
#
# Bulk Modulus (GPa) = 11.29685 15.63030 13.46358
# Shear Modulus (GPa) = 27.45368 30.56696 29.01032
#
# Velocity S-wave (km/s) = 3.60159 3.80032 3.70229
# Velocity P-wave (km/s) = 4.75740 5.16156 4.96360
#
# Compressibility (1/GPa) = 0.08852024
#
# Stress axis : x y z
#
# Youngs Moduli (GPa) = 53.40492 97.70870 30.21739
#
# Poissons Ratio (x) = -0.15107 -0.26800
# Poissons Ratio (y) = -0.08257 -0.08517
# Poissons Ratio (z) = -0.47365 -0.27540
#
# Static dielectric constant tensor:
#      x y z
#    x 1.794890 0.000000 0.000000 
#    y 0.000000 1.738040 0.000000 
#    z 0.000000 0.000000 1.805680 
# 
# From -- ./inp_files/19231.got.cif
#   From: 2010.05.17/outbox.cif.g08.bks.cpg/sg62_10_cif.got.tgz:19231.got - 2010.06.03 15:25:27.
