data_PCOD9465447
_publ_section_title
;
Structure prediction by ZEFSAII (Michael W. Deem and Ramdas Pophale) SiO2 
 PCOD9465447
Probable space group: P N M A
;
_chemical_formula_sum "Si O2"
_cell_formula_units_Z 40
_cell_length_a 7.251655
_cell_length_b 25.008508
_cell_length_c 8.487496
_cell_angle_alpha 90.000000
_cell_angle_beta 90.000000
_cell_angle_gamma 90.000000
_cell_volume 1539.233474
_symmetry_space_group_name_H-M "P N M A"
_symmetry_group_IT_number 62
_symmetry_cell_setting 'orthorhombic'
loop_
_space_group_symop_operation_xyz
x,y,z
1/2-x,-y,1/2+z
1/2+x,1/2-y,1/2-z
-x,1/2+y,-z
-x,-y,-z
1/2+x,y,1/2-z
1/2-x,1/2+y,1/2+z
x,1/2-y,z
loop_
_atom_site_type_symbol
_atom_site_label
_atom_site_fract_x
_atom_site_fract_y
_atom_site_fract_z
Si Si1 0.996105 0.191563 0.365037
Si Si2 0.976368 0.082921 0.463838
Si Si3 0.914408 0.190642 0.004945
Si Si4 0.144813 0.921644 0.105738
Si Si5 0.118549 0.034169 0.159236
O O1 0.911567 0.250000 0.391021
O O2 0.893938 0.142253 0.446060
O O3 0.199092 0.191116 0.441559
O O4 0.009902 0.184209 0.176330
O O5 0.134381 0.083292 0.594471
O O6 0.100189 0.072259 0.308306
O O7 0.806037 0.043304 0.438813
O O8 0.959133 0.250000 0.940321
O O9 0.934709 0.138669 0.893273
O O10 0.049088 0.947970 0.951568
O O11 0.113416 0.972858 0.217680
#
# Coordination Sequence:
#
# PCOD9465447 Si02
#       5
#     8   8   8   8   8
#     4   9  16  25  41  64  89 118 147 172 217 280
#     4  11  18  33  48  66  97 127 151 187 232 265
#     4   9  16  27  42  62  89 118 147 183 224 272
#     4  10  21  32  45  70  95 120 158 188 225 277
#     4  11  20  31  48  67  94 124 154 191 226 270
#
# _framework density 25.986958000000001
#
# number of rings (size 3 to 8) (size 9 to 14) (size 15 to 20)
#    0.000    2.000    4.000    1.800    0.000    0.000 
#    0.000    0.000    0.000    0.000    0.000    1.400 
#    0.000    0.000    0.000    0.000    0.000    0.000 
#
# Total GULP energy -223290.315490 kJ/mol
# GULP energy per Si atom -5582.257887 kJ/mol
# Density = 2.592781 g / cm^3
# Si number density = 25.986958 Si / 1000 Ang^3
#
#
#
# Elastic Constant Matrix: (Units=GPa)
#
#
# Indices 1 2 3 4 5 6 
#
# 1 96.5009 18.4676 7.2753 0.0000 0.0000 0.0000
# 2 18.4676 252.9173 12.2656 0.0000 0.0000 0.0000
# 3 7.2753 12.2656 28.2043 0.0000 0.0000 0.0000
# 4 0.0000 0.0000 0.0000 10.2058 0.0000 0.0000
# 5 0.0000 0.0000 0.0000 0.0000 11.7548 0.0000
# 6 0.0000 0.0000 0.0000 0.0000 0.0000 30.4206
#
#
#
# Elastic Compliance Matrix: (Units=1/GPa)
#
#
# Indices 1 2 3 4 5 6 
#
# 1 0.010675 -0.000660 -0.002467 0.000000 0.000000 0.000000
# 2 -0.000660 0.004080 -0.001604 0.000000 0.000000 0.000000
# 3 -0.002467 -0.001604 0.036789 0.000000 0.000000 0.000000
# 4 0.000000 0.000000 0.000000 0.097983 0.000000 0.000000
# 5 0.000000 0.000000 0.000000 0.000000 0.085072 0.000000
# 6 0.000000 0.000000 0.000000 0.000000 0.000000 0.032873
#
#
# Mechanical properties :
#
#
# Convention : Reuss Voigt Hill
#
# Bulk Modulus (GPa) = 23.76251 50.40440 37.08346
# Shear Modulus (GPa) = 17.18448 33.11716 25.15082
#
# Velocity S-wave (km/s) = 2.57431 3.57371 3.11436
# Velocity P-wave (km/s) = 4.24264 6.03877 5.21856
#
# Compressibility (1/GPa) = 0.04208309
#
# Stress axis : x y z
#
# Youngs Moduli (GPa) = 93.67830 245.10804 27.18169
#
# Poissons Ratio (x) = 0.16173 0.06705
# Poissons Ratio (y) = 0.06181 0.04360
# Poissons Ratio (z) = 0.23107 0.39317
#
# Static dielectric constant tensor:
#      x y z
#    x 2.013550 0.000000 0.000000 
#    y 0.000000 2.096380 0.000000 
#    z 0.000000 0.000000 2.066700 
# 
# From -- ./inp_files/11368.got.cif
#   From: 2010.05.17/outbox.cif.g08.bks.cpg/sg62_6_cif.got.tgz:11368.got - 2010.06.03 15:25:27.
