data_PCOD9465050
_publ_section_title
;
Structure prediction by ZEFSAII (Michael W. Deem and Ramdas Pophale) SiO2 
 PCOD9465050
Probable space group: P N M A
;
_chemical_formula_sum "Si O2"
_cell_formula_units_Z 56
_cell_length_a 13.888800
_cell_length_b 16.809239
_cell_length_c 12.908948
_cell_angle_alpha 90.000000
_cell_angle_beta 90.000000
_cell_angle_gamma 90.000000
_cell_volume 3013.725048
_symmetry_space_group_name_H-M "P N M A"
_symmetry_group_IT_number 62
_symmetry_cell_setting 'orthorhombic'
loop_
_space_group_symop_operation_xyz
x,y,z
1/2-x,-y,1/2+z
1/2+x,1/2-y,1/2-z
-x,1/2+y,-z
-x,-y,-z
1/2+x,y,1/2-z
1/2-x,1/2+y,1/2+z
x,1/2-y,z
loop_
_atom_site_type_symbol
_atom_site_label
_atom_site_fract_x
_atom_site_fract_y
_atom_site_fract_z
Si Si1 0.083686 0.345429 0.442606
Si Si2 0.994880 0.657270 0.977125
Si Si3 0.712265 0.655105 0.462657
Si Si4 0.031783 0.656322 0.349496
Si Si5 0.082387 0.070518 0.823826
Si Si6 0.441312 0.574472 0.725965
Si Si7 0.703439 0.940527 0.247662
O O1 0.081344 0.250000 0.428644
O O2 0.193789 0.367855 0.471380
O O3 0.049138 0.387661 0.338853
O O4 0.017156 0.364718 0.541374
O O5 0.981342 0.750000 0.003758
O O6 0.109881 0.640951 0.981888
O O7 0.945379 0.601943 0.063048
O O8 0.951809 0.637979 0.865232
O O9 0.719518 0.750000 0.442232
O O10 0.711585 0.608895 0.354266
O O11 0.053827 0.750000 0.347959
O O12 0.125707 0.604838 0.323894
O O13 0.955981 0.635630 0.258755
O O14 0.194369 0.056291 0.807355
O O15 0.022423 0.991548 0.797332
O O16 0.341207 0.526082 0.725007
#
# Coordination Sequence:
#
# PCOD9465050 Si02
#       7
#     8   8   8   8   8   8   8
#     4  10  22  41  63  89 125 168 207 249 303 370
#     4  11  23  42  65  90 121 160 210 261 303 360
#     4  10  20  37  65  91 117 159 206 251 302 364
#     4  10  20  38  63  91 122 157 206 254 301 360
#     4  11  23  39  62  93 123 158 197 262 315 353
#     4  11  25  41  60  87 125 167 207 247 306 376
#     4  11  23  37  61  95 125 159 198 258 312 365
#
# _framework density 18.581655000000001
#
# number of rings (size 3 to 8) (size 9 to 14) (size 15 to 20)
#    0.000    1.429    4.286    1.714    2.000    4.000 
#    2.571    0.000    0.000    0.000    0.000    0.000 
#    0.000    0.000    0.000    0.000    0.000    0.000 
#
# Total GULP energy -312894.816913 kJ/mol
# GULP energy per Si atom -5587.407445 kJ/mol
# Density = 1.853936 g / cm^3
# Si number density = 18.581655 Si / 1000 Ang^3
#
#
#
# Elastic Constant Matrix: (Units=GPa)
#
#
# Indices 1 2 3 4 5 6 
#
# 1 114.0577 22.8596 18.9079 0.0000 0.0000 0.0000
# 2 22.8596 34.6176 21.4950 0.0000 0.0000 0.0000
# 3 18.9079 21.4950 100.8390 0.0000 0.0000 0.0000
# 4 0.0000 0.0000 0.0000 -2.9190 0.0000 0.0000
# 5 0.0000 0.0000 0.0000 0.0000 16.4183 0.0000
# 6 0.0000 0.0000 0.0000 0.0000 0.0000 -0.3595
#
#
#
# Elastic Compliance Matrix: (Units=1/GPa)
#
#
# Indices 1 2 3 4 5 6 
#
# 1 0.010131 -0.006351 -0.000546 0.000000 0.000000 0.000000
# 2 -0.006351 0.037275 -0.006755 0.000000 0.000000 0.000000
# 3 -0.000546 -0.006755 0.011459 0.000000 0.000000 0.000000
# 4 0.000000 0.000000 0.000000 -0.342578 0.000000 0.000000
# 5 0.000000 0.000000 0.000000 0.000000 0.060908 0.000000
# 6 0.000000 0.000000 0.000000 0.000000 0.000000 -2.781872
#
#
# Mechanical properties :
#
#
# Convention : Reuss Voigt Hill
#
# Bulk Modulus (GPa) = 31.68383 41.78218 36.73301
# Shear Modulus (GPa) = -1.68529 15.04473 6.67972
#
# Velocity S-wave (km/s) = -0.95338 2.84853 1.89805
# Velocity P-wave (km/s) = 3.98450 5.77524 4.96133
#
# Compressibility (1/GPa) = 0.03156184
#
# Stress axis : x y z
#
# Youngs Moduli (GPa) = 98.70846 26.82753 87.26763
#
# Poissons Ratio (x) = 0.17038 0.04763
# Poissons Ratio (y) = 0.62689 0.58948
# Poissons Ratio (z) = 0.05388 0.18121
#
# Static dielectric constant tensor:
#      x y z
#    x 1.633270 0.000000 0.000000 
#    y 0.000000 1.647080 0.000000 
#    z 0.000000 0.000000 1.612620 
# 
# From -- ./inp_files/13388.got.cif
#   From: 2010.05.17/outbox.cif.g08.bks.cpg/sg62_7_cif.got.tgz:13388.got - 2010.06.03 15:25:27.
