data_PCOD9465441
_publ_section_title
;
Structure prediction by ZEFSAII (Michael W. Deem and Ramdas Pophale) SiO2 
 PCOD9465441
Probable space group: P N M A
;
_chemical_formula_sum "Si O2"
_cell_formula_units_Z 60
_cell_length_a 9.799152
_cell_length_b 19.663998
_cell_length_c 17.155289
_cell_angle_alpha 90.000000
_cell_angle_beta 90.000000
_cell_angle_gamma 90.000000
_cell_volume 3305.661306
_symmetry_space_group_name_H-M "P N M A"
_symmetry_group_IT_number 62
_symmetry_cell_setting 'orthorhombic'
loop_
_space_group_symop_operation_xyz
x,y,z
1/2-x,-y,1/2+z
1/2+x,1/2-y,1/2-z
-x,1/2+y,-z
-x,-y,-z
1/2+x,y,1/2-z
1/2-x,1/2+y,1/2+z
x,1/2-y,z
loop_
_atom_site_type_symbol
_atom_site_label
_atom_site_fract_x
_atom_site_fract_y
_atom_site_fract_z
Si Si1 0.521069 0.948561 0.199806
Si Si2 0.424784 0.823872 0.961026
Si Si3 0.029960 0.089291 0.211495
Si Si4 0.253207 0.668279 0.809838
Si Si5 0.625095 0.491115 0.441944
Si Si6 0.718319 0.608292 0.331841
Si Si7 0.895320 0.058736 0.523991
Si Si8 0.271913 0.750000 0.098937
O O1 0.369840 0.917324 0.191871
O O2 0.610987 0.911439 0.264785
O O3 0.596732 0.939361 0.117302
O O4 0.510359 0.027352 0.226768
O O5 0.479766 0.750000 0.934132
O O6 0.325423 0.848696 0.892647
O O7 0.544394 0.873770 0.984659
O O8 0.337138 0.807824 0.038171
O O9 0.143506 0.140275 0.244839
O O10 0.081033 0.055167 0.131422
O O11 0.889292 0.129286 0.198675
O O12 0.235178 0.750000 0.806070
O O13 0.500000 0.500000 0.500000
O O14 0.673704 0.562860 0.406072
O O15 0.749044 0.458327 0.489405
O O16 0.716715 0.688380 0.346213
O O17 0.000000 0.000000 0.500000
#
# Coordination Sequence:
#
# PCOD9465441 Si02
#       8
#     8   8   8   8   8   8   8   4
#     4  11  23  40  65  95 129 162 218 261 329 376
#     4   9  21  39  67  92 121 169 214 260 314 393
#     4  11  25  40  63  93 134 165 211 276 319 387
#     4  11  24  42  64  93 129 177 212 257 332 394
#     4  11  27  41  66  99 128 166 222 275 330 383
#     4  11  24  42  63  98 128 171 209 268 322 394
#     4  12  22  40  71  94 125 167 219 268 319 386
#     4  10  20  44  66  90 132 164 216 262 318 388
#
# _framework density 18.150680999999999
#
# number of rings (size 3 to 8) (size 9 to 14) (size 15 to 20)
#    0.400    0.800    2.667    2.800   11.200    0.533 
#    1.200    0.667    1.467    0.000    0.000    0.000 
#    0.000    0.000    0.000    0.000    0.000    0.000 
#
# Total GULP energy -334051.842332 kJ/mol
# GULP energy per Si atom -5567.530706 kJ/mol
# Density = 1.810937 g / cm^3
# Si number density = 18.150681 Si / 1000 Ang^3
#
#
#
# Elastic Constant Matrix: (Units=GPa)
#
#
# Indices 1 2 3 4 5 6 
#
# 1 149.4654 84.9341 81.2713 0.0000 0.0000 0.0000
# 2 84.9341 134.6195 59.6616 0.0000 0.0000 0.0000
# 3 81.2713 59.6616 69.9465 0.0000 0.0000 0.0000
# 4 0.0000 0.0000 0.0000 23.6680 0.0000 0.0000
# 5 0.0000 0.0000 0.0000 0.0000 34.9048 0.0000
# 6 0.0000 0.0000 0.0000 0.0000 0.0000 23.5517
#
#
#
# Elastic Compliance Matrix: (Units=1/GPa)
#
#
# Indices 1 2 3 4 5 6 
#
# 1 0.019185 -0.003577 -0.019240 0.000000 0.000000 0.000000
# 2 -0.003577 0.012610 -0.006599 0.000000 0.000000 0.000000
# 3 -0.019240 -0.006599 0.042280 0.000000 0.000000 0.000000
# 4 0.000000 0.000000 0.000000 0.042251 0.000000 0.000000
# 5 0.000000 0.000000 0.000000 0.000000 0.028649 0.000000
# 6 0.000000 0.000000 0.000000 0.000000 0.000000 0.042460
#
#
# Mechanical properties :
#
#
# Convention : Reuss Voigt Hill
#
# Bulk Modulus (GPa) = 65.60602 89.52949 77.56776
# Shear Modulus (GPa) = 19.89266 24.96920 22.43093
#
# Velocity S-wave (km/s) = 3.31414 3.71302 3.51923
# Velocity P-wave (km/s) = 7.13221 8.23497 7.70335
#
# Compressibility (1/GPa) = 0.01524250
#
# Stress axis : x y z
#
# Youngs Moduli (GPa) = 52.12456 79.30143 23.65170
#
# Poissons Ratio (x) = 0.28369 0.45505
# Poissons Ratio (y) = 0.18647 0.15609
# Poissons Ratio (z) = 1.00286 0.52334
#
# Static dielectric constant tensor:
#      x y z
#    x 1.591480 0.000000 0.000000 
#    y 0.000000 1.642710 0.000000 
#    z 0.000000 0.000000 1.754230 
# 
# From -- ./inp_files/22469.got.cif
#   From: 2010.05.17/outbox.cif.g08.bks.cpg/sg62_12_cif.got.tgz:22469.got - 2010.06.03 15:25:27.
