data_PCOD9465968
_publ_section_title
;
Structure prediction by ZEFSAII (Michael W. Deem and Ramdas Pophale) SiO2 
 PCOD9465968
Probable space group: P N M A
;
_chemical_formula_sum "Si O2"
_cell_formula_units_Z 40
_cell_length_a 12.583668
_cell_length_b 8.411046
_cell_length_c 17.114720
_cell_angle_alpha 90.000000
_cell_angle_beta 90.000000
_cell_angle_gamma 90.000000
_cell_volume 1811.452949
_symmetry_space_group_name_H-M "P N M A"
_symmetry_group_IT_number 62
_symmetry_cell_setting 'orthorhombic'
loop_
_space_group_symop_operation_xyz
x,y,z
1/2-x,-y,1/2+z
1/2+x,1/2-y,1/2-z
-x,1/2+y,-z
-x,-y,-z
1/2+x,y,1/2-z
1/2-x,1/2+y,1/2+z
x,1/2-y,z
loop_
_atom_site_type_symbol
_atom_site_label
_atom_site_fract_x
_atom_site_fract_y
_atom_site_fract_z
Si Si1 0.719666 0.566859 0.684518
Si Si2 0.191007 0.441154 0.152614
Si Si3 0.022204 0.438663 0.911297
Si Si4 0.919000 0.070116 0.612322
Si Si5 0.865832 0.563454 0.449833
O O1 0.686683 0.750000 0.689172
O O2 0.741917 0.503844 0.771736
O O3 0.635962 0.483114 0.627070
O O4 0.838603 0.551167 0.650640
O O5 0.196986 0.250000 0.149034
O O6 0.068838 0.492184 0.146167
O O7 0.250245 0.520888 0.080016
O O8 0.013411 0.250000 0.913797
O O9 0.000000 0.500000 0.000000
O O10 0.897291 0.250000 0.639328
O O11 0.044172 0.037025 0.616411
O O12 0.894049 0.052411 0.520523
O O13 0.873056 0.750000 0.472065
#
# Coordination Sequence:
#
# PCOD9465968 Si02
#       5
#     8   8   8   8   8
#     4  11  25  43  65  94 131 171 214 266 326 387
#     4  11  25  43  65  94 131 171 214 266 326 387
#     4  12  26  46  72  98 133 176 225 276 328 396
#     4  10  21  38  62  92 125 164 209 258 313 377
#     4  10  21  38  62  92 125 164 209 258 313 377
#
# _framework density 22.081721000000002
#
# number of rings (size 3 to 8) (size 9 to 14) (size 15 to 20)
#    0.000    1.200    0.000    5.400    2.800    5.600 
#    0.000    0.000    0.000    0.000    0.000    0.000 
#    0.000    0.000    0.000    0.000    0.000    0.000 
#
# Total GULP energy -223370.245624 kJ/mol
# GULP energy per Si atom -5584.256141 kJ/mol
# Density = 2.203146 g / cm^3
# Si number density = 22.081721 Si / 1000 Ang^3
#
#
#
# Elastic Constant Matrix: (Units=GPa)
#
#
# Indices 1 2 3 4 5 6 
#
# 1 61.7795 13.5429 10.4450 0.0000 0.0000 0.0000
# 2 13.5429 68.6564 15.4670 0.0000 0.0000 0.0000
# 3 10.4450 15.4670 61.9799 0.0000 0.0000 0.0000
# 4 0.0000 0.0000 0.0000 13.8561 0.0000 0.0000
# 5 0.0000 0.0000 0.0000 0.0000 33.5067 0.0000
# 6 0.0000 0.0000 0.0000 0.0000 0.0000 34.9373
#
#
#
# Elastic Compliance Matrix: (Units=1/GPa)
#
#
# Indices 1 2 3 4 5 6 
#
# 1 0.017190 -0.002901 -0.002173 0.000000 0.000000 0.000000
# 2 -0.002901 0.015923 -0.003485 0.000000 0.000000 0.000000
# 3 -0.002173 -0.003485 0.017370 0.000000 0.000000 0.000000
# 4 0.000000 0.000000 0.000000 0.072170 0.000000 0.000000
# 5 0.000000 0.000000 0.000000 0.000000 0.029845 0.000000
# 6 0.000000 0.000000 0.000000 0.000000 0.000000 0.028623
#
#
# Mechanical properties :
#
#
# Convention : Reuss Voigt Hill
#
# Bulk Modulus (GPa) = 29.97143 30.14730 30.05937
# Shear Modulus (GPa) = 23.88238 26.65742 25.26990
#
# Velocity S-wave (km/s) = 3.29225 3.47827 3.38654
# Velocity P-wave (km/s) = 5.29663 5.46017 5.37902
#
# Compressibility (1/GPa) = 0.03336511
#
# Stress axis : x y z
#
# Youngs Moduli (GPa) = 58.17348 62.80389 57.57051
#
# Poissons Ratio (x) = 0.18221 0.12509
# Poissons Ratio (y) = 0.16878 0.20061
# Poissons Ratio (z) = 0.12640 0.21884
#
# Static dielectric constant tensor:
#      x y z
#    x 1.845050 0.000000 0.000000 
#    y 0.000000 1.753300 0.000000 
#    z 0.000000 0.000000 1.924060 
# 
# From -- ./inp_files/21948.got.cif
#   From: 2010.05.17/outbox.cif.g08.bks.cpg/sg62_11_cif.got.tgz:21948.got - 2010.06.03 15:25:27.
