data_PCOD9465801
_publ_section_title
;
Structure prediction by ZEFSAII (Michael W. Deem and Ramdas Pophale) SiO2 
 PCOD9465801
Probable space group: P N M A
;
_chemical_formula_sum "Si O2"
_cell_formula_units_Z 56
_cell_length_a 14.616071
_cell_length_b 13.541897
_cell_length_c 12.281922
_cell_angle_alpha 90.000000
_cell_angle_beta 90.000000
_cell_angle_gamma 90.000000
_cell_volume 2430.952568
_symmetry_space_group_name_H-M "P N M A"
_symmetry_group_IT_number 62
_symmetry_cell_setting 'orthorhombic'
loop_
_space_group_symop_operation_xyz
x,y,z
1/2-x,-y,1/2+z
1/2+x,1/2-y,1/2-z
-x,1/2+y,-z
-x,-y,-z
1/2+x,y,1/2-z
1/2-x,1/2+y,1/2+z
x,1/2-y,z
loop_
_atom_site_type_symbol
_atom_site_label
_atom_site_fract_x
_atom_site_fract_y
_atom_site_fract_z
Si Si1 0.625458 0.869833 0.874493
Si Si2 0.810984 0.368133 0.736360
Si Si3 0.204459 0.000420 0.051573
Si Si4 0.102952 0.368127 0.763170
Si Si5 0.461541 0.864579 0.488168
Si Si6 0.648527 0.864093 0.622071
Si Si7 0.521021 0.869703 0.077819
O O1 0.637713 0.750000 0.883094
O O2 0.623692 0.892512 0.745710
O O3 0.711793 0.927740 0.922389
O O4 0.539328 0.896122 0.952259
O O5 0.820282 0.250000 0.754800
O O6 0.814150 0.425721 0.849430
O O7 0.706311 0.388676 0.700196
O O8 0.889301 0.395794 0.650225
O O9 0.115779 0.068731 0.039866
O O10 0.217298 0.934143 0.943244
O O11 0.099872 0.250000 0.753842
O O12 0.067023 0.405208 0.646679
O O13 0.035099 0.394889 0.861201
O O14 0.432679 0.750000 0.491052
O O15 0.556158 0.870800 0.551097
O O16 0.679684 0.750000 0.622507
O O17 0.516849 0.750000 0.077217
#
# Coordination Sequence:
#
# PCOD9465801 Si02
#       7
#     8   8   8   8   8   8   8
#     4  10  23  41  62  89 129 170 207 256 319 388
#     4  10  21  37  61  96 129 162 212 270 318 374
#     4  12  23  37  64  91 126 166 216 261 315 385
#     4   9  18  35  64  93 118 153 210 271 321 372
#     4  10  21  40  67  94 121 162 216 271 323 380
#     4  10  23  43  63  91 130 169 211 265 326 386
#     4   9  18  37  63  88 118 160 206 259 322 374
#
# _framework density 23.036235000000001
#
# number of rings (size 3 to 8) (size 9 to 14) (size 15 to 20)
#    0.000    2.000    0.000    3.000    4.000    4.571 
#    0.000    2.143    0.000    5.143    0.000    0.000 
#    0.000    0.000    0.000    0.000    0.000    0.000 
#
# Total GULP energy -313142.764876 kJ/mol
# GULP energy per Si atom -5591.835087 kJ/mol
# Density = 2.298380 g / cm^3
# Si number density = 23.036235 Si / 1000 Ang^3
#
#
#
# Elastic Constant Matrix: (Units=GPa)
#
#
# Indices 1 2 3 4 5 6 
#
# 1 29.0849 1.5147 -0.7404 0.0000 0.0000 0.0000
# 2 1.5147 85.1427 32.4751 0.0000 0.0000 0.0000
# 3 -0.7404 32.4751 121.5001 0.0000 0.0000 0.0000
# 4 0.0000 0.0000 0.0000 46.2424 0.0000 0.0000
# 5 0.0000 0.0000 0.0000 0.0000 34.5311 0.0000
# 6 0.0000 0.0000 0.0000 0.0000 0.0000 25.0926
#
#
#
# Elastic Compliance Matrix: (Units=1/GPa)
#
#
# Indices 1 2 3 4 5 6 
#
# 1 0.034433 -0.000771 0.000416 0.000000 0.000000 0.000000
# 2 -0.000771 0.013096 -0.003505 0.000000 0.000000 0.000000
# 3 0.000416 -0.003505 0.009170 0.000000 0.000000 0.000000
# 4 0.000000 0.000000 0.000000 0.021625 0.000000 0.000000
# 5 0.000000 0.000000 0.000000 0.000000 0.028959 0.000000
# 6 0.000000 0.000000 0.000000 0.000000 0.000000 0.039852
#
#
# Mechanical properties :
#
#
# Convention : Reuss Voigt Hill
#
# Bulk Modulus (GPa) = 20.41741 33.58071 26.99906
# Shear Modulus (GPa) = 29.20877 34.67178 31.94027
#
# Velocity S-wave (km/s) = 3.56469 3.88377 3.72764
# Velocity P-wave (km/s) = 5.08184 5.89241 5.50207
#
# Compressibility (1/GPa) = 0.04897782
#
# Stress axis : x y z
#
# Youngs Moduli (GPa) = 29.04204 76.36171 109.05363
#
# Poissons Ratio (x) = 0.05889 -0.04536
# Poissons Ratio (y) = 0.02240 0.38223
# Poissons Ratio (z) = -0.01208 0.26764
#
# Static dielectric constant tensor:
#      x y z
#    x 1.857930 0.000000 0.000000 
#    y 0.000000 1.902610 0.000000 
#    z 0.000000 0.000000 1.883870 
# 
# From -- ./inp_files/13391.got.cif
#   From: 2010.05.17/outbox.cif.g08.bks.cpg/sg62_7_cif.got.tgz:13391.got - 2010.06.03 15:25:27.
