data_PCOD9465880
_publ_section_title
;
Structure prediction by ZEFSAII (Michael W. Deem and Ramdas Pophale) SiO2 
 PCOD9465880
Probable space group: P N M A
;
_chemical_formula_sum "Si O2"
_cell_formula_units_Z 40
_cell_length_a 11.738389
_cell_length_b 9.747434
_cell_length_c 16.497501
_cell_angle_alpha 90.000000
_cell_angle_beta 90.000000
_cell_angle_gamma 90.000000
_cell_volume 1887.630405
_symmetry_space_group_name_H-M "P N M A"
_symmetry_group_IT_number 62
_symmetry_cell_setting 'orthorhombic'
loop_
_space_group_symop_operation_xyz
x,y,z
1/2-x,-y,1/2+z
1/2+x,1/2-y,1/2-z
-x,1/2+y,-z
-x,-y,-z
1/2+x,y,1/2-z
1/2-x,1/2+y,1/2+z
x,1/2-y,z
loop_
_atom_site_type_symbol
_atom_site_label
_atom_site_fract_x
_atom_site_fract_y
_atom_site_fract_z
Si Si1 0.434973 0.250000 0.858737
Si Si2 0.686989 0.459880 0.380439
Si Si3 0.984069 0.250000 0.113392
Si Si4 0.750043 0.750000 0.573645
Si Si5 0.301508 0.750000 0.101088
Si Si6 0.459088 0.250000 0.207218
Si Si7 0.341704 0.961065 0.801691
Si Si8 0.666619 0.750000 0.963504
O O1 0.574552 0.250000 0.853710
O O2 0.374356 0.117572 0.818963
O O3 0.403075 0.250000 0.954377
O O4 0.563798 0.385593 0.390038
O O5 0.722324 0.617708 0.384253
O O6 0.716376 0.429350 0.285373
O O7 0.756847 0.385120 0.451716
O O8 0.882757 0.250000 0.049458
O O9 0.919001 0.250000 0.200108
O O10 0.828014 0.750000 0.494697
O O11 0.776479 0.614358 0.625935
O O12 0.538659 0.383028 0.202756
O O13 0.395304 0.250000 0.122980
#
# Coordination Sequence:
#
# PCOD9465880 Si02
#       8
#     4   8   4   4   4   4   8   4
#     4  12  24  37  59  93 128 155 187 245 316 360
#     4  10  22  40  60  84 120 161 204 247 290 351
#     4   9  20  39  61  82 109 162 217 249 285 347
#     4  11  22  38  62  88 117 156 204 248 296 358
#     4  12  25  39  59  92 128 155 188 251 315 355
#     4   9  17  33  59  83 111 155 208 253 292 348
#     4  10  21  38  59  87 119 156 202 245 293 360
#     4  11  20  36  62  90 121 157 198 248 298 352
#
# _framework density 21.190587000000001
#
# number of rings (size 3 to 8) (size 9 to 14) (size 15 to 20)
#    0.000    1.600    0.000    7.200    0.000    4.800 
#    0.000    1.000    0.000    0.000    0.000    0.000 
#    0.000    0.000    0.000    0.000    0.000    0.000 
#
# Total GULP energy -222749.133036 kJ/mol
# GULP energy per Si atom -5568.728326 kJ/mol
# Density = 2.114236 g / cm^3
# Si number density = 21.190587 Si / 1000 Ang^3
#
#
#
# Elastic Constant Matrix: (Units=GPa)
#
#
# Indices 1 2 3 4 5 6 
#
# 1 49.4462 18.4622 6.4294 0.0000 0.0000 0.0000
# 2 18.4622 147.6820 -3.7004 0.0000 0.0000 0.0000
# 3 6.4294 -3.7004 56.9011 0.0000 0.0000 0.0000
# 4 0.0000 0.0000 0.0000 22.6009 0.0000 0.0000
# 5 0.0000 0.0000 0.0000 0.0000 28.9560 0.0000
# 6 0.0000 0.0000 0.0000 0.0000 0.0000 52.5459
#
#
#
# Elastic Compliance Matrix: (Units=1/GPa)
#
#
# Indices 1 2 3 4 5 6 
#
# 1 0.021597 -0.002766 -0.002620 0.000000 0.000000 0.000000
# 2 -0.002766 0.007136 0.000777 0.000000 0.000000 0.000000
# 3 -0.002620 0.000777 0.017921 0.000000 0.000000 0.000000
# 4 0.000000 0.000000 0.000000 0.044246 0.000000 0.000000
# 5 0.000000 0.000000 0.000000 0.000000 0.034535 0.000000
# 6 0.000000 0.000000 0.000000 0.000000 0.000000 0.019031
#
#
# Mechanical properties :
#
#
# Convention : Reuss Voigt Hill
#
# Bulk Modulus (GPa) = 26.71201 32.93463 29.82332
# Shear Modulus (GPa) = 30.09073 36.34310 33.21692
#
# Velocity S-wave (km/s) = 3.77238 4.14582 3.96350
# Velocity P-wave (km/s) = 5.62205 6.20427 5.92032
#
# Compressibility (1/GPa) = 0.03743634
#
# Stress axis : x y z
#
# Youngs Moduli (GPa) = 46.30209 140.12471 55.80074
#
# Poissons Ratio (x) = 0.38753 0.14621
# Poissons Ratio (y) = 0.12805 -0.04333
# Poissons Ratio (z) = 0.12132 -0.10882
#
# Static dielectric constant tensor:
#      x y z
#    x 1.793280 0.000000 0.000000 
#    y 0.000000 1.829850 0.000000 
#    z 0.000000 0.000000 1.803090 
# 
# From -- ./inp_files/22857.got.cif
#   From: 2010.05.17/outbox.cif.g08.bks.cpg/sg62_12_cif.got.tgz:22857.got - 2010.06.03 15:25:27.
