data_PCOD9465380
_publ_section_title
;
Structure prediction by ZEFSAII (Michael W. Deem and Ramdas Pophale) SiO2 
 PCOD9465380
Probable space group: P N M A
;
_chemical_formula_sum "Si O2"
_cell_formula_units_Z 48
_cell_length_a 11.082718
_cell_length_b 16.712783
_cell_length_c 8.700040
_cell_angle_alpha 90.000000
_cell_angle_beta 90.000000
_cell_angle_gamma 90.000000
_cell_volume 1611.448039
_symmetry_space_group_name_H-M "P N M A"
_symmetry_group_IT_number 62
_symmetry_cell_setting 'orthorhombic'
loop_
_space_group_symop_operation_xyz
x,y,z
1/2-x,-y,1/2+z
1/2+x,1/2-y,1/2-z
-x,1/2+y,-z
-x,-y,-z
1/2+x,y,1/2-z
1/2-x,1/2+y,1/2+z
x,1/2-y,z
loop_
_atom_site_type_symbol
_atom_site_label
_atom_site_fract_x
_atom_site_fract_y
_atom_site_fract_z
Si Si1 0.576188 0.906411 0.080038
Si Si2 0.943554 0.846210 0.708132
Si Si3 0.434121 0.750000 0.363407
Si Si4 0.592718 0.429941 0.628442
Si Si5 0.188957 0.845570 0.863318
Si Si6 0.755668 0.474474 0.909888
Si Si7 0.185635 0.750000 0.294894
O O1 0.514850 0.931206 0.242152
O O2 0.661093 0.829074 0.104154
O O3 0.646749 0.976326 0.992052
O O4 0.474118 0.871987 0.966028
O O5 0.945519 0.750000 0.720572
O O6 0.062314 0.875361 0.797268
O O7 0.805172 0.870554 0.738800
O O8 0.415257 0.837791 0.433054
O O9 0.323929 0.750000 0.240197
O O10 0.571512 0.750000 0.314892
O O11 0.624570 0.480807 0.476723
O O12 0.705248 0.457419 0.739788
O O13 0.186499 0.750000 0.868999
O O14 0.216600 0.886390 0.023733
#
# Coordination Sequence:
#
# PCOD9465380 Si02
#       7
#     8   8   4   8   8   8   4
#     4  11  21  40  69  98 132 190 240 284 342 441
#     4  10  20  40  68  97 132 181 235 288 351 425
#     4  10  22  44  72  99 135 189 243 291 342 444
#     4  11  25  41  71 103 141 185 244 291 361 417
#     4  10  23  38  64  95 136 181 232 285 350 418
#     4  12  24  40  68 101 142 181 235 302 351 418
#     4  10  20  40  72  93 135 183 241 281 348 416
#
# _framework density 29.786874000000001
#
# number of rings (size 3 to 8) (size 9 to 14) (size 15 to 20)
#    0.000    1.333    4.167    1.500    3.500    0.000 
#    0.000    0.833    7.333    0.000    0.000    0.000 
#    0.000    0.000    0.000    0.000    0.000    0.000 
#
# Total GULP energy -268887.694533 kJ/mol
# GULP energy per Si atom -5601.826969 kJ/mol
# Density = 2.971908 g / cm^3
# Si number density = 29.786874 Si / 1000 Ang^3
#
#
#
# Elastic Constant Matrix: (Units=GPa)
#
#
# Indices 1 2 3 4 5 6 
#
# 1 234.4465 23.5101 63.1698 0.0000 0.0000 0.0000
# 2 23.5101 136.9197 44.3949 0.0000 0.0000 0.0000
# 3 63.1698 44.3949 143.0594 0.0000 0.0000 0.0000
# 4 0.0000 0.0000 0.0000 49.1388 0.0000 0.0000
# 5 0.0000 0.0000 0.0000 0.0000 51.6926 0.0000
# 6 0.0000 0.0000 0.0000 0.0000 0.0000 55.7271
#
#
#
# Elastic Compliance Matrix: (Units=1/GPa)
#
#
# Indices 1 2 3 4 5 6 
#
# 1 0.004844 -0.000154 -0.002091 0.000000 0.000000 0.000000
# 2 -0.000154 0.008126 -0.002454 0.000000 0.000000 0.000000
# 3 -0.002091 -0.002454 0.008675 0.000000 0.000000 0.000000
# 4 0.000000 0.000000 0.000000 0.020351 0.000000 0.000000
# 5 0.000000 0.000000 0.000000 0.000000 0.019345 0.000000
# 6 0.000000 0.000000 0.000000 0.000000 0.000000 0.017945
#
#
# Mechanical properties :
#
#
# Convention : Reuss Voigt Hill
#
# Bulk Modulus (GPa) = 81.65040 86.28610 83.96825
# Shear Modulus (GPa) = 53.89966 56.86843 55.38404
#
# Velocity S-wave (km/s) = 4.25845 4.37415 4.31669
# Velocity P-wave (km/s) = 7.18681 7.38523 7.28670
#
# Compressibility (1/GPa) = 0.01224734
#
# Stress axis : x y z
#
# Youngs Moduli (GPa) = 206.42904 123.06895 115.27359
#
# Poissons Ratio (x) = 0.01891 0.24108
# Poissons Ratio (y) = 0.03173 0.28285
# Poissons Ratio (z) = 0.43172 0.30197
#
# Static dielectric constant tensor:
#      x y z
#    x 2.406530 0.000000 0.000000 
#    y 0.000000 2.258270 0.000000 
#    z 0.000000 0.000000 2.338700 
# 
# From -- ./inp_files/12277.got.cif
#   From: 2010.05.17/outbox.cif.g08.bks.cpg/sg62_7_cif.got.tgz:12277.got - 2010.06.03 15:25:27.
