data_PCOD9465467
_publ_section_title
;
Structure prediction by ZEFSAII (Michael W. Deem and Ramdas Pophale) SiO2 
 PCOD9465467
Probable space group: P N M A
;
_chemical_formula_sum "Si O2"
_cell_formula_units_Z 64
_cell_length_a 10.601297
_cell_length_b 12.993237
_cell_length_c 25.155275
_cell_angle_alpha 90.000000
_cell_angle_beta 90.000000
_cell_angle_gamma 90.000000
_cell_volume 3465.017491
_symmetry_space_group_name_H-M "P N M A"
_symmetry_group_IT_number 62
_symmetry_cell_setting 'orthorhombic'
loop_
_space_group_symop_operation_xyz
x,y,z
1/2-x,-y,1/2+z
1/2+x,1/2-y,1/2-z
-x,1/2+y,-z
-x,-y,-z
1/2+x,y,1/2-z
1/2-x,1/2+y,1/2+z
x,1/2-y,z
loop_
_atom_site_type_symbol
_atom_site_label
_atom_site_fract_x
_atom_site_fract_y
_atom_site_fract_z
Si Si1 0.344176 0.482197 0.254891
Si Si2 0.063863 0.627201 0.075974
Si Si3 0.834713 0.630233 0.148451
Si Si4 0.413135 0.873131 0.794188
Si Si5 0.638679 0.493350 0.102275
Si Si6 0.951735 0.862722 0.441857
Si Si7 0.286366 0.131400 0.478671
Si Si8 0.227182 0.368653 0.658536
O O1 0.378569 0.556278 0.304230
O O2 0.465857 0.416086 0.237845
O O3 0.220461 0.415837 0.271207
O O4 0.304556 0.557336 0.206777
O O5 0.091139 0.750000 0.072762
O O6 0.105571 0.588782 0.018112
O O7 0.155460 0.590769 0.123361
O O8 0.923531 0.616017 0.097022
O O9 0.838838 0.750000 0.163468
O O10 0.696333 0.590869 0.133360
O O11 0.412609 0.750000 0.794323
O O12 0.422165 0.918480 0.854192
O O13 0.545264 0.541761 0.059147
O O14 0.750527 0.432826 0.072864
O O15 0.013180 0.750000 0.449343
O O16 0.838729 0.868769 0.484129
O O17 0.886485 0.865079 0.383817
O O18 0.313792 0.250000 0.463847
O O19 0.252518 0.250000 0.675802
#
# Coordination Sequence:
#
# PCOD9465467 Si02
#       8
#     8   8   8   8   8   8   8   8
#     4  11  21  37  57  80 105 145 184 217 277 329
#     4   8  16  32  50  73 106 140 174 213 263 318
#     4  10  21  34  51  80 112 139 172 222 272 329
#     4  11  24  39  55  76 107 143 186 230 265 317
#     4  11  20  33  52  78 107 138 178 218 275 323
#     4   9  17  31  51  78 106 131 165 216 271 322
#     4   9  18  32  53  75 100 139 184 223 263 316
#     4   9  16  30  54  81 106 132 168 216 264 325
#
# _framework density 18.470324000000002
#
# number of rings (size 3 to 8) (size 9 to 14) (size 15 to 20)
#    0.000    2.250    1.250    4.125    0.000    0.500 
#    0.000    1.250    0.000    0.000    0.000    1.750 
#    0.000    0.000    0.000    0.000    0.000    0.000 
#
# Total GULP energy -356687.893810 kJ/mol
# GULP energy per Si atom -5573.248341 kJ/mol
# Density = 1.842829 g / cm^3
# Si number density = 18.470324 Si / 1000 Ang^3
#
#
#
# Elastic Constant Matrix: (Units=GPa)
#
#
# Indices 1 2 3 4 5 6 
#
# 1 53.4772 39.1849 5.7140 0.0000 0.0000 0.0000
# 2 39.1849 109.8440 27.1328 0.0000 0.0000 0.0000
# 3 5.7140 27.1328 43.5786 0.0000 0.0000 0.0000
# 4 0.0000 0.0000 0.0000 24.2522 0.0000 0.0000
# 5 0.0000 0.0000 0.0000 0.0000 20.8274 0.0000
# 6 0.0000 0.0000 0.0000 0.0000 0.0000 26.8034
#
#
#
# Elastic Compliance Matrix: (Units=1/GPa)
#
#
# Indices 1 2 3 4 5 6 
#
# 1 0.025594 -0.009810 0.002752 0.000000 0.000000 0.000000
# 2 -0.009810 0.014518 -0.007753 0.000000 0.000000 0.000000
# 3 0.002752 -0.007753 0.027413 0.000000 0.000000 0.000000
# 4 0.000000 0.000000 0.000000 0.041233 0.000000 0.000000
# 5 0.000000 0.000000 0.000000 0.000000 0.048014 0.000000
# 6 0.000000 0.000000 0.000000 0.000000 0.000000 0.037309
#
#
# Mechanical properties :
#
#
# Convention : Reuss Voigt Hill
#
# Bulk Modulus (GPa) = 26.38290 38.99590 32.68940
# Shear Modulus (GPa) = 21.15618 23.36781 22.26199
#
# Velocity S-wave (km/s) = 3.38807 3.56076 3.47549
# Velocity P-wave (km/s) = 5.44245 6.16960 5.81740
#
# Compressibility (1/GPa) = 0.03790335
#
# Stress axis : x y z
#
# Youngs Moduli (GPa) = 39.07239 68.87809 36.47844
#
# Poissons Ratio (x) = 0.67568 -0.10039
# Poissons Ratio (y) = 0.38329 0.28282
# Poissons Ratio (z) = -0.10752 0.53402
#
# Static dielectric constant tensor:
#      x y z
#    x 1.659740 0.000000 0.000000 
#    y 0.000000 1.632540 0.000000 
#    z 0.000000 0.000000 1.640350 
# 
# From -- ./inp_files/29442.got.cif
#   From: 2010.05.17/outbox.cif.g08.bks.cpg/sg62_15_cif.got.tgz:29442.got - 2010.06.03 15:25:27.
