data_PCOD9465851
_publ_section_title
;
Structure prediction by ZEFSAII (Michael W. Deem and Ramdas Pophale) SiO2 
 PCOD9465851
Probable space group: P N M A
;
_chemical_formula_sum "Si O2"
_cell_formula_units_Z 48
_cell_length_a 24.348790
_cell_length_b 17.865679
_cell_length_c 5.020160
_cell_angle_alpha 90.000000
_cell_angle_beta 90.000000
_cell_angle_gamma 90.000000
_cell_volume 2183.808085
_symmetry_space_group_name_H-M "P N M A"
_symmetry_group_IT_number 62
_symmetry_cell_setting 'orthorhombic'
loop_
_space_group_symop_operation_xyz
x,y,z
1/2-x,-y,1/2+z
1/2+x,1/2-y,1/2-z
-x,1/2+y,-z
-x,-y,-z
1/2+x,y,1/2-z
1/2-x,1/2+y,1/2+z
x,1/2-y,z
loop_
_atom_site_type_symbol
_atom_site_label
_atom_site_fract_x
_atom_site_fract_y
_atom_site_fract_z
Si Si1 0.513180 0.566088 0.302448
Si Si2 0.335449 0.406291 0.113069
Si Si3 0.663110 0.334826 0.195504
Si Si4 0.262754 0.836049 0.308575
Si Si5 0.908966 0.541403 0.470534
Si Si6 0.611588 0.837111 0.392147
O O1 0.500000 0.500000 0.500000
O O2 0.453171 0.588567 0.199472
O O3 0.551740 0.627121 0.439646
O O4 0.552300 0.523615 0.090926
O O5 0.278129 0.393944 0.957259
O O6 0.358573 0.490963 0.140010
O O7 0.343548 0.371966 0.406133
O O8 0.373227 0.357902 0.910549
O O9 0.644216 0.250000 0.131359
O O10 0.713058 0.350642 0.985080
O O11 0.618506 0.399261 0.164989
O O12 0.685623 0.334738 0.493333
O O13 0.239138 0.750000 0.310531
O O14 0.610293 0.750000 0.433308
#
# Coordination Sequence:
#
# PCOD9465851 Si02
#       6
#     8   8   8   8   8   8
#     4  10  21  41  60  84 121 157 193 249 302 347
#     4  11  22  38  62  89 120 157 195 248 299 353
#     4  10  23  40  60  88 121 159 201 242 292 358
#     4  10  21  38  58  85 122 156 195 249 298 344
#     4  10  23  39  62  86 120 159 199 246 302 355
#     4  11  22  37  61  91 118 154 202 244 295 360
#
# _framework density 21.979952000000001
#
# number of rings (size 3 to 8) (size 9 to 14) (size 15 to 20)
#    0.000    1.667    1.667    2.500    2.333    3.333 
#    0.000    0.833    0.000    0.000    0.000    0.000 
#    0.000    0.000    0.000    0.000    0.000    0.000 
#
# Total GULP energy -267520.511067 kJ/mol
# GULP energy per Si atom -5573.343981 kJ/mol
# Density = 2.192992 g / cm^3
# Si number density = 21.979952 Si / 1000 Ang^3
#
#
#
# Elastic Constant Matrix: (Units=GPa)
#
#
# Indices 1 2 3 4 5 6 
#
# 1 20.0966 3.0959 -14.2002 0.0000 0.0000 0.0000
# 2 3.0959 60.4269 -14.4742 0.0000 0.0000 0.0000
# 3 -14.2002 -14.4742 57.7058 0.0000 0.0000 0.0000
# 4 0.0000 0.0000 0.0000 19.9065 0.0000 0.0000
# 5 0.0000 0.0000 0.0000 0.0000 19.8474 0.0000
# 6 0.0000 0.0000 0.0000 0.0000 0.0000 31.9962
#
#
#
# Elastic Compliance Matrix: (Units=1/GPa)
#
#
# Indices 1 2 3 4 5 6 
#
# 1 0.060247 0.000494 0.014949 0.000000 0.000000 0.000000
# 2 0.000494 0.017611 0.004539 0.000000 0.000000 0.000000
# 3 0.014949 0.004539 0.022146 0.000000 0.000000 0.000000
# 4 0.000000 0.000000 0.000000 0.050235 0.000000 0.000000
# 5 0.000000 0.000000 0.000000 0.000000 0.050384 0.000000
# 6 0.000000 0.000000 0.000000 0.000000 0.000000 0.031254
#
#
# Mechanical properties :
#
#
# Convention : Reuss Voigt Hill
#
# Bulk Modulus (GPa) = 7.14443 9.67471 8.40957
# Shear Modulus (GPa) = 20.95835 25.27054 23.11445
#
# Velocity S-wave (km/s) = 3.09126 3.39441 3.24638
# Velocity P-wave (km/s) = 3.99984 4.44678 4.22922
#
# Compressibility (1/GPa) = 0.13996909
#
# Stress axis : x y z
#
# Youngs Moduli (GPa) = 16.59840 56.78328 45.15386
#
# Poissons Ratio (x) = -0.02806 -0.67503
# Poissons Ratio (y) = -0.00820 -0.20495
# Poissons Ratio (z) = -0.24814 -0.25773
#
# Static dielectric constant tensor:
#      x y z
#    x 6.654510 0.000000 0.000000 
#    y 0.000000 1.789390 0.000000 
#    z 0.000000 0.000000 1.791020 
# 
# From -- ./inp_files/2745.got.cif
#   From: 2010.05.17/outbox.cif.g08.bks.cpg/sg62_2_cif.got.tgz:2745.got - 2010.06.03 15:25:27.
