data_PCOD9465891
_publ_section_title
;
Structure prediction by ZEFSAII (Michael W. Deem and Ramdas Pophale) SiO2 
 PCOD9465891
Probable space group: P N M A
;
_chemical_formula_sum "Si O2"
_cell_formula_units_Z 48
_cell_length_a 29.774219
_cell_length_b 8.464391
_cell_length_c 8.526007
_cell_angle_alpha 90.000000
_cell_angle_beta 90.000000
_cell_angle_gamma 90.000000
_cell_volume 2148.729667
_symmetry_space_group_name_H-M "P N M A"
_symmetry_group_IT_number 62
_symmetry_cell_setting 'orthorhombic'
loop_
_space_group_symop_operation_xyz
x,y,z
1/2-x,-y,1/2+z
1/2+x,1/2-y,1/2-z
-x,1/2+y,-z
-x,-y,-z
1/2+x,y,1/2-z
1/2-x,1/2+y,1/2+z
x,1/2-y,z
loop_
_atom_site_type_symbol
_atom_site_label
_atom_site_fract_x
_atom_site_fract_y
_atom_site_fract_z
Si Si1 0.900569 0.563377 0.089829
Si Si2 0.475096 0.063925 0.221342
Si Si3 0.773310 0.059209 0.583784
Si Si4 0.855478 0.434237 0.782447
Si Si5 0.187066 0.059535 0.741740
Si Si6 0.931233 0.935261 0.591553
O O1 0.907556 0.750000 0.107477
O O2 0.947511 0.478946 0.124090
O O3 0.862918 0.505829 0.214874
O O4 0.877908 0.529413 0.923274
O O5 0.471348 0.250000 0.188944
O O6 0.527928 0.027266 0.211669
O O7 0.451316 0.970647 0.079209
O O8 0.774051 0.250000 0.575278
O O9 0.806417 0.012444 0.726518
O O10 0.723054 0.006953 0.626573
O O11 0.793707 0.993481 0.424296
O O12 0.853872 0.250000 0.824569
O O13 0.888457 0.461604 0.634975
O O14 0.185934 0.250000 0.744067
O O15 0.919681 0.750000 0.603048
#
# Coordination Sequence:
#
# PCOD9465891 Si02
#       6
#     8   8   8   8   8   8
#     4  11  23  38  58  84 115 151 191 235 283 336
#     4  10  21  38  60  85 114 149 189 234 284 338
#     4  10  22  39  59  85 115 148 187 230 279 334
#     4  11  23  38  58  84 115 151 191 235 283 336
#     4  10  22  39  59  85 115 148 187 230 279 334
#     4  10  21  38  60  85 114 149 189 234 284 338
#
# _framework density 22.33878
#
# number of rings (size 3 to 8) (size 9 to 14) (size 15 to 20)
#    0.000    1.667    0.000    4.000    0.000    8.667 
#    0.000    0.000    0.000    0.000    0.000    0.000 
#    0.000    0.000    0.000    0.000    0.000    0.000 
#
# Total GULP energy -268474.944530 kJ/mol
# GULP energy per Si atom -5593.228011 kJ/mol
# Density = 2.228794 g / cm^3
# Si number density = 22.338780 Si / 1000 Ang^3
#
#
#
# Elastic Constant Matrix: (Units=GPa)
#
#
# Indices 1 2 3 4 5 6 
#
# 1 66.6126 13.6141 -12.8992 0.0000 0.0000 0.0000
# 2 13.6141 16.0086 -6.8568 0.0000 0.0000 0.0000
# 3 -12.8992 -6.8568 47.4579 0.0000 0.0000 0.0000
# 4 0.0000 0.0000 0.0000 37.4158 0.0000 0.0000
# 5 0.0000 0.0000 0.0000 0.0000 33.9372 0.0000
# 6 0.0000 0.0000 0.0000 0.0000 0.0000 18.3532
#
#
#
# Elastic Compliance Matrix: (Units=1/GPa)
#
#
# Indices 1 2 3 4 5 6 
#
# 1 0.018548 -0.014513 0.002945 0.000000 0.000000 0.000000
# 2 -0.014513 0.077942 0.007317 0.000000 0.000000 0.000000
# 3 0.002945 0.007317 0.022929 0.000000 0.000000 0.000000
# 4 0.000000 0.000000 0.000000 0.026727 0.000000 0.000000
# 5 0.000000 0.000000 0.000000 0.000000 0.029466 0.000000
# 6 0.000000 0.000000 0.000000 0.000000 0.000000 0.054486
#
#
# Mechanical properties :
#
#
# Convention : Reuss Voigt Hill
#
# Bulk Modulus (GPa) = 9.01577 13.08836 11.05206
# Shear Modulus (GPa) = 18.14394 27.02266 22.58330
#
# Velocity S-wave (km/s) = 2.85303 3.48181 3.18299
# Velocity P-wave (km/s) = 3.85976 4.69423 4.29730
#
# Compressibility (1/GPa) = 0.11091678
#
# Stress axis : x y z
#
# Youngs Moduli (GPa) = 53.91277 12.82997 43.61326
#
# Poissons Ratio (x) = 0.18620 -0.12843
# Poissons Ratio (y) = 0.78243 -0.31910
# Poissons Ratio (z) = -0.15876 -0.09387
#
# Static dielectric constant tensor:
#      x y z
#    x 1.820730 0.000000 0.000000 
#    y 0.000000 1.743690 0.000000 
#    z 0.000000 0.000000 1.845020 
# 
# From -- ./inp_files/4492.got.cif
#   From: 2010.05.17/outbox.cif.g08.bks.cpg/sg62_3_cif.got.tgz:4492.got - 2010.06.03 15:25:27.
