data_PCOD9465138
_publ_section_title
;
Structure prediction by ZEFSAII (Michael W. Deem and Ramdas Pophale) SiO2 
 PCOD9465138
Probable space group: P N M A
;
_chemical_formula_sum "Si O2"
_cell_formula_units_Z 56
_cell_length_a 19.060732
_cell_length_b 16.339004
_cell_length_c 9.616883
_cell_angle_alpha 90.000000
_cell_angle_beta 90.000000
_cell_angle_gamma 90.000000
_cell_volume 2995.018343
_symmetry_space_group_name_H-M "P N M A"
_symmetry_group_IT_number 62
_symmetry_cell_setting 'orthorhombic'
loop_
_space_group_symop_operation_xyz
x,y,z
1/2-x,-y,1/2+z
1/2+x,1/2-y,1/2-z
-x,1/2+y,-z
-x,-y,-z
1/2+x,y,1/2-z
1/2-x,1/2+y,1/2+z
x,1/2-y,z
loop_
_atom_site_type_symbol
_atom_site_label
_atom_site_fract_x
_atom_site_fract_y
_atom_site_fract_z
Si Si1 0.285805 0.915117 0.116405
Si Si2 0.863137 0.416301 0.330438
Si Si3 0.730190 0.345785 0.184323
Si Si4 0.423213 0.993784 0.435424
Si Si5 0.345644 0.494429 0.719153
Si Si6 0.581200 0.158481 0.753023
Si Si7 0.960182 0.076436 0.570196
O O1 0.224178 0.938266 0.223984
O O2 0.344228 0.853358 0.172125
O O3 0.326907 0.002154 0.101796
O O4 0.257645 0.877861 0.973038
O O5 0.800621 0.359941 0.274590
O O6 0.906795 0.447874 0.196141
O O7 0.914662 0.382075 0.448007
O O8 0.710151 0.250000 0.186349
O O9 0.673981 0.412356 0.240768
O O10 0.369180 0.007929 0.559252
O O11 0.500000 0.000000 0.500000
O O12 0.416777 0.903421 0.374326
O O13 0.406915 0.458421 0.814215
O O14 0.569744 0.250000 0.707322
O O15 0.519030 0.131046 0.856454
O O16 0.000000 0.000000 0.500000
#
# Coordination Sequence:
#
# PCOD9465138 Si02
#       7
#     8   8   8   8   8   8   8
#     4  10  20  38  62  88 122 164 208 249 310 384
#     4  10  21  36  61  91 117 161 210 249 295 378
#     4  11  22  37  60  93 127 155 200 264 315 356
#     4  11  20  39  63  88 120 161 208 249 304 376
#     4  11  22  38  66  93 116 167 216 250 301 386
#     4  11  24  39  62  95 131 163 208 270 321 364
#     4  12  20  40  66  91 122 170 215 245 304 386
#
# _framework density 18.697714000000001
#
# number of rings (size 3 to 8) (size 9 to 14) (size 15 to 20)
#    0.000    1.143    7.143    0.429    0.000    1.143 
#    0.000    3.571    0.000    3.429    0.000    0.000 
#    0.000    0.000    0.000    0.000    0.000    0.000 
#
# Total GULP energy -312532.846115 kJ/mol
# GULP energy per Si atom -5580.943681 kJ/mol
# Density = 1.865516 g / cm^3
# Si number density = 18.697714 Si / 1000 Ang^3
#
#
#
# Elastic Constant Matrix: (Units=GPa)
#
#
# Indices 1 2 3 4 5 6 
#
# 1 93.8836 26.2025 34.8967 0.0000 0.0000 0.0000
# 2 26.2025 52.9614 32.8198 0.0000 0.0000 0.0000
# 3 34.8967 32.8198 100.4339 0.0000 0.0000 0.0000
# 4 0.0000 0.0000 0.0000 6.7970 0.0000 0.0000
# 5 0.0000 0.0000 0.0000 0.0000 38.3961 0.0000
# 6 0.0000 0.0000 0.0000 0.0000 0.0000 15.0239
#
#
#
# Elastic Compliance Matrix: (Units=1/GPa)
#
#
# Indices 1 2 3 4 5 6 
#
# 1 0.013059 -0.004576 -0.003042 0.000000 0.000000 0.000000
# 2 -0.004576 0.025279 -0.006671 0.000000 0.000000 0.000000
# 3 -0.003042 -0.006671 0.013194 0.000000 0.000000 0.000000
# 4 0.000000 0.000000 0.000000 0.147123 0.000000 0.000000
# 5 0.000000 0.000000 0.000000 0.000000 0.026044 0.000000
# 6 0.000000 0.000000 0.000000 0.000000 0.000000 0.066561
#
#
# Mechanical properties :
#
#
# Convention : Reuss Voigt Hill
#
# Bulk Modulus (GPa) = 43.56432 48.34633 45.95533
# Shear Modulus (GPa) = 15.26761 22.26740 18.76751
#
# Velocity S-wave (km/s) = 2.86063 3.45471 3.17161
# Velocity P-wave (km/s) = 5.85327 6.46732 6.16795
#
# Compressibility (1/GPa) = 0.02295457
#
# Stress axis : x y z
#
# Youngs Moduli (GPa) = 76.57306 39.55782 75.79312
#
# Poissons Ratio (x) = 0.18101 0.23059
# Poissons Ratio (y) = 0.35038 0.50561
# Poissons Ratio (z) = 0.23296 0.26389
#
# Static dielectric constant tensor:
#      x y z
#    x 1.651810 0.000000 0.000000 
#    y 0.000000 1.614180 0.000000 
#    z 0.000000 0.000000 1.698640 
# 
# From -- ./inp_files/8726.got.cif
#   From: 2010.05.17/outbox.cif.g08.bks.cpg/sg62_5_cif.got.tgz:8726.got - 2010.06.03 15:25:27.
