data_PCOD9465804
_publ_section_title
;
Structure prediction by ZEFSAII (Michael W. Deem and Ramdas Pophale) SiO2 
 PCOD9465804
Probable space group: P N M A
;
_chemical_formula_sum "Si O2"
_cell_formula_units_Z 40
_cell_length_a 14.366890
_cell_length_b 15.666915
_cell_length_c 8.675955
_cell_angle_alpha 90.000000
_cell_angle_beta 90.000000
_cell_angle_gamma 90.000000
_cell_volume 1952.825982
_symmetry_space_group_name_H-M "P N M A"
_symmetry_group_IT_number 62
_symmetry_cell_setting 'orthorhombic'
loop_
_space_group_symop_operation_xyz
x,y,z
1/2-x,-y,1/2+z
1/2+x,1/2-y,1/2-z
-x,1/2+y,-z
-x,-y,-z
1/2+x,y,1/2-z
1/2-x,1/2+y,1/2+z
x,1/2-y,z
loop_
_atom_site_type_symbol
_atom_site_label
_atom_site_fract_x
_atom_site_fract_y
_atom_site_fract_z
Si Si1 0.950759 0.035357 0.816137
Si Si2 0.586163 0.155658 0.212962
Si Si3 0.774897 0.105268 0.340267
Si Si4 0.652433 0.019588 0.590043
Si Si5 0.556882 0.656051 0.036457
O O1 0.924678 0.082981 0.660291
O O2 0.055435 0.061820 0.858419
O O3 0.949023 0.932400 0.790649
O O4 0.881643 0.048668 0.959630
O O5 0.554613 0.250000 0.269586
O O6 0.697115 0.152806 0.238623
O O7 0.544948 0.148118 0.040806
O O8 0.722051 0.080040 0.497984
O O9 0.869627 0.148854 0.395930
O O10 0.802336 0.023952 0.237516
O O11 0.565951 0.750000 0.107081
#
# Coordination Sequence:
#
# PCOD9465804 Si02
#       5
#     8   8   8   8   8
#     4  10  21  42  62  90 122 168 207 260 309 369
#     4  10  21  37  62  92 121 161 208 253 306 369
#     4  11  21  38  63  94 127 164 211 256 307 375
#     4  10  22  36  65  93 121 164 214 253 318 368
#     4  11  23  41  64  90 126 169 207 255 315 367
#
# _framework density 20.483135999999998
#
# number of rings (size 3 to 8) (size 9 to 14) (size 15 to 20)
#    0.000    1.600    2.000    3.600    2.800    0.000 
#    0.000   12.000    0.000    0.000    0.000    0.000 
#    0.000    0.000    0.000    0.000    0.000    0.000 
#
# Total GULP energy -222832.889299 kJ/mol
# GULP energy per Si atom -5570.822232 kJ/mol
# Density = 2.043652 g / cm^3
# Si number density = 20.483136 Si / 1000 Ang^3
#
#
#
# Elastic Constant Matrix: (Units=GPa)
#
#
# Indices 1 2 3 4 5 6 
#
# 1 81.4730 7.7509 21.5787 0.0000 0.0000 0.0000
# 2 7.7509 66.6392 8.8533 0.0000 0.0000 0.0000
# 3 21.5787 8.8533 38.3940 0.0000 0.0000 0.0000
# 4 0.0000 0.0000 0.0000 1.0108 0.0000 0.0000
# 5 0.0000 0.0000 0.0000 0.0000 42.2792 0.0000
# 6 0.0000 0.0000 0.0000 0.0000 0.0000 0.8993
#
#
#
# Elastic Compliance Matrix: (Units=1/GPa)
#
#
# Indices 1 2 3 4 5 6 
#
# 1 0.014445 -0.000621 -0.007976 0.000000 0.000000 0.000000
# 2 -0.000621 0.015507 -0.003227 0.000000 0.000000 0.000000
# 3 -0.007976 -0.003227 0.031273 0.000000 0.000000 0.000000
# 4 0.000000 0.000000 0.000000 0.989276 0.000000 0.000000
# 5 0.000000 0.000000 0.000000 0.000000 0.023652 0.000000
# 6 0.000000 0.000000 0.000000 0.000000 0.000000 1.111979
#
#
# Mechanical properties :
#
#
# Convention : Reuss Voigt Hill
#
# Bulk Modulus (GPa) = 26.61103 29.20801 27.90952
# Shear Modulus (GPa) = 2.24992 18.72610 10.48801
#
# Velocity S-wave (km/s) = 1.04919 3.02689 2.26527
# Velocity P-wave (km/s) = 3.80626 5.14845 4.52737
#
# Compressibility (1/GPa) = 0.03757840
#
# Stress axis : x y z
#
# Youngs Moduli (GPa) = 69.22586 64.48668 31.97697
#
# Poissons Ratio (x) = 0.04002 0.25504
# Poissons Ratio (y) = 0.04296 0.10319
# Poissons Ratio (z) = 0.55213 0.20810
#
# Static dielectric constant tensor:
#      x y z
#    x 1.774150 0.000000 0.000000 
#    y 0.000000 1.743250 0.000000 
#    z 0.000000 0.000000 1.725020 
# 
# From -- ./inp_files/6119.got.cif
#   From: 2010.05.17/outbox.cif.g08.bks.cpg/sg62_4_cif.got.tgz:6119.got - 2010.06.03 15:25:27.
