data_PCOD9465690
_publ_section_title
;
Structure prediction by ZEFSAII (Michael W. Deem and Ramdas Pophale) SiO2 
 PCOD9465690
Probable space group: P N M A
;
_chemical_formula_sum "Si O2"
_cell_formula_units_Z 56
_cell_length_a 23.930967
_cell_length_b 9.003076
_cell_length_c 13.957573
_cell_angle_alpha 90.000000
_cell_angle_beta 90.000000
_cell_angle_gamma 90.000000
_cell_volume 3007.191410
_symmetry_space_group_name_H-M "P N M A"
_symmetry_group_IT_number 62
_symmetry_cell_setting 'orthorhombic'
loop_
_space_group_symop_operation_xyz
x,y,z
1/2-x,-y,1/2+z
1/2+x,1/2-y,1/2-z
-x,1/2+y,-z
-x,-y,-z
1/2+x,y,1/2-z
1/2-x,1/2+y,1/2+z
x,1/2-y,z
loop_
_atom_site_type_symbol
_atom_site_label
_atom_site_fract_x
_atom_site_fract_y
_atom_site_fract_z
Si Si1 0.827921 0.927508 0.432897
Si Si2 0.727392 0.572624 0.108202
Si Si3 0.340903 0.927516 0.287061
Si Si4 0.056538 0.427194 0.463547
Si Si5 0.125467 0.071720 0.278942
Si Si6 0.055214 0.573761 0.884544
Si Si7 0.935626 0.426488 0.891417
O O1 0.820471 0.750000 0.446671
O O2 0.822855 0.962216 0.321427
O O3 0.890658 0.964321 0.468712
O O4 0.786012 0.012891 0.502474
O O5 0.720119 0.750000 0.112537
O O6 0.789616 0.536667 0.142944
O O7 0.682173 0.496056 0.178115
O O8 0.351638 0.750000 0.291665
O O9 0.396236 0.013756 0.316977
O O10 0.049492 0.250000 0.465558
O O11 0.076919 0.468339 0.356470
O O12 0.000000 0.500000 0.500000
O O13 0.129555 0.250000 0.276149
O O14 0.108758 0.006008 0.176804
O O15 0.046890 0.750000 0.873256
O O16 0.996886 0.490637 0.867218
O O17 0.072440 0.544819 0.995357
O O18 0.934125 0.250000 0.875954
#
# Coordination Sequence:
#
# PCOD9465690 Si02
#       7
#     8   8   8   8   8   8   8
#     4   9  20  39  57  78 112 151 188 232 286 340
#     4  10  21  38  58  84 115 149 194 241 285 338
#     4  10  22  39  60  85 115 153 196 240 289 346
#     4   9  19  33  51  78 109 141 179 224 278 336
#     4  10  21  37  57  82 112 149 192 235 285 345
#     4  10  22  38  57  85 116 148 192 239 287 344
#     4  10  21  38  59  83 116 154 190 235 289 344
#
# _framework density 18.622026999999999
#
# number of rings (size 3 to 8) (size 9 to 14) (size 15 to 20)
#    0.000    2.286    0.000    2.571    2.000    7.429 
#    0.000    4.286    0.000    0.000    0.000    0.000 
#    0.000    0.000    0.000    0.000    0.000    0.000 
#
# Total GULP energy -312721.954608 kJ/mol
# GULP energy per Si atom -5584.320618 kJ/mol
# Density = 1.857964 g / cm^3
# Si number density = 18.622027 Si / 1000 Ang^3
#
#
#
# Elastic Constant Matrix: (Units=GPa)
#
#
# Indices 1 2 3 4 5 6 
#
# 1 18.0031 12.0841 16.6691 0.0000 0.0000 0.0000
# 2 12.0841 36.5334 26.6853 0.0000 0.0000 0.0000
# 3 16.6691 26.6853 58.2973 0.0000 0.0000 0.0000
# 4 0.0000 0.0000 0.0000 33.6891 0.0000 0.0000
# 5 0.0000 0.0000 0.0000 0.0000 18.9160 0.0000
# 6 0.0000 0.0000 0.0000 0.0000 0.0000 19.9086
#
#
#
# Elastic Compliance Matrix: (Units=1/GPa)
#
#
# Indices 1 2 3 4 5 6 
#
# 1 0.080508 -0.014745 -0.016270 0.000000 0.000000 0.000000
# 2 -0.014745 0.043822 -0.015843 0.000000 0.000000 0.000000
# 3 -0.016270 -0.015843 0.029058 0.000000 0.000000 0.000000
# 4 0.000000 0.000000 0.000000 0.029683 0.000000 0.000000
# 5 0.000000 0.000000 0.000000 0.000000 0.052865 0.000000
# 6 0.000000 0.000000 0.000000 0.000000 0.000000 0.050230
#
#
# Mechanical properties :
#
#
# Convention : Reuss Voigt Hill
#
# Bulk Modulus (GPa) = 16.75871 24.85675 20.80773
# Shear Modulus (GPa) = 12.50713 18.32910 15.41812
#
# Velocity S-wave (km/s) = 2.59440 3.14071 2.88053
# Velocity P-wave (km/s) = 4.24187 5.15064 4.71819
#
# Compressibility (1/GPa) = 0.05967045
#
# Stress axis : x y z
#
# Youngs Moduli (GPa) = 12.42119 22.81975 34.41421
#
# Poissons Ratio (x) = 0.33647 0.55993
# Poissons Ratio (y) = 0.18315 0.54523
# Poissons Ratio (z) = 0.20210 0.36154
#
# Static dielectric constant tensor:
#      x y z
#    x 1.606300 0.000000 0.000000 
#    y 0.000000 1.635470 0.000000 
#    z 0.000000 0.000000 1.650270 
# 
# From -- ./inp_files/20188.got.cif
#   From: 2010.05.17/outbox.cif.g08.bks.cpg/sg62_11_cif.got.tgz:20188.got - 2010.06.03 15:25:27.
