data_PCOD9465604
_publ_section_title
;
Structure prediction by ZEFSAII (Michael W. Deem and Ramdas Pophale) SiO2 
 PCOD9465604
Probable space group: P N M A
;
_chemical_formula_sum "Si O2"
_cell_formula_units_Z 64
_cell_length_a 29.192934
_cell_length_b 8.900493
_cell_length_c 12.606730
_cell_angle_alpha 90.000000
_cell_angle_beta 90.000000
_cell_angle_gamma 90.000000
_cell_volume 3275.625625
_symmetry_space_group_name_H-M "P N M A"
_symmetry_group_IT_number 62
_symmetry_cell_setting 'orthorhombic'
loop_
_space_group_symop_operation_xyz
x,y,z
1/2-x,-y,1/2+z
1/2+x,1/2-y,1/2-z
-x,1/2+y,-z
-x,-y,-z
1/2+x,y,1/2-z
1/2-x,1/2+y,1/2+z
x,1/2-y,z
loop_
_atom_site_type_symbol
_atom_site_label
_atom_site_fract_x
_atom_site_fract_y
_atom_site_fract_z
Si Si1 0.405958 0.930211 0.574236
Si Si2 0.673087 0.578203 0.127993
Si Si3 0.709763 0.072274 0.929934
Si Si4 0.027391 0.070109 0.263239
Si Si5 0.570048 0.923458 0.040386
Si Si6 0.120121 0.569108 0.671091
Si Si7 0.187907 0.928583 0.124509
Si Si8 0.061602 0.069669 0.845779
O O1 0.403818 0.750000 0.575372
O O2 0.431442 0.976416 0.682878
O O3 0.433999 0.975305 0.469130
O O4 0.354806 0.993427 0.568465
O O5 0.688152 0.750000 0.104671
O O6 0.619505 0.572004 0.098896
O O7 0.681146 0.546945 0.250297
O O8 0.698868 0.463706 0.051998
O O9 0.706447 0.250000 0.908146
O O10 0.761209 0.020369 0.905574
O O11 0.669984 0.986947 0.865412
O O12 0.023880 0.250000 0.262819
O O13 0.036786 0.015393 0.382998
O O14 0.982484 0.999738 0.211066
O O15 0.554777 0.750000 0.034949
O O16 0.583438 0.975186 0.921757
O O17 0.119541 0.750000 0.676716
O O18 0.104489 0.494056 0.779789
O O19 0.185268 0.750000 0.104182
O O20 0.060233 0.250000 0.839587
#
# Coordination Sequence:
#
# PCOD9465604 Si02
#       8
#     8   8   8   8   8   8   8   8
#     4  10  23  40  59  87 119 152 196 247 294 347
#     4   9  18  35  56  79 111 151 191 236 288 341
#     4  10  21  36  57  87 118 151 193 239 293 352
#     4  11  22  37  60  90 118 150 195 244 295 351
#     4   9  18  35  60  84 110 148 192 239 290 342
#     4  10  22  41  61  84 117 156 198 243 295 351
#     4  10  21  37  59  86 115 152 197 241 290 349
#     4  11  24  41  60  84 120 161 197 239 296 354
#
# _framework density 19.538252
#
# number of rings (size 3 to 8) (size 9 to 14) (size 15 to 20)
#    0.000    2.000    1.250    2.625    0.000    7.000 
#    0.000    3.750    0.000    0.000    0.000    0.000 
#    0.000    0.000    0.000    0.000    0.000    0.000 
#
# Total GULP energy -357370.951205 kJ/mol
# GULP energy per Si atom -5583.921113 kJ/mol
# Density = 1.949378 g / cm^3
# Si number density = 19.538252 Si / 1000 Ang^3
#
#
#
# Elastic Constant Matrix: (Units=GPa)
#
#
# Indices 1 2 3 4 5 6 
#
# 1 66.7233 10.9089 0.5378 0.0000 0.0000 0.0000
# 2 10.9089 27.6200 14.7789 0.0000 0.0000 0.0000
# 3 0.5378 14.7789 40.2368 0.0000 0.0000 0.0000
# 4 0.0000 0.0000 0.0000 27.9742 0.0000 0.0000
# 5 0.0000 0.0000 0.0000 0.0000 23.4923 0.0000
# 6 0.0000 0.0000 0.0000 0.0000 0.0000 32.9661
#
#
#
# Elastic Compliance Matrix: (Units=1/GPa)
#
#
# Indices 1 2 3 4 5 6 
#
# 1 0.016248 -0.007842 0.002663 0.000000 0.000000 0.000000
# 2 -0.007842 0.048847 -0.017837 0.000000 0.000000 0.000000
# 3 0.002663 -0.017837 0.031369 0.000000 0.000000 0.000000
# 4 0.000000 0.000000 0.000000 0.035747 0.000000 0.000000
# 5 0.000000 0.000000 0.000000 0.000000 0.042567 0.000000
# 6 0.000000 0.000000 0.000000 0.000000 0.000000 0.030334
#
#
# Mechanical properties :
#
#
# Convention : Reuss Voigt Hill
#
# Bulk Modulus (GPa) = 19.82854 20.78123 20.30488
# Shear Modulus (GPa) = 18.65988 24.11016 21.38502
#
# Velocity S-wave (km/s) = 3.09373 3.51664 3.31194
# Velocity P-wave (km/s) = 4.78875 5.21040 5.00402
#
# Compressibility (1/GPa) = 0.05043236
#
# Stress axis : x y z
#
# Youngs Moduli (GPa) = 61.54604 20.47201 31.87898
#
# Poissons Ratio (x) = 0.16055 -0.08491
# Poissons Ratio (y) = 0.48267 0.56861
# Poissons Ratio (z) = -0.16392 0.36515
#
# Static dielectric constant tensor:
#      x y z
#    x 1.685150 0.000000 0.000000 
#    y 0.000000 1.661850 0.000000 
#    z 0.000000 0.000000 1.685110 
# 
# From -- ./inp_files/15929.got.cif
#   From: 2010.05.17/outbox.cif.g08.bks.cpg/sg62_8_cif.got.tgz:15929.got - 2010.06.03 15:25:27.
