data_PCOD9465996
_publ_section_title
;
Structure prediction by ZEFSAII (Michael W. Deem and Ramdas Pophale) SiO2 
 PCOD9465996
Probable space group: P N M A
;
_chemical_formula_sum "Si O2"
_cell_formula_units_Z 64
_cell_length_a 12.420222
_cell_length_b 12.854096
_cell_length_c 20.301794
_cell_angle_alpha 90.000000
_cell_angle_beta 90.000000
_cell_angle_gamma 90.000000
_cell_volume 3241.196150
_symmetry_space_group_name_H-M "P N M A"
_symmetry_group_IT_number 62
_symmetry_cell_setting 'orthorhombic'
loop_
_space_group_symop_operation_xyz
x,y,z
1/2-x,-y,1/2+z
1/2+x,1/2-y,1/2-z
-x,1/2+y,-z
-x,-y,-z
1/2+x,y,1/2-z
1/2-x,1/2+y,1/2+z
x,1/2-y,z
loop_
_atom_site_type_symbol
_atom_site_label
_atom_site_fract_x
_atom_site_fract_y
_atom_site_fract_z
Si Si1 0.473562 0.130269 0.418232
Si Si2 0.951546 0.524760 0.572158
Si Si3 0.085053 0.632652 0.203967
Si Si4 0.816417 0.980821 0.905019
Si Si5 0.311196 0.369437 0.848190
Si Si6 0.882602 0.495318 0.200052
Si Si7 0.133918 0.627804 0.664925
Si Si8 0.243503 0.367972 0.489247
O O1 0.505841 0.250000 0.416105
O O2 0.441917 0.087527 0.346512
O O3 0.363564 0.123904 0.459448
O O4 0.576567 0.063290 0.439947
O O5 0.899896 0.421120 0.604370
O O6 0.850985 0.602989 0.561141
O O7 0.000000 0.500000 0.500000
O O8 0.038293 0.575986 0.621551
O O9 0.080062 0.750000 0.177708
O O10 0.144782 0.558228 0.152579
O O11 0.143673 0.633546 0.273920
O O12 0.967151 0.586241 0.215701
O O13 0.744703 0.889605 0.874722
O O14 0.742516 0.047780 0.953231
O O15 0.284136 0.250000 0.867368
O O16 0.211268 0.448601 0.841471
O O17 0.852480 0.435861 0.266884
O O18 0.113402 0.750000 0.676120
O O19 0.228188 0.250000 0.512817
#
# Coordination Sequence:
#
# PCOD9465996 Si02
#       8
#     8   8   8   8   8   8   8   8
#     4  10  22  40  65  92 125 166 209 263 323 379
#     4  12  25  47  64  93 134 173 224 272 318 392
#     4  10  21  38  64  95 128 163 206 264 328 385
#     4  11  22  41  63  94 130 163 214 265 317 388
#     4  11  23  41  66  95 128 172 217 266 330 386
#     4  11  21  41  63  95 131 164 212 269 319 390
#     4  12  25  41  64  95 131 173 214 263 325 386
#     4  11  23  42  67  92 125 171 215 264 323 382
#
# _framework density 19.745795999999999
#
# number of rings (size 3 to 8) (size 9 to 14) (size 15 to 20)
#    0.000    1.000    5.000    2.250    0.000    1.000 
#    0.000    1.250    0.000    0.000    0.000    0.000 
#    0.000    0.000    0.000    0.000    0.000    0.000 
#
# Total GULP energy -357316.653089 kJ/mol
# GULP energy per Si atom -5583.072705 kJ/mol
# Density = 1.970085 g / cm^3
# Si number density = 19.745796 Si / 1000 Ang^3
#
#
#
# Elastic Constant Matrix: (Units=GPa)
#
#
# Indices 1 2 3 4 5 6 
#
# 1 66.7386 32.5741 0.3098 0.0000 0.0000 0.0000
# 2 32.5741 127.3776 29.8030 0.0000 0.0000 0.0000
# 3 0.3098 29.8030 27.5944 0.0000 0.0000 0.0000
# 4 0.0000 0.0000 0.0000 17.8209 0.0000 0.0000
# 5 0.0000 0.0000 0.0000 0.0000 34.9422 0.0000
# 6 0.0000 0.0000 0.0000 0.0000 0.0000 29.2570
#
#
#
# Elastic Compliance Matrix: (Units=1/GPa)
#
#
# Indices 1 2 3 4 5 6 
#
# 1 0.017916 -0.006068 0.006352 0.000000 0.000000 0.000000
# 2 -0.006068 0.012561 -0.013498 0.000000 0.000000 0.000000
# 3 0.006352 -0.013498 0.050746 0.000000 0.000000 0.000000
# 4 0.000000 0.000000 0.000000 0.056114 0.000000 0.000000
# 5 0.000000 0.000000 0.000000 0.000000 0.028619 0.000000
# 6 0.000000 0.000000 0.000000 0.000000 0.000000 0.034180
#
#
# Mechanical properties :
#
#
# Convention : Reuss Voigt Hill
#
# Bulk Modulus (GPa) = 18.24949 38.56494 28.40722
# Shear Modulus (GPa) = 20.42263 27.00561 23.71412
#
# Velocity S-wave (km/s) = 3.21951 3.70221 3.46926
# Velocity P-wave (km/s) = 4.80443 6.15209 5.51955
#
# Compressibility (1/GPa) = 0.05479604
#
# Stress axis : x y z
#
# Youngs Moduli (GPa) = 55.81598 79.61451 19.70604
#
# Poissons Ratio (x) = 0.48310 -0.12518
# Poissons Ratio (y) = 0.33869 0.26599
# Poissons Ratio (z) = -0.35457 1.07461
#
# Static dielectric constant tensor:
#      x y z
#    x 1.716190 0.000000 0.000000 
#    y 0.000000 1.688870 0.000000 
#    z 0.000000 0.000000 1.676090 
# 
# From -- ./inp_files/29479.got.cif
#   From: 2010.05.17/outbox.cif.g08.bks.cpg/sg62_15_cif.got.tgz:29479.got - 2010.06.03 15:25:27.
