data_PCOD9465729
_publ_section_title
;
Structure prediction by ZEFSAII (Michael W. Deem and Ramdas Pophale) SiO2 
 PCOD9465729
Probable space group: P N M A
;
_chemical_formula_sum "Si O2"
_cell_formula_units_Z 48
_cell_length_a 13.927581
_cell_length_b 15.386804
_cell_length_c 11.297855
_cell_angle_alpha 90.000000
_cell_angle_beta 90.000000
_cell_angle_gamma 90.000000
_cell_volume 2421.141162
_symmetry_space_group_name_H-M "P N M A"
_symmetry_group_IT_number 62
_symmetry_cell_setting 'orthorhombic'
loop_
_space_group_symop_operation_xyz
x,y,z
1/2-x,-y,1/2+z
1/2+x,1/2-y,1/2-z
-x,1/2+y,-z
-x,-y,-z
1/2+x,y,1/2-z
1/2-x,1/2+y,1/2+z
x,1/2-y,z
loop_
_atom_site_type_symbol
_atom_site_label
_atom_site_fract_x
_atom_site_fract_y
_atom_site_fract_z
Si Si1 0.307239 0.913082 0.258075
Si Si2 0.632318 0.852927 0.093725
Si Si3 0.742616 0.850893 0.591631
Si Si4 0.111799 0.011740 0.988714
Si Si5 0.079658 0.152002 0.551961
Si Si6 0.236963 0.908553 0.645772
O O1 0.199714 0.894753 0.304938
O O2 0.355709 0.845886 0.170098
O O3 0.367001 0.927220 0.376535
O O4 0.313243 0.002094 0.184705
O O5 0.629136 0.750000 0.119702
O O6 0.523634 0.888545 0.081999
O O7 0.683318 0.867481 0.966520
O O8 0.728734 0.750000 0.553462
O O9 0.667416 0.920382 0.537311
O O10 0.847546 0.883442 0.547276
O O11 0.738976 0.854330 0.733783
O O12 0.159329 0.060251 0.099814
O O13 0.000000 0.000000 0.000000
O O14 0.056804 0.250000 0.511772
#
# Coordination Sequence:
#
# PCOD9465729 Si02
#       6
#     8   8   8   8   8   8
#     4  10  21  37  58  85 117 152 193 248 293 352
#     4  10  22  39  59  85 119 156 198 246 299 358
#     4  10  21  39  61  87 120 158 203 256 305 361
#     4  10  22  39  58  87 120 159 203 246 302 363
#     4  10  21  37  61  90 116 156 201 245 304 359
#     4  10  21  39  57  85 118 156 198 246 298 353
#
# _framework density 19.825361999999998
#
# number of rings (size 3 to 8) (size 9 to 14) (size 15 to 20)
#    0.000    2.000    1.667    1.000    2.333    3.333 
#    0.000    6.667    0.000    0.000    0.000    0.000 
#    0.000    0.000    0.000    0.000    0.000    0.000 
#
# Total GULP energy -267522.889483 kJ/mol
# GULP energy per Si atom -5573.393531 kJ/mol
# Density = 1.978024 g / cm^3
# Si number density = 19.825362 Si / 1000 Ang^3
#
#
#
# Elastic Constant Matrix: (Units=GPa)
#
#
# Indices 1 2 3 4 5 6 
#
# 1 133.5739 4.2756 26.1386 0.0000 0.0000 0.0000
# 2 4.2756 50.0723 7.2029 0.0000 0.0000 0.0000
# 3 26.1386 7.2029 57.8018 0.0000 0.0000 0.0000
# 4 0.0000 0.0000 0.0000 -9.1546 0.0000 0.0000
# 5 0.0000 0.0000 0.0000 0.0000 13.8676 0.0000
# 6 0.0000 0.0000 0.0000 0.0000 0.0000 23.7983
#
#
#
# Elastic Compliance Matrix: (Units=1/GPa)
#
#
# Indices 1 2 3 4 5 6 
#
# 1 0.008215 -0.000170 -0.003694 0.000000 0.000000 0.000000
# 2 -0.000170 0.020339 -0.002458 0.000000 0.000000 0.000000
# 3 -0.003694 -0.002458 0.019277 0.000000 0.000000 0.000000
# 4 0.000000 0.000000 0.000000 -0.109235 0.000000 0.000000
# 5 0.000000 0.000000 0.000000 0.000000 0.072110 0.000000
# 6 0.000000 0.000000 0.000000 0.000000 0.000000 0.042020
#
#
# Mechanical properties :
#
#
# Convention : Reuss Voigt Hill
#
# Bulk Modulus (GPa) = 28.41854 35.18691 31.80273
# Shear Modulus (GPa) = 64.85224 19.29099 42.07162
#
# Velocity S-wave (km/s) = 5.72562 3.12275 4.61163
# Velocity P-wave (km/s) = 7.62076 5.54879 6.66577
#
# Compressibility (1/GPa) = 0.03518830
#
# Stress axis : x y z
#
# Youngs Moduli (GPa) = 121.73264 49.16620 51.87514
#
# Poissons Ratio (x) = 0.00836 0.19161
# Poissons Ratio (y) = 0.02071 0.12749
# Poissons Ratio (z) = 0.44963 0.12083
#
# Static dielectric constant tensor:
#      x y z
#    x 1.710300 0.000000 0.000000 
#    y 0.000000 1.770010 0.000000 
#    z 0.000000 0.000000 1.707890 
# 
# From -- ./inp_files/12248.got.cif
#   From: 2010.05.17/outbox.cif.g08.bks.cpg/sg62_7_cif.got.tgz:12248.got - 2010.06.03 15:25:27.
