data_PCOD9465774
_publ_section_title
;
Structure prediction by ZEFSAII (Michael W. Deem and Ramdas Pophale) SiO2 
 PCOD9465774
Probable space group: P N M A
;
_chemical_formula_sum "Si O2"
_cell_formula_units_Z 48
_cell_length_a 8.302542
_cell_length_b 8.537591
_cell_length_c 28.743579
_cell_angle_alpha 90.000000
_cell_angle_beta 90.000000
_cell_angle_gamma 90.000000
_cell_volume 2037.451457
_symmetry_space_group_name_H-M "P N M A"
_symmetry_group_IT_number 62
_symmetry_cell_setting 'orthorhombic'
loop_
_space_group_symop_operation_xyz
x,y,z
1/2-x,-y,1/2+z
1/2+x,1/2-y,1/2-z
-x,1/2+y,-z
-x,-y,-z
1/2+x,y,1/2-z
1/2-x,1/2+y,1/2+z
x,1/2-y,z
loop_
_atom_site_type_symbol
_atom_site_label
_atom_site_fract_x
_atom_site_fract_y
_atom_site_fract_z
Si Si1 0.751009 0.432547 0.651516
Si Si2 0.235910 0.066471 0.686432
Si Si3 0.753421 0.568805 0.986025
Si Si4 0.580131 0.428525 0.070927
Si Si5 0.573122 0.561415 0.401948
Si Si6 0.925369 0.569656 0.735253
O O1 0.737906 0.250000 0.664293
O O2 0.894547 0.457796 0.614367
O O3 0.593126 0.482116 0.623071
O O4 0.788562 0.532464 0.696893
O O5 0.195294 0.250000 0.685759
O O6 0.288593 0.015449 0.635069
O O7 0.388156 0.037999 0.720439
O O8 0.090465 0.972457 0.709330
O O9 0.775781 0.750000 0.999517
O O10 0.590963 0.556435 0.954635
O O11 0.893425 0.511012 0.952070
O O12 0.712435 0.469648 0.031598
O O13 0.598938 0.250000 0.087138
O O14 0.575362 0.750000 0.406237
O O15 0.922189 0.750000 0.749207
#
# Coordination Sequence:
#
# PCOD9465774 Si02
#       6
#     8   8   8   8   8   8
#     4  11  23  40  61  87 120 159 202 245 296 358
#     4  11  23  42  66  90 120 161 204 245 296 359
#     4  10  21  37  60  87 116 153 196 243 298 358
#     4  10  21  38  60  87 118 153 197 247 298 354
#     4  10  23  40  60  86 117 155 199 245 292 349
#     4  12  25  41  63  93 125 157 198 250 304 355
#
# _framework density 23.558843
#
# number of rings (size 3 to 8) (size 9 to 14) (size 15 to 20)
#    0.000    1.333    0.000    5.500    0.000    9.333 
#    0.000    0.000    0.000    0.000    0.000    0.000 
#    0.000    0.000    0.000    0.000    0.000    0.000 
#
# Total GULP energy -268900.262541 kJ/mol
# GULP energy per Si atom -5602.088803 kJ/mol
# Density = 2.350522 g / cm^3
# Si number density = 23.558843 Si / 1000 Ang^3
#
#
#
# Elastic Constant Matrix: (Units=GPa)
#
#
# Indices 1 2 3 4 5 6 
#
# 1 70.2089 2.3978 -0.3983 0.0000 0.0000 0.0000
# 2 2.3978 40.7022 3.7955 0.0000 0.0000 0.0000
# 3 -0.3983 3.7955 84.2158 0.0000 0.0000 0.0000
# 4 0.0000 0.0000 0.0000 27.0213 0.0000 0.0000
# 5 0.0000 0.0000 0.0000 0.0000 39.9101 0.0000
# 6 0.0000 0.0000 0.0000 0.0000 0.0000 21.9836
#
#
#
# Elastic Compliance Matrix: (Units=1/GPa)
#
#
# Indices 1 2 3 4 5 6 
#
# 1 0.014273 -0.000851 0.000106 0.000000 0.000000 0.000000
# 2 -0.000851 0.024723 -0.001118 0.000000 0.000000 0.000000
# 3 0.000106 -0.001118 0.011925 0.000000 0.000000 0.000000
# 4 0.000000 0.000000 0.000000 0.037008 0.000000 0.000000
# 5 0.000000 0.000000 0.000000 0.000000 0.025056 0.000000
# 6 0.000000 0.000000 0.000000 0.000000 0.000000 0.045489
#
#
# Mechanical properties :
#
#
# Convention : Reuss Voigt Hill
#
# Bulk Modulus (GPa) = 21.18876 22.96856 22.07866
# Shear Modulus (GPa) = 28.10067 30.40510 29.25288
#
# Velocity S-wave (km/s) = 3.45742 3.59639 3.52759
# Velocity P-wave (km/s) = 4.99518 5.19769 5.09744
#
# Compressibility (1/GPa) = 0.04719483
#
# Stress axis : x y z
#
# Youngs Moduli (GPa) = 70.06302 40.44806 83.85632
#
# Poissons Ratio (x) = 0.03441 -0.00888
# Poissons Ratio (y) = 0.05960 0.09377
# Poissons Ratio (z) = -0.00742 0.04523
#
# Static dielectric constant tensor:
#      x y z
#    x 1.975400 0.000000 0.000000 
#    y 0.000000 1.793440 0.000000 
#    z 0.000000 0.000000 1.853970 
# 
# From -- ./inp_files/32042.got.cif
#   From: 2010.05.17/outbox.cif.g08.bks.cpg/sg62_17_cif.got.tgz:32042.got - 2010.06.03 15:25:27.
