data_PCOD9465520
_publ_section_title
;
Structure prediction by ZEFSAII (Michael W. Deem and Ramdas Pophale) SiO2 
 PCOD9465520
Probable space group: P N M A
;
_chemical_formula_sum "Si O2"
_cell_formula_units_Z 56
_cell_length_a 20.561776
_cell_length_b 8.630977
_cell_length_c 16.278535
_cell_angle_alpha 90.000000
_cell_angle_beta 90.000000
_cell_angle_gamma 90.000000
_cell_volume 2888.922561
_symmetry_space_group_name_H-M "P N M A"
_symmetry_group_IT_number 62
_symmetry_cell_setting 'orthorhombic'
loop_
_space_group_symop_operation_xyz
x,y,z
1/2-x,-y,1/2+z
1/2+x,1/2-y,1/2-z
-x,1/2+y,-z
-x,-y,-z
1/2+x,y,1/2-z
1/2-x,1/2+y,1/2+z
x,1/2-y,z
loop_
_atom_site_type_symbol
_atom_site_label
_atom_site_fract_x
_atom_site_fract_y
_atom_site_fract_z
Si Si1 0.688516 0.562791 0.825723
Si Si2 0.533636 0.062567 0.251146
Si Si3 0.099547 0.563460 0.829578
Si Si4 0.175542 0.434070 0.492208
Si Si5 0.835159 0.937654 0.835958
Si Si6 0.043609 0.566121 0.426539
Si Si7 0.816727 0.564855 0.023890
O O1 0.686709 0.750000 0.836571
O O2 0.641013 0.521747 0.751647
O O3 0.670326 0.487569 0.912699
O O4 0.763173 0.517169 0.805981
O O5 0.534685 0.250000 0.245908
O O6 0.474990 0.020226 0.312081
O O7 0.603313 0.006183 0.284526
O O8 0.520616 0.998096 0.160896
O O9 0.103307 0.750000 0.838702
O O10 0.132044 0.486320 0.908173
O O11 0.170071 0.250000 0.486422
O O12 0.117340 0.511177 0.442033
O O13 0.246380 0.488120 0.461728
O O14 0.837313 0.750000 0.832676
O O15 0.838808 0.981700 0.931923
O O16 0.039911 0.750000 0.427508
O O17 0.000000 0.500000 0.500000
O O18 0.808527 0.750000 0.024175
#
# Coordination Sequence:
#
# PCOD9465520 Si02
#       7
#     8   8   8   8   8   8   8
#     4   9  18  35  57  82 116 156 196 246 301 356
#     4  10  21  38  59  86 119 160 202 244 298 360
#     4  10  21  35  56  86 118 154 198 246 299 357
#     4  11  22  38  61  88 117 153 196 246 304 359
#     4   8  17  35  57  80 112 156 198 241 298 354
#     4  12  25  41  61  89 123 159 198 245 299 360
#     4  10  21  38  59  85 116 155 202 249 297 352
#
# _framework density 19.384388999999999
#
# number of rings (size 3 to 8) (size 9 to 14) (size 15 to 20)
#    0.000    2.000    0.000    4.714    2.000    2.857 
#    0.000    3.571    0.000    0.000    0.000    0.000 
#    0.000    0.000    0.000    0.000    0.000    0.000 
#
# Total GULP energy -312902.135478 kJ/mol
# GULP energy per Si atom -5587.538134 kJ/mol
# Density = 1.934027 g / cm^3
# Si number density = 19.384389 Si / 1000 Ang^3
#
#
#
# Elastic Constant Matrix: (Units=GPa)
#
#
# Indices 1 2 3 4 5 6 
#
# 1 61.5910 15.7523 12.9985 0.0000 0.0000 0.0000
# 2 15.7523 39.2459 7.7434 0.0000 0.0000 0.0000
# 3 12.9985 7.7434 27.2261 0.0000 0.0000 0.0000
# 4 0.0000 0.0000 0.0000 27.6082 0.0000 0.0000
# 5 0.0000 0.0000 0.0000 0.0000 36.3738 0.0000
# 6 0.0000 0.0000 0.0000 0.0000 0.0000 23.0170
#
#
#
# Elastic Compliance Matrix: (Units=1/GPa)
#
#
# Indices 1 2 3 4 5 6 
#
# 1 0.019432 -0.006324 -0.007479 0.000000 0.000000 0.000000
# 2 -0.006324 0.029053 -0.005244 0.000000 0.000000 0.000000
# 3 -0.007479 -0.005244 0.041792 0.000000 0.000000 0.000000
# 4 0.000000 0.000000 0.000000 0.036221 0.000000 0.000000
# 5 0.000000 0.000000 0.000000 0.000000 0.027492 0.000000
# 6 0.000000 0.000000 0.000000 0.000000 0.000000 0.043446
#
#
# Mechanical properties :
#
#
# Convention : Reuss Voigt Hill
#
# Bulk Modulus (GPa) = 19.16311 22.33904 20.75107
# Shear Modulus (GPa) = 19.76879 23.50437 21.63658
#
# Velocity S-wave (km/s) = 3.19694 3.48593 3.34456
# Velocity P-wave (km/s) = 4.85124 5.26798 5.06390
#
# Compressibility (1/GPa) = 0.05218361
#
# Stress axis : x y z
#
# Youngs Moduli (GPa) = 51.46183 34.41952 23.92829
#
# Poissons Ratio (x) = 0.21766 0.17895
# Poissons Ratio (y) = 0.32544 0.12548
# Poissons Ratio (z) = 0.38487 0.18049
#
# Static dielectric constant tensor:
#      x y z
#    x 1.681710 0.000000 0.000000 
#    y 0.000000 1.652730 0.000000 
#    z 0.000000 0.000000 1.650560 
# 
# From -- ./inp_files/20268.got.cif
#   From: 2010.05.17/outbox.cif.g08.bks.cpg/sg62_11_cif.got.tgz:20268.got - 2010.06.03 15:25:27.
