data_PCOD9465462
_publ_section_title
;
Structure prediction by ZEFSAII (Michael W. Deem and Ramdas Pophale) SiO2 
 PCOD9465462
Probable space group: P N M A
;
_chemical_formula_sum "Si O2"
_cell_formula_units_Z 64
_cell_length_a 20.268377
_cell_length_b 9.608715
_cell_length_c 18.111123
_cell_angle_alpha 90.000000
_cell_angle_beta 90.000000
_cell_angle_gamma 90.000000
_cell_volume 3527.196590
_symmetry_space_group_name_H-M "P N M A"
_symmetry_group_IT_number 62
_symmetry_cell_setting 'orthorhombic'
loop_
_space_group_symop_operation_xyz
x,y,z
1/2-x,-y,1/2+z
1/2+x,1/2-y,1/2-z
-x,1/2+y,-z
-x,-y,-z
1/2+x,y,1/2-z
1/2-x,1/2+y,1/2+z
x,1/2-y,z
loop_
_atom_site_type_symbol
_atom_site_label
_atom_site_fract_x
_atom_site_fract_y
_atom_site_fract_z
Si Si1 0.327355 0.475776 0.579552
Si Si2 0.301289 0.583230 0.899124
Si Si3 0.473862 0.092286 0.568503
Si Si4 0.798154 0.584701 0.761978
Si Si5 0.170516 0.092178 0.927002
Si Si6 0.674532 0.093832 0.939989
Si Si7 0.561775 0.917528 0.660045
Si Si8 0.850995 0.414679 0.299938
O O1 0.395101 0.395986 0.565755
O O2 0.327431 0.519077 0.664675
O O3 0.331531 0.593060 0.516159
O O4 0.255037 0.409771 0.565784
O O5 0.283508 0.750000 0.899268
O O6 0.238210 0.484363 0.906462
O O7 0.341531 0.559813 0.974600
O O8 0.329238 0.552049 0.817749
O O9 0.501703 0.250000 0.567584
O O10 0.500000 0.000000 0.500000
O O11 0.496021 0.002072 0.639672
O O12 0.802262 0.750000 0.771339
O O13 0.719719 0.548353 0.762367
O O14 0.166110 0.250000 0.898878
O O15 0.114590 0.991542 0.894126
O O16 0.652543 0.250000 0.924125
O O17 0.646834 0.992881 0.877629
O O18 0.556989 0.750000 0.647632
O O19 0.590733 0.941535 0.741869
O O20 0.849283 0.250000 0.313567
#
# Coordination Sequence:
#
# PCOD9465462 Si02
#       8
#     8   8   8   8   8   8   8   8
#     4  10  21  34  49  72 106 139 176 213 255 297
#     4   9  17  31  49  73 104 137 167 202 258 308
#     4  12  25  38  53  73 103 142 182 218 253 298
#     4   9  16  30  51  72  99 135 171 209 251 310
#     4  11  20  30  48  72 100 133 173 212 250 298
#     4   9  18  31  52  77 103 135 167 208 257 309
#     4  11  22  36  53  71  98 136 175 214 255 298
#     4   9  18  33  51  72  98 133 169 210 260 306
#
# _framework density 18.144722000000002
#
# number of rings (size 3 to 8) (size 9 to 14) (size 15 to 20)
#    0.000    2.000    2.500    1.875    0.000    6.500 
#    0.000    0.625    0.000    0.000    0.000    0.875 
#    0.000    0.000    0.000    0.000    0.000    0.000 
#
# Total GULP energy -356298.581274 kJ/mol
# GULP energy per Si atom -5567.165332 kJ/mol
# Density = 1.810342 g / cm^3
# Si number density = 18.144722 Si / 1000 Ang^3
#
#
#
# Elastic Constant Matrix: (Units=GPa)
#
#
# Indices 1 2 3 4 5 6 
#
# 1 17.2827 2.8238 2.6717 0.0000 0.0000 0.0000
# 2 2.8238 65.6099 38.2351 0.0000 0.0000 0.0000
# 3 2.6717 38.2351 148.2447 0.0000 0.0000 0.0000
# 4 0.0000 0.0000 0.0000 20.1317 0.0000 0.0000
# 5 0.0000 0.0000 0.0000 0.0000 23.8308 0.0000
# 6 0.0000 0.0000 0.0000 0.0000 0.0000 10.0998
#
#
#
# Elastic Compliance Matrix: (Units=1/GPa)
#
#
# Indices 1 2 3 4 5 6 
#
# 1 0.058300 -0.002232 -0.000475 0.000000 0.000000 0.000000
# 2 -0.002232 0.018023 -0.004608 0.000000 0.000000 0.000000
# 3 -0.000475 -0.004608 0.007943 0.000000 0.000000 0.000000
# 4 0.000000 0.000000 0.000000 0.049673 0.000000 0.000000
# 5 0.000000 0.000000 0.000000 0.000000 0.041962 0.000000
# 6 0.000000 0.000000 0.000000 0.000000 0.000000 0.099012
#
#
# Mechanical properties :
#
#
# Convention : Reuss Voigt Hill
#
# Bulk Modulus (GPa) = 14.36075 35.39985 24.88030
# Shear Modulus (GPa) = 15.98693 23.30624 19.64659
#
# Velocity S-wave (km/s) = 2.97152 3.58783 3.29412
# Velocity P-wave (km/s) = 4.43903 6.05933 5.31133
#
# Compressibility (1/GPa) = 0.06963426
#
# Stress axis : x y z
#
# Youngs Moduli (GPa) = 17.15280 55.48393 125.90129
#
# Poissons Ratio (x) = 0.12386 0.05979
# Poissons Ratio (y) = 0.03829 0.58019
# Poissons Ratio (z) = 0.00815 0.25569
#
# Static dielectric constant tensor:
#      x y z
#    x 1.646890 0.000000 0.000000 
#    y 0.000000 1.628980 0.000000 
#    z 0.000000 0.000000 1.659880 
# 
# From -- ./inp_files/24961.got.cif
#   From: 2010.05.17/outbox.cif.g08.bks.cpg/sg62_13_cif.got.tgz:24961.got - 2010.06.03 15:25:27.
