data_PCOD9465947
_publ_section_title
;
Structure prediction by ZEFSAII (Michael W. Deem and Ramdas Pophale) SiO2 
 PCOD9465947
Probable space group: P N M A
;
_chemical_formula_sum "Si O2"
_cell_formula_units_Z 28
_cell_length_a 4.865445
_cell_length_b 9.354603
_cell_length_c 24.424079
_cell_angle_alpha 90.000000
_cell_angle_beta 90.000000
_cell_angle_gamma 90.000000
_cell_volume 1111.645015
_symmetry_space_group_name_H-M "P N M A"
_symmetry_group_IT_number 62
_symmetry_cell_setting 'orthorhombic'
loop_
_space_group_symop_operation_xyz
x,y,z
1/2-x,-y,1/2+z
1/2+x,1/2-y,1/2-z
-x,1/2+y,-z
-x,-y,-z
1/2+x,y,1/2-z
1/2-x,1/2+y,1/2+z
x,1/2-y,z
loop_
_atom_site_type_symbol
_atom_site_label
_atom_site_fract_x
_atom_site_fract_y
_atom_site_fract_z
Si Si1 0.370259 0.088506 0.902385
Si Si2 0.860735 0.941804 0.288581
Si Si3 0.613285 0.075568 0.444701
Si Si4 0.209212 0.250000 0.218514
O O1 0.328164 0.250000 0.926181
O O2 0.505025 0.112929 0.843341
O O3 0.088823 0.998542 0.899978
O O4 0.584686 0.989265 0.935176
O O5 0.066535 0.910975 0.238121
O O6 0.825981 0.107336 0.305428
O O7 0.603778 0.250000 0.444330
O O8 0.500000 0.000000 0.500000
O O9 0.882592 0.250000 0.223768
#
# Coordination Sequence:
#
# PCOD9465947 Si02
#       4
#     8   8   8   4
#     4  12  26  45  72 106 145 186 235 288 351 419
#     4  10  21  38  61  96 137 185 232 282 335 403
#     4  12  27  49  76 104 139 180 233 293 358 424
#     4   8  16  30  50  78 120 164 212 266 318 372
#
# _framework density 25.187895000000001
#
# number of rings (size 3 to 8) (size 9 to 14) (size 15 to 20)
#    0.000    1.143    0.000    6.000    4.000    1.143 
#    5.143    0.000    0.000    0.000    0.000    0.000 
#    0.000    0.000    0.000    0.000    0.000    0.000 
#
# Total GULP energy -156262.159953 kJ/mol
# GULP energy per Si atom -5580.791427 kJ/mol
# Density = 2.513057 g / cm^3
# Si number density = 25.187895 Si / 1000 Ang^3
#
#
#
# Elastic Constant Matrix: (Units=GPa)
#
#
# Indices 1 2 3 4 5 6 
#
# 1 151.8672 49.2345 0.2615 0.0000 0.0000 0.0000
# 2 49.2345 273.7919 19.1263 0.0000 0.0000 0.0000
# 3 0.2615 19.1263 75.8069 0.0000 0.0000 0.0000
# 4 0.0000 0.0000 0.0000 29.0222 0.0000 0.0000
# 5 0.0000 0.0000 0.0000 0.0000 42.5206 0.0000
# 6 0.0000 0.0000 0.0000 0.0000 0.0000 -21.7169
#
#
#
# Elastic Compliance Matrix: (Units=1/GPa)
#
#
# Indices 1 2 3 4 5 6 
#
# 1 0.006999 -0.001279 0.000299 0.000000 0.000000 0.000000
# 2 -0.001279 0.003952 -0.000993 0.000000 0.000000 0.000000
# 3 0.000299 -0.000993 0.013441 0.000000 0.000000 0.000000
# 4 0.000000 0.000000 0.000000 0.034456 0.000000 0.000000
# 5 0.000000 0.000000 0.000000 0.000000 0.023518 0.000000
# 6 0.000000 0.000000 0.000000 0.000000 0.000000 -0.046047
#
#
# Mechanical properties :
#
#
# Convention : Reuss Voigt Hill
#
# Bulk Modulus (GPa) = 48.91227 70.96785 59.94006
# Shear Modulus (GPa) = 106.20056 38.82142 72.51099
#
# Velocity S-wave (km/s) = 6.50037 3.93016 5.37127
# Velocity P-wave (km/s) = 8.70637 6.98795 7.89406
#
# Compressibility (1/GPa) = 0.02044477
#
# Stress axis : x y z
#
# Youngs Moduli (GPa) = 142.87804 253.04734 74.40017
#
# Poissons Ratio (x) = 0.32376 -0.02222
# Poissons Ratio (y) = 0.18281 0.07385
# Poissons Ratio (z) = -0.04267 0.25119
#
# Static dielectric constant tensor:
#      x y z
#    x 1.924480 0.000000 0.000000 
#    y 0.000000 1.978680 0.000000 
#    z 0.000000 0.000000 2.099100 
# 
# From -- ./inp_files/28096.got.cif
#   From: 2010.05.17/outbox.cif.g08.bks.cpg/sg62_15_cif.got.tgz:28096.got - 2010.06.03 15:25:27.
