data_PCOD9465203
_publ_section_title
;
Structure prediction by ZEFSAII (Michael W. Deem and Ramdas Pophale) SiO2 
 PCOD9465203
Probable space group: P N M A
;
_chemical_formula_sum "Si O2"
_cell_formula_units_Z 64
_cell_length_a 11.924227
_cell_length_b 13.582481
_cell_length_c 20.193841
_cell_angle_alpha 90.000000
_cell_angle_beta 90.000000
_cell_angle_gamma 90.000000
_cell_volume 3270.606335
_symmetry_space_group_name_H-M "P N M A"
_symmetry_group_IT_number 62
_symmetry_cell_setting 'orthorhombic'
loop_
_space_group_symop_operation_xyz
x,y,z
1/2-x,-y,1/2+z
1/2+x,1/2-y,1/2-z
-x,1/2+y,-z
-x,-y,-z
1/2+x,y,1/2-z
1/2-x,1/2+y,1/2+z
x,1/2-y,z
loop_
_atom_site_type_symbol
_atom_site_label
_atom_site_fract_x
_atom_site_fract_y
_atom_site_fract_z
Si Si1 0.895535 0.138623 0.861720
Si Si2 0.551681 0.866225 0.513047
Si Si3 0.137296 0.361792 0.652912
Si Si4 0.435712 0.633414 0.842627
Si Si5 0.202335 0.968469 0.875228
Si Si6 0.464207 0.994797 0.265609
Si Si7 0.203227 0.132144 0.975107
Si Si8 0.908161 0.466194 0.447223
O O1 0.943584 0.250000 0.854886
O O2 0.769977 0.140199 0.834077
O O3 0.963723 0.057802 0.822140
O O4 0.896741 0.116615 0.940065
O O5 0.558626 0.750000 0.525828
O O6 0.621079 0.918235 0.570593
O O7 0.419607 0.890839 0.506113
O O8 0.099862 0.250000 0.640056
O O9 0.123200 0.434365 0.591281
O O10 0.071524 0.411823 0.712958
O O11 0.423110 0.750000 0.834682
O O12 0.321820 0.584692 0.870667
O O13 0.469992 0.578639 0.774591
O O14 0.533776 0.607043 0.894753
O O15 0.212610 0.079545 0.903457
O O16 0.144523 0.964943 0.803710
O O17 0.213384 0.250000 0.970564
O O18 0.301622 0.084694 0.018855
O O19 0.000000 0.500000 0.500000
#
# Coordination Sequence:
#
# PCOD9465203 Si02
#       8
#     8   8   8   8   8   8   8   8
#     4  10  20  38  64  95 130 163 208 269 322 377
#     4  10  22  39  66 101 129 167 215 268 331 390
#     4  10  23  40  63  93 125 167 216 260 321 387
#     4  11  26  46  65  94 130 173 224 268 320 391
#     4  12  23  42  70  95 132 173 218 274 326 393
#     4  11  24  41  65  90 131 174 216 268 323 378
#     4  11  23  40  65 101 135 168 211 267 333 391
#     4  11  23  43  66  96 131 168 211 265 334 383
#
# _framework density 19.568237
#
# number of rings (size 3 to 8) (size 9 to 14) (size 15 to 20)
#    0.000    1.250    2.500    3.000    1.750    2.500 
#    0.000    0.625    0.000    0.000    0.000    0.000 
#    0.000    0.000    0.000    0.000    0.000    0.000 
#
# Total GULP energy -357697.643578 kJ/mol
# GULP energy per Si atom -5589.025681 kJ/mol
# Density = 1.952370 g / cm^3
# Si number density = 19.568237 Si / 1000 Ang^3
#
#
#
# Elastic Constant Matrix: (Units=GPa)
#
#
# Indices 1 2 3 4 5 6 
#
# 1 85.9864 43.9595 26.9317 0.0000 0.0000 0.0000
# 2 43.9595 127.5567 41.0331 0.0000 0.0000 0.0000
# 3 26.9317 41.0331 69.1326 0.0000 0.0000 0.0000
# 4 0.0000 0.0000 0.0000 23.3038 0.0000 0.0000
# 5 0.0000 0.0000 0.0000 0.0000 33.8713 0.0000
# 6 0.0000 0.0000 0.0000 0.0000 0.0000 28.5535
#
#
#
# Elastic Compliance Matrix: (Units=1/GPa)
#
#
# Indices 1 2 3 4 5 6 
#
# 1 0.014725 -0.003991 -0.003367 0.000000 0.000000 0.000000
# 2 -0.003991 0.010772 -0.004839 0.000000 0.000000 0.000000
# 3 -0.003367 -0.004839 0.018649 0.000000 0.000000 0.000000
# 4 0.000000 0.000000 0.000000 0.042911 0.000000 0.000000
# 5 0.000000 0.000000 0.000000 0.000000 0.029523 0.000000
# 6 0.000000 0.000000 0.000000 0.000000 0.000000 0.035022
#
#
# Mechanical properties :
#
#
# Convention : Reuss Voigt Hill
#
# Bulk Modulus (GPa) = 50.63080 56.28046 53.45563
# Shear Modulus (GPa) = 27.38523 28.52917 27.95720
#
# Velocity S-wave (km/s) = 3.74501 3.82243 3.78392
# Velocity P-wave (km/s) = 6.68059 6.95017 6.81671
#
# Compressibility (1/GPa) = 0.01975082
#
# Stress axis : x y z
#
# Youngs Moduli (GPa) = 67.91192 92.83608 53.62335
#
# Poissons Ratio (x) = 0.37055 0.18056
# Poissons Ratio (y) = 0.27106 0.25946
# Poissons Ratio (z) = 0.22868 0.44919
#
# Static dielectric constant tensor:
#      x y z
#    x 1.697960 0.000000 0.000000 
#    y 0.000000 1.692530 0.000000 
#    z 0.000000 0.000000 1.666070 
# 
# From -- ./inp_files/23215.got.cif
#   From: 2010.05.17/outbox.cif.g08.bks.cpg/sg62_12_cif.got.tgz:23215.got - 2010.06.03 15:25:27.
