data_PCOD9465245
_publ_section_title
;
Structure prediction by ZEFSAII (Michael W. Deem and Ramdas Pophale) SiO2 
 PCOD9465245
Probable space group: P N M A
;
_chemical_formula_sum "Si O2"
_cell_formula_units_Z 64
_cell_length_a 14.704034
_cell_length_b 7.644304
_cell_length_c 22.931056
_cell_angle_alpha 90.000000
_cell_angle_beta 90.000000
_cell_angle_gamma 90.000000
_cell_volume 2577.498985
_symmetry_space_group_name_H-M "P N M A"
_symmetry_group_IT_number 62
_symmetry_cell_setting 'orthorhombic'
loop_
_space_group_symop_operation_xyz
x,y,z
1/2-x,-y,1/2+z
1/2+x,1/2-y,1/2-z
-x,1/2+y,-z
-x,-y,-z
1/2+x,y,1/2-z
1/2-x,1/2+y,1/2+z
x,1/2-y,z
loop_
_atom_site_type_symbol
_atom_site_label
_atom_site_fract_x
_atom_site_fract_y
_atom_site_fract_z
Si Si1 0.116165 0.953003 0.963125
Si Si2 0.083401 0.542749 0.215697
Si Si3 0.375182 0.036972 0.255053
Si Si4 0.300064 0.455200 0.003992
Si Si5 0.940959 0.452254 0.911117
Si Si6 0.793144 0.549406 0.678955
Si Si7 0.562889 0.461580 0.086658
Si Si8 0.138917 0.536316 0.624162
O O1 0.090869 0.750000 0.961146
O O2 0.224167 0.965446 0.961683
O O3 0.092688 0.029035 0.027518
O O4 0.050770 0.040202 0.916240
O O5 0.103110 0.750000 0.216277
O O6 0.978508 0.518296 0.234455
O O7 0.091708 0.471553 0.149767
O O8 0.149142 0.451669 0.261264
O O9 0.373705 0.250000 0.255970
O O10 0.304201 0.972245 0.303659
O O11 0.343325 0.980461 0.190231
O O12 0.282966 0.250000 0.005474
O O13 0.398949 0.485430 0.976167
O O14 0.298456 0.524189 0.070365
O O15 0.913190 0.250000 0.911613
O O16 0.776665 0.750000 0.660808
O O17 0.861373 0.468700 0.632024
O O18 0.561386 0.250000 0.089343
O O19 0.463512 0.518841 0.106719
O O20 0.141404 0.750000 0.623660
#
# Coordination Sequence:
#
# PCOD9465245 Si02
#       8
#     8   8   8   8   8   8   8   8
#     4  10  21  39  60  84 114 153 195 238 284 343
#     4  11  23  39  61  91 125 157 191 242 305 357
#     4  10  21  40  63  89 118 156 203 245 290 350
#     4  11  23  36  57  88 117 148 189 241 299 350
#     4   9  21  40  59  83 119 154 190 238 290 343
#     4  10  22  39  64  90 118 157 201 246 291 352
#     4  10  20  39  60  83 115 152 197 244 287 341
#     4   9  19  38  60  82 115 150 191 243 288 342
#
# _framework density 24.830272000000001
#
# number of rings (size 3 to 8) (size 9 to 14) (size 15 to 20)
#    0.000    2.000    1.250    1.500    3.500    2.500 
#    0.000    1.875    0.000    0.000    0.000    0.000 
#    0.000    0.000    0.000    0.000    0.000    0.000 
#
# Total GULP energy -357897.419227 kJ/mol
# GULP energy per Si atom -5592.147175 kJ/mol
# Density = 2.477376 g / cm^3
# Si number density = 24.830272 Si / 1000 Ang^3
#
#
#
# Elastic Constant Matrix: (Units=GPa)
#
#
# Indices 1 2 3 4 5 6 
#
# 1 81.1556 -2.5409 -9.5237 0.0000 0.0000 0.0000
# 2 -2.5409 67.0897 -0.8371 0.0000 0.0000 0.0000
# 3 -9.5237 -0.8371 82.3078 0.0000 0.0000 0.0000
# 4 0.0000 0.0000 0.0000 12.4934 0.0000 0.0000
# 5 0.0000 0.0000 0.0000 0.0000 36.9338 0.0000
# 6 0.0000 0.0000 0.0000 0.0000 0.0000 11.4780
#
#
#
# Elastic Compliance Matrix: (Units=1/GPa)
#
#
# Indices 1 2 3 4 5 6 
#
# 1 0.012508 0.000492 0.001452 0.000000 0.000000 0.000000
# 2 0.000492 0.014927 0.000209 0.000000 0.000000 0.000000
# 3 0.001452 0.000209 0.012320 0.000000 0.000000 0.000000
# 4 0.000000 0.000000 0.000000 0.080042 0.000000 0.000000
# 5 0.000000 0.000000 0.000000 0.000000 0.027075 0.000000
# 6 0.000000 0.000000 0.000000 0.000000 0.000000 0.087123
#
#
# Mechanical properties :
#
#
# Convention : Reuss Voigt Hill
#
# Bulk Modulus (GPa) = 22.69644 22.74997 22.72320
# Shear Modulus (GPa) = 20.46031 28.41137 24.43584
#
# Velocity S-wave (km/s) = 2.87367 3.38631 3.14046
# Velocity P-wave (km/s) = 4.49122 4.94687 4.72454
#
# Compressibility (1/GPa) = 0.04405978
#
# Stress axis : x y z
#
# Youngs Moduli (GPa) = 79.94995 66.99429 81.17097
#
# Poissons Ratio (x) = -0.03295 -0.11788
# Poissons Ratio (y) = -0.03932 -0.01694
# Poissons Ratio (z) = -0.11611 -0.01398
#
# Static dielectric constant tensor:
#      x y z
#    x 1.993100 0.000000 0.000000 
#    y 0.000000 1.843820 0.000000 
#    z 0.000000 0.000000 1.986950 
# 
# From -- ./inp_files/29806.got.cif
#   From: 2010.05.17/outbox.cif.g08.bks.cpg/sg62_15_cif.got.tgz:29806.got - 2010.06.03 15:25:27.
