data_PCOD9465787
_publ_section_title
;
Structure prediction by ZEFSAII (Michael W. Deem and Ramdas Pophale) SiO2 
 PCOD9465787
Probable space group: P N M A
;
_chemical_formula_sum "Si O2"
_cell_formula_units_Z 48
_cell_length_a 7.237686
_cell_length_b 13.917954
_cell_length_c 21.016987
_cell_angle_alpha 90.000000
_cell_angle_beta 90.000000
_cell_angle_gamma 90.000000
_cell_volume 2117.120562
_symmetry_space_group_name_H-M "P N M A"
_symmetry_group_IT_number 62
_symmetry_cell_setting 'orthorhombic'
loop_
_space_group_symop_operation_xyz
x,y,z
1/2-x,-y,1/2+z
1/2+x,1/2-y,1/2-z
-x,1/2+y,-z
-x,-y,-z
1/2+x,y,1/2-z
1/2-x,1/2+y,1/2+z
x,1/2-y,z
loop_
_atom_site_type_symbol
_atom_site_label
_atom_site_fract_x
_atom_site_fract_y
_atom_site_fract_z
Si Si1 0.300432 0.961173 0.802321
Si Si2 0.037945 0.913790 0.048371
Si Si3 0.366109 0.750000 0.655061
Si Si4 0.129009 0.353445 0.478995
Si Si5 0.133158 0.933866 0.415766
Si Si6 0.793143 0.750000 0.697892
Si Si7 0.871521 0.541117 0.843344
O O1 0.382333 0.854069 0.814528
O O2 0.288866 0.973397 0.726580
O O3 0.092253 0.957630 0.829679
O O4 0.399247 0.046278 0.840936
O O5 0.164709 0.846379 0.006877
O O6 0.836807 0.888173 0.074311
O O7 0.157912 0.957791 0.106170
O O8 0.000000 0.000000 0.000000
O O9 0.588703 0.750000 0.667167
O O10 0.275463 0.750000 0.725299
O O11 0.320357 0.854509 0.627208
O O12 0.084210 0.250000 0.447652
O O13 0.123929 0.454157 0.440636
O O14 0.998279 0.372359 0.539591
#
# Coordination Sequence:
#
# PCOD9465787 Si02
#       7
#     8   8   4   8   8   4   8
#     4   9  17  28  49  77 106 148 172 224 275 333
#     4   9  19  37  54  79 111 145 184 228 269 327
#     4   8  14  26  40  68 106 136 168 209 253 336
#     4  10  21  37  61  82 108 150 187 231 279 334
#     4   9  20  37  56  84 118 138 188 234 278 333
#     4   8  14  24  40  66 106 136 174 197 261 332
#     4   9  17  29  49  76 108 142 180 218 279 331
#
# _framework density 22.672304
#
# number of rings (size 3 to 8) (size 9 to 14) (size 15 to 20)
#    0.000    3.000    0.000    0.000    3.500    0.667 
#    9.000    0.000    7.333    1.000    0.000    0.000 
#    0.000    0.000    0.000    0.000    0.000    0.000 
#
# Total GULP energy -267573.474439 kJ/mol
# GULP energy per Si atom -5574.447384 kJ/mol
# Density = 2.262070 g / cm^3
# Si number density = 22.672304 Si / 1000 Ang^3
#
#
#
# Elastic Constant Matrix: (Units=GPa)
#
#
# Indices 1 2 3 4 5 6 
#
# 1 49.7651 5.1363 -5.8840 0.0000 0.0000 0.0000
# 2 5.1363 53.9525 0.2952 0.0000 0.0000 0.0000
# 3 -5.8840 0.2952 51.6177 0.0000 0.0000 0.0000
# 4 0.0000 0.0000 0.0000 -1.2483 0.0000 0.0000
# 5 0.0000 0.0000 0.0000 0.0000 20.8362 0.0000
# 6 0.0000 0.0000 0.0000 0.0000 0.0000 -39.1599
#
#
#
# Elastic Compliance Matrix: (Units=1/GPa)
#
#
# Indices 1 2 3 4 5 6 
#
# 1 0.020577 -0.001972 0.002357 0.000000 0.000000 0.000000
# 2 -0.001972 0.018724 -0.000332 0.000000 0.000000 0.000000
# 3 0.002357 -0.000332 0.019644 0.000000 0.000000 0.000000
# 4 0.000000 0.000000 0.000000 -0.801079 0.000000 0.000000
# 5 0.000000 0.000000 0.000000 0.000000 0.047993 0.000000
# 6 0.000000 0.000000 0.000000 0.000000 0.000000 -0.025536
#
#
# Mechanical properties :
#
#
# Convention : Reuss Voigt Hill
#
# Bulk Modulus (GPa) = 16.93449 17.15892 17.04670
# Shear Modulus (GPa) = -7.14183 6.47145 -0.33519
#
# Velocity S-wave (km/s) = -1.77676 1.69131 -0.38492
# Velocity P-wave (km/s) = 1.81006 3.37620 2.70878
#
# Compressibility (1/GPa) = 0.05905110
#
# Stress axis : x y z
#
# Youngs Moduli (GPa) = 48.59892 53.40642 50.90672
#
# Poissons Ratio (x) = 0.10531 -0.11998
# Poissons Ratio (y) = 0.09583 0.01689
# Poissons Ratio (z) = -0.11454 0.01772
#
# Static dielectric constant tensor:
#      x y z
#    x 1.942220 0.000000 0.000000 
#    y 0.000000 1.847550 0.000000 
#    z 0.000000 0.000000 2.322130 
# 
# From -- ./inp_files/28846.got.cif
#   From: 2010.05.17/outbox.cif.g08.bks.cpg/sg62_15_cif.got.tgz:28846.got - 2010.06.03 15:25:27.
