data_PCOD9465842
_publ_section_title
;
Structure prediction by ZEFSAII (Michael W. Deem and Ramdas Pophale) SiO2 
 PCOD9465842
Probable space group: P N M A
;
_chemical_formula_sum "Si O2"
_cell_formula_units_Z 60
_cell_length_a 8.020080
_cell_length_b 11.830145
_cell_length_c 30.371572
_cell_angle_alpha 90.000000
_cell_angle_beta 90.000000
_cell_angle_gamma 90.000000
_cell_volume 2881.615551
_symmetry_space_group_name_H-M "P N M A"
_symmetry_group_IT_number 62
_symmetry_cell_setting 'orthorhombic'
loop_
_space_group_symop_operation_xyz
x,y,z
1/2-x,-y,1/2+z
1/2+x,1/2-y,1/2-z
-x,1/2+y,-z
-x,-y,-z
1/2+x,y,1/2-z
1/2-x,1/2+y,1/2+z
x,1/2-y,z
loop_
_atom_site_type_symbol
_atom_site_label
_atom_site_fract_x
_atom_site_fract_y
_atom_site_fract_z
Si Si1 0.141332 0.620813 0.718226
Si Si2 0.627632 0.453020 0.700198
Si Si3 0.053281 0.250000 0.746855
Si Si4 0.561280 0.123816 0.351189
Si Si5 0.336543 0.533538 0.557270
Si Si6 0.488487 0.420594 0.823883
Si Si7 0.155565 0.379942 0.960910
Si Si8 0.979955 0.881845 0.426810
O O1 0.092458 0.750000 0.726532
O O2 0.154951 0.549792 0.762944
O O3 0.311611 0.619333 0.690141
O O4 0.013747 0.551709 0.687539
O O5 0.512047 0.352763 0.718171
O O6 0.563982 0.521316 0.658163
O O7 0.800573 0.389638 0.690067
O O8 0.097440 0.152315 0.709644
O O9 0.486893 0.250000 0.352388
O O10 0.656180 0.100661 0.396802
O O11 0.340781 0.610307 0.513878
O O12 0.501790 0.455565 0.555115
O O13 0.170988 0.457018 0.555417
O O14 0.522309 0.393141 0.873956
O O15 0.131931 0.250000 0.947116
O O16 0.336493 0.418093 0.943154
O O17 0.958016 0.750000 0.438957
#
# Coordination Sequence:
#
# PCOD9465842 Si02
#       8
#     8   8   4   8   8   8   8   8
#     4  10  21  38  58  81 118 163 208 256 315 373
#     4  11  23  37  59  87 121 167 217 263 324 377
#     4  10  22  38  58  86 124 172 210 264 330 384
#     4  11  23  40  61  88 123 167 215 267 321 382
#     4  11  22  43  67  97 127 170 215 262 329 400
#     4  11  21  39  58  87 124 160 212 269 316 386
#     4  10  23  42  68  97 132 166 207 269 334 400
#     4  11  22  40  65  95 130 165 211 267 329 394
#
# _framework density 20.821655
#
# number of rings (size 3 to 8) (size 9 to 14) (size 15 to 20)
#    0.000    1.333    2.000    4.400    0.000    3.200 
#    2.400    0.000    0.000    4.000    0.000    0.000 
#    0.000    0.000    0.000    0.000    0.000    0.000 
#
# Total GULP energy -334085.268315 kJ/mol
# GULP energy per Si atom -5568.087805 kJ/mol
# Density = 2.077426 g / cm^3
# Si number density = 20.821655 Si / 1000 Ang^3
#
#
#
# Elastic Constant Matrix: (Units=GPa)
#
#
# Indices 1 2 3 4 5 6 
#
# 1 75.5399 23.4035 0.5588 0.0000 0.0000 0.0000
# 2 23.4035 122.2866 15.0091 0.0000 0.0000 0.0000
# 3 0.5588 15.0091 29.1324 0.0000 0.0000 0.0000
# 4 0.0000 0.0000 0.0000 -5.1583 0.0000 0.0000
# 5 0.0000 0.0000 0.0000 0.0000 -6.3279 0.0000
# 6 0.0000 0.0000 0.0000 0.0000 0.0000 -3.7857
#
#
#
# Elastic Compliance Matrix: (Units=1/GPa)
#
#
# Indices 1 2 3 4 5 6 
#
# 1 0.014111 -0.002848 0.001196 0.000000 0.000000 0.000000
# 2 -0.002848 0.009304 -0.004739 0.000000 0.000000 0.000000
# 3 0.001196 -0.004739 0.036745 0.000000 0.000000 0.000000
# 4 0.000000 0.000000 0.000000 -0.193864 0.000000 0.000000
# 5 0.000000 0.000000 0.000000 0.000000 -0.158029 0.000000
# 6 0.000000 0.000000 0.000000 0.000000 0.000000 -0.264154
#
#
# Mechanical properties :
#
#
# Convention : Reuss Voigt Hill
#
# Bulk Modulus (GPa) = 21.10594 33.87796 27.49195
# Shear Modulus (GPa) = -9.48203 9.47813 -0.00195
#
# Velocity S-wave (km/s) = -2.13631 2.13587 -0.03063
# Velocity P-wave (km/s) = 2.01828 4.73164 3.63744
#
# Compressibility (1/GPa) = 0.04738003
#
# Stress axis : x y z
#
# Youngs Moduli (GPa) = 70.86472 107.47939 27.21491
#
# Poissons Ratio (x) = 0.30605 -0.03256
# Poissons Ratio (y) = 0.20179 0.12897
# Poissons Ratio (z) = -0.08478 0.50933
#
# Static dielectric constant tensor:
#      x y z
#    x 1.825550 0.000000 0.000000 
#    y 0.000000 1.760030 0.000000 
#    z 0.000000 0.000000 1.755440 
# 
# From -- ./inp_files/32220.got.cif
#   From: 2010.05.17/outbox.cif.g08.bks.cpg/sg62_17_cif.got.tgz:32220.got - 2010.06.03 15:25:27.
