data_PCOD9465802
_publ_section_title
;
Structure prediction by ZEFSAII (Michael W. Deem and Ramdas Pophale) SiO2 
 PCOD9465802
Probable space group: P N M A
;
_chemical_formula_sum "Si O2"
_cell_formula_units_Z 48
_cell_length_a 20.069410
_cell_length_b 18.232775
_cell_length_c 5.396316
_cell_angle_alpha 90.000000
_cell_angle_beta 90.000000
_cell_angle_gamma 90.000000
_cell_volume 1974.625546
_symmetry_space_group_name_H-M "P N M A"
_symmetry_group_IT_number 62
_symmetry_cell_setting 'orthorhombic'
loop_
_space_group_symop_operation_xyz
x,y,z
1/2-x,-y,1/2+z
1/2+x,1/2-y,1/2-z
-x,1/2+y,-z
-x,-y,-z
1/2+x,y,1/2-z
1/2-x,1/2+y,1/2+z
x,1/2-y,z
loop_
_atom_site_type_symbol
_atom_site_label
_atom_site_fract_x
_atom_site_fract_y
_atom_site_fract_z
Si Si1 0.667409 0.069323 0.321329
Si Si2 0.019118 0.662003 0.151035
Si Si3 0.740431 0.330821 0.699586
Si Si4 0.303355 0.431863 0.422833
Si Si5 0.093950 0.839050 0.653287
Si Si6 0.602031 0.332252 0.973905
O O1 0.703717 0.134926 0.465919
O O2 0.728648 0.041342 0.147406
O O3 0.605954 0.103496 0.174488
O O4 0.654230 0.003209 0.508276
O O5 0.023729 0.750000 0.141536
O O6 0.943879 0.646923 0.241205
O O7 0.063176 0.639368 0.389176
O O8 0.045717 0.638399 0.883768
O O9 0.766984 0.250000 0.649967
O O10 0.793865 0.380108 0.839046
O O11 0.678466 0.325602 0.891052
O O12 0.338582 0.382505 0.215483
O O13 0.101753 0.750000 0.660771
O O14 0.580356 0.250000 0.062867
#
# Coordination Sequence:
#
# PCOD9465802 Si02
#       6
#     8   8   8   8   8   8
#     4  11  22  38  60  87 121 164 200 256 319 369
#     4   9  20  39  63  91 122 161 209 263 313 361
#     4  10  21  37  62  89 116 155 207 259 307 367
#     4  11  23  39  58  87 125 163 205 250 319 379
#     4  10  22  39  63  91 123 165 209 256 311 375
#     4   9  20  38  62  90 117 153 209 261 308 368
#
# _framework density 24.308408
#
# number of rings (size 3 to 8) (size 9 to 14) (size 15 to 20)
#    0.000    2.000    1.667    1.000    4.667    2.000 
#    0.000    1.667    0.000    0.000    0.000    0.000 
#    0.000    0.000    0.000    0.000    0.000    0.000 
#
# Total GULP energy -268320.488625 kJ/mol
# GULP energy per Si atom -5590.010180 kJ/mol
# Density = 2.425308 g / cm^3
# Si number density = 24.308408 Si / 1000 Ang^3
#
#
#
# Elastic Constant Matrix: (Units=GPa)
#
#
# Indices 1 2 3 4 5 6 
#
# 1 76.1927 8.2295 21.6962 0.0000 0.0000 0.0000
# 2 8.2295 73.8251 6.7577 0.0000 0.0000 0.0000
# 3 21.6962 6.7577 81.5599 0.0000 0.0000 0.0000
# 4 0.0000 0.0000 0.0000 2.3316 0.0000 0.0000
# 5 0.0000 0.0000 0.0000 0.0000 42.5045 0.0000
# 6 0.0000 0.0000 0.0000 0.0000 0.0000 15.2711
#
#
#
# Elastic Compliance Matrix: (Units=1/GPa)
#
#
# Indices 1 2 3 4 5 6 
#
# 1 0.014315 -0.001257 -0.003704 0.000000 0.000000 0.000000
# 2 -0.001257 0.013759 -0.000806 0.000000 0.000000 0.000000
# 3 -0.003704 -0.000806 0.013313 0.000000 0.000000 0.000000
# 4 0.000000 0.000000 0.000000 0.428898 0.000000 0.000000
# 5 0.000000 0.000000 0.000000 0.000000 0.023527 0.000000
# 6 0.000000 0.000000 0.000000 0.000000 0.000000 0.065483
#
#
# Mechanical properties :
#
#
# Convention : Reuss Voigt Hill
#
# Bulk Modulus (GPa) = 33.49553 33.88271 33.68912
# Shear Modulus (GPa) = 8.60911 25.01437 16.81174
#
# Velocity S-wave (km/s) = 1.88396 3.21135 2.63269
# Velocity P-wave (km/s) = 4.30601 5.26491 4.80942
#
# Compressibility (1/GPa) = 0.02985473
#
# Stress axis : x y z
#
# Youngs Moduli (GPa) = 69.85650 72.67771 75.11466
#
# Poissons Ratio (x) = 0.09133 0.27822
# Poissons Ratio (y) = 0.08779 0.06052
# Poissons Ratio (z) = 0.25874 0.05856
#
# Static dielectric constant tensor:
#      x y z
#    x 1.977750 0.000000 0.000000 
#    y 0.000000 1.930190 0.000000 
#    z 0.000000 0.000000 2.001810 
# 
# From -- ./inp_files/2206.got.cif
#   From: 2010.05.17/outbox.cif.g08.bks.cpg/sg62_2_cif.got.tgz:2206.got - 2010.06.03 15:25:27.
