data_PCOD9465537
_publ_section_title
;
Structure prediction by ZEFSAII (Michael W. Deem and Ramdas Pophale) SiO2 
 PCOD9465537
Probable space group: P N M A
;
_chemical_formula_sum "Si O2"
_cell_formula_units_Z 32
_cell_length_a 16.760074
_cell_length_b 20.810848
_cell_length_c 5.175293
_cell_angle_alpha 90.000000
_cell_angle_beta 90.000000
_cell_angle_gamma 90.000000
_cell_volume 1805.097445
_symmetry_space_group_name_H-M "P N M A"
_symmetry_group_IT_number 62
_symmetry_cell_setting 'orthorhombic'
loop_
_space_group_symop_operation_xyz
x,y,z
1/2-x,-y,1/2+z
1/2+x,1/2-y,1/2-z
-x,1/2+y,-z
-x,-y,-z
1/2+x,y,1/2-z
1/2-x,1/2+y,1/2+z
x,1/2-y,z
loop_
_atom_site_type_symbol
_atom_site_label
_atom_site_fract_x
_atom_site_fract_y
_atom_site_fract_z
Si Si1 0.411741 0.623549 0.523755
Si Si2 0.519539 0.322215 0.989040
Si Si3 0.541280 0.551911 0.811524
Si Si4 0.799244 0.514009 0.112071
O O1 0.414265 0.663239 0.789320
O O2 0.479594 0.569324 0.581924
O O3 0.332805 0.584715 0.454499
O O4 0.441425 0.666089 0.287764
O O5 0.489113 0.250000 0.015443
O O6 0.455923 0.379220 0.040239
O O7 0.625637 0.527195 0.714361
O O8 0.500000 0.500000 0.000000
O O9 0.737159 0.514000 0.348312
#
# Coordination Sequence:
#
# PCOD9465537 Si02
#       4
#     8   8   8   8
#     4  10  21  37  59  84 117 151 199 240 290 342
#     4  10  21  35  63  86 111 150 207 247 284 340
#     4  10  21  38  62  88 117 147 203 247 293 347
#     4  12  23  34  57  93 123 150 186 248 308 353
#
# _framework density 17.727575000000002
#
# number of rings (size 3 to 8) (size 9 to 14) (size 15 to 20)
#    1.500    0.000    2.500    4.500    3.500    0.000 
#    0.000    0.000    0.000    9.000    0.000    0.000 
#    0.000    0.000    0.000    0.000    0.000    0.000 
#
# Total GULP energy -178208.828056 kJ/mol
# GULP energy per Si atom -5569.025877 kJ/mol
# Density = 1.768723 g / cm^3
# Si number density = 17.727575 Si / 1000 Ang^3
#
#
#
# Elastic Constant Matrix: (Units=GPa)
#
#
# Indices 1 2 3 4 5 6 
#
# 1 28.0859 10.1296 7.4519 0.0000 0.0000 0.0000
# 2 10.1296 116.5027 21.8935 0.0000 0.0000 0.0000
# 3 7.4519 21.8935 109.5761 0.0000 0.0000 0.0000
# 4 0.0000 0.0000 0.0000 16.5928 0.0000 0.0000
# 5 0.0000 0.0000 0.0000 0.0000 61.9981 0.0000
# 6 0.0000 0.0000 0.0000 0.0000 0.0000 12.4980
#
#
#
# Elastic Compliance Matrix: (Units=1/GPa)
#
#
# Indices 1 2 3 4 5 6 
#
# 1 0.037156 -0.002863 -0.001955 0.000000 0.000000 0.000000
# 2 -0.002863 0.009139 -0.001631 0.000000 0.000000 0.000000
# 3 -0.001955 -0.001631 0.009585 0.000000 0.000000 0.000000
# 4 0.000000 0.000000 0.000000 0.060267 0.000000 0.000000
# 5 0.000000 0.000000 0.000000 0.000000 0.016130 0.000000
# 6 0.000000 0.000000 0.000000 0.000000 0.000000 0.080013
#
#
# Mechanical properties :
#
#
# Convention : Reuss Voigt Hill
#
# Bulk Modulus (GPa) = 23.26575 37.01274 30.13925
# Shear Modulus (GPa) = 20.87543 32.53041 26.70292
#
# Velocity S-wave (km/s) = 3.43529 4.28836 3.88531
# Velocity P-wave (km/s) = 5.37471 6.74121 6.09637
#
# Compressibility (1/GPa) = 0.04298163
#
# Stress axis : x y z
#
# Youngs Moduli (GPa) = 26.91326 109.42110 104.33023
#
# Poissons Ratio (x) = 0.31331 0.20394
# Poissons Ratio (y) = 0.07706 0.17019
# Poissons Ratio (z) = 0.05261 0.17850
#
# Static dielectric constant tensor:
#      x y z
#    x 1.590390 0.000000 0.000000 
#    y 0.000000 1.639000 0.000000 
#    z 0.000000 0.000000 1.635180 
# 
# From -- ./inp_files/1610.got.cif
#   From: 2010.05.17/outbox.cif.g08.bks.cpg/sg62_1_cif.got.tgz:1610.got - 2010.06.03 15:25:27.
