data_PCOD9465139
_publ_section_title
;
Structure prediction by ZEFSAII (Michael W. Deem and Ramdas Pophale) SiO2 
 PCOD9465139
Probable space group: P N M A
;
_chemical_formula_sum "Si O2"
_cell_formula_units_Z 56
_cell_length_a 14.874004
_cell_length_b 20.217426
_cell_length_c 7.487091
_cell_angle_alpha 90.000000
_cell_angle_beta 90.000000
_cell_angle_gamma 90.000000
_cell_volume 2251.473646
_symmetry_space_group_name_H-M "P N M A"
_symmetry_group_IT_number 62
_symmetry_cell_setting 'orthorhombic'
loop_
_space_group_symop_operation_xyz
x,y,z
1/2-x,-y,1/2+z
1/2+x,1/2-y,1/2-z
-x,1/2+y,-z
-x,-y,-z
1/2+x,y,1/2-z
1/2-x,1/2+y,1/2+z
x,1/2-y,z
loop_
_atom_site_type_symbol
_atom_site_label
_atom_site_fract_x
_atom_site_fract_y
_atom_site_fract_z
Si Si1 0.067741 0.327019 0.428247
Si Si2 0.591829 0.427520 0.610941
Si Si3 0.606433 0.932277 0.510791
Si Si4 0.220569 0.177898 0.011811
Si Si5 0.900129 0.531689 0.513876
Si Si6 0.885258 0.103276 0.414935
Si Si7 0.260205 0.180018 0.603848
O O1 0.054210 0.250000 0.356754
O O2 0.099912 0.402902 0.361648
O O3 0.154729 0.317504 0.554110
O O4 0.967101 0.350910 0.488826
O O5 0.484330 0.423065 0.601449
O O6 0.627141 0.490297 0.499636
O O7 0.631569 0.362380 0.524995
O O8 0.621063 0.441201 0.814738
O O9 0.583152 0.920607 0.719090
O O10 0.685657 0.883369 0.460390
O O11 0.200046 0.250000 0.081463
O O12 0.295820 0.143952 0.128387
O O13 0.266322 0.180637 0.817235
O O14 0.852170 0.460202 0.534058
O O15 0.000000 0.500000 0.500000
O O16 0.299965 0.250000 0.535190
#
# Coordination Sequence:
#
# PCOD9465139 Si02
#       7
#     8   8   8   8   8   8   8
#     4  10  20  38  62  88 124 164 211 267 321 386
#     4  10  22  42  64  92 129 168 214 269 318 391
#     4  10  24  42  63  92 128 169 214 263 326 386
#     4  11  24  40  64  97 126 167 218 266 325 389
#     4   9  19  36  62  93 120 160 214 259 321 383
#     4  10  23  41  61  93 128 170 215 264 324 391
#     4  10  23  39  62  93 122 160 211 265 322 382
#
# _framework density 24.872598
#
# number of rings (size 3 to 8) (size 9 to 14) (size 15 to 20)
#    0.000    2.000    1.429    0.429    6.000    2.857 
#    0.000    1.429    0.000    0.000    0.000    0.000 
#    0.000    0.000    0.000    0.000    0.000    0.000 
#
# Total GULP energy -311767.154510 kJ/mol
# GULP energy per Si atom -5567.270616 kJ/mol
# Density = 2.481599 g / cm^3
# Si number density = 24.872598 Si / 1000 Ang^3
#
#
#
# Elastic Constant Matrix: (Units=GPa)
#
#
# Indices 1 2 3 4 5 6 
#
# 1 67.2342 38.5516 1.4515 0.0000 0.0000 0.0000
# 2 38.5516 221.3135 16.7581 0.0000 0.0000 0.0000
# 3 1.4515 16.7581 49.5938 0.0000 0.0000 0.0000
# 4 0.0000 0.0000 0.0000 -6.7718 0.0000 0.0000
# 5 0.0000 0.0000 0.0000 0.0000 29.3023 0.0000
# 6 0.0000 0.0000 0.0000 0.0000 0.0000 68.7016
#
#
#
# Elastic Compliance Matrix: (Units=1/GPa)
#
#
# Indices 1 2 3 4 5 6 
#
# 1 0.016536 -0.002919 0.000502 0.000000 0.000000 0.000000
# 2 -0.002919 0.005152 -0.001656 0.000000 0.000000 0.000000
# 3 0.000502 -0.001656 0.020709 0.000000 0.000000 0.000000
# 4 0.000000 0.000000 0.000000 -0.147670 0.000000 0.000000
# 5 0.000000 0.000000 0.000000 0.000000 0.034127 0.000000
# 6 0.000000 0.000000 0.000000 0.000000 0.000000 0.014556
#
#
# Mechanical properties :
#
#
# Convention : Reuss Voigt Hill
#
# Bulk Modulus (GPa) = 29.19451 50.18488 39.68969
# Shear Modulus (GPa) = -135.02799 37.00510 -49.01144
#
# Velocity S-wave (km/s) = -7.37602 3.86137 -4.44385
# Velocity P-wave (km/s) = 7.79601 6.33252 3.21536
#
# Compressibility (1/GPa) = 0.03425302
#
# Stress axis : x y z
#
# Youngs Moduli (GPa) = 60.47419 194.09093 48.28931
#
# Poissons Ratio (x) = 0.56645 -0.02425
# Poissons Ratio (y) = 0.17649 0.07995
# Poissons Ratio (z) = -0.03037 0.32133
#
# Static dielectric constant tensor:
#      x y z
#    x 1.948110 0.000000 0.000000 
#    y 0.000000 2.163290 0.000000 
#    z 0.000000 0.000000 2.047030 
# 
# From -- ./inp_files/6802.got.cif
#   From: 2010.05.17/outbox.cif.g08.bks.cpg/sg62_4_cif.got.tgz:6802.got - 2010.06.03 15:25:27.
