data_PCOD9465012
_publ_section_title
;
Structure prediction by ZEFSAII (Michael W. Deem and Ramdas Pophale) SiO2 
 PCOD9465012
Probable space group: P N M A
;
_chemical_formula_sum "Si O2"
_cell_formula_units_Z 56
_cell_length_a 14.702783
_cell_length_b 12.343931
_cell_length_c 14.298842
_cell_angle_alpha 90.000000
_cell_angle_beta 90.000000
_cell_angle_gamma 90.000000
_cell_volume 2595.098820
_symmetry_space_group_name_H-M "P N M A"
_symmetry_group_IT_number 62
_symmetry_cell_setting 'orthorhombic'
loop_
_space_group_symop_operation_xyz
x,y,z
1/2-x,-y,1/2+z
1/2+x,1/2-y,1/2-z
-x,1/2+y,-z
-x,-y,-z
1/2+x,y,1/2-z
1/2-x,1/2+y,1/2+z
x,1/2-y,z
loop_
_atom_site_type_symbol
_atom_site_label
_atom_site_fract_x
_atom_site_fract_y
_atom_site_fract_z
Si Si1 0.094830 0.061722 0.492819
Si Si2 0.685062 0.480706 0.335402
Si Si3 0.269343 0.135363 0.999508
Si Si4 0.036236 0.372845 0.297928
Si Si5 0.908050 0.914911 0.104499
Si Si6 0.905992 0.126937 0.995296
Si Si7 0.881527 0.549851 0.302993
O O1 0.085772 0.130178 0.399201
O O2 0.112276 0.108411 0.596464
O O3 0.169513 0.968250 0.480199
O O4 0.000000 0.000000 0.500000
O O5 0.723589 0.383527 0.399513
O O6 0.603551 0.439052 0.270794
O O7 0.648992 0.569371 0.410538
O O8 0.775164 0.525265 0.284493
O O9 0.319569 0.250000 0.995973
O O10 0.186309 0.133809 0.928336
O O11 0.021067 0.250000 0.264889
O O12 0.942115 0.439692 0.309756
O O13 0.922427 0.891777 0.212972
O O14 0.989968 0.874278 0.040238
O O15 0.901159 0.044470 0.082629
O O16 0.876681 0.250000 0.013469
#
# Coordination Sequence:
#
# PCOD9465012 Si02
#       7
#     8   8   8   8   8   8   8
#     4   9  21  38  58  82 121 155 201 261 297 352
#     4  10  21  39  62  90 127 158 201 260 301 370
#     4  10  20  37  62  90 120 161 203 250 311 375
#     4  11  22  39  63  89 120 162 208 257 316 366
#     4  10  20  38  63  92 122 156 206 260 296 376
#     4  10  21  39  62  92 129 165 196 248 323 372
#     4  10  21  40  61  84 120 159 203 257 302 355
#
# _framework density 21.579139999999999
#
# number of rings (size 3 to 8) (size 9 to 14) (size 15 to 20)
#    0.000    2.000    1.429    1.714    0.000    6.286 
#    0.000   15.714    0.000    0.000    0.000    0.000 
#    0.000    0.000    0.000    0.000    0.000    0.000 
#
# Total GULP energy -312483.615467 kJ/mol
# GULP energy per Si atom -5580.064562 kJ/mol
# Density = 2.153002 g / cm^3
# Si number density = 21.579140 Si / 1000 Ang^3
#
#
#
# Elastic Constant Matrix: (Units=GPa)
#
#
# Indices 1 2 3 4 5 6 
#
# 1 95.0893 4.1837 0.0515 0.0000 0.0000 0.0000
# 2 4.1837 88.8005 5.9059 0.0000 0.0000 0.0000
# 3 0.0515 5.9059 62.2564 0.0000 0.0000 0.0000
# 4 0.0000 0.0000 0.0000 -3.4089 0.0000 0.0000
# 5 0.0000 0.0000 0.0000 0.0000 35.0953 0.0000
# 6 0.0000 0.0000 0.0000 0.0000 0.0000 6.2523
#
#
#
# Elastic Compliance Matrix: (Units=1/GPa)
#
#
# Indices 1 2 3 4 5 6 
#
# 1 0.010538 -0.000499 0.000039 0.000000 0.000000 0.000000
# 2 -0.000499 0.011356 -0.001077 0.000000 0.000000 0.000000
# 3 0.000039 -0.001077 0.016165 0.000000 0.000000 0.000000
# 4 0.000000 0.000000 0.000000 -0.293349 0.000000 0.000000
# 5 0.000000 0.000000 0.000000 0.000000 0.028494 0.000000
# 6 0.000000 0.000000 0.000000 0.000000 0.000000 0.159940
#
#
# Mechanical properties :
#
#
# Convention : Reuss Voigt Hill
#
# Bulk Modulus (GPa) = 28.58387 29.60315 29.09351
# Shear Modulus (GPa) = -95.93318 23.32142 -36.30588
#
# Velocity S-wave (km/s) = -6.67480 3.29103 -4.10622
# Velocity P-wave (km/s) = 6.79184 5.30936 2.99498
#
# Compressibility (1/GPa) = 0.03498477
#
# Stress axis : x y z
#
# Youngs Moduli (GPa) = 94.89139 88.05659 61.86306
#
# Poissons Ratio (x) = 0.04395 -0.00239
# Poissons Ratio (y) = 0.04736 0.06662
# Poissons Ratio (z) = -0.00367 0.09483
#
# Static dielectric constant tensor:
#      x y z
#    x 1.870660 0.000000 0.000000 
#    y 0.000000 1.738010 0.000000 
#    z 0.000000 0.000000 1.831560 
# 
# From -- ./inp_files/19033.got.cif
#   From: 2010.05.17/outbox.cif.g08.bks.cpg/sg62_10_cif.got.tgz:19033.got - 2010.06.03 15:25:27.
