data_PCOD9465334
_publ_section_title
;
Structure prediction by ZEFSAII (Michael W. Deem and Ramdas Pophale) SiO2 
 PCOD9465334
Probable space group: P N M A
;
_chemical_formula_sum "Si O2"
_cell_formula_units_Z 60
_cell_length_a 16.173728
_cell_length_b 11.750377
_cell_length_c 15.733284
_cell_angle_alpha 90.000000
_cell_angle_beta 90.000000
_cell_angle_gamma 90.000000
_cell_volume 2990.069741
_symmetry_space_group_name_H-M "P N M A"
_symmetry_group_IT_number 62
_symmetry_cell_setting 'orthorhombic'
loop_
_space_group_symop_operation_xyz
x,y,z
1/2-x,-y,1/2+z
1/2+x,1/2-y,1/2-z
-x,1/2+y,-z
-x,-y,-z
1/2+x,y,1/2-z
1/2-x,1/2+y,1/2+z
x,1/2-y,z
loop_
_atom_site_type_symbol
_atom_site_label
_atom_site_fract_x
_atom_site_fract_y
_atom_site_fract_z
Si Si1 0.417432 0.250000 0.897758
Si Si2 0.718298 0.385537 0.010376
Si Si3 0.399664 0.120772 0.550269
Si Si4 0.184438 0.532319 0.328340
Si Si5 0.028291 0.120226 0.302872
Si Si6 0.152028 0.119361 0.776337
Si Si7 0.033484 0.541058 0.872769
Si Si8 0.560644 0.432551 0.898276
O O1 0.354187 0.351245 0.864090
O O2 0.486136 0.349739 0.922325
O O3 0.712084 0.250000 0.026240
O O4 0.801954 0.402233 0.956243
O O5 0.635647 0.427125 0.963472
O O6 0.723512 0.457582 0.096002
O O7 0.412292 0.250000 0.582383
O O8 0.436103 0.110533 0.454404
O O9 0.450770 0.028775 0.603335
O O10 0.110603 0.455084 0.292824
O O11 0.258472 0.562911 0.264734
O O12 0.046124 0.250000 0.324941
O O13 0.981341 0.112392 0.212663
O O14 0.974695 0.056915 0.375265
O O15 0.162437 0.250000 0.800229
O O16 0.097693 0.112015 0.691337
O O17 0.101933 0.052596 0.848437
#
# Coordination Sequence:
#
# PCOD9465334 Si02
#       8
#     4   8   8   8   8   8   8   8
#     4  10  20  40  58  92 116 162 200 252 290 358
#     4  11  22  41  62  91 127 162 203 252 303 362
#     4  10  21  37  61  91 118 163 201 249 304 363
#     4  11  23  38  61  93 124 159 207 245 307 364
#     4  10  23  42  62  89 121 164 205 254 309 368
#     4  11  20  38  63  90 124 155 198 262 309 356
#     4  10  21  39  63  86 124 156 209 247 308 369
#     4  10  22  41  63  89 121 158 207 250 309 359
#
# _framework density 20.066420999999998
#
# number of rings (size 3 to 8) (size 9 to 14) (size 15 to 20)
#    0.000    1.600    3.333    1.200    1.867    2.133 
#    4.800    0.667    1.467    0.000    0.000    0.000 
#    0.000    0.000    0.000    0.000    0.000    0.000 
#
# Total GULP energy -334142.292433 kJ/mol
# GULP energy per Si atom -5569.038207 kJ/mol
# Density = 2.002075 g / cm^3
# Si number density = 20.066421 Si / 1000 Ang^3
#
#
#
# Elastic Constant Matrix: (Units=GPa)
#
#
# Indices 1 2 3 4 5 6 
#
# 1 88.9093 37.1809 3.8123 0.0000 0.0000 0.0000
# 2 37.1809 124.8021 17.0633 0.0000 0.0000 0.0000
# 3 3.8123 17.0633 35.9128 0.0000 0.0000 0.0000
# 4 0.0000 0.0000 0.0000 -0.4789 0.0000 0.0000
# 5 0.0000 0.0000 0.0000 0.0000 21.0901 0.0000
# 6 0.0000 0.0000 0.0000 0.0000 0.0000 23.1934
#
#
#
# Elastic Compliance Matrix: (Units=1/GPa)
#
#
# Indices 1 2 3 4 5 6 
#
# 1 0.012856 -0.003897 0.000487 0.000000 0.000000 0.000000
# 2 -0.003897 0.009750 -0.004219 0.000000 0.000000 0.000000
# 3 0.000487 -0.004219 0.029798 0.000000 0.000000 0.000000
# 4 0.000000 0.000000 0.000000 -2.088097 0.000000 0.000000
# 5 0.000000 0.000000 0.000000 0.000000 0.047416 0.000000
# 6 0.000000 0.000000 0.000000 0.000000 0.000000 0.043116
#
#
# Mechanical properties :
#
#
# Convention : Reuss Voigt Hill
#
# Bulk Modulus (GPa) = 26.92035 40.63748 33.77892
# Shear Modulus (GPa) = -2.60753 21.53212 9.46229
#
# Velocity S-wave (km/s) = -1.14117 3.27929 2.17387
# Velocity P-wave (km/s) = 3.42175 5.88504 4.81363
#
# Compressibility (1/GPa) = 0.03714662
#
# Stress axis : x y z
#
# Youngs Moduli (GPa) = 77.78432 102.55984 33.55910
#
# Poissons Ratio (x) = 0.39964 -0.01633
# Poissons Ratio (y) = 0.30309 0.14159
# Poissons Ratio (z) = -0.03786 0.43271
#
# Static dielectric constant tensor:
#      x y z
#    x 1.719020 0.000000 0.000000 
#    y 0.000000 1.677300 0.000000 
#    z 0.000000 0.000000 1.757380 
# 
# From -- ./inp_files/23994.got.cif
#   From: 2010.05.17/outbox.cif.g08.bks.cpg/sg62_12_cif.got.tgz:23994.got - 2010.06.03 15:25:27.
