data_PCOD9465810
_publ_section_title
;
Structure prediction by ZEFSAII (Michael W. Deem and Ramdas Pophale) SiO2 
 PCOD9465810
Probable space group: P N M A
;
_chemical_formula_sum "Si O2"
_cell_formula_units_Z 40
_cell_length_a 10.500370
_cell_length_b 8.877435
_cell_length_c 19.707123
_cell_angle_alpha 90.000000
_cell_angle_beta 90.000000
_cell_angle_gamma 90.000000
_cell_volume 1837.026117
_symmetry_space_group_name_H-M "P N M A"
_symmetry_group_IT_number 62
_symmetry_cell_setting 'orthorhombic'
loop_
_space_group_symop_operation_xyz
x,y,z
1/2-x,-y,1/2+z
1/2+x,1/2-y,1/2-z
-x,1/2+y,-z
-x,-y,-z
1/2+x,y,1/2-z
1/2-x,1/2+y,1/2+z
x,1/2-y,z
loop_
_atom_site_type_symbol
_atom_site_label
_atom_site_fract_x
_atom_site_fract_y
_atom_site_fract_z
Si Si1 0.900339 0.423875 0.093255
Si Si2 0.934694 0.072754 0.434469
Si Si3 0.162611 0.574485 0.066566
Si Si4 0.702317 0.425542 0.719615
Si Si5 0.039122 0.075002 0.287727
O O1 0.886820 0.250000 0.115190
O O2 0.818995 0.532349 0.140779
O O3 0.046811 0.477954 0.096963
O O4 0.857201 0.432889 0.015109
O O5 0.911675 0.250000 0.446379
O O6 0.024594 0.058906 0.368875
O O7 0.801046 0.991701 0.418641
O O8 0.000000 0.000000 0.500000
O O9 0.152827 0.750000 0.086848
O O10 0.685150 0.250000 0.732093
O O11 0.593211 0.519081 0.757069
O O12 0.842998 0.478614 0.738920
O O13 0.060566 0.250000 0.272076
#
# Coordination Sequence:
#
# PCOD9465810 Si02
#       5
#     8   8   8   8   8
#     4  10  21  39  63  92 130 173 214 262 326 393
#     4  11  24  41  65  94 128 170 216 269 331 393
#     4  10  21  37  62  95 129 168 216 268 322 385
#     4  12  26  44  68  98 131 170 220 278 329 386
#     4  11  26  47  69  95 132 179 222 266 331 402
#
# _framework density 21.774322000000002
#
# number of rings (size 3 to 8) (size 9 to 14) (size 15 to 20)
#    0.000    1.200    0.000    5.400    2.800   10.400 
#    0.000    0.000    0.000    0.000    0.000    0.000 
#    0.000    0.000    0.000    0.000    0.000    0.000 
#
# Total GULP energy -224037.201348 kJ/mol
# GULP energy per Si atom -5600.930034 kJ/mol
# Density = 2.172476 g / cm^3
# Si number density = 21.774322 Si / 1000 Ang^3
#
#
#
# Elastic Constant Matrix: (Units=GPa)
#
#
# Indices 1 2 3 4 5 6 
#
# 1 80.7220 -15.8381 -8.4331 0.0000 0.0000 0.0000
# 2 -15.8381 55.3824 4.2275 0.0000 0.0000 0.0000
# 3 -8.4331 4.2275 26.3421 0.0000 0.0000 0.0000
# 4 0.0000 0.0000 0.0000 30.7507 0.0000 0.0000
# 5 0.0000 0.0000 0.0000 0.0000 27.3500 0.0000
# 6 0.0000 0.0000 0.0000 0.0000 0.0000 40.8283
#
#
#
# Elastic Compliance Matrix: (Units=1/GPa)
#
#
# Indices 1 2 3 4 5 6 
#
# 1 0.013479 0.003569 0.003743 0.000000 0.000000 0.000000
# 2 0.003569 0.019225 -0.001943 0.000000 0.000000 0.000000
# 3 0.003743 -0.001943 0.039472 0.000000 0.000000 0.000000
# 4 0.000000 0.000000 0.000000 0.032520 0.000000 0.000000
# 5 0.000000 0.000000 0.000000 0.000000 0.036563 0.000000
# 6 0.000000 0.000000 0.000000 0.000000 0.000000 0.024493
#
#
# Mechanical properties :
#
#
# Convention : Reuss Voigt Hill
#
# Bulk Modulus (GPa) = 12.06060 13.59544 12.82802
# Shear Modulus (GPa) = 27.37437 31.95180 29.66309
#
# Velocity S-wave (km/s) = 3.54953 3.83483 3.69493
# Velocity P-wave (km/s) = 4.72756 5.08579 4.90994
#
# Compressibility (1/GPa) = 0.08291459
#
# Stress axis : x y z
#
# Youngs Moduli (GPa) = 74.18692 52.01486 25.33443
#
# Poissons Ratio (x) = -0.18565 -0.09481
# Poissons Ratio (y) = -0.26478 0.04922
# Poissons Ratio (z) = -0.27765 0.10105
#
# Static dielectric constant tensor:
#      x y z
#    x 1.757370 0.000000 0.000000 
#    y 0.000000 1.692960 0.000000 
#    z 0.000000 0.000000 1.842930 
# 
# From -- ./inp_files/26462.got.cif
#   From: 2010.05.17/outbox.cif.g08.bks.cpg/sg62_14_cif.got.tgz:26462.got - 2010.06.03 15:25:27.
