data_PCOD9465503
_publ_section_title
;
Structure prediction by ZEFSAII (Michael W. Deem and Ramdas Pophale) SiO2 
 PCOD9465503
Probable space group: P N M A
;
_chemical_formula_sum "Si O2"
_cell_formula_units_Z 40
_cell_length_a 18.570986
_cell_length_b 8.729207
_cell_length_c 13.869943
_cell_angle_alpha 90.000000
_cell_angle_beta 90.000000
_cell_angle_gamma 90.000000
_cell_volume 2248.456196
_symmetry_space_group_name_H-M "P N M A"
_symmetry_group_IT_number 62
_symmetry_cell_setting 'orthorhombic'
loop_
_space_group_symop_operation_xyz
x,y,z
1/2-x,-y,1/2+z
1/2+x,1/2-y,1/2-z
-x,1/2+y,-z
-x,-y,-z
1/2+x,y,1/2-z
1/2-x,1/2+y,1/2+z
x,1/2-y,z
loop_
_atom_site_type_symbol
_atom_site_label
_atom_site_fract_x
_atom_site_fract_y
_atom_site_fract_z
Si Si1 0.534052 0.066128 0.403312
Si Si2 0.319710 0.434103 0.677592
Si Si3 0.529638 0.566274 0.802159
Si Si4 0.666807 0.434633 0.909389
Si Si5 0.873178 0.935222 0.624253
O O1 0.537440 0.250000 0.407708
O O2 0.486798 0.024284 0.308837
O O3 0.500000 0.000000 0.500000
O O4 0.613529 0.001082 0.382877
O O5 0.323396 0.250000 0.675934
O O6 0.243389 0.484095 0.633628
O O7 0.330291 0.492929 0.786591
O O8 0.536570 0.750000 0.807038
O O9 0.600395 0.492175 0.845802
O O10 0.457309 0.523134 0.861077
O O11 0.665849 0.250000 0.909320
O O12 0.655091 0.484324 0.020031
O O13 0.868563 0.750000 0.631846
#
# Coordination Sequence:
#
# PCOD9465503 Si02
#       5
#     8   8   8   8   8
#     4  10  21  38  58  80 107 143 181 219 264 315
#     4  10  21  36  53  79 110 140 177 220 263 314
#     4   9  19  34  54  79 104 134 177 218 261 317
#     4  10  21  35  54  80 109 139 176 221 269 317
#     4   9  19  37  55  74 105 142 175 216 267 317
#
# _framework density 17.789984
#
# number of rings (size 3 to 8) (size 9 to 14) (size 15 to 20)
#    0.000    2.400    0.000    3.000    0.000    8.000 
#    0.000    6.000    0.000    0.000    0.000    0.000 
#    0.000    0.000    0.000    0.000    0.000    0.000 
#
# Total GULP energy -223262.766768 kJ/mol
# GULP energy per Si atom -5581.569169 kJ/mol
# Density = 1.774949 g / cm^3
# Si number density = 17.789984 Si / 1000 Ang^3
#
#
#
# Elastic Constant Matrix: (Units=GPa)
#
#
# Indices 1 2 3 4 5 6 
#
# 1 172.1756 45.7836 139.9806 0.0000 0.0000 0.0000
# 2 45.7836 29.4380 44.2693 0.0000 0.0000 0.0000
# 3 139.9806 44.2693 162.3086 0.0000 0.0000 0.0000
# 4 0.0000 0.0000 0.0000 32.8422 0.0000 0.0000
# 5 0.0000 0.0000 0.0000 0.0000 23.2928 0.0000
# 6 0.0000 0.0000 0.0000 0.0000 0.0000 28.9257
#
#
#
# Elastic Compliance Matrix: (Units=1/GPa)
#
#
# Indices 1 2 3 4 5 6 
#
# 1 0.020781 -0.009101 -0.015440 0.000000 0.000000 0.000000
# 2 -0.009101 0.061577 -0.008946 0.000000 0.000000 0.000000
# 3 -0.015440 -0.008946 0.021917 0.000000 0.000000 0.000000
# 4 0.000000 0.000000 0.000000 0.030449 0.000000 0.000000
# 5 0.000000 0.000000 0.000000 0.000000 0.042932 0.000000
# 6 0.000000 0.000000 0.000000 0.000000 0.000000 0.034571
#
#
# Mechanical properties :
#
#
# Convention : Reuss Voigt Hill
#
# Bulk Modulus (GPa) = 26.80868 91.55434 59.18151
# Shear Modulus (GPa) = 17.14476 25.93806 21.54141
#
# Velocity S-wave (km/s) = 3.10777 3.82254 3.48354
# Velocity P-wave (km/s) = 5.28960 8.42960 7.03697
#
# Compressibility (1/GPa) = 0.03730135
#
# Stress axis : x y z
#
# Youngs Moduli (GPa) = 48.12127 16.23977 45.62661
#
# Poissons Ratio (x) = 0.14780 0.70447
# Poissons Ratio (y) = 0.43794 0.40818
# Poissons Ratio (z) = 0.74299 0.14528
#
# Static dielectric constant tensor:
#      x y z
#    x 1.580470 0.000000 0.000000 
#    y 0.000000 1.602980 0.000000 
#    z 0.000000 0.000000 1.593400 
# 
# From -- ./inp_files/13832.got.cif
#   From: 2010.05.17/outbox.cif.g08.bks.cpg/sg62_7_cif.got.tgz:13832.got - 2010.06.03 15:25:27.
