data_PCOD9465243
_publ_section_title
;
Structure prediction by ZEFSAII (Michael W. Deem and Ramdas Pophale) SiO2 
 PCOD9465243
Probable space group: P N M A
;
_chemical_formula_sum "Si O2"
_cell_formula_units_Z 64
_cell_length_a 23.798439
_cell_length_b 12.740429
_cell_length_c 10.708288
_cell_angle_alpha 90.000000
_cell_angle_beta 90.000000
_cell_angle_gamma 90.000000
_cell_volume 3246.777790
_symmetry_space_group_name_H-M "P N M A"
_symmetry_group_IT_number 62
_symmetry_cell_setting 'orthorhombic'
loop_
_space_group_symop_operation_xyz
x,y,z
1/2-x,-y,1/2+z
1/2+x,1/2-y,1/2-z
-x,1/2+y,-z
-x,-y,-z
1/2+x,y,1/2-z
1/2-x,1/2+y,1/2+z
x,1/2-y,z
loop_
_atom_site_type_symbol
_atom_site_label
_atom_site_fract_x
_atom_site_fract_y
_atom_site_fract_z
Si Si1 0.345782 0.634398 0.945589
Si Si2 0.060366 0.869890 0.736828
Si Si3 0.292652 0.552239 0.695323
Si Si4 0.561444 0.547514 0.497873
Si Si5 0.847475 0.626041 0.054545
Si Si6 0.457150 0.968462 0.892548
Si Si7 0.380518 0.127011 0.744730
Si Si8 0.669183 0.006566 0.811586
O O1 0.331355 0.750000 0.987910
O O2 0.322280 0.616417 0.806594
O O3 0.412775 0.618057 0.936963
O O4 0.323510 0.557044 0.051959
O O5 0.060755 0.750000 0.691964
O O6 0.069685 0.877475 0.884354
O O7 0.999729 0.922650 0.710558
O O8 0.112357 0.937583 0.683208
O O9 0.303840 0.595422 0.555815
O O10 0.322967 0.437713 0.714295
O O11 0.226397 0.554216 0.717386
O O12 0.500000 0.500000 0.500000
O O13 0.600245 0.445160 0.513502
O O14 0.580423 0.609767 0.376205
O O15 0.857334 0.750000 0.051553
O O16 0.835247 0.588868 0.196413
O O17 0.416738 0.064006 0.848998
O O18 0.500000 0.000000 0.000000
O O19 0.371620 0.250000 0.771430
#
# Coordination Sequence:
#
# PCOD9465243 Si02
#       8
#     8   8   8   8   8   8   8   8
#     4  11  23  40  66  93 124 166 206 252 315 369
#     4  11  23  39  62  90 125 164 201 249 313 370
#     4  10  23  43  63  89 128 158 208 262 301 365
#     4  10  20  39  58  89 124 151 198 250 300 361
#     4  10  22  39  63  90 120 159 202 249 305 359
#     4  11  22  42  58  91 129 160 204 254 300 367
#     4  10  22  39  63  90 120 162 203 250 311 364
#     4  11  23  43  62  92 127 160 207 261 303 364
#
# _framework density 19.711852
#
# number of rings (size 3 to 8) (size 9 to 14) (size 15 to 20)
#    0.000    1.500    2.500    2.250    0.000    4.000 
#    0.000    0.000    0.000    0.000    0.000    0.000 
#    0.000    0.000    0.000    0.000    0.000    0.000 
#
# Total GULP energy -356916.930386 kJ/mol
# GULP energy per Si atom -5576.827037 kJ/mol
# Density = 1.966699 g / cm^3
# Si number density = 19.711852 Si / 1000 Ang^3
#
#
#
# Elastic Constant Matrix: (Units=GPa)
#
#
# Indices 1 2 3 4 5 6 
#
# 1 61.9761 -3.3125 -14.5854 0.0000 0.0000 0.0000
# 2 -3.3125 93.8070 4.3332 0.0000 0.0000 0.0000
# 3 -14.5854 4.3332 60.5909 0.0000 0.0000 0.0000
# 4 0.0000 0.0000 0.0000 9.2881 0.0000 0.0000
# 5 0.0000 0.0000 0.0000 0.0000 21.1552 0.0000
# 6 0.0000 0.0000 0.0000 0.0000 0.0000 3.7113
#
#
#
# Elastic Compliance Matrix: (Units=1/GPa)
#
#
# Indices 1 2 3 4 5 6 
#
# 1 0.017120 0.000416 0.004091 0.000000 0.000000 0.000000
# 2 0.000416 0.010706 -0.000666 0.000000 0.000000 0.000000
# 3 0.004091 -0.000666 0.017537 0.000000 0.000000 0.000000
# 4 0.000000 0.000000 0.000000 0.107665 0.000000 0.000000
# 5 0.000000 0.000000 0.000000 0.000000 0.047270 0.000000
# 6 0.000000 0.000000 0.000000 0.000000 0.000000 0.269450
#
#
# Mechanical properties :
#
#
# Convention : Reuss Voigt Hill
#
# Bulk Modulus (GPa) = 18.85175 21.02718 19.93946
# Shear Modulus (GPa) = 10.42220 22.16016 16.29118
#
# Velocity S-wave (km/s) = 2.30190 3.35655 2.87795
# Velocity P-wave (km/s) = 4.08037 5.07074 4.60227
#
# Compressibility (1/GPa) = 0.05304548
#
# Stress axis : x y z
#
# Youngs Moduli (GPa) = 58.41004 93.40897 57.02350
#
# Poissons Ratio (x) = -0.03882 -0.23331
# Poissons Ratio (y) = -0.02427 0.03795
# Poissons Ratio (z) = -0.23898 0.06217
#
# Static dielectric constant tensor:
#      x y z
#    x 1.712260 0.000000 0.000000 
#    y 0.000000 1.697660 0.000000 
#    z 0.000000 0.000000 1.745500 
# 
# From -- ./inp_files/15319.got.cif
#   From: 2010.05.17/outbox.cif.g08.bks.cpg/sg62_8_cif.got.tgz:15319.got - 2010.06.03 15:25:27.
