data_PCOD9465688
_publ_section_title
;
Structure prediction by ZEFSAII (Michael W. Deem and Ramdas Pophale) SiO2 
 PCOD9465688
Probable space group: P N M A
;
_chemical_formula_sum "Si O2"
_cell_formula_units_Z 64
_cell_length_a 18.583290
_cell_length_b 8.996848
_cell_length_c 20.994998
_cell_angle_alpha 90.000000
_cell_angle_beta 90.000000
_cell_angle_gamma 90.000000
_cell_volume 3510.175455
_symmetry_space_group_name_H-M "P N M A"
_symmetry_group_IT_number 62
_symmetry_cell_setting 'orthorhombic'
loop_
_space_group_symop_operation_xyz
x,y,z
1/2-x,-y,1/2+z
1/2+x,1/2-y,1/2-z
-x,1/2+y,-z
-x,-y,-z
1/2+x,y,1/2-z
1/2-x,1/2+y,1/2+z
x,1/2-y,z
loop_
_atom_site_type_symbol
_atom_site_label
_atom_site_fract_x
_atom_site_fract_y
_atom_site_fract_z
Si Si1 0.958416 0.926900 0.819594
Si Si2 0.961945 0.427569 0.685319
Si Si3 0.792644 0.072591 0.681249
Si Si4 0.288220 0.571843 0.064354
Si Si5 0.537373 0.427647 0.561223
Si Si6 0.212261 0.073156 0.184497
Si Si7 0.955592 0.928982 0.442641
Si Si8 0.292960 0.928245 0.445875
O O1 0.968512 0.750000 0.822852
O O2 0.872833 0.957750 0.826770
O O3 0.980281 0.988492 0.750403
O O4 0.001655 0.006418 0.875459
O O5 0.969996 0.250000 0.695275
O O6 0.877627 0.456225 0.670704
O O7 0.009728 0.472459 0.625099
O O8 0.783989 0.250000 0.690776
O O9 0.747629 0.028808 0.619217
O O10 0.770136 0.989295 0.745523
O O11 0.283390 0.750000 0.066510
O O12 0.257918 0.504831 0.129734
O O13 0.371756 0.529859 0.054961
O O14 0.242012 0.509097 0.005894
O O15 0.500000 0.500000 0.500000
O O16 0.527920 0.250000 0.559742
O O17 0.622454 0.459742 0.559361
O O18 0.222385 0.250000 0.182388
O O19 0.960959 0.750000 0.447224
O O20 0.000000 0.000000 0.500000
O O21 0.284130 0.750000 0.454054
#
# Coordination Sequence:
#
# PCOD9465688 Si02
#       8
#     8   8   8   8   8   8   8   8
#     4  10  21  37  57  82 111 143 182 226 272 325
#     4   9  18  35  58  81 108 144 182 220 267 323
#     4   9  18  35  59  82 106 141 182 223 269 322
#     4  11  23  37  56  83 113 145 184 229 273 322
#     4  11  23  38  57  81 110 144 183 228 276 327
#     4  10  21  37  57  81 111 146 182 223 272 326
#     4  10  22  38  57  83 113 146 185 228 273 323
#     4  10  22  39  58  81 110 145 184 227 276 328
#
# _framework density 18.232707000000001
#
# number of rings (size 3 to 8) (size 9 to 14) (size 15 to 20)
#    0.000    2.000    0.000    3.000    0.000    9.500 
#    0.000    7.500    0.000    0.000    0.000    0.000 
#    0.000    0.000    0.000    0.000    0.000    0.000 
#
# Total GULP energy -357593.321870 kJ/mol
# GULP energy per Si atom -5587.395654 kJ/mol
# Density = 1.819121 g / cm^3
# Si number density = 18.232707 Si / 1000 Ang^3
#
#
#
# Elastic Constant Matrix: (Units=GPa)
#
#
# Indices 1 2 3 4 5 6 
#
# 1 44.5723 28.1135 27.8055 0.0000 0.0000 0.0000
# 2 28.1135 28.3700 25.4738 0.0000 0.0000 0.0000
# 3 27.8055 25.4738 84.2245 0.0000 0.0000 0.0000
# 4 0.0000 0.0000 0.0000 39.8040 0.0000 0.0000
# 5 0.0000 0.0000 0.0000 0.0000 42.2551 0.0000
# 6 0.0000 0.0000 0.0000 0.0000 0.0000 25.9526
#
#
#
# Elastic Compliance Matrix: (Units=1/GPa)
#
#
# Indices 1 2 3 4 5 6 
#
# 1 0.060219 -0.057416 -0.002515 0.000000 0.000000 0.000000
# 2 -0.057416 0.103134 -0.012238 0.000000 0.000000 0.000000
# 3 -0.002515 -0.012238 0.016405 0.000000 0.000000 0.000000
# 4 0.000000 0.000000 0.000000 0.025123 0.000000 0.000000
# 5 0.000000 0.000000 0.000000 0.000000 0.023666 0.000000
# 6 0.000000 0.000000 0.000000 0.000000 0.000000 0.038532
#
#
# Mechanical properties :
#
#
# Convention : Reuss Voigt Hill
#
# Bulk Modulus (GPa) = 28.23287 35.55026 31.89156
# Shear Modulus (GPa) = 11.81410 26.65394 19.23402
#
# Velocity S-wave (km/s) = 2.54827 3.82760 3.25147
# Velocity P-wave (km/s) = 4.91697 6.25095 5.62365
#
# Compressibility (1/GPa) = 0.03541971
#
# Stress axis : x y z
#
# Youngs Moduli (GPa) = 16.60606 9.69610 60.95859
#
# Poissons Ratio (x) = 0.55672 0.15330
# Poissons Ratio (y) = 0.95346 0.74600
# Poissons Ratio (z) = 0.04176 0.11866
#
# Static dielectric constant tensor:
#      x y z
#    x 1.614600 0.000000 0.000000 
#    y 0.000000 1.610860 0.000000 
#    z 0.000000 0.000000 1.586980 
# 
# From -- ./inp_files/27676.got.cif
#   From: 2010.05.17/outbox.cif.g08.bks.cpg/sg62_14_cif.got.tgz:27676.got - 2010.06.03 15:25:27.
