data_PCOD9465661
_publ_section_title
;
Structure prediction by ZEFSAII (Michael W. Deem and Ramdas Pophale) SiO2 
 PCOD9465661
Probable space group: P N M A
;
_chemical_formula_sum "Si O2"
_cell_formula_units_Z 56
_cell_length_a 7.924773
_cell_length_b 16.251804
_cell_length_c 23.336308
_cell_angle_alpha 90.000000
_cell_angle_beta 90.000000
_cell_angle_gamma 90.000000
_cell_volume 3005.526455
_symmetry_space_group_name_H-M "P N M A"
_symmetry_group_IT_number 62
_symmetry_cell_setting 'orthorhombic'
loop_
_space_group_symop_operation_xyz
x,y,z
1/2-x,-y,1/2+z
1/2+x,1/2-y,1/2-z
-x,1/2+y,-z
-x,-y,-z
1/2+x,y,1/2-z
1/2-x,1/2+y,1/2+z
x,1/2-y,z
loop_
_atom_site_type_symbol
_atom_site_label
_atom_site_fract_x
_atom_site_fract_y
_atom_site_fract_z
Si Si1 0.741595 0.954635 0.109388
Si Si2 0.609224 0.839834 0.931314
Si Si3 0.641851 0.475493 0.918405
Si Si4 0.587013 0.339521 0.521939
Si Si5 0.161083 0.342611 0.791963
Si Si6 0.276881 0.341829 0.666127
Si Si7 0.250372 0.098793 0.464686
O O1 0.550921 0.945099 0.086619
O O2 0.750483 0.914866 0.172025
O O3 0.781225 0.049395 0.094429
O O4 0.873275 0.904678 0.070644
O O5 0.620736 0.750000 0.901535
O O6 0.751544 0.838506 0.980361
O O7 0.419456 0.848626 0.956396
O O8 0.642402 0.928155 0.900991
O O9 0.745612 0.413814 0.878751
O O10 0.705800 0.464654 0.983516
O O11 0.570266 0.250000 0.549732
O O12 0.418894 0.357071 0.485781
O O13 0.232790 0.250000 0.803174
O O14 0.169832 0.355376 0.723984
O O15 0.968554 0.342100 0.812311
O O16 0.236866 0.250000 0.643007
#
# Coordination Sequence:
#
# PCOD9465661 Si02
#       7
#     8   8   8   8   8   8   8
#     4  11  20  34  53  77 110 144 185 228 277 333
#     4  10  21  37  52  77 111 143 185 231 272 328
#     4  11  21  36  55  79 110 152 185 229 284 327
#     4  11  21  32  51  77 107 150 185 222 276 325
#     4  10  21  37  54  80 112 146 184 228 274 334
#     4  10  22  37  56  81 112 147 187 228 277 331
#     4  11  21  36  52  79 113 147 187 232 278 334
#
# _framework density 18.632344
#
# number of rings (size 3 to 8) (size 9 to 14) (size 15 to 20)
#    0.000    1.429    2.857    3.857    2.000    4.571 
#    0.000    0.000    0.000    0.000    0.000   10.000 
#    0.000    0.000    0.000    0.000    0.000    0.000 
#
# Total GULP energy -312358.237974 kJ/mol
# GULP energy per Si atom -5577.825678 kJ/mol
# Density = 1.858994 g / cm^3
# Si number density = 18.632344 Si / 1000 Ang^3
#
#
#
# Elastic Constant Matrix: (Units=GPa)
#
#
# Indices 1 2 3 4 5 6 
#
# 1 74.9029 27.8871 8.7419 0.0000 0.0000 0.0000
# 2 27.8871 119.0237 35.7235 0.0000 0.0000 0.0000
# 3 8.7419 35.7235 51.8036 0.0000 0.0000 0.0000
# 4 0.0000 0.0000 0.0000 26.0216 0.0000 0.0000
# 5 0.0000 0.0000 0.0000 0.0000 27.3627 0.0000
# 6 0.0000 0.0000 0.0000 0.0000 0.0000 -0.7599
#
#
#
# Elastic Compliance Matrix: (Units=1/GPa)
#
#
# Indices 1 2 3 4 5 6 
#
# 1 0.014627 -0.003387 -0.000132 0.000000 0.000000 0.000000
# 2 -0.003387 0.011379 -0.007275 0.000000 0.000000 0.000000
# 3 -0.000132 -0.007275 0.024343 0.000000 0.000000 0.000000
# 4 0.000000 0.000000 0.000000 0.038430 0.000000 0.000000
# 5 0.000000 0.000000 0.000000 0.000000 0.036546 0.000000
# 6 0.000000 0.000000 0.000000 0.000000 0.000000 -1.315985
#
#
# Mechanical properties :
#
#
# Convention : Reuss Voigt Hill
#
# Bulk Modulus (GPa) = 34.77168 43.38171 39.07669
# Shear Modulus (GPa) = -4.31227 22.08337 8.88555
#
# Velocity S-wave (km/s) = -1.52297 3.44643 2.18615
# Velocity P-wave (km/s) = 3.95094 6.25865 5.23358
#
# Compressibility (1/GPa) = 0.02875903
#
# Stress axis : x y z
#
# Youngs Moduli (GPa) = 68.36557 87.88176 41.07960
#
# Poissons Ratio (x) = 0.29769 0.00544
# Poissons Ratio (y) = 0.23158 0.29886
# Poissons Ratio (z) = 0.00905 0.63936
#
# Static dielectric constant tensor:
#      x y z
#    x 1.680660 0.000000 0.000000 
#    y 0.000000 1.694460 0.000000 
#    z 0.000000 0.000000 1.634090 
# 
# From -- ./inp_files/25996.got.cif
#   From: 2010.05.17/outbox.cif.g08.bks.cpg/sg62_13_cif.got.tgz:25996.got - 2010.06.03 15:25:27.
