data_PCOD9465786
_publ_section_title
;
Structure prediction by ZEFSAII (Michael W. Deem and Ramdas Pophale) SiO2 
 PCOD9465786
Probable space group: P N M A
;
_chemical_formula_sum "Si O2"
_cell_formula_units_Z 40
_cell_length_a 14.727902
_cell_length_b 12.800060
_cell_length_c 7.980608
_cell_angle_alpha 90.000000
_cell_angle_beta 90.000000
_cell_angle_gamma 90.000000
_cell_volume 1504.488493
_symmetry_space_group_name_H-M "P N M A"
_symmetry_group_IT_number 62
_symmetry_cell_setting 'orthorhombic'
loop_
_space_group_symop_operation_xyz
x,y,z
1/2-x,-y,1/2+z
1/2+x,1/2-y,1/2-z
-x,1/2+y,-z
-x,-y,-z
1/2+x,y,1/2-z
1/2-x,1/2+y,1/2+z
x,1/2-y,z
loop_
_atom_site_type_symbol
_atom_site_label
_atom_site_fract_x
_atom_site_fract_y
_atom_site_fract_z
Si Si1 0.260868 0.361235 0.368550
Si Si2 0.686687 0.579008 0.146104
Si Si3 0.070621 0.911095 0.658132
Si Si4 0.104572 0.084111 0.152834
Si Si5 0.609743 0.134092 0.724281
O O1 0.248268 0.250000 0.455198
O O2 0.224648 0.470593 0.439997
O O3 0.362593 0.375439 0.306794
O O4 0.198740 0.360066 0.199797
O O5 0.627960 0.536576 0.302838
O O6 0.617842 0.626592 0.012208
O O7 0.779800 0.631046 0.204996
O O8 0.970384 0.880395 0.712860
O O9 0.925317 0.961787 0.336133
O O10 0.077075 0.108174 0.965197
O O11 0.581115 0.250000 0.775016
#
# Coordination Sequence:
#
# PCOD9465786 Si02
#       5
#     8   8   8   8   8
#     4   9  20  35  57  85 115 148 191 230 280 340
#     4   9  20  37  60  81 113 153 189 239 281 332
#     4  11  21  38  61  86 116 151 189 243 288 333
#     4  10  21  37  61  81 115 150 195 232 285 338
#     4  11  21  38  58  84 118 155 188 232 289 348
#
# _framework density 26.587109000000002
#
# number of rings (size 3 to 8) (size 9 to 14) (size 15 to 20)
#    1.200    0.800    2.000    1.800    0.000    2.400 
#    0.000    1.000    0.000    0.000    0.000    0.000 
#    0.000    0.000    0.000    0.000    0.000    0.000 
#
# Total GULP energy -223471.709872 kJ/mol
# GULP energy per Si atom -5586.792747 kJ/mol
# Density = 2.652660 g / cm^3
# Si number density = 26.587109 Si / 1000 Ang^3
#
#
#
# Elastic Constant Matrix: (Units=GPa)
#
#
# Indices 1 2 3 4 5 6 
#
# 1 100.1903 -5.5428 -0.4723 0.0000 0.0000 0.0000
# 2 -5.5428 149.2938 4.7018 0.0000 0.0000 0.0000
# 3 -0.4723 4.7018 70.1740 0.0000 0.0000 0.0000
# 4 0.0000 0.0000 0.0000 5.3846 0.0000 0.0000
# 5 0.0000 0.0000 0.0000 0.0000 32.9023 0.0000
# 6 0.0000 0.0000 0.0000 0.0000 0.0000 -9.1535
#
#
#
# Elastic Compliance Matrix: (Units=1/GPa)
#
#
# Indices 1 2 3 4 5 6 
#
# 1 0.010002 0.000370 0.000043 0.000000 0.000000 0.000000
# 2 0.000370 0.006726 -0.000448 0.000000 0.000000 0.000000
# 3 0.000043 -0.000448 0.014281 0.000000 0.000000 0.000000
# 4 0.000000 0.000000 0.000000 0.185716 0.000000 0.000000
# 5 0.000000 0.000000 0.000000 0.000000 0.030393 0.000000
# 6 0.000000 0.000000 0.000000 0.000000 0.000000 -0.109248
#
#
# Mechanical properties :
#
#
# Convention : Reuss Voigt Hill
#
# Bulk Modulus (GPa) = 32.32373 35.22572 33.77473
# Shear Modulus (GPa) = 33.72605 27.22477 30.47541
#
# Velocity S-wave (km/s) = 3.56548 3.20345 3.38930
# Velocity P-wave (km/s) = 5.39762 5.19237 5.29599
#
# Compressibility (1/GPa) = 0.03093702
#
# Stress axis : x y z
#
# Youngs Moduli (GPa) = 99.98322 148.67563 70.02507
#
# Poissons Ratio (x) = -0.05501 -0.00298
# Poissons Ratio (y) = -0.03699 0.03138
# Poissons Ratio (z) = -0.00425 0.06663
#
# Static dielectric constant tensor:
#      x y z
#    x 2.036610 0.000000 0.000000 
#    y 0.000000 2.326240 0.000000 
#    z 0.000000 0.000000 2.076820 
# 
# From -- ./inp_files/13107.got.cif
#   From: 2010.05.17/outbox.cif.g08.bks.cpg/sg62_7_cif.got.tgz:13107.got - 2010.06.03 15:25:27.
