data_PCOD9465732
_publ_section_title
;
Structure prediction by ZEFSAII (Michael W. Deem and Ramdas Pophale) SiO2 
 PCOD9465732
Probable space group: P N M A
;
_chemical_formula_sum "Si O2"
_cell_formula_units_Z 40
_cell_length_a 28.354517
_cell_length_b 11.996404
_cell_length_c 4.931337
_cell_angle_alpha 90.000000
_cell_angle_beta 90.000000
_cell_angle_gamma 90.000000
_cell_volume 1677.405332
_symmetry_space_group_name_H-M "P N M A"
_symmetry_group_IT_number 62
_symmetry_cell_setting 'orthorhombic'
loop_
_space_group_symop_operation_xyz
x,y,z
1/2-x,-y,1/2+z
1/2+x,1/2-y,1/2-z
-x,1/2+y,-z
-x,-y,-z
1/2+x,y,1/2-z
1/2-x,1/2+y,1/2+z
x,1/2-y,z
loop_
_atom_site_type_symbol
_atom_site_label
_atom_site_fract_x
_atom_site_fract_y
_atom_site_fract_z
Si Si1 0.758704 0.136446 0.024843
Si Si2 0.993574 0.880313 0.163066
Si Si3 0.403452 0.121824 0.774375
Si Si4 0.894405 0.970232 0.248877
Si Si5 0.802713 0.906978 0.023300
O O1 0.783751 0.250000 0.092344
O O2 0.736796 0.136971 0.727814
O O3 0.794929 0.038439 0.051424
O O4 0.714168 0.123946 0.225470
O O5 0.993132 0.750000 0.044272
O O6 0.040470 0.877991 0.347896
O O7 0.942569 0.901729 0.294592
O O8 0.000000 0.000000 0.000000
O O9 0.386904 0.250000 0.784704
O O10 0.401544 0.067392 0.476534
O O11 0.379330 0.035101 0.979186
O O12 0.854893 0.887751 0.127112
#
# Coordination Sequence:
#
# PCOD9465732 Si02
#       5
#     8   8   8   8   8
#     4  10  21  39  59  80 115 154 187 238 304 360
#     4   9  20  38  60  88 123 165 205 249 303 358
#     4  10  21  37  58  85 120 158 197 242 298 358
#     4  11  21  38  59  87 118 151 197 250 297 352
#     4  10  22  38  58  88 115 146 198 245 292 360
#
# _framework density 23.846353000000001
#
# number of rings (size 3 to 8) (size 9 to 14) (size 15 to 20)
#    0.000    2.000    0.000    3.000    0.000    4.000 
#    0.000    8.000    0.000    0.000    0.000    0.000 
#    0.000    0.000    0.000    0.000    0.000    0.000 
#
# Total GULP energy -222944.126786 kJ/mol
# GULP energy per Si atom -5573.603170 kJ/mol
# Density = 2.379208 g / cm^3
# Si number density = 23.846353 Si / 1000 Ang^3
#
#
#
# Elastic Constant Matrix: (Units=GPa)
#
#
# Indices 1 2 3 4 5 6 
#
# 1 68.4994 -1.2277 -22.5303 0.0000 0.0000 0.0000
# 2 -1.2277 175.9814 8.2536 0.0000 0.0000 0.0000
# 3 -22.5303 8.2536 59.8535 0.0000 0.0000 0.0000
# 4 0.0000 0.0000 0.0000 76.1586 0.0000 0.0000
# 5 0.0000 0.0000 0.0000 0.0000 20.0936 0.0000
# 6 0.0000 0.0000 0.0000 0.0000 0.0000 -69.4422
#
#
#
# Elastic Compliance Matrix: (Units=1/GPa)
#
#
# Indices 1 2 3 4 5 6 
#
# 1 0.016667 -0.000179 0.006299 0.000000 0.000000 0.000000
# 2 -0.000179 0.005721 -0.000856 0.000000 0.000000 0.000000
# 3 0.006299 -0.000856 0.019197 0.000000 0.000000 0.000000
# 4 0.000000 0.000000 0.000000 0.013130 0.000000 0.000000
# 5 0.000000 0.000000 0.000000 0.000000 0.049767 0.000000
# 6 0.000000 0.000000 0.000000 0.000000 0.000000 -0.014400
#
#
# Mechanical properties :
#
#
# Convention : Reuss Voigt Hill
#
# Bulk Modulus (GPa) = 19.18974 30.36951 24.77962
# Shear Modulus (GPa) = 51.58557 26.68458 39.13508
#
# Velocity S-wave (km/s) = 4.65612 3.34881 4.05549
# Velocity P-wave (km/s) = 6.08035 5.26458 5.68711
#
# Compressibility (1/GPa) = 0.05211119
#
# Stress axis : x y z
#
# Youngs Moduli (GPa) = 59.99824 174.78446 52.09281
#
# Poissons Ratio (x) = 0.03131 -0.32811
# Poissons Ratio (y) = 0.01075 0.04461
# Poissons Ratio (z) = -0.37791 0.14968
#
# Static dielectric constant tensor:
#      x y z
#    x 1.921330 0.000000 0.000000 
#    y 0.000000 1.807540 0.000000 
#    z 0.000000 0.000000 1.877970 
# 
# From -- ./inp_files/3030.got.cif
#   From: 2010.05.17/outbox.cif.g08.bks.cpg/sg62_2_cif.got.tgz:3030.got - 2010.06.03 15:25:27.
