data_PCOD9465246
_publ_section_title
;
Structure prediction by ZEFSAII (Michael W. Deem and Ramdas Pophale) SiO2 
 PCOD9465246
Probable space group: P N M A
;
_chemical_formula_sum "Si O2"
_cell_formula_units_Z 64
_cell_length_a 18.416931
_cell_length_b 13.523477
_cell_length_c 12.894049
_cell_angle_alpha 90.000000
_cell_angle_beta 90.000000
_cell_angle_gamma 90.000000
_cell_volume 3211.404000
_symmetry_space_group_name_H-M "P N M A"
_symmetry_group_IT_number 62
_symmetry_cell_setting 'orthorhombic'
loop_
_space_group_symop_operation_xyz
x,y,z
1/2-x,-y,1/2+z
1/2+x,1/2-y,1/2-z
-x,1/2+y,-z
-x,-y,-z
1/2+x,y,1/2-z
1/2-x,1/2+y,1/2+z
x,1/2-y,z
loop_
_atom_site_type_symbol
_atom_site_label
_atom_site_fract_x
_atom_site_fract_y
_atom_site_fract_z
Si Si1 0.948293 0.867292 0.578481
Si Si2 0.579405 0.366959 0.626192
Si Si3 0.430750 0.368648 0.239794
Si Si4 0.059609 0.868369 0.984727
Si Si5 0.289627 0.634237 0.823324
Si Si6 0.212644 0.971293 0.651606
Si Si7 0.099005 0.132428 0.643035
Si Si8 0.691258 0.988241 0.529572
O O1 0.963877 0.750000 0.569076
O O2 0.868478 0.877446 0.627086
O O3 0.942293 0.904878 0.460145
O O4 0.006551 0.904568 0.661613
O O5 0.594737 0.250000 0.616650
O O6 0.514258 0.389556 0.546748
O O7 0.560529 0.386142 0.746674
O O8 0.650137 0.430204 0.597846
O O9 0.430012 0.250000 0.239534
O O10 0.443263 0.394903 0.361214
O O11 0.355169 0.406151 0.191403
O O12 0.072134 0.750000 0.991925
O O13 0.126500 0.931357 0.030089
O O14 0.279668 0.750000 0.795546
O O15 0.276957 0.560398 0.728120
O O16 0.229665 0.597834 0.904818
O O17 0.177368 0.080066 0.651261
O O18 0.247466 0.959815 0.538960
O O19 0.108547 0.250000 0.631765
#
# Coordination Sequence:
#
# PCOD9465246 Si02
#       8
#     8   8   8   8   8   8   8   8
#     4   9  20  38  64  90 118 165 213 256 311 373
#     4  10  22  39  61  89 125 168 207 256 318 376
#     4  10  21  40  64  93 127 162 208 264 316 367
#     4  10  21  40  66  92 123 165 213 260 310 374
#     4  11  22  41  64  91 125 164 215 264 313 376
#     4  12  24  37  60  95 124 161 207 259 320 368
#     4  10  20  39  60  83 123 166 208 254 308 378
#     4  12  23  38  61  92 125 163 207 259 317 378
#
# _framework density 19.928978000000001
#
# number of rings (size 3 to 8) (size 9 to 14) (size 15 to 20)
#    0.000    1.500    3.750    1.125    1.750    2.000 
#    0.000    0.000    0.000    0.000    0.000    0.000 
#    0.000    0.000    0.000    0.000    0.000    0.000 
#
# Total GULP energy -356979.069995 kJ/mol
# GULP energy per Si atom -5577.797969 kJ/mol
# Density = 1.988362 g / cm^3
# Si number density = 19.928978 Si / 1000 Ang^3
#
#
#
# Elastic Constant Matrix: (Units=GPa)
#
#
# Indices 1 2 3 4 5 6 
#
# 1 75.2800 27.0762 54.2496 0.0000 0.0000 0.0000
# 2 27.0762 60.7572 39.9357 0.0000 0.0000 0.0000
# 3 54.2496 39.9357 120.3614 0.0000 0.0000 0.0000
# 4 0.0000 0.0000 0.0000 27.6794 0.0000 0.0000
# 5 0.0000 0.0000 0.0000 0.0000 27.5402 0.0000
# 6 0.0000 0.0000 0.0000 0.0000 0.0000 27.1840
#
#
#
# Elastic Compliance Matrix: (Units=1/GPa)
#
#
# Indices 1 2 3 4 5 6 
#
# 1 0.020369 -0.003892 -0.007890 0.000000 0.000000 0.000000
# 2 -0.003892 0.021793 -0.005477 0.000000 0.000000 0.000000
# 3 -0.007890 -0.005477 0.013682 0.000000 0.000000 0.000000
# 4 0.000000 0.000000 0.000000 0.036128 0.000000 0.000000
# 5 0.000000 0.000000 0.000000 0.000000 0.036311 0.000000
# 6 0.000000 0.000000 0.000000 0.000000 0.000000 0.036786
#
#
# Mechanical properties :
#
#
# Convention : Reuss Voigt Hill
#
# Bulk Modulus (GPa) = 46.88751 55.43572 51.16162
# Shear Modulus (GPa) = 24.19039 25.48987 24.84013
#
# Velocity S-wave (km/s) = 3.48779 3.58024 3.53432
# Velocity P-wave (km/s) = 6.30856 6.70581 6.51021
#
# Compressibility (1/GPa) = 0.02132764
#
# Stress axis : x y z
#
# Youngs Moduli (GPa) = 49.09448 45.88585 73.09128
#
# Poissons Ratio (x) = 0.17857 0.57665
# Poissons Ratio (y) = 0.19105 0.40032
# Poissons Ratio (z) = 0.38733 0.25131
#
# Static dielectric constant tensor:
#      x y z
#    x 1.685250 0.000000 0.000000 
#    y 0.000000 1.729450 0.000000 
#    z 0.000000 0.000000 1.759030 
# 
# From -- ./inp_files/14316.got.cif
#   From: 2010.05.17/outbox.cif.g08.bks.cpg/sg62_8_cif.got.tgz:14316.got - 2010.06.03 15:25:27.
