data_PCOD9465806
_publ_section_title
;
Structure prediction by ZEFSAII (Michael W. Deem and Ramdas Pophale) SiO2 
 PCOD9465806
Probable space group: P N M A
;
_chemical_formula_sum "Si O2"
_cell_formula_units_Z 40
_cell_length_a 24.729479
_cell_length_b 11.100207
_cell_length_c 7.477846
_cell_angle_alpha 90.000000
_cell_angle_beta 90.000000
_cell_angle_gamma 90.000000
_cell_volume 2052.686195
_symmetry_space_group_name_H-M "P N M A"
_symmetry_group_IT_number 62
_symmetry_cell_setting 'orthorhombic'
loop_
_space_group_symop_operation_xyz
x,y,z
1/2-x,-y,1/2+z
1/2+x,1/2-y,1/2-z
-x,1/2+y,-z
-x,-y,-z
1/2+x,y,1/2-z
1/2-x,1/2+y,1/2+z
x,1/2-y,z
loop_
_atom_site_type_symbol
_atom_site_label
_atom_site_fract_x
_atom_site_fract_y
_atom_site_fract_z
Si Si1 0.790027 0.112094 0.359047
Si Si2 0.542983 0.610751 0.792722
Si Si3 0.177431 0.459662 0.297705
Si Si4 0.632830 0.891776 0.531544
Si Si5 0.430683 0.617966 0.958998
O O1 0.804402 0.250000 0.397556
O O2 0.728522 0.104565 0.291813
O O3 0.828716 0.069725 0.197069
O O4 0.799444 0.035192 0.535696
O O5 0.558816 0.750000 0.846540
O O6 0.571671 0.591285 0.602315
O O7 0.478313 0.607297 0.811309
O O8 0.563396 0.501615 0.919124
O O9 0.128510 0.382257 0.375452
O O10 0.149802 0.541240 0.146139
O O11 0.641924 0.750000 0.504477
O O12 0.439647 0.750000 0.048915
#
# Coordination Sequence:
#
# PCOD9465806 Si02
#       5
#     8   8   8   8   8
#     4  11  23  39  57  84 119 156 201 251 300 358
#     4   9  19  39  63  90 124 161 201 248 302 366
#     4  12  22  39  60  87 118 159 201 249 306 358
#     4  10  21  38  61  87 117 155 204 252 295 359
#     4  10  21  37  62  93 126 159 197 252 310 359
#
# _framework density 19.486660000000001
#
# number of rings (size 3 to 8) (size 9 to 14) (size 15 to 20)
#    0.000    1.600    4.000    1.200    0.000    1.600 
#    0.000    4.000    0.000    0.000    0.000    0.000 
#    0.000    0.000    0.000    0.000    0.000    0.000 
#
# Total GULP energy -222987.349529 kJ/mol
# GULP energy per Si atom -5574.683738 kJ/mol
# Density = 1.944231 g / cm^3
# Si number density = 19.486660 Si / 1000 Ang^3
#
#
#
# Elastic Constant Matrix: (Units=GPa)
#
#
# Indices 1 2 3 4 5 6 
#
# 1 98.5291 25.9748 7.7793 0.0000 0.0000 0.0000
# 2 25.9748 88.1483 41.0107 0.0000 0.0000 0.0000
# 3 7.7793 41.0107 62.1194 0.0000 0.0000 0.0000
# 4 0.0000 0.0000 0.0000 13.5602 0.0000 0.0000
# 5 0.0000 0.0000 0.0000 0.0000 31.0709 0.0000
# 6 0.0000 0.0000 0.0000 0.0000 0.0000 20.0336
#
#
#
# Elastic Compliance Matrix: (Units=1/GPa)
#
#
# Indices 1 2 3 4 5 6 
#
# 1 0.011057 -0.003773 0.001106 0.000000 0.000000 0.000000
# 2 -0.003773 0.017661 -0.011187 0.000000 0.000000 0.000000
# 3 0.001106 -0.011187 0.023345 0.000000 0.000000 0.000000
# 4 0.000000 0.000000 0.000000 0.073745 0.000000 0.000000
# 5 0.000000 0.000000 0.000000 0.000000 0.032184 0.000000
# 6 0.000000 0.000000 0.000000 0.000000 0.000000 0.049916
#
#
# Mechanical properties :
#
#
# Convention : Reuss Voigt Hill
#
# Bulk Modulus (GPa) = 41.05905 44.25848 42.65877
# Shear Modulus (GPa) = 20.51413 24.53507 22.52460
#
# Velocity S-wave (km/s) = 3.24809 3.55219 3.40354
# Velocity P-wave (km/s) = 5.93152 6.29170 6.11426
#
# Compressibility (1/GPa) = 0.02435517
#
# Stress axis : x y z
#
# Youngs Moduli (GPa) = 90.44436 56.62197 42.83536
#
# Poissons Ratio (x) = 0.21361 -0.04738
# Poissons Ratio (y) = 0.34121 0.47921
# Poissons Ratio (z) = -0.10003 0.63344
#
# Static dielectric constant tensor:
#      x y z
#    x 1.706530 0.000000 0.000000 
#    y 0.000000 1.708990 0.000000 
#    z 0.000000 0.000000 1.648380 
# 
# From -- ./inp_files/3022.got.cif
#   From: 2010.05.17/outbox.cif.g08.bks.cpg/sg62_2_cif.got.tgz:3022.got - 2010.06.03 15:25:27.
