data_PCOD9465960
_publ_section_title
;
Structure prediction by ZEFSAII (Michael W. Deem and Ramdas Pophale) SiO2 
 PCOD9465960
Probable space group: P N M A
;
_chemical_formula_sum "Si O2"
_cell_formula_units_Z 48
_cell_length_a 26.902483
_cell_length_b 14.507173
_cell_length_c 5.128312
_cell_angle_alpha 90.000000
_cell_angle_beta 90.000000
_cell_angle_gamma 90.000000
_cell_volume 2001.472351
_symmetry_space_group_name_H-M "P N M A"
_symmetry_group_IT_number 62
_symmetry_cell_setting 'orthorhombic'
loop_
_space_group_symop_operation_xyz
x,y,z
1/2-x,-y,1/2+z
1/2+x,1/2-y,1/2-z
-x,1/2+y,-z
-x,-y,-z
1/2+x,y,1/2-z
1/2-x,1/2+y,1/2+z
x,1/2-y,z
loop_
_atom_site_type_symbol
_atom_site_label
_atom_site_fract_x
_atom_site_fract_y
_atom_site_fract_z
Si Si1 0.769601 0.450464 0.284035
Si Si2 0.869941 0.491295 0.037834
Si Si3 0.943863 0.361264 0.758261
Si Si4 0.319654 0.652251 0.783502
Si Si5 0.003363 0.360610 0.257140
Si Si6 0.591303 0.144942 0.866603
O O1 0.755441 0.476383 0.580139
O O2 0.828300 0.448922 0.231149
O O3 0.739203 0.359524 0.202675
O O4 0.909527 0.558027 0.178419
O O5 0.895987 0.414258 0.863355
O O6 0.839790 0.564565 0.866513
O O7 0.937174 0.250000 0.759215
O O8 0.963092 0.390701 0.474320
O O9 0.986795 0.386967 0.968454
O O10 0.332928 0.750000 0.656337
O O11 0.350846 0.650624 0.049354
O O12 0.000451 0.250000 0.254877
O O13 0.057289 0.378565 0.381942
O O14 0.576485 0.250000 0.779539
#
# Coordination Sequence:
#
# PCOD9465960 Si02
#       6
#     8   8   8   8   8   8
#     4  10  21  40  60  85 119 157 194 246 304 359
#     4  11  23  37  65  90 128 159 212 255 314 366
#     4  10  23  41  61  87 125 167 210 258 308 367
#     4  10  22  40  62  92 125 163 205 255 311 370
#     4   9  21  40  60  86 124 166 209 257 307 366
#     4  10  21  38  62  90 124 165 206 256 315 368
#
# _framework density 23.982346
#
# number of rings (size 3 to 8) (size 9 to 14) (size 15 to 20)
#    0.000    2.000    1.667    0.500    4.667    2.000 
#    0.000    0.000    0.000    1.000    0.000    0.000 
#    0.000    0.000    0.000    0.000    0.000    0.000 
#
# Total GULP energy -268112.333751 kJ/mol
# GULP energy per Si atom -5585.673620 kJ/mol
# Density = 2.392776 g / cm^3
# Si number density = 23.982346 Si / 1000 Ang^3
#
#
#
# Elastic Constant Matrix: (Units=GPa)
#
#
# Indices 1 2 3 4 5 6 
#
# 1 87.0849 35.3541 0.7600 0.0000 0.0000 0.0000
# 2 35.3541 100.0171 12.6490 0.0000 0.0000 0.0000
# 3 0.7600 12.6490 60.9489 0.0000 0.0000 0.0000
# 4 0.0000 0.0000 0.0000 22.1120 0.0000 0.0000
# 5 0.0000 0.0000 0.0000 0.0000 37.6172 0.0000
# 6 0.0000 0.0000 0.0000 0.0000 0.0000 38.3498
#
#
#
# Elastic Compliance Matrix: (Units=1/GPa)
#
#
# Indices 1 2 3 4 5 6 
#
# 1 0.013449 -0.004860 0.000841 0.000000 0.000000 0.000000
# 2 -0.004860 0.012024 -0.002435 0.000000 0.000000 0.000000
# 3 0.000841 -0.002435 0.016902 0.000000 0.000000 0.000000
# 4 0.000000 0.000000 0.000000 0.045224 0.000000 0.000000
# 5 0.000000 0.000000 0.000000 0.000000 0.026584 0.000000
# 6 0.000000 0.000000 0.000000 0.000000 0.000000 0.026076
#
#
# Mechanical properties :
#
#
# Convention : Reuss Voigt Hill
#
# Bulk Modulus (GPa) = 33.93644 38.39744 36.16694
# Shear Modulus (GPa) = 30.67687 32.90165 31.78926
#
# Velocity S-wave (km/s) = 3.58039 3.70795 3.64473
# Velocity P-wave (km/s) = 5.59228 5.86322 5.72935
#
# Compressibility (1/GPa) = 0.02946685
#
# Stress axis : x y z
#
# Youngs Moduli (GPa) = 74.35580 83.16537 59.16449
#
# Poissons Ratio (x) = 0.40421 -0.04976
# Poissons Ratio (y) = 0.36139 0.14406
# Poissons Ratio (z) = -0.06253 0.20250
#
# Static dielectric constant tensor:
#      x y z
#    x 1.998670 0.000000 0.000000 
#    y 0.000000 1.931510 0.000000 
#    z 0.000000 0.000000 1.971980 
# 
# From -- ./inp_files/3167.got.cif
#   From: 2010.05.17/outbox.cif.g08.bks.cpg/sg62_2_cif.got.tgz:3167.got - 2010.06.03 15:25:27.
