data_PCOD9465640
_publ_section_title
;
Structure prediction by ZEFSAII (Michael W. Deem and Ramdas Pophale) SiO2 
 PCOD9465640
Probable space group: P N M A
;
_chemical_formula_sum "Si O2"
_cell_formula_units_Z 48
_cell_length_a 7.555423
_cell_length_b 13.471109
_cell_length_c 19.488919
_cell_angle_alpha 90.000000
_cell_angle_beta 90.000000
_cell_angle_gamma 90.000000
_cell_volume 1983.580749
_symmetry_space_group_name_H-M "P N M A"
_symmetry_group_IT_number 62
_symmetry_cell_setting 'orthorhombic'
loop_
_space_group_symop_operation_xyz
x,y,z
1/2-x,-y,1/2+z
1/2+x,1/2-y,1/2-z
-x,1/2+y,-z
-x,-y,-z
1/2+x,y,1/2-z
1/2-x,1/2+y,1/2+z
x,1/2-y,z
loop_
_atom_site_type_symbol
_atom_site_label
_atom_site_fract_x
_atom_site_fract_y
_atom_site_fract_z
Si Si1 0.600835 0.863409 0.486353
Si Si2 0.101314 0.860595 0.644571
Si Si3 0.822225 0.357615 0.516846
Si Si4 0.651746 0.861707 0.203006
Si Si5 0.774946 0.525484 0.609032
Si Si6 0.735739 0.428737 0.842589
O O1 0.663408 0.750000 0.493675
O O2 0.390380 0.862021 0.475688
O O3 0.641886 0.920244 0.557470
O O4 0.694134 0.909279 0.419309
O O5 0.133753 0.750000 0.672118
O O6 0.136158 0.858641 0.562946
O O7 0.897096 0.894771 0.647385
O O8 0.215289 0.953135 0.670947
O O9 0.885214 0.250000 0.543212
O O10 0.886395 0.454429 0.556654
O O11 0.713397 0.750000 0.190656
O O12 0.455767 0.879949 0.172932
O O13 0.645043 0.881153 0.283747
O O14 0.775263 0.944128 0.165995
#
# Coordination Sequence:
#
# PCOD9465640 Si02
#       6
#     8   8   8   8   8   8
#     4  11  23  39  63  96 133 169 214 270 323 382
#     4  10  22  41  64  93 129 167 214 268 322 381
#     4  10  21  36  60  94 128 164 207 261 319 372
#     4  11  25  42  63  93 128 169 212 264 326 389
#     4  11  22  39  62  94 127 167 214 263 324 381
#     4  11  25  44  65  92 131 171 214 263 322 386
#
# _framework density 24.198661000000001
#
# number of rings (size 3 to 8) (size 9 to 14) (size 15 to 20)
#    0.000    1.333    1.667    3.500    4.667    0.000 
#    0.000    4.167    0.000    0.000    0.000    0.000 
#    0.000    0.000    0.000    0.000    0.000    0.000 
#
# Total GULP energy -268358.459686 kJ/mol
# GULP energy per Si atom -5590.801243 kJ/mol
# Density = 2.414358 g / cm^3
# Si number density = 24.198661 Si / 1000 Ang^3
#
#
#
# Elastic Constant Matrix: (Units=GPa)
#
#
# Indices 1 2 3 4 5 6 
#
# 1 63.7526 16.6487 29.0679 0.0000 0.0000 0.0000
# 2 16.6487 190.5095 24.4690 0.0000 0.0000 0.0000
# 3 29.0679 24.4690 66.3720 0.0000 0.0000 0.0000
# 4 0.0000 0.0000 0.0000 26.0557 0.0000 0.0000
# 5 0.0000 0.0000 0.0000 0.0000 25.6177 0.0000
# 6 0.0000 0.0000 0.0000 0.0000 0.0000 25.3665
#
#
#
# Elastic Compliance Matrix: (Units=1/GPa)
#
#
# Indices 1 2 3 4 5 6 
#
# 1 0.019674 -0.000643 -0.008379 0.000000 0.000000 0.000000
# 2 -0.000643 0.005531 -0.001757 0.000000 0.000000 0.000000
# 3 -0.008379 -0.001757 0.019384 0.000000 0.000000 0.000000
# 4 0.000000 0.000000 0.000000 0.038379 0.000000 0.000000
# 5 0.000000 0.000000 0.000000 0.000000 0.039036 0.000000
# 6 0.000000 0.000000 0.000000 0.000000 0.000000 0.039422
#
#
# Mechanical properties :
#
#
# Convention : Reuss Voigt Hill
#
# Bulk Modulus (GPa) = 43.42211 51.22280 47.32245
# Shear Modulus (GPa) = 26.22437 32.10456 29.16446
#
# Velocity S-wave (km/s) = 3.29555 3.64635 3.47538
# Velocity P-wave (km/s) = 5.69770 6.24031 5.97517
#
# Compressibility (1/GPa) = 0.02302974
#
# Stress axis : x y z
#
# Youngs Moduli (GPa) = 50.82827 180.79893 51.58829
#
# Poissons Ratio (x) = 0.11627 0.43227
# Poissons Ratio (y) = 0.03269 0.09066
# Poissons Ratio (z) = 0.42590 0.31774
#
# Static dielectric constant tensor:
#      x y z
#    x 1.976820 0.000000 0.000000 
#    y 0.000000 1.968140 0.000000 
#    z 0.000000 0.000000 1.937840 
# 
# From -- ./inp_files/22205.got.cif
#   From: 2010.05.17/outbox.cif.g08.bks.cpg/sg62_12_cif.got.tgz:22205.got - 2010.06.03 15:25:27.
