data_PCOD9465430
_publ_section_title
;
Structure prediction by ZEFSAII (Michael W. Deem and Ramdas Pophale) SiO2 
 PCOD9465430
Probable space group: P N M A
;
_chemical_formula_sum "Si O2"
_cell_formula_units_Z 60
_cell_length_a 17.779613
_cell_length_b 9.514017
_cell_length_c 16.700306
_cell_angle_alpha 90.000000
_cell_angle_beta 90.000000
_cell_angle_gamma 90.000000
_cell_volume 2824.949285
_symmetry_space_group_name_H-M "P N M A"
_symmetry_group_IT_number 62
_symmetry_cell_setting 'orthorhombic'
loop_
_space_group_symop_operation_xyz
x,y,z
1/2-x,-y,1/2+z
1/2+x,1/2-y,1/2-z
-x,1/2+y,-z
-x,-y,-z
1/2+x,y,1/2-z
1/2-x,1/2+y,1/2+z
x,1/2-y,z
loop_
_atom_site_type_symbol
_atom_site_label
_atom_site_fract_x
_atom_site_fract_y
_atom_site_fract_z
Si Si1 0.427462 0.087927 0.320239
Si Si2 0.434476 0.409618 0.624002
Si Si3 0.825580 0.409556 0.025001
Si Si4 0.804129 0.409165 0.456673
Si Si5 0.830414 0.411975 0.720313
Si Si6 0.070785 0.514360 0.421564
Si Si7 0.979335 0.750000 0.473046
Si Si8 0.670166 0.418062 0.795621
O O1 0.438303 0.250000 0.296002
O O2 0.363957 0.083531 0.389038
O O3 0.501734 0.022153 0.358888
O O4 0.399293 0.992235 0.247668
O O5 0.465932 0.250000 0.622770
O O6 0.389962 0.432057 0.541658
O O7 0.374405 0.417092 0.695733
O O8 0.795483 0.250000 0.012469
O O9 0.761374 0.522962 0.010223
O O10 0.786361 0.250000 0.431698
O O11 0.878600 0.408801 0.510455
O O12 0.815512 0.509992 0.381000
O O13 0.832305 0.250000 0.690760
O O14 0.875798 0.501790 0.655406
O O15 0.744422 0.446330 0.741105
O O16 0.043680 0.372009 0.461206
O O17 0.003898 0.624739 0.408867
O O18 0.662296 0.250000 0.804214
#
# Coordination Sequence:
#
# PCOD9465430 Si02
#       8
#     8   8   8   8   8   8   4   8
#     4  11  24  41  62  98 133 166 210 270 325 383
#     4  10  21  41  66  94 127 172 218 259 320 387
#     4  10  22  42  67  93 130 170 216 264 321 392
#     4  12  24  41  66  96 131 168 216 278 327 383
#     4  10  20  42  69  91 125 168 219 261 315 390
#     4  11  23  44  65  96 126 176 216 269 320 392
#     4  10  24  42  62  90 132 162 220 268 322 376
#     4  11  24  44  67  93 129 171 219 269 324 392
#
# _framework density 21.239319999999999
#
# number of rings (size 3 to 8) (size 9 to 14) (size 15 to 20)
#    0.000    1.333    2.667    2.400    1.867    4.800 
#    6.000    0.000    0.000    0.000    0.000    0.000 
#    0.000    0.000    0.000    0.000    0.000    0.000 
#
# Total GULP energy -334544.659435 kJ/mol
# GULP energy per Si atom -5575.744324 kJ/mol
# Density = 2.119098 g / cm^3
# Si number density = 21.239320 Si / 1000 Ang^3
#
#
#
# Elastic Constant Matrix: (Units=GPa)
#
#
# Indices 1 2 3 4 5 6 
#
# 1 34.7649 38.2995 7.3199 0.0000 0.0000 0.0000
# 2 38.2995 143.1306 17.6109 0.0000 0.0000 0.0000
# 3 7.3199 17.6109 49.3575 0.0000 0.0000 0.0000
# 4 0.0000 0.0000 0.0000 24.9903 0.0000 0.0000
# 5 0.0000 0.0000 0.0000 0.0000 19.0738 0.0000
# 6 0.0000 0.0000 0.0000 0.0000 0.0000 36.0544
#
#
#
# Elastic Compliance Matrix: (Units=1/GPa)
#
#
# Indices 1 2 3 4 5 6 
#
# 1 0.041030 -0.010700 -0.002267 0.000000 0.000000 0.000000
# 2 -0.010700 0.010098 -0.002016 0.000000 0.000000 0.000000
# 3 -0.002267 -0.002016 0.021316 0.000000 0.000000 0.000000
# 4 0.000000 0.000000 0.000000 0.040016 0.000000 0.000000
# 5 0.000000 0.000000 0.000000 0.000000 0.052428 0.000000
# 6 0.000000 0.000000 0.000000 0.000000 0.000000 0.027736
#
#
# Mechanical properties :
#
#
# Convention : Reuss Voigt Hill
#
# Bulk Modulus (GPa) = 23.54200 39.30151 31.42176
# Shear Modulus (GPa) = 21.11948 26.95856 24.03902
#
# Velocity S-wave (km/s) = 3.15676 3.56656 3.36790
# Velocity P-wave (km/s) = 4.93914 5.95858 5.47265
#
# Compressibility (1/GPa) = 0.04247727
#
# Stress axis : x y z
#
# Youngs Moduli (GPa) = 24.37248 99.03103 46.91334
#
# Poissons Ratio (x) = 1.05963 0.10636
# Poissons Ratio (y) = 0.26079 0.09458
# Poissons Ratio (z) = 0.05525 0.19966
#
# Static dielectric constant tensor:
#      x y z
#    x 1.824970 0.000000 0.000000 
#    y 0.000000 1.725030 0.000000 
#    z 0.000000 0.000000 1.748280 
# 
# From -- ./inp_files/24362.got.cif
#   From: 2010.05.17/outbox.cif.g08.bks.cpg/sg62_13_cif.got.tgz:24362.got - 2010.06.03 15:25:27.
