data_PCOD9465378
_publ_section_title
;
Structure prediction by ZEFSAII (Michael W. Deem and Ramdas Pophale) SiO2 
 PCOD9465378
Probable space group: P N M A
;
_chemical_formula_sum "Si O2"
_cell_formula_units_Z 48
_cell_length_a 11.490247
_cell_length_b 11.245451
_cell_length_c 18.481672
_cell_angle_alpha 90.000000
_cell_angle_beta 90.000000
_cell_angle_gamma 90.000000
_cell_volume 2388.072462
_symmetry_space_group_name_H-M "P N M A"
_symmetry_group_IT_number 62
_symmetry_cell_setting 'orthorhombic'
loop_
_space_group_symop_operation_xyz
x,y,z
1/2-x,-y,1/2+z
1/2+x,1/2-y,1/2-z
-x,1/2+y,-z
-x,-y,-z
1/2+x,y,1/2-z
1/2-x,1/2+y,1/2+z
x,1/2-y,z
loop_
_atom_site_type_symbol
_atom_site_label
_atom_site_fract_x
_atom_site_fract_y
_atom_site_fract_z
Si Si1 0.213171 0.250000 0.302803
Si Si2 0.446267 0.250000 0.204072
Si Si3 0.317576 0.502539 0.884150
Si Si4 0.058041 0.012398 0.669813
Si Si5 0.827388 0.884275 0.470487
Si Si6 0.050175 0.614252 0.042237
Si Si7 0.402572 0.886735 0.323892
O O1 0.331984 0.250000 0.255781
O O2 0.214530 0.368080 0.351690
O O3 0.081953 0.250000 0.265701
O O4 0.438179 0.129325 0.158692
O O5 0.423603 0.450635 0.838018
O O6 0.204684 0.422305 0.875161
O O7 0.360476 0.525545 0.965510
O O8 0.129133 0.077260 0.607927
O O9 0.098895 0.037488 0.751042
O O10 0.868154 0.750000 0.486593
O O11 0.687536 0.884562 0.469512
O O12 0.007535 0.750000 0.022547
O O13 0.015932 0.596993 0.126287
O O14 0.000000 0.500000 0.000000
O O15 0.394288 0.750000 0.302149
#
# Coordination Sequence:
#
# PCOD9465378 Si02
#       7
#     4   4   8   8   8   8   8
#     4  10  20  40  68  96 126 165 217 265 323 392
#     4  10  22  40  64  96 130 165 213 271 323 394
#     4  11  22  42  67  91 127 166 216 264 319 385
#     4  11  25  42  63  95 130 169 212 268 324 389
#     4  11  23  42  67  92 127 171 214 260 330 393
#     4  10  22  42  66  96 129 170 217 269 324 391
#     4  11  24  41  65  95 129 165 218 265 323 388
#
# _framework density 20.099893000000002
#
# number of rings (size 3 to 8) (size 9 to 14) (size 15 to 20)
#    0.000    1.333    4.167    1.000    2.333    1.333 
#    4.500    0.000    0.000    0.000    0.000    0.000 
#    0.000    0.000    0.000    0.000    0.000    0.000 
#
# Total GULP energy -267784.673695 kJ/mol
# GULP energy per Si atom -5578.847369 kJ/mol
# Density = 2.005415 g / cm^3
# Si number density = 20.099893 Si / 1000 Ang^3
#
#
#
# Elastic Constant Matrix: (Units=GPa)
#
#
# Indices 1 2 3 4 5 6 
#
# 1 47.2321 2.3010 2.6182 0.0000 0.0000 0.0000
# 2 2.3010 64.5438 12.0365 0.0000 0.0000 0.0000
# 3 2.6182 12.0365 74.0614 0.0000 0.0000 0.0000
# 4 0.0000 0.0000 0.0000 23.1825 0.0000 0.0000
# 5 0.0000 0.0000 0.0000 0.0000 35.7427 0.0000
# 6 0.0000 0.0000 0.0000 0.0000 0.0000 24.9388
#
#
#
# Elastic Compliance Matrix: (Units=1/GPa)
#
#
# Indices 1 2 3 4 5 6 
#
# 1 0.021239 -0.000636 -0.000647 0.000000 0.000000 0.000000
# 2 -0.000636 0.015997 -0.002577 0.000000 0.000000 0.000000
# 3 -0.000647 -0.002577 0.013944 0.000000 0.000000 0.000000
# 4 0.000000 0.000000 0.000000 0.043136 0.000000 0.000000
# 5 0.000000 0.000000 0.000000 0.000000 0.027978 0.000000
# 6 0.000000 0.000000 0.000000 0.000000 0.000000 0.040098
#
#
# Mechanical properties :
#
#
# Convention : Reuss Voigt Hill
#
# Bulk Modulus (GPa) = 23.01105 24.41653 23.71379
# Shear Modulus (GPa) = 27.08564 28.03157 27.55861
#
# Velocity S-wave (km/s) = 3.67488 3.73850 3.70683
# Velocity P-wave (km/s) = 5.42951 5.55060 5.49039
#
# Compressibility (1/GPa) = 0.04345738
#
# Stress axis : x y z
#
# Youngs Moduli (GPa) = 47.08338 62.51297 71.71514
#
# Poissons Ratio (x) = 0.03979 0.04643
# Poissons Ratio (y) = 0.02997 0.18483
# Poissons Ratio (z) = 0.03048 0.16111
#
# Static dielectric constant tensor:
#      x y z
#    x 1.713420 0.000000 0.000000 
#    y 0.000000 1.708110 0.000000 
#    z 0.000000 0.000000 1.689710 
# 
# From -- ./inp_files/23048.got.cif
#   From: 2010.05.17/outbox.cif.g08.bks.cpg/sg62_12_cif.got.tgz:23048.got - 2010.06.03 15:25:27.
