data_PCOD9465133
_publ_section_title
;
Structure prediction by ZEFSAII (Michael W. Deem and Ramdas Pophale) SiO2 
 PCOD9465133
Probable space group: P N M A
;
_chemical_formula_sum "Si O2"
_cell_formula_units_Z 64
_cell_length_a 14.746379
_cell_length_b 20.108144
_cell_length_c 11.528692
_cell_angle_alpha 90.000000
_cell_angle_beta 90.000000
_cell_angle_gamma 90.000000
_cell_volume 3418.514411
_symmetry_space_group_name_H-M "P N M A"
_symmetry_group_IT_number 62
_symmetry_cell_setting 'orthorhombic'
loop_
_space_group_symop_operation_xyz
x,y,z
1/2-x,-y,1/2+z
1/2+x,1/2-y,1/2-z
-x,1/2+y,-z
-x,-y,-z
1/2+x,y,1/2-z
1/2-x,1/2+y,1/2+z
x,1/2-y,z
loop_
_atom_site_type_symbol
_atom_site_label
_atom_site_fract_x
_atom_site_fract_y
_atom_site_fract_z
Si Si1 0.380999 0.042943 0.251988
Si Si2 0.331199 0.086128 0.505426
Si Si3 0.908194 0.561250 0.718592
Si Si4 0.335536 0.826925 0.956308
Si Si5 0.317507 0.894560 0.322880
Si Si6 0.220866 0.440282 0.075194
Si Si7 0.038893 0.324615 0.682353
Si Si8 0.122630 0.587641 0.252252
O O1 0.372128 0.076750 0.378129
O O2 0.483802 0.053714 0.211585
O O3 0.307769 0.069803 0.158616
O O4 0.356660 0.965495 0.276338
O O5 0.262800 0.147523 0.496709
O O6 0.399652 0.088827 0.614414
O O7 0.277415 0.017829 0.536254
O O8 0.870247 0.619135 0.637165
O O9 0.868218 0.573027 0.847020
O O10 0.869473 0.486858 0.696247
O O11 0.333419 0.750000 0.915896
O O12 0.402489 0.830679 0.065826
O O13 0.291237 0.899819 0.457470
O O14 0.393201 0.842285 0.286982
O O15 0.222058 0.881398 0.260612
O O16 0.004496 0.250000 0.693674
O O17 0.955028 0.374195 0.681533
#
# Coordination Sequence:
#
# PCOD9465133 Si02
#       8
#     8   8   8   8   8   8   8   8
#     4  11  20  36  62  94 124 151 200 258 309 365
#     4  10  20  38  62  87 121 160 203 243 306 372
#     4  11  22  37  63  92 122 159 205 261 308 356
#     4  11  23  43  63  85 126 170 207 252 310 380
#     4  11  21  38  60  89 125 158 197 252 317 363
#     4  10  21  36  60  95 123 153 201 257 312 365
#     4  11  25  41  60  89 122 164 209 251 315 381
#     4  11  22  37  64  93 119 160 209 261 306 361
#
# _framework density 18.721582999999999
#
# number of rings (size 3 to 8) (size 9 to 14) (size 15 to 20)
#    0.000    1.250    6.250    0.750    3.500    3.000 
#    0.000    1.250    0.000    0.000    0.000    0.000 
#    0.000    0.000    0.000    0.000    0.000    0.000 
#
# Total GULP energy -357034.304544 kJ/mol
# GULP energy per Si atom -5578.661009 kJ/mol
# Density = 1.867897 g / cm^3
# Si number density = 18.721583 Si / 1000 Ang^3
#
#
#
# Elastic Constant Matrix: (Units=GPa)
#
#
# Indices 1 2 3 4 5 6 
#
# 1 55.2248 11.6016 -1.6443 0.0000 0.0000 0.0000
# 2 11.6016 76.1515 28.2680 0.0000 0.0000 0.0000
# 3 -1.6443 28.2680 72.8850 0.0000 0.0000 0.0000
# 4 0.0000 0.0000 0.0000 18.4398 0.0000 0.0000
# 5 0.0000 0.0000 0.0000 0.0000 16.7830 0.0000
# 6 0.0000 0.0000 0.0000 0.0000 0.0000 16.6772
#
#
#
# Elastic Compliance Matrix: (Units=1/GPa)
#
#
# Indices 1 2 3 4 5 6 
#
# 1 0.018907 -0.003550 0.001803 0.000000 0.000000 0.000000
# 2 -0.003550 0.016007 -0.006288 0.000000 0.000000 0.000000
# 3 0.001803 -0.006288 0.016200 0.000000 0.000000 0.000000
# 4 0.000000 0.000000 0.000000 0.054230 0.000000 0.000000
# 5 0.000000 0.000000 0.000000 0.000000 0.059584 0.000000
# 6 0.000000 0.000000 0.000000 0.000000 0.000000 0.059962
#
#
# Mechanical properties :
#
#
# Convention : Reuss Voigt Hill
#
# Bulk Modulus (GPa) = 28.53533 31.19021 29.86277
# Shear Modulus (GPa) = 19.79089 21.44907 20.61998
#
# Velocity S-wave (km/s) = 3.25486 3.38847 3.32234
# Velocity P-wave (km/s) = 5.42222 5.65731 5.54101
#
# Compressibility (1/GPa) = 0.03504428
#
# Stress axis : x y z
#
# Youngs Moduli (GPa) = 52.88973 62.47346 61.72920
#
# Poissons Ratio (x) = 0.22178 -0.11132
# Poissons Ratio (y) = 0.18776 0.38817
# Poissons Ratio (z) = -0.09538 0.39285
#
# Static dielectric constant tensor:
#      x y z
#    x 1.632920 0.000000 0.000000 
#    y 0.000000 1.646620 0.000000 
#    z 0.000000 0.000000 1.674700 
# 
# From -- ./inp_files/13592.got.cif
#   From: 2010.05.17/outbox.cif.g08.bks.cpg/sg62_7_cif.got.tgz:13592.got - 2010.06.03 15:25:27.
