data_PCOD9465867
_publ_section_title
;
Structure prediction by ZEFSAII (Michael W. Deem and Ramdas Pophale) SiO2 
 PCOD9465867
Probable space group: P N M A
;
_chemical_formula_sum "Si O2"
_cell_formula_units_Z 64
_cell_length_a 18.437790
_cell_length_b 27.050989
_cell_length_c 6.562829
_cell_angle_alpha 90.000000
_cell_angle_beta 90.000000
_cell_angle_gamma 90.000000
_cell_volume 3273.279575
_symmetry_space_group_name_H-M "P N M A"
_symmetry_group_IT_number 62
_symmetry_cell_setting 'orthorhombic'
loop_
_space_group_symop_operation_xyz
x,y,z
1/2-x,-y,1/2+z
1/2+x,1/2-y,1/2-z
-x,1/2+y,-z
-x,-y,-z
1/2+x,y,1/2-z
1/2-x,1/2+y,1/2+z
x,1/2-y,z
loop_
_atom_site_type_symbol
_atom_site_label
_atom_site_fract_x
_atom_site_fract_y
_atom_site_fract_z
Si Si1 0.950842 0.694354 0.813927
Si Si2 0.301410 0.373283 0.052292
Si Si3 0.891785 0.544359 0.083719
Si Si4 0.757296 0.573940 0.332336
Si Si5 0.574926 0.694807 0.008923
Si Si6 0.506209 0.873592 0.347259
Si Si7 0.379067 0.063643 0.396628
Si Si8 0.845124 0.889524 0.715324
O O1 0.921651 0.750000 0.825264
O O2 0.900560 0.655333 0.697733
O O3 0.025769 0.696006 0.691330
O O4 0.965168 0.669932 0.031924
O O5 0.348740 0.412880 0.185809
O O6 0.223871 0.370367 0.158253
O O7 0.283749 0.389786 0.823141
O O8 0.345114 0.322610 0.049458
O O9 0.812181 0.543686 0.189521
O O10 0.919578 0.488768 0.113649
O O11 0.879801 0.566244 0.853921
O O12 0.946964 0.583319 0.187682
O O13 0.691038 0.551912 0.461547
O O14 0.811950 0.595312 0.500610
O O15 0.573125 0.750000 0.101162
O O16 0.543130 0.652182 0.154859
O O17 0.568049 0.897530 0.492135
#
# Coordination Sequence:
#
# PCOD9465867 Si02
#       8
#     8   8   8   8   8   8   8   8
#     4  10  21  39  63  86 113 151 194 245 299 352
#     4  10  21  39  57  87 120 156 194 246 289 348
#     4  10  23  36  60  89 118 159 198 238 291 356
#     4  10  21  38  59  84 122 154 197 239 292 348
#     4  11  22  38  61  86 113 155 199 243 298 352
#     4  11  21  41  58  87 122 154 198 246 292 346
#     4  11  22  36  61  84 123 159 197 241 296 347
#     4   9  21  39  59  86 118 152 194 245 294 346
#
# _framework density 19.552257000000001
#
# number of rings (size 3 to 8) (size 9 to 14) (size 15 to 20)
#    0.000    1.750    2.500    1.500    5.250    0.500 
#    0.000    1.250    0.000    0.000    0.000    0.000 
#    0.000    0.000    0.000    0.000    0.000    0.000 
#
# Total GULP energy -356781.292102 kJ/mol
# GULP energy per Si atom -5574.707689 kJ/mol
# Density = 1.950776 g / cm^3
# Si number density = 19.552257 Si / 1000 Ang^3
#
#
#
# Elastic Constant Matrix: (Units=GPa)
#
#
# Indices 1 2 3 4 5 6 
#
# 1 44.3676 8.5794 -2.5007 0.0000 0.0000 0.0000
# 2 8.5794 91.6262 14.0165 0.0000 0.0000 0.0000
# 3 -2.5007 14.0165 44.6143 0.0000 0.0000 0.0000
# 4 0.0000 0.0000 0.0000 13.0514 0.0000 0.0000
# 5 0.0000 0.0000 0.0000 0.0000 30.6033 0.0000
# 6 0.0000 0.0000 0.0000 0.0000 0.0000 18.4577
#
#
#
# Elastic Compliance Matrix: (Units=1/GPa)
#
#
# Indices 1 2 3 4 5 6 
#
# 1 0.023136 -0.002484 0.002077 0.000000 0.000000 0.000000
# 2 -0.002484 0.011732 -0.003825 0.000000 0.000000 0.000000
# 3 0.002077 -0.003825 0.023732 0.000000 0.000000 0.000000
# 4 0.000000 0.000000 0.000000 0.076620 0.000000 0.000000
# 5 0.000000 0.000000 0.000000 0.000000 0.032676 0.000000
# 6 0.000000 0.000000 0.000000 0.000000 0.000000 0.054178
#
#
# Mechanical properties :
#
#
# Convention : Reuss Voigt Hill
#
# Bulk Modulus (GPa) = 19.94542 24.53318 22.23930
# Shear Modulus (GPa) = 20.22239 23.12334 21.67286
#
# Velocity S-wave (km/s) = 3.21950 3.44269 3.33296
# Velocity P-wave (km/s) = 4.90342 5.32706 5.11962
#
# Compressibility (1/GPa) = 0.05013683
#
# Stress axis : x y z
#
# Youngs Moduli (GPa) = 43.22192 85.23958 42.13634
#
# Poissons Ratio (x) = 0.21175 -0.08753
# Poissons Ratio (y) = 0.10737 0.16117
# Poissons Ratio (z) = -0.08978 0.32604
#
# Static dielectric constant tensor:
#      x y z
#    x 1.702080 0.000000 0.000000 
#    y 0.000000 1.700960 0.000000 
#    z 0.000000 0.000000 1.710410 
# 
# From -- ./inp_files/2413.got.cif
#   From: 2010.05.17/outbox.cif.g08.bks.cpg/sg62_2_cif.got.tgz:2413.got - 2010.06.03 15:25:27.
