data_PCOD9465826
_publ_section_title
;
Structure prediction by ZEFSAII (Michael W. Deem and Ramdas Pophale) SiO2 
 PCOD9465826
Probable space group: P N M A
;
_chemical_formula_sum "Si O2"
_cell_formula_units_Z 56
_cell_length_a 20.736692
_cell_length_b 7.385058
_cell_length_c 15.362146
_cell_angle_alpha 90.000000
_cell_angle_beta 90.000000
_cell_angle_gamma 90.000000
_cell_volume 2352.584742
_symmetry_space_group_name_H-M "P N M A"
_symmetry_group_IT_number 62
_symmetry_cell_setting 'orthorhombic'
loop_
_space_group_symop_operation_xyz
x,y,z
1/2-x,-y,1/2+z
1/2+x,1/2-y,1/2-z
-x,1/2+y,-z
-x,-y,-z
1/2+x,y,1/2-z
1/2-x,1/2+y,1/2+z
x,1/2-y,z
loop_
_atom_site_type_symbol
_atom_site_label
_atom_site_fract_x
_atom_site_fract_y
_atom_site_fract_z
Si Si1 0.580647 0.956594 0.600579
Si Si2 0.700367 0.532599 0.912018
Si Si3 0.819428 0.464743 0.787575
Si Si4 0.582727 0.971842 0.792270
Si Si5 0.317034 0.454853 0.899970
Si Si6 0.570008 0.971308 0.410829
Si Si7 0.965428 0.965100 0.592468
O O1 0.604339 0.750000 0.600909
O O2 0.598096 0.036446 0.694517
O O3 0.597465 0.032284 0.505251
O O4 0.502481 0.960016 0.599778
O O5 0.693418 0.750000 0.919108
O O6 0.762040 0.491344 0.854651
O O7 0.636965 0.469508 0.860665
O O8 0.705487 0.459761 0.009794
O O9 0.829458 0.250000 0.775068
O O10 0.802439 0.541458 0.693077
O O11 0.884484 0.532913 0.832742
O O12 0.582179 0.750000 0.789810
O O13 0.513425 0.027350 0.830749
O O14 0.290529 0.250000 0.898301
O O15 0.394946 0.449752 0.905361
O O16 0.567385 0.750000 0.412583
O O17 0.956634 0.750000 0.601307
O O18 0.000000 0.000000 0.500000
#
# Coordination Sequence:
#
# PCOD9465826 Si02
#       7
#     8   8   8   8   8   8   8
#     4   9  17  31  54  78 102 134 173 215 260 318
#     4  10  21  38  56  75 106 145 183 223 270 326
#     4  10  22  38  56  79 110 145 184 230 277 325
#     4   9  18  33  52  77 107 139 176 220 269 321
#     4  10  21  39  58  80 113 147 181 231 288 334
#     4   9  18  33  51  76 107 136 168 216 271 314
#     4  11  20  33  56  84 113 145 182 226 282 340
#
# _framework density 23.803605999999998
#
# number of rings (size 3 to 8) (size 9 to 14) (size 15 to 20)
#    0.000    2.286    1.429    1.286    0.000    2.857 
#    0.000    2.857    0.000    0.000    0.000    0.000 
#    0.000    0.000    0.000    0.000    0.000    0.000 
#
# Total GULP energy -312973.665039 kJ/mol
# GULP energy per Si atom -5588.815447 kJ/mol
# Density = 2.374943 g / cm^3
# Si number density = 23.803606 Si / 1000 Ang^3
#
#
#
# Elastic Constant Matrix: (Units=GPa)
#
#
# Indices 1 2 3 4 5 6 
#
# 1 34.8654 -16.2964 21.5842 0.0000 0.0000 0.0000
# 2 -16.2964 92.7738 5.3846 0.0000 0.0000 0.0000
# 3 21.5842 5.3846 213.0293 0.0000 0.0000 0.0000
# 4 0.0000 0.0000 0.0000 1.2735 0.0000 0.0000
# 5 0.0000 0.0000 0.0000 0.0000 25.1928 0.0000
# 6 0.0000 0.0000 0.0000 0.0000 0.0000 15.9149
#
#
#
# Elastic Compliance Matrix: (Units=1/GPa)
#
#
# Indices 1 2 3 4 5 6 
#
# 1 0.033765 0.006139 -0.003576 0.000000 0.000000 0.000000
# 2 0.006139 0.011911 -0.000923 0.000000 0.000000 0.000000
# 3 -0.003576 -0.000923 0.005080 0.000000 0.000000 0.000000
# 4 0.000000 0.000000 0.000000 0.785242 0.000000 0.000000
# 5 0.000000 0.000000 0.000000 0.000000 0.039694 0.000000
# 6 0.000000 0.000000 0.000000 0.000000 0.000000 0.062834
#
#
# Mechanical properties :
#
#
# Convention : Reuss Voigt Hill
#
# Bulk Modulus (GPa) = 18.50674 40.22367 29.36520
# Shear Modulus (GPa) = 5.24517 30.47598 17.86057
#
# Velocity S-wave (km/s) = 1.48604 3.58202 2.74219
# Velocity P-wave (km/s) = 3.27659 5.83461 4.73174
#
# Compressibility (1/GPa) = 0.05403438
#
# Stress axis : x y z
#
# Youngs Moduli (GPa) = 29.61649 83.95756 196.85562
#
# Poissons Ratio (x) = -0.51539 0.70400
# Poissons Ratio (y) = -0.18181 0.18170
# Poissons Ratio (z) = 0.10592 0.07750
#
# Static dielectric constant tensor:
#      x y z
#    x 1.829710 0.000000 0.000000 
#    y 0.000000 1.913120 0.000000 
#    z 0.000000 0.000000 1.969610 
# 
# From -- ./inp_files/20442.got.cif
#   From: 2010.05.17/outbox.cif.g08.bks.cpg/sg62_11_cif.got.tgz:20442.got - 2010.06.03 15:25:27.
