data_PCOD9465207
_publ_section_title
;
Structure prediction by ZEFSAII (Michael W. Deem and Ramdas Pophale) SiO2 
 PCOD9465207
Probable space group: P N M A
;
_chemical_formula_sum "Si O2"
_cell_formula_units_Z 48
_cell_length_a 9.792892
_cell_length_b 27.204329
_cell_length_c 8.302520
_cell_angle_alpha 90.000000
_cell_angle_beta 90.000000
_cell_angle_gamma 90.000000
_cell_volume 2211.866514
_symmetry_space_group_name_H-M "P N M A"
_symmetry_group_IT_number 62
_symmetry_cell_setting 'orthorhombic'
loop_
_space_group_symop_operation_xyz
x,y,z
1/2-x,-y,1/2+z
1/2+x,1/2-y,1/2-z
-x,1/2+y,-z
-x,-y,-z
1/2+x,y,1/2-z
1/2-x,1/2+y,1/2+z
x,1/2-y,z
loop_
_atom_site_type_symbol
_atom_site_label
_atom_site_fract_x
_atom_site_fract_y
_atom_site_fract_z
Si Si1 0.695964 0.627328 0.129732
Si Si2 0.895879 0.460465 0.862185
Si Si3 0.890107 0.976049 0.382328
Si Si4 0.028566 0.381380 0.070328
Si Si5 0.427089 0.625680 0.940360
Si Si6 0.310777 0.308248 0.553977
O O1 0.655570 0.576996 0.221634
O O2 0.687493 0.669381 0.265344
O O3 0.581112 0.636220 0.995715
O O4 0.843105 0.622769 0.049309
O O5 0.765248 0.495368 0.887224
O O6 0.037005 0.480724 0.790162
O O7 0.935384 0.426686 0.012166
O O8 0.878837 0.919986 0.447884
O O9 0.000000 0.000000 0.500000
O O10 0.074688 0.387400 0.253137
O O11 0.935442 0.333306 0.042503
O O12 0.327892 0.670885 0.976106
O O13 0.318063 0.250000 0.554083
#
# Coordination Sequence:
#
# PCOD9465207 Si02
#       6
#     8   8   8   8   8   8
#     4  10  20  38  65  88 122 167 207 251 317 380
#     4  10  20  42  62  91 125 172 207 259 310 372
#     4  11  23  42  66  94 131 171 220 258 307 381
#     4  11  21  39  65  90 127 162 207 263 327 370
#     4  11  23  40  64  94 129 165 208 267 321 373
#     4  11  23  41  64  89 123 168 213 257 319 395
#
# _framework density 21.701129999999999
#
# number of rings (size 3 to 8) (size 9 to 14) (size 15 to 20)
#    0.000    1.333    5.000    3.000    0.000    4.667 
#    3.000    3.333    0.000    0.000    0.000    0.000 
#    0.000    0.000    0.000    0.000    0.000    0.000 
#
# Total GULP energy -268545.772872 kJ/mol
# GULP energy per Si atom -5594.703601 kJ/mol
# Density = 2.165174 g / cm^3
# Si number density = 21.701130 Si / 1000 Ang^3
#
#
#
# Elastic Constant Matrix: (Units=GPa)
#
#
# Indices 1 2 3 4 5 6 
#
# 1 123.6961 24.2082 19.4461 0.0000 0.0000 0.0000
# 2 24.2082 73.1312 15.5238 0.0000 0.0000 0.0000
# 3 19.4461 15.5238 75.7920 0.0000 0.0000 0.0000
# 4 0.0000 0.0000 0.0000 16.8999 0.0000 0.0000
# 5 0.0000 0.0000 0.0000 0.0000 27.1691 0.0000
# 6 0.0000 0.0000 0.0000 0.0000 0.0000 26.8226
#
#
#
# Elastic Compliance Matrix: (Units=1/GPa)
#
#
# Indices 1 2 3 4 5 6 
#
# 1 0.008861 -0.002562 -0.001749 0.000000 0.000000 0.000000
# 2 -0.002562 0.015036 -0.002422 0.000000 0.000000 0.000000
# 3 -0.001749 -0.002422 0.014139 0.000000 0.000000 0.000000
# 4 0.000000 0.000000 0.000000 0.059172 0.000000 0.000000
# 5 0.000000 0.000000 0.000000 0.000000 0.036807 0.000000
# 6 0.000000 0.000000 0.000000 0.000000 0.000000 0.037282
#
#
# Mechanical properties :
#
#
# Convention : Reuss Voigt Hill
#
# Bulk Modulus (GPa) = 40.70038 43.44170 42.07104
# Shear Modulus (GPa) = 25.91316 28.40773 27.16044
#
# Velocity S-wave (km/s) = 3.45931 3.62200 3.54159
# Velocity P-wave (km/s) = 5.89504 6.12809 6.01269
#
# Compressibility (1/GPa) = 0.02456979
#
# Stress axis : x y z
#
# Youngs Moduli (GPa) = 112.85903 66.50561 70.72721
#
# Poissons Ratio (x) = 0.17038 0.12368
# Poissons Ratio (y) = 0.28913 0.17133
# Poissons Ratio (z) = 0.19735 0.16111
#
# Static dielectric constant tensor:
#      x y z
#    x 1.838960 0.000000 0.000000 
#    y 0.000000 1.772650 0.000000 
#    z 0.000000 0.000000 1.787020 
# 
# From -- ./inp_files/4524.got.cif
#   From: 2010.05.17/outbox.cif.g08.bks.cpg/sg62_3_cif.got.tgz:4524.got - 2010.06.03 15:25:27.
