data_PCOD9465125
_publ_section_title
;
Structure prediction by ZEFSAII (Michael W. Deem and Ramdas Pophale) SiO2 
 PCOD9465125
Probable space group: P N M A
;
_chemical_formula_sum "Si O2"
_cell_formula_units_Z 48
_cell_length_a 9.338557
_cell_length_b 8.796978
_cell_length_c 31.592786
_cell_angle_alpha 90.000000
_cell_angle_beta 90.000000
_cell_angle_gamma 90.000000
_cell_volume 2595.381505
_symmetry_space_group_name_H-M "P N M A"
_symmetry_group_IT_number 62
_symmetry_cell_setting 'orthorhombic'
loop_
_space_group_symop_operation_xyz
x,y,z
1/2-x,-y,1/2+z
1/2+x,1/2-y,1/2-z
-x,1/2+y,-z
-x,-y,-z
1/2+x,y,1/2-z
1/2-x,1/2+y,1/2+z
x,1/2-y,z
loop_
_atom_site_type_symbol
_atom_site_label
_atom_site_fract_x
_atom_site_fract_y
_atom_site_fract_z
Si Si1 0.909287 0.432092 0.290363
Si Si2 0.587625 0.432109 0.629415
Si Si3 0.080420 0.570813 0.960264
Si Si4 0.579137 0.430749 0.040246
Si Si5 0.922784 0.432458 0.630738
Si Si6 0.409038 0.066447 0.712818
O O1 0.905731 0.250000 0.288419
O O2 0.750099 0.499867 0.287424
O O3 0.982990 0.487955 0.333640
O O4 0.002679 0.498910 0.251912
O O5 0.583636 0.250000 0.625290
O O6 0.537424 0.502383 0.585125
O O7 0.754513 0.474152 0.636716
O O8 0.491083 0.474861 0.669370
O O9 0.055389 0.750000 0.959646
O O10 0.250589 0.543459 0.964632
O O11 0.000000 0.500000 0.000000
O O12 0.554235 0.250000 0.043204
O O13 0.535087 0.511590 0.083945
O O14 0.500000 0.500000 0.000000
O O15 0.935798 0.250000 0.633943
O O16 0.404323 0.250000 0.716150
#
# Coordination Sequence:
#
# PCOD9465125 Si02
#       6
#     8   8   8   8   8   8
#     4  12  25  40  60  89 121 153 192 241 291 344
#     4   9  20  38  61  85 111 146 191 237 284 338
#     4  10  21  36  57  83 114 149 188 233 284 339
#     4  10  21  37  57  84 115 151 193 239 290 345
#     4  10  20  38  62  86 114 152 194 239 291 348
#     4  11  23  41  63  87 117 155 195 237 287 348
#
# _framework density 18.494391
#
# number of rings (size 3 to 8) (size 9 to 14) (size 15 to 20)
#    0.000    1.667    0.000    4.500    0.000    6.667 
#    0.000    1.667    0.000    0.000    0.000    0.000 
#    0.000    0.000    0.000    0.000    0.000    0.000 
#
# Total GULP energy -268314.644416 kJ/mol
# GULP energy per Si atom -5589.888425 kJ/mol
# Density = 1.845230 g / cm^3
# Si number density = 18.494391 Si / 1000 Ang^3
#
#
#
# Elastic Constant Matrix: (Units=GPa)
#
#
# Indices 1 2 3 4 5 6 
#
# 1 109.4446 63.6806 106.5148 0.0000 0.0000 0.0000
# 2 63.6806 88.9702 85.1259 0.0000 0.0000 0.0000
# 3 106.5148 85.1259 201.7253 0.0000 0.0000 0.0000
# 4 0.0000 0.0000 0.0000 40.4567 0.0000 0.0000
# 5 0.0000 0.0000 0.0000 0.0000 42.0445 0.0000
# 6 0.0000 0.0000 0.0000 0.0000 0.0000 28.1212
#
#
#
# Elastic Compliance Matrix: (Units=1/GPa)
#
#
# Indices 1 2 3 4 5 6 
#
# 1 0.021465 -0.007580 -0.008135 0.000000 0.000000 0.000000
# 2 -0.007580 0.021527 -0.005082 0.000000 0.000000 0.000000
# 3 -0.008135 -0.005082 0.011397 0.000000 0.000000 0.000000
# 4 0.000000 0.000000 0.000000 0.024718 0.000000 0.000000
# 5 0.000000 0.000000 0.000000 0.000000 0.023784 0.000000
# 6 0.000000 0.000000 0.000000 0.000000 0.000000 0.035560
#
#
# Mechanical properties :
#
#
# Convention : Reuss Voigt Hill
#
# Bulk Modulus (GPa) = 78.15274 101.19808 89.67541
# Shear Modulus (GPa) = 27.12798 31.77905 29.45351
#
# Velocity S-wave (km/s) = 3.83407 4.14974 3.99502
# Velocity P-wave (km/s) = 7.87079 8.82029 8.35903
#
# Compressibility (1/GPa) = 0.01279546
#
# Stress axis : x y z
#
# Youngs Moduli (GPa) = 46.58783 46.45241 87.73922
#
# Poissons Ratio (x) = 0.35210 0.71378
# Poissons Ratio (y) = 0.35312 0.44590
# Poissons Ratio (z) = 0.37901 0.23608
#
# Static dielectric constant tensor:
#      x y z
#    x 1.621380 0.000000 0.000000 
#    y 0.000000 1.616910 0.000000 
#    z 0.000000 0.000000 1.610810 
# 
# From -- ./inp_files/32038.got.cif
#   From: 2010.05.17/outbox.cif.g08.bks.cpg/sg62_17_cif.got.tgz:32038.got - 2010.06.03 15:25:27.
