data_PCOD9465066
_publ_section_title
;
Structure prediction by ZEFSAII (Michael W. Deem and Ramdas Pophale) SiO2 
 PCOD9465066
Probable space group: P N M A
;
_chemical_formula_sum "Si O2"
_cell_formula_units_Z 40
_cell_length_a 19.608363
_cell_length_b 7.459307
_cell_length_c 12.071091
_cell_angle_alpha 90.000000
_cell_angle_beta 90.000000
_cell_angle_gamma 90.000000
_cell_volume 1765.575703
_symmetry_space_group_name_H-M "P N M A"
_symmetry_group_IT_number 62
_symmetry_cell_setting 'orthorhombic'
loop_
_space_group_symop_operation_xyz
x,y,z
1/2-x,-y,1/2+z
1/2+x,1/2-y,1/2-z
-x,1/2+y,-z
-x,-y,-z
1/2+x,y,1/2-z
1/2-x,1/2+y,1/2+z
x,1/2-y,z
loop_
_atom_site_type_symbol
_atom_site_label
_atom_site_fract_x
_atom_site_fract_y
_atom_site_fract_z
Si Si1 0.539982 0.044692 0.832204
Si Si2 0.326368 0.960284 0.052052
Si Si3 0.388524 0.467014 0.823951
Si Si4 0.563754 0.963079 0.580352
Si Si5 0.674995 0.969560 0.408790
O O1 0.535743 0.250000 0.872619
O O2 0.464873 0.965170 0.850285
O O3 0.552348 0.045353 0.700483
O O4 0.605967 0.960952 0.890530
O O5 0.324710 0.750000 0.082536
O O6 0.337809 0.977980 0.921129
O O7 0.252844 0.032890 0.086556
O O8 0.391370 0.250000 0.820782
O O9 0.362840 0.526144 0.703589
O O10 0.568633 0.750000 0.596791
O O11 0.630958 0.025761 0.515131
O O12 0.500000 0.000000 0.500000
O O13 0.674887 0.750000 0.409710
#
# Coordination Sequence:
#
# PCOD9465066 Si02
#       5
#     8   8   8   8   8
#     4  10  21  38  60  84 114 150 190 234 283 334
#     4  10  22  38  58  84 115 152 191 233 281 338
#     4  10  20  38  59  81 114 151 186 233 287 333
#     4  11  21  37  60  84 114 150 189 234 282 335
#     4   9  20  38  56  80 118 151 179 234 294 328
#
# _framework density 22.655498999999999
#
# number of rings (size 3 to 8) (size 9 to 14) (size 15 to 20)
#    0.000    2.000    2.000    1.200    2.800    1.600 
#    0.000    2.000    0.000    0.000    0.000    0.000 
#    0.000    0.000    0.000    0.000    0.000    0.000 
#
# Total GULP energy -223608.814546 kJ/mol
# GULP energy per Si atom -5590.220364 kJ/mol
# Density = 2.260393 g / cm^3
# Si number density = 22.655499 Si / 1000 Ang^3
#
#
#
# Elastic Constant Matrix: (Units=GPa)
#
#
# Indices 1 2 3 4 5 6 
#
# 1 156.7675 8.4828 8.7025 0.0000 0.0000 0.0000
# 2 8.4828 73.3839 -12.8241 0.0000 0.0000 0.0000
# 3 8.7025 -12.8241 47.0776 0.0000 0.0000 0.0000
# 4 0.0000 0.0000 0.0000 22.1236 0.0000 0.0000
# 5 0.0000 0.0000 0.0000 0.0000 38.0532 0.0000
# 6 0.0000 0.0000 0.0000 0.0000 0.0000 4.2242
#
#
#
# Elastic Compliance Matrix: (Units=1/GPa)
#
#
# Indices 1 2 3 4 5 6 
#
# 1 0.006516 -0.001012 -0.001480 0.000000 0.000000 0.000000
# 2 -0.001012 0.014465 0.004127 0.000000 0.000000 0.000000
# 3 -0.001480 0.004127 0.022639 0.000000 0.000000 0.000000
# 4 0.000000 0.000000 0.000000 0.045201 0.000000 0.000000
# 5 0.000000 0.000000 0.000000 0.000000 0.026279 0.000000
# 6 0.000000 0.000000 0.000000 0.000000 0.000000 0.236728
#
#
# Mechanical properties :
#
#
# Convention : Reuss Voigt Hill
#
# Bulk Modulus (GPa) = 21.32589 31.77240 26.54915
# Shear Modulus (GPa) = 13.72917 31.07139 22.40028
#
# Velocity S-wave (km/s) = 2.46437 3.70736 3.14783
# Velocity P-wave (km/s) = 4.18701 5.69039 4.99558
#
# Compressibility (1/GPa) = 0.04689135
#
# Stress axis : x y z
#
# Youngs Moduli (GPa) = 153.47337 69.13140 44.17069
#
# Poissons Ratio (x) = 0.06995 0.06538
# Poissons Ratio (y) = 0.15529 -0.18231
# Poissons Ratio (z) = 0.22716 -0.28533
#
# Static dielectric constant tensor:
#      x y z
#    x 1.839230 0.000000 0.000000 
#    y 0.000000 1.843600 0.000000 
#    z 0.000000 0.000000 1.778450 
# 
# From -- ./inp_files/13827.got.cif
#   From: 2010.05.17/outbox.cif.g08.bks.cpg/sg62_7_cif.got.tgz:13827.got - 2010.06.03 15:25:27.
