data_PCOD9465247
_publ_section_title
;
Structure prediction by ZEFSAII (Michael W. Deem and Ramdas Pophale) SiO2 
 PCOD9465247
Probable space group: P N M A
;
_chemical_formula_sum "Si O2"
_cell_formula_units_Z 48
_cell_length_a 17.921657
_cell_length_b 9.931719
_cell_length_c 13.009943
_cell_angle_alpha 90.000000
_cell_angle_beta 90.000000
_cell_angle_gamma 90.000000
_cell_volume 2315.676980
_symmetry_space_group_name_H-M "P N M A"
_symmetry_group_IT_number 62
_symmetry_cell_setting 'orthorhombic'
loop_
_space_group_symop_operation_xyz
x,y,z
1/2-x,-y,1/2+z
1/2+x,1/2-y,1/2-z
-x,1/2+y,-z
-x,-y,-z
1/2+x,y,1/2-z
1/2-x,1/2+y,1/2+z
x,1/2-y,z
loop_
_atom_site_type_symbol
_atom_site_label
_atom_site_fract_x
_atom_site_fract_y
_atom_site_fract_z
Si Si1 0.977167 0.402433 0.408458
Si Si2 0.523891 0.590581 0.401825
Si Si3 0.386944 0.594351 0.747849
Si Si4 0.741030 0.405945 0.086208
Si Si5 0.849531 0.900198 0.377110
Si Si6 0.356610 0.895145 0.349157
O O1 0.964525 0.250000 0.442755
O O2 0.902851 0.472126 0.369300
O O3 0.000000 0.500000 0.500000
O O4 0.041983 0.401787 0.324264
O O5 0.500000 0.500000 0.500000
O O6 0.540839 0.750000 0.423057
O O7 0.589063 0.512375 0.339695
O O8 0.445749 0.591111 0.337680
O O9 0.376274 0.750000 0.710070
O O10 0.317809 0.557471 0.822908
O O11 0.758194 0.250000 0.101790
O O12 0.816471 0.489395 0.089205
O O13 0.702485 0.420324 0.975155
O O14 0.885494 0.750000 0.393704
O O15 0.817886 0.892889 0.262623
O O16 0.344356 0.750000 0.399965
#
# Coordination Sequence:
#
# PCOD9465247 Si02
#       6
#     8   8   8   8   8   8
#     4  11  20  32  57  90 122 151 188 240 296 357
#     4  11  24  42  65  90 121 162 209 260 306 363
#     4  10  21  38  60  90 123 155 199 250 301 362
#     4  10  22  39  61  89 125 161 198 254 312 365
#     4  10  20  39  60  84 117 154 199 249 303 359
#     4  10  23  41  61  87 122 160 205 255 302 364
#
# _framework density 20.728280999999999
#
# number of rings (size 3 to 8) (size 9 to 14) (size 15 to 20)
#    0.000    1.667    3.333    1.000    0.000    5.333 
#    0.000    3.333    0.000    0.000    0.000    0.000 
#    0.000    0.000    0.000    0.000    0.000    0.000 
#
# Total GULP energy -267548.617322 kJ/mol
# GULP energy per Si atom -5573.929528 kJ/mol
# Density = 2.068110 g / cm^3
# Si number density = 20.728281 Si / 1000 Ang^3
#
#
#
# Elastic Constant Matrix: (Units=GPa)
#
#
# Indices 1 2 3 4 5 6 
#
# 1 32.8393 20.5963 -15.3751 0.0000 0.0000 0.0000
# 2 20.5963 111.0141 29.7228 0.0000 0.0000 0.0000
# 3 -15.3751 29.7228 61.3673 0.0000 0.0000 0.0000
# 4 0.0000 0.0000 0.0000 27.2198 0.0000 0.0000
# 5 0.0000 0.0000 0.0000 0.0000 8.4627 0.0000
# 6 0.0000 0.0000 0.0000 0.0000 0.0000 32.5799
#
#
#
# Elastic Compliance Matrix: (Units=1/GPa)
#
#
# Indices 1 2 3 4 5 6 
#
# 1 0.047967 -0.013922 0.018761 0.000000 0.000000 0.000000
# 2 -0.013922 0.014391 -0.010458 0.000000 0.000000 0.000000
# 3 0.018761 -0.010458 0.026061 0.000000 0.000000 0.000000
# 4 0.000000 0.000000 0.000000 0.036738 0.000000 0.000000
# 5 0.000000 0.000000 0.000000 0.000000 0.118166 0.000000
# 6 0.000000 0.000000 0.000000 0.000000 0.000000 0.030694
#
#
# Mechanical properties :
#
#
# Convention : Reuss Voigt Hill
#
# Bulk Modulus (GPa) = 12.95681 30.56763 21.76222
# Shear Modulus (GPa) = 16.07809 25.00426 20.54118
#
# Velocity S-wave (km/s) = 2.78809 3.47693 3.15139
# Velocity P-wave (km/s) = 4.07786 5.55856 4.87476
#
# Compressibility (1/GPa) = 0.07717950
#
# Stress axis : x y z
#
# Youngs Moduli (GPa) = 20.84777 69.48837 38.37144
#
# Poissons Ratio (x) = 0.96743 -0.71988
# Poissons Ratio (y) = 0.29025 0.40130
# Poissons Ratio (z) = -0.39112 0.72672
#
# Static dielectric constant tensor:
#      x y z
#    x 1.730730 0.000000 0.000000 
#    y 0.000000 1.806690 0.000000 
#    z 0.000000 0.000000 1.732740 
# 
# From -- ./inp_files/19659.got.cif
#   From: 2010.05.17/outbox.cif.g08.bks.cpg/sg62_10_cif.got.tgz:19659.got - 2010.06.03 15:25:27.
