data_PCOD9465618
_publ_section_title
;
Structure prediction by ZEFSAII (Michael W. Deem and Ramdas Pophale) SiO2 
 PCOD9465618
Probable space group: P N M A
;
_chemical_formula_sum "Si O2"
_cell_formula_units_Z 64
_cell_length_a 24.503806
_cell_length_b 8.900887
_cell_length_c 14.770807
_cell_angle_alpha 90.000000
_cell_angle_beta 90.000000
_cell_angle_gamma 90.000000
_cell_volume 3221.595845
_symmetry_space_group_name_H-M "P N M A"
_symmetry_group_IT_number 62
_symmetry_cell_setting 'orthorhombic'
loop_
_space_group_symop_operation_xyz
x,y,z
1/2-x,-y,1/2+z
1/2+x,1/2-y,1/2-z
-x,1/2+y,-z
-x,-y,-z
1/2+x,y,1/2-z
1/2-x,1/2+y,1/2+z
x,1/2-y,z
loop_
_atom_site_type_symbol
_atom_site_label
_atom_site_fract_x
_atom_site_fract_y
_atom_site_fract_z
Si Si1 0.347893 0.417419 0.274511
Si Si2 0.464151 0.924206 0.075971
Si Si3 0.532398 0.568708 0.726641
Si Si4 0.744077 0.927931 0.050207
Si Si5 0.639489 0.584769 0.939136
Si Si6 0.232107 0.570752 0.255193
Si Si7 0.331615 0.431297 0.572741
Si Si8 0.459653 0.431064 0.575375
O O1 0.334841 0.250000 0.311100
O O2 0.406537 0.470509 0.312019
O O3 0.360192 0.400237 0.168258
O O4 0.295214 0.522180 0.269715
O O5 0.475551 0.750000 0.087475
O O6 0.471715 0.008254 0.171353
O O7 0.402702 0.954282 0.041916
O O8 0.500000 0.000000 0.000000
O O9 0.528994 0.750000 0.724372
O O10 0.485528 0.492265 0.668118
O O11 0.756259 0.750000 0.057411
O O12 0.713296 0.973903 0.143376
O O13 0.699570 0.949616 0.972412
O O14 0.798154 0.010258 0.014679
O O15 0.623269 0.750000 0.977007
O O16 0.229480 0.750000 0.247372
O O17 0.199207 0.514276 0.166362
O O18 0.329487 0.250000 0.572721
O O19 0.395539 0.474785 0.568865
O O20 0.500000 0.500000 0.500000
O O21 0.462080 0.250000 0.570797
#
# Coordination Sequence:
#
# PCOD9465618 Si02
#       8
#     8   8   8   8   8   8   8   8
#     4   9  18  34  57  83 114 149 190 243 304 361
#     4  11  22  37  60  90 123 162 207 254 310 375
#     4  10  22  41  62  88 122 158 205 263 316 374
#     4  10  21  37  59  88 120 160 203 249 309 374
#     4   9  18  35  56  81 116 155 197 247 303 362
#     4  10  21  36  58  88 118 153 198 249 304 367
#     4  10  23  42  61  88 128 165 205 260 314 370
#     4  11  25  44  65  91 124 171 221 268 323 378
#
# _framework density 19.865929999999999
#
# number of rings (size 3 to 8) (size 9 to 14) (size 15 to 20)
#    0.000    2.000    1.250    2.625    1.750    5.500 
#    0.000    2.500    0.000    0.000    0.000    0.000 
#    0.000    0.000    0.000    0.000    0.000    0.000 
#
# Total GULP energy -356469.288432 kJ/mol
# GULP energy per Si atom -5569.832632 kJ/mol
# Density = 1.982071 g / cm^3
# Si number density = 19.865930 Si / 1000 Ang^3
#
#
#
# Elastic Constant Matrix: (Units=GPa)
#
#
# Indices 1 2 3 4 5 6 
#
# 1 85.3945 27.6735 45.0440 0.0000 0.0000 0.0000
# 2 27.6735 39.9626 22.7049 0.0000 0.0000 0.0000
# 3 45.0440 22.7049 72.5081 0.0000 0.0000 0.0000
# 4 0.0000 0.0000 0.0000 26.5122 0.0000 0.0000
# 5 0.0000 0.0000 0.0000 0.0000 27.8049 0.0000
# 6 0.0000 0.0000 0.0000 0.0000 0.0000 32.9271
#
#
#
# Elastic Compliance Matrix: (Units=1/GPa)
#
#
# Indices 1 2 3 4 5 6 
#
# 1 0.019302 -0.007972 -0.009495 0.000000 0.000000 0.000000
# 2 -0.007972 0.033731 -0.005610 0.000000 0.000000 0.000000
# 3 -0.009495 -0.005610 0.021447 0.000000 0.000000 0.000000
# 4 0.000000 0.000000 0.000000 0.037718 0.000000 0.000000
# 5 0.000000 0.000000 0.000000 0.000000 0.035965 0.000000
# 6 0.000000 0.000000 0.000000 0.000000 0.000000 0.030370
#
#
# Mechanical properties :
#
#
# Convention : Reuss Voigt Hill
#
# Bulk Modulus (GPa) = 35.30257 43.19001 39.24629
# Shear Modulus (GPa) = 21.35574 24.27835 22.81705
#
# Velocity S-wave (km/s) = 3.28227 3.49966 3.39271
# Velocity P-wave (km/s) = 5.67216 6.17399 5.92838
#
# Compressibility (1/GPa) = 0.02832655
#
# Stress axis : x y z
#
# Youngs Moduli (GPa) = 51.80799 29.64603 46.62744
#
# Poissons Ratio (x) = 0.23634 0.44271
# Poissons Ratio (y) = 0.41301 0.26158
# Poissons Ratio (z) = 0.49190 0.16632
#
# Static dielectric constant tensor:
#      x y z
#    x 1.774870 0.000000 0.000000 
#    y 0.000000 1.717880 0.000000 
#    z 0.000000 0.000000 1.749710 
# 
# From -- ./inp_files/20928.got.cif
#   From: 2010.05.17/outbox.cif.g08.bks.cpg/sg62_11_cif.got.tgz:20928.got - 2010.06.03 15:25:27.
