data_PCOD9465913
_publ_section_title
;
Structure prediction by ZEFSAII (Michael W. Deem and Ramdas Pophale) SiO2 
 PCOD9465913
Probable space group: P N M A
;
_chemical_formula_sum "Si O2"
_cell_formula_units_Z 56
_cell_length_a 13.692684
_cell_length_b 15.687611
_cell_length_c 13.601593
_cell_angle_alpha 90.000000
_cell_angle_beta 90.000000
_cell_angle_gamma 90.000000
_cell_volume 2921.696987
_symmetry_space_group_name_H-M "P N M A"
_symmetry_group_IT_number 62
_symmetry_cell_setting 'orthorhombic'
loop_
_space_group_symop_operation_xyz
x,y,z
1/2-x,-y,1/2+z
1/2+x,1/2-y,1/2-z
-x,1/2+y,-z
-x,-y,-z
1/2+x,y,1/2-z
1/2-x,1/2+y,1/2+z
x,1/2-y,z
loop_
_atom_site_type_symbol
_atom_site_label
_atom_site_fract_x
_atom_site_fract_y
_atom_site_fract_z
Si Si1 0.874808 0.647860 0.382067
Si Si2 0.344396 0.084345 0.640235
Si Si3 0.309213 0.352408 0.120556
Si Si4 0.679448 0.460615 0.529687
Si Si5 0.950035 0.847970 0.171275
Si Si6 0.295769 0.946409 0.798942
Si Si7 0.036273 0.147196 0.412447
O O1 0.883568 0.750000 0.382084
O O2 0.760777 0.624227 0.384899
O O3 0.920506 0.617558 0.279230
O O4 0.931731 0.616843 0.478510
O O5 0.434015 0.146922 0.656920
O O6 0.370007 0.020485 0.551628
O O7 0.329436 0.028709 0.737818
O O8 0.295980 0.250000 0.115695
O O9 0.267257 0.389846 0.222679
O O10 0.423954 0.372264 0.110407
O O11 0.252745 0.400061 0.032161
O O12 0.604446 0.403309 0.590039
O O13 0.735401 0.520344 0.607602
O O14 0.917139 0.750000 0.164438
O O15 0.389075 0.894399 0.836343
O O16 0.046943 0.250000 0.409158
#
# Coordination Sequence:
#
# PCOD9465913 Si02
#       7
#     8   8   8   8   8   8   8
#     4  10  21  38  60  90 123 156 207 255 303 367
#     4  11  23  40  61  89 122 162 207 252 312 365
#     4  10  24  44  65  92 127 167 208 253 315 377
#     4  11  23  41  63  92 125 161 204 260 308 365
#     4  11  24  41  62  89 125 165 203 250 311 372
#     4  11  23  39  65  93 126 159 204 264 306 364
#     4  10  22  41  66  92 121 164 208 251 309 371
#
# _framework density 19.166943
#
# number of rings (size 3 to 8) (size 9 to 14) (size 15 to 20)
#    0.000    1.429    2.857    1.714    4.000    0.571 
#    0.000    0.000    0.000    0.000    0.000    0.000 
#    0.000    0.000    0.000    0.000    0.000    0.000 
#
# Total GULP energy -312898.631442 kJ/mol
# GULP energy per Si atom -5587.475561 kJ/mol
# Density = 1.912332 g / cm^3
# Si number density = 19.166943 Si / 1000 Ang^3
#
#
#
# Elastic Constant Matrix: (Units=GPa)
#
#
# Indices 1 2 3 4 5 6 
#
# 1 111.0029 20.9990 37.4857 0.0000 0.0000 0.0000
# 2 20.9990 25.5063 6.5175 0.0000 0.0000 0.0000
# 3 37.4857 6.5175 80.8450 0.0000 0.0000 0.0000
# 4 0.0000 0.0000 0.0000 25.0251 0.0000 0.0000
# 5 0.0000 0.0000 0.0000 0.0000 12.9662 0.0000
# 6 0.0000 0.0000 0.0000 0.0000 0.0000 28.7620
#
#
#
# Elastic Compliance Matrix: (Units=1/GPa)
#
#
# Indices 1 2 3 4 5 6 
#
# 1 0.012394 -0.008919 -0.005028 0.000000 0.000000 0.000000
# 2 -0.008919 0.046449 0.000391 0.000000 0.000000 0.000000
# 3 -0.005028 0.000391 0.014669 0.000000 0.000000 0.000000
# 4 0.000000 0.000000 0.000000 0.039960 0.000000 0.000000
# 5 0.000000 0.000000 0.000000 0.000000 0.077124 0.000000
# 6 0.000000 0.000000 0.000000 0.000000 0.000000 0.034768
#
#
# Mechanical properties :
#
#
# Convention : Reuss Voigt Hill
#
# Bulk Modulus (GPa) = 21.55158 38.59538 30.07348
# Shear Modulus (GPa) = 18.66079 23.50748 21.08413
#
# Velocity S-wave (km/s) = 3.12363 3.50588 3.32026
# Velocity P-wave (km/s) = 4.92727 6.04718 5.51572
#
# Compressibility (1/GPa) = 0.04640032
#
# Stress axis : x y z
#
# Youngs Moduli (GPa) = 80.68504 21.52904 68.17082
#
# Poissons Ratio (x) = 0.19202 0.34274
# Poissons Ratio (y) = 0.71963 -0.02665
# Poissons Ratio (z) = 0.40566 -0.00842
#
# Static dielectric constant tensor:
#      x y z
#    x 1.643440 0.000000 0.000000 
#    y 0.000000 1.662880 0.000000 
#    z 0.000000 0.000000 1.652780 
# 
# From -- ./inp_files/13368.got.cif
#   From: 2010.05.17/outbox.cif.g08.bks.cpg/sg62_7_cif.got.tgz:13368.got - 2010.06.03 15:25:27.
