data_PCOD9465581
_publ_section_title
;
Structure prediction by ZEFSAII (Michael W. Deem and Ramdas Pophale) SiO2 
 PCOD9465581
Probable space group: P N M A
;
_chemical_formula_sum "Si O2"
_cell_formula_units_Z 48
_cell_length_a 12.306514
_cell_length_b 7.666009
_cell_length_c 22.918654
_cell_angle_alpha 90.000000
_cell_angle_beta 90.000000
_cell_angle_gamma 90.000000
_cell_volume 2162.188151
_symmetry_space_group_name_H-M "P N M A"
_symmetry_group_IT_number 62
_symmetry_cell_setting 'orthorhombic'
loop_
_space_group_symop_operation_xyz
x,y,z
1/2-x,-y,1/2+z
1/2+x,1/2-y,1/2-z
-x,1/2+y,-z
-x,-y,-z
1/2+x,y,1/2-z
1/2-x,1/2+y,1/2+z
x,1/2-y,z
loop_
_atom_site_type_symbol
_atom_site_label
_atom_site_fract_x
_atom_site_fract_y
_atom_site_fract_z
Si Si1 0.353883 0.045085 0.044058
Si Si2 0.756246 0.458325 0.575245
Si Si3 0.307386 0.039972 0.648450
Si Si4 0.948625 0.951910 0.138515
Si Si5 0.125284 0.956364 0.736057
Si Si6 0.029607 0.039312 0.368429
O O1 0.374327 0.250000 0.033710
O O2 0.462534 0.972735 0.074740
O O3 0.262510 0.027168 0.093862
O O4 0.307942 0.967818 0.984254
O O5 0.743489 0.250000 0.567740
O O6 0.639237 0.530548 0.594003
O O7 0.846149 0.487039 0.625166
O O8 0.306817 0.250000 0.647294
O O9 0.430516 0.972949 0.644100
O O10 0.242109 0.985493 0.706349
O O11 0.964060 0.750000 0.121476
O O12 0.893617 0.957604 0.201989
O O13 0.110075 0.750000 0.744058
O O14 0.035677 0.020030 0.688778
O O15 0.023397 0.250000 0.368442
#
# Coordination Sequence:
#
# PCOD9465581 Si02
#       6
#     8   8   8   8   8   8
#     4   9  19  37  58  82 114 149 186 230 280 332
#     4  10  21  36  56  83 115 149 186 230 279 332
#     4  10  21  38  59  82 111 147 188 230 278 338
#     4  10  23  39  55  82 115 149 188 232 282 334
#     4  10  22  39  59  82 111 146 188 236 284 334
#     4   9  19  35  55  83 112 142 185 234 281 332
#
# _framework density 22.199732000000001
#
# number of rings (size 3 to 8) (size 9 to 14) (size 15 to 20)
#    0.000    2.333    0.000    2.500    2.333    6.667 
#    0.000    0.000    0.000    0.000    0.000    0.000 
#    0.000    0.000    0.000    0.000    0.000    0.000 
#
# Total GULP energy -268079.431269 kJ/mol
# GULP energy per Si atom -5584.988151 kJ/mol
# Density = 2.214920 g / cm^3
# Si number density = 22.199732 Si / 1000 Ang^3
#
#
#
# Elastic Constant Matrix: (Units=GPa)
#
#
# Indices 1 2 3 4 5 6 
#
# 1 133.0043 -15.6255 4.7810 0.0000 0.0000 0.0000
# 2 -15.6255 46.6358 -12.7100 0.0000 0.0000 0.0000
# 3 4.7810 -12.7100 34.8997 0.0000 0.0000 0.0000
# 4 0.0000 0.0000 0.0000 16.7863 0.0000 0.0000
# 5 0.0000 0.0000 0.0000 0.0000 9.9123 0.0000
# 6 0.0000 0.0000 0.0000 0.0000 0.0000 13.5500
#
#
#
# Elastic Compliance Matrix: (Units=1/GPa)
#
#
# Indices 1 2 3 4 5 6 
#
# 1 0.007827 0.002587 -0.000130 0.000000 0.000000 0.000000
# 2 0.002587 0.024661 0.008627 0.000000 0.000000 0.000000
# 3 -0.000130 0.008627 0.031813 0.000000 0.000000 0.000000
# 4 0.000000 0.000000 0.000000 0.059572 0.000000 0.000000
# 5 0.000000 0.000000 0.000000 0.000000 0.100885 0.000000
# 6 0.000000 0.000000 0.000000 0.000000 0.000000 0.073801
#
#
# Mechanical properties :
#
#
# Convention : Reuss Voigt Hill
#
# Bulk Modulus (GPa) = 11.56493 18.60341 15.08417
# Shear Modulus (GPa) = 16.38191 23.92266 20.15228
#
# Velocity S-wave (km/s) = 2.71944 3.28626 3.01619
# Velocity P-wave (km/s) = 3.88346 4.77468 4.35194
#
# Compressibility (1/GPa) = 0.08646829
#
# Stress axis : x y z
#
# Youngs Moduli (GPa) = 127.76020 40.55040 31.43360
#
# Poissons Ratio (x) = -0.10491 0.00409
# Poissons Ratio (y) = -0.33052 -0.27117
# Poissons Ratio (z) = 0.01662 -0.34982
#
# Static dielectric constant tensor:
#      x y z
#    x 1.828380 0.000000 0.000000 
#    y 0.000000 1.810210 0.000000 
#    z 0.000000 0.000000 1.814400 
# 
# From -- ./inp_files/29244.got.cif
#   From: 2010.05.17/outbox.cif.g08.bks.cpg/sg62_15_cif.got.tgz:29244.got - 2010.06.03 15:25:27.
