data_PCOD9465764
_publ_section_title
;
Structure prediction by ZEFSAII (Michael W. Deem and Ramdas Pophale) SiO2 
 PCOD9465764
Probable space group: P N M A
;
_chemical_formula_sum "Si O2"
_cell_formula_units_Z 64
_cell_length_a 7.928085
_cell_length_b 15.561250
_cell_length_c 25.661051
_cell_angle_alpha 90.000000
_cell_angle_beta 90.000000
_cell_angle_gamma 90.000000
_cell_volume 3165.827283
_symmetry_space_group_name_H-M "P N M A"
_symmetry_group_IT_number 62
_symmetry_cell_setting 'orthorhombic'
loop_
_space_group_symop_operation_xyz
x,y,z
1/2-x,-y,1/2+z
1/2+x,1/2-y,1/2-z
-x,1/2+y,-z
-x,-y,-z
1/2+x,y,1/2-z
1/2-x,1/2+y,1/2+z
x,1/2-y,z
loop_
_atom_site_type_symbol
_atom_site_label
_atom_site_fract_x
_atom_site_fract_y
_atom_site_fract_z
Si Si1 0.832011 0.909463 0.926201
Si Si2 0.275559 0.144776 0.413713
Si Si3 0.780621 0.403867 0.968429
Si Si4 0.803111 0.846144 0.821535
Si Si5 0.833787 0.844480 0.031209
Si Si6 0.869508 0.510066 0.670063
Si Si7 0.475717 0.351460 0.897762
Si Si8 0.094858 0.925543 0.765640
O O1 0.746946 0.904551 0.869807
O O2 0.031150 0.892189 0.915077
O O3 0.779589 0.995617 0.955695
O O4 0.788069 0.841277 0.970326
O O5 0.272583 0.250000 0.405157
O O6 0.222287 0.124872 0.473813
O O7 0.167564 0.086858 0.372515
O O8 0.655619 0.361300 0.926572
O O9 0.981664 0.385754 0.963816
O O10 0.783158 0.750000 0.839953
O O11 0.713528 0.862422 0.766997
O O12 0.992549 0.868661 0.806195
O O13 0.860708 0.750000 0.052454
O O14 0.674050 0.878810 0.062241
O O15 0.945517 0.423139 0.646385
O O16 0.689449 0.503031 0.700048
O O17 0.985347 0.536420 0.718878
O O18 0.457181 0.250000 0.883376
#
# Coordination Sequence:
#
# PCOD9465764 Si02
#       8
#     8   8   8   8   8   8   8   8
#     4  11  20  34  59  89 125 173 215 260 315 387
#     4  11  22  38  64  97 136 179 218 263 322 397
#     4  11  22  39  62  93 135 173 214 265 325 385
#     4  11  21  36  56  85 119 162 213 260 316 384
#     4  10  21  37  59  90 127 166 208 260 319 388
#     4  11  23  44  63  91 124 166 213 270 330 386
#     4  11  24  43  68  96 128 168 218 273 334 401
#     4  10  24  39  60  83 120 163 208 271 329 381
#
# _framework density 20.215883999999999
#
# number of rings (size 3 to 8) (size 9 to 14) (size 15 to 20)
#    0.000    1.250    1.250    7.125    0.000    5.500 
#    0.000    0.625    0.000    0.000    0.000    0.000 
#    0.000    0.000    0.000    0.000    0.000    0.000 
#
# Total GULP energy -356325.218961 kJ/mol
# GULP energy per Si atom -5567.581546 kJ/mol
# Density = 2.016987 g / cm^3
# Si number density = 20.215884 Si / 1000 Ang^3
#
#
#
# Elastic Constant Matrix: (Units=GPa)
#
#
# Indices 1 2 3 4 5 6 
#
# 1 39.8638 18.2804 15.6890 0.0000 0.0000 0.0000
# 2 18.2804 116.6201 42.8848 0.0000 0.0000 0.0000
# 3 15.6890 42.8848 86.6702 0.0000 0.0000 0.0000
# 4 0.0000 0.0000 0.0000 -227.4835 0.0000 0.0000
# 5 0.0000 0.0000 0.0000 0.0000 42.5459 0.0000
# 6 0.0000 0.0000 0.0000 0.0000 0.0000 15.8021
#
#
#
# Elastic Compliance Matrix: (Units=1/GPa)
#
#
# Indices 1 2 3 4 5 6 
#
# 1 0.027883 -0.003074 -0.003526 0.000000 0.000000 0.000000
# 2 -0.003074 0.010821 -0.004798 0.000000 0.000000 0.000000
# 3 -0.003526 -0.004798 0.014550 0.000000 0.000000 0.000000
# 4 0.000000 0.000000 0.000000 -0.004396 0.000000 0.000000
# 5 0.000000 0.000000 0.000000 0.000000 0.023504 0.000000
# 6 0.000000 0.000000 0.000000 0.000000 0.000000 0.063283
#
#
# Mechanical properties :
#
#
# Convention : Reuss Voigt Hill
#
# Bulk Modulus (GPa) = 32.83215 44.09584 38.46400
# Shear Modulus (GPa) = 29.65705 -22.74045 3.45830
#
# Velocity S-wave (km/s) = 3.83432 -3.35756 1.30935
# Velocity P-wave (km/s) = 5.98988 2.61321 4.62102
#
# Compressibility (1/GPa) = 0.03045795
#
# Stress axis : x y z
#
# Youngs Moduli (GPa) = 35.86432 92.41283 68.72698
#
# Poissons Ratio (x) = 0.28407 0.24236
# Poissons Ratio (y) = 0.11024 0.32974
# Poissons Ratio (z) = 0.12647 0.44338
#
# Static dielectric constant tensor:
#      x y z
#    x 1.825500 0.000000 0.000000 
#    y 0.000000 1.775330 0.000000 
#    z 0.000000 0.000000 1.746880 
# 
# From -- ./inp_files/28976.got.cif
#   From: 2010.05.17/outbox.cif.g08.bks.cpg/sg62_15_cif.got.tgz:28976.got - 2010.06.03 15:25:27.
