data_PCOD9465257
_publ_section_title
;
Structure prediction by ZEFSAII (Michael W. Deem and Ramdas Pophale) SiO2 
 PCOD9465257
Probable space group: P N M A
;
_chemical_formula_sum "Si O2"
_cell_formula_units_Z 48
_cell_length_a 20.795943
_cell_length_b 8.427985
_cell_length_c 14.512588
_cell_angle_alpha 90.000000
_cell_angle_beta 90.000000
_cell_angle_gamma 90.000000
_cell_volume 2543.590759
_symmetry_space_group_name_H-M "P N M A"
_symmetry_group_IT_number 62
_symmetry_cell_setting 'orthorhombic'
loop_
_space_group_symop_operation_xyz
x,y,z
1/2-x,-y,1/2+z
1/2+x,1/2-y,1/2-z
-x,1/2+y,-z
-x,-y,-z
1/2+x,y,1/2-z
1/2-x,1/2+y,1/2+z
x,1/2-y,z
loop_
_atom_site_type_symbol
_atom_site_label
_atom_site_fract_x
_atom_site_fract_y
_atom_site_fract_z
Si Si1 0.192080 0.557244 0.454826
Si Si2 0.109249 0.940026 0.753760
Si Si3 0.685920 0.441463 0.422161
Si Si4 0.255891 0.439361 0.759449
Si Si5 0.565349 0.059623 0.546763
Si Si6 0.937427 0.057841 0.446230
O O1 0.189238 0.750000 0.452116
O O2 0.250290 0.514653 0.521640
O O3 0.211808 0.501956 0.353804
O O4 0.125018 0.502138 0.496571
O O5 0.107060 0.750000 0.755712
O O6 0.072480 0.993737 0.660374
O O7 0.184302 0.990163 0.747465
O O8 0.078666 0.002202 0.848999
O O9 0.683838 0.250000 0.413569
O O10 0.696529 0.516013 0.322896
O O11 0.624396 0.492404 0.481096
O O12 0.248016 0.250000 0.764884
O O13 0.565103 0.250000 0.548608
O O14 0.500000 0.000000 0.500000
O O15 0.937825 0.250000 0.445493
O O16 0.000000 0.000000 0.500000
#
# Coordination Sequence:
#
# PCOD9465257 Si02
#       6
#     8   8   8   8   8   8
#     4   9  18  37  59  82 116 155 193 241 299 348
#     4  11  22  39  63  89 121 162 203 248 309 368
#     4  10  20  39  61  84 119 159 197 246 303 356
#     4  11  21  35  61  94 121 154 205 255 301 359
#     4  11  24  42  64  90 125 163 203 253 308 370
#     4  10  22  40  61  85 119 159 198 245 300 358
#
# _framework density 18.870958999999999
#
# number of rings (size 3 to 8) (size 9 to 14) (size 15 to 20)
#    0.000    1.667    3.333    1.500    0.000    4.000 
#    0.000    5.000    0.000    0.000    0.000    0.000 
#    0.000    0.000    0.000    0.000    0.000    0.000 
#
# Total GULP energy -267998.478027 kJ/mol
# GULP energy per Si atom -5583.301626 kJ/mol
# Density = 1.882801 g / cm^3
# Si number density = 18.870959 Si / 1000 Ang^3
#
#
#
# Elastic Constant Matrix: (Units=GPa)
#
#
# Indices 1 2 3 4 5 6 
#
# 1 130.5059 18.1229 44.2658 0.0000 0.0000 0.0000
# 2 18.1229 28.0323 21.6527 0.0000 0.0000 0.0000
# 3 44.2658 21.6527 131.5687 0.0000 0.0000 0.0000
# 4 0.0000 0.0000 0.0000 29.8749 0.0000 0.0000
# 5 0.0000 0.0000 0.0000 0.0000 32.6815 0.0000
# 6 0.0000 0.0000 0.0000 0.0000 0.0000 20.6878
#
#
#
# Elastic Compliance Matrix: (Units=1/GPa)
#
#
# Indices 1 2 3 4 5 6 
#
# 1 0.009024 -0.003997 -0.002378 0.000000 0.000000 0.000000
# 2 -0.003997 0.042639 -0.005672 0.000000 0.000000 0.000000
# 3 -0.002378 -0.005672 0.009334 0.000000 0.000000 0.000000
# 4 0.000000 0.000000 0.000000 0.033473 0.000000 0.000000
# 5 0.000000 0.000000 0.000000 0.000000 0.030598 0.000000
# 6 0.000000 0.000000 0.000000 0.000000 0.000000 0.048338
#
#
# Mechanical properties :
#
#
# Convention : Reuss Voigt Hill
#
# Bulk Modulus (GPa) = 27.09908 50.90997 39.00452
# Shear Modulus (GPa) = 23.83193 30.38654 27.10923
#
# Velocity S-wave (km/s) = 3.55757 4.01712 3.79431
# Velocity P-wave (km/s) = 5.59164 6.96799 6.31741
#
# Compressibility (1/GPa) = 0.03690162
#
# Stress axis : x y z
#
# Youngs Moduli (GPa) = 110.81248 23.45284 107.13170
#
# Poissons Ratio (x) = 0.09374 0.25480
# Poissons Ratio (y) = 0.44293 0.60769
# Poissons Ratio (z) = 0.26355 0.13303
#
# Static dielectric constant tensor:
#      x y z
#    x 1.623590 0.000000 0.000000 
#    y 0.000000 1.654930 0.000000 
#    z 0.000000 0.000000 1.672090 
# 
# From -- ./inp_files/19646.got.cif
#   From: 2010.05.17/outbox.cif.g08.bks.cpg/sg62_10_cif.got.tgz:19646.got - 2010.06.03 15:25:27.
