data_PCOD9465517
_publ_section_title
;
Structure prediction by ZEFSAII (Michael W. Deem and Ramdas Pophale) SiO2 
 PCOD9465517
Probable space group: P N M A
;
_chemical_formula_sum "Si O2"
_cell_formula_units_Z 36
_cell_length_a 5.579991
_cell_length_b 13.871328
_cell_length_c 17.489405
_cell_angle_alpha 90.000000
_cell_angle_beta 90.000000
_cell_angle_gamma 90.000000
_cell_volume 1353.712921
_symmetry_space_group_name_H-M "P N M A"
_symmetry_group_IT_number 62
_symmetry_cell_setting 'orthorhombic'
loop_
_space_group_symop_operation_xyz
x,y,z
1/2-x,-y,1/2+z
1/2+x,1/2-y,1/2-z
-x,1/2+y,-z
-x,-y,-z
1/2+x,y,1/2-z
1/2-x,1/2+y,1/2+z
x,1/2-y,z
loop_
_atom_site_type_symbol
_atom_site_label
_atom_site_fract_x
_atom_site_fract_y
_atom_site_fract_z
Si Si1 0.780846 0.250000 0.297558
Si Si2 0.809943 0.952762 0.057190
Si Si3 0.690922 0.857092 0.363099
Si Si4 0.107565 0.546506 0.704484
Si Si5 0.419838 0.646343 0.969109
O O1 0.505793 0.250000 0.264322
O O2 0.826532 0.147559 0.340177
O O3 0.676117 0.871994 0.008235
O O4 0.646722 0.046810 0.073193
O O5 0.928506 0.904753 0.130841
O O6 0.000000 0.000000 0.000000
O O7 0.699774 0.750000 0.329449
O O8 0.763541 0.849893 0.452145
O O9 0.856422 0.939288 0.328134
O O10 0.340291 0.553968 0.761727
O O11 0.373671 0.750000 0.932368
#
# Coordination Sequence:
#
# PCOD9465517 Si02
#       5
#     4   8   8   8   8
#     4   8  16  36  60  78 104 152 190 240 296 340
#     4   9  18  34  55  78 111 148 193 233 288 353
#     4  10  21  35  56  84 116 155 191 237 298 354
#     4  10  22  39  61  86 119 155 202 247 295 352
#     4   9  18  34  57  81 112 151 190 240 294 352
#
# _framework density 26.593523999999999
#
# number of rings (size 3 to 8) (size 9 to 14) (size 15 to 20)
#    0.000    2.667    0.000    0.667    3.111    1.778 
#    2.000    0.000   12.222    0.000    0.000    0.000 
#    0.000    0.000    0.000    0.000    0.000    0.000 
#
# Total GULP energy -200881.506546 kJ/mol
# GULP energy per Si atom -5580.041849 kJ/mol
# Density = 2.653300 g / cm^3
# Si number density = 26.593524 Si / 1000 Ang^3
#
#
#
# Elastic Constant Matrix: (Units=GPa)
#
#
# Indices 1 2 3 4 5 6 
#
# 1 98.5673 -6.5058 -4.7343 0.0000 0.0000 0.0000
# 2 -6.5058 169.3710 23.6058 0.0000 0.0000 0.0000
# 3 -4.7343 23.6058 31.5296 0.0000 0.0000 0.0000
# 4 0.0000 0.0000 0.0000 50.1081 0.0000 0.0000
# 5 0.0000 0.0000 0.0000 0.0000 30.6186 0.0000
# 6 0.0000 0.0000 0.0000 0.0000 0.0000 -14.0666
#
#
#
# Elastic Compliance Matrix: (Units=1/GPa)
#
#
# Indices 1 2 3 4 5 6 
#
# 1 0.010225 0.000200 0.001386 0.000000 0.000000 0.000000
# 2 0.000200 0.006596 -0.004908 0.000000 0.000000 0.000000
# 3 0.001386 -0.004908 0.035599 0.000000 0.000000 0.000000
# 4 0.000000 0.000000 0.000000 0.019957 0.000000 0.000000
# 5 0.000000 0.000000 0.000000 0.000000 0.032660 0.000000
# 6 0.000000 0.000000 0.000000 0.000000 0.000000 -0.071091
#
#
# Mechanical properties :
#
#
# Convention : Reuss Voigt Hill
#
# Bulk Modulus (GPa) = 21.84619 36.02213 28.93416
# Shear Modulus (GPa) = 89.52506 32.47216 60.99861
#
# Velocity S-wave (km/s) = 5.80838 3.49815 4.79450
# Velocity P-wave (km/s) = 7.29491 5.46726 6.44619
#
# Compressibility (1/GPa) = 0.04577458
#
# Stress axis : x y z
#
# Youngs Moduli (GPa) = 97.79862 151.60809 28.09054
#
# Poissons Ratio (x) = -0.03026 -0.03893
# Poissons Ratio (y) = -0.01952 0.13788
# Poissons Ratio (z) = -0.13554 0.74414
#
# Static dielectric constant tensor:
#      x y z
#    x 2.235360 0.000000 0.000000 
#    y 0.000000 2.134450 0.000000 
#    z 0.000000 0.000000 2.240760 
# 
# From -- ./inp_files/25192.got.cif
#   From: 2010.05.17/outbox.cif.g08.bks.cpg/sg62_13_cif.got.tgz:25192.got - 2010.06.03 15:25:27.
