data_PCOD9465251
_publ_section_title
;
Structure prediction by ZEFSAII (Michael W. Deem and Ramdas Pophale) SiO2 
 PCOD9465251
Probable space group: P N M A
;
_chemical_formula_sum "Si O2"
_cell_formula_units_Z 48
_cell_length_a 27.128111
_cell_length_b 7.479507
_cell_length_c 9.680563
_cell_angle_alpha 90.000000
_cell_angle_beta 90.000000
_cell_angle_gamma 90.000000
_cell_volume 1964.233630
_symmetry_space_group_name_H-M "P N M A"
_symmetry_group_IT_number 62
_symmetry_cell_setting 'orthorhombic'
loop_
_space_group_symop_operation_xyz
x,y,z
1/2-x,-y,1/2+z
1/2+x,1/2-y,1/2-z
-x,1/2+y,-z
-x,-y,-z
1/2+x,y,1/2-z
1/2-x,1/2+y,1/2+z
x,1/2-y,z
loop_
_atom_site_type_symbol
_atom_site_label
_atom_site_fract_x
_atom_site_fract_y
_atom_site_fract_z
Si Si1 0.045470 0.455111 0.342525
Si Si2 0.058470 0.530495 0.738710
Si Si3 0.865505 0.451715 0.469670
Si Si4 0.280862 0.458254 0.837787
Si Si5 0.304949 0.465642 0.534213
Si Si6 0.080479 0.533983 0.039989
O O1 0.046664 0.250000 0.388741
O O2 0.088377 0.554348 0.424333
O O3 0.058819 0.458973 0.180346
O O4 0.989732 0.526697 0.345988
O O5 0.058643 0.750000 0.735443
O O6 0.108987 0.468983 0.666443
O O7 0.055226 0.475819 0.897665
O O8 0.849925 0.250000 0.431463
O O9 0.820513 0.537751 0.553436
O O10 0.295650 0.250000 0.823970
O O11 0.284040 0.530098 0.682529
O O12 0.227933 0.468906 0.907833
O O13 0.302070 0.250000 0.528702
O O14 0.362037 0.515123 0.528512
O O15 0.077508 0.750000 0.048906
#
# Coordination Sequence:
#
# PCOD9465251 Si02
#       6
#     8   8   8   8   8   8
#     4  11  21  35  56  87 118 146 187 235 280 325
#     4   9  20  35  58  87 112 146 193 233 272 331
#     4  10  20  39  61  81 112 153 190 227 276 339
#     4  10  22  39  60  86 112 145 189 231 278 337
#     4  10  22  39  60  86 112 145 189 231 278 337
#     4  10  20  39  61  81 112 153 190 227 276 339
#
# _framework density 24.437011999999999
#
# number of rings (size 3 to 8) (size 9 to 14) (size 15 to 20)
#    0.000    2.000    1.667    1.500    2.333    2.000 
#    0.000    2.500    0.000    0.000    0.000    0.000 
#    0.000    0.000    0.000    0.000    0.000    0.000 
#
# Total GULP energy -268470.863431 kJ/mol
# GULP energy per Si atom -5593.142988 kJ/mol
# Density = 2.438139 g / cm^3
# Si number density = 24.437012 Si / 1000 Ang^3
#
#
#
# Elastic Constant Matrix: (Units=GPa)
#
#
# Indices 1 2 3 4 5 6 
#
# 1 66.9215 0.2260 -6.3875 0.0000 0.0000 0.0000
# 2 0.2260 76.1219 -1.5202 0.0000 0.0000 0.0000
# 3 -6.3875 -1.5202 74.4303 0.0000 0.0000 0.0000
# 4 0.0000 0.0000 0.0000 6.8399 0.0000 0.0000
# 5 0.0000 0.0000 0.0000 0.0000 48.6367 0.0000
# 6 0.0000 0.0000 0.0000 0.0000 0.0000 6.2547
#
#
#
# Elastic Compliance Matrix: (Units=1/GPa)
#
#
# Indices 1 2 3 4 5 6 
#
# 1 0.015066 -0.000019 0.001293 0.000000 0.000000 0.000000
# 2 -0.000019 0.013142 0.000267 0.000000 0.000000 0.000000
# 3 0.001293 0.000267 0.013552 0.000000 0.000000 0.000000
# 4 0.000000 0.000000 0.000000 0.146201 0.000000 0.000000
# 5 0.000000 0.000000 0.000000 0.000000 0.020561 0.000000
# 6 0.000000 0.000000 0.000000 0.000000 0.000000 0.159879
#
#
# Mechanical properties :
#
#
# Convention : Reuss Voigt Hill
#
# Bulk Modulus (GPa) = 22.30090 22.45670 22.37880
# Shear Modulus (GPa) = 13.14866 27.35663 20.25264
#
# Velocity S-wave (km/s) = 2.32214 3.34949 2.88196
# Velocity P-wave (km/s) = 4.04171 4.91613 4.50021
#
# Compressibility (1/GPa) = 0.04484123
#
# Stress axis : x y z
#
# Youngs Moduli (GPa) = 66.37322 76.09074 73.79112
#
# Poissons Ratio (x) = 0.00144 -0.09538
# Poissons Ratio (y) = 0.00126 -0.01969
# Poissons Ratio (z) = -0.08579 -0.02030
#
# Static dielectric constant tensor:
#      x y z
#    x 1.894140 0.000000 0.000000 
#    y 0.000000 1.988460 0.000000 
#    z 0.000000 0.000000 1.930260 
# 
# From -- ./inp_files/10187.got.cif
#   From: 2010.05.17/outbox.cif.g08.bks.cpg/sg62_6_cif.got.tgz:10187.got - 2010.06.03 15:25:27.
