data_PCOD9465185
_publ_section_title
;
Structure prediction by ZEFSAII (Michael W. Deem and Ramdas Pophale) SiO2 
 PCOD9465185
Probable space group: P N M A
;
_chemical_formula_sum "Si O2"
_cell_formula_units_Z 48
_cell_length_a 14.921308
_cell_length_b 24.157057
_cell_length_c 5.531244
_cell_angle_alpha 90.000000
_cell_angle_beta 90.000000
_cell_angle_gamma 90.000000
_cell_volume 1993.763936
_symmetry_space_group_name_H-M "P N M A"
_symmetry_group_IT_number 62
_symmetry_cell_setting 'orthorhombic'
loop_
_space_group_symop_operation_xyz
x,y,z
1/2-x,-y,1/2+z
1/2+x,1/2-y,1/2-z
-x,1/2+y,-z
-x,-y,-z
1/2+x,y,1/2-z
1/2-x,1/2+y,1/2+z
x,1/2-y,z
loop_
_atom_site_type_symbol
_atom_site_label
_atom_site_fract_x
_atom_site_fract_y
_atom_site_fract_z
Si Si1 0.594983 0.689717 0.605407
Si Si2 0.754808 0.063178 0.413740
Si Si3 0.450990 0.641568 0.314444
Si Si4 0.443237 0.082860 0.057444
Si Si5 0.077348 0.035660 0.121963
Si Si6 0.733743 0.132416 0.913294
O O1 0.604528 0.750000 0.725162
O O2 0.504259 0.689819 0.445643
O O3 0.578186 0.637244 0.781126
O O4 0.686422 0.676570 0.457966
O O5 0.857728 0.044365 0.407901
O O6 0.678799 0.015795 0.405458
O O7 0.754616 0.098548 0.665248
O O8 0.735701 0.097252 0.163991
O O9 0.414339 0.596144 0.500290
O O10 0.368015 0.654822 0.137227
O O11 0.533980 0.607701 0.198980
O O12 0.533884 0.051262 0.124920
O O13 0.000000 0.000000 0.000000
#
# Coordination Sequence:
#
# PCOD9465185 Si02
#       6
#     8   8   8   8   8   8
#     4  10  22  38  60  90 120 154 207 260 308 373
#     4  10  20  39  63  88 121 164 205 247 310 367
#     4  10  20  39  64  81 124 164 204 253 317 370
#     4  10  20  40  61  85 122 168 200 255 318 371
#     4  10  22  40  60  95 124 163 212 262 307 373
#     4  10  20  38  64  86 120 165 199 248 310 371
#
# _framework density 24.07507
#
# number of rings (size 3 to 8) (size 9 to 14) (size 15 to 20)
#    0.000    2.000    3.333    0.000    0.000    2.000 
#    3.000    0.000    0.000    0.000    0.000    0.000 
#    0.000    0.000    0.000    0.000    0.000    0.000 
#
# Total GULP energy -267505.057929 kJ/mol
# GULP energy per Si atom -5573.022040 kJ/mol
# Density = 2.402027 g / cm^3
# Si number density = 24.075070 Si / 1000 Ang^3
#
#
#
# Elastic Constant Matrix: (Units=GPa)
#
#
# Indices 1 2 3 4 5 6 
#
# 1 178.2376 33.6055 19.1852 0.0000 0.0000 0.0000
# 2 33.6055 87.8384 30.3354 0.0000 0.0000 0.0000
# 3 19.1852 30.3354 94.3584 0.0000 0.0000 0.0000
# 4 0.0000 0.0000 0.0000 14.8476 0.0000 0.0000
# 5 0.0000 0.0000 0.0000 0.0000 33.5700 0.0000
# 6 0.0000 0.0000 0.0000 0.0000 0.0000 10.6135
#
#
#
# Elastic Compliance Matrix: (Units=1/GPa)
#
#
# Indices 1 2 3 4 5 6 
#
# 1 0.006072 -0.002133 -0.000549 0.000000 0.000000 0.000000
# 2 -0.002133 0.013556 -0.003924 0.000000 0.000000 0.000000
# 3 -0.000549 -0.003924 0.011971 0.000000 0.000000 0.000000
# 4 0.000000 0.000000 0.000000 0.067351 0.000000 0.000000
# 5 0.000000 0.000000 0.000000 0.000000 0.029789 0.000000
# 6 0.000000 0.000000 0.000000 0.000000 0.000000 0.094220
#
#
# Mechanical properties :
#
#
# Convention : Reuss Voigt Hill
#
# Bulk Modulus (GPa) = 54.38930 58.52072 56.45501
# Shear Modulus (GPa) = 20.63557 30.29343 25.46450
#
# Velocity S-wave (km/s) = 2.93086 3.55109 3.25578
# Velocity P-wave (km/s) = 5.83899 6.41670 6.13465
#
# Compressibility (1/GPa) = 0.01838597
#
# Stress axis : x y z
#
# Youngs Moduli (GPa) = 164.69586 73.76759 83.53453
#
# Poissons Ratio (x) = 0.15738 0.04583
# Poissons Ratio (y) = 0.35138 0.32782
# Poissons Ratio (z) = 0.09036 0.28949
#
# Static dielectric constant tensor:
#      x y z
#    x 2.104000 0.000000 0.000000 
#    y 0.000000 1.943660 0.000000 
#    z 0.000000 0.000000 1.989080 
# 
# From -- ./inp_files/1149.got.cif
#   From: 2010.05.17/outbox.cif.g08.bks.cpg/sg62_1_cif.got.tgz:1149.got - 2010.06.03 15:25:27.
