data_PCOD9465912
_publ_section_title
;
Structure prediction by ZEFSAII (Michael W. Deem and Ramdas Pophale) SiO2 
 PCOD9465912
Probable space group: P N M A
;
_chemical_formula_sum "Si O2"
_cell_formula_units_Z 64
_cell_length_a 14.879599
_cell_length_b 9.095615
_cell_length_c 22.727586
_cell_angle_alpha 90.000000
_cell_angle_beta 90.000000
_cell_angle_gamma 90.000000
_cell_volume 3075.931122
_symmetry_space_group_name_H-M "P N M A"
_symmetry_group_IT_number 62
_symmetry_cell_setting 'orthorhombic'
loop_
_space_group_symop_operation_xyz
x,y,z
1/2-x,-y,1/2+z
1/2+x,1/2-y,1/2-z
-x,1/2+y,-z
-x,-y,-z
1/2+x,y,1/2-z
1/2-x,1/2+y,1/2+z
x,1/2-y,z
loop_
_atom_site_type_symbol
_atom_site_label
_atom_site_fract_x
_atom_site_fract_y
_atom_site_fract_z
Si Si1 0.133327 0.081713 0.966223
Si Si2 0.074016 0.576590 0.201657
Si Si3 0.374187 0.926160 0.251469
Si Si4 0.304844 0.574621 0.013120
Si Si5 0.973423 0.582286 0.910279
Si Si6 0.801418 0.424628 0.686893
Si Si7 0.574026 0.426153 0.090966
Si Si8 0.128604 0.573418 0.626358
O O1 0.157034 0.250000 0.951350
O O2 0.061506 0.016599 0.920740
O O3 0.082614 0.080522 0.029283
O O4 0.220390 0.982503 0.975589
O O5 0.076931 0.750000 0.187246
O O6 0.975577 0.543008 0.228396
O O7 0.083782 0.483041 0.142953
O O8 0.146829 0.547410 0.251726
O O9 0.366149 0.750000 0.241767
O O10 0.301550 0.966553 0.301216
O O11 0.353664 0.008453 0.190697
O O12 0.300441 0.750000 0.020868
O O13 0.309216 0.494420 0.075653
O O14 0.392745 0.534972 0.974454
O O15 0.999426 0.750000 0.898060
O O16 0.806208 0.250000 0.675186
O O17 0.854693 0.506987 0.636302
O O18 0.577310 0.250000 0.095273
O O19 0.473636 0.471593 0.108605
O O20 0.135232 0.750000 0.626495
#
# Coordination Sequence:
#
# PCOD9465912 Si02
#       8
#     8   8   8   8   8   8   8   8
#     4  10  22  41  61  88 121 157 201 250 298 355
#     4  10  21  38  60  89 124 160 200 246 298 357
#     4  10  22  40  61  90 122 158 202 245 297 360
#     4  11  24  40  62  90 120 156 199 248 302 360
#     4  10  22  39  61  87 121 160 199 244 301 356
#     4  10  22  39  62  90 120 159 201 243 299 358
#     4  10  23  42  62  88 120 154 197 248 303 357
#     4  11  23  41  63  89 119 155 198 247 302 357
#
# _framework density 20.806708
#
# number of rings (size 3 to 8) (size 9 to 14) (size 15 to 20)
#    0.000    1.750    1.250    1.875    3.500    4.500 
#    0.000    0.000    0.000    0.000    0.000    0.000 
#    0.000    0.000    0.000    0.000    0.000    0.000 
#
# Total GULP energy -357898.960953 kJ/mol
# GULP energy per Si atom -5592.171265 kJ/mol
# Density = 2.075935 g / cm^3
# Si number density = 20.806708 Si / 1000 Ang^3
#
#
#
# Elastic Constant Matrix: (Units=GPa)
#
#
# Indices 1 2 3 4 5 6 
#
# 1 61.9212 4.1317 -12.5739 0.0000 0.0000 0.0000
# 2 4.1317 32.2277 21.7318 0.0000 0.0000 0.0000
# 3 -12.5739 21.7318 58.7898 0.0000 0.0000 0.0000
# 4 0.0000 0.0000 0.0000 31.0001 0.0000 0.0000
# 5 0.0000 0.0000 0.0000 0.0000 -10.7608 0.0000
# 6 0.0000 0.0000 0.0000 0.0000 0.0000 24.6863
#
#
#
# Elastic Compliance Matrix: (Units=1/GPa)
#
#
# Indices 1 2 3 4 5 6 
#
# 1 0.017842 -0.006475 0.006209 0.000000 0.000000 0.000000
# 2 -0.006475 0.043681 -0.017532 0.000000 0.000000 0.000000
# 3 0.006209 -0.017532 0.024818 0.000000 0.000000 0.000000
# 4 0.000000 0.000000 0.000000 0.032258 0.000000 0.000000
# 5 0.000000 0.000000 0.000000 0.000000 -0.092930 0.000000
# 6 0.000000 0.000000 0.000000 0.000000 0.000000 0.040508
#
#
# Mechanical properties :
#
#
# Convention : Reuss Voigt Hill
#
# Bulk Modulus (GPa) = 19.70499 19.94643 19.82571
# Shear Modulus (GPa) = 42.12732 18.29507 30.21120
#
# Velocity S-wave (km/s) = 4.50455 2.96849 3.81464
# Velocity P-wave (km/s) = 6.04530 4.62132 5.38063
#
# Compressibility (1/GPa) = 0.05074856
#
# Stress axis : x y z
#
# Youngs Moduli (GPa) = 56.04606 22.89319 40.29267
#
# Poissons Ratio (x) = 0.14822 -0.25020
# Poissons Ratio (y) = 0.36288 0.70639
# Poissons Ratio (z) = -0.34802 0.40135
#
# Static dielectric constant tensor:
#      x y z
#    x 1.752420 0.000000 0.000000 
#    y 0.000000 1.693850 0.000000 
#    z 0.000000 0.000000 1.718780 
# 
# From -- ./inp_files/29804.got.cif
#   From: 2010.05.17/outbox.cif.g08.bks.cpg/sg62_15_cif.got.tgz:29804.got - 2010.06.03 15:25:27.
