data_PCOD9465325
_publ_section_title
;
Structure prediction by ZEFSAII (Michael W. Deem and Ramdas Pophale) SiO2 
 PCOD9465325
Probable space group: P N M A
;
_chemical_formula_sum "Si O2"
_cell_formula_units_Z 56
_cell_length_a 7.618887
_cell_length_b 14.856050
_cell_length_c 22.680771
_cell_angle_alpha 90.000000
_cell_angle_beta 90.000000
_cell_angle_gamma 90.000000
_cell_volume 2567.158589
_symmetry_space_group_name_H-M "P N M A"
_symmetry_group_IT_number 62
_symmetry_cell_setting 'orthorhombic'
loop_
_space_group_symop_operation_xyz
x,y,z
1/2-x,-y,1/2+z
1/2+x,1/2-y,1/2-z
-x,1/2+y,-z
-x,-y,-z
1/2+x,y,1/2-z
1/2-x,1/2+y,1/2+z
x,1/2-y,z
loop_
_atom_site_type_symbol
_atom_site_label
_atom_site_fract_x
_atom_site_fract_y
_atom_site_fract_z
Si Si1 0.899560 0.925647 0.319395
Si Si2 0.190248 0.457628 0.262806
Si Si3 0.892981 0.576864 0.068259
Si Si4 0.077034 0.250000 0.848191
Si Si5 0.009475 0.997441 0.429255
Si Si6 0.161438 0.085218 0.066022
Si Si7 0.575919 0.750000 0.231728
Si Si8 0.016260 0.651140 0.820408
O O1 0.917475 0.918803 0.389849
O O2 0.970155 0.837532 0.288677
O O3 0.730750 0.964393 0.285581
O O4 0.037360 0.005589 0.303959
O O5 0.351003 0.428931 0.303705
O O6 0.138337 0.370106 0.225691
O O7 0.914584 0.659798 0.112857
O O8 0.717492 0.517304 0.081405
O O9 0.062454 0.512125 0.068553
O O10 0.862516 0.613951 0.001729
O O11 0.244585 0.250000 0.804752
O O12 0.914089 0.250000 0.802758
O O13 0.866810 0.076701 0.415957
O O14 0.000000 0.000000 0.500000
O O15 0.059638 0.142343 0.114310
O O16 0.091901 0.750000 0.812238
#
# Coordination Sequence:
#
# PCOD9465325 Si02
#       8
#     8   8   8   4   8   8   4   8
#     4  11  21  40  58  92 124 167 217 254 321 392
#     4  10  23  37  62  82 127 167 200 261 329 387
#     4  10  23  43  64  92 130 168 216 268 323 387
#     4  12  26  42  62  96 140 176 222 274 332 396
#     4  10  20  39  66  91 120 164 216 262 321 387
#     4  10  22  41  69  92 121 172 215 268 331 390
#     4  12  26  36  62  96 134 176 216 268 312 402
#     4  11  22  38  61  92 118 155 213 266 322 389
#
# _framework density 21.814
#
# number of rings (size 3 to 8) (size 9 to 14) (size 15 to 20)
#    0.000    1.429    2.857    2.143    5.000    1.143 
#    0.000    0.000    0.000    0.000    0.000    0.000 
#    0.000    0.000    0.000    0.000    0.000    0.000 
#
# Total GULP energy -312205.439008 kJ/mol
# GULP energy per Si atom -5575.097125 kJ/mol
# Density = 2.176435 g / cm^3
# Si number density = 21.814000 Si / 1000 Ang^3
#
#
#
# Elastic Constant Matrix: (Units=GPa)
#
#
# Indices 1 2 3 4 5 6 
#
# 1 75.9130 11.0559 32.5680 0.0000 0.0000 0.0000
# 2 11.0559 70.2629 44.8760 0.0000 0.0000 0.0000
# 3 32.5680 44.8760 146.3167 0.0000 0.0000 0.0000
# 4 0.0000 0.0000 0.0000 20.3167 0.0000 0.0000
# 5 0.0000 0.0000 0.0000 0.0000 38.7488 0.0000
# 6 0.0000 0.0000 0.0000 0.0000 0.0000 16.7427
#
#
#
# Elastic Compliance Matrix: (Units=1/GPa)
#
#
# Indices 1 2 3 4 5 6 
#
# 1 0.014568 -0.000275 -0.003158 0.000000 0.000000 0.000000
# 2 -0.000275 0.017705 -0.005369 0.000000 0.000000 0.000000
# 3 -0.003158 -0.005369 0.009184 0.000000 0.000000 0.000000
# 4 0.000000 0.000000 0.000000 0.049221 0.000000 0.000000
# 5 0.000000 0.000000 0.000000 0.000000 0.025807 0.000000
# 6 0.000000 0.000000 0.000000 0.000000 0.000000 0.059728
#
#
# Mechanical properties :
#
#
# Convention : Reuss Voigt Hill
#
# Bulk Modulus (GPa) = 41.92477 52.16582 47.04530
# Shear Modulus (GPa) = 24.78102 28.76115 26.77109
#
# Velocity S-wave (km/s) = 3.37414 3.63502 3.50700
# Velocity P-wave (km/s) = 5.86862 6.44854 6.16540
#
# Compressibility (1/GPa) = 0.02385225
#
# Stress axis : x y z
#
# Youngs Moduli (GPa) = 68.64364 56.48258 108.88367
#
# Poissons Ratio (x) = 0.01554 0.34388
# Poissons Ratio (y) = 0.01889 0.58458
# Poissons Ratio (z) = 0.21679 0.30325
#
# Static dielectric constant tensor:
#      x y z
#    x 1.914200 0.000000 0.000000 
#    y 0.000000 1.764010 0.000000 
#    z 0.000000 0.000000 1.869180 
# 
# From -- ./inp_files/26038.got.cif
#   From: 2010.05.17/outbox.cif.g08.bks.cpg/sg62_14_cif.got.tgz:26038.got - 2010.06.03 15:25:27.
