data_PCOD9465579
_publ_section_title
;
Structure prediction by ZEFSAII (Michael W. Deem and Ramdas Pophale) SiO2 
 PCOD9465579
Probable space group: P N M A
;
_chemical_formula_sum "Si O2"
_cell_formula_units_Z 64
_cell_length_a 9.929040
_cell_length_b 13.503958
_cell_length_c 27.653177
_cell_angle_alpha 90.000000
_cell_angle_beta 90.000000
_cell_angle_gamma 90.000000
_cell_volume 3707.775004
_symmetry_space_group_name_H-M "P N M A"
_symmetry_group_IT_number 62
_symmetry_cell_setting 'orthorhombic'
loop_
_space_group_symop_operation_xyz
x,y,z
1/2-x,-y,1/2+z
1/2+x,1/2-y,1/2-z
-x,1/2+y,-z
-x,-y,-z
1/2+x,y,1/2-z
1/2-x,1/2+y,1/2+z
x,1/2-y,z
loop_
_atom_site_type_symbol
_atom_site_label
_atom_site_fract_x
_atom_site_fract_y
_atom_site_fract_z
Si Si1 0.653031 0.133388 0.449967
Si Si2 0.156027 0.635082 0.940734
Si Si3 0.129718 0.543639 0.841346
Si Si4 0.289471 0.134266 0.879253
Si Si5 0.785693 0.507222 0.262188
Si Si6 0.664309 0.367599 0.337735
Si Si7 0.145693 0.975443 0.477899
Si Si8 0.552707 0.634288 0.221768
O O1 0.649204 0.250000 0.460911
O O2 0.496560 0.097858 0.452480
O O3 0.698215 0.122203 0.394319
O O4 0.758725 0.082377 0.484779
O O5 0.160827 0.750000 0.952232
O O6 0.176630 0.617939 0.883359
O O7 0.272037 0.575345 0.966947
O O8 0.162101 0.435007 0.864110
O O9 0.203407 0.545189 0.790122
O O10 0.977108 0.575206 0.831680
O O11 0.255306 0.250000 0.886635
O O12 0.354126 0.086848 0.927564
O O13 0.389030 0.128339 0.833001
O O14 0.764974 0.424485 0.302680
O O15 0.662716 0.584049 0.256710
O O16 0.917831 0.571593 0.272176
O O17 0.651008 0.250000 0.327448
O O18 0.000000 0.000000 0.500000
O O19 0.532099 0.750000 0.233212
#
# Coordination Sequence:
#
# PCOD9465579 Si02
#       8
#     8   8   8   8   8   8   8   8
#     4   9  19  37  59  77 103 147 192 235 280 331
#     4   9  19  37  59  80 107 145 191 234 278 330
#     4   9  18  36  57  82 108 147 188 234 278 335
#     4   9  20  37  57  82 115 151 189 234 285 339
#     4  11  20  36  58  83 114 148 190 229 279 342
#     4  10  21  36  56  82 115 149 189 239 284 333
#     4  11  22  34  57  85 116 151 181 232 288 344
#     4  10  21  37  58  82 112 150 188 232 281 333
#
# _framework density 17.261026000000001
#
# number of rings (size 3 to 8) (size 9 to 14) (size 15 to 20)
#    0.000    2.250    1.250    2.250    1.750    2.500 
#    0.000    0.000    0.000    0.000    0.000    0.000 
#    0.000    0.000    0.000    0.000    0.000    0.000 
#
# Total GULP energy -356609.564241 kJ/mol
# GULP energy per Si atom -5572.024441 kJ/mol
# Density = 1.722174 g / cm^3
# Si number density = 17.261026 Si / 1000 Ang^3
#
#
#
# Elastic Constant Matrix: (Units=GPa)
#
#
# Indices 1 2 3 4 5 6 
#
# 1 98.3932 55.4305 38.2585 0.0000 0.0000 0.0000
# 2 55.4305 80.1267 39.2537 0.0000 0.0000 0.0000
# 3 38.2585 39.2537 52.2601 0.0000 0.0000 0.0000
# 4 0.0000 0.0000 0.0000 20.4761 0.0000 0.0000
# 5 0.0000 0.0000 0.0000 0.0000 13.8623 0.0000
# 6 0.0000 0.0000 0.0000 0.0000 0.0000 22.2835
#
#
#
# Elastic Compliance Matrix: (Units=1/GPa)
#
#
# Indices 1 2 3 4 5 6 
#
# 1 0.017757 -0.009360 -0.005969 0.000000 0.000000 0.000000
# 2 -0.009360 0.024680 -0.011685 0.000000 0.000000 0.000000
# 3 -0.005969 -0.011685 0.032282 0.000000 0.000000 0.000000
# 4 0.000000 0.000000 0.000000 0.048837 0.000000 0.000000
# 5 0.000000 0.000000 0.000000 0.000000 0.072138 0.000000
# 6 0.000000 0.000000 0.000000 0.000000 0.000000 0.044876
#
#
# Mechanical properties :
#
#
# Convention : Reuss Voigt Hill
#
# Bulk Modulus (GPa) = 48.33216 55.18505 51.75860
# Shear Modulus (GPa) = 16.58388 17.84685 17.21537
#
# Velocity S-wave (km/s) = 3.10299 3.21898 3.16152
# Velocity P-wave (km/s) = 6.39528 6.77171 6.58619
#
# Compressibility (1/GPa) = 0.02069016
#
# Stress axis : x y z
#
# Youngs Moduli (GPa) = 56.31463 40.51871 30.97681
#
# Poissons Ratio (x) = 0.37925 0.18491
# Poissons Ratio (y) = 0.52710 0.36198
# Poissons Ratio (z) = 0.33616 0.47348
#
# Static dielectric constant tensor:
#      x y z
#    x 1.578460 0.000000 0.000000 
#    y 0.000000 1.580460 0.000000 
#    z 0.000000 0.000000 1.597650 
# 
# From -- ./inp_files/32267.got.cif
#   From: 2010.05.17/outbox.cif.g08.bks.cpg/sg62_17_cif.got.tgz:32267.got - 2010.06.03 15:25:27.
