data_PCOD9465805
_publ_section_title
;
Structure prediction by ZEFSAII (Michael W. Deem and Ramdas Pophale) SiO2 
 PCOD9465805
Probable space group: P N M A
;
_chemical_formula_sum "Si O2"
_cell_formula_units_Z 56
_cell_length_a 14.549051
_cell_length_b 15.025776
_cell_length_c 11.874240
_cell_angle_alpha 90.000000
_cell_angle_beta 90.000000
_cell_angle_gamma 90.000000
_cell_volume 2595.836884
_symmetry_space_group_name_H-M "P N M A"
_symmetry_group_IT_number 62
_symmetry_cell_setting 'orthorhombic'
loop_
_space_group_symop_operation_xyz
x,y,z
1/2-x,-y,1/2+z
1/2+x,1/2-y,1/2-z
-x,1/2+y,-z
-x,-y,-z
1/2+x,y,1/2-z
1/2-x,1/2+y,1/2+z
x,1/2-y,z
loop_
_atom_site_type_symbol
_atom_site_label
_atom_site_fract_x
_atom_site_fract_y
_atom_site_fract_z
Si Si1 0.546468 0.146718 0.423297
Si Si2 0.583777 0.909579 0.759967
Si Si3 0.203576 0.145993 0.258997
Si Si4 0.687506 0.503213 0.055778
Si Si5 0.461644 0.348133 0.006432
Si Si6 0.665897 0.150652 0.619960
Si Si7 0.870485 0.904442 0.359264
O O1 0.521288 0.250000 0.412231
O O2 0.464861 0.097150 0.360022
O O3 0.640547 0.133320 0.351581
O O4 0.571404 0.130456 0.553073
O O5 0.688099 0.873008 0.761320
O O6 0.583328 0.011023 0.798891
O O7 0.530488 0.856736 0.858530
O O8 0.193335 0.250000 0.294349
O O9 0.174244 0.070904 0.348648
O O10 0.601213 0.568746 0.032594
O O11 0.766793 0.570932 0.089048
O O12 0.705328 0.448406 0.940851
O O13 0.422412 0.250000 0.980877
O O14 0.557192 0.358129 0.941522
O O15 0.693821 0.250000 0.579661
O O16 0.660622 0.152886 0.754431
#
# Coordination Sequence:
#
# PCOD9465805 Si02
#       7
#     8   8   8   8   8   8   8
#     4  10  21  37  62  92 125 168 214 262 327 388
#     4  11  21  40  65  97 127 168 218 281 331 390
#     4  11  22  39  65  97 130 168 223 280 328 389
#     4  11  23  42  63  93 128 172 220 272 330 392
#     4  11  22  39  67  98 129 169 220 276 334 396
#     4  11  24  42  63  91 132 177 215 261 327 404
#     4  11  23  41  62  94 130 168 218 271 331 395
#
# _framework density 21.573004000000001
#
# number of rings (size 3 to 8) (size 9 to 14) (size 15 to 20)
#    0.000    1.143    1.429    7.286    0.000    4.000 
#    0.000    0.000    0.000    3.429    0.000    0.000 
#    0.000    0.000    0.000    0.000    0.000    0.000 
#
# Total GULP energy -312756.326152 kJ/mol
# GULP energy per Si atom -5584.934396 kJ/mol
# Density = 2.152390 g / cm^3
# Si number density = 21.573004 Si / 1000 Ang^3
#
#
#
# Elastic Constant Matrix: (Units=GPa)
#
#
# Indices 1 2 3 4 5 6 
#
# 1 43.3353 1.1254 2.5863 0.0000 0.0000 0.0000
# 2 1.1254 123.7676 29.2587 0.0000 0.0000 0.0000
# 3 2.5863 29.2587 93.4746 0.0000 0.0000 0.0000
# 4 0.0000 0.0000 0.0000 34.3913 0.0000 0.0000
# 5 0.0000 0.0000 0.0000 0.0000 29.7612 0.0000
# 6 0.0000 0.0000 0.0000 0.0000 0.0000 20.9968
#
#
#
# Elastic Compliance Matrix: (Units=1/GPa)
#
#
# Indices 1 2 3 4 5 6 
#
# 1 0.023115 -0.000064 -0.000620 0.000000 0.000000 0.000000
# 2 -0.000064 0.008725 -0.002729 0.000000 0.000000 0.000000
# 3 -0.000620 -0.002729 0.011570 0.000000 0.000000 0.000000
# 4 0.000000 0.000000 0.000000 0.029077 0.000000 0.000000
# 5 0.000000 0.000000 0.000000 0.000000 0.033601 0.000000
# 6 0.000000 0.000000 0.000000 0.000000 0.000000 0.047626
#
#
# Mechanical properties :
#
#
# Convention : Reuss Voigt Hill
#
# Bulk Modulus (GPa) = 27.33426 36.27981 31.80704
# Shear Modulus (GPa) = 28.94624 32.20366 30.57495
#
# Velocity S-wave (km/s) = 3.66701 3.86784 3.76876
# Velocity P-wave (km/s) = 5.53420 6.06635 5.80637
#
# Compressibility (1/GPa) = 0.03658412
#
# Stress axis : x y z
#
# Youngs Moduli (GPa) = 43.26286 114.60693 86.43356
#
# Poissons Ratio (x) = 0.00730 0.05355
# Poissons Ratio (y) = 0.00276 0.23591
# Poissons Ratio (z) = 0.02681 0.31281
#
# Static dielectric constant tensor:
#      x y z
#    x 1.813560 0.000000 0.000000 
#    y 0.000000 1.800670 0.000000 
#    z 0.000000 0.000000 1.819980 
# 
# From -- ./inp_files/13414.got.cif
#   From: 2010.05.17/outbox.cif.g08.bks.cpg/sg62_7_cif.got.tgz:13414.got - 2010.06.03 15:25:27.
