data_PCOD9465643
_publ_section_title
;
Structure prediction by ZEFSAII (Michael W. Deem and Ramdas Pophale) SiO2 
 PCOD9465643
Probable space group: P N M A
;
_chemical_formula_sum "Si O2"
_cell_formula_units_Z 64
_cell_length_a 13.044869
_cell_length_b 8.387074
_cell_length_c 28.855466
_cell_angle_alpha 90.000000
_cell_angle_beta 90.000000
_cell_angle_gamma 90.000000
_cell_volume 3157.026950
_symmetry_space_group_name_H-M "P N M A"
_symmetry_group_IT_number 62
_symmetry_cell_setting 'orthorhombic'
loop_
_space_group_symop_operation_xyz
x,y,z
1/2-x,-y,1/2+z
1/2+x,1/2-y,1/2-z
-x,1/2+y,-z
-x,-y,-z
1/2+x,y,1/2-z
1/2-x,1/2+y,1/2+z
x,1/2-y,z
loop_
_atom_site_type_symbol
_atom_site_label
_atom_site_fract_x
_atom_site_fract_y
_atom_site_fract_z
Si Si1 0.484259 0.059103 0.947049
Si Si2 0.250597 0.069064 0.932851
Si Si3 0.719368 0.061246 0.313275
Si Si4 0.872836 0.935711 0.719486
Si Si5 0.451491 0.432984 0.454209
Si Si6 0.942266 0.443591 0.347914
Si Si7 0.321782 0.567216 0.326624
Si Si8 0.035235 0.936971 0.139678
O O1 0.495231 0.250000 0.947164
O O2 0.366734 0.015924 0.935788
O O3 0.546383 0.996279 0.901823
O O4 0.500000 0.000000 0.000000
O O5 0.242545 0.250000 0.951562
O O6 0.216121 0.074566 0.879565
O O7 0.170460 0.955531 0.957517
O O8 0.730954 0.250000 0.304680
O O9 0.653513 0.991417 0.269924
O O10 0.833729 0.002064 0.325247
O O11 0.640345 0.030567 0.354570
O O12 0.899557 0.750000 0.725945
O O13 0.961759 0.999792 0.684864
O O14 0.760663 0.954588 0.696882
O O15 0.500000 0.500000 0.500000
O O16 0.477161 0.250000 0.445809
O O17 0.492565 0.536058 0.411590
O O18 0.943678 0.250000 0.348234
O O19 0.317245 0.750000 0.308390
O O20 0.439686 0.510846 0.327424
O O21 0.051744 0.750000 0.147659
#
# Coordination Sequence:
#
# PCOD9465643 Si02
#       8
#     8   8   8   8   8   8   8   8
#     4  11  23  40  63  90 122 164 210 259 314 375
#     4   9  19  37  57  82 117 153 197 253 307 360
#     4  10  23  40  60  89 126 167 206 253 314 370
#     4  10  21  36  61  90 119 157 204 252 302 365
#     4  11  22  37  61  89 118 156 200 249 306 368
#     4  10  22  41  61  90 129 164 208 264 312 369
#     4   9  18  35  58  83 113 148 191 247 303 354
#     4  10  22  40  59  85 121 156 198 251 304 364
#
# _framework density 20.272237000000001
#
# number of rings (size 3 to 8) (size 9 to 14) (size 15 to 20)
#    0.000    2.000    1.250    2.625    1.750    5.500 
#    0.000    1.250    0.000    0.000    0.000    0.000 
#    0.000    0.000    0.000    0.000    0.000    0.000 
#
# Total GULP energy -356556.348063 kJ/mol
# GULP energy per Si atom -5571.192938 kJ/mol
# Density = 2.022610 g / cm^3
# Si number density = 20.272237 Si / 1000 Ang^3
#
#
#
# Elastic Constant Matrix: (Units=GPa)
#
#
# Indices 1 2 3 4 5 6 
#
# 1 117.3871 12.5517 47.0953 0.0000 0.0000 0.0000
# 2 12.5517 15.0545 5.7380 0.0000 0.0000 0.0000
# 3 47.0953 5.7380 84.3650 0.0000 0.0000 0.0000
# 4 0.0000 0.0000 0.0000 18.4228 0.0000 0.0000
# 5 0.0000 0.0000 0.0000 0.0000 23.1255 0.0000
# 6 0.0000 0.0000 0.0000 0.0000 0.0000 25.2208
#
#
#
# Elastic Compliance Matrix: (Units=1/GPa)
#
#
# Indices 1 2 3 4 5 6 
#
# 1 0.011746 -0.007488 -0.006048 0.000000 0.000000 0.000000
# 2 -0.007488 0.072967 -0.000783 0.000000 0.000000 0.000000
# 3 -0.006048 -0.000783 0.015282 0.000000 0.000000 0.000000
# 4 0.000000 0.000000 0.000000 0.054280 0.000000 0.000000
# 5 0.000000 0.000000 0.000000 0.000000 0.043242 0.000000
# 6 0.000000 0.000000 0.000000 0.000000 0.000000 0.039650
#
#
# Mechanical properties :
#
#
# Convention : Reuss Voigt Hill
#
# Bulk Modulus (GPa) = 14.01378 38.61963 26.31670
# Shear Modulus (GPa) = 17.26577 23.44859 20.35718
#
# Velocity S-wave (km/s) = 2.92155 3.40470 3.17233
# Velocity P-wave (km/s) = 4.27883 5.87774 5.14083
#
# Compressibility (1/GPa) = 0.07135833
#
# Stress axis : x y z
#
# Youngs Moduli (GPa) = 85.13715 13.70488 65.43456
#
# Poissons Ratio (x) = 0.10262 0.39572
# Poissons Ratio (y) = 0.63751 0.05121
# Poissons Ratio (z) = 0.51487 0.01073
#
# Static dielectric constant tensor:
#      x y z
#    x 1.757750 0.000000 0.000000 
#    y 0.000000 1.720050 0.000000 
#    z 0.000000 0.000000 1.774380 
# 
# From -- ./inp_files/32554.got.cif
#   From: 2010.05.17/outbox.cif.g08.bks.cpg/sg62_17_cif.got.tgz:32554.got - 2010.06.03 15:25:27.
