data_PCOD9465488
_publ_section_title
;
Structure prediction by ZEFSAII (Michael W. Deem and Ramdas Pophale) SiO2 
 PCOD9465488
Probable space group: P N M A
;
_chemical_formula_sum "Si O2"
_cell_formula_units_Z 40
_cell_length_a 24.588384
_cell_length_b 7.395524
_cell_length_c 8.029013
_cell_angle_alpha 90.000000
_cell_angle_beta 90.000000
_cell_angle_gamma 90.000000
_cell_volume 1460.027711
_symmetry_space_group_name_H-M "P N M A"
_symmetry_group_IT_number 62
_symmetry_cell_setting 'orthorhombic'
loop_
_space_group_symop_operation_xyz
x,y,z
1/2-x,-y,1/2+z
1/2+x,1/2-y,1/2-z
-x,1/2+y,-z
-x,-y,-z
1/2+x,y,1/2-z
1/2-x,1/2+y,1/2+z
x,1/2-y,z
loop_
_atom_site_type_symbol
_atom_site_label
_atom_site_fract_x
_atom_site_fract_y
_atom_site_fract_z
Si Si1 0.061593 0.041285 0.619673
Si Si2 0.268756 0.466884 0.632567
Si Si3 0.129070 0.530312 0.952351
Si Si4 0.534081 0.534839 0.330651
Si Si5 0.165168 0.464866 0.467903
O O1 0.051362 0.250000 0.582265
O O2 0.103910 0.959467 0.485985
O O3 0.003773 0.961671 0.681068
O O4 0.099389 0.035327 0.786771
O O5 0.265398 0.250000 0.620782
O O6 0.309552 0.529469 0.485723
O O7 0.207953 0.537614 0.605611
O O8 0.301161 0.508367 0.799850
O O9 0.127299 0.750000 0.948476
O O10 0.093124 0.468297 0.112638
O O11 0.500000 0.500000 0.500000
O O12 0.537238 0.750000 0.308891
O O13 0.158595 0.250000 0.490536
#
# Coordination Sequence:
#
# PCOD9465488 Si02
#       5
#     8   8   8   8   8
#     4   9  17  30  49  72  96 123 156 192 230 273
#     4  10  21  35  50  70  95 123 156 193 234 279
#     4   9  17  30  49  72  96 123 156 192 230 273
#     4   8  14  26  45  68  94 122 152 188 227 268
#     4  10  21  35  50  70  95 123 156 193 234 279
#
# _framework density 27.396739
#
# number of rings (size 3 to 8) (size 9 to 14) (size 15 to 20)
#    0.000    2.800    0.000    1.200    0.000    2.400 
#    0.000    1.000    0.000    0.000    0.000    0.000 
#    0.000    0.000    0.000    0.000    0.000    0.000 
#
# Total GULP energy -223674.488225 kJ/mol
# GULP energy per Si atom -5591.862206 kJ/mol
# Density = 2.733438 g / cm^3
# Si number density = 27.396739 Si / 1000 Ang^3
#
#
#
# Elastic Constant Matrix: (Units=GPa)
#
#
# Indices 1 2 3 4 5 6 
#
# 1 180.8865 27.2229 12.6287 0.0000 0.0000 0.0000
# 2 27.2229 122.7438 7.0875 0.0000 0.0000 0.0000
# 3 12.6287 7.0875 105.7298 0.0000 0.0000 0.0000
# 4 0.0000 0.0000 0.0000 26.0038 0.0000 0.0000
# 5 0.0000 0.0000 0.0000 0.0000 53.5234 0.0000
# 6 0.0000 0.0000 0.0000 0.0000 0.0000 10.5194
#
#
#
# Elastic Compliance Matrix: (Units=1/GPa)
#
#
# Indices 1 2 3 4 5 6 
#
# 1 0.005757 -0.001242 -0.000604 0.000000 0.000000 0.000000
# 2 -0.001242 0.008447 -0.000418 0.000000 0.000000 0.000000
# 3 -0.000604 -0.000418 0.009558 0.000000 0.000000 0.000000
# 4 0.000000 0.000000 0.000000 0.038456 0.000000 0.000000
# 5 0.000000 0.000000 0.000000 0.000000 0.018683 0.000000
# 6 0.000000 0.000000 0.000000 0.000000 0.000000 0.095062
#
#
# Mechanical properties :
#
#
# Convention : Reuss Voigt Hill
#
# Bulk Modulus (GPa) = 51.99196 55.91535 53.95366
# Shear Modulus (GPa) = 26.75171 42.17072 34.46122
#
# Velocity S-wave (km/s) = 3.12822 3.92760 3.55048
# Velocity P-wave (km/s) = 5.66271 6.40483 6.04517
#
# Compressibility (1/GPa) = 0.01923374
#
# Stress axis : x y z
#
# Youngs Moduli (GPa) = 173.68814 118.39020 104.62134
#
# Poissons Ratio (x) = 0.14704 0.06324
# Poissons Ratio (y) = 0.21572 0.04372
# Poissons Ratio (z) = 0.10498 0.04947
#
# Static dielectric constant tensor:
#      x y z
#    x 2.208200 0.000000 0.000000 
#    y 0.000000 1.999870 0.000000 
#    z 0.000000 0.000000 2.261490 
# 
# From -- ./inp_files/9090.got.cif
#   From: 2010.05.17/outbox.cif.g08.bks.cpg/sg62_5_cif.got.tgz:9090.got - 2010.06.03 15:25:27.
