data_PCOD9465642
_publ_section_title
;
Structure prediction by ZEFSAII (Michael W. Deem and Ramdas Pophale) SiO2 
 PCOD9465642
Probable space group: P N M A
;
_chemical_formula_sum "Si O2"
_cell_formula_units_Z 40
_cell_length_a 12.563573
_cell_length_b 7.613944
_cell_length_c 19.469002
_cell_angle_alpha 90.000000
_cell_angle_beta 90.000000
_cell_angle_gamma 90.000000
_cell_volume 1862.372437
_symmetry_space_group_name_H-M "P N M A"
_symmetry_group_IT_number 62
_symmetry_cell_setting 'orthorhombic'
loop_
_space_group_symop_operation_xyz
x,y,z
1/2-x,-y,1/2+z
1/2+x,1/2-y,1/2-z
-x,1/2+y,-z
-x,-y,-z
1/2+x,y,1/2-z
1/2-x,1/2+y,1/2+z
x,1/2-y,z
loop_
_atom_site_type_symbol
_atom_site_label
_atom_site_fract_x
_atom_site_fract_y
_atom_site_fract_z
Si Si1 0.106494 0.535059 0.679790
Si Si2 0.824204 0.533971 0.893673
Si Si3 0.541444 0.546383 0.671922
Si Si4 0.192122 0.452288 0.950274
Si Si5 0.934673 0.959287 0.569021
O O1 0.110267 0.750000 0.678880
O O2 0.216342 0.478101 0.644347
O O3 0.089781 0.472904 0.757649
O O4 0.006739 0.481443 0.632822
O O5 0.823783 0.750000 0.895344
O O6 0.929218 0.472133 0.854020
O O7 0.825715 0.475540 0.973020
O O8 0.518726 0.750000 0.687580
O O9 0.624655 0.539592 0.609746
O O10 0.157676 0.250000 0.950866
O O11 0.317549 0.461596 0.934930
O O12 0.921417 0.750000 0.574204
O O13 0.000000 0.000000 0.500000
#
# Coordination Sequence:
#
# PCOD9465642 Si02
#       5
#     8   8   8   8   8
#     4   9  19  35  58  86 114 146 188 243 293 339
#     4   9  18  35  57  83 115 149 187 235 286 341
#     4  10  21  36  61  87 110 148 199 241 283 345
#     4  11  22  38  58  83 122 156 188 238 296 349
#     4  11  21  37  61  88 116 152 199 244 291 346
#
# _framework density 21.477981
#
# number of rings (size 3 to 8) (size 9 to 14) (size 15 to 20)
#    0.000    2.000    2.000    1.800    2.800    0.000 
#    0.000    3.000    0.000    0.000    0.000    0.000 
#    0.000    0.000    0.000    0.000    0.000    0.000 
#
# Total GULP energy -223523.315874 kJ/mol
# GULP energy per Si atom -5588.082897 kJ/mol
# Density = 2.142910 g / cm^3
# Si number density = 21.477981 Si / 1000 Ang^3
#
#
#
# Elastic Constant Matrix: (Units=GPa)
#
#
# Indices 1 2 3 4 5 6 
#
# 1 64.6660 -14.2808 56.1328 0.0000 0.0000 0.0000
# 2 -14.2808 43.4502 -2.2186 0.0000 0.0000 0.0000
# 3 56.1328 -2.2186 192.1211 0.0000 0.0000 0.0000
# 4 0.0000 0.0000 0.0000 15.6538 0.0000 0.0000
# 5 0.0000 0.0000 0.0000 0.0000 30.1436 0.0000
# 6 0.0000 0.0000 0.0000 0.0000 0.0000 14.7693
#
#
#
# Elastic Compliance Matrix: (Units=1/GPa)
#
#
# Indices 1 2 3 4 5 6 
#
# 1 0.022735 0.007137 -0.006560 0.000000 0.000000 0.000000
# 2 0.007137 0.025269 -0.001794 0.000000 0.000000 0.000000
# 3 -0.006560 -0.001794 0.007101 0.000000 0.000000 0.000000
# 4 0.000000 0.000000 0.000000 0.063882 0.000000 0.000000
# 5 0.000000 0.000000 0.000000 0.000000 0.033175 0.000000
# 6 0.000000 0.000000 0.000000 0.000000 0.000000 0.067708
#
#
# Mechanical properties :
#
#
# Convention : Reuss Voigt Hill
#
# Bulk Modulus (GPa) = 18.98538 42.16713 30.57626
# Shear Modulus (GPa) = 20.84553 29.48693 25.16623
#
# Velocity S-wave (km/s) = 3.11875 3.70927 3.42676
# Velocity P-wave (km/s) = 4.67199 6.16606 5.47027
#
# Compressibility (1/GPa) = 0.05267210
#
# Stress axis : x y z
#
# Youngs Moduli (GPa) = 43.98569 39.57405 140.82483
#
# Poissons Ratio (x) = -0.28245 0.92382
# Poissons Ratio (y) = -0.31394 0.25257
# Poissons Ratio (z) = 0.28855 0.07098
#
# Static dielectric constant tensor:
#      x y z
#    x 1.710220 0.000000 0.000000 
#    y 0.000000 1.830630 0.000000 
#    z 0.000000 0.000000 1.752150 
# 
# From -- ./inp_files/22776.got.cif
#   From: 2010.05.17/outbox.cif.g08.bks.cpg/sg62_12_cif.got.tgz:22776.got - 2010.06.03 15:25:27.
