data_PCOD9465693
_publ_section_title
;
Structure prediction by ZEFSAII (Michael W. Deem and Ramdas Pophale) SiO2 
 PCOD9465693
Probable space group: P N M A
;
_chemical_formula_sum "Si O2"
_cell_formula_units_Z 64
_cell_length_a 26.355809
_cell_length_b 9.080826
_cell_length_c 14.891012
_cell_angle_alpha 90.000000
_cell_angle_beta 90.000000
_cell_angle_gamma 90.000000
_cell_volume 3563.903362
_symmetry_space_group_name_H-M "P N M A"
_symmetry_group_IT_number 62
_symmetry_cell_setting 'orthorhombic'
loop_
_space_group_symop_operation_xyz
x,y,z
1/2-x,-y,1/2+z
1/2+x,1/2-y,1/2-z
-x,1/2+y,-z
-x,-y,-z
1/2+x,y,1/2-z
1/2-x,1/2+y,1/2+z
x,1/2-y,z
loop_
_atom_site_type_symbol
_atom_site_label
_atom_site_fract_x
_atom_site_fract_y
_atom_site_fract_z
Si Si1 0.670438 0.926267 0.020335
Si Si2 0.446880 0.423283 0.480243
Si Si3 0.998844 0.427106 0.401963
Si Si4 0.388119 0.425944 0.164918
Si Si5 0.869754 0.574395 0.150926
Si Si6 0.862895 0.422936 0.864705
Si Si7 0.711766 0.426127 0.498937
Si Si8 0.107354 0.073569 0.321171
O O1 0.666570 0.750000 0.036808
O O2 0.642859 0.011809 0.099927
O O3 0.642192 0.957114 0.926547
O O4 0.729635 0.964963 0.012167
O O5 0.500000 0.500000 0.500000
O O6 0.453666 0.250000 0.462172
O O7 0.417792 0.499959 0.397969
O O8 0.409872 0.439529 0.566109
O O9 0.998292 0.250000 0.413432
O O10 0.049370 0.466987 0.347062
O O11 0.000000 0.500000 0.500000
O O12 0.946854 0.468048 0.351701
O O13 0.385898 0.250000 0.180959
O O14 0.365648 0.509856 0.249864
O O15 0.875919 0.750000 0.153004
O O16 0.821347 0.540046 0.087810
O O17 0.854868 0.250000 0.848500
O O18 0.814835 0.492045 0.916145
O O19 0.875879 0.504343 0.772799
O O20 0.708495 0.250000 0.483818
O O21 0.110506 0.250000 0.316867
#
# Coordination Sequence:
#
# PCOD9465693 Si02
#       8
#     8   8   8   8   8   8   8   8
#     4  10  21  39  62  85 114 153 195 240 290 340
#     4  10  21  37  57  83 113 148 191 235 284 340
#     4  10  21  37  57  82 113 151 189 236 289 338
#     4  10  21  37  57  84 115 150 191 235 287 342
#     4  10  21  37  57  83 115 150 189 235 285 339
#     4  10  22  39  59  84 114 151 192 235 286 342
#     4   9  20  40  62  85 115 150 190 240 292 336
#     4  11  23  37  57  87 119 153 193 235 286 342
#
# _framework density 17.957837999999999
#
# number of rings (size 3 to 8) (size 9 to 14) (size 15 to 20)
#    0.000    2.000    1.250    1.500    1.750    5.000 
#    0.000    2.500    0.000    0.000    0.000    0.000 
#    0.000    0.000    0.000    0.000    0.000    0.000 
#
# Total GULP energy -357479.048368 kJ/mol
# GULP energy per Si atom -5585.610131 kJ/mol
# Density = 1.791696 g / cm^3
# Si number density = 17.957838 Si / 1000 Ang^3
#
#
#
# Elastic Constant Matrix: (Units=GPa)
#
#
# Indices 1 2 3 4 5 6 
#
# 1 126.7048 50.7124 41.1073 0.0000 0.0000 0.0000
# 2 50.7124 61.0868 61.0586 0.0000 0.0000 0.0000
# 3 41.1073 61.0586 117.8807 0.0000 0.0000 0.0000
# 4 0.0000 0.0000 0.0000 39.6484 0.0000 0.0000
# 5 0.0000 0.0000 0.0000 0.0000 3.3530 0.0000
# 6 0.0000 0.0000 0.0000 0.0000 0.0000 25.5294
#
#
#
# Elastic Compliance Matrix: (Units=1/GPa)
#
#
# Indices 1 2 3 4 5 6 
#
# 1 0.012050 -0.012033 0.002031 0.000000 0.000000 0.000000
# 2 -0.012033 0.045961 -0.019610 0.000000 0.000000 0.000000
# 3 0.002031 -0.019610 0.017932 0.000000 0.000000 0.000000
# 4 0.000000 0.000000 0.000000 0.025222 0.000000 0.000000
# 5 0.000000 0.000000 0.000000 0.000000 0.298239 0.000000
# 6 0.000000 0.000000 0.000000 0.000000 0.000000 0.039171
#
#
# Mechanical properties :
#
#
# Convention : Reuss Voigt Hill
#
# Bulk Modulus (GPa) = 59.81570 67.93654 63.87612
# Shear Modulus (GPa) = 9.93303 23.89243 16.91273
#
# Velocity S-wave (km/s) = 2.35442 3.65152 3.07221
# Velocity P-wave (km/s) = 6.38532 7.46267 6.94492
#
# Compressibility (1/GPa) = 0.01671802
#
# Stress axis : x y z
#
# Youngs Moduli (GPa) = 82.99000 21.75770 55.76518
#
# Poissons Ratio (x) = 0.26181 -0.11325
# Poissons Ratio (y) = 0.99863 1.09356
# Poissons Ratio (z) = -0.16854 0.42667
#
# Static dielectric constant tensor:
#      x y z
#    x 1.600300 0.000000 0.000000 
#    y 0.000000 1.599880 0.000000 
#    z 0.000000 0.000000 1.580150 
# 
# From -- ./inp_files/20935.got.cif
#   From: 2010.05.17/outbox.cif.g08.bks.cpg/sg62_11_cif.got.tgz:20935.got - 2010.06.03 15:25:27.
