data_PCOD9465015
_publ_section_title
;
Structure prediction by ZEFSAII (Michael W. Deem and Ramdas Pophale) SiO2 
 PCOD9465015
Probable space group: P N M A
;
_chemical_formula_sum "Si O2"
_cell_formula_units_Z 64
_cell_length_a 15.619972
_cell_length_b 8.929808
_cell_length_c 24.020746
_cell_angle_alpha 90.000000
_cell_angle_beta 90.000000
_cell_angle_gamma 90.000000
_cell_volume 3350.494144
_symmetry_space_group_name_H-M "P N M A"
_symmetry_group_IT_number 62
_symmetry_cell_setting 'orthorhombic'
loop_
_space_group_symop_operation_xyz
x,y,z
1/2-x,-y,1/2+z
1/2+x,1/2-y,1/2-z
-x,1/2+y,-z
-x,-y,-z
1/2+x,y,1/2-z
1/2-x,1/2+y,1/2+z
x,1/2-y,z
loop_
_atom_site_type_symbol
_atom_site_label
_atom_site_fract_x
_atom_site_fract_y
_atom_site_fract_z
Si Si1 0.750000 0.570797 0.933256
Si Si2 0.351689 0.072506 0.747881
Si Si3 0.648311 0.427494 0.752119
Si Si4 0.402386 0.428961 0.875062
Si Si5 0.080712 0.428069 0.138092
Si Si6 0.419288 0.428069 0.138091
Si Si7 0.750000 0.071533 0.054366
Si Si8 0.902386 0.571039 0.124939
O O1 0.750001 0.750000 0.943869
O O2 0.834472 0.535594 0.897384
O O3 0.665528 0.535596 0.897384
O O4 0.750000 0.484117 0.991024
O O5 0.367302 0.250000 0.739141
O O6 0.250000 0.045393 0.742436
O O7 0.379301 0.036071 0.810662
O O8 0.401508 0.981785 0.701000
O O9 0.632698 0.250000 0.760859
O O10 0.598492 0.518215 0.799000
O O11 0.620699 0.463929 0.689338
O O12 0.397596 0.250000 0.881809
O O13 0.497558 0.488751 0.885131
O O14 0.332992 0.505993 0.914366
O O15 0.067499 0.250000 0.136724
O O16 0.997558 0.511248 0.114869
O O17 0.432502 0.250000 0.136724
O O18 0.750001 0.250000 0.057406
O O19 0.832991 0.005991 0.085635
O O20 0.897597 0.750000 0.118192
#
# Coordination Sequence:
#
# PCOD9465015 Si02
#       8
#     8   8   8   8   8   8   8   8
#     4  10  24  45  64  85 123 166 206 254 311 368
#     4  10  20  37  62  91 125 166 206 244 302 375
#     4  10  20  37  62  91 125 166 206 244 302 375
#     4  11  23  42  65  92 127 168 204 247 308 373
#     4  11  23  40  63  95 127 162 206 257 309 359
#     4  11  23  40  63  95 127 162 206 257 309 359
#     4  12  26  43  66  93 119 156 210 264 309 360
#     4  11  23  42  65  92 127 168 204 247 308 373
#
# _framework density 19.101659999999999
#
# number of rings (size 3 to 8) (size 9 to 14) (size 15 to 20)
#    0.000    1.250    2.500    3.375    0.000    8.000 
#    0.000    0.000    0.000    0.000    0.000    0.000 
#    0.000    0.000    0.000    0.000    0.000    0.000 
#
# Total GULP energy -358032.940269 kJ/mol
# GULP energy per Si atom -5594.264692 kJ/mol
# Density = 1.905818 g / cm^3
# Si number density = 19.101660 Si / 1000 Ang^3
#
#
#
# Elastic Constant Matrix: (Units=GPa)
#
#
# Indices 1 2 3 4 5 6 
#
# 1 108.5960 48.9767 36.4514 0.0000 0.0000 0.0000
# 2 48.9767 61.2148 55.0679 0.0000 0.0000 0.0000
# 3 36.4514 55.0679 94.2003 0.0000 0.0000 0.0000
# 4 0.0000 0.0000 0.0000 32.6147 0.0000 0.0000
# 5 0.0000 0.0000 0.0000 0.0000 -2.9221 0.0000
# 6 0.0000 0.0000 0.0000 0.0000 0.0000 36.1337
#
#
#
# Elastic Compliance Matrix: (Units=1/GPa)
#
#
# Indices 1 2 3 4 5 6 
#
# 1 0.014681 -0.013996 0.002501 0.000000 0.000000 0.000000
# 2 -0.013996 0.047797 -0.022526 0.000000 0.000000 0.000000
# 3 0.002501 -0.022526 0.022816 0.000000 0.000000 0.000000
# 4 0.000000 0.000000 0.000000 0.030661 0.000000 0.000000
# 5 0.000000 0.000000 0.000000 0.000000 -0.342224 0.000000
# 6 0.000000 0.000000 0.000000 0.000000 0.000000 0.027675
#
#
# Mechanical properties :
#
#
# Convention : Reuss Voigt Hill
#
# Bulk Modulus (GPa) = 57.96041 60.55589 59.25815
# Shear Modulus (GPa) = -40.06393 21.39961 -9.33216
#
# Velocity S-wave (km/s) = -4.58471 3.35072 -2.21272
# Velocity P-wave (km/s) = 1.54366 6.83670 4.95598
#
# Compressibility (1/GPa) = 0.01725315
#
# Stress axis : x y z
#
# Youngs Moduli (GPa) = 68.11505 20.92164 43.82826
#
# Poissons Ratio (x) = 0.29281 -0.10960
# Poissons Ratio (y) = 0.95331 0.98727
# Poissons Ratio (z) = -0.17033 0.47128
#
# Static dielectric constant tensor:
#      x y z
#    x 1.656550 0.000000 0.000000 
#    y 0.000000 1.634920 0.000000 
#    z 0.000000 0.000000 1.628500 
# 
# From -- ./inp_files/29875.got.cif
#   From: 2010.05.17/outbox.cif.g08.bks.cpg/sg62_15_cif.got.tgz:29875.got - 2010.06.03 15:25:27.
