data_PCOD9465519
_publ_section_title
;
Structure prediction by ZEFSAII (Michael W. Deem and Ramdas Pophale) SiO2 
 PCOD9465519
Probable space group: P N M A
;
_chemical_formula_sum "Si O2"
_cell_formula_units_Z 48
_cell_length_a 12.302682
_cell_length_b 8.783028
_cell_length_c 24.441252
_cell_angle_alpha 90.000000
_cell_angle_beta 90.000000
_cell_angle_gamma 90.000000
_cell_volume 2640.994608
_symmetry_space_group_name_H-M "P N M A"
_symmetry_group_IT_number 62
_symmetry_cell_setting 'orthorhombic'
loop_
_space_group_symop_operation_xyz
x,y,z
1/2-x,-y,1/2+z
1/2+x,1/2-y,1/2-z
-x,1/2+y,-z
-x,-y,-z
1/2+x,y,1/2-z
1/2-x,1/2+y,1/2+z
x,1/2-y,z
loop_
_atom_site_type_symbol
_atom_site_label
_atom_site_fract_x
_atom_site_fract_y
_atom_site_fract_z
Si Si1 0.779940 0.567577 0.959959
Si Si2 0.355039 0.066375 0.145577
Si Si3 0.340253 0.431376 0.713311
Si Si4 0.280429 0.433465 0.420393
Si Si5 0.520538 0.433879 0.383462
Si Si6 0.103589 0.065857 0.330949
O O1 0.777867 0.750000 0.966058
O O2 0.689761 0.524917 0.914640
O O3 0.895649 0.526040 0.932254
O O4 0.764339 0.493299 0.018518
O O5 0.344940 0.250000 0.150480
O O6 0.479622 0.023905 0.154959
O O7 0.273790 0.991908 0.189139
O O8 0.341087 0.250000 0.713512
O O9 0.431903 0.493388 0.671532
O O10 0.361448 0.495762 0.773415
O O11 0.280627 0.250000 0.421980
O O12 0.398764 0.481700 0.398040
O O13 0.185951 0.482062 0.378868
O O14 0.523644 0.250000 0.377319
O O15 0.108372 0.250000 0.326687
#
# Coordination Sequence:
#
# PCOD9465519 Si02
#       6
#     8   8   8   8   8   8
#     4   9  18  34  56  81 112 150 188 232 279 325
#     4   9  20  40  61  79 108 152 193 225 274 342
#     4  11  23  37  57  85 114 142 184 240 292 332
#     4  10  21  35  56  86 114 146 190 232 274 332
#     4   9  19  37  58  82 113 152 192 226 276 340
#     4  10  22  39  58  81 111 152 194 229 273 338
#
# _framework density 18.174970999999999
#
# number of rings (size 3 to 8) (size 9 to 14) (size 15 to 20)
#    0.000    2.333    0.000    3.000    2.333    5.333 
#    0.000    0.000    0.000    0.000    0.000    0.000 
#    0.000    0.000    0.000    0.000    0.000    0.000 
#
# Total GULP energy -268008.934943 kJ/mol
# GULP energy per Si atom -5583.519478 kJ/mol
# Density = 1.813360 g / cm^3
# Si number density = 18.174971 Si / 1000 Ang^3
#
#
#
# Elastic Constant Matrix: (Units=GPa)
#
#
# Indices 1 2 3 4 5 6 
#
# 1 173.3982 49.6237 146.3664 0.0000 0.0000 0.0000
# 2 49.6237 22.4544 47.8017 0.0000 0.0000 0.0000
# 3 146.3664 47.8017 155.7616 0.0000 0.0000 0.0000
# 4 0.0000 0.0000 0.0000 35.9061 0.0000 0.0000
# 5 0.0000 0.0000 0.0000 0.0000 10.1799 0.0000
# 6 0.0000 0.0000 0.0000 0.0000 0.0000 8.2106
#
#
#
# Elastic Compliance Matrix: (Units=1/GPa)
#
#
# Indices 1 2 3 4 5 6 
#
# 1 0.030288 -0.018308 -0.022843 0.000000 0.000000 0.000000
# 2 -0.018308 0.139527 -0.025616 0.000000 0.000000 0.000000
# 3 -0.022843 -0.025616 0.035746 0.000000 0.000000 0.000000
# 4 0.000000 0.000000 0.000000 0.027850 0.000000 0.000000
# 5 0.000000 0.000000 0.000000 0.000000 0.098233 0.000000
# 6 0.000000 0.000000 0.000000 0.000000 0.000000 0.121793
#
#
# Mechanical properties :
#
#
# Convention : Reuss Voigt Hill
#
# Bulk Modulus (GPa) = 13.88343 93.24420 53.56381
# Shear Modulus (GPa) = 8.18357 18.04749 13.11553
#
# Velocity S-wave (km/s) = 2.12425 3.15459 2.68922
# Velocity P-wave (km/s) = 3.69756 8.04261 6.25921
#
# Compressibility (1/GPa) = 0.07202833
#
# Stress axis : x y z
#
# Youngs Moduli (GPa) = 33.01619 7.16708 27.97488
#
# Poissons Ratio (x) = 0.13121 0.63902
# Poissons Ratio (y) = 0.60445 0.71660
# Poissons Ratio (z) = 0.75418 0.18359
#
# Static dielectric constant tensor:
#      x y z
#    x 1.619690 0.000000 0.000000 
#    y 0.000000 1.612610 0.000000 
#    z 0.000000 0.000000 1.585480 
# 
# From -- ./inp_files/29247.got.cif
#   From: 2010.05.17/outbox.cif.g08.bks.cpg/sg62_15_cif.got.tgz:29247.got - 2010.06.03 15:25:27.
