data_PCOD9465700
_publ_section_title
;
Structure prediction by ZEFSAII (Michael W. Deem and Ramdas Pophale) SiO2 
 PCOD9465700
Probable space group: P N M A
;
_chemical_formula_sum "Si O2"
_cell_formula_units_Z 56
_cell_length_a 12.196077
_cell_length_b 16.986352
_cell_length_c 14.366335
_cell_angle_alpha 90.000000
_cell_angle_beta 90.000000
_cell_angle_gamma 90.000000
_cell_volume 2976.228468
_symmetry_space_group_name_H-M "P N M A"
_symmetry_group_IT_number 62
_symmetry_cell_setting 'orthorhombic'
loop_
_space_group_symop_operation_xyz
x,y,z
1/2-x,-y,1/2+z
1/2+x,1/2-y,1/2-z
-x,1/2+y,-z
-x,-y,-z
1/2+x,y,1/2-z
1/2-x,1/2+y,1/2+z
x,1/2-y,z
loop_
_atom_site_type_symbol
_atom_site_label
_atom_site_fract_x
_atom_site_fract_y
_atom_site_fract_z
Si Si1 0.351560 0.750000 0.196415
Si Si2 0.535046 0.937916 0.627897
Si Si3 0.414089 0.250000 0.687837
Si Si4 0.681027 0.342829 0.320654
Si Si5 0.839354 0.586620 0.414627
Si Si6 0.118337 0.157933 0.389157
Si Si7 0.095879 0.589361 0.075822
Si Si8 0.898684 0.072485 0.336697
O O1 0.216819 0.750000 0.228131
O O2 0.468511 0.750000 0.254995
O O3 0.360234 0.831195 0.138252
O O4 0.428777 0.883314 0.642631
O O5 0.594823 0.906761 0.536034
O O6 0.597626 0.937935 0.725248
O O7 0.494438 0.026316 0.606422
O O8 0.420292 0.327103 0.623716
O O9 0.681186 0.250000 0.340398
O O10 0.681879 0.352206 0.208168
O O11 0.785521 0.385993 0.362839
O O12 0.846292 0.605914 0.523591
O O13 0.715252 0.560988 0.391988
O O14 0.912649 0.513243 0.382995
O O15 0.124276 0.250000 0.414497
O O16 0.995495 0.130827 0.365399
#
# Coordination Sequence:
#
# PCOD9465700 Si02
#       8
#     4   8   4   8   8   8   8   8
#     4  10  22  40  64  87 126 160 210 253 302 372
#     4  10  21  38  58  85 115 152 195 249 296 357
#     4  10  22  40  64  95 120 168 206 255 312 362
#     4  10  21  37  57  83 118 150 192 241 296 354
#     4  11  20  38  61  85 118 157 198 250 301 365
#     4  10  21  37  57  85 116 153 197 238 295 367
#     4  10  21  38  61  85 118 153 203 251 299 361
#     4  11  21  36  59  85 117 152 194 242 305 354
#
# _framework density 18.815759
#
# number of rings (size 3 to 8) (size 9 to 14) (size 15 to 20)
#    0.000    1.714    2.143    2.571    1.000    0.571 
#    0.000    1.429    0.000    0.000    0.000    0.000 
#    0.000    0.000    0.000    0.000    0.000    0.000 
#
# Total GULP energy -311999.137569 kJ/mol
# GULP energy per Si atom -5571.413171 kJ/mol
# Density = 1.877293 g / cm^3
# Si number density = 18.815759 Si / 1000 Ang^3
#
#
#
# Elastic Constant Matrix: (Units=GPa)
#
#
# Indices 1 2 3 4 5 6 
#
# 1 47.3085 22.3951 6.9652 0.0000 0.0000 0.0000
# 2 22.3951 80.8226 11.6781 0.0000 0.0000 0.0000
# 3 6.9652 11.6781 35.2259 0.0000 0.0000 0.0000
# 4 0.0000 0.0000 0.0000 27.5769 0.0000 0.0000
# 5 0.0000 0.0000 0.0000 0.0000 16.5211 0.0000
# 6 0.0000 0.0000 0.0000 0.0000 0.0000 11.8521
#
#
#
# Elastic Compliance Matrix: (Units=1/GPa)
#
#
# Indices 1 2 3 4 5 6 
#
# 1 0.024577 -0.006415 -0.002733 0.000000 0.000000 0.000000
# 2 -0.006415 0.014670 -0.003595 0.000000 0.000000 0.000000
# 3 -0.002733 -0.003595 0.030120 0.000000 0.000000 0.000000
# 4 0.000000 0.000000 0.000000 0.036262 0.000000 0.000000
# 5 0.000000 0.000000 0.000000 0.000000 0.060528 0.000000
# 6 0.000000 0.000000 0.000000 0.000000 0.000000 0.084373
#
#
# Mechanical properties :
#
#
# Convention : Reuss Voigt Hill
#
# Bulk Modulus (GPa) = 22.78868 27.27041 25.02955
# Shear Modulus (GPa) = 17.20319 19.34461 18.27390
#
# Velocity S-wave (km/s) = 3.02701 3.20989 3.11979
# Velocity P-wave (km/s) = 4.93507 5.31627 5.12921
#
# Compressibility (1/GPa) = 0.04388143
#
# Stress axis : x y z
#
# Youngs Moduli (GPa) = 40.68845 68.16743 33.20014
#
# Poissons Ratio (x) = 0.43730 0.09073
# Poissons Ratio (y) = 0.26102 0.11935
# Poissons Ratio (z) = 0.11119 0.24505
#
# Static dielectric constant tensor:
#      x y z
#    x 1.676690 0.000000 0.000000 
#    y 0.000000 1.616710 0.000000 
#    z 0.000000 0.000000 1.642870 
# 
# From -- ./inp_files/18126.got.cif
#   From: 2010.05.17/outbox.cif.g08.bks.cpg/sg62_10_cif.got.tgz:18126.got - 2010.06.03 15:25:27.
