data_PCOD9465303
_publ_section_title
;
Structure prediction by ZEFSAII (Michael W. Deem and Ramdas Pophale) SiO2 
 PCOD9465303
Probable space group: P N M A
;
_chemical_formula_sum "Si O2"
_cell_formula_units_Z 56
_cell_length_a 16.411503
_cell_length_b 8.683791
_cell_length_c 19.809111
_cell_angle_alpha 90.000000
_cell_angle_beta 90.000000
_cell_angle_gamma 90.000000
_cell_volume 2823.076874
_symmetry_space_group_name_H-M "P N M A"
_symmetry_group_IT_number 62
_symmetry_cell_setting 'orthorhombic'
loop_
_space_group_symop_operation_xyz
x,y,z
1/2-x,-y,1/2+z
1/2+x,1/2-y,1/2-z
-x,1/2+y,-z
-x,-y,-z
1/2+x,y,1/2-z
1/2-x,1/2+y,1/2+z
x,1/2-y,z
loop_
_atom_site_type_symbol
_atom_site_label
_atom_site_fract_x
_atom_site_fract_y
_atom_site_fract_z
Si Si1 0.516480 0.569154 0.337964
Si Si2 0.220671 0.435865 0.610425
Si Si3 0.323442 0.064637 0.741712
Si Si4 0.409718 0.066337 0.013321
Si Si5 0.616350 0.923349 0.592075
Si Si6 0.120117 0.070649 0.045519
Si Si7 0.809585 0.925850 0.610191
O O1 0.501232 0.750000 0.330629
O O2 0.245860 0.520973 0.185767
O O3 0.586846 0.521667 0.286047
O O4 0.432298 0.477210 0.341777
O O5 0.221910 0.250000 0.606043
O O6 0.135616 0.496516 0.579815
O O7 0.290046 0.506615 0.561863
O O8 0.320162 0.250000 0.745769
O O9 0.439419 0.029159 0.591635
O O10 0.317531 0.993621 0.815144
O O11 0.412979 0.250000 0.019903
O O12 0.355262 0.020247 0.948076
O O13 0.500000 0.000000 0.000000
O O14 0.589822 0.750000 0.573619
O O15 0.599862 0.041296 0.531840
O O16 0.712836 0.923050 0.599131
O O17 0.115390 0.250000 0.063061
O O18 0.840090 0.750000 0.606891
#
# Coordination Sequence:
#
# PCOD9465303 Si02
#       7
#     8   8   8   8   8   8   8
#     4  10  21  37  57  84 119 158 200 249 302 366
#     4  10  20  39  64  92 125 162 206 256 312 375
#     4   9  21  41  64  89 123 166 208 257 317 380
#     4  12  25  43  69  97 127 166 216 268 322 379
#     4  11  22  36  56  85 121 157 197 248 302 365
#     4  11  20  32  56  87 119 157 194 240 296 358
#     4  11  24  42  65  91 126 166 209 263 318 375
#
# _framework density 19.836514000000001
#
# number of rings (size 3 to 8) (size 9 to 14) (size 15 to 20)
#    0.000    1.429    1.429    5.571    0.000    5.143 
#    2.571    0.000    0.000    0.000    0.000    0.000 
#    0.000    0.000    0.000    0.000    0.000    0.000 
#
# Total GULP energy -312585.586051 kJ/mol
# GULP energy per Si atom -5581.885465 kJ/mol
# Density = 1.979136 g / cm^3
# Si number density = 19.836514 Si / 1000 Ang^3
#
#
#
# Elastic Constant Matrix: (Units=GPa)
#
#
# Indices 1 2 3 4 5 6 
#
# 1 86.4150 19.3495 6.7706 0.0000 0.0000 0.0000
# 2 19.3495 45.4823 14.4373 0.0000 0.0000 0.0000
# 3 6.7706 14.4373 72.2597 0.0000 0.0000 0.0000
# 4 0.0000 0.0000 0.0000 28.2149 0.0000 0.0000
# 5 0.0000 0.0000 0.0000 0.0000 1.7850 0.0000
# 6 0.0000 0.0000 0.0000 0.0000 0.0000 24.8867
#
#
#
# Elastic Compliance Matrix: (Units=1/GPa)
#
#
# Indices 1 2 3 4 5 6 
#
# 1 0.012791 -0.005404 -0.000119 0.000000 0.000000 0.000000
# 2 -0.005404 0.025759 -0.004640 0.000000 0.000000 0.000000
# 3 -0.000119 -0.004640 0.014777 0.000000 0.000000 0.000000
# 4 0.000000 0.000000 0.000000 0.035442 0.000000 0.000000
# 5 0.000000 0.000000 0.000000 0.000000 0.560225 0.000000
# 6 0.000000 0.000000 0.000000 0.000000 0.000000 0.040182
#
#
# Mechanical properties :
#
#
# Convention : Reuss Voigt Hill
#
# Bulk Modulus (GPa) = 30.30207 31.69686 30.99947
# Shear Modulus (GPa) = 6.93959 21.88396 14.41178
#
# Velocity S-wave (km/s) = 1.87243 3.32507 2.69834
# Velocity P-wave (km/s) = 4.47032 5.54574 5.03681
#
# Compressibility (1/GPa) = 0.03300105
#
# Stress axis : x y z
#
# Youngs Moduli (GPa) = 78.17737 38.82201 67.67182
#
# Poissons Ratio (x) = 0.20980 0.00804
# Poissons Ratio (y) = 0.42248 0.31401
# Poissons Ratio (z) = 0.00929 0.18014
#
# Static dielectric constant tensor:
#      x y z
#    x 1.759060 0.000000 0.000000 
#    y 0.000000 1.685380 0.000000 
#    z 0.000000 0.000000 1.679260 
# 
# From -- ./inp_files/27175.got.cif
#   From: 2010.05.17/outbox.cif.g08.bks.cpg/sg62_14_cif.got.tgz:27175.got - 2010.06.03 15:25:27.
