data_PCOD9465687
_publ_section_title
;
Structure prediction by ZEFSAII (Michael W. Deem and Ramdas Pophale) SiO2 
 PCOD9465687
Probable space group: P N M A
;
_chemical_formula_sum "Si O2"
_cell_formula_units_Z 48
_cell_length_a 24.390416
_cell_length_b 8.274453
_cell_length_c 9.545744
_cell_angle_alpha 90.000000
_cell_angle_beta 90.000000
_cell_angle_gamma 90.000000
_cell_volume 1926.496766
_symmetry_space_group_name_H-M "P N M A"
_symmetry_group_IT_number 62
_symmetry_cell_setting 'orthorhombic'
loop_
_space_group_symop_operation_xyz
x,y,z
1/2-x,-y,1/2+z
1/2+x,1/2-y,1/2-z
-x,1/2+y,-z
-x,-y,-z
1/2+x,y,1/2-z
1/2-x,1/2+y,1/2+z
x,1/2-y,z
loop_
_atom_site_type_symbol
_atom_site_label
_atom_site_fract_x
_atom_site_fract_y
_atom_site_fract_z
Si Si1 0.651457 0.434343 0.704152
Si Si2 0.024854 0.059061 0.284975
Si Si3 0.251125 0.562234 0.964278
Si Si4 0.417221 0.433878 0.530965
Si Si5 0.913207 0.442960 0.452375
Si Si6 0.316993 0.940783 0.707025
O O1 0.670350 0.250000 0.694016
O O2 0.697479 0.546775 0.635754
O O3 0.598950 0.458304 0.601856
O O4 0.634880 0.478300 0.861431
O O5 0.027261 0.250000 0.265307
O O6 0.968225 0.018433 0.361924
O O7 0.033584 0.979603 0.134266
O O8 0.072466 0.009123 0.394504
O O9 0.259602 0.750000 0.999684
O O10 0.299494 0.505201 0.861770
O O11 0.234602 0.464672 0.101868
O O12 0.422092 0.250000 0.482605
O O13 0.364901 0.458342 0.634468
O O14 0.906725 0.250000 0.457409
O O15 0.331226 0.750000 0.709297
#
# Coordination Sequence:
#
# PCOD9465687 Si02
#       6
#     8   8   8   8   8   8
#     4  11  22  37  58  82 112 147 184 228 275 326
#     4  10  21  38  59  83 112 145 183 227 274 326
#     4  10  21  37  57  81 110 143 182 227 273 325
#     4  11  22  37  58  82 112 147 184 228 275 326
#     4  10  21  38  59  83 112 145 183 227 274 326
#     4  10  21  37  57  81 110 143 182 227 273 325
#
# _framework density 24.915693999999998
#
# number of rings (size 3 to 8) (size 9 to 14) (size 15 to 20)
#    0.000    1.667    0.000    7.000    0.000    6.667 
#    0.000    3.333    0.000    0.000    0.000    0.000 
#    0.000    0.000    0.000    0.000    0.000    0.000 
#
# Total GULP energy -268860.003449 kJ/mol
# GULP energy per Si atom -5601.250072 kJ/mol
# Density = 2.485898 g / cm^3
# Si number density = 24.915694 Si / 1000 Ang^3
#
#
#
# Elastic Constant Matrix: (Units=GPa)
#
#
# Indices 1 2 3 4 5 6 
#
# 1 48.0561 5.7069 12.3055 0.0000 0.0000 0.0000
# 2 5.7069 27.2650 23.5105 0.0000 0.0000 0.0000
# 3 12.3055 23.5105 132.9415 0.0000 0.0000 0.0000
# 4 0.0000 0.0000 0.0000 28.3159 0.0000 0.0000
# 5 0.0000 0.0000 0.0000 0.0000 56.3501 0.0000
# 6 0.0000 0.0000 0.0000 0.0000 0.0000 20.0351
#
#
#
# Elastic Compliance Matrix: (Units=1/GPa)
#
#
# Indices 1 2 3 4 5 6 
#
# 1 0.021562 -0.003295 -0.001413 0.000000 0.000000 0.000000
# 2 -0.003295 0.043780 -0.007437 0.000000 0.000000 0.000000
# 3 -0.001413 -0.007437 0.008968 0.000000 0.000000 0.000000
# 4 0.000000 0.000000 0.000000 0.035316 0.000000 0.000000
# 5 0.000000 0.000000 0.000000 0.000000 0.017746 0.000000
# 6 0.000000 0.000000 0.000000 0.000000 0.000000 0.049912
#
#
# Mechanical properties :
#
#
# Convention : Reuss Voigt Hill
#
# Bulk Modulus (GPa) = 19.99211 32.36761 26.17986
# Shear Modulus (GPa) = 22.90964 32.05619 27.48291
#
# Velocity S-wave (km/s) = 3.03559 3.59079 3.32480
# Velocity P-wave (km/s) = 4.50863 5.49643 5.02685
#
# Compressibility (1/GPa) = 0.05001973
#
# Stress axis : x y z
#
# Youngs Moduli (GPa) = 46.37759 22.84147 111.50482
#
# Poissons Ratio (x) = 0.07525 0.15758
# Poissons Ratio (y) = 0.15280 0.82931
# Poissons Ratio (z) = 0.06554 0.16988
#
# Static dielectric constant tensor:
#      x y z
#    x 2.108230 0.000000 0.000000 
#    y 0.000000 1.795930 0.000000 
#    z 0.000000 0.000000 1.958270 
# 
# From -- ./inp_files/15399.got.cif
#   From: 2010.05.17/outbox.cif.g08.bks.cpg/sg62_8_cif.got.tgz:15399.got - 2010.06.03 15:25:27.
