data_PCOD9465068
_publ_section_title
;
Structure prediction by ZEFSAII (Michael W. Deem and Ramdas Pophale) SiO2 
 PCOD9465068
Probable space group: P N M A
;
_chemical_formula_sum "Si O2"
_cell_formula_units_Z 56
_cell_length_a 15.186598
_cell_length_b 15.655432
_cell_length_c 12.375443
_cell_angle_alpha 90.000000
_cell_angle_beta 90.000000
_cell_angle_gamma 90.000000
_cell_volume 2942.295634
_symmetry_space_group_name_H-M "P N M A"
_symmetry_group_IT_number 62
_symmetry_cell_setting 'orthorhombic'
loop_
_space_group_symop_operation_xyz
x,y,z
1/2-x,-y,1/2+z
1/2+x,1/2-y,1/2-z
-x,1/2+y,-z
-x,-y,-z
1/2+x,y,1/2-z
1/2-x,1/2+y,1/2+z
x,1/2-y,z
loop_
_atom_site_type_symbol
_atom_site_label
_atom_site_fract_x
_atom_site_fract_y
_atom_site_fract_z
Si Si1 0.669616 0.581456 0.905892
Si Si2 0.006952 0.653057 0.696261
Si Si3 0.243363 0.436927 0.742760
Si Si4 0.833744 0.647129 0.043376
Si Si5 0.981131 0.146136 0.054573
Si Si6 0.359770 0.535808 0.900832
Si Si7 0.787731 0.351654 0.979890
O O1 0.603217 0.649524 0.856912
O O2 0.689173 0.512902 0.812901
O O3 0.760486 0.616745 0.956295
O O4 0.622931 0.530982 0.003569
O O5 0.973416 0.750000 0.696782
O O6 0.941248 0.593783 0.630275
O O7 0.012790 0.622417 0.819831
O O8 0.192846 0.391165 0.840740
O O9 0.327075 0.481977 0.798056
O O10 0.267179 0.373845 0.644753
O O11 0.831970 0.750000 0.047923
O O12 0.931033 0.617907 0.007508
O O13 0.981107 0.250000 0.050554
O O14 0.887367 0.119529 0.006181
O O15 0.279805 0.595216 0.945379
O O16 0.779454 0.250000 0.999062
#
# Coordination Sequence:
#
# PCOD9465068 Si02
#       7
#     8   8   8   8   8   8   8
#     4  10  21  36  54  80 113 146 185 234 282 330
#     4  11  21  36  57  81 109 150 191 229 277 333
#     4  10  21  36  57  82 112 148 182 228 289 332
#     4  10  20  38  59  83 113 149 189 230 273 332
#     4   9  20  34  55  83 108 136 182 231 271 319
#     4  10  21  36  54  80 113 146 185 234 282 330
#     4  10  20  38  59  83 113 149 189 230 273 332
#
# _framework density 19.032758000000001
#
# number of rings (size 3 to 8) (size 9 to 14) (size 15 to 20)
#    0.000    2.000    0.000    3.429    0.000    1.143 
#    0.000   15.000    0.000    6.857    0.000    0.000 
#    0.000    0.000    0.000    0.000    0.000    0.000 
#
# Total GULP energy -312689.633485 kJ/mol
# GULP energy per Si atom -5583.743455 kJ/mol
# Density = 1.898944 g / cm^3
# Si number density = 19.032758 Si / 1000 Ang^3
#
#
#
# Elastic Constant Matrix: (Units=GPa)
#
#
# Indices 1 2 3 4 5 6 
#
# 1 100.7870 5.9335 38.0285 0.0000 0.0000 0.0000
# 2 5.9335 48.6696 8.7971 0.0000 0.0000 0.0000
# 3 38.0285 8.7971 71.2078 0.0000 0.0000 0.0000
# 4 0.0000 0.0000 0.0000 3.5111 0.0000 0.0000
# 5 0.0000 0.0000 0.0000 0.0000 14.1033 0.0000
# 6 0.0000 0.0000 0.0000 0.0000 0.0000 20.2774
#
#
#
# Elastic Compliance Matrix: (Units=1/GPa)
#
#
# Indices 1 2 3 4 5 6 
#
# 1 0.012431 -0.000323 -0.006599 0.000000 0.000000 0.000000
# 2 -0.000323 0.021024 -0.002425 0.000000 0.000000 0.000000
# 3 -0.006599 -0.002425 0.017867 0.000000 0.000000 0.000000
# 4 0.000000 0.000000 0.000000 0.284811 0.000000 0.000000
# 5 0.000000 0.000000 0.000000 0.000000 0.070905 0.000000
# 6 0.000000 0.000000 0.000000 0.000000 0.000000 0.049316
#
#
# Mechanical properties :
#
#
# Convention : Reuss Voigt Hill
#
# Bulk Modulus (GPa) = 30.64744 36.24250 33.44497
# Shear Modulus (GPa) = 10.28968 18.77204 14.53086
#
# Velocity S-wave (km/s) = 2.32767 3.14395 2.76609
# Velocity P-wave (km/s) = 4.83337 5.68003 5.27372
#
# Compressibility (1/GPa) = 0.03262915
#
# Stress axis : x y z
#
# Youngs Moduli (GPa) = 80.44585 47.56380 55.96895
#
# Poissons Ratio (x) = 0.01535 0.36932
# Poissons Ratio (y) = 0.02596 0.13572
# Poissons Ratio (z) = 0.53084 0.11534
#
# Static dielectric constant tensor:
#      x y z
#    x 1.649350 0.000000 0.000000 
#    y 0.000000 1.667370 0.000000 
#    z 0.000000 0.000000 1.651090 
# 
# From -- ./inp_files/13376.got.cif
#   From: 2010.05.17/outbox.cif.g08.bks.cpg/sg62_7_cif.got.tgz:13376.got - 2010.06.03 15:25:27.
