data_PCOD9465458
_publ_section_title
;
Structure prediction by ZEFSAII (Michael W. Deem and Ramdas Pophale) SiO2 
 PCOD9465458
Probable space group: P N M A
;
_chemical_formula_sum "Si O2"
_cell_formula_units_Z 40
_cell_length_a 5.135774
_cell_length_b 28.848467
_cell_length_c 16.132615
_cell_angle_alpha 90.000000
_cell_angle_beta 90.000000
_cell_angle_gamma 90.000000
_cell_volume 2390.195441
_symmetry_space_group_name_H-M "P N M A"
_symmetry_group_IT_number 62
_symmetry_cell_setting 'orthorhombic'
loop_
_space_group_symop_operation_xyz
x,y,z
1/2-x,-y,1/2+z
1/2+x,1/2-y,1/2-z
-x,1/2+y,-z
-x,-y,-z
1/2+x,y,1/2-z
1/2-x,1/2+y,1/2+z
x,1/2-y,z
loop_
_atom_site_type_symbol
_atom_site_label
_atom_site_fract_x
_atom_site_fract_y
_atom_site_fract_z
Si Si1 0.646341 0.304911 0.196151
Si Si2 0.702595 0.028259 0.058236
Si Si3 0.496788 0.601610 0.462657
Si Si4 0.987042 0.873356 0.549176
Si Si5 0.348009 0.547152 0.308386
O O1 0.929633 0.315059 0.233770
O O2 0.630489 0.250000 0.177796
O O3 0.581720 0.335015 0.116000
O O4 0.934638 0.051595 0.004649
O O5 0.554160 0.075084 0.087722
O O6 0.805969 0.997764 0.133444
O O7 0.500000 0.000000 0.000000
O O8 0.277223 0.627868 0.514452
O O9 0.385402 0.589535 0.372874
O O10 0.774178 0.626809 0.474339
O O11 0.600595 0.547900 0.251133
#
# Coordination Sequence:
#
# PCOD9465458 Si02
#       5
#     8   8   8   8   8
#     4  10  21  38  57  83 117 141 172 228 278 313
#     4  10  21  36  54  69 107 149 180 225 271 307
#     4  10  21  37  51  70 102 141 180 219 262 318
#     4  10  21  33  59  70 102 147 183 209 265 327
#     4  12  23  32  49  73 101 136 179 219 264 305
#
# _framework density 16.735035
#
# number of rings (size 3 to 8) (size 9 to 14) (size 15 to 20)
#    1.200    0.400    2.000    4.200    2.800    1.600 
#    0.000    0.000    0.000    0.000    0.000    0.000 
#    0.000   16.000    0.000    0.000    0.000    0.000 
#
# Total GULP energy -222772.970298 kJ/mol
# GULP energy per Si atom -5569.324257 kJ/mol
# Density = 1.669694 g / cm^3
# Si number density = 16.735035 Si / 1000 Ang^3
#
#
#
# Elastic Constant Matrix: (Units=GPa)
#
#
# Indices 1 2 3 4 5 6 
#
# 1 87.6682 2.4623 15.4174 0.0000 0.0000 0.0000
# 2 2.4623 28.8591 18.3960 0.0000 0.0000 0.0000
# 3 15.4174 18.3960 72.0452 0.0000 0.0000 0.0000
# 4 0.0000 0.0000 0.0000 31.3306 0.0000 0.0000
# 5 0.0000 0.0000 0.0000 0.0000 36.8945 0.0000
# 6 0.0000 0.0000 0.0000 0.0000 0.0000 16.6371
#
#
#
# Elastic Compliance Matrix: (Units=1/GPa)
#
#
# Indices 1 2 3 4 5 6 
#
# 1 0.011865 0.000724 -0.002724 0.000000 0.000000 0.000000
# 2 0.000724 0.041432 -0.010734 0.000000 0.000000 0.000000
# 3 -0.002724 -0.010734 0.017204 0.000000 0.000000 0.000000
# 4 0.000000 0.000000 0.000000 0.031918 0.000000 0.000000
# 5 0.000000 0.000000 0.000000 0.000000 0.027104 0.000000
# 6 0.000000 0.000000 0.000000 0.000000 0.000000 0.060107
#
#
# Mechanical properties :
#
#
# Convention : Reuss Voigt Hill
#
# Bulk Modulus (GPa) = 22.20601 29.01378 25.60989
# Shear Modulus (GPa) = 21.72883 27.12555 24.42719
#
# Velocity S-wave (km/s) = 3.60725 4.03039 3.82467
# Velocity P-wave (km/s) = 5.53603 6.24768 5.90259
#
# Compressibility (1/GPa) = 0.04503286
#
# Stress axis : x y z
#
# Youngs Moduli (GPa) = 84.27892 24.13605 58.12618
#
# Poissons Ratio (x) = -0.01748 0.15834
# Poissons Ratio (y) = -0.06102 0.62393
# Poissons Ratio (z) = 0.22958 0.25908
#
# Static dielectric constant tensor:
#      x y z
#    x 1.597150 0.000000 0.000000 
#    y 0.000000 1.563870 0.000000 
#    z 0.000000 0.000000 1.563340 
# 
# From -- ./inp_files/16258.got.cif
#   From: 2010.05.17/outbox.cif.g08.bks.cpg/sg62_9_cif.got.tgz:16258.got - 2010.06.03 15:25:27.
