data_PCOD9465009
_publ_section_title
;
Structure prediction by ZEFSAII (Michael W. Deem and Ramdas Pophale) SiO2 
 PCOD9465009
Probable space group: P N M A
;
_chemical_formula_sum "Si O2"
_cell_formula_units_Z 32
_cell_length_a 8.130583
_cell_length_b 8.864222
_cell_length_c 19.060981
_cell_angle_alpha 90.000000
_cell_angle_beta 90.000000
_cell_angle_gamma 90.000000
_cell_volume 1373.749541
_symmetry_space_group_name_H-M "P N M A"
_symmetry_group_IT_number 62
_symmetry_cell_setting 'orthorhombic'
loop_
_space_group_symop_operation_xyz
x,y,z
1/2-x,-y,1/2+z
1/2+x,1/2-y,1/2-z
-x,1/2+y,-z
-x,-y,-z
1/2+x,y,1/2-z
1/2-x,1/2+y,1/2+z
x,1/2-y,z
loop_
_atom_site_type_symbol
_atom_site_label
_atom_site_fract_x
_atom_site_fract_y
_atom_site_fract_z
Si Si1 0.568537 0.426057 0.846973
Si Si2 0.600363 0.923129 0.593453
Si Si3 0.730979 0.074407 0.233723
Si Si4 0.236640 0.924564 0.530087
O O1 0.530467 0.250000 0.842995
O O2 0.426205 0.525047 0.811312
O O3 0.725902 0.468170 0.798543
O O4 0.610332 0.475335 0.926020
O O5 0.644959 0.750000 0.576202
O O6 0.623130 0.940981 0.676136
O O7 0.414492 0.945595 0.568060
O O8 0.721865 0.028386 0.549104
O O9 0.719406 0.250000 0.255596
O O10 0.189446 0.750000 0.534980
#
# Coordination Sequence:
#
# PCOD9465009 Si02
#       4
#     8   8   8   8
#     4  12  25  40  60  88 121 155 197 247 297 350
#     4   9  20  38  61  88 117 152 195 243 293 349
#     4  11  23  41  63  86 117 157 200 244 296 355
#     4  10  20  37  62  89 119 156 196 240 294 354
#
# _framework density 23.293908999999999
#
# number of rings (size 3 to 8) (size 9 to 14) (size 15 to 20)
#    0.000    1.500    0.000    5.250    0.000    6.000 
#    0.000    0.000    0.000    0.000    0.000    0.000 
#    0.000    0.000    0.000    0.000    0.000    0.000 
#
# Total GULP energy -179173.530658 kJ/mol
# GULP energy per Si atom -5599.172833 kJ/mol
# Density = 2.324089 g / cm^3
# Si number density = 23.293909 Si / 1000 Ang^3
#
#
#
# Elastic Constant Matrix: (Units=GPa)
#
#
# Indices 1 2 3 4 5 6 
#
# 1 32.3867 11.1942 -9.5673 0.0000 0.0000 0.0000
# 2 11.1942 67.0170 9.3643 0.0000 0.0000 0.0000
# 3 -9.5673 9.3643 75.1906 0.0000 0.0000 0.0000
# 4 0.0000 0.0000 0.0000 38.3483 0.0000 0.0000
# 5 0.0000 0.0000 0.0000 0.0000 31.5163 0.0000
# 6 0.0000 0.0000 0.0000 0.0000 0.0000 27.3985
#
#
#
# Elastic Compliance Matrix: (Units=1/GPa)
#
#
# Indices 1 2 3 4 5 6 
#
# 1 0.034674 -0.006522 0.005224 0.000000 0.000000 0.000000
# 2 -0.006522 0.016413 -0.002874 0.000000 0.000000 0.000000
# 3 0.005224 -0.002874 0.014322 0.000000 0.000000 0.000000
# 4 0.000000 0.000000 0.000000 0.026077 0.000000 0.000000
# 5 0.000000 0.000000 0.000000 0.000000 0.031730 0.000000
# 6 0.000000 0.000000 0.000000 0.000000 0.000000 0.036498
#
#
# Mechanical properties :
#
#
# Convention : Reuss Voigt Hill
#
# Bulk Modulus (GPa) = 17.52355 21.84186 19.68271
# Shear Modulus (GPa) = 26.72671 30.35949 28.54310
#
# Velocity S-wave (km/s) = 3.39096 3.61407 3.50429
# Velocity P-wave (km/s) = 4.78232 5.17807 4.98412
#
# Compressibility (1/GPa) = 0.05706605
#
# Stress axis : x y z
#
# Youngs Moduli (GPa) = 28.83979 60.92904 69.82176
#
# Poissons Ratio (x) = 0.39737 -0.36476
# Poissons Ratio (y) = 0.18809 0.20066
# Poissons Ratio (z) = -0.15066 0.17510
#
# Static dielectric constant tensor:
#      x y z
#    x 1.959340 0.000000 0.000000 
#    y 0.000000 1.768660 0.000000 
#    z 0.000000 0.000000 1.879960 
# 
# From -- ./inp_files/25531.got.cif
#   From: 2010.05.17/outbox.cif.g08.bks.cpg/sg62_13_cif.got.tgz:25531.got - 2010.06.03 15:25:27.
