data_PCOD9465792
_publ_section_title
;
Structure prediction by ZEFSAII (Michael W. Deem and Ramdas Pophale) SiO2 
 PCOD9465792
Probable space group: P N M A
;
_chemical_formula_sum "Si O2"
_cell_formula_units_Z 64
_cell_length_a 25.940456
_cell_length_b 13.683758
_cell_length_c 9.019519
_cell_angle_alpha 90.000000
_cell_angle_beta 90.000000
_cell_angle_gamma 90.000000
_cell_volume 3201.594822
_symmetry_space_group_name_H-M "P N M A"
_symmetry_group_IT_number 62
_symmetry_cell_setting 'orthorhombic'
loop_
_space_group_symop_operation_xyz
x,y,z
1/2-x,-y,1/2+z
1/2+x,1/2-y,1/2-z
-x,1/2+y,-z
-x,-y,-z
1/2+x,y,1/2-z
1/2-x,1/2+y,1/2+z
x,1/2-y,z
loop_
_atom_site_type_symbol
_atom_site_label
_atom_site_fract_x
_atom_site_fract_y
_atom_site_fract_z
Si Si1 0.523236 0.554570 0.273515
Si Si2 0.560585 0.362100 0.928354
Si Si3 0.340913 0.641267 0.270739
Si Si4 0.146913 0.861862 0.903037
Si Si5 0.314786 0.949624 0.570122
Si Si6 0.695079 0.948493 0.885608
Si Si7 0.476116 0.362567 0.407666
Si Si8 0.875591 0.504635 0.650054
O O1 0.491193 0.590411 0.132824
O O2 0.506753 0.443790 0.314750
O O3 0.511052 0.617928 0.419593
O O4 0.583652 0.560951 0.238864
O O5 0.552387 0.250000 0.970724
O O6 0.601321 0.365688 0.792235
O O7 0.588627 0.421918 0.056655
O O8 0.321489 0.750000 0.239091
O O9 0.339403 0.618608 0.444431
O O10 0.309324 0.557287 0.186116
O O11 0.153840 0.750000 0.950724
O O12 0.171685 0.879319 0.741063
O O13 0.085428 0.881324 0.891234
O O14 0.173503 0.940639 0.010602
O O15 0.254246 0.929070 0.578692
O O16 0.340415 0.940681 0.730330
O O17 0.660340 0.949040 0.032779
O O18 0.486646 0.250000 0.367619
#
# Coordination Sequence:
#
# PCOD9465792 Si02
#       8
#     8   8   8   8   8   8   8   8
#     4  11  21  37  61  87 125 159 198 247 305 363
#     4  10  22  39  59  88 124 162 193 239 306 366
#     4   9  20  38  60  81 113 155 198 239 292 360
#     4  10  21  41  62  85 117 161 208 248 297 365
#     4  11  21  39  62  89 116 156 204 252 303 356
#     4  10  22  40  61  83 120 157 195 249 309 357
#     4  10  21  37  61  89 118 160 208 248 296 366
#     4  11  22  37  60  91 122 155 196 249 303 351
#
# _framework density 19.990037999999998
#
# number of rings (size 3 to 8) (size 9 to 14) (size 15 to 20)
#    0.000    1.750    1.250    4.500    1.750    2.000 
#    0.000    5.625    0.000    0.750    0.000    0.000 
#    0.000    0.000    0.000    0.000    0.000    0.000 
#
# Total GULP energy -357545.926482 kJ/mol
# GULP energy per Si atom -5586.655101 kJ/mol
# Density = 1.994454 g / cm^3
# Si number density = 19.990038 Si / 1000 Ang^3
#
#
#
# Elastic Constant Matrix: (Units=GPa)
#
#
# Indices 1 2 3 4 5 6 
#
# 1 67.2718 -0.4508 25.6047 0.0000 0.0000 0.0000
# 2 -0.4508 40.8987 -11.9070 0.0000 0.0000 0.0000
# 3 25.6047 -11.9070 63.4318 0.0000 0.0000 0.0000
# 4 0.0000 0.0000 0.0000 5.3464 0.0000 0.0000
# 5 0.0000 0.0000 0.0000 0.0000 3.4270 0.0000
# 6 0.0000 0.0000 0.0000 0.0000 0.0000 13.6449
#
#
#
# Elastic Compliance Matrix: (Units=1/GPa)
#
#
# Indices 1 2 3 4 5 6 
#
# 1 0.017716 -0.001996 -0.007526 0.000000 0.000000 0.000000
# 2 -0.001996 0.026089 0.005703 0.000000 0.000000 0.000000
# 3 -0.007526 0.005703 0.019873 0.000000 0.000000 0.000000
# 4 0.000000 0.000000 0.000000 0.187042 0.000000 0.000000
# 5 0.000000 0.000000 0.000000 0.000000 0.291803 0.000000
# 6 0.000000 0.000000 0.000000 0.000000 0.000000 0.073287
#
#
# Mechanical properties :
#
#
# Convention : Reuss Voigt Hill
#
# Bulk Modulus (GPa) = 17.84413 22.01068 19.92740
# Shear Modulus (GPa) = 7.78659 15.04068 11.41364
#
# Velocity S-wave (km/s) = 1.97578 2.74598 2.39208
# Velocity P-wave (km/s) = 3.76176 4.59224 4.19758
#
# Compressibility (1/GPa) = 0.05604085
#
# Stress axis : x y z
#
# Youngs Moduli (GPa) = 56.44555 38.33043 50.31856
#
# Poissons Ratio (x) = 0.07650 0.37869
# Poissons Ratio (y) = 0.11265 -0.28696
# Poissons Ratio (z) = 0.42480 -0.21859
#
# Static dielectric constant tensor:
#      x y z
#    x 1.697030 0.000000 0.000000 
#    y 0.000000 1.702360 0.000000 
#    z 0.000000 0.000000 1.711770 
# 
# From -- ./inp_files/9493.got.cif
#   From: 2010.05.17/outbox.cif.g08.bks.cpg/sg62_5_cif.got.tgz:9493.got - 2010.06.03 15:25:27.
