data_PCOD9465011
_publ_section_title
;
Structure prediction by ZEFSAII (Michael W. Deem and Ramdas Pophale) SiO2 
 PCOD9465011
Probable space group: P N M A
;
_chemical_formula_sum "Si O2"
_cell_formula_units_Z 40
_cell_length_a 21.144308
_cell_length_b 10.215041
_cell_length_c 7.875364
_cell_angle_alpha 90.000000
_cell_angle_beta 90.000000
_cell_angle_gamma 90.000000
_cell_volume 1700.999659
_symmetry_space_group_name_H-M "P N M A"
_symmetry_group_IT_number 62
_symmetry_cell_setting 'orthorhombic'
loop_
_space_group_symop_operation_xyz
x,y,z
1/2-x,-y,1/2+z
1/2+x,1/2-y,1/2-z
-x,1/2+y,-z
-x,-y,-z
1/2+x,y,1/2-z
1/2-x,1/2+y,1/2+z
x,1/2-y,z
loop_
_atom_site_type_symbol
_atom_site_label
_atom_site_fract_x
_atom_site_fract_y
_atom_site_fract_z
Si Si1 0.079167 0.481119 0.314100
Si Si2 0.462641 0.091566 0.365752
Si Si3 0.364390 0.250000 0.708861
Si Si4 0.663028 0.250000 0.296544
Si Si5 0.652304 0.494008 0.829221
Si Si6 0.767595 0.750000 0.431464
Si Si7 0.716567 0.750000 0.949669
O O1 0.007949 0.429132 0.299278
O O2 0.092406 0.622074 0.229437
O O3 0.120134 0.376774 0.210045
O O4 0.108146 0.480058 0.502667
O O5 0.457721 0.250000 0.398246
O O6 0.395551 0.024802 0.323629
O O7 0.500000 0.000000 0.500000
O O8 0.308935 0.250000 0.568278
O O9 0.319249 0.250000 0.873822
O O10 0.708634 0.250000 0.455762
O O11 0.705097 0.250000 0.123582
O O12 0.701214 0.374607 0.837215
O O13 0.694216 0.621891 0.853251
#
# Coordination Sequence:
#
# PCOD9465011 Si02
#       7
#     8   8   4   4   8   4   4
#     4  10  22  42  65  90 124 168 211 254 311 377
#     4  12  27  44  64  94 128 164 211 268 324 374
#     4  10  22  37  62  97 125 158 210 256 307 376
#     4  10  20  37  62  89 125 168 206 252 311 368
#     4  10  22  42  65  90 124 168 211 254 311 377
#     4  10  22  37  62  97 125 158 210 256 307 376
#     4  10  20  37  62  89 125 168 206 252 311 368
#
# _framework density 23.515584
#
# number of rings (size 3 to 8) (size 9 to 14) (size 15 to 20)
#    0.000    1.600    2.000    1.800    2.800    3.200 
#    0.000    0.000    0.000    0.000    0.000    0.000 
#    0.000    0.000    0.000    0.000    0.000    0.000 
#
# Total GULP energy -223641.412670 kJ/mol
# GULP energy per Si atom -5591.035317 kJ/mol
# Density = 2.346206 g / cm^3
# Si number density = 23.515584 Si / 1000 Ang^3
#
#
#
# Elastic Constant Matrix: (Units=GPa)
#
#
# Indices 1 2 3 4 5 6 
#
# 1 53.3022 -0.3655 7.2468 0.0000 0.0000 0.0000
# 2 -0.3655 151.9399 31.2448 0.0000 0.0000 0.0000
# 3 7.2468 31.2448 50.3581 0.0000 0.0000 0.0000
# 4 0.0000 0.0000 0.0000 -17.6813 0.0000 0.0000
# 5 0.0000 0.0000 0.0000 0.0000 46.2414 0.0000
# 6 0.0000 0.0000 0.0000 0.0000 0.0000 57.9813
#
#
#
# Elastic Compliance Matrix: (Units=1/GPa)
#
#
# Indices 1 2 3 4 5 6 
#
# 1 0.019201 0.000704 -0.003200 0.000000 0.000000 0.000000
# 2 0.000704 0.007570 -0.004798 0.000000 0.000000 0.000000
# 3 -0.003200 -0.004798 0.023295 0.000000 0.000000 0.000000
# 4 0.000000 0.000000 0.000000 -0.056557 0.000000 0.000000
# 5 0.000000 0.000000 0.000000 0.000000 0.021626 0.000000
# 6 0.000000 0.000000 0.000000 0.000000 0.000000 0.017247
#
#
# Mechanical properties :
#
#
# Convention : Reuss Voigt Hill
#
# Bulk Modulus (GPa) = 28.18633 36.87250 32.52941
# Shear Modulus (GPa) = 85.04021 31.80656 58.42339
#
# Velocity S-wave (km/s) = 6.02012 3.68173 4.98984
# Velocity P-wave (km/s) = 7.76754 5.81270 6.86011
#
# Compressibility (1/GPa) = 0.03547819
#
# Stress axis : x y z
#
# Youngs Moduli (GPa) = 52.08098 132.10179 42.92717
#
# Poissons Ratio (x) = -0.09303 0.13737
# Poissons Ratio (y) = -0.03668 0.20597
# Poissons Ratio (z) = 0.16666 0.63384
#
# Static dielectric constant tensor:
#      x y z
#    x 1.882340 0.000000 0.000000 
#    y 0.000000 1.829230 0.000000 
#    z 0.000000 0.000000 1.972380 
# 
# From -- ./inp_files/9156.got.cif
#   From: 2010.05.17/outbox.cif.g08.bks.cpg/sg62_5_cif.got.tgz:9156.got - 2010.06.03 15:25:27.
