data_PCOD9465543
_publ_section_title
;
Structure prediction by ZEFSAII (Michael W. Deem and Ramdas Pophale) SiO2 
 PCOD9465543
Probable space group: P N M A
;
_chemical_formula_sum "Si O2"
_cell_formula_units_Z 32
_cell_length_a 13.127786
_cell_length_b 7.582603
_cell_length_c 14.839770
_cell_angle_alpha 90.000000
_cell_angle_beta 90.000000
_cell_angle_gamma 90.000000
_cell_volume 1477.192101
_symmetry_space_group_name_H-M "P N M A"
_symmetry_group_IT_number 62
_symmetry_cell_setting 'orthorhombic'
loop_
_space_group_symop_operation_xyz
x,y,z
1/2-x,-y,1/2+z
1/2+x,1/2-y,1/2-z
-x,1/2+y,-z
-x,-y,-z
1/2+x,y,1/2-z
1/2-x,1/2+y,1/2+z
x,1/2-y,z
loop_
_atom_site_type_symbol
_atom_site_label
_atom_site_fract_x
_atom_site_fract_y
_atom_site_fract_z
Si Si1 0.042130 0.461925 0.401557
Si Si2 0.099273 0.041041 0.060713
Si Si3 0.539039 0.966281 0.715679
Si Si4 0.269495 0.455649 0.399722
O O1 0.046825 0.250000 0.393872
O O2 0.157172 0.532394 0.391021
O O3 0.000000 0.500000 0.500000
O O4 0.972514 0.523023 0.318454
O O5 0.115579 0.250000 0.064789
O O6 0.061903 0.980158 0.158836
O O7 0.192161 0.965499 0.003345
O O8 0.000000 0.000000 0.000000
O O9 0.541063 0.750000 0.711639
O O10 0.640349 0.029654 0.663679
O O11 0.262408 0.250000 0.375317
#
# Coordination Sequence:
#
# PCOD9465543 Si02
#       4
#     8   8   8   8
#     4  10  21  36  52  73 103 135 169 211 255 301
#     4   9  16  29  52  78 101 128 166 210 251 294
#     4   8  16  32  53  74  97 132 174 208 243 296
#     4   9  18  33  52  75 104 135 167 209 257 299
#
# _framework density 21.66272
#
# number of rings (size 3 to 8) (size 9 to 14) (size 15 to 20)
#    0.000    3.000    0.000    2.250    0.000    3.000 
#    0.000   11.250    0.000    0.000    0.000    0.000 
#    0.000    0.000    0.000    0.000    0.000    0.000 
#
# Total GULP energy -178350.840346 kJ/mol
# GULP energy per Si atom -5573.463761 kJ/mol
# Density = 2.161341 g / cm^3
# Si number density = 21.662720 Si / 1000 Ang^3
#
#
#
# Elastic Constant Matrix: (Units=GPa)
#
#
# Indices 1 2 3 4 5 6 
#
# 1 119.6278 6.5734 68.0038 0.0000 0.0000 0.0000
# 2 6.5734 45.2559 -1.8355 0.0000 0.0000 0.0000
# 3 68.0038 -1.8355 172.4556 0.0000 0.0000 0.0000
# 4 0.0000 0.0000 0.0000 20.9713 0.0000 0.0000
# 5 0.0000 0.0000 0.0000 0.0000 22.7908 0.0000
# 6 0.0000 0.0000 0.0000 0.0000 0.0000 12.7013
#
#
#
# Elastic Compliance Matrix: (Units=1/GPa)
#
#
# Indices 1 2 3 4 5 6 
#
# 1 0.010913 -0.001760 -0.004322 0.000000 0.000000 0.000000
# 2 -0.001760 0.022390 0.000932 0.000000 0.000000 0.000000
# 3 -0.004322 0.000932 0.007513 0.000000 0.000000 0.000000
# 4 0.000000 0.000000 0.000000 0.047684 0.000000 0.000000
# 5 0.000000 0.000000 0.000000 0.000000 0.043877 0.000000
# 6 0.000000 0.000000 0.000000 0.000000 0.000000 0.078732
#
#
# Mechanical properties :
#
#
# Convention : Reuss Voigt Hill
#
# Bulk Modulus (GPa) = 32.76973 53.64698 43.20836
# Shear Modulus (GPa) = 21.59071 28.93251 25.26161
#
# Velocity S-wave (km/s) = 3.16044 3.65854 3.41857
# Velocity P-wave (km/s) = 5.33647 6.53184 5.96418
#
# Compressibility (1/GPa) = 0.03051596
#
# Stress axis : x y z
#
# Youngs Moduli (GPa) = 91.63496 44.66263 133.10644
#
# Poissons Ratio (x) = 0.07862 0.57528
# Poissons Ratio (y) = 0.16131 -0.12412
# Poissons Ratio (z) = 0.39604 -0.04165
#
# Static dielectric constant tensor:
#      x y z
#    x 1.809000 0.000000 0.000000 
#    y 0.000000 1.656850 0.000000 
#    z 0.000000 0.000000 1.800990 
# 
# From -- ./inp_files/11767.got.cif
#   From: 2010.05.17/outbox.cif.g08.bks.cpg/sg62_6_cif.got.tgz:11767.got - 2010.06.03 15:25:27.
