data_PCOD9465090
_publ_section_title
;
Structure prediction by ZEFSAII (Michael W. Deem and Ramdas Pophale) SiO2 
 PCOD9465090
Probable space group: P N M A
;
_chemical_formula_sum "Si O2"
_cell_formula_units_Z 56
_cell_length_a 22.418307
_cell_length_b 22.720219
_cell_length_c 5.422927
_cell_angle_alpha 90.000000
_cell_angle_beta 90.000000
_cell_angle_gamma 90.000000
_cell_volume 2762.161602
_symmetry_space_group_name_H-M "P N M A"
_symmetry_group_IT_number 62
_symmetry_cell_setting 'orthorhombic'
loop_
_space_group_symop_operation_xyz
x,y,z
1/2-x,-y,1/2+z
1/2+x,1/2-y,1/2-z
-x,1/2+y,-z
-x,-y,-z
1/2+x,y,1/2-z
1/2-x,1/2+y,1/2+z
x,1/2-y,z
loop_
_atom_site_type_symbol
_atom_site_label
_atom_site_fract_x
_atom_site_fract_y
_atom_site_fract_z
Si Si1 0.956547 0.447577 0.741628
Si Si2 0.146865 0.621484 0.031335
Si Si3 0.231410 0.066284 0.641252
Si Si4 0.571944 0.445071 0.528980
Si Si5 0.729826 0.250000 0.370506
Si Si6 0.192277 0.750000 0.129015
Si Si7 0.321658 0.877046 0.638886
Si Si8 0.853530 0.037170 0.344990
O O1 0.909751 0.454211 0.521924
O O2 0.024739 0.426237 0.762100
O O3 0.918879 0.402324 0.911966
O O4 0.961989 0.515857 0.826311
O O5 0.197809 0.579168 0.151089
O O6 0.156603 0.688480 0.105102
O O7 0.159587 0.603145 0.748537
O O8 0.207825 0.094648 0.893842
O O9 0.206886 0.999737 0.601189
O O10 0.204128 0.098927 0.398925
O O11 0.609482 0.395123 0.395543
O O12 0.618084 0.492718 0.640895
O O13 0.765727 0.250000 0.112765
O O14 0.690685 0.308411 0.374155
O O15 0.772281 0.250000 0.612409
#
# Coordination Sequence:
#
# PCOD9465090 Si02
#       8
#     8   8   8   8   4   4   8   8
#     4  10  20  38  60  89 124 168 206 253 321 386
#     4  11  25  38  59  92 126 169 210 256 318 381
#     4  11  23  38  60  93 131 153 203 260 325 369
#     4   9  20  38  59  89 126 162 210 259 319 376
#     4  12  22  42  65  87 124 166 222 256 316 370
#     4  12  26  44  63  89 130 174 214 260 300 398
#     4  11  21  40  63  92 117 166 206 264 306 372
#     4  10  22  35  61  92 126 164 207 265 320 385
#
# _framework density 20.273978
#
# number of rings (size 3 to 8) (size 9 to 14) (size 15 to 20)
#    0.000    1.429    4.286    0.429    6.000    0.000 
#    0.000    0.714    0.000    0.000    0.000    0.000 
#    0.000    0.000    0.000    0.000    0.000    0.000 
#
# Total GULP energy -311880.562190 kJ/mol
# GULP energy per Si atom -5569.295753 kJ/mol
# Density = 2.022783 g / cm^3
# Si number density = 20.273978 Si / 1000 Ang^3
#
#
#
# Elastic Constant Matrix: (Units=GPa)
#
#
# Indices 1 2 3 4 5 6 
#
# 1 79.8396 32.6538 -5.1219 0.0000 0.0000 0.0000
# 2 32.6538 116.4900 19.0337 0.0000 0.0000 0.0000
# 3 -5.1219 19.0337 68.2085 0.0000 0.0000 0.0000
# 4 0.0000 0.0000 0.0000 26.5638 0.0000 0.0000
# 5 0.0000 0.0000 0.0000 0.0000 28.2614 0.0000
# 6 0.0000 0.0000 0.0000 0.0000 0.0000 24.3062
#
#
#
# Elastic Compliance Matrix: (Units=1/GPa)
#
#
# Indices 1 2 3 4 5 6 
#
# 1 0.014491 -0.004443 0.002328 0.000000 0.000000 0.000000
# 2 -0.004443 0.010356 -0.003224 0.000000 0.000000 0.000000
# 3 0.002328 -0.003224 0.015735 0.000000 0.000000 0.000000
# 4 0.000000 0.000000 0.000000 0.037645 0.000000 0.000000
# 5 0.000000 0.000000 0.000000 0.000000 0.035384 0.000000
# 6 0.000000 0.000000 0.000000 0.000000 0.000000 0.041142
#
#
# Mechanical properties :
#
#
# Convention : Reuss Voigt Hill
#
# Bulk Modulus (GPa) = 33.43730 39.74102 36.58916
# Shear Modulus (GPa) = 28.50638 30.35778 29.43208
#
# Velocity S-wave (km/s) = 3.75381 3.87379 3.81427
# Velocity P-wave (km/s) = 5.94278 6.29706 6.12248
#
# Compressibility (1/GPa) = 0.02990672
#
# Stress axis : x y z
#
# Youngs Moduli (GPa) = 69.00645 96.55827 63.55143
#
# Poissons Ratio (x) = 0.42896 -0.14794
# Poissons Ratio (y) = 0.30656 0.20486
# Poissons Ratio (z) = -0.16064 0.31126
#
# Static dielectric constant tensor:
#      x y z
#    x 1.827920 0.000000 0.000000 
#    y 0.000000 1.707390 0.000000 
#    z 0.000000 0.000000 1.896320 
# 
# From -- ./inp_files/2846.got.cif
#   From: 2010.05.17/outbox.cif.g08.bks.cpg/sg62_2_cif.got.tgz:2846.got - 2010.06.03 15:25:27.
