data_PCOD9465873
_publ_section_title
;
Structure prediction by ZEFSAII (Michael W. Deem and Ramdas Pophale) SiO2 
 PCOD9465873
Probable space group: P N M A
;
_chemical_formula_sum "Si O2"
_cell_formula_units_Z 56
_cell_length_a 20.941139
_cell_length_b 25.042625
_cell_length_c 5.228741
_cell_angle_alpha 90.000000
_cell_angle_beta 90.000000
_cell_angle_gamma 90.000000
_cell_volume 2742.062060
_symmetry_space_group_name_H-M "P N M A"
_symmetry_group_IT_number 62
_symmetry_cell_setting 'orthorhombic'
loop_
_space_group_symop_operation_xyz
x,y,z
1/2-x,-y,1/2+z
1/2+x,1/2-y,1/2-z
-x,1/2+y,-z
-x,-y,-z
1/2+x,y,1/2-z
1/2-x,1/2+y,1/2+z
x,1/2-y,z
loop_
_atom_site_type_symbol
_atom_site_label
_atom_site_fract_x
_atom_site_fract_y
_atom_site_fract_z
Si Si1 0.254541 0.687988 0.811399
Si Si2 0.330957 0.310689 0.818066
Si Si3 0.804342 0.919816 0.491926
Si Si4 0.497822 0.437713 0.286041
Si Si5 0.932446 0.400974 0.693557
Si Si6 0.401857 0.971258 0.353528
Si Si7 0.317026 0.472021 0.702371
O O1 0.279342 0.750000 0.802410
O O2 0.203788 0.686518 0.044087
O O3 0.300361 0.637888 0.875948
O O4 0.218842 0.676294 0.544978
O O5 0.350313 0.250000 0.865295
O O6 0.392650 0.347241 0.820744
O O7 0.867851 0.928843 0.325408
O O8 0.741210 0.930969 0.317376
O O9 0.799049 0.971067 0.679427
O O10 0.462803 0.410209 0.528260
O O11 0.569597 0.446520 0.384216
O O12 0.462443 0.495200 0.253038
O O13 0.484241 0.406058 0.029065
O O14 0.876939 0.445562 0.653698
O O15 0.347040 0.013783 0.426310
#
# Coordination Sequence:
#
# PCOD9465873 Si02
#       7
#     8   8   8   8   8   8   8
#     4  10  23  38  58  84 118 158 190 232 292 358
#     4  10  21  38  59  86 115 148 193 244 295 344
#     4  12  22  35  57  86 124 151 196 242 300 357
#     4  10  23  38  57  79 120 153 200 228 292 351
#     4  11  21  38  59  84 114 154 189 244 287 352
#     4  10  23  37  52  84 116 161 189 239 286 357
#     4  11  23  32  56  89 120 154 188 244 303 352
#
# _framework density 20.422585999999999
#
# number of rings (size 3 to 8) (size 9 to 14) (size 15 to 20)
#    0.000    1.429    4.286    0.857    8.000    1.714 
#    0.000    0.000    0.000    1.714    0.000    0.000 
#    0.000    0.000    0.000    0.000    0.000    0.000 
#
# Total GULP energy -312762.698513 kJ/mol
# GULP energy per Si atom -5585.048188 kJ/mol
# Density = 2.037610 g / cm^3
# Si number density = 20.422586 Si / 1000 Ang^3
#
#
#
# Elastic Constant Matrix: (Units=GPa)
#
#
# Indices 1 2 3 4 5 6 
#
# 1 70.6578 29.0793 19.3902 0.0000 0.0000 0.0000
# 2 29.0793 113.6586 17.5581 0.0000 0.0000 0.0000
# 3 19.3902 17.5581 88.7651 0.0000 0.0000 0.0000
# 4 0.0000 0.0000 0.0000 27.2700 0.0000 0.0000
# 5 0.0000 0.0000 0.0000 0.0000 33.3940 0.0000
# 6 0.0000 0.0000 0.0000 0.0000 0.0000 32.0668
#
#
#
# Elastic Compliance Matrix: (Units=1/GPa)
#
#
# Indices 1 2 3 4 5 6 
#
# 1 0.016491 -0.003778 -0.002855 0.000000 0.000000 0.000000
# 2 -0.003778 0.009941 -0.001141 0.000000 0.000000 0.000000
# 3 -0.002855 -0.001141 0.012115 0.000000 0.000000 0.000000
# 4 0.000000 0.000000 0.000000 0.036670 0.000000 0.000000
# 5 0.000000 0.000000 0.000000 0.000000 0.029945 0.000000
# 6 0.000000 0.000000 0.000000 0.000000 0.000000 0.031185
#
#
# Mechanical properties :
#
#
# Convention : Reuss Voigt Hill
#
# Bulk Modulus (GPa) = 43.48060 45.01520 44.24790
# Shear Modulus (GPa) = 31.33558 32.34975 31.84267
#
# Velocity S-wave (km/s) = 3.92134 3.98429 3.95294
# Velocity P-wave (km/s) = 6.46832 6.57692 6.52285
#
# Compressibility (1/GPa) = 0.02299876
#
# Stress axis : x y z
#
# Youngs Moduli (GPa) = 60.63871 100.59152 82.54182
#
# Poissons Ratio (x) = 0.38005 0.23566
# Poissons Ratio (y) = 0.22910 0.09419
# Poissons Ratio (z) = 0.17313 0.11478
#
# Static dielectric constant tensor:
#      x y z
#    x 1.778490 0.000000 0.000000 
#    y 0.000000 1.734730 0.000000 
#    z 0.000000 0.000000 1.805310 
# 
# From -- ./inp_files/2287.got.cif
#   From: 2010.05.17/outbox.cif.g08.bks.cpg/sg62_2_cif.got.tgz:2287.got - 2010.06.03 15:25:27.
