data_PCOD9465045
_publ_section_title
;
Structure prediction by ZEFSAII (Michael W. Deem and Ramdas Pophale) SiO2 
 PCOD9465045
Probable space group: P N M A
;
_chemical_formula_sum "Si O2"
_cell_formula_units_Z 56
_cell_length_a 15.409647
_cell_length_b 14.060303
_cell_length_c 10.904471
_cell_angle_alpha 90.000000
_cell_angle_beta 90.000000
_cell_angle_gamma 90.000000
_cell_volume 2362.609641
_symmetry_space_group_name_H-M "P N M A"
_symmetry_group_IT_number 62
_symmetry_cell_setting 'orthorhombic'
loop_
_space_group_symop_operation_xyz
x,y,z
1/2-x,-y,1/2+z
1/2+x,1/2-y,1/2-z
-x,1/2+y,-z
-x,-y,-z
1/2+x,y,1/2-z
1/2-x,1/2+y,1/2+z
x,1/2-y,z
loop_
_atom_site_type_symbol
_atom_site_label
_atom_site_fract_x
_atom_site_fract_y
_atom_site_fract_z
Si Si1 0.666166 0.351848 0.211359
Si Si2 0.988968 0.359812 0.570707
Si Si3 0.038488 0.642208 0.708016
Si Si4 0.912500 0.499374 0.080613
Si Si5 0.247662 0.425717 0.061601
Si Si6 0.327454 0.074883 0.820489
Si Si7 0.661635 0.408010 0.808739
O O1 0.685611 0.250000 0.146329
O O2 0.564010 0.353487 0.236965
O O3 0.713080 0.352328 0.341293
O O4 0.688220 0.459790 0.165513
O O5 0.964490 0.250000 0.574335
O O6 0.968824 0.396098 0.433204
O O7 0.091492 0.363540 0.600414
O O8 0.930428 0.410547 0.675092
O O9 0.073174 0.750000 0.702147
O O10 0.081223 0.587822 0.822949
O O11 0.888436 0.583188 0.178351
O O12 0.832831 0.509060 0.985500
O O13 0.000000 0.500000 0.000000
O O14 0.316712 0.490946 0.130758
O O15 0.293579 0.380805 0.946179
O O16 0.261542 0.120613 0.721846
#
# Coordination Sequence:
#
# PCOD9465045 Si02
#       7
#     8   8   8   8   8   8   8
#     4  10  20  37  64  95 132 176 230 289 343 407
#     4  11  24  43  69  98 141 190 232 289 356 423
#     4  10  21  38  64 102 134 172 235 290 344 418
#     4  11  21  39  67  93 133 181 228 283 348 423
#     4  10  21  39  61  95 134 177 228 282 350 409
#     4  10  22  40  65  98 137 180 235 286 350 418
#     4  10  23  40  65  97 131 178 234 286 343 420
#
# _framework density 23.702603
#
# number of rings (size 3 to 8) (size 9 to 14) (size 15 to 20)
#    0.000    1.714    1.429    2.571    2.000    2.857 
#    0.000   12.857    0.000    4.286    0.000    2.000 
#    0.000    0.000    0.000    0.000    0.000    0.000 
#
# Total GULP energy -311796.443779 kJ/mol
# GULP energy per Si atom -5567.793639 kJ/mol
# Density = 2.364866 g / cm^3
# Si number density = 23.702603 Si / 1000 Ang^3
#
#
#
# Elastic Constant Matrix: (Units=GPa)
#
#
# Indices 1 2 3 4 5 6 
#
# 1 126.1191 46.5244 36.4458 0.0000 0.0000 0.0000
# 2 46.5244 77.2799 32.2073 0.0000 0.0000 0.0000
# 3 36.4458 32.2073 87.9697 0.0000 0.0000 0.0000
# 4 0.0000 0.0000 0.0000 26.1504 0.0000 0.0000
# 5 0.0000 0.0000 0.0000 0.0000 56.5343 0.0000
# 6 0.0000 0.0000 0.0000 0.0000 0.0000 5.8401
#
#
#
# Elastic Compliance Matrix: (Units=1/GPa)
#
#
# Indices 1 2 3 4 5 6 
#
# 1 0.010615 -0.005378 -0.002429 0.000000 0.000000 0.000000
# 2 -0.005378 0.017995 -0.004360 0.000000 0.000000 0.000000
# 3 -0.002429 -0.004360 0.013970 0.000000 0.000000 0.000000
# 4 0.000000 0.000000 0.000000 0.038240 0.000000 0.000000
# 5 0.000000 0.000000 0.000000 0.000000 0.017688 0.000000
# 6 0.000000 0.000000 0.000000 0.000000 0.000000 0.171231
#
#
# Mechanical properties :
#
#
# Convention : Reuss Voigt Hill
#
# Bulk Modulus (GPa) = 54.80686 57.96929 56.38807
# Shear Modulus (GPa) = 16.65804 29.45101 23.05452
#
# Velocity S-wave (km/s) = 2.65390 3.52877 3.12213
# Velocity P-wave (km/s) = 5.70647 6.41194 6.06946
#
# Compressibility (1/GPa) = 0.01824589
#
# Stress axis : x y z
#
# Youngs Moduli (GPa) = 94.20781 55.57127 71.58169
#
# Poissons Ratio (x) = 0.29887 0.17385
# Poissons Ratio (y) = 0.50667 0.31210
# Poissons Ratio (z) = 0.22880 0.24230
#
# Static dielectric constant tensor:
#      x y z
#    x 1.966690 0.000000 0.000000 
#    y 0.000000 1.983740 0.000000 
#    z 0.000000 0.000000 1.931380 
# 
# From -- ./inp_files/13408.got.cif
#   From: 2010.05.17/outbox.cif.g08.bks.cpg/sg62_7_cif.got.tgz:13408.got - 2010.06.03 15:25:27.
