data_PCOD9465000
_publ_section_title
;
Structure prediction by ZEFSAII (Michael W. Deem and Ramdas Pophale) SiO2 
 PCOD9465000
Probable space group: P N M A
;
_chemical_formula_sum "Si O2"
_cell_formula_units_Z 48
_cell_length_a 13.958653
_cell_length_b 14.130830
_cell_length_c 10.498455
_cell_angle_alpha 90.000000
_cell_angle_beta 90.000000
_cell_angle_gamma 90.000000
_cell_volume 2070.792455
_symmetry_space_group_name_H-M "P N M A"
_symmetry_group_IT_number 62
_symmetry_cell_setting 'orthorhombic'
loop_
_space_group_symop_operation_xyz
x,y,z
1/2-x,-y,1/2+z
1/2+x,1/2-y,1/2-z
-x,1/2+y,-z
-x,-y,-z
1/2+x,y,1/2-z
1/2-x,1/2+y,1/2+z
x,1/2-y,z
loop_
_atom_site_type_symbol
_atom_site_label
_atom_site_fract_x
_atom_site_fract_y
_atom_site_fract_z
Si Si1 0.766805 0.939052 0.283229
Si Si2 0.907379 0.362550 0.920691
Si Si3 0.849492 0.144803 0.558243
Si Si4 0.734277 0.353641 0.296469
Si Si5 0.492746 0.855787 0.690560
Si Si6 0.017944 0.451522 0.682564
O O1 0.690128 0.920060 0.395128
O O2 0.729102 0.874971 0.167767
O O3 0.872927 0.920185 0.333099
O O4 0.758448 0.046976 0.230975
O O5 0.891051 0.250000 0.905058
O O6 0.978466 0.400545 0.811192
O O7 0.954073 0.376787 0.058279
O O8 0.889173 0.250000 0.576511
O O9 0.795673 0.141125 0.425095
O O10 0.938056 0.074647 0.579066
O O11 0.752167 0.250000 0.234252
O O12 0.621627 0.356681 0.328664
O O13 0.519444 0.750000 0.733763
O O14 0.516489 0.937180 0.789179
#
# Coordination Sequence:
#
# PCOD9465000 Si02
#       6
#     8   8   8   8   8   8
#     4  11  22  34  61  87 120 152 197 243 296 353
#     4  10  21  36  56  88 119 148 197 252 293 340
#     4  10  22  39  59  87 120 154 197 246 296 351
#     4  10  21  39  62  86 117 158 198 241 299 357
#     4  10  20  37  62  86 113 152 201 250 293 343
#     4  11  21  35  59  88 116 156 194 243 295 353
#
# _framework density 23.17953
#
# number of rings (size 3 to 8) (size 9 to 14) (size 15 to 20)
#    0.000    1.667    3.333    3.500    2.333    5.333 
#    0.000    0.000    0.000    2.000    0.000    0.000 
#    0.000    0.000    0.000    0.000    0.000    0.000 
#
# Total GULP energy -268621.223058 kJ/mol
# GULP energy per Si atom -5596.275480 kJ/mol
# Density = 2.312677 g / cm^3
# Si number density = 23.179530 Si / 1000 Ang^3
#
#
#
# Elastic Constant Matrix: (Units=GPa)
#
#
# Indices 1 2 3 4 5 6 
#
# 1 169.7470 14.5160 9.1591 0.0000 0.0000 0.0000
# 2 14.5160 99.1747 23.1931 0.0000 0.0000 0.0000
# 3 9.1591 23.1931 43.8007 0.0000 0.0000 0.0000
# 4 0.0000 0.0000 0.0000 17.9734 0.0000 0.0000
# 5 0.0000 0.0000 0.0000 0.0000 27.1646 0.0000
# 6 0.0000 0.0000 0.0000 0.0000 0.0000 -44.4330
#
#
#
# Elastic Compliance Matrix: (Units=1/GPa)
#
#
# Indices 1 2 3 4 5 6 
#
# 1 0.005997 -0.000667 -0.000901 0.000000 0.000000 0.000000
# 2 -0.000667 0.011583 -0.005994 0.000000 0.000000 0.000000
# 3 -0.000901 -0.005994 0.026193 0.000000 0.000000 0.000000
# 4 0.000000 0.000000 0.000000 0.055638 0.000000 0.000000
# 5 0.000000 0.000000 0.000000 0.000000 0.036813 0.000000
# 6 0.000000 0.000000 0.000000 0.000000 0.000000 -0.022506
#
#
# Mechanical properties :
#
#
# Convention : Reuss Voigt Hill
#
# Bulk Modulus (GPa) = 34.90508 45.16211 40.03359
# Shear Modulus (GPa) = 36.13000 17.86462 26.99731
#
# Velocity S-wave (km/s) = 3.95232 2.77917 3.41648
# Velocity P-wave (km/s) = 5.99325 5.46116 5.73338
#
# Compressibility (1/GPa) = 0.02864913
#
# Stress axis : x y z
#
# Youngs Moduli (GPa) = 166.75647 86.33687 38.17848
#
# Poissons Ratio (x) = 0.05759 0.03439
# Poissons Ratio (y) = 0.11124 0.22883
# Poissons Ratio (z) = 0.15021 0.51747
#
# Static dielectric constant tensor:
#      x y z
#    x 1.846200 0.000000 0.000000 
#    y 0.000000 1.902300 0.000000 
#    z 0.000000 0.000000 1.848300 
# 
# From -- ./inp_files/13280.got.cif
#   From: 2010.05.17/outbox.cif.g08.bks.cpg/sg62_7_cif.got.tgz:13280.got - 2010.06.03 15:25:27.
