data_PCOD9465654
_publ_section_title
;
Structure prediction by ZEFSAII (Michael W. Deem and Ramdas Pophale) SiO2 
 PCOD9465654
Probable space group: P N M A
;
_chemical_formula_sum "Si O2"
_cell_formula_units_Z 64
_cell_length_a 19.474830
_cell_length_b 17.821356
_cell_length_c 8.438578
_cell_angle_alpha 90.000000
_cell_angle_beta 90.000000
_cell_angle_gamma 90.000000
_cell_volume 2928.759364
_symmetry_space_group_name_H-M "P N M A"
_symmetry_group_IT_number 62
_symmetry_cell_setting 'orthorhombic'
loop_
_space_group_symop_operation_xyz
x,y,z
1/2-x,-y,1/2+z
1/2+x,1/2-y,1/2-z
-x,1/2+y,-z
-x,-y,-z
1/2+x,y,1/2-z
1/2-x,1/2+y,1/2+z
x,1/2-y,z
loop_
_atom_site_type_symbol
_atom_site_label
_atom_site_fract_x
_atom_site_fract_y
_atom_site_fract_z
Si Si1 0.977724 0.083809 0.296703
Si Si2 0.107007 0.446170 0.103462
Si Si3 0.854497 0.166386 0.125980
Si Si4 0.319678 0.593005 0.271684
Si Si5 0.247128 0.568827 0.730053
Si Si6 0.196524 0.662785 0.425581
Si Si7 0.583050 0.881745 0.315051
Si Si8 0.455334 0.906433 0.132076
O O1 0.036464 0.090487 0.162269
O O2 0.012063 0.108234 0.461186
O O3 0.911342 0.129329 0.241591
O O4 0.958842 0.996166 0.327783
O O5 0.170872 0.430706 0.221403
O O6 0.091255 0.534490 0.115274
O O7 0.135607 0.423552 0.931743
O O8 0.836050 0.250000 0.176604
O O9 0.788368 0.112349 0.125611
O O10 0.888173 0.168810 0.953751
O O11 0.280735 0.515826 0.228732
O O12 0.261588 0.653164 0.309077
O O13 0.376441 0.615645 0.144830
O O14 0.218588 0.613878 0.577327
O O15 0.184607 0.750000 0.459439
O O16 0.130924 0.627423 0.338892
O O17 0.505516 0.868864 0.260354
#
# Coordination Sequence:
#
# PCOD9465654 Si02
#       8
#     8   8   8   8   8   8   8   8
#     4  10  21  38  60  93 124 154 205 256 315 364
#     4  10  21  36  63  92 120 154 208 266 302 356
#     4  12  24  40  61  90 130 168 205 255 317 378
#     4  11  21  39  63  93 122 162 211 260 306 373
#     4  11  22  39  63  93 120 168 211 255 306 378
#     4  11  25  42  60  91 132 165 199 260 325 375
#     4  11  21  38  62  90 121 160 208 254 309 370
#     4  10  21  36  65  93 118 155 208 265 302 362
#
# _framework density 21.852257999999999
#
# number of rings (size 3 to 8) (size 9 to 14) (size 15 to 20)
#    0.000    1.250    3.750    2.250    3.500    3.000 
#    0.000    8.125    0.000    0.000    0.000    0.000 
#    0.000    0.000    0.000    0.000    0.000    0.000 
#
# Total GULP energy -357969.382664 kJ/mol
# GULP energy per Si atom -5593.271604 kJ/mol
# Density = 2.180252 g / cm^3
# Si number density = 21.852258 Si / 1000 Ang^3
#
#
#
# Elastic Constant Matrix: (Units=GPa)
#
#
# Indices 1 2 3 4 5 6 
#
# 1 91.2114 -5.4949 -14.0064 0.0000 0.0000 0.0000
# 2 -5.4949 32.7802 0.9139 0.0000 0.0000 0.0000
# 3 -14.0064 0.9139 33.6962 0.0000 0.0000 0.0000
# 4 0.0000 0.0000 0.0000 5.5242 0.0000 0.0000
# 5 0.0000 0.0000 0.0000 0.0000 33.7230 0.0000
# 6 0.0000 0.0000 0.0000 0.0000 0.0000 5.5034
#
#
#
# Elastic Compliance Matrix: (Units=1/GPa)
#
#
# Indices 1 2 3 4 5 6 
#
# 1 0.011822 0.001846 0.004864 0.000000 0.000000 0.000000
# 2 0.001846 0.030818 -0.000068 0.000000 0.000000 0.000000
# 3 0.004864 -0.000068 0.031701 0.000000 0.000000 0.000000
# 4 0.000000 0.000000 0.000000 0.181022 0.000000 0.000000
# 5 0.000000 0.000000 0.000000 0.000000 0.029653 0.000000
# 6 0.000000 0.000000 0.000000 0.000000 0.000000 0.181707
#
#
# Mechanical properties :
#
#
# Convention : Reuss Voigt Hill
#
# Bulk Modulus (GPa) = 11.41259 13.39032 12.40145
# Shear Modulus (GPa) = 10.35954 20.70179 15.53067
#
# Velocity S-wave (km/s) = 2.17968 3.08125 2.66881
# Velocity P-wave (km/s) = 3.40127 4.33587 3.89669
#
# Compressibility (1/GPa) = 0.08762253
#
# Stress axis : x y z
#
# Youngs Moduli (GPa) = 84.59060 32.44903 31.54520
#
# Poissons Ratio (x) = -0.05990 -0.15343
# Poissons Ratio (y) = -0.15616 0.00216
# Poissons Ratio (z) = -0.41143 0.00222
#
# Static dielectric constant tensor:
#      x y z
#    x 1.782030 0.000000 0.000000 
#    y 0.000000 1.799920 0.000000 
#    z 0.000000 0.000000 1.880220 
# 
# From -- ./inp_files/8919.got.cif
#   From: 2010.05.17/outbox.cif.g08.bks.cpg/sg62_5_cif.got.tgz:8919.got - 2010.06.03 15:25:27.
