data_PCOD9465917
_publ_section_title
;
Structure prediction by ZEFSAII (Michael W. Deem and Ramdas Pophale) SiO2 
 PCOD9465917
Probable space group: P N M A
;
_chemical_formula_sum "Si O2"
_cell_formula_units_Z 48
_cell_length_a 17.091867
_cell_length_b 8.571367
_cell_length_c 17.571494
_cell_angle_alpha 90.000000
_cell_angle_beta 90.000000
_cell_angle_gamma 90.000000
_cell_volume 2574.235552
_symmetry_space_group_name_H-M "P N M A"
_symmetry_group_IT_number 62
_symmetry_cell_setting 'orthorhombic'
loop_
_space_group_symop_operation_xyz
x,y,z
1/2-x,-y,1/2+z
1/2+x,1/2-y,1/2-z
-x,1/2+y,-z
-x,-y,-z
1/2+x,y,1/2-z
1/2-x,1/2+y,1/2+z
x,1/2-y,z
loop_
_atom_site_type_symbol
_atom_site_label
_atom_site_fract_x
_atom_site_fract_y
_atom_site_fract_z
Si Si1 0.499641 0.063013 0.585342
Si Si2 0.676031 0.561351 0.154426
Si Si3 0.911963 0.438867 0.500820
Si Si4 0.644167 0.436905 0.317770
Si Si5 0.677735 0.938195 0.848901
Si Si6 0.853657 0.561922 0.185967
O O1 0.501167 0.250000 0.583222
O O2 0.576510 0.008509 0.631627
O O3 0.500000 0.000000 0.500000
O O4 0.423188 0.007439 0.630324
O O5 0.673001 0.750000 0.158682
O O6 0.632901 0.511530 0.077528
O O7 0.637651 0.493054 0.230623
O O8 0.767583 0.514469 0.156136
O O9 0.913061 0.250000 0.500446
O O10 0.865655 0.490729 0.425232
O O11 0.000000 0.500000 0.500000
O O12 0.640003 0.250000 0.320673
O O13 0.730955 0.485793 0.345889
O O14 0.675912 0.750000 0.846936
O O15 0.638622 0.000530 0.771829
O O16 0.854971 0.750000 0.188133
#
# Coordination Sequence:
#
# PCOD9465917 Si02
#       6
#     8   8   8   8   8   8
#     4  11  24  39  59  88 118 150 191 236 286 340
#     4   9  19  38  61  82 111 150 191 233 283 339
#     4  10  22  37  57  84 114 149 189 234 283 334
#     4  10  21  38  61  85 115 151 189 233 285 340
#     4   9  20  38  60  84 113 150 190 233 284 338
#     4   9  20  38  61  83 110 149 189 231 282 338
#
# _framework density 18.646312999999999
#
# number of rings (size 3 to 8) (size 9 to 14) (size 15 to 20)
#    0.000    2.333    0.000    1.000    4.667    3.333 
#    0.000    0.000    0.000    0.000    0.000    0.000 
#    0.000    0.000    0.000    0.000    0.000    0.000 
#
# Total GULP energy -268016.591785 kJ/mol
# GULP energy per Si atom -5583.678996 kJ/mol
# Density = 1.860387 g / cm^3
# Si number density = 18.646313 Si / 1000 Ang^3
#
#
#
# Elastic Constant Matrix: (Units=GPa)
#
#
# Indices 1 2 3 4 5 6 
#
# 1 126.1793 29.0471 134.4242 0.0000 0.0000 0.0000
# 2 29.0471 18.0266 37.1495 0.0000 0.0000 0.0000
# 3 134.4242 37.1495 220.8266 0.0000 0.0000 0.0000
# 4 0.0000 0.0000 0.0000 33.5659 0.0000 0.0000
# 5 0.0000 0.0000 0.0000 0.0000 32.7294 0.0000
# 6 0.0000 0.0000 0.0000 0.0000 0.0000 28.4327
#
#
#
# Elastic Compliance Matrix: (Units=1/GPa)
#
#
# Indices 1 2 3 4 5 6 
#
# 1 0.024488 -0.013376 -0.012656 0.000000 0.000000 0.000000
# 2 -0.013376 0.092218 -0.007371 0.000000 0.000000 0.000000
# 3 -0.012656 -0.007371 0.013473 0.000000 0.000000 0.000000
# 4 0.000000 0.000000 0.000000 0.029792 0.000000 0.000000
# 5 0.000000 0.000000 0.000000 0.000000 0.030554 0.000000
# 6 0.000000 0.000000 0.000000 0.000000 0.000000 0.035171
#
#
# Mechanical properties :
#
#
# Convention : Reuss Voigt Hill
#
# Bulk Modulus (GPa) = 15.77997 85.14154 50.46075
# Shear Modulus (GPa) = 15.94256 29.90637 22.92447
#
# Velocity S-wave (km/s) = 2.92721 4.00919 3.51014
# Velocity P-wave (km/s) = 4.46160 8.19707 6.59916
#
# Compressibility (1/GPa) = 0.06337149
#
# Stress axis : x y z
#
# Youngs Moduli (GPa) = 40.83706 10.84384 74.22407
#
# Poissons Ratio (x) = 0.14505 0.93939
# Poissons Ratio (y) = 0.54624 0.54714
# Poissons Ratio (z) = 0.51684 0.07993
#
# Static dielectric constant tensor:
#      x y z
#    x 1.632990 0.000000 0.000000 
#    y 0.000000 1.639310 0.000000 
#    z 0.000000 0.000000 1.612190 
# 
# From -- ./inp_files/19639.got.cif
#   From: 2010.05.17/outbox.cif.g08.bks.cpg/sg62_10_cif.got.tgz:19639.got - 2010.06.03 15:25:27.
