data_PCOD9465431
_publ_section_title
;
Structure prediction by ZEFSAII (Michael W. Deem and Ramdas Pophale) SiO2 
 PCOD9465431
Probable space group: P N M A
;
_chemical_formula_sum "Si O2"
_cell_formula_units_Z 32
_cell_length_a 17.269307
_cell_length_b 12.313305
_cell_length_c 6.243673
_cell_angle_alpha 90.000000
_cell_angle_beta 90.000000
_cell_angle_gamma 90.000000
_cell_volume 1327.668639
_symmetry_space_group_name_H-M "P N M A"
_symmetry_group_IT_number 62
_symmetry_cell_setting 'orthorhombic'
loop_
_space_group_symop_operation_xyz
x,y,z
1/2-x,-y,1/2+z
1/2+x,1/2-y,1/2-z
-x,1/2+y,-z
-x,-y,-z
1/2+x,y,1/2-z
1/2-x,1/2+y,1/2+z
x,1/2-y,z
loop_
_atom_site_type_symbol
_atom_site_label
_atom_site_fract_x
_atom_site_fract_y
_atom_site_fract_z
Si Si1 0.921290 0.987831 0.631673
Si Si2 0.167440 0.628997 0.081697
Si Si3 0.958485 0.750000 0.219685
Si Si4 0.962381 0.750000 0.731440
Si Si5 0.173013 0.065720 0.749619
O O1 0.920502 0.867273 0.732184
O O2 0.849179 0.989400 0.474200
O O3 0.908043 0.088982 0.787838
O O4 0.000000 0.000000 0.500000
O O5 0.162337 0.750000 0.991775
O O6 0.245406 0.625025 0.223843
O O7 0.175893 0.532292 0.914044
O O8 0.991866 0.750000 0.473178
O O9 0.898479 0.647721 0.215371
O O10 0.996904 0.750000 0.977410
#
# Coordination Sequence:
#
# PCOD9465431 Si02
#       5
#     8   8   4   4   8
#     4  11  26  45  68 103 145 189 243 306 376 447
#     4  12  25  43  70 104 139 183 248 308 367 442
#     4  10  20  42  71  99 132 188 236 287 355 446
#     4  10  22  44  71  95 142 194 236 285 377 446
#     4  11  23  44  69 100 138 186 237 303 368 441
#
# _framework density 24.102399999999999
#
# number of rings (size 3 to 8) (size 9 to 14) (size 15 to 20)
#    0.000    1.000    6.250    0.000    1.750    2.000 
#    2.250    0.000    0.000    0.000    0.000    0.000 
#    0.000    0.000    0.000    0.000    0.000    0.000 
#
# Total GULP energy -178257.069583 kJ/mol
# GULP energy per Si atom -5570.533424 kJ/mol
# Density = 2.404754 g / cm^3
# Si number density = 24.102400 Si / 1000 Ang^3
#
#
#
# Elastic Constant Matrix: (Units=GPa)
#
#
# Indices 1 2 3 4 5 6 
#
# 1 88.2440 18.3118 25.1201 0.0000 0.0000 0.0000
# 2 18.3118 152.9768 36.3038 0.0000 0.0000 0.0000
# 3 25.1201 36.3038 130.5317 0.0000 0.0000 0.0000
# 4 0.0000 0.0000 0.0000 31.3771 0.0000 0.0000
# 5 0.0000 0.0000 0.0000 0.0000 30.1629 0.0000
# 6 0.0000 0.0000 0.0000 0.0000 0.0000 22.4762
#
#
#
# Elastic Compliance Matrix: (Units=1/GPa)
#
#
# Indices 1 2 3 4 5 6 
#
# 1 0.012119 -0.000961 -0.002065 0.000000 0.000000 0.000000
# 2 -0.000961 0.007075 -0.001783 0.000000 0.000000 0.000000
# 3 -0.002065 -0.001783 0.008554 0.000000 0.000000 0.000000
# 4 0.000000 0.000000 0.000000 0.031870 0.000000 0.000000
# 5 0.000000 0.000000 0.000000 0.000000 0.033153 0.000000
# 6 0.000000 0.000000 0.000000 0.000000 0.000000 0.044492
#
#
# Mechanical properties :
#
#
# Convention : Reuss Voigt Hill
#
# Bulk Modulus (GPa) = 55.15283 59.02488 57.08886
# Shear Modulus (GPa) = 32.69574 36.27101 34.48337
#
# Velocity S-wave (km/s) = 3.68711 3.88348 3.78657
# Velocity P-wave (km/s) = 6.40771 6.68213 6.54636
#
# Compressibility (1/GPa) = 0.01813144
#
# Stress axis : x y z
#
# Youngs Moduli (GPa) = 82.51206 141.34211 116.90092
#
# Poissons Ratio (x) = 0.13578 0.24142
# Poissons Ratio (y) = 0.07927 0.20842
# Poissons Ratio (z) = 0.17040 0.25199
#
# Static dielectric constant tensor:
#      x y z
#    x 1.973570 0.000000 0.000000 
#    y 0.000000 1.970720 0.000000 
#    z 0.000000 0.000000 2.050820 
# 
# From -- ./inp_files/2016.got.cif
#   From: 2010.05.17/outbox.cif.g08.bks.cpg/sg62_2_cif.got.tgz:2016.got - 2010.06.03 15:25:27.
