data_PCOD9465745
_publ_section_title
;
Structure prediction by ZEFSAII (Michael W. Deem and Ramdas Pophale) SiO2 
 PCOD9465745
Probable space group: P N M A
;
_chemical_formula_sum "Si O2"
_cell_formula_units_Z 64
_cell_length_a 19.303013
_cell_length_b 29.350479
_cell_length_c 5.153325
_cell_angle_alpha 90.000000
_cell_angle_beta 90.000000
_cell_angle_gamma 90.000000
_cell_volume 2919.630078
_symmetry_space_group_name_H-M "P N M A"
_symmetry_group_IT_number 62
_symmetry_cell_setting 'orthorhombic'
loop_
_space_group_symop_operation_xyz
x,y,z
1/2-x,-y,1/2+z
1/2+x,1/2-y,1/2-z
-x,1/2+y,-z
-x,-y,-z
1/2+x,y,1/2-z
1/2-x,1/2+y,1/2+z
x,1/2-y,z
loop_
_atom_site_type_symbol
_atom_site_label
_atom_site_fract_x
_atom_site_fract_y
_atom_site_fract_z
Si Si1 0.797765 0.048151 0.405519
Si Si2 0.856671 0.969415 0.052258
Si Si3 0.586108 0.127419 0.521720
Si Si4 0.120426 0.876813 0.840453
Si Si5 0.082220 0.953248 0.215079
Si Si6 0.202747 0.803106 0.117937
Si Si7 0.500224 0.884409 0.998568
Si Si8 0.207642 0.196566 0.112798
O O1 0.717024 0.038027 0.411438
O O2 0.813006 0.094956 0.256816
O O3 0.839497 0.053858 0.673458
O O4 0.836997 0.005371 0.275254
O O5 0.915260 0.995427 0.885138
O O6 0.881490 0.919767 0.128514
O O7 0.532532 0.139853 0.750218
O O8 0.644589 0.164593 0.467587
O O9 0.551733 0.117389 0.242771
O O10 0.142784 0.836687 0.026558
O O11 0.071527 0.861941 0.604752
O O12 0.077408 0.916470 0.986373
O O13 0.025578 0.935442 0.417318
O O14 0.182788 0.750000 0.101300
O O15 0.263986 0.810197 0.904212
O O16 0.231152 0.812458 0.404943
O O17 0.189159 0.250000 0.085361
#
# Coordination Sequence:
#
# PCOD9465745 Si02
#       8
#     8   8   8   8   8   8   8   8
#     4  10  21  37  58  93 124 158 208 260 328 378
#     4  11  23  36  62  93 126 162 215 266 321 381
#     4  12  26  41  67  92 125 176 220 254 304 391
#     4  10  22  41  67  85 129 171 200 268 316 364
#     4  10  22  42  60  86 129 170 204 275 309 362
#     4  10  22  40  70 103 127 154 204 262 332 392
#     4  11  25  45  60  92 128 171 224 249 304 370
#     4  10  23  44  67 100 132 158 200 267 329 376
#
# _framework density 21.920586
#
# number of rings (size 3 to 8) (size 9 to 14) (size 15 to 20)
#    0.000    1.500    2.500    1.500    7.000    1.000 
#    0.000    1.250    0.000    0.750    0.000    0.000 
#    0.000    0.000    0.000    0.000    0.000    0.000 
#
# Total GULP energy -357521.772234 kJ/mol
# GULP energy per Si atom -5586.277691 kJ/mol
# Density = 2.187069 g / cm^3
# Si number density = 21.920586 Si / 1000 Ang^3
#
#
#
# Elastic Constant Matrix: (Units=GPa)
#
#
# Indices 1 2 3 4 5 6 
#
# 1 45.2189 23.2221 5.2794 0.0000 0.0000 0.0000
# 2 23.2221 71.7035 4.1359 0.0000 0.0000 0.0000
# 3 5.2794 4.1359 72.7253 0.0000 0.0000 0.0000
# 4 0.0000 0.0000 0.0000 17.1477 0.0000 0.0000
# 5 0.0000 0.0000 0.0000 0.0000 35.2948 0.0000
# 6 0.0000 0.0000 0.0000 0.0000 0.0000 6.1013
#
#
#
# Elastic Compliance Matrix: (Units=1/GPa)
#
#
# Indices 1 2 3 4 5 6 
#
# 1 0.026678 -0.008556 -0.001450 0.000000 0.000000 0.000000
# 2 -0.008556 0.016736 -0.000331 0.000000 0.000000 0.000000
# 3 -0.001450 -0.000331 0.013874 0.000000 0.000000 0.000000
# 4 0.000000 0.000000 0.000000 0.058317 0.000000 0.000000
# 5 0.000000 0.000000 0.000000 0.000000 0.028333 0.000000
# 6 0.000000 0.000000 0.000000 0.000000 0.000000 0.163899
#
#
# Mechanical properties :
#
#
# Convention : Reuss Voigt Hill
#
# Bulk Modulus (GPa) = 27.31139 28.32474 27.81807
# Shear Modulus (GPa) = 14.67493 22.17611 18.42552
#
# Velocity S-wave (km/s) = 2.59020 3.18411 2.90238
# Velocity P-wave (km/s) = 4.62945 5.14467 4.89384
#
# Compressibility (1/GPa) = 0.03661476
#
# Stress axis : x y z
#
# Youngs Moduli (GPa) = 37.48392 59.74966 72.07501
#
# Poissons Ratio (x) = 0.51124 0.10451
# Poissons Ratio (y) = 0.32073 0.02383
# Poissons Ratio (z) = 0.05435 0.01976
#
# Static dielectric constant tensor:
#      x y z
#    x 1.820440 0.000000 0.000000 
#    y 0.000000 1.767320 0.000000 
#    z 0.000000 0.000000 1.891260 
# 
# From -- ./inp_files/1892.got.cif
#   From: 2010.05.17/outbox.cif.g08.bks.cpg/sg62_1_cif.got.tgz:1892.got - 2010.06.03 15:25:27.
