data_PCOD9465999
_publ_section_title
;
Structure prediction by ZEFSAII (Michael W. Deem and Ramdas Pophale) SiO2 
 PCOD9465999
Probable space group: P N M A
;
_chemical_formula_sum "Si O2"
_cell_formula_units_Z 40
_cell_length_a 9.776951
_cell_length_b 14.399297
_cell_length_c 12.720606
_cell_angle_alpha 90.000000
_cell_angle_beta 90.000000
_cell_angle_gamma 90.000000
_cell_volume 1790.822447
_symmetry_space_group_name_H-M "P N M A"
_symmetry_group_IT_number 62
_symmetry_cell_setting 'orthorhombic'
loop_
_space_group_symop_operation_xyz
x,y,z
1/2-x,-y,1/2+z
1/2+x,1/2-y,1/2-z
-x,1/2+y,-z
-x,-y,-z
1/2+x,y,1/2-z
1/2-x,1/2+y,1/2+z
x,1/2-y,z
loop_
_atom_site_type_symbol
_atom_site_label
_atom_site_fract_x
_atom_site_fract_y
_atom_site_fract_z
Si Si1 0.243613 0.646790 0.579077
Si Si2 0.189696 0.554181 0.023264
Si Si3 0.030453 0.148091 0.557167
Si Si4 0.097185 0.936016 0.245203
Si Si5 0.652332 0.939506 0.711268
O O1 0.301355 0.750000 0.561379
O O2 0.326208 0.557693 0.535714
O O3 0.213211 0.629894 0.702516
O O4 0.096283 0.642349 0.521944
O O5 0.351302 0.574342 0.035936
O O6 0.115038 0.595988 0.125165
O O7 0.147961 0.590223 0.909529
O O8 0.094079 0.250000 0.547637
O O9 0.967012 0.134157 0.672462
O O10 0.244482 0.972139 0.283682
O O11 0.995404 0.024182 0.245537
#
# Coordination Sequence:
#
# PCOD9465999 Si02
#       5
#     8   8   8   8   8
#     4  10  21  38  64  96 129 169 216 264 320 390
#     4  11  22  40  66  91 135 167 221 265 335 376
#     4  11  22  40  67  94 127 174 222 264 322 395
#     4  11  21  40  63  94 126 168 213 271 319 388
#     4  11  22  39  67  92 130 171 213 264 330 385
#
# _framework density 22.336105
#
# number of rings (size 3 to 8) (size 9 to 14) (size 15 to 20)
#    0.000    1.200    6.000    2.400    0.000    1.600 
#    0.000    7.000    0.000    4.800    0.000    0.000 
#    0.000    0.000    0.000    0.000    0.000    0.000 
#
# Total GULP energy -223510.854574 kJ/mol
# GULP energy per Si atom -5587.771364 kJ/mol
# Density = 2.228527 g / cm^3
# Si number density = 22.336105 Si / 1000 Ang^3
#
#
#
# Elastic Constant Matrix: (Units=GPa)
#
#
# Indices 1 2 3 4 5 6 
#
# 1 48.7749 -8.9426 -0.0018 0.0000 0.0000 0.0000
# 2 -8.9426 64.6630 14.9080 0.0000 0.0000 0.0000
# 3 -0.0018 14.9080 147.4504 0.0000 0.0000 0.0000
# 4 0.0000 0.0000 0.0000 17.8733 0.0000 0.0000
# 5 0.0000 0.0000 0.0000 0.0000 33.2144 0.0000
# 6 0.0000 0.0000 0.0000 0.0000 0.0000 10.1132
#
#
#
# Elastic Compliance Matrix: (Units=1/GPa)
#
#
# Indices 1 2 3 4 5 6 
#
# 1 0.021049 0.002980 -0.000301 0.000000 0.000000 0.000000
# 2 0.002980 0.016256 -0.001644 0.000000 0.000000 0.000000
# 3 -0.000301 -0.001644 0.006948 0.000000 0.000000 0.000000
# 4 0.000000 0.000000 0.000000 0.055949 0.000000 0.000000
# 5 0.000000 0.000000 0.000000 0.000000 0.030107 0.000000
# 6 0.000000 0.000000 0.000000 0.000000 0.000000 0.098880
#
#
# Mechanical properties :
#
#
# Convention : Reuss Voigt Hill
#
# Bulk Modulus (GPa) = 21.58695 30.31284 25.94989
# Shear Modulus (GPa) = 20.61348 29.23517 24.92433
#
# Velocity S-wave (km/s) = 3.04119 3.62176 3.34410
# Velocity P-wave (km/s) = 4.69226 5.57586 5.15304
#
# Compressibility (1/GPa) = 0.04632429
#
# Stress axis : x y z
#
# Youngs Moduli (GPa) = 47.50874 61.51619 143.92414
#
# Poissons Ratio (x) = -0.18334 0.04333
# Poissons Ratio (y) = -0.14159 0.23654
# Poissons Ratio (z) = 0.01430 0.10110
#
# Static dielectric constant tensor:
#      x y z
#    x 1.792160 0.000000 0.000000 
#    y 0.000000 1.817780 0.000000 
#    z 0.000000 0.000000 1.843570 
# 
# From -- ./inp_files/17870.got.cif
#   From: 2010.05.17/outbox.cif.g08.bks.cpg/sg62_9_cif.got.tgz:17870.got - 2010.06.03 15:25:27.
