data_PCOD9465173
_publ_section_title
;
Structure prediction by ZEFSAII (Michael W. Deem and Ramdas Pophale) SiO2 
 PCOD9465173
Probable space group: P N M A
;
_chemical_formula_sum "Si O2"
_cell_formula_units_Z 48
_cell_length_a 9.619807
_cell_length_b 13.855254
_cell_length_c 17.745768
_cell_angle_alpha 90.000000
_cell_angle_beta 90.000000
_cell_angle_gamma 90.000000
_cell_volume 2365.242371
_symmetry_space_group_name_H-M "P N M A"
_symmetry_group_IT_number 62
_symmetry_cell_setting 'orthorhombic'
loop_
_space_group_symop_operation_xyz
x,y,z
1/2-x,-y,1/2+z
1/2+x,1/2-y,1/2-z
-x,1/2+y,-z
-x,-y,-z
1/2+x,y,1/2-z
1/2-x,1/2+y,1/2+z
x,1/2-y,z
loop_
_atom_site_type_symbol
_atom_site_label
_atom_site_fract_x
_atom_site_fract_y
_atom_site_fract_z
Si Si1 0.922636 0.862405 0.576077
Si Si2 0.236907 0.864441 0.573705
Si Si3 0.916349 0.362990 0.709562
Si Si4 0.273942 0.957347 0.408500
Si Si5 0.160419 0.360383 0.593443
Si Si6 0.911690 0.484532 0.860852
O O1 0.889673 0.750000 0.594982
O O2 0.921822 0.868980 0.484808
O O3 0.079452 0.885617 0.601127
O O4 0.813462 0.943331 0.600657
O O5 0.249593 0.750000 0.566460
O O6 0.254881 0.911382 0.491055
O O7 0.349607 0.908617 0.630647
O O8 0.915346 0.250000 0.732362
O O9 0.788866 0.384477 0.653412
O O10 0.910165 0.435438 0.779216
O O11 0.056273 0.381809 0.661581
O O12 0.435321 0.976717 0.394129
O O13 0.204765 0.250000 0.601343
O O14 0.297220 0.423980 0.592606
#
# Coordination Sequence:
#
# PCOD9465173 Si02
#       6
#     8   8   8   8   8   8
#     4  10  21  40  67  93 121 165 216 260 310 376
#     4  11  23  41  64  91 125 170 217 263 313 374
#     4  11  24  43  66  92 128 173 214 258 319 388
#     4  12  23  41  65  99 131 162 213 267 321 375
#     4  10  20  38  63  91 125 165 209 255 310 379
#     4  12  25  38  58  98 134 168 199 263 329 380
#
# _framework density 20.293904000000001
#
# number of rings (size 3 to 8) (size 9 to 14) (size 15 to 20)
#    0.000    1.000    3.333    4.000    0.000    4.667 
#    0.000    0.833    0.000    3.000    0.000    0.000 
#    0.000    0.000    0.000    0.000    0.000    0.000 
#
# Total GULP energy -268364.277802 kJ/mol
# GULP energy per Si atom -5590.922454 kJ/mol
# Density = 2.024771 g / cm^3
# Si number density = 20.293904 Si / 1000 Ang^3
#
#
#
# Elastic Constant Matrix: (Units=GPa)
#
#
# Indices 1 2 3 4 5 6 
#
# 1 147.7850 62.6010 21.2862 0.0000 0.0000 0.0000
# 2 62.6010 107.7359 33.8485 0.0000 0.0000 0.0000
# 3 21.2862 33.8485 34.5250 0.0000 0.0000 0.0000
# 4 0.0000 0.0000 0.0000 25.6508 0.0000 0.0000
# 5 0.0000 0.0000 0.0000 0.0000 18.5803 0.0000
# 6 0.0000 0.0000 0.0000 0.0000 0.0000 23.8553
#
#
#
# Elastic Compliance Matrix: (Units=1/GPa)
#
#
# Indices 1 2 3 4 5 6 
#
# 1 0.008985 -0.005029 -0.000609 0.000000 0.000000 0.000000
# 2 -0.005029 0.016229 -0.012810 0.000000 0.000000 0.000000
# 3 -0.000609 -0.012810 0.041899 0.000000 0.000000 0.000000
# 4 0.000000 0.000000 0.000000 0.038985 0.000000 0.000000
# 5 0.000000 0.000000 0.000000 0.000000 0.053820 0.000000
# 6 0.000000 0.000000 0.000000 0.000000 0.000000 0.041919
#
#
# Mechanical properties :
#
#
# Convention : Reuss Voigt Hill
#
# Bulk Modulus (GPa) = 33.09472 58.39081 45.74277
# Shear Modulus (GPa) = 20.09595 25.10463 22.60029
#
# Velocity S-wave (km/s) = 3.15023 3.52099 3.34076
# Velocity P-wave (km/s) = 5.43830 6.73535 6.12127
#
# Compressibility (1/GPa) = 0.03021630
#
# Stress axis : x y z
#
# Youngs Moduli (GPa) = 111.30048 61.61770 23.86690
#
# Poissons Ratio (x) = 0.30990 0.01452
# Poissons Ratio (y) = 0.55978 0.30574
# Poissons Ratio (z) = 0.06773 0.78934
#
# Static dielectric constant tensor:
#      x y z
#    x 1.700570 0.000000 0.000000 
#    y 0.000000 1.763590 0.000000 
#    z 0.000000 0.000000 1.733970 
# 
# From -- ./inp_files/22206.got.cif
#   From: 2010.05.17/outbox.cif.g08.bks.cpg/sg62_12_cif.got.tgz:22206.got - 2010.06.03 15:25:27.
