data_PCOD9465614
_publ_section_title
;
Structure prediction by ZEFSAII (Michael W. Deem and Ramdas Pophale) SiO2 
 PCOD9465614
Probable space group: P N M A
;
_chemical_formula_sum "Si O2"
_cell_formula_units_Z 64
_cell_length_a 22.640344
_cell_length_b 18.363900
_cell_length_c 8.410118
_cell_angle_alpha 90.000000
_cell_angle_beta 90.000000
_cell_angle_gamma 90.000000
_cell_volume 3496.632821
_symmetry_space_group_name_H-M "P N M A"
_symmetry_group_IT_number 62
_symmetry_cell_setting 'orthorhombic'
loop_
_space_group_symop_operation_xyz
x,y,z
1/2-x,-y,1/2+z
1/2+x,1/2-y,1/2-z
-x,1/2+y,-z
-x,-y,-z
1/2+x,y,1/2-z
1/2-x,1/2+y,1/2+z
x,1/2-y,z
loop_
_atom_site_type_symbol
_atom_site_label
_atom_site_fract_x
_atom_site_fract_y
_atom_site_fract_z
Si Si1 0.391985 0.017545 0.115004
Si Si2 0.310652 0.058717 0.643878
Si Si3 0.305903 0.834949 0.614274
Si Si4 0.664541 0.832145 0.878904
Si Si5 0.510146 0.560432 0.634813
Si Si6 0.387483 0.567911 0.796372
Si Si7 0.298299 0.953309 0.364171
Si Si8 0.891261 0.168618 0.026752
O O1 0.367922 0.096241 0.050941
O O2 0.451023 0.030306 0.217474
O O3 0.344190 0.987549 0.240899
O O4 0.398368 0.959023 0.975096
O O5 0.259567 0.071060 0.770234
O O6 0.345924 0.129030 0.589726
O O7 0.357989 0.001798 0.711564
O O8 0.283477 0.016933 0.490694
O O9 0.318600 0.750000 0.593200
O O10 0.235004 0.844137 0.626954
O O11 0.340288 0.867964 0.765653
O O12 0.323574 0.885657 0.464813
O O13 0.653916 0.750000 0.946970
O O14 0.640294 0.830237 0.698978
O O15 0.500000 0.500000 0.500000
O O16 0.448149 0.586160 0.706840
O O17 0.549623 0.622613 0.553507
O O18 0.904187 0.250000 0.975164
#
# Coordination Sequence:
#
# PCOD9465614 Si02
#       8
#     8   8   8   8   8   8   8   8
#     4  11  21  37  58  91 115 151 204 251 294 354
#     4  11  20  35  56  91 119 152 195 246 298 361
#     4  10  22  39  56  84 120 160 195 242 309 363
#     4   9  18  34  56  81 119 155 185 235 300 362
#     4  11  20  40  60  83 115 154 203 250 299 349
#     4  11  22  35  61  86 111 155 200 250 294 352
#     4  11  21  33  58  85 122 155 196 246 302 362
#     4  10  21  36  58  86 115 152 194 243 301 355
#
# _framework density 18.303322999999999
#
# number of rings (size 3 to 8) (size 9 to 14) (size 15 to 20)
#    0.000    1.500    3.750    4.125    1.750    1.000 
#    0.000    1.250    0.000    0.750    0.000    0.000 
#    0.000    0.000    0.000    0.000    0.000    0.000 
#
# Total GULP energy -357194.322542 kJ/mol
# GULP energy per Si atom -5581.161290 kJ/mol
# Density = 1.826166 g / cm^3
# Si number density = 18.303323 Si / 1000 Ang^3
#
#
#
# Elastic Constant Matrix: (Units=GPa)
#
#
# Indices 1 2 3 4 5 6 
#
# 1 59.7265 23.6349 17.7293 0.0000 0.0000 0.0000
# 2 23.6349 121.0985 34.6580 0.0000 0.0000 0.0000
# 3 17.7293 34.6580 59.8174 0.0000 0.0000 0.0000
# 4 0.0000 0.0000 0.0000 15.6006 0.0000 0.0000
# 5 0.0000 0.0000 0.0000 0.0000 31.7311 0.0000
# 6 0.0000 0.0000 0.0000 0.0000 0.0000 20.9933
#
#
#
# Elastic Compliance Matrix: (Units=1/GPa)
#
#
# Indices 1 2 3 4 5 6 
#
# 1 0.018974 -0.002510 -0.004169 0.000000 0.000000 0.000000
# 2 -0.002510 0.010231 -0.005184 0.000000 0.000000 0.000000
# 3 -0.004169 -0.005184 0.020957 0.000000 0.000000 0.000000
# 4 0.000000 0.000000 0.000000 0.064100 0.000000 0.000000
# 5 0.000000 0.000000 0.000000 0.000000 0.031515 0.000000
# 6 0.000000 0.000000 0.000000 0.000000 0.000000 0.047634
#
#
# Mechanical properties :
#
#
# Convention : Reuss Voigt Hill
#
# Bulk Modulus (GPa) = 37.82817 43.63185 40.73001
# Shear Modulus (GPa) = 22.12880 24.63967 23.38423
#
# Velocity S-wave (km/s) = 3.48085 3.67302 3.57822
# Velocity P-wave (km/s) = 6.07184 6.47133 6.27477
#
# Compressibility (1/GPa) = 0.02643533
#
# Stress axis : x y z
#
# Youngs Moduli (GPa) = 52.70409 97.73971 47.71683
#
# Poissons Ratio (x) = 0.24531 0.19895
# Poissons Ratio (y) = 0.13228 0.24737
# Poissons Ratio (z) = 0.21975 0.50669
#
# Static dielectric constant tensor:
#      x y z
#    x 1.630040 0.000000 0.000000 
#    y 0.000000 1.647890 0.000000 
#    z 0.000000 0.000000 1.642980 
# 
# From -- ./inp_files/8871.got.cif
#   From: 2010.05.17/outbox.cif.g08.bks.cpg/sg62_5_cif.got.tgz:8871.got - 2010.06.03 15:25:27.
