data_PCOD9465765
_publ_section_title
;
Structure prediction by ZEFSAII (Michael W. Deem and Ramdas Pophale) SiO2 
 PCOD9465765
Probable space group: P N M A
;
_chemical_formula_sum "Si O2"
_cell_formula_units_Z 64
_cell_length_a 12.150190
_cell_length_b 15.381020
_cell_length_c 16.635360
_cell_angle_alpha 90.000000
_cell_angle_beta 90.000000
_cell_angle_gamma 90.000000
_cell_volume 3108.854594
_symmetry_space_group_name_H-M "P N M A"
_symmetry_group_IT_number 62
_symmetry_cell_setting 'orthorhombic'
loop_
_space_group_symop_operation_xyz
x,y,z
1/2-x,-y,1/2+z
1/2+x,1/2-y,1/2-z
-x,1/2+y,-z
-x,-y,-z
1/2+x,y,1/2-z
1/2-x,1/2+y,1/2+z
x,1/2-y,z
loop_
_atom_site_type_symbol
_atom_site_label
_atom_site_fract_x
_atom_site_fract_y
_atom_site_fract_z
Si Si1 0.409879 0.555632 0.223894
Si Si2 0.586074 0.151165 0.458272
Si Si3 0.829518 0.650811 0.699005
Si Si4 0.885447 0.422512 0.140178
Si Si5 0.980244 0.353911 0.419831
Si Si6 0.564672 0.648200 0.100557
Si Si7 0.258830 0.065486 0.143307
Si Si8 0.320465 0.610538 0.382532
O O1 0.434302 0.468698 0.278490
O O2 0.507951 0.593033 0.171141
O O3 0.310276 0.527329 0.165062
O O4 0.363770 0.620956 0.291565
O O5 0.610815 0.250000 0.430837
O O6 0.475058 0.117714 0.417980
O O7 0.679205 0.083428 0.430295
O O8 0.594351 0.149952 0.554126
O O9 0.860337 0.750000 0.719074
O O10 0.707614 0.646434 0.661502
O O11 0.811653 0.596722 0.780005
O O12 0.917455 0.615720 0.634563
O O13 0.823762 0.506353 0.104158
O O14 0.988850 0.250000 0.424673
O O15 0.973792 0.384784 0.512282
O O16 0.866855 0.377396 0.375594
O O17 0.533421 0.750000 0.108363
O O18 0.697028 0.642877 0.104973
#
# Coordination Sequence:
#
# PCOD9465765 Si02
#       8
#     8   8   8   8   8   8   8   8
#     4   9  25  40  65  91 129 173 217 270 336 381
#     4  12  23  40  68  97 132 175 219 272 328 393
#     4  10  21  37  59  90 133 172 210 264 327 396
#     4   9  23  40  62  91 132 166 219 265 330 390
#     4  10  22  39  62  96 132 167 217 272 328 394
#     4  11  23  44  68  95 129 170 228 281 333 396
#     4  11  23  38  61  95 132 167 218 264 328 397
#     4  10  23  43  65  93 131 170 221 274 329 398
#
# _framework density 20.586359000000002
#
# number of rings (size 3 to 8) (size 9 to 14) (size 15 to 20)
#    0.750    1.000    1.250    2.250    7.000    2.500 
#    0.000    1.250    0.000    1.500    0.000    0.000 
#    0.000    0.000    0.000    0.000    0.000    0.000 
#
# Total GULP energy -356852.227083 kJ/mol
# GULP energy per Si atom -5575.816048 kJ/mol
# Density = 2.053950 g / cm^3
# Si number density = 20.586359 Si / 1000 Ang^3
#
#
#
# Elastic Constant Matrix: (Units=GPa)
#
#
# Indices 1 2 3 4 5 6 
#
# 1 72.3008 3.7728 45.2795 0.0000 0.0000 0.0000
# 2 3.7728 30.4496 30.1051 0.0000 0.0000 0.0000
# 3 45.2795 30.1051 109.6519 0.0000 0.0000 0.0000
# 4 0.0000 0.0000 0.0000 7.7921 0.0000 0.0000
# 5 0.0000 0.0000 0.0000 0.0000 35.6768 0.0000
# 6 0.0000 0.0000 0.0000 0.0000 0.0000 27.3014
#
#
#
# Elastic Compliance Matrix: (Units=1/GPa)
#
#
# Indices 1 2 3 4 5 6 
#
# 1 0.019911 0.007771 -0.010356 0.000000 0.000000 0.000000
# 2 0.007771 0.048110 -0.016418 0.000000 0.000000 0.000000
# 3 -0.010356 -0.016418 0.017904 0.000000 0.000000 0.000000
# 4 0.000000 0.000000 0.000000 0.128335 0.000000 0.000000
# 5 0.000000 0.000000 0.000000 0.000000 0.028029 0.000000
# 6 0.000000 0.000000 0.000000 0.000000 0.000000 0.036628
#
#
# Mechanical properties :
#
#
# Convention : Reuss Voigt Hill
#
# Bulk Modulus (GPa) = 20.86782 41.19079 31.02930
# Shear Modulus (GPa) = 15.01974 23.03706 19.02840
#
# Velocity S-wave (km/s) = 2.70403 3.34884 3.04356
# Velocity P-wave (km/s) = 4.46182 5.91652 5.23990
#
# Compressibility (1/GPa) = 0.04792068
#
# Stress axis : x y z
#
# Youngs Moduli (GPa) = 50.22354 20.78556 55.85472
#
# Poissons Ratio (x) = -0.16153 0.57841
# Poissons Ratio (y) = -0.39031 0.91702
# Poissons Ratio (z) = 0.52010 0.34126
#
# Static dielectric constant tensor:
#      x y z
#    x 1.705860 0.000000 0.000000 
#    y 0.000000 1.741600 0.000000 
#    z 0.000000 0.000000 1.791190 
# 
# From -- ./inp_files/23224.got.cif
#   From: 2010.05.17/outbox.cif.g08.bks.cpg/sg62_12_cif.got.tgz:23224.got - 2010.06.03 15:25:27.
