data_PCOD9465570
_publ_section_title
;
Structure prediction by ZEFSAII (Michael W. Deem and Ramdas Pophale) SiO2 
 PCOD9465570
Probable space group: P N M A
;
_chemical_formula_sum "Si O2"
_cell_formula_units_Z 48
_cell_length_a 15.932821
_cell_length_b 13.748466
_cell_length_c 10.772441
_cell_angle_alpha 90.000000
_cell_angle_beta 90.000000
_cell_angle_gamma 90.000000
_cell_volume 2359.723106
_symmetry_space_group_name_H-M "P N M A"
_symmetry_group_IT_number 62
_symmetry_cell_setting 'orthorhombic'
loop_
_space_group_symop_operation_xyz
x,y,z
1/2-x,-y,1/2+z
1/2+x,1/2-y,1/2-z
-x,1/2+y,-z
-x,-y,-z
1/2+x,y,1/2-z
1/2-x,1/2+y,1/2+z
x,1/2-y,z
loop_
_atom_site_type_symbol
_atom_site_label
_atom_site_fract_x
_atom_site_fract_y
_atom_site_fract_z
Si Si1 0.508909 0.634529 0.148194
Si Si2 0.354664 0.513981 0.249969
Si Si3 0.951099 0.862847 0.887869
Si Si4 0.448902 0.361863 0.126737
Si Si5 0.188994 0.640078 0.242070
Si Si6 0.889256 0.439042 0.981532
O O1 0.501021 0.750000 0.168314
O O2 0.502705 0.615007 0.000600
O O3 0.603207 0.606685 0.189871
O O4 0.436564 0.580981 0.224807
O O5 0.368991 0.431066 0.146582
O O6 0.270607 0.574999 0.252611
O O7 0.358041 0.461930 0.381961
O O8 0.922086 0.750000 0.901714
O O9 0.993326 0.870570 0.750544
O O10 0.021208 0.887500 0.992862
O O11 0.892198 0.956821 0.909364
O O12 0.422175 0.250000 0.117535
O O13 0.206357 0.750000 0.282835
O O14 0.165364 0.634083 0.097439
#
# Coordination Sequence:
#
# PCOD9465570 Si02
#       6
#     8   8   8   8   8   8
#     4  10  21  39  63  90 121 157 200 248 302 358
#     4  11  23  38  63  88 120 161 205 248 301 368
#     4   9  17  34  61  88 116 155 200 246 304 363
#     4   9  19  36  60  89 121 157 196 248 306 357
#     4  11  24  40  61  89 122 158 203 255 306 363
#     4  10  21  36  55  87 121 156 198 253 303 359
#
# _framework density 20.341370999999999
#
# number of rings (size 3 to 8) (size 9 to 14) (size 15 to 20)
#    0.000    2.000    0.000    4.500    2.333    3.333 
#    0.000    0.833    0.000    1.000    0.000    0.000 
#    0.000    0.000    0.000    0.000    0.000    0.000 
#
# Total GULP energy -267625.356482 kJ/mol
# GULP energy per Si atom -5575.528260 kJ/mol
# Density = 2.029507 g / cm^3
# Si number density = 20.341371 Si / 1000 Ang^3
#
#
#
# Elastic Constant Matrix: (Units=GPa)
#
#
# Indices 1 2 3 4 5 6 
#
# 1 55.0522 5.2995 1.5213 0.0000 0.0000 0.0000
# 2 5.2995 64.7718 -8.6919 0.0000 0.0000 0.0000
# 3 1.5213 -8.6919 72.4383 0.0000 0.0000 0.0000
# 4 0.0000 0.0000 0.0000 27.4753 0.0000 0.0000
# 5 0.0000 0.0000 0.0000 0.0000 10.5935 0.0000
# 6 0.0000 0.0000 0.0000 0.0000 0.0000 28.8370
#
#
#
# Elastic Compliance Matrix: (Units=1/GPa)
#
#
# Indices 1 2 3 4 5 6 
#
# 1 0.018332 -0.001577 -0.000574 0.000000 0.000000 0.000000
# 2 -0.001577 0.015827 0.001932 0.000000 0.000000 0.000000
# 3 -0.000574 0.001932 0.014049 0.000000 0.000000 0.000000
# 4 0.000000 0.000000 0.000000 0.036396 0.000000 0.000000
# 5 0.000000 0.000000 0.000000 0.000000 0.094398 0.000000
# 6 0.000000 0.000000 0.000000 0.000000 0.000000 0.034678
#
#
# Mechanical properties :
#
#
# Convention : Reuss Voigt Hill
#
# Bulk Modulus (GPa) = 20.93357 20.94670 20.94013
# Shear Modulus (GPa) = 21.73526 26.32339 24.02932
#
# Velocity S-wave (km/s) = 3.27238 3.60124 3.44074
# Velocity P-wave (km/s) = 4.95897 5.25469 5.10897
#
# Compressibility (1/GPa) = 0.04777017
#
# Stress axis : x y z
#
# Youngs Moduli (GPa) = 54.54868 63.18263 71.18070
#
# Poissons Ratio (x) = 0.09964 0.04087
# Poissons Ratio (y) = 0.08602 -0.13754
# Poissons Ratio (z) = 0.03132 -0.12208
#
# Static dielectric constant tensor:
#      x y z
#    x 1.765470 0.000000 0.000000 
#    y 0.000000 1.772210 0.000000 
#    z 0.000000 0.000000 1.740490 
# 
# From -- ./inp_files/14202.got.cif
#   From: 2010.05.17/outbox.cif.g08.bks.cpg/sg62_8_cif.got.tgz:14202.got - 2010.06.03 15:25:27.
