data_PCOD9465602
_publ_section_title
;
Structure prediction by ZEFSAII (Michael W. Deem and Ramdas Pophale) SiO2 
 PCOD9465602
Probable space group: P N M A
;
_chemical_formula_sum "Si O2"
_cell_formula_units_Z 40
_cell_length_a 9.805689
_cell_length_b 13.681121
_cell_length_c 13.088350
_cell_angle_alpha 90.000000
_cell_angle_beta 90.000000
_cell_angle_gamma 90.000000
_cell_volume 1755.839032
_symmetry_space_group_name_H-M "P N M A"
_symmetry_group_IT_number 62
_symmetry_cell_setting 'orthorhombic'
loop_
_space_group_symop_operation_xyz
x,y,z
1/2-x,-y,1/2+z
1/2+x,1/2-y,1/2-z
-x,1/2+y,-z
-x,-y,-z
1/2+x,y,1/2-z
1/2-x,1/2+y,1/2+z
x,1/2-y,z
loop_
_atom_site_type_symbol
_atom_site_label
_atom_site_fract_x
_atom_site_fract_y
_atom_site_fract_z
Si Si1 0.384712 0.862398 0.001094
Si Si2 0.650280 0.133568 0.219554
Si Si3 0.697023 0.865440 0.921932
Si Si4 0.763915 0.867274 0.138707
Si Si5 0.471513 0.545880 0.203104
O O1 0.360352 0.750000 0.034958
O O2 0.298957 0.882597 0.897811
O O3 0.538794 0.868510 0.956442
O O4 0.386152 0.934802 0.097376
O O5 0.618097 0.250000 0.224559
O O6 0.749978 0.102711 0.311046
O O7 0.521462 0.062525 0.231293
O O8 0.726346 0.750000 0.917133
O O9 0.775656 0.903374 0.021683
O O10 0.766278 0.750000 0.139564
O O11 0.616084 0.900085 0.181519
O O12 0.884096 0.907322 0.207996
#
# Coordination Sequence:
#
# PCOD9465602 Si02
#       5
#     8   8   8   8   8
#     4   9  18  36  60  83 116 156 199 248 301 356
#     4  10  21  36  57  86 117 157 205 248 288 356
#     4   8  17  35  57  80 116 159 191 239 309 353
#     4  10  21  40  63  87 120 158 200 249 302 359
#     4  11  22  37  62  92 120 159 203 244 304 359
#
# _framework density 22.781133000000001
#
# number of rings (size 3 to 8) (size 9 to 14) (size 15 to 20)
#    0.000    2.400    0.000    3.600    2.800    0.800 
#    0.000    2.000    0.000    7.200    0.000    0.000 
#    0.000    0.000    0.000    0.000    0.000    0.000 
#
# Total GULP energy -223228.732419 kJ/mol
# GULP energy per Si atom -5580.718310 kJ/mol
# Density = 2.272928 g / cm^3
# Si number density = 22.781133 Si / 1000 Ang^3
#
#
#
# Elastic Constant Matrix: (Units=GPa)
#
#
# Indices 1 2 3 4 5 6 
#
# 1 52.6151 26.4203 43.2029 0.0000 0.0000 0.0000
# 2 26.4203 115.4496 40.3488 0.0000 0.0000 0.0000
# 3 43.2029 40.3488 116.5492 0.0000 0.0000 0.0000
# 4 0.0000 0.0000 0.0000 40.3030 0.0000 0.0000
# 5 0.0000 0.0000 0.0000 0.0000 46.3799 0.0000
# 6 0.0000 0.0000 0.0000 0.0000 0.0000 22.4789
#
#
#
# Elastic Compliance Matrix: (Units=1/GPa)
#
#
# Indices 1 2 3 4 5 6 
#
# 1 0.028324 -0.003200 -0.009392 0.000000 0.000000 0.000000
# 2 -0.003200 0.010216 -0.002351 0.000000 0.000000 0.000000
# 3 -0.009392 -0.002351 0.012875 0.000000 0.000000 0.000000
# 4 0.000000 0.000000 0.000000 0.024812 0.000000 0.000000
# 5 0.000000 0.000000 0.000000 0.000000 0.021561 0.000000
# 6 0.000000 0.000000 0.000000 0.000000 0.000000 0.044486
#
#
# Mechanical properties :
#
#
# Convention : Reuss Voigt Hill
#
# Bulk Modulus (GPa) = 46.44401 56.06199 51.25300
# Shear Modulus (GPa) = 27.88084 33.47514 30.67799
#
# Velocity S-wave (km/s) = 3.50216 3.83747 3.67364
# Velocity P-wave (km/s) = 6.06505 6.65562 6.36718
#
# Compressibility (1/GPa) = 0.02153130
#
# Stress axis : x y z
#
# Youngs Moduli (GPa) = 35.30554 97.89045 77.66911
#
# Poissons Ratio (x) = 0.31321 0.72944
# Poissons Ratio (y) = 0.11296 0.18256
# Poissons Ratio (z) = 0.33158 0.23009
#
# Static dielectric constant tensor:
#      x y z
#    x 1.862820 0.000000 0.000000 
#    y 0.000000 1.977230 0.000000 
#    z 0.000000 0.000000 1.913530 
# 
# From -- ./inp_files/12063.got.cif
#   From: 2010.05.17/outbox.cif.g08.bks.cpg/sg62_7_cif.got.tgz:12063.got - 2010.06.03 15:25:27.
