data_PCOD9465629
_publ_section_title
;
Structure prediction by ZEFSAII (Michael W. Deem and Ramdas Pophale) SiO2 
 PCOD9465629
Probable space group: P N M A
;
_chemical_formula_sum "Si O2"
_cell_formula_units_Z 56
_cell_length_a 9.236762
_cell_length_b 20.897128
_cell_length_c 13.039998
_cell_angle_alpha 90.000000
_cell_angle_beta 90.000000
_cell_angle_gamma 90.000000
_cell_volume 2517.003858
_symmetry_space_group_name_H-M "P N M A"
_symmetry_group_IT_number 62
_symmetry_cell_setting 'orthorhombic'
loop_
_space_group_symop_operation_xyz
x,y,z
1/2-x,-y,1/2+z
1/2+x,1/2-y,1/2-z
-x,1/2+y,-z
-x,-y,-z
1/2+x,y,1/2-z
1/2-x,1/2+y,1/2+z
x,1/2-y,z
loop_
_atom_site_type_symbol
_atom_site_label
_atom_site_fract_x
_atom_site_fract_y
_atom_site_fract_z
Si Si1 0.956999 0.063597 0.327997
Si Si2 0.409507 0.100165 0.466714
Si Si3 0.560029 0.321826 0.859155
Si Si4 0.797848 0.956888 0.985274
Si Si5 0.632655 0.326659 0.094240
Si Si6 0.754886 0.015045 0.697172
Si Si7 0.856498 0.371534 0.811166
O O1 0.847665 0.054753 0.423074
O O2 0.865850 0.036172 0.231679
O O3 0.024536 0.134840 0.330729
O O4 0.098353 0.019485 0.336359
O O5 0.570708 0.080932 0.430969
O O6 0.295036 0.143475 0.404660
O O7 0.427198 0.134172 0.577532
O O8 0.336934 0.031527 0.494955
O O9 0.502410 0.250000 0.858486
O O10 0.721062 0.324345 0.813065
O O11 0.462219 0.362872 0.783900
O O12 0.576882 0.341798 0.977858
O O13 0.789326 0.937959 0.105156
O O14 0.633926 0.250000 0.108046
O O15 0.788364 0.058159 0.795356
#
# Coordination Sequence:
#
# PCOD9465629 Si02
#       7
#     8   8   8   8   8   8   8
#     4  12  25  41  65  96 132 169 217 276 333 396
#     4  10  21  38  61  93 130 170 212 261 330 396
#     4  10  21  36  59  88 125 170 212 253 309 387
#     4  11  22  39  64  97 136 166 208 275 339 396
#     4  10  23  44  65  88 125 176 224 269 324 385
#     4  12  24  37  63  99 128 172 219 271 335 401
#     4  11  20  35  56  91 130 163 205 258 317 389
#
# _framework density 22.248674000000001
#
# number of rings (size 3 to 8) (size 9 to 14) (size 15 to 20)
#    0.000    1.143    2.857    4.286    4.000    0.571 
#    0.000    1.429    0.000    0.000    0.000    0.000 
#    0.000    0.000    0.000    0.000    0.000    0.000 
#
# Total GULP energy -312701.419437 kJ/mol
# GULP energy per Si atom -5583.953919 kJ/mol
# Density = 2.219804 g / cm^3
# Si number density = 22.248674 Si / 1000 Ang^3
#
#
#
# Elastic Constant Matrix: (Units=GPa)
#
#
# Indices 1 2 3 4 5 6 
#
# 1 150.6040 49.5246 38.5313 0.0000 0.0000 0.0000
# 2 49.5246 85.2950 3.9479 0.0000 0.0000 0.0000
# 3 38.5313 3.9479 58.2355 0.0000 0.0000 0.0000
# 4 0.0000 0.0000 0.0000 24.6901 0.0000 0.0000
# 5 0.0000 0.0000 0.0000 0.0000 27.0463 0.0000
# 6 0.0000 0.0000 0.0000 0.0000 0.0000 27.9258
#
#
#
# Elastic Compliance Matrix: (Units=1/GPa)
#
#
# Indices 1 2 3 4 5 6 
#
# 1 0.010078 -0.005560 -0.006291 0.000000 0.000000 0.000000
# 2 -0.005560 0.014829 0.002674 0.000000 0.000000 0.000000
# 3 -0.006291 0.002674 0.021153 0.000000 0.000000 0.000000
# 4 0.000000 0.000000 0.000000 0.040502 0.000000 0.000000
# 5 0.000000 0.000000 0.000000 0.000000 0.036974 0.000000
# 6 0.000000 0.000000 0.000000 0.000000 0.000000 0.035809
#
#
# Mechanical properties :
#
#
# Convention : Reuss Voigt Hill
#
# Bulk Modulus (GPa) = 36.09567 53.12687 44.61127
# Shear Modulus (GPa) = 26.74732 29.40782 28.07757
#
# Velocity S-wave (km/s) = 3.47103 3.63957 3.55630
# Velocity P-wave (km/s) = 5.68534 6.44922 6.07929
#
# Compressibility (1/GPa) = 0.02770415
#
# Stress axis : x y z
#
# Youngs Moduli (GPa) = 99.22670 67.43653 47.27488
#
# Poissons Ratio (x) = 0.37497 0.29741
# Poissons Ratio (y) = 0.55173 -0.12640
# Poissons Ratio (z) = 0.62424 -0.18031
#
# Static dielectric constant tensor:
#      x y z
#    x 1.811530 0.000000 0.000000 
#    y 0.000000 1.846440 0.000000 
#    z 0.000000 0.000000 1.924510 
# 
# From -- ./inp_files/17194.got.cif
#   From: 2010.05.17/outbox.cif.g08.bks.cpg/sg62_9_cif.got.tgz:17194.got - 2010.06.03 15:25:27.
