data_PCOD9465872
_publ_section_title
;
Structure prediction by ZEFSAII (Michael W. Deem and Ramdas Pophale) SiO2 
 PCOD9465872
Probable space group: P N M A
;
_chemical_formula_sum "Si O2"
_cell_formula_units_Z 40
_cell_length_a 7.400901
_cell_length_b 8.610793
_cell_length_c 29.060237
_cell_angle_alpha 90.000000
_cell_angle_beta 90.000000
_cell_angle_gamma 90.000000
_cell_volume 1851.939930
_symmetry_space_group_name_H-M "P N M A"
_symmetry_group_IT_number 62
_symmetry_cell_setting 'orthorhombic'
loop_
_space_group_symop_operation_xyz
x,y,z
1/2-x,-y,1/2+z
1/2+x,1/2-y,1/2-z
-x,1/2+y,-z
-x,-y,-z
1/2+x,y,1/2-z
1/2-x,1/2+y,1/2+z
x,1/2-y,z
loop_
_atom_site_type_symbol
_atom_site_label
_atom_site_fract_x
_atom_site_fract_y
_atom_site_fract_z
Si Si1 0.695371 0.569405 0.213305
Si Si2 0.404979 0.934457 0.098982
Si Si3 0.826655 0.072454 0.305326
Si Si4 0.400895 0.567963 0.544403
Si Si5 0.327182 0.566702 0.383424
O O1 0.634063 0.750000 0.208216
O O2 0.540595 0.445892 0.202893
O O3 0.751688 0.537323 0.265208
O O4 0.839007 0.546186 0.172039
O O5 0.389592 0.750000 0.103028
O O6 0.619228 0.970415 0.101908
O O7 0.307329 0.010988 0.143118
O O8 0.293447 0.991834 0.055136
O O9 0.766218 0.250000 0.300442
O O10 0.500000 0.500000 0.500000
O O11 0.375757 0.750000 0.538962
O O12 0.533695 0.530567 0.587010
O O13 0.357505 0.750000 0.392860
#
# Coordination Sequence:
#
# PCOD9465872 Si02
#       5
#     8   8   8   8   8
#     4  10  21  38  59  85 121 167 209 250 309 376
#     4  10  22  43  67  91 126 167 210 259 318 382
#     4  11  22  36  57  89 125 161 208 259 308 367
#     4  12  26  43  67  96 127 164 211 264 322 380
#     4   9  21  42  66  91 123 165 211 260 316 377
#
# _framework density 21.598973000000001
#
# number of rings (size 3 to 8) (size 9 to 14) (size 15 to 20)
#    0.000    1.600    0.000    6.000    2.800    5.600 
#    0.000    0.000    0.000    0.000    0.000    0.000 
#    0.000    0.000    0.000    0.000    0.000    0.000 
#
# Total GULP energy -223470.350462 kJ/mol
# GULP energy per Si atom -5586.758762 kJ/mol
# Density = 2.154981 g / cm^3
# Si number density = 21.598973 Si / 1000 Ang^3
#
#
#
# Elastic Constant Matrix: (Units=GPa)
#
#
# Indices 1 2 3 4 5 6 
#
# 1 40.2279 13.9309 9.0670 0.0000 0.0000 0.0000
# 2 13.9309 79.2920 5.4967 0.0000 0.0000 0.0000
# 3 9.0670 5.4967 23.2573 0.0000 0.0000 0.0000
# 4 0.0000 0.0000 0.0000 31.1742 0.0000 0.0000
# 5 0.0000 0.0000 0.0000 0.0000 25.7233 0.0000
# 6 0.0000 0.0000 0.0000 0.0000 0.0000 30.6374
#
#
#
# Elastic Compliance Matrix: (Units=1/GPa)
#
#
# Indices 1 2 3 4 5 6 
#
# 1 0.028644 -0.004329 -0.010144 0.000000 0.000000 0.000000
# 2 -0.004329 0.013476 -0.001497 0.000000 0.000000 0.000000
# 3 -0.010144 -0.001497 0.047306 0.000000 0.000000 0.000000
# 4 0.000000 0.000000 0.000000 0.032078 0.000000 0.000000
# 5 0.000000 0.000000 0.000000 0.000000 0.038875 0.000000
# 6 0.000000 0.000000 0.000000 0.000000 0.000000 0.032640
#
#
# Mechanical properties :
#
#
# Convention : Reuss Voigt Hill
#
# Bulk Modulus (GPa) = 17.39581 22.19626 19.79603
# Shear Modulus (GPa) = 20.48169 25.12585 22.80377
#
# Velocity S-wave (km/s) = 3.08274 3.41440 3.25280
# Velocity P-wave (km/s) = 4.55440 5.08360 4.82626
#
# Compressibility (1/GPa) = 0.05748512
#
# Stress axis : x y z
#
# Youngs Moduli (GPa) = 34.91146 74.20589 21.13913
#
# Poissons Ratio (x) = 0.32126 0.21443
# Poissons Ratio (y) = 0.15114 0.03165
# Poissons Ratio (z) = 0.35413 0.11110
#
# Static dielectric constant tensor:
#      x y z
#    x 1.834300 0.000000 0.000000 
#    y 0.000000 1.709470 0.000000 
#    z 0.000000 0.000000 1.828050 
# 
# From -- ./inp_files/28605.got.cif
#   From: 2010.05.17/outbox.cif.g08.bks.cpg/sg62_15_cif.got.tgz:28605.got - 2010.06.03 15:25:27.
