data_PCOD9465398
_publ_section_title
;
Structure prediction by ZEFSAII (Michael W. Deem and Ramdas Pophale) SiO2 
 PCOD9465398
Probable space group: P N M A
;
_chemical_formula_sum "Si O2"
_cell_formula_units_Z 56
_cell_length_a 15.008803
_cell_length_b 8.920605
_cell_length_c 21.984430
_cell_angle_alpha 90.000000
_cell_angle_beta 90.000000
_cell_angle_gamma 90.000000
_cell_volume 2943.442638
_symmetry_space_group_name_H-M "P N M A"
_symmetry_group_IT_number 62
_symmetry_cell_setting 'orthorhombic'
loop_
_space_group_symop_operation_xyz
x,y,z
1/2-x,-y,1/2+z
1/2+x,1/2-y,1/2-z
-x,1/2+y,-z
-x,-y,-z
1/2+x,y,1/2-z
1/2-x,1/2+y,1/2+z
x,1/2-y,z
loop_
_atom_site_type_symbol
_atom_site_label
_atom_site_fract_x
_atom_site_fract_y
_atom_site_fract_z
Si Si1 0.918798 0.069173 0.462940
Si Si2 0.439820 0.430614 0.178703
Si Si3 0.904369 0.930893 0.876510
Si Si4 0.779831 0.930434 0.986864
Si Si5 0.297987 0.429415 0.280652
Si Si6 0.396759 0.071222 0.407146
Si Si7 0.110678 0.928506 0.256838
O O1 0.922905 0.250000 0.467126
O O2 0.924684 0.030056 0.391540
O O3 0.822663 0.019512 0.488293
O O4 0.000000 0.000000 0.500000
O O5 0.449522 0.250000 0.183153
O O6 0.356156 0.471438 0.221511
O O7 0.528411 0.505559 0.205051
O O8 0.903689 0.750000 0.867344
O O9 0.825708 0.971303 0.922762
O O10 0.999365 0.971738 0.906371
O O11 0.896047 0.008704 0.811690
O O12 0.780881 0.750000 0.989955
O O13 0.838985 0.993230 0.041283
O O14 0.281703 0.250000 0.277989
O O15 0.356071 0.460906 0.340640
O O16 0.204623 0.513613 0.282632
O O17 0.392207 0.250000 0.416335
O O18 0.107171 0.750000 0.257057
#
# Coordination Sequence:
#
# PCOD9465398 Si02
#       7
#     8   8   8   8   8   8   8
#     4  10  23  41  62  88 117 158 204 248 299 353
#     4  10  21  43  68  87 115 161 211 249 293 363
#     4  10  20  41  65  88 120 163 207 244 296 369
#     4  10  22  39  62  89 122 159 199 251 305 359
#     4  10  21  40  64  88 119 161 207 250 296 368
#     4  10  21  37  62  92 120 156 203 249 298 359
#     4  12  25  37  59  94 127 156 194 254 313 358
#
# _framework density 19.025342999999999
#
# number of rings (size 3 to 8) (size 9 to 14) (size 15 to 20)
#    0.000    1.714    1.429    2.571    2.000    5.714 
#    0.000    1.429    0.000    0.000    0.000    0.000 
#    0.000    0.000    0.000    0.000    0.000    0.000 
#
# Total GULP energy -313007.620235 kJ/mol
# GULP energy per Si atom -5589.421790 kJ/mol
# Density = 1.898204 g / cm^3
# Si number density = 19.025343 Si / 1000 Ang^3
#
#
#
# Elastic Constant Matrix: (Units=GPa)
#
#
# Indices 1 2 3 4 5 6 
#
# 1 91.8644 15.1768 -10.1289 0.0000 0.0000 0.0000
# 2 15.1768 13.3539 8.0377 0.0000 0.0000 0.0000
# 3 -10.1289 8.0377 30.6509 0.0000 0.0000 0.0000
# 4 0.0000 0.0000 0.0000 24.7320 0.0000 0.0000
# 5 0.0000 0.0000 0.0000 0.0000 23.2317 0.0000
# 6 0.0000 0.0000 0.0000 0.0000 0.0000 19.9540
#
#
#
# Elastic Compliance Matrix: (Units=1/GPa)
#
#
# Indices 1 2 3 4 5 6 
#
# 1 0.016600 -0.026323 0.012389 0.000000 0.000000 0.000000
# 2 -0.026323 0.130660 -0.042962 0.000000 0.000000 0.000000
# 3 0.012389 -0.042962 0.047985 0.000000 0.000000 0.000000
# 4 0.000000 0.000000 0.000000 0.040433 0.000000 0.000000
# 5 0.000000 0.000000 0.000000 0.000000 0.043045 0.000000
# 6 0.000000 0.000000 0.000000 0.000000 0.000000 0.050115
#
#
# Mechanical properties :
#
#
# Convention : Reuss Voigt Hill
#
# Bulk Modulus (GPa) = 12.27711 18.00450 15.14080
# Shear Modulus (GPa) = 10.64319 21.76913 16.20616
#
# Velocity S-wave (km/s) = 2.36778 3.38630 2.92176
# Velocity P-wave (km/s) = 3.73392 4.97728 4.39974
#
# Compressibility (1/GPa) = 0.08145242
#
# Stress axis : x y z
#
# Youngs Moduli (GPa) = 60.23950 7.65343 20.83965
#
# Poissons Ratio (x) = 0.20146 -0.25817
# Poissons Ratio (y) = 1.58570 0.89532
# Poissons Ratio (z) = -0.74628 0.32881
#
# Static dielectric constant tensor:
#      x y z
#    x 1.644250 0.000000 0.000000 
#    y 0.000000 1.639900 0.000000 
#    z 0.000000 0.000000 1.636330 
# 
# From -- ./inp_files/27154.got.cif
#   From: 2010.05.17/outbox.cif.g08.bks.cpg/sg62_14_cif.got.tgz:27154.got - 2010.06.03 15:25:27.
