data_PCOD9465021
_publ_section_title
;
Structure prediction by ZEFSAII (Michael W. Deem and Ramdas Pophale) SiO2 
 PCOD9465021
Probable space group: P N M A
;
_chemical_formula_sum "Si O2"
_cell_formula_units_Z 64
_cell_length_a 9.053985
_cell_length_b 30.102846
_cell_length_c 11.710431
_cell_angle_alpha 90.000000
_cell_angle_beta 90.000000
_cell_angle_gamma 90.000000
_cell_volume 3191.686355
_symmetry_space_group_name_H-M "P N M A"
_symmetry_group_IT_number 62
_symmetry_cell_setting 'orthorhombic'
loop_
_space_group_symop_operation_xyz
x,y,z
1/2-x,-y,1/2+z
1/2+x,1/2-y,1/2-z
-x,1/2+y,-z
-x,-y,-z
1/2+x,y,1/2-z
1/2-x,1/2+y,1/2+z
x,1/2-y,z
loop_
_atom_site_type_symbol
_atom_site_label
_atom_site_fract_x
_atom_site_fract_y
_atom_site_fract_z
Si Si1 0.524736 0.509199 0.366500
Si Si2 0.768452 0.386904 0.346628
Si Si3 0.452006 0.051788 0.988239
Si Si4 0.442345 0.412958 0.365310
Si Si5 0.249871 0.441129 0.766353
Si Si6 0.254096 0.699847 0.913894
Si Si7 0.074022 0.699976 0.691269
Si Si8 0.761949 0.611182 0.444968
O O1 0.500000 0.500000 0.500000
O O2 0.484726 0.461063 0.317165
O O3 0.405795 0.543838 0.317559
O O4 0.686375 0.523183 0.324985
O O5 0.841362 0.426791 0.418983
O O6 0.594105 0.386314 0.360680
O O7 0.813008 0.395512 0.215633
O O8 0.842965 0.339654 0.374162
O O9 0.365066 0.057860 0.869439
O O10 0.596238 0.083100 0.986688
O O11 0.500000 0.000000 0.000000
O O12 0.378687 0.411315 0.492691
O O13 0.243900 0.396541 0.690982
O O14 0.253764 0.750000 0.961757
O O15 0.118341 0.696359 0.824772
O O16 0.401037 0.695551 0.835513
O O17 0.260683 0.661310 0.008110
O O18 0.119242 0.750000 0.656270
#
# Coordination Sequence:
#
# PCOD9465021 Si02
#       8
#     8   8   8   8   8   8   8   8
#     4  12  24  43  62  92 127 176 218 273 327 385
#     4  12  23  39  63  96 132 175 218 275 332 394
#     4  12  26  44  64  91 132 179 225 274 333 392
#     4  12  24  37  62  91 134 172 218 267 328 400
#     4  12  26  44  65  91 128 171 228 276 322 398
#     4  10  21  40  66  97 135 174 217 276 340 404
#     4  10  20  37  62  96 133 170 213 270 337 395
#     4  12  24  43  63  94 131 174 221 270 338 401
#
# _framework density 20.052094
#
# number of rings (size 3 to 8) (size 9 to 14) (size 15 to 20)
#    0.000    0.500    5.000    4.500    1.750    0.000 
#    0.000    0.000    0.000    1.500    0.000    0.000 
#    0.000    0.000    0.000    0.000    0.000    0.000 
#
# Total GULP energy -357621.713355 kJ/mol
# GULP energy per Si atom -5587.839271 kJ/mol
# Density = 2.000645 g / cm^3
# Si number density = 20.052094 Si / 1000 Ang^3
#
#
#
# Elastic Constant Matrix: (Units=GPa)
#
#
# Indices 1 2 3 4 5 6 
#
# 1 90.1672 21.8496 33.1139 0.0000 0.0000 0.0000
# 2 21.8496 144.7245 43.1578 0.0000 0.0000 0.0000
# 3 33.1139 43.1578 106.4180 0.0000 0.0000 0.0000
# 4 0.0000 0.0000 0.0000 33.4808 0.0000 0.0000
# 5 0.0000 0.0000 0.0000 0.0000 39.0300 0.0000
# 6 0.0000 0.0000 0.0000 0.0000 0.0000 31.5594
#
#
#
# Elastic Compliance Matrix: (Units=1/GPa)
#
#
# Indices 1 2 3 4 5 6 
#
# 1 0.012609 -0.000835 -0.003585 0.000000 0.000000 0.000000
# 2 -0.000835 0.007916 -0.002950 0.000000 0.000000 0.000000
# 3 -0.003585 -0.002950 0.011709 0.000000 0.000000 0.000000
# 4 0.000000 0.000000 0.000000 0.029868 0.000000 0.000000
# 5 0.000000 0.000000 0.000000 0.000000 0.025621 0.000000
# 6 0.000000 0.000000 0.000000 0.000000 0.000000 0.031686
#
#
# Mechanical properties :
#
#
# Convention : Reuss Voigt Hill
#
# Bulk Modulus (GPa) = 57.16384 59.72805 58.44594
# Shear Modulus (GPa) = 35.71912 37.02660 36.37286
#
# Velocity S-wave (km/s) = 4.22514 4.30178 4.26363
# Velocity P-wave (km/s) = 7.23685 7.38409 7.31084
#
# Compressibility (1/GPa) = 0.01749358
#
# Stress axis : x y z
#
# Youngs Moduli (GPa) = 79.30595 126.33411 85.40396
#
# Poissons Ratio (x) = 0.10543 0.30619
# Poissons Ratio (y) = 0.06619 0.25198
# Poissons Ratio (z) = 0.28433 0.37274
#
# Static dielectric constant tensor:
#      x y z
#    x 1.734330 0.000000 0.000000 
#    y 0.000000 1.788180 0.000000 
#    z 0.000000 0.000000 1.745770 
# 
# From -- ./inp_files/11566.got.cif
#   From: 2010.05.17/outbox.cif.g08.bks.cpg/sg62_6_cif.got.tgz:11566.got - 2010.06.03 15:25:27.
