data_PCOD9465713
_publ_section_title
;
Structure prediction by ZEFSAII (Michael W. Deem and Ramdas Pophale) SiO2 
 PCOD9465713
Probable space group: P N M A
;
_chemical_formula_sum "Si O2"
_cell_formula_units_Z 48
_cell_length_a 7.977862
_cell_length_b 15.029541
_cell_length_c 17.348373
_cell_angle_alpha 90.000000
_cell_angle_beta 90.000000
_cell_angle_gamma 90.000000
_cell_volume 2080.132447
_symmetry_space_group_name_H-M "P N M A"
_symmetry_group_IT_number 62
_symmetry_cell_setting 'orthorhombic'
loop_
_space_group_symop_operation_xyz
x,y,z
1/2-x,-y,1/2+z
1/2+x,1/2-y,1/2-z
-x,1/2+y,-z
-x,-y,-z
1/2+x,y,1/2-z
1/2-x,1/2+y,1/2+z
x,1/2-y,z
loop_
_atom_site_type_symbol
_atom_site_label
_atom_site_fract_x
_atom_site_fract_y
_atom_site_fract_z
Si Si1 0.092314 0.146530 0.570330
Si Si2 0.367088 0.026832 0.283342
Si Si3 0.768240 0.649063 0.152011
Si Si4 0.274949 0.521501 0.633718
Si Si5 0.279676 0.851992 0.912472
Si Si6 0.086168 0.351217 0.009393
O O1 0.148356 0.250000 0.575930
O O2 0.085654 0.125406 0.478582
O O3 0.913978 0.140473 0.612786
O O4 0.214464 0.075274 0.608266
O O5 0.551377 0.025974 0.318985
O O6 0.357163 0.059562 0.195808
O O7 0.250795 0.083573 0.341050
O O8 0.300014 0.925667 0.285358
O O9 0.789696 0.750000 0.180141
O O10 0.895315 0.631271 0.081105
O O11 0.306446 0.579942 0.558301
O O12 0.304693 0.750000 0.886906
O O13 0.103158 0.855866 0.959906
O O14 0.147285 0.250000 0.021469
#
# Coordination Sequence:
#
# PCOD9465713 Si02
#       6
#     8   8   8   8   8   8
#     4  10  21  37  58  83 109 140 180 225 271 319
#     4  11  23  37  55  80 111 147 182 220 269 321
#     4  10  21  37  58  83 109 140 180 225 271 319
#     4  11  23  37  55  80 111 147 182 220 269 321
#     4   9  19  37  59  82 109 142 180 221 267 320
#     4   9  19  37  59  82 109 142 180 221 267 320
#
# _framework density 23.075455000000002
#
# number of rings (size 3 to 8) (size 9 to 14) (size 15 to 20)
#    0.000    2.000    0.000    3.000    0.000   10.000 
#    0.000    0.000    0.000    0.000    0.000    0.000 
#    0.000    0.000    0.000    0.000    0.000    0.000 
#
# Total GULP energy -268583.114321 kJ/mol
# GULP energy per Si atom -5595.481548 kJ/mol
# Density = 2.302293 g / cm^3
# Si number density = 23.075455 Si / 1000 Ang^3
#
#
#
# Elastic Constant Matrix: (Units=GPa)
#
#
# Indices 1 2 3 4 5 6 
#
# 1 59.4849 9.0646 -14.4820 0.0000 0.0000 0.0000
# 2 9.0646 39.4301 16.6791 0.0000 0.0000 0.0000
# 3 -14.4820 16.6791 33.3271 0.0000 0.0000 0.0000
# 4 0.0000 0.0000 0.0000 -3.8928 0.0000 0.0000
# 5 0.0000 0.0000 0.0000 0.0000 34.6529 0.0000
# 6 0.0000 0.0000 0.0000 0.0000 0.0000 20.4356
#
#
#
# Elastic Compliance Matrix: (Units=1/GPa)
#
#
# Indices 1 2 3 4 5 6 
#
# 1 0.022406 -0.011759 0.015621 0.000000 0.000000 0.000000
# 2 -0.011759 0.038343 -0.024299 0.000000 0.000000 0.000000
# 3 0.015621 -0.024299 0.048955 0.000000 0.000000 0.000000
# 4 0.000000 0.000000 0.000000 -0.256882 0.000000 0.000000
# 5 0.000000 0.000000 0.000000 0.000000 0.028858 0.000000
# 6 0.000000 0.000000 0.000000 0.000000 0.000000 0.048934
#
#
# Mechanical properties :
#
#
# Convention : Reuss Voigt Hill
#
# Bulk Modulus (GPa) = 14.52849 17.19618 15.86233
# Shear Modulus (GPa) = -897.69873 18.30450 -439.69711
#
# Velocity S-wave (km/s) = -19.74518 2.81952 -13.81887
# Velocity P-wave (km/s) = 22.66097 4.25064 15.73931
#
# Compressibility (1/GPa) = 0.06883028
#
# Stress axis : x y z
#
# Youngs Moduli (GPa) = 44.63108 26.08025 20.42706
#
# Poissons Ratio (x) = 0.30667 -0.31909
# Poissons Ratio (y) = 0.52480 0.49636
# Poissons Ratio (z) = -0.69719 0.63373
#
# Static dielectric constant tensor:
#      x y z
#    x 1.908130 0.000000 0.000000 
#    y 0.000000 1.836600 0.000000 
#    z 0.000000 0.000000 1.848130 
# 
# From -- ./inp_files/22179.got.cif
#   From: 2010.05.17/outbox.cif.g08.bks.cpg/sg62_12_cif.got.tgz:22179.got - 2010.06.03 15:25:27.
