data_PCOD9465402
_publ_section_title
;
Structure prediction by ZEFSAII (Michael W. Deem and Ramdas Pophale) SiO2 
 PCOD9465402
Probable space group: P N M A
;
_chemical_formula_sum "Si O2"
_cell_formula_units_Z 40
_cell_length_a 14.044776
_cell_length_b 16.749622
_cell_length_c 7.368790
_cell_angle_alpha 90.000000
_cell_angle_beta 90.000000
_cell_angle_gamma 90.000000
_cell_volume 1733.468712
_symmetry_space_group_name_H-M "P N M A"
_symmetry_group_IT_number 62
_symmetry_cell_setting 'orthorhombic'
loop_
_space_group_symop_operation_xyz
x,y,z
1/2-x,-y,1/2+z
1/2+x,1/2-y,1/2-z
-x,1/2+y,-z
-x,-y,-z
1/2+x,y,1/2-z
1/2-x,1/2+y,1/2+z
x,1/2-y,z
loop_
_atom_site_type_symbol
_atom_site_label
_atom_site_fract_x
_atom_site_fract_y
_atom_site_fract_z
Si Si1 0.279218 0.610100 0.893680
Si Si2 0.003996 0.114499 0.871609
Si Si3 0.799966 0.250000 0.285048
Si Si4 0.849776 0.980291 0.955055
Si Si5 0.690601 0.250000 0.847914
Si Si6 0.600652 0.750000 0.167897
Si Si7 0.090291 0.250000 0.044557
O O1 0.192959 0.667700 0.824654
O O2 0.329853 0.577796 0.713236
O O3 0.242222 0.530947 0.992028
O O4 0.329992 0.671297 0.031913
O O5 0.021686 0.173775 0.043136
O O6 0.961236 0.172126 0.717770
O O7 0.105778 0.068691 0.875494
O O8 0.927175 0.045881 0.898968
O O9 0.863194 0.250000 0.462736
O O10 0.685279 0.250000 0.336345
O O11 0.802531 0.250000 0.789587
O O12 0.634223 0.250000 0.660200
#
# Coordination Sequence:
#
# PCOD9465402 Si02
#       7
#     8   8   4   8   4   4   4
#     4  11  24  40  66  91 126 166 218 255 304 386
#     4  10  22  40  61  93 125 169 196 268 328 360
#     4  10  22  41  65  95 115 173 211 256 296 398
#     4  11  24  40  64  91 130 166 212 261 320 364
#     4  10  22  41  65  95 115 173 211 256 296 398
#     4  10  20  41  67  84 127 164 212 251 316 381
#     4  10  20  41  67  84 127 164 212 251 316 381
#
# _framework density 23.075122
#
# number of rings (size 3 to 8) (size 9 to 14) (size 15 to 20)
#    0.000    1.600    4.000    0.000    5.600    0.000 
#    0.000   10.000    0.000    0.000    0.000    0.000 
#    0.000    0.000    0.000    0.000    0.000    0.000 
#
# Total GULP energy -223072.400638 kJ/mol
# GULP energy per Si atom -5576.810016 kJ/mol
# Density = 2.302260 g / cm^3
# Si number density = 23.075122 Si / 1000 Ang^3
#
#
#
# Elastic Constant Matrix: (Units=GPa)
#
#
# Indices 1 2 3 4 5 6 
#
# 1 79.2978 29.1575 28.8538 0.0000 0.0000 0.0000
# 2 29.1575 151.5891 38.1990 0.0000 0.0000 0.0000
# 3 28.8538 38.1990 99.2713 0.0000 0.0000 0.0000
# 4 0.0000 0.0000 0.0000 26.3595 0.0000 0.0000
# 5 0.0000 0.0000 0.0000 0.0000 27.3367 0.0000
# 6 0.0000 0.0000 0.0000 0.0000 0.0000 24.9417
#
#
#
# Elastic Compliance Matrix: (Units=1/GPa)
#
#
# Indices 1 2 3 4 5 6 
#
# 1 0.014592 -0.001925 -0.003501 0.000000 0.000000 0.000000
# 2 -0.001925 0.007559 -0.002349 0.000000 0.000000 0.000000
# 3 -0.003501 -0.002349 0.011995 0.000000 0.000000 0.000000
# 4 0.000000 0.000000 0.000000 0.037937 0.000000 0.000000
# 5 0.000000 0.000000 0.000000 0.000000 0.036581 0.000000
# 6 0.000000 0.000000 0.000000 0.000000 0.000000 0.040094
#
#
# Mechanical properties :
#
#
# Convention : Reuss Voigt Hill
#
# Bulk Modulus (GPa) = 53.77249 58.06432 55.91840
# Shear Modulus (GPa) = 29.32459 31.32411 30.32435
#
# Velocity S-wave (km/s) = 3.56874 3.68840 3.62906
# Velocity P-wave (km/s) = 6.35099 6.58459 6.46884
#
# Compressibility (1/GPa) = 0.01859687
#
# Stress axis : x y z
#
# Youngs Moduli (GPa) = 68.53004 132.29339 83.36885
#
# Poissons Ratio (x) = 0.25461 0.29185
# Poissons Ratio (y) = 0.13189 0.19585
# Poissons Ratio (z) = 0.23990 0.31079
#
# Static dielectric constant tensor:
#      x y z
#    x 1.883210 0.000000 0.000000 
#    y 0.000000 1.925280 0.000000 
#    z 0.000000 0.000000 1.869430 
# 
# From -- ./inp_files/7510.got.cif
#   From: 2010.05.17/outbox.cif.g08.bks.cpg/sg62_4_cif.got.tgz:7510.got - 2010.06.03 15:25:27.
