data_PCOD9465821
_publ_section_title
;
Structure prediction by ZEFSAII (Michael W. Deem and Ramdas Pophale) SiO2 
 PCOD9465821
Probable space group: P N M A
;
_chemical_formula_sum "Si O2"
_cell_formula_units_Z 32
_cell_length_a 17.394587
_cell_length_b 17.057695
_cell_length_c 4.990718
_cell_angle_alpha 90.000000
_cell_angle_beta 90.000000
_cell_angle_gamma 90.000000
_cell_volume 1480.803722
_symmetry_space_group_name_H-M "P N M A"
_symmetry_group_IT_number 62
_symmetry_cell_setting 'orthorhombic'
loop_
_space_group_symop_operation_xyz
x,y,z
1/2-x,-y,1/2+z
1/2+x,1/2-y,1/2-z
-x,1/2+y,-z
-x,-y,-z
1/2+x,y,1/2-z
1/2-x,1/2+y,1/2+z
x,1/2-y,z
loop_
_atom_site_type_symbol
_atom_site_label
_atom_site_fract_x
_atom_site_fract_y
_atom_site_fract_z
Si Si1 0.818389 0.082016 0.830411
Si Si2 0.066687 0.337898 0.389032
Si Si3 0.493059 0.412298 0.616327
Si Si4 0.276832 0.897706 0.670534
O O1 0.757638 0.117351 0.621052
O O2 0.906812 0.100620 0.778374
O O3 0.807325 0.987678 0.818444
O O4 0.793580 0.107901 0.124564
O O5 0.053153 0.250000 0.487010
O O6 0.050407 0.396081 0.636839
O O7 0.152388 0.347113 0.273035
O O8 0.012991 0.358019 0.136302
O O9 0.500000 0.500000 0.500000
#
# Coordination Sequence:
#
# PCOD9465821 Si02
#       4
#     8   8   8   8
#     4  10  21  37  64  98 125 161 224 281 323 376
#     4  12  26  44  65  98 140 183 221 276 350 410
#     4  12  24  42  71 101 132 177 230 285 330 399
#     4  10  21  38  63  94 130 166 215 280 327 397
#
# _framework density 21.609884999999998
#
# number of rings (size 3 to 8) (size 9 to 14) (size 15 to 20)
#    0.000    1.000    2.500    4.500    7.000    0.000 
#    0.000    7.500    0.000    0.000    0.000    0.000 
#    0.000    0.000    0.000    0.000    0.000    0.000 
#
# Total GULP energy -178996.971078 kJ/mol
# GULP energy per Si atom -5593.655346 kJ/mol
# Density = 2.156070 g / cm^3
# Si number density = 21.609885 Si / 1000 Ang^3
#
#
#
# Elastic Constant Matrix: (Units=GPa)
#
#
# Indices 1 2 3 4 5 6 
#
# 1 85.6092 19.4570 1.1918 0.0000 0.0000 0.0000
# 2 19.4570 48.3624 15.2242 0.0000 0.0000 0.0000
# 3 1.1918 15.2242 86.6799 0.0000 0.0000 0.0000
# 4 0.0000 0.0000 0.0000 21.1750 0.0000 0.0000
# 5 0.0000 0.0000 0.0000 0.0000 39.3750 0.0000
# 6 0.0000 0.0000 0.0000 0.0000 0.0000 4.2208
#
#
#
# Elastic Compliance Matrix: (Units=1/GPa)
#
#
# Indices 1 2 3 4 5 6 
#
# 1 0.012906 -0.005437 0.000777 0.000000 0.000000 0.000000
# 2 -0.005437 0.024178 -0.004172 0.000000 0.000000 0.000000
# 3 0.000777 -0.004172 0.012259 0.000000 0.000000 0.000000
# 4 0.000000 0.000000 0.000000 0.047225 0.000000 0.000000
# 5 0.000000 0.000000 0.000000 0.000000 0.025397 0.000000
# 6 0.000000 0.000000 0.000000 0.000000 0.000000 0.236922
#
#
# Mechanical properties :
#
#
# Convention : Reuss Voigt Hill
#
# Bulk Modulus (GPa) = 31.56575 32.48860 32.02717
# Shear Modulus (GPa) = 12.91626 25.27272 19.09449
#
# Velocity S-wave (km/s) = 2.44745 3.42350 2.97577
# Velocity P-wave (km/s) = 4.75662 5.54021 5.16330
#
# Compressibility (1/GPa) = 0.03167991
#
# Stress axis : x y z
#
# Youngs Moduli (GPa) = 77.48409 41.36015 81.57453
#
# Poissons Ratio (x) = 0.22488 -0.06342
# Poissons Ratio (y) = 0.42128 0.34031
# Poissons Ratio (z) = -0.06024 0.17254
#
# Static dielectric constant tensor:
#      x y z
#    x 1.768970 0.000000 0.000000 
#    y 0.000000 1.776630 0.000000 
#    z 0.000000 0.000000 1.751840 
# 
# From -- ./inp_files/890.got.cif
#   From: 2010.05.17/outbox.cif.g08.bks.cpg/sg62_1_cif.got.tgz:890.got - 2010.06.03 15:25:27.
