data_PCOD9465542
_publ_section_title
;
Structure prediction by ZEFSAII (Michael W. Deem and Ramdas Pophale) SiO2 
 PCOD9465542
Probable space group: P N M A
;
_chemical_formula_sum "Si O2"
_cell_formula_units_Z 64
_cell_length_a 7.927652
_cell_length_b 21.111507
_cell_length_c 18.132638
_cell_angle_alpha 90.000000
_cell_angle_beta 90.000000
_cell_angle_gamma 90.000000
_cell_volume 3034.763169
_symmetry_space_group_name_H-M "P N M A"
_symmetry_group_IT_number 62
_symmetry_cell_setting 'orthorhombic'
loop_
_space_group_symop_operation_xyz
x,y,z
1/2-x,-y,1/2+z
1/2+x,1/2-y,1/2-z
-x,1/2+y,-z
-x,-y,-z
1/2+x,y,1/2-z
1/2-x,1/2+y,1/2+z
x,1/2-y,z
loop_
_atom_site_type_symbol
_atom_site_label
_atom_site_fract_x
_atom_site_fract_y
_atom_site_fract_z
Si Si1 0.545584 0.822195 0.717221
Si Si2 0.224298 0.430117 0.465990
Si Si3 0.731709 0.926977 0.035348
Si Si4 0.908915 0.178960 0.633205
Si Si5 0.411437 0.927186 0.615706
Si Si6 0.906526 0.069885 0.882907
Si Si7 0.230320 0.678557 0.213006
Si Si8 0.904561 0.822087 0.632362
O O1 0.481730 0.750000 0.707356
O O2 0.430057 0.873604 0.676653
O O3 0.728753 0.824460 0.679141
O O4 0.543523 0.834271 0.804759
O O5 0.161259 0.501909 0.455739
O O6 0.406028 0.428365 0.424871
O O7 0.271563 0.420141 0.551218
O O8 0.112937 0.375585 0.429358
O O9 0.618356 0.874001 0.072491
O O10 0.910552 0.925819 0.078964
O O11 0.778643 0.915593 0.949929
O O12 0.895261 0.250000 0.602092
O O13 0.772461 0.171836 0.698936
O O14 0.086231 0.174172 0.676105
O O15 0.383588 0.998138 0.645914
O O16 0.878747 0.123131 0.822600
O O17 0.164643 0.750000 0.197501
O O18 0.922227 0.750000 0.603573
#
# Coordination Sequence:
#
# PCOD9465542 Si02
#       8
#     8   8   8   8   8   8   8   8
#     4   9  17  30  47  67  93 125 160 195 231 275
#     4   8  16  31  50  73 100 129 160 195 238 289
#     4   9  17  32  53  74  98 127 160 199 241 288
#     4  10  21  36  52  72  99 129 163 204 248 295
#     4   8  16  31  50  73 100 129 160 195 238 289
#     4   9  17  32  53  74  98 127 160 199 241 288
#     4  10  21  36  52  72  99 129 163 204 248 295
#     4   9  17  30  47  67  93 125 160 195 231 275
#
# _framework density 21.08896
#
# number of rings (size 3 to 8) (size 9 to 14) (size 15 to 20)
#    0.000    3.000    0.000    2.250    0.000    3.500 
#    0.000   10.000    0.000    3.000    0.000    0.000 
#    0.000    0.000    0.000    0.000    0.000    0.000 
#
# Total GULP energy -357349.303142 kJ/mol
# GULP energy per Si atom -5583.582862 kJ/mol
# Density = 2.104096 g / cm^3
# Si number density = 21.088960 Si / 1000 Ang^3
#
#
#
# Elastic Constant Matrix: (Units=GPa)
#
#
# Indices 1 2 3 4 5 6 
#
# 1 67.1096 39.8059 14.4719 0.0000 0.0000 0.0000
# 2 39.8059 103.1189 54.4593 0.0000 0.0000 0.0000
# 3 14.4719 54.4593 46.4145 0.0000 0.0000 0.0000
# 4 0.0000 0.0000 0.0000 192.2349 0.0000 0.0000
# 5 0.0000 0.0000 0.0000 0.0000 31.9306 0.0000
# 6 0.0000 0.0000 0.0000 0.0000 0.0000 7.5265
#
#
#
# Elastic Compliance Matrix: (Units=1/GPa)
#
#
# Indices 1 2 3 4 5 6 
#
# 1 0.020279 -0.011802 0.007525 0.000000 0.000000 0.000000
# 2 -0.011802 0.032365 -0.034295 0.000000 0.000000 0.000000
# 3 0.007525 -0.034295 0.059439 0.000000 0.000000 0.000000
# 4 0.000000 0.000000 0.000000 0.005202 0.000000 0.000000
# 5 0.000000 0.000000 0.000000 0.000000 0.031318 0.000000
# 6 0.000000 0.000000 0.000000 0.000000 0.000000 0.132864
#
#
# Mechanical properties :
#
#
# Convention : Reuss Voigt Hill
#
# Bulk Modulus (GPa) = 28.62274 48.23525 38.42899
# Shear Modulus (GPa) = 13.50413 53.53212 33.51813
#
# Velocity S-wave (km/s) = 2.53324 5.04372 3.99101
# Velocity P-wave (km/s) = 4.70726 7.53928 6.28486
#
# Compressibility (1/GPa) = 0.03493726
#
# Stress axis : x y z
#
# Youngs Moduli (GPa) = 49.31306 30.89714 16.82410
#
# Poissons Ratio (x) = 0.36464 -0.12659
# Poissons Ratio (y) = 0.58199 0.57699
# Poissons Ratio (z) = -0.37106 1.05963
#
# Static dielectric constant tensor:
#      x y z
#    x 1.820490 0.000000 0.000000 
#    y 0.000000 1.736220 0.000000 
#    z 0.000000 0.000000 1.713220 
# 
# From -- ./inp_files/22569.got.cif
#   From: 2010.05.17/outbox.cif.g08.bks.cpg/sg62_12_cif.got.tgz:22569.got - 2010.06.03 15:25:27.
