data_PCOD9465546
_publ_section_title
;
Structure prediction by ZEFSAII (Michael W. Deem and Ramdas Pophale) SiO2 
 PCOD9465546
Probable space group: P N M A
;
_chemical_formula_sum "Si O2"
_cell_formula_units_Z 64
_cell_length_a 29.868859
_cell_length_b 9.374572
_cell_length_c 11.310968
_cell_angle_alpha 90.000000
_cell_angle_beta 90.000000
_cell_angle_gamma 90.000000
_cell_volume 3167.158918
_symmetry_space_group_name_H-M "P N M A"
_symmetry_group_IT_number 62
_symmetry_cell_setting 'orthorhombic'
loop_
_space_group_symop_operation_xyz
x,y,z
1/2-x,-y,1/2+z
1/2+x,1/2-y,1/2-z
-x,1/2+y,-z
-x,-y,-z
1/2+x,y,1/2-z
1/2-x,1/2+y,1/2+z
x,1/2-y,z
loop_
_atom_site_type_symbol
_atom_site_label
_atom_site_fract_x
_atom_site_fract_y
_atom_site_fract_z
Si Si1 0.972457 0.084125 0.597907
Si Si2 0.819297 0.592604 0.615895
Si Si3 0.840379 0.577137 0.873707
Si Si4 0.679714 0.908996 0.772360
Si Si5 0.751967 0.576194 0.425353
Si Si6 0.390644 0.079970 0.433210
Si Si7 0.456416 0.914765 0.268762
Si Si8 0.107406 0.004881 0.551898
O O1 0.983231 0.250000 0.589360
O O2 0.993934 0.040196 0.723718
O O3 0.922235 0.063557 0.552246
O O4 0.000000 0.000000 0.500000
O O5 0.803884 0.750000 0.650506
O O6 0.839354 0.531842 0.735757
O O7 0.777728 0.528004 0.545192
O O8 0.858104 0.602386 0.518460
O O9 0.841876 0.750000 0.886038
O O10 0.794441 0.506447 0.919507
O O11 0.880041 0.504501 0.947367
O O12 0.699225 0.750000 0.761350
O O13 0.652361 0.944761 0.653642
O O14 0.716567 0.020727 0.817587
O O15 0.640488 0.906182 0.871835
O O16 0.747776 0.750000 0.423529
O O17 0.394662 0.250000 0.450011
O O18 0.433364 0.015747 0.364754
O O19 0.456618 0.750000 0.308207
O O20 0.424831 0.926080 0.150838
#
# Coordination Sequence:
#
# PCOD9465546 Si02
#       8
#     8   8   8   8   8   8   8   8
#     4   9  17  28  47  79 115 145 175 215 263 314
#     4   9  20  37  55  76 106 140 172 215 266 317
#     4  11  23  38  56  77 101 136 178 218 264 317
#     4   9  18  32  52  76 104 138 171 210 260 312
#     4  10  21  37  55  77 104 132 168 215 264 313
#     4  10  21  36  53  74 104 139 176 219 264 308
#     4   9  17  30  52  81 110 140 175 214 260 318
#     4   9  16  30  53  80 110 141 175 216 263 313
#
# _framework density 20.207384999999999
#
# number of rings (size 3 to 8) (size 9 to 14) (size 15 to 20)
#    0.000    2.500    0.000    1.875    1.750    7.000 
#    0.000    6.875    0.000    0.750    0.000    0.000 
#    0.000    0.000    0.000    0.000    0.000    0.000 
#
# Total GULP energy -356286.224922 kJ/mol
# GULP energy per Si atom -5566.972264 kJ/mol
# Density = 2.016139 g / cm^3
# Si number density = 20.207385 Si / 1000 Ang^3
#
#
#
# Elastic Constant Matrix: (Units=GPa)
#
#
# Indices 1 2 3 4 5 6 
#
# 1 18.5152 -7.7924 -16.4498 0.0000 0.0000 0.0000
# 2 -7.7924 60.5671 2.1883 0.0000 0.0000 0.0000
# 3 -16.4498 2.1883 60.8938 0.0000 0.0000 0.0000
# 4 0.0000 0.0000 0.0000 10.7766 0.0000 0.0000
# 5 0.0000 0.0000 0.0000 0.0000 15.1490 0.0000
# 6 0.0000 0.0000 0.0000 0.0000 0.0000 11.1026
#
#
#
# Elastic Compliance Matrix: (Units=1/GPa)
#
#
# Indices 1 2 3 4 5 6 
#
# 1 0.075677 0.009009 0.020120 0.000000 0.000000 0.000000
# 2 0.009009 0.017605 0.001801 0.000000 0.000000 0.000000
# 3 0.020120 0.001801 0.021792 0.000000 0.000000 0.000000
# 4 0.000000 0.000000 0.000000 0.092794 0.000000 0.000000
# 5 0.000000 0.000000 0.000000 0.000000 0.066011 0.000000
# 6 0.000000 0.000000 0.000000 0.000000 0.000000 0.090069
#
#
# Mechanical properties :
#
#
# Convention : Reuss Voigt Hill
#
# Bulk Modulus (GPa) = 5.65181 10.65200 8.15191
# Shear Modulus (GPa) = 13.84791 18.20763 16.02777
#
# Velocity S-wave (km/s) = 2.62064 3.00499 2.81937
# Velocity P-wave (km/s) = 3.45832 4.16206 3.82640
#
# Compressibility (1/GPa) = 0.17693438
#
# Stress axis : x y z
#
# Youngs Moduli (GPa) = 13.21409 56.80305 45.88754
#
# Poissons Ratio (x) = -0.51177 -0.92324
# Poissons Ratio (y) = -0.11905 -0.08265
# Poissons Ratio (z) = -0.26586 -0.10231
#
# Static dielectric constant tensor:
#      x y z
#    x 1.764950 0.000000 0.000000 
#    y 0.000000 1.696780 0.000000 
#    z 0.000000 0.000000 1.764800 
# 
# From -- ./inp_files/15868.got.cif
#   From: 2010.05.17/outbox.cif.g08.bks.cpg/sg62_8_cif.got.tgz:15868.got - 2010.06.03 15:25:27.
