data_PCOD9465164
_publ_section_title
;
Structure prediction by ZEFSAII (Michael W. Deem and Ramdas Pophale) SiO2 
 PCOD9465164
Probable space group: P N M A
;
_chemical_formula_sum "Si O2"
_cell_formula_units_Z 56
_cell_length_a 13.393299
_cell_length_b 14.330102
_cell_length_c 13.307724
_cell_angle_alpha 90.000000
_cell_angle_beta 90.000000
_cell_angle_gamma 90.000000
_cell_volume 2554.116079
_symmetry_space_group_name_H-M "P N M A"
_symmetry_group_IT_number 62
_symmetry_cell_setting 'orthorhombic'
loop_
_space_group_symop_operation_xyz
x,y,z
1/2-x,-y,1/2+z
1/2+x,1/2-y,1/2-z
-x,1/2+y,-z
-x,-y,-z
1/2+x,y,1/2-z
1/2-x,1/2+y,1/2+z
x,1/2-y,z
loop_
_atom_site_type_symbol
_atom_site_label
_atom_site_fract_x
_atom_site_fract_y
_atom_site_fract_z
Si Si1 0.274189 0.487938 0.873200
Si Si2 0.084848 0.078522 0.500388
Si Si3 0.455110 0.861221 0.602294
Si Si4 0.922284 0.638295 0.113498
Si Si5 0.962834 0.356475 0.680249
Si Si6 0.972018 0.140849 0.312299
Si Si7 0.254395 0.138779 0.198005
O O1 0.306504 0.536953 0.978449
O O2 0.178224 0.421968 0.877417
O O3 0.371383 0.426021 0.842668
O O4 0.257476 0.569922 0.792004
O O5 0.055167 0.132062 0.601258
O O6 0.055225 0.129595 0.396616
O O7 0.000000 0.000000 0.500000
O O8 0.475387 0.750000 0.602190
O O9 0.477407 0.891642 0.489597
O O10 0.506400 0.902299 0.702576
O O11 0.337416 0.873896 0.623056
O O12 0.898363 0.750000 0.106139
O O13 0.992142 0.627010 0.209987
O O14 0.926567 0.250000 0.671500
O O15 0.966980 0.250000 0.294851
O O16 0.861944 0.114264 0.349051
O O17 0.252540 0.250000 0.226130
#
# Coordination Sequence:
#
# PCOD9465164 Si02
#       7
#     8   8   8   8   8   8   8
#     4  11  23  38  65  94 128 160 215 259 315 374
#     4  10  22  36  59  89 121 157 200 262 312 365
#     4   9  19  38  63  89 119 157 205 254 308 372
#     4  10  23  42  64  91 127 171 212 252 307 383
#     4  10  23  43  65  91 128 172 214 258 313 377
#     4  10  20  38  63  89 119 158 203 258 318 370
#     4  10  22  37  62  93 123 158 201 261 320 370
#
# _framework density 21.925393
#
# number of rings (size 3 to 8) (size 9 to 14) (size 15 to 20)
#    0.000    2.000    1.429    0.857    8.000    0.571 
#    0.000    4.286    0.000    3.429    0.000    0.000 
#    0.000    0.000    0.000    0.000    0.000    0.000 
#
# Total GULP energy -312376.703792 kJ/mol
# GULP energy per Si atom -5578.155425 kJ/mol
# Density = 2.187549 g / cm^3
# Si number density = 21.925393 Si / 1000 Ang^3
#
#
#
# Elastic Constant Matrix: (Units=GPa)
#
#
# Indices 1 2 3 4 5 6 
#
# 1 37.2825 12.1296 -4.0282 0.0000 0.0000 0.0000
# 2 12.1296 61.2788 8.8030 0.0000 0.0000 0.0000
# 3 -4.0282 8.8030 113.6323 0.0000 0.0000 0.0000
# 4 0.0000 0.0000 0.0000 15.6409 0.0000 0.0000
# 5 0.0000 0.0000 0.0000 0.0000 18.8805 0.0000
# 6 0.0000 0.0000 0.0000 0.0000 0.0000 25.7195
#
#
#
# Elastic Compliance Matrix: (Units=1/GPa)
#
#
# Indices 1 2 3 4 5 6 
#
# 1 0.028914 -0.005937 0.001485 0.000000 0.000000 0.000000
# 2 -0.005937 0.017721 -0.001583 0.000000 0.000000 0.000000
# 3 0.001485 -0.001583 0.008976 0.000000 0.000000 0.000000
# 4 0.000000 0.000000 0.000000 0.063935 0.000000 0.000000
# 5 0.000000 0.000000 0.000000 0.000000 0.052965 0.000000
# 6 0.000000 0.000000 0.000000 0.000000 0.000000 0.038881
#
#
# Mechanical properties :
#
#
# Convention : Reuss Voigt Hill
#
# Bulk Modulus (GPa) = 22.96684 27.33361 25.15023
# Shear Modulus (GPa) = 21.01056 25.06745 23.03901
#
# Velocity S-wave (km/s) = 3.09896 3.38495 3.24511
# Velocity P-wave (km/s) = 4.82726 5.26981 5.05338
#
# Compressibility (1/GPa) = 0.04354104
#
# Stress axis : x y z
#
# Youngs Moduli (GPa) = 34.58525 56.42895 111.41306
#
# Poissons Ratio (x) = 0.33500 -0.16544
# Poissons Ratio (y) = 0.20532 0.17640
# Poissons Ratio (z) = -0.05136 0.08934
#
# Static dielectric constant tensor:
#      x y z
#    x 1.825310 0.000000 0.000000 
#    y 0.000000 1.881820 0.000000 
#    z 0.000000 0.000000 1.907150 
# 
# From -- ./inp_files/13411.got.cif
#   From: 2010.05.17/outbox.cif.g08.bks.cpg/sg62_7_cif.got.tgz:13411.got - 2010.06.03 15:25:27.
