data_PCOD9465299
_publ_section_title
;
Structure prediction by ZEFSAII (Michael W. Deem and Ramdas Pophale) SiO2 
 PCOD9465299
Probable space group: P N M A
;
_chemical_formula_sum "Si O2"
_cell_formula_units_Z 48
_cell_length_a 15.299200
_cell_length_b 17.110226
_cell_length_c 9.787546
_cell_angle_alpha 90.000000
_cell_angle_beta 90.000000
_cell_angle_gamma 90.000000
_cell_volume 2562.113024
_symmetry_space_group_name_H-M "P N M A"
_symmetry_group_IT_number 62
_symmetry_cell_setting 'orthorhombic'
loop_
_space_group_symop_operation_xyz
x,y,z
1/2-x,-y,1/2+z
1/2+x,1/2-y,1/2-z
-x,1/2+y,-z
-x,-y,-z
1/2+x,y,1/2-z
1/2-x,1/2+y,1/2+z
x,1/2-y,z
loop_
_atom_site_type_symbol
_atom_site_label
_atom_site_fract_x
_atom_site_fract_y
_atom_site_fract_z
Si Si1 0.141197 0.540647 0.211021
Si Si2 0.706120 0.587554 0.796111
Si Si3 0.529218 0.493009 0.842988
Si Si4 0.298836 0.159694 0.501337
Si Si5 0.368152 0.662417 0.200482
Si Si6 0.279796 0.161058 0.915245
O O1 0.222483 0.481735 0.199236
O O2 0.159888 0.598036 0.339192
O O3 0.053236 0.494449 0.244203
O O4 0.140094 0.597626 0.080238
O O5 0.610442 0.549349 0.811915
O O6 0.712771 0.632771 0.653570
O O7 0.722733 0.642538 0.925809
O O8 0.562710 0.405105 0.817860
O O9 0.500000 0.500000 0.000000
O O10 0.328240 0.250000 0.510377
O O11 0.206817 0.155124 0.583679
O O12 0.404626 0.750000 0.194097
O O13 0.314268 0.652882 0.341496
O O14 0.308854 0.250000 0.888723
#
# Coordination Sequence:
#
# PCOD9465299 Si02
#       6
#     8   8   8   8   8   8
#     4  11  22  38  65  86 121 162 204 243 305 367
#     4  12  22  40  63  90 127 154 202 262 304 359
#     4  12  23  38  63  96 117 158 211 256 306 360
#     4  10  21  39  61  88 124 165 198 249 313 362
#     4   9  20  39  63  88 121 159 204 250 303 362
#     4  10  20  39  64  88 116 160 201 244 302 364
#
# _framework density 18.734535999999999
#
# number of rings (size 3 to 8) (size 9 to 14) (size 15 to 20)
#    0.000    1.333    5.000    4.000    0.000    2.000 
#    0.000    0.000    0.000    2.000    0.000    0.000 
#    0.000    0.000    0.000    0.000    0.000    0.000 
#
# Total GULP energy -268077.261077 kJ/mol
# GULP energy per Si atom -5584.942939 kJ/mol
# Density = 1.869190 g / cm^3
# Si number density = 18.734536 Si / 1000 Ang^3
#
#
#
# Elastic Constant Matrix: (Units=GPa)
#
#
# Indices 1 2 3 4 5 6 
#
# 1 77.4793 21.8534 15.6129 0.0000 0.0000 0.0000
# 2 21.8534 54.0972 15.2882 0.0000 0.0000 0.0000
# 3 15.6129 15.2882 123.1975 0.0000 0.0000 0.0000
# 4 0.0000 0.0000 0.0000 22.8302 0.0000 0.0000
# 5 0.0000 0.0000 0.0000 0.0000 12.6710 0.0000
# 6 0.0000 0.0000 0.0000 0.0000 0.0000 12.8097
#
#
#
# Elastic Compliance Matrix: (Units=1/GPa)
#
#
# Indices 1 2 3 4 5 6 
#
# 1 0.014727 -0.005619 -0.001169 0.000000 0.000000 0.000000
# 2 -0.005619 0.021301 -0.001931 0.000000 0.000000 0.000000
# 3 -0.001169 -0.001931 0.008505 0.000000 0.000000 0.000000
# 4 0.000000 0.000000 0.000000 0.043802 0.000000 0.000000
# 5 0.000000 0.000000 0.000000 0.000000 0.078920 0.000000
# 6 0.000000 0.000000 0.000000 0.000000 0.000000 0.078066
#
#
# Mechanical properties :
#
#
# Convention : Reuss Voigt Hill
#
# Bulk Modulus (GPa) = 36.90797 40.03143 38.46970
# Shear Modulus (GPa) = 18.39653 23.13016 20.76334
#
# Velocity S-wave (km/s) = 3.13702 3.51754 3.33271
# Velocity P-wave (km/s) = 5.73275 6.15723 5.94878
#
# Compressibility (1/GPa) = 0.02709442
#
# Stress axis : x y z
#
# Youngs Moduli (GPa) = 67.90212 46.94647 117.57975
#
# Poissons Ratio (x) = 0.26379 0.13746
# Poissons Ratio (y) = 0.38153 0.22708
# Poissons Ratio (z) = 0.07938 0.09067
#
# Static dielectric constant tensor:
#      x y z
#    x 1.656170 0.000000 0.000000 
#    y 0.000000 1.645450 0.000000 
#    z 0.000000 0.000000 1.639010 
# 
# From -- ./inp_files/6505.got.cif
#   From: 2010.05.17/outbox.cif.g08.bks.cpg/sg62_4_cif.got.tgz:6505.got - 2010.06.03 15:25:27.
