data_PCOD9465162
_publ_section_title
;
Structure prediction by ZEFSAII (Michael W. Deem and Ramdas Pophale) SiO2 
 PCOD9465162
Probable space group: P N M A
;
_chemical_formula_sum "Si O2"
_cell_formula_units_Z 48
_cell_length_a 15.437962
_cell_length_b 16.252460
_cell_length_c 7.996314
_cell_angle_alpha 90.000000
_cell_angle_beta 90.000000
_cell_angle_gamma 90.000000
_cell_volume 2006.314044
_symmetry_space_group_name_H-M "P N M A"
_symmetry_group_IT_number 62
_symmetry_cell_setting 'orthorhombic'
loop_
_space_group_symop_operation_xyz
x,y,z
1/2-x,-y,1/2+z
1/2+x,1/2-y,1/2-z
-x,1/2+y,-z
-x,-y,-z
1/2+x,y,1/2-z
1/2-x,1/2+y,1/2+z
x,1/2-y,z
loop_
_atom_site_type_symbol
_atom_site_label
_atom_site_fract_x
_atom_site_fract_y
_atom_site_fract_z
Si Si1 0.937275 0.580919 0.651148
Si Si2 0.101222 0.920882 0.132048
Si Si3 0.794925 0.750000 0.138365
Si Si4 0.190474 0.750000 0.841123
Si Si5 0.807422 0.586920 0.340770
Si Si6 0.391171 0.250000 0.713451
Si Si7 0.614541 0.920560 0.742408
Si Si8 0.872558 0.750000 0.771373
O O1 0.871355 0.586277 0.497883
O O2 0.926491 0.667631 0.746927
O O3 0.039855 0.573847 0.618583
O O4 0.913748 0.502488 0.763524
O O5 0.070473 0.925697 0.940996
O O6 0.205631 0.909048 0.116894
O O7 0.063581 0.838768 0.221527
O O8 0.826186 0.666310 0.227254
O O9 0.690560 0.750000 0.162047
O O10 0.826223 0.750000 0.949697
O O11 0.162855 0.666383 0.748938
O O12 0.293476 0.750000 0.861278
O O13 0.144395 0.750000 0.021239
O O14 0.823669 0.499141 0.253477
#
# Coordination Sequence:
#
# PCOD9465162 Si02
#       8
#     8   8   4   4   8   4   8   4
#     4  12  24  39  61  92 127 164 204 259 316 364
#     4  10  20  38  63  88 119 163 210 254 303 369
#     4  10  22  38  62  90 116 150 205 262 300 352
#     4  10  21  40  65  88 117 162 209 254 308 374
#     4  11  22  41  62  87 122 165 208 254 308 371
#     4   8  18  37  59  86 117 151 197 256 304 349
#     4  11  23  40  61  92 128 161 203 260 314 362
#     4  12  23  39  64  90 116 161 213 254 306 375
#
# _framework density 23.924469999999999
#
# number of rings (size 3 to 8) (size 9 to 14) (size 15 to 20)
#    0.000    1.333    0.000    8.000    0.000    4.000 
#    0.000    0.833    0.000    2.000    0.000    0.000 
#    0.000    0.000    0.000    0.000    0.000    0.000 
#
# Total GULP energy -268720.056684 kJ/mol
# GULP energy per Si atom -5598.334514 kJ/mol
# Density = 2.387002 g / cm^3
# Si number density = 23.924470 Si / 1000 Ang^3
#
#
#
# Elastic Constant Matrix: (Units=GPa)
#
#
# Indices 1 2 3 4 5 6 
#
# 1 47.9589 13.2464 -17.4348 0.0000 0.0000 0.0000
# 2 13.2464 220.6994 34.4797 0.0000 0.0000 0.0000
# 3 -17.4348 34.4797 56.4829 0.0000 0.0000 0.0000
# 4 0.0000 0.0000 0.0000 33.3028 0.0000 0.0000
# 5 0.0000 0.0000 0.0000 0.0000 22.3713 0.0000
# 6 0.0000 0.0000 0.0000 0.0000 0.0000 28.3937
#
#
#
# Elastic Compliance Matrix: (Units=1/GPa)
#
#
# Indices 1 2 3 4 5 6 
#
# 1 0.025177 -0.003013 0.009610 0.000000 0.000000 0.000000
# 2 -0.003013 0.005369 -0.004208 0.000000 0.000000 0.000000
# 3 0.009610 -0.004208 0.023239 0.000000 0.000000 0.000000
# 4 0.000000 0.000000 0.000000 0.030027 0.000000 0.000000
# 5 0.000000 0.000000 0.000000 0.000000 0.044700 0.000000
# 6 0.000000 0.000000 0.000000 0.000000 0.000000 0.035219
#
#
# Mechanical properties :
#
#
# Convention : Reuss Voigt Hill
#
# Bulk Modulus (GPa) = 17.07460 42.85820 29.96640
# Shear Modulus (GPa) = 28.01531 36.47020 32.24275
#
# Velocity S-wave (km/s) = 3.42569 3.90858 3.67507
# Velocity P-wave (km/s) = 4.77488 6.19049 5.52818
#
# Compressibility (1/GPa) = 0.05856654
#
# Stress axis : x y z
#
# Youngs Moduli (GPa) = 39.71871 186.24745 43.03030
#
# Poissons Ratio (x) = 0.56108 -0.41354
# Poissons Ratio (y) = 0.11966 0.18105
# Poissons Ratio (z) = -0.38172 0.78364
#
# Static dielectric constant tensor:
#      x y z
#    x 1.888890 0.000000 0.000000 
#    y 0.000000 1.957920 0.000000 
#    z 0.000000 0.000000 1.932340 
# 
# From -- ./inp_files/7689.got.cif
#   From: 2010.05.17/outbox.cif.g08.bks.cpg/sg62_4_cif.got.tgz:7689.got - 2010.06.03 15:25:27.
