data_PCOD9465401
_publ_section_title
;
Structure prediction by ZEFSAII (Michael W. Deem and Ramdas Pophale) SiO2 
 PCOD9465401
Probable space group: P N M A
;
_chemical_formula_sum "Si O2"
_cell_formula_units_Z 40
_cell_length_a 19.844544
_cell_length_b 15.731766
_cell_length_c 5.291961
_cell_angle_alpha 90.000000
_cell_angle_beta 90.000000
_cell_angle_gamma 90.000000
_cell_volume 1652.095837
_symmetry_space_group_name_H-M "P N M A"
_symmetry_group_IT_number 62
_symmetry_cell_setting 'orthorhombic'
loop_
_space_group_symop_operation_xyz
x,y,z
1/2-x,-y,1/2+z
1/2+x,1/2-y,1/2-z
-x,1/2+y,-z
-x,-y,-z
1/2+x,y,1/2-z
1/2-x,1/2+y,1/2+z
x,1/2-y,z
loop_
_atom_site_type_symbol
_atom_site_label
_atom_site_fract_x
_atom_site_fract_y
_atom_site_fract_z
Si Si1 0.029622 0.250000 0.984316
Si Si2 0.959126 0.403165 0.213109
Si Si3 0.093567 0.454801 0.141889
Si Si4 0.878151 0.750000 0.507832
Si Si5 0.328339 0.072410 0.013740
Si Si6 0.195273 0.394299 0.775087
O O1 0.079049 0.250000 0.232948
O O2 0.981193 0.331767 0.014089
O O3 0.066954 0.250000 0.718456
O O4 0.892450 0.378916 0.366899
O O5 0.033617 0.423304 0.326301
O O6 0.938169 0.491142 0.085327
O O7 0.139671 0.520250 0.285628
O O8 0.139743 0.388308 0.995713
O O9 0.830493 0.832517 0.447975
O O10 0.302032 0.994271 0.191860
O O11 0.266748 0.126004 0.903000
#
# Coordination Sequence:
#
# PCOD9465401 Si02
#       6
#     4   8   8   4   8   8
#     4  12  26  47  69 100 146 183 230 294 361 417
#     4  10  23  38  67  99 130 181 228 291 346 417
#     4  10  20  41  65  97 130 175 236 283 345 420
#     4  12  28  45  71 102 142 187 230 290 359 429
#     4  11  22  39  69  98 134 184 233 295 342 423
#     4  11  23  41  68  99 140 184 240 286 360 423
#
# _framework density 24.211670999999999
#
# number of rings (size 3 to 8) (size 9 to 14) (size 15 to 20)
#    0.000    1.200    4.000    1.800    2.800    0.800 
#    0.000    1.000    0.000    0.000    0.000    0.000 
#    0.000    0.000    0.000    0.000    0.000    0.000 
#
# Total GULP energy -223166.003859 kJ/mol
# GULP energy per Si atom -5579.150096 kJ/mol
# Density = 2.415656 g / cm^3
# Si number density = 24.211671 Si / 1000 Ang^3
#
#
#
# Elastic Constant Matrix: (Units=GPa)
#
#
# Indices 1 2 3 4 5 6 
#
# 1 154.7908 5.1441 22.7603 0.0000 0.0000 0.0000
# 2 5.1441 44.1029 -15.2120 0.0000 0.0000 0.0000
# 3 22.7603 -15.2120 68.6102 0.0000 0.0000 0.0000
# 4 0.0000 0.0000 0.0000 28.4000 0.0000 0.0000
# 5 0.0000 0.0000 0.0000 0.0000 22.1139 0.0000
# 6 0.0000 0.0000 0.0000 0.0000 0.0000 -12.7650
#
#
#
# Elastic Compliance Matrix: (Units=1/GPa)
#
#
# Indices 1 2 3 4 5 6 
#
# 1 0.006911 -0.001729 -0.002676 0.000000 0.000000 0.000000
# 2 -0.001729 0.024984 0.006113 0.000000 0.000000 0.000000
# 3 -0.002676 0.006113 0.016818 0.000000 0.000000 0.000000
# 4 0.000000 0.000000 0.000000 0.035211 0.000000 0.000000
# 5 0.000000 0.000000 0.000000 0.000000 0.045220 0.000000
# 6 0.000000 0.000000 0.000000 0.000000 0.000000 -0.078339
#
#
# Mechanical properties :
#
#
# Convention : Reuss Voigt Hill
#
# Bulk Modulus (GPa) = 19.18295 32.54318 25.86307
# Shear Modulus (GPa) = 77.19934 24.53722 50.86828
#
# Velocity S-wave (km/s) = 5.65282 3.18692 4.58862
# Velocity P-wave (km/s) = 7.10958 5.19733 6.22729
#
# Compressibility (1/GPa) = 0.05212962
#
# Stress axis : x y z
#
# Youngs Moduli (GPa) = 144.69092 40.02489 59.45941
#
# Poissons Ratio (x) = 0.06921 0.15912
# Poissons Ratio (y) = 0.25019 -0.36348
# Poissons Ratio (z) = 0.38720 -0.24468
#
# Static dielectric constant tensor:
#      x y z
#    x 2.001190 0.000000 0.000000 
#    y 0.000000 2.028770 0.000000 
#    z 0.000000 0.000000 1.968800 
# 
# From -- ./inp_files/1572.got.cif
#   From: 2010.05.17/outbox.cif.g08.bks.cpg/sg62_1_cif.got.tgz:1572.got - 2010.06.03 15:25:27.
