data_PCOD9465717
_publ_section_title
;
Structure prediction by ZEFSAII (Michael W. Deem and Ramdas Pophale) SiO2 
 PCOD9465717
Probable space group: P N M A
;
_chemical_formula_sum "Si O2"
_cell_formula_units_Z 48
_cell_length_a 20.050554
_cell_length_b 14.587947
_cell_length_c 7.235551
_cell_angle_alpha 90.000000
_cell_angle_beta 90.000000
_cell_angle_gamma 90.000000
_cell_volume 2116.372758
_symmetry_space_group_name_H-M "P N M A"
_symmetry_group_IT_number 62
_symmetry_cell_setting 'orthorhombic'
loop_
_space_group_symop_operation_xyz
x,y,z
1/2-x,-y,1/2+z
1/2+x,1/2-y,1/2-z
-x,1/2+y,-z
-x,-y,-z
1/2+x,y,1/2-z
1/2-x,1/2+y,1/2+z
x,1/2-y,z
loop_
_atom_site_type_symbol
_atom_site_label
_atom_site_fract_x
_atom_site_fract_y
_atom_site_fract_z
Si Si1 0.280231 0.750000 0.158108
Si Si2 0.374098 0.250000 0.695319
Si Si3 0.257925 0.750000 0.711148
Si Si4 0.460851 0.439531 0.262043
Si Si5 0.665948 0.445131 0.846708
Si Si6 0.922834 0.442355 0.825425
Si Si7 0.700888 0.446908 0.276695
Si Si8 0.102900 0.750000 0.745590
O O1 0.204849 0.750000 0.234174
O O2 0.268593 0.750000 0.934815
O O3 0.319686 0.841129 0.210949
O O4 0.406148 0.155325 0.764053
O O5 0.384871 0.250000 0.470363
O O6 0.291125 0.844473 0.647036
O O7 0.178810 0.750000 0.671502
O O8 0.596511 0.487937 0.786808
O O9 0.531328 0.486110 0.214318
O O10 0.461047 0.423431 0.483607
O O11 0.437740 0.340672 0.189778
O O12 0.673966 0.445686 0.068041
O O13 0.726619 0.507759 0.775038
O O14 0.852515 0.489281 0.878134
#
# Coordination Sequence:
#
# PCOD9465717 Si02
#       8
#     4   4   4   8   8   8   8   4
#     4   9  18  33  56  80 110 149 181 220 285 337
#     4   9  16  33  56  78 112 151 181 218 283 339
#     4   9  18  33  56  80 110 149 181 220 285 337
#     4  10  21  37  58  83 113 150 187 226 275 331
#     4  11  21  36  58  83 110 144 187 230 274 327
#     4  10  21  37  58  83 113 150 187 226 275 331
#     4  11  21  36  58  83 110 144 187 230 274 327
#     4   9  16  33  56  78 112 151 181 218 283 339
#
# _framework density 22.680315
#
# number of rings (size 3 to 8) (size 9 to 14) (size 15 to 20)
#    0.000    2.000    3.333    1.000    0.000    2.000 
#    0.000    7.500    0.000    0.000    0.000    0.000 
#    0.000    0.000    0.000    0.000    0.000    0.000 
#
# Total GULP energy -268312.148941 kJ/mol
# GULP energy per Si atom -5589.836436 kJ/mol
# Density = 2.262869 g / cm^3
# Si number density = 22.680315 Si / 1000 Ang^3
#
#
#
# Elastic Constant Matrix: (Units=GPa)
#
#
# Indices 1 2 3 4 5 6 
#
# 1 124.8960 66.0275 -4.4527 0.0000 0.0000 0.0000
# 2 66.0275 204.9852 -0.0781 0.0000 0.0000 0.0000
# 3 -4.4527 -0.0781 58.6888 0.0000 0.0000 0.0000
# 4 0.0000 0.0000 0.0000 6.1669 0.0000 0.0000
# 5 0.0000 0.0000 0.0000 0.0000 19.3878 0.0000
# 6 0.0000 0.0000 0.0000 0.0000 0.0000 30.5336
#
#
#
# Elastic Compliance Matrix: (Units=1/GPa)
#
#
# Indices 1 2 3 4 5 6 
#
# 1 0.009681 -0.003118 0.000730 0.000000 0.000000 0.000000
# 2 -0.003118 0.005883 -0.000229 0.000000 0.000000 0.000000
# 3 0.000730 -0.000229 0.017094 0.000000 0.000000 0.000000
# 4 0.000000 0.000000 0.000000 0.162157 0.000000 0.000000
# 5 0.000000 0.000000 0.000000 0.000000 0.051579 0.000000
# 6 0.000000 0.000000 0.000000 0.000000 0.000000 0.032751
#
#
# Mechanical properties :
#
#
# Convention : Reuss Voigt Hill
#
# Bulk Modulus (GPa) = 36.46314 56.84039 46.65177
# Shear Modulus (GPa) = 17.03468 33.02255 25.02862
#
# Velocity S-wave (km/s) = 2.74355 3.81990 3.32556
# Velocity P-wave (km/s) = 5.11351 6.67618 5.94640
#
# Compressibility (1/GPa) = 0.02742496
#
# Stress axis : x y z
#
# Youngs Moduli (GPa) = 103.29396 169.99064 58.49959
#
# Poissons Ratio (x) = 0.53005 -0.04273
# Poissons Ratio (y) = 0.32208 0.01338
# Poissons Ratio (z) = -0.07544 0.03888
#
# Static dielectric constant tensor:
#      x y z
#    x 1.780170 0.000000 0.000000 
#    y 0.000000 1.855570 0.000000 
#    z 0.000000 0.000000 1.924720 
# 
# From -- ./inp_files/14233.got.cif
#   From: 2010.05.17/outbox.cif.g08.bks.cpg/sg62_8_cif.got.tgz:14233.got - 2010.06.03 15:25:27.
