data_PCOD9465357
_publ_section_title
;
Structure prediction by ZEFSAII (Michael W. Deem and Ramdas Pophale) SiO2 
 PCOD9465357
Probable space group: P N M A
;
_chemical_formula_sum "Si O2"
_cell_formula_units_Z 32
_cell_length_a 11.118893
_cell_length_b 11.125021
_cell_length_c 9.969791
_cell_angle_alpha 90.000000
_cell_angle_beta 90.000000
_cell_angle_gamma 90.000000
_cell_volume 1233.242391
_symmetry_space_group_name_H-M "P N M A"
_symmetry_group_IT_number 62
_symmetry_cell_setting 'orthorhombic'
loop_
_space_group_symop_operation_xyz
x,y,z
1/2-x,-y,1/2+z
1/2+x,1/2-y,1/2-z
-x,1/2+y,-z
-x,-y,-z
1/2+x,y,1/2-z
1/2-x,1/2+y,1/2+z
x,1/2-y,z
loop_
_atom_site_type_symbol
_atom_site_label
_atom_site_fract_x
_atom_site_fract_y
_atom_site_fract_z
Si Si1 0.094181 0.005650 0.860757
Si Si2 0.047154 0.750000 0.185700
Si Si3 0.055288 0.750000 0.798148
Si Si4 0.276917 0.750000 0.988415
Si Si5 0.584688 0.750000 0.999282
Si Si6 0.206744 0.498738 0.572545
O O1 0.025119 0.130099 0.850954
O O2 0.018230 0.882078 0.846711
O O3 0.186081 0.003930 0.732294
O O4 0.165543 0.995365 0.999077
O O5 0.175013 0.750000 0.108235
O O6 0.055622 0.750000 0.345011
O O7 0.017522 0.750000 0.644166
O O8 0.197171 0.750000 0.851302
O O9 0.348447 0.626435 0.015026
O O10 0.654109 0.876599 0.979709
#
# Coordination Sequence:
#
# PCOD9465357 Si02
#       6
#     8   4   4   4   4   8
#     4  10  21  38  60  88 121 156 201 250 298 362
#     4  12  24  38  60  96 128 150 196 264 312 338
#     4   8  20  36  52  78 116 152 192 234 288 352
#     4  10  21  38  60  88 121 156 201 250 298 362
#     4  10  21  38  60  88 121 156 201 250 298 362
#     4  10  20  40  64  86 120 168 208 236 296 378
#
# _framework density 25.947859999999999
#
# number of rings (size 3 to 8) (size 9 to 14) (size 15 to 20)
#    0.000    2.000    0.000    3.000    0.000    8.000 
#    0.000    5.000    0.000    0.000    0.000    0.000 
#    0.000    0.000    0.000    0.000    0.000    0.000 
#
# Total GULP energy -178704.905950 kJ/mol
# GULP energy per Si atom -5584.528311 kJ/mol
# Density = 2.588880 g / cm^3
# Si number density = 25.947860 Si / 1000 Ang^3
#
#
#
# Elastic Constant Matrix: (Units=GPa)
#
#
# Indices 1 2 3 4 5 6 
#
# 1 39.8187 52.2991 74.9981 0.0000 0.0000 0.0000
# 2 52.2991 254.8805 65.0535 0.0000 0.0000 0.0000
# 3 74.9981 65.0535 202.1260 0.0000 0.0000 0.0000
# 4 0.0000 0.0000 0.0000 76.4684 0.0000 0.0000
# 5 0.0000 0.0000 0.0000 0.0000 48.9734 0.0000
# 6 0.0000 0.0000 0.0000 0.0000 0.0000 38.4358
#
#
#
# Elastic Compliance Matrix: (Units=1/GPa)
#
#
# Indices 1 2 3 4 5 6 
#
# 1 0.116266 -0.013996 -0.038636 0.000000 0.000000 0.000000
# 2 -0.013996 0.005959 0.003275 0.000000 0.000000 0.000000
# 3 -0.038636 0.003275 0.018229 0.000000 0.000000 0.000000
# 4 0.000000 0.000000 0.000000 0.013077 0.000000 0.000000
# 5 0.000000 0.000000 0.000000 0.000000 0.020419 0.000000
# 6 0.000000 0.000000 0.000000 0.000000 0.000000 0.026017
#
#
# Mechanical properties :
#
#
# Convention : Reuss Voigt Hill
#
# Bulk Modulus (GPa) = 23.95686 97.94742 60.95214
# Shear Modulus (GPa) = 15.99519 53.07383 34.53451
#
# Velocity S-wave (km/s) = 2.48551 4.52752 3.65213
# Velocity P-wave (km/s) = 4.18207 8.07223 6.42848
#
# Compressibility (1/GPa) = 0.04174169
#
# Stress axis : x y z
#
# Youngs Moduli (GPa) = 8.60099 167.80540 54.85793
#
# Poissons Ratio (x) = 2.34854 2.11946
# Poissons Ratio (y) = 0.12038 -0.17966
# Poissons Ratio (z) = 0.33230 -0.54957
#
# Static dielectric constant tensor:
#      x y z
#    x 2.143150 0.000000 0.000000 
#    y 0.000000 2.073340 0.000000 
#    z 0.000000 0.000000 1.978580 
# 
# From -- ./inp_files/5837.got.cif
#   From: 2010.05.17/outbox.cif.g08.bks.cpg/sg62_3_cif.got.tgz:5837.got - 2010.06.03 15:25:27.
