data_PCOD9465217
_publ_section_title
;
Structure prediction by ZEFSAII (Michael W. Deem and Ramdas Pophale) SiO2 
 PCOD9465217
Probable space group: P N M A
;
_chemical_formula_sum "Si O2"
_cell_formula_units_Z 40
_cell_length_a 13.898299
_cell_length_b 16.514026
_cell_length_c 7.423647
_cell_angle_alpha 90.000000
_cell_angle_beta 90.000000
_cell_angle_gamma 90.000000
_cell_volume 1703.852231
_symmetry_space_group_name_H-M "P N M A"
_symmetry_group_IT_number 62
_symmetry_cell_setting 'orthorhombic'
loop_
_space_group_symop_operation_xyz
x,y,z
1/2-x,-y,1/2+z
1/2+x,1/2-y,1/2-z
-x,1/2+y,-z
-x,-y,-z
1/2+x,y,1/2-z
1/2-x,1/2+y,1/2+z
x,1/2-y,z
loop_
_atom_site_type_symbol
_atom_site_label
_atom_site_fract_x
_atom_site_fract_y
_atom_site_fract_z
Si Si1 0.203645 0.980344 0.328325
Si Si2 0.389231 0.012440 0.442557
Si Si3 0.978219 0.160387 0.054849
Si Si4 0.443355 0.341955 0.874251
Si Si5 0.125926 0.157183 0.359147
O O1 0.316857 0.958568 0.329775
O O2 0.185384 0.074270 0.385647
O O3 0.134377 0.912329 0.414369
O O4 0.169066 0.980448 0.124700
O O5 0.403389 0.099601 0.354064
O O6 0.500000 0.000000 0.500000
O O7 0.944666 0.250000 0.092346
O O8 0.079923 0.151541 0.156773
O O9 0.977054 0.150417 0.837085
O O10 0.404346 0.250000 0.892832
O O11 0.535498 0.348707 0.003559
O O12 0.165717 0.250000 0.379715
#
# Coordination Sequence:
#
# PCOD9465217 Si02
#       5
#     8   8   8   8   8
#     4  11  24  40  65  94 131 176 225 271 338 400
#     4  11  24  42  63  95 134 170 225 277 334 394
#     4   9  19  38  63  90 131 170 206 277 336 385
#     4   9  20  38  63  98 133 172 225 277 334 403
#     4  10  20  38  66 100 131 170 221 277 340 404
#
# _framework density 23.476216000000001
#
# number of rings (size 3 to 8) (size 9 to 14) (size 15 to 20)
#    0.000    2.000    2.000    0.600    2.800    4.000 
#    0.000    2.000    0.000    0.000    0.000    0.000 
#    0.000    0.000    0.000    0.000    0.000    0.000 
#
# Total GULP energy -222702.729830 kJ/mol
# GULP energy per Si atom -5567.568246 kJ/mol
# Density = 2.342278 g / cm^3
# Si number density = 23.476216 Si / 1000 Ang^3
#
#
#
# Elastic Constant Matrix: (Units=GPa)
#
#
# Indices 1 2 3 4 5 6 
#
# 1 129.0234 57.8206 34.5808 0.0000 0.0000 0.0000
# 2 57.8206 165.0108 11.4438 0.0000 0.0000 0.0000
# 3 34.5808 11.4438 74.3649 0.0000 0.0000 0.0000
# 4 0.0000 0.0000 0.0000 20.1162 0.0000 0.0000
# 5 0.0000 0.0000 0.0000 0.0000 32.5688 0.0000
# 6 0.0000 0.0000 0.0000 0.0000 0.0000 19.2943
#
#
#
# Elastic Compliance Matrix: (Units=1/GPa)
#
#
# Indices 1 2 3 4 5 6 
#
# 1 0.010410 -0.003348 -0.004326 0.000000 0.000000 0.000000
# 2 -0.003348 0.007202 0.000448 0.000000 0.000000 0.000000
# 3 -0.004326 0.000448 0.015390 0.000000 0.000000 0.000000
# 4 0.000000 0.000000 0.000000 0.049711 0.000000 0.000000
# 5 0.000000 0.000000 0.000000 0.000000 0.030704 0.000000
# 6 0.000000 0.000000 0.000000 0.000000 0.000000 0.051829
#
#
# Mechanical properties :
#
#
# Convention : Reuss Voigt Hill
#
# Bulk Modulus (GPa) = 53.90260 64.00996 58.95628
# Shear Modulus (GPa) = 26.89905 32.03280 29.46593
#
# Velocity S-wave (km/s) = 3.38864 3.69789 3.54664
# Velocity P-wave (km/s) = 6.19038 6.74964 6.47605
#
# Compressibility (1/GPa) = 0.01855198
#
# Stress axis : x y z
#
# Youngs Moduli (GPa) = 96.05973 138.84664 64.97848
#
# Poissons Ratio (x) = 0.46483 0.28108
# Poissons Ratio (y) = 0.32159 -0.02914
# Poissons Ratio (z) = 0.41553 -0.06227
#
# Static dielectric constant tensor:
#      x y z
#    x 1.957870 0.000000 0.000000 
#    y 0.000000 2.174200 0.000000 
#    z 0.000000 0.000000 2.010350 
# 
# From -- ./inp_files/6253.got.cif
#   From: 2010.05.17/outbox.cif.g08.bks.cpg/sg62_4_cif.got.tgz:6253.got - 2010.06.03 15:25:27.
