data_PCOD9465214
_publ_section_title
;
Structure prediction by ZEFSAII (Michael W. Deem and Ramdas Pophale) SiO2 
 PCOD9465214
Probable space group: P N M A
;
_chemical_formula_sum "Si O2"
_cell_formula_units_Z 48
_cell_length_a 11.551064
_cell_length_b 22.026507
_cell_length_c 7.932368
_cell_angle_alpha 90.000000
_cell_angle_beta 90.000000
_cell_angle_gamma 90.000000
_cell_volume 2018.229154
_symmetry_space_group_name_H-M "P N M A"
_symmetry_group_IT_number 62
_symmetry_cell_setting 'orthorhombic'
loop_
_space_group_symop_operation_xyz
x,y,z
1/2-x,-y,1/2+z
1/2+x,1/2-y,1/2-z
-x,1/2+y,-z
-x,-y,-z
1/2+x,y,1/2-z
1/2-x,1/2+y,1/2+z
x,1/2-y,z
loop_
_atom_site_type_symbol
_atom_site_label
_atom_site_fract_x
_atom_site_fract_y
_atom_site_fract_z
Si Si1 0.884931 0.136288 0.003154
Si Si2 0.869940 0.684171 0.017529
Si Si3 0.613003 0.987065 0.310121
Si Si4 0.951947 0.079068 0.361336
Si Si5 0.859854 0.820171 0.613815
Si Si6 0.275931 0.562090 0.417098
O O1 0.905828 0.107031 0.186845
O O2 0.758877 0.165828 0.016403
O O3 0.899104 0.081765 0.869952
O O4 0.991358 0.181253 0.973453
O O5 0.825884 0.750000 0.068157
O O6 0.819621 0.628894 0.124445
O O7 0.839891 0.673976 0.818188
O O8 0.740605 0.985000 0.226072
O O9 0.519772 0.017496 0.188526
O O10 0.626577 0.031614 0.468083
O O11 0.845180 0.070796 0.485419
O O12 0.045012 0.128674 0.428573
O O13 0.896641 0.750000 0.585870
#
# Coordination Sequence:
#
# PCOD9465214 Si02
#       6
#     8   8   8   8   8   8
#     4  11  21  40  64  91 126 163 210 262 312 372
#     4  10  22  40  65  92 122 168 215 256 308 372
#     4  12  25  39  64  95 131 164 209 257 324 378
#     4  11  21  40  60  95 127 164 208 259 313 379
#     4  10  20  38  65  94 121 163 215 260 303 366
#     4  12  24  41  64  95 131 165 206 264 314 381
#
# _framework density 23.783225000000002
#
# number of rings (size 3 to 8) (size 9 to 14) (size 15 to 20)
#    0.000    1.000    5.000    3.500    2.333    1.333 
#    0.000    1.667    0.000    0.000    0.000    0.000 
#    0.000    0.000    0.000    0.000    0.000    0.000 
#
# Total GULP energy -268635.499330 kJ/mol
# GULP energy per Si atom -5596.572903 kJ/mol
# Density = 2.372909 g / cm^3
# Si number density = 23.783225 Si / 1000 Ang^3
#
#
#
# Elastic Constant Matrix: (Units=GPa)
#
#
# Indices 1 2 3 4 5 6 
#
# 1 101.4526 32.3181 18.5538 0.0000 0.0000 0.0000
# 2 32.3181 110.9535 11.0198 0.0000 0.0000 0.0000
# 3 18.5538 11.0198 31.0936 0.0000 0.0000 0.0000
# 4 0.0000 0.0000 0.0000 12.4851 0.0000 0.0000
# 5 0.0000 0.0000 0.0000 0.0000 21.2532 0.0000
# 6 0.0000 0.0000 0.0000 0.0000 0.0000 31.4260
#
#
#
# Elastic Compliance Matrix: (Units=1/GPa)
#
#
# Indices 1 2 3 4 5 6 
#
# 1 0.011878 -0.002856 -0.006075 0.000000 0.000000 0.000000
# 2 -0.002856 0.010028 -0.001850 0.000000 0.000000 0.000000
# 3 -0.006075 -0.001850 0.036442 0.000000 0.000000 0.000000
# 4 0.000000 0.000000 0.000000 0.080095 0.000000 0.000000
# 5 0.000000 0.000000 0.000000 0.000000 0.047052 0.000000
# 6 0.000000 0.000000 0.000000 0.000000 0.000000 0.031821
#
#
# Mechanical properties :
#
#
# Convention : Reuss Voigt Hill
#
# Bulk Modulus (GPa) = 27.18480 40.80923 33.99702
# Shear Modulus (GPa) = 19.90920 25.14007 22.52463
#
# Velocity S-wave (km/s) = 2.89643 3.25476 3.08081
# Velocity P-wave (km/s) = 4.75823 5.59649 5.19430
#
# Compressibility (1/GPa) = 0.03678526
#
# Stress axis : x y z
#
# Youngs Moduli (GPa) = 84.19094 99.71596 27.44107
#
# Poissons Ratio (x) = 0.28482 0.16671
# Poissons Ratio (y) = 0.24048 0.05076
# Poissons Ratio (z) = 0.51148 0.18445
#
# Static dielectric constant tensor:
#      x y z
#    x 1.905750 0.000000 0.000000 
#    y 0.000000 1.856970 0.000000 
#    z 0.000000 0.000000 1.958710 
# 
# From -- ./inp_files/5292.got.cif
#   From: 2010.05.17/outbox.cif.g08.bks.cpg/sg62_3_cif.got.tgz:5292.got - 2010.06.03 15:25:27.
