data_PCOD9465656
_publ_section_title
;
Structure prediction by ZEFSAII (Michael W. Deem and Ramdas Pophale) SiO2 
 PCOD9465656
Probable space group: P N M A
;
_chemical_formula_sum "Si O2"
_cell_formula_units_Z 60
_cell_length_a 11.103725
_cell_length_b 17.214348
_cell_length_c 12.806737
_cell_angle_alpha 90.000000
_cell_angle_beta 90.000000
_cell_angle_gamma 90.000000
_cell_volume 2447.923077
_symmetry_space_group_name_H-M "P N M A"
_symmetry_group_IT_number 62
_symmetry_cell_setting 'orthorhombic'
loop_
_space_group_symop_operation_xyz
x,y,z
1/2-x,-y,1/2+z
1/2+x,1/2-y,1/2-z
-x,1/2+y,-z
-x,-y,-z
1/2+x,y,1/2-z
1/2-x,1/2+y,1/2+z
x,1/2-y,z
loop_
_atom_site_type_symbol
_atom_site_label
_atom_site_fract_x
_atom_site_fract_y
_atom_site_fract_z
Si Si1 0.291177 0.465270 0.073573
Si Si2 0.462702 0.164899 0.491169
Si Si3 0.255735 0.858816 0.101181
Si Si4 0.360920 0.839223 0.697823
Si Si5 0.489735 0.750000 0.099032
Si Si6 0.516228 0.470696 0.192812
Si Si7 0.380725 0.550562 0.380605
Si Si8 0.835820 0.370080 0.691277
O O1 0.266959 0.549675 0.121984
O O2 0.234552 0.391275 0.133228
O O3 0.433190 0.458086 0.091898
O O4 0.221213 0.473707 0.964341
O O5 0.499505 0.250000 0.534098
O O6 0.319294 0.158098 0.496458
O O7 0.522870 0.163697 0.378150
O O8 0.513837 0.090464 0.553001
O O9 0.382525 0.816899 0.100216
O O10 0.163434 0.833896 0.193234
O O11 0.324802 0.750000 0.720182
O O12 0.403526 0.894242 0.791363
O O13 0.595461 0.683081 0.110127
O O14 0.431606 0.490059 0.295770
O O15 0.598190 0.546996 0.189666
O O16 0.307024 0.619982 0.325893
#
# Coordination Sequence:
#
# PCOD9465656 Si02
#       8
#     8   8   8   8   4   8   8   8
#     4  11  23  41  67  93 130 172 224 270 335 397
#     4  10  21  36  63  96 125 163 215 274 328 383
#     4  12  21  40  63  92 131 168 221 266 316 400
#     4  10  22  41  66  96 124 160 225 287 334 380
#     4  12  26  38  58  96 134 180 210 264 326 394
#     4  12  21  42  65  95 129 173 224 270 335 397
#     4  11  23  40  65  94 131 179 214 274 332 392
#     4  12  24  39  63  93 137 174 217 263 328 407
#
# _framework density 24.510573000000001
#
# number of rings (size 3 to 8) (size 9 to 14) (size 15 to 20)
#    0.000    0.800    6.000    1.200    0.933    3.200 
#    0.000    0.000    0.000    0.000    0.000    0.000 
#    0.000    0.000    0.000    0.000    0.000    0.000 
#
# Total GULP energy -334058.608807 kJ/mol
# GULP energy per Si atom -5567.643480 kJ/mol
# Density = 2.445479 g / cm^3
# Si number density = 24.510573 Si / 1000 Ang^3
#
#
#
# Elastic Constant Matrix: (Units=GPa)
#
#
# Indices 1 2 3 4 5 6 
#
# 1 48.5184 14.4765 5.4263 0.0000 0.0000 0.0000
# 2 14.4765 177.7233 18.2079 0.0000 0.0000 0.0000
# 3 5.4263 18.2079 28.8574 0.0000 0.0000 0.0000
# 4 0.0000 0.0000 0.0000 -13.3365 0.0000 0.0000
# 5 0.0000 0.0000 0.0000 0.0000 25.1639 0.0000
# 6 0.0000 0.0000 0.0000 0.0000 0.0000 29.3569
#
#
#
# Elastic Compliance Matrix: (Units=1/GPa)
#
#
# Indices 1 2 3 4 5 6 
#
# 1 0.021384 -0.001422 -0.003124 0.000000 0.000000 0.000000
# 2 -0.001422 0.006110 -0.003588 0.000000 0.000000 0.000000
# 3 -0.003124 -0.003588 0.037504 0.000000 0.000000 0.000000
# 4 0.000000 0.000000 0.000000 -0.074982 0.000000 0.000000
# 5 0.000000 0.000000 0.000000 0.000000 0.039740 0.000000
# 6 0.000000 0.000000 0.000000 0.000000 0.000000 0.034064
#
#
# Mechanical properties :
#
#
# Convention : Reuss Voigt Hill
#
# Bulk Modulus (GPa) = 20.52062 36.81340 28.66701
# Shear Modulus (GPa) = 51.90422 22.70273 37.30348
#
# Velocity S-wave (km/s) = 4.60676 3.04672 3.90543
# Velocity P-wave (km/s) = 6.05695 5.23724 5.66195
#
# Compressibility (1/GPa) = 0.04873148
#
# Stress axis : x y z
#
# Youngs Moduli (GPa) = 46.76319 163.66289 26.66352
#
# Poissons Ratio (x) = 0.23270 0.08330
# Poissons Ratio (y) = 0.06649 0.09567
# Poissons Ratio (z) = 0.14609 0.58720
#
# Static dielectric constant tensor:
#      x y z
#    x 1.929340 0.000000 0.000000 
#    y 0.000000 1.945980 0.000000 
#    z 0.000000 0.000000 2.035090 
# 
# From -- ./inp_files/23207.got.cif
#   From: 2010.05.17/outbox.cif.g08.bks.cpg/sg62_12_cif.got.tgz:23207.got - 2010.06.03 15:25:27.
