data_PCOD9465400
_publ_section_title
;
Structure prediction by ZEFSAII (Michael W. Deem and Ramdas Pophale) SiO2 
 PCOD9465400
Probable space group: P N M A
;
_chemical_formula_sum "Si O2"
_cell_formula_units_Z 40
_cell_length_a 13.923419
_cell_length_b 10.299527
_cell_length_c 11.795578
_cell_angle_alpha 90.000000
_cell_angle_beta 90.000000
_cell_angle_gamma 90.000000
_cell_volume 1691.540498
_symmetry_space_group_name_H-M "P N M A"
_symmetry_group_IT_number 62
_symmetry_cell_setting 'orthorhombic'
loop_
_space_group_symop_operation_xyz
x,y,z
1/2-x,-y,1/2+z
1/2+x,1/2-y,1/2-z
-x,1/2+y,-z
-x,-y,-z
1/2+x,y,1/2-z
1/2-x,1/2+y,1/2+z
x,1/2-y,z
loop_
_atom_site_type_symbol
_atom_site_label
_atom_site_fract_x
_atom_site_fract_y
_atom_site_fract_z
Si Si1 0.188291 0.750000 0.404946
Si Si2 0.071136 0.250000 0.691352
Si Si3 0.441318 0.458055 0.198809
Si Si4 0.987604 0.750000 0.541169
Si Si5 0.970774 0.614781 0.920817
Si Si6 0.721925 0.750000 0.343059
Si Si7 0.262130 0.963717 0.573122
O O1 0.086416 0.750000 0.470772
O O2 0.158246 0.750000 0.271856
O O3 0.240351 0.881038 0.457111
O O4 0.031197 0.391890 0.715450
O O5 0.179819 0.250000 0.733979
O O6 0.090865 0.250000 0.555006
O O7 0.510854 0.380567 0.113666
O O8 0.456353 0.389458 0.317287
O O9 0.333732 0.446737 0.149356
O O10 0.977341 0.750000 0.985189
O O11 0.861034 0.597271 0.880216
O O12 0.000000 0.500000 0.000000
O O13 0.717080 0.618964 0.417859
#
# Coordination Sequence:
#
# PCOD9465400 Si02
#       7
#     4   4   8   4   8   4   8
#     4  10  22  43  68  93 141 186 224 295 355 414
#     4  10  22  38  66  97 134 171 226 282 341 412
#     4  10  23  44  67 100 136 179 229 283 343 415
#     4  10  20  41  65  94 134 175 234 278 343 411
#     4  12  28  45  72 104 140 182 234 289 352 425
#     4  10  24  44  67 100 135 184 234 285 357 423
#     4  10  24  45  69  99 137 186 234 280 356 418
#
# _framework density 23.647084
#
# number of rings (size 3 to 8) (size 9 to 14) (size 15 to 20)
#    0.000    1.600    2.000    0.600   11.200    0.000 
#    0.000    1.000    0.000    0.000    0.000    0.000 
#    0.000    0.000    0.000    0.000    0.000    0.000 
#
# Total GULP energy -223061.173030 kJ/mol
# GULP energy per Si atom -5576.529326 kJ/mol
# Density = 2.359326 g / cm^3
# Si number density = 23.647084 Si / 1000 Ang^3
#
#
#
# Elastic Constant Matrix: (Units=GPa)
#
#
# Indices 1 2 3 4 5 6 
#
# 1 65.8081 29.1384 3.7498 0.0000 0.0000 0.0000
# 2 29.1384 226.1577 32.8268 0.0000 0.0000 0.0000
# 3 3.7498 32.8268 46.8820 0.0000 0.0000 0.0000
# 4 0.0000 0.0000 0.0000 -8.4080 0.0000 0.0000
# 5 0.0000 0.0000 0.0000 0.0000 17.2242 0.0000
# 6 0.0000 0.0000 0.0000 0.0000 0.0000 -0.0261
#
#
#
# Elastic Compliance Matrix: (Units=1/GPa)
#
#
# Indices 1 2 3 4 5 6 
#
# 1 0.016116 -0.002103 0.000184 0.000000 0.000000 0.000000
# 2 -0.002103 0.005196 -0.003470 0.000000 0.000000 0.000000
# 3 0.000184 -0.003470 0.023745 0.000000 0.000000 0.000000
# 4 0.000000 0.000000 0.000000 -0.118935 0.000000 0.000000
# 5 0.000000 0.000000 0.000000 0.000000 0.058058 0.000000
# 6 0.000000 0.000000 0.000000 0.000000 0.000000-38.385331
#
#
# Mechanical properties :
#
#
# Convention : Reuss Voigt Hill
#
# Bulk Modulus (GPa) = 29.17281 52.25309 40.71295
# Shear Modulus (GPa) = -0.13028 19.96688 9.91830
#
# Velocity S-wave (km/s) = -0.23497 2.90896 2.05022
# Velocity P-wave (km/s) = 3.50570 5.78167 4.78109
#
# Compressibility (1/GPa) = 0.03427849
#
# Stress axis : x y z
#
# Youngs Moduli (GPa) = 62.04839 192.44198 42.11343
#
# Poissons Ratio (x) = 0.40472 -0.00773
# Poissons Ratio (y) = 0.13049 0.14615
# Poissons Ratio (z) = -0.01139 0.66783
#
# Static dielectric constant tensor:
#      x y z
#    x 2.143530 0.000000 0.000000 
#    y 0.000000 1.859120 0.000000 
#    z 0.000000 0.000000 1.931070 
# 
# From -- ./inp_files/13072.got.cif
#   From: 2010.05.17/outbox.cif.g08.bks.cpg/sg62_7_cif.got.tgz:13072.got - 2010.06.03 15:25:27.
