data_PCOD9465691
_publ_section_title
;
Structure prediction by ZEFSAII (Michael W. Deem and Ramdas Pophale) SiO2 
 PCOD9465691
Probable space group: P N M A
;
_chemical_formula_sum "Si O2"
_cell_formula_units_Z 48
_cell_length_a 9.369667
_cell_length_b 9.008331
_cell_length_c 31.495924
_cell_angle_alpha 90.000000
_cell_angle_beta 90.000000
_cell_angle_gamma 90.000000
_cell_volume 2658.415408
_symmetry_space_group_name_H-M "P N M A"
_symmetry_group_IT_number 62
_symmetry_cell_setting 'orthorhombic'
loop_
_space_group_symop_operation_xyz
x,y,z
1/2-x,-y,1/2+z
1/2+x,1/2-y,1/2-z
-x,1/2+y,-z
-x,-y,-z
1/2+x,y,1/2-z
1/2-x,1/2+y,1/2+z
x,1/2-y,z
loop_
_atom_site_type_symbol
_atom_site_label
_atom_site_fract_x
_atom_site_fract_y
_atom_site_fract_z
Si Si1 0.902416 0.427552 0.288349
Si Si2 0.603755 0.428428 0.632653
Si Si3 0.081282 0.424308 0.961639
Si Si4 0.578090 0.574912 0.039386
Si Si5 0.911237 0.573452 0.628447
Si Si6 0.409310 0.072023 0.714167
O O1 0.892930 0.250000 0.281798
O O2 0.746640 0.500115 0.287064
O O3 0.978932 0.454643 0.333493
O O4 0.999881 0.500766 0.252132
O O5 0.628329 0.250000 0.630441
O O6 0.546566 0.476839 0.586288
O O7 0.756378 0.505429 0.639782
O O8 0.494467 0.457899 0.670452
O O9 0.049215 0.250000 0.963481
O O10 0.251474 0.444038 0.965973
O O11 0.000000 0.500000 0.000000
O O12 0.547313 0.750000 0.040951
O O13 0.540446 0.500188 0.084302
O O14 0.500000 0.500000 0.000000
O O15 0.896844 0.750000 0.622761
O O16 0.398922 0.250000 0.719662
#
# Coordination Sequence:
#
# PCOD9465691 Si02
#       6
#     8   8   8   8   8   8
#     4  11  24  40  58  84 118 150 184 233 288 338
#     4   9  20  38  57  80 111 145 184 232 280 328
#     4   9  19  35  54  79 110 143 180 223 272 324
#     4  10  21  37  57  82 113 147 186 232 279 330
#     4  10  21  37  58  83 111 147 188 228 278 337
#     4  11  23  39  61  86 112 148 193 234 279 341
#
# _framework density 18.055868
#
# number of rings (size 3 to 8) (size 9 to 14) (size 15 to 20)
#    0.000    2.000    0.000    4.000    0.000   11.333 
#    0.000    3.333    0.000    0.000    0.000    0.000 
#    0.000    0.000    0.000    0.000    0.000    0.000 
#
# Total GULP energy -268093.672535 kJ/mol
# GULP energy per Si atom -5585.284844 kJ/mol
# Density = 1.801477 g / cm^3
# Si number density = 18.055868 Si / 1000 Ang^3
#
#
#
# Elastic Constant Matrix: (Units=GPa)
#
#
# Indices 1 2 3 4 5 6 
#
# 1 116.2767 82.5074 108.8821 0.0000 0.0000 0.0000
# 2 82.5074 96.7388 109.1241 0.0000 0.0000 0.0000
# 3 108.8821 109.1241 184.9169 0.0000 0.0000 0.0000
# 4 0.0000 0.0000 0.0000 34.2564 0.0000 0.0000
# 5 0.0000 0.0000 0.0000 0.0000 35.0594 0.0000
# 6 0.0000 0.0000 0.0000 0.0000 0.0000 36.9898
#
#
#
# Elastic Compliance Matrix: (Units=1/GPa)
#
#
# Indices 1 2 3 4 5 6 
#
# 1 0.023887 -0.013482 -0.006109 0.000000 0.000000 0.000000
# 2 -0.013482 0.038529 -0.014798 0.000000 0.000000 0.000000
# 3 -0.006109 -0.014798 0.017738 0.000000 0.000000 0.000000
# 4 0.000000 0.000000 0.000000 0.029192 0.000000 0.000000
# 5 0.000000 0.000000 0.000000 0.000000 0.028523 0.000000
# 6 0.000000 0.000000 0.000000 0.000000 0.000000 0.027034
#
#
# Mechanical properties :
#
#
# Convention : Reuss Voigt Hill
#
# Bulk Modulus (GPa) = 87.91234 110.99549 99.45392
# Shear Modulus (GPa) = 21.05498 27.75571 24.40534
#
# Velocity S-wave (km/s) = 3.41853 3.92498 3.68048
# Velocity P-wave (km/s) = 8.02350 9.06352 8.55932
#
# Compressibility (1/GPa) = 0.01137497
#
# Stress axis : x y z
#
# Youngs Moduli (GPa) = 41.86322 25.95481 56.37596
#
# Poissons Ratio (x) = 0.34991 0.34442
# Poissons Ratio (y) = 0.56439 0.83427
# Poissons Ratio (z) = 0.25576 0.38409
#
# Static dielectric constant tensor:
#      x y z
#    x 1.584290 0.000000 0.000000 
#    y 0.000000 1.607330 0.000000 
#    z 0.000000 0.000000 1.614300 
# 
# From -- ./inp_files/31917.got.cif
#   From: 2010.05.17/outbox.cif.g08.bks.cpg/sg62_16_cif.got.tgz:31917.got - 2010.06.03 15:25:27.
