data_PCOD9465775
_publ_section_title
;
Structure prediction by ZEFSAII (Michael W. Deem and Ramdas Pophale) SiO2 
 PCOD9465775
Probable space group: P N M A
;
_chemical_formula_sum "Si O2"
_cell_formula_units_Z 48
_cell_length_a 5.147601
_cell_length_b 16.326427
_cell_length_c 29.793807
_cell_angle_alpha 90.000000
_cell_angle_beta 90.000000
_cell_angle_gamma 90.000000
_cell_volume 2503.929100
_symmetry_space_group_name_H-M "P N M A"
_symmetry_group_IT_number 62
_symmetry_cell_setting 'orthorhombic'
loop_
_space_group_symop_operation_xyz
x,y,z
1/2-x,-y,1/2+z
1/2+x,1/2-y,1/2-z
-x,1/2+y,-z
-x,-y,-z
1/2+x,y,1/2-z
1/2-x,1/2+y,1/2+z
x,1/2-y,z
loop_
_atom_site_type_symbol
_atom_site_label
_atom_site_fract_x
_atom_site_fract_y
_atom_site_fract_z
Si Si1 0.075551 0.845025 0.075750
Si Si2 0.571048 0.846549 0.015336
Si Si3 0.560054 0.250000 0.307609
Si Si4 0.560939 0.250000 0.133335
Si Si5 0.060606 0.502230 0.877151
Si Si6 0.494308 0.567288 0.723049
Si Si7 0.555638 0.582664 0.918638
O O1 0.076474 0.750000 0.089694
O O2 0.013390 0.907917 0.115201
O O3 0.347161 0.864235 0.051491
O O4 0.850185 0.855569 0.038520
O O5 0.541468 0.750000 0.002547
O O6 0.544212 0.902445 0.971685
O O7 0.354396 0.250000 0.348668
O O8 0.506296 0.166052 0.281744
O O9 0.853772 0.250000 0.325985
O O10 0.506387 0.169206 0.104879
O O11 0.055311 0.530538 0.825674
O O12 0.336291 0.521972 0.899809
O O13 0.838789 0.553461 0.903199
O O14 0.213280 0.543006 0.741362
#
# Coordination Sequence:
#
# PCOD9465775 Si02
#       7
#     8   8   4   4   8   8   8
#     4  10  23  42  61  85 115 153 197 244 301 345
#     4  10  21  37  60  87 121 160 196 236 279 338
#     4  12  22  39  60  84 120 162 198 224 280 341
#     4  12  20  37  56  86 126 164 194 226 270 345
#     4  12  25  40  61  86 117 154 196 247 293 343
#     4  12  24  40  59  86 117 151 191 241 289 345
#     4  12  22  37  60  88 124 162 195 232 281 333
#
# _framework density 19.16987
#
# number of rings (size 3 to 8) (size 9 to 14) (size 15 to 20)
#    0.000    0.667    4.167    4.500    0.000    4.000 
#    0.000    0.000    0.000    1.000    0.000    0.000 
#    0.000    0.000    0.000    0.000    0.000    0.000 
#
# Total GULP energy -268623.980846 kJ/mol
# GULP energy per Si atom -5596.332934 kJ/mol
# Density = 1.912624 g / cm^3
# Si number density = 19.169870 Si / 1000 Ang^3
#
#
#
# Elastic Constant Matrix: (Units=GPa)
#
#
# Indices 1 2 3 4 5 6 
#
# 1 65.3621 1.2784 1.8012 0.0000 0.0000 0.0000
# 2 1.2784 61.3463 37.6720 0.0000 0.0000 0.0000
# 3 1.8012 37.6720 60.7827 0.0000 0.0000 0.0000
# 4 0.0000 0.0000 0.0000 8.7203 0.0000 0.0000
# 5 0.0000 0.0000 0.0000 0.0000 25.5638 0.0000
# 6 0.0000 0.0000 0.0000 0.0000 0.0000 17.0020
#
#
#
# Elastic Compliance Matrix: (Units=1/GPa)
#
#
# Indices 1 2 3 4 5 6 
#
# 1 0.015312 -0.000065 -0.000413 0.000000 0.000000 0.000000
# 2 -0.000065 0.026318 -0.016309 0.000000 0.000000 0.000000
# 3 -0.000413 -0.016309 0.026572 0.000000 0.000000 0.000000
# 4 0.000000 0.000000 0.000000 0.114675 0.000000 0.000000
# 5 0.000000 0.000000 0.000000 0.000000 0.039118 0.000000
# 6 0.000000 0.000000 0.000000 0.000000 0.000000 0.058817
#
#
# Mechanical properties :
#
#
# Convention : Reuss Voigt Hill
#
# Bulk Modulus (GPa) = 28.87964 29.88827 29.38395
# Shear Modulus (GPa) = 15.34074 20.03985 17.69029
#
# Velocity S-wave (km/s) = 2.83194 3.23675 3.04109
# Velocity P-wave (km/s) = 5.07849 5.44002 5.26236
#
# Compressibility (1/GPa) = 0.03462647
#
# Stress axis : x y z
#
# Youngs Moduli (GPa) = 65.30806 37.99743 37.63293
#
# Poissons Ratio (x) = 0.00248 0.01555
# Poissons Ratio (y) = 0.00427 0.61376
# Poissons Ratio (z) = 0.02699 0.61971
#
# Static dielectric constant tensor:
#      x y z
#    x 1.653730 0.000000 0.000000 
#    y 0.000000 1.682580 0.000000 
#    z 0.000000 0.000000 1.636090 
# 
# From -- ./inp_files/30434.got.cif
#   From: 2010.05.17/outbox.cif.g08.bks.cpg/sg62_16_cif.got.tgz:30434.got - 2010.06.03 15:25:27.
