data_PCOD9465263
_publ_section_title
;
Structure prediction by ZEFSAII (Michael W. Deem and Ramdas Pophale) SiO2 
 PCOD9465263
Probable space group: P N M A
;
_chemical_formula_sum "Si O2"
_cell_formula_units_Z 48
_cell_length_a 27.613701
_cell_length_b 7.656548
_cell_length_c 9.863394
_cell_angle_alpha 90.000000
_cell_angle_beta 90.000000
_cell_angle_gamma 90.000000
_cell_volume 2085.374262
_symmetry_space_group_name_H-M "P N M A"
_symmetry_group_IT_number 62
_symmetry_cell_setting 'orthorhombic'
loop_
_space_group_symop_operation_xyz
x,y,z
1/2-x,-y,1/2+z
1/2+x,1/2-y,1/2-z
-x,1/2+y,-z
-x,-y,-z
1/2+x,y,1/2-z
1/2-x,1/2+y,1/2+z
x,1/2-y,z
loop_
_atom_site_type_symbol
_atom_site_label
_atom_site_fract_x
_atom_site_fract_y
_atom_site_fract_z
Si Si1 0.584637 0.038392 0.517497
Si Si2 0.306865 0.544184 0.434085
Si Si3 0.771087 0.538459 0.351501
Si Si4 0.872003 0.547413 0.469544
Si Si5 0.462499 0.963896 0.206034
Si Si6 0.931763 0.453850 0.707717
O O1 0.584801 0.250000 0.513442
O O2 0.638748 0.974611 0.554258
O O3 0.549003 0.985987 0.638782
O O4 0.571647 0.975041 0.368506
O O5 0.312762 0.750000 0.409214
O O6 0.276313 0.521052 0.569785
O O7 0.277808 0.476590 0.303062
O O8 0.768948 0.750000 0.354097
O O9 0.819500 0.476211 0.431040
O O10 0.869475 0.750000 0.428620
O O11 0.917623 0.474089 0.385154
O O12 0.887629 0.536588 0.625476
O O13 0.463830 0.750000 0.200893
O O14 0.515705 0.026605 0.164002
O O15 0.929917 0.250000 0.674854
#
# Coordination Sequence:
#
# PCOD9465263 Si02
#       6
#     8   8   8   8   8   8
#     4  10  20  39  62  82 111 154 195 229 276 342
#     4  10  22  40  62  86 112 147 189 233 282 337
#     4  10  22  40  62  86 112 147 189 233 282 337
#     4  10  20  39  62  82 111 154 195 229 276 342
#     4   9  18  37  62  83 110 150 195 237 278 331
#     4  11  23  35  54  89 122 148 185 237 286 327
#
# _framework density 23.017451000000001
#
# number of rings (size 3 to 8) (size 9 to 14) (size 15 to 20)
#    0.000    2.000    1.667    1.500    2.333    2.000 
#    0.000    2.500    0.000    0.000    0.000    0.000 
#    0.000    0.000    0.000    0.000    0.000    0.000 
#
# Total GULP energy -268294.779222 kJ/mol
# GULP energy per Si atom -5589.474567 kJ/mol
# Density = 2.296506 g / cm^3
# Si number density = 23.017451 Si / 1000 Ang^3
#
#
#
# Elastic Constant Matrix: (Units=GPa)
#
#
# Indices 1 2 3 4 5 6 
#
# 1 51.4640 -2.1687 -3.2696 0.0000 0.0000 0.0000
# 2 -2.1687 40.5188 -8.2610 0.0000 0.0000 0.0000
# 3 -3.2696 -8.2610 62.8854 0.0000 0.0000 0.0000
# 4 0.0000 0.0000 0.0000 16.8431 0.0000 0.0000
# 5 0.0000 0.0000 0.0000 0.0000 43.0884 0.0000
# 6 0.0000 0.0000 0.0000 0.0000 0.0000 9.0908
#
#
#
# Elastic Compliance Matrix: (Units=1/GPa)
#
#
# Indices 1 2 3 4 5 6 
#
# 1 0.019561 0.001289 0.001186 0.000000 0.000000 0.000000
# 2 0.001289 0.025444 0.003409 0.000000 0.000000 0.000000
# 3 0.001186 0.003409 0.016411 0.000000 0.000000 0.000000
# 4 0.000000 0.000000 0.000000 0.059372 0.000000 0.000000
# 5 0.000000 0.000000 0.000000 0.000000 0.023208 0.000000
# 6 0.000000 0.000000 0.000000 0.000000 0.000000 0.110002
#
#
# Mechanical properties :
#
#
# Convention : Reuss Voigt Hill
#
# Bulk Modulus (GPa) = 13.66390 14.16329 13.91360
# Shear Modulus (GPa) = 18.75303 25.04227 21.89765
#
# Velocity S-wave (km/s) = 2.85745 3.30202 3.08774
# Velocity P-wave (km/s) = 4.10315 4.55021 4.33245
#
# Compressibility (1/GPa) = 0.07318555
#
# Stress axis : x y z
#
# Youngs Moduli (GPa) = 51.12281 39.30195 60.93288
#
# Poissons Ratio (x) = -0.05065 -0.07229
# Poissons Ratio (y) = -0.06589 -0.20775
# Poissons Ratio (z) = -0.06065 -0.13400
#
# Static dielectric constant tensor:
#      x y z
#    x 1.837560 0.000000 0.000000 
#    y 0.000000 1.871060 0.000000 
#    z 0.000000 0.000000 1.841300 
# 
# From -- ./inp_files/10145.got.cif
#   From: 2010.05.17/outbox.cif.g08.bks.cpg/sg62_6_cif.got.tgz:10145.got - 2010.06.03 15:25:27.
