data_PCOD9465752
_publ_section_title
;
Structure prediction by ZEFSAII (Michael W. Deem and Ramdas Pophale) SiO2 
 PCOD9465752
Probable space group: P N M A
;
_chemical_formula_sum "Si O2"
_cell_formula_units_Z 56
_cell_length_a 9.266824
_cell_length_b 21.535038
_cell_length_c 13.237206
_cell_angle_alpha 90.000000
_cell_angle_beta 90.000000
_cell_angle_gamma 90.000000
_cell_volume 2641.635454
_symmetry_space_group_name_H-M "P N M A"
_symmetry_group_IT_number 62
_symmetry_cell_setting 'orthorhombic'
loop_
_space_group_symop_operation_xyz
x,y,z
1/2-x,-y,1/2+z
1/2+x,1/2-y,1/2-z
-x,1/2+y,-z
-x,-y,-z
1/2+x,y,1/2-z
1/2-x,1/2+y,1/2+z
x,1/2-y,z
loop_
_atom_site_type_symbol
_atom_site_label
_atom_site_fract_x
_atom_site_fract_y
_atom_site_fract_z
Si Si1 0.875569 0.009244 0.110888
Si Si2 0.532158 0.390197 0.860278
Si Si3 0.344732 0.924846 0.544838
Si Si4 0.821086 0.175284 0.793024
Si Si5 0.070788 0.535792 0.666448
Si Si6 0.065407 0.820844 0.978311
Si Si7 0.836994 0.610798 0.571495
O O1 0.855467 0.027632 0.225496
O O2 0.768689 0.052562 0.045584
O O3 0.042846 0.024670 0.090493
O O4 0.841254 0.940687 0.074312
O O5 0.408399 0.354335 0.799789
O O6 0.676725 0.364852 0.806424
O O7 0.519445 0.465424 0.858639
O O8 0.560256 0.373316 0.977418
O O9 0.191589 0.936538 0.592954
O O10 0.431838 0.861919 0.558379
O O11 0.795942 0.250000 0.779713
O O12 0.901516 0.168134 0.902169
O O13 0.938142 0.584196 0.659920
O O14 0.030170 0.750000 0.964839
O O15 0.213993 0.837233 0.918410
#
# Coordination Sequence:
#
# PCOD9465752 Si02
#       7
#     8   8   8   8   8   8   8
#     4  10  21  37  59  85 130 164 198 253 321 373
#     4  11  23  36  59  87 130 169 199 252 312 370
#     4  10  21  37  60  92 125 164 210 254 313 381
#     4  10  22  40  61  92 126 169 216 247 299 386
#     4  12  23  35  60  94 128 161 205 266 321 371
#     4   9  20  42  66  84 119 170 212 256 316 376
#     4  10  22  39  57  89 127 162 204 258 321 377
#
# _framework density 21.198988
#
# number of rings (size 3 to 8) (size 9 to 14) (size 15 to 20)
#    0.000    1.714    1.429    2.571    6.000    1.714 
#    0.000    0.714    0.000   13.714    0.000    0.000 
#    0.000    0.000    0.000    0.000    0.000    0.000 
#
# Total GULP energy -312352.502483 kJ/mol
# GULP energy per Si atom -5577.723259 kJ/mol
# Density = 2.115074 g / cm^3
# Si number density = 21.198988 Si / 1000 Ang^3
#
#
#
# Elastic Constant Matrix: (Units=GPa)
#
#
# Indices 1 2 3 4 5 6 
#
# 1 80.3231 27.9922 34.4627 0.0000 0.0000 0.0000
# 2 27.9922 83.6240 32.2882 0.0000 0.0000 0.0000
# 3 34.4627 32.2882 59.2898 0.0000 0.0000 0.0000
# 4 0.0000 0.0000 0.0000 24.2791 0.0000 0.0000
# 5 0.0000 0.0000 0.0000 0.0000 32.4039 0.0000
# 6 0.0000 0.0000 0.0000 0.0000 0.0000 21.4659
#
#
#
# Elastic Compliance Matrix: (Units=1/GPa)
#
#
# Indices 1 2 3 4 5 6 
#
# 1 0.016948 -0.002367 -0.008562 0.000000 0.000000 0.000000
# 2 -0.002367 0.015473 -0.007050 0.000000 0.000000 0.000000
# 3 -0.008562 -0.007050 0.025683 0.000000 0.000000 0.000000
# 4 0.000000 0.000000 0.000000 0.041188 0.000000 0.000000
# 5 0.000000 0.000000 0.000000 0.000000 0.030861 0.000000
# 6 0.000000 0.000000 0.000000 0.000000 0.000000 0.046586
#
#
# Mechanical properties :
#
#
# Convention : Reuss Voigt Hill
#
# Bulk Modulus (GPa) = 45.15823 45.85812 45.50818
# Shear Modulus (GPa) = 22.71917 24.19602 23.45759
#
# Velocity S-wave (km/s) = 3.27725 3.38209 3.33008
# Velocity P-wave (km/s) = 5.97234 6.07705 6.02492
#
# Compressibility (1/GPa) = 0.02214436
#
# Stress axis : x y z
#
# Youngs Moduli (GPa) = 59.00291 64.62910 38.93692
#
# Poissons Ratio (x) = 0.15300 0.33338
# Poissons Ratio (y) = 0.13968 0.27451
# Poissons Ratio (z) = 0.50519 0.45565
#
# Static dielectric constant tensor:
#      x y z
#    x 1.793570 0.000000 0.000000 
#    y 0.000000 1.777400 0.000000 
#    z 0.000000 0.000000 1.866530 
# 
# From -- ./inp_files/17184.got.cif
#   From: 2010.05.17/outbox.cif.g08.bks.cpg/sg62_9_cif.got.tgz:17184.got - 2010.06.03 15:25:27.
