data_PCOD9465395
_publ_section_title
;
Structure prediction by ZEFSAII (Michael W. Deem and Ramdas Pophale) SiO2 
 PCOD9465395
Probable space group: P N M A
;
_chemical_formula_sum "Si O2"
_cell_formula_units_Z 64
_cell_length_a 17.436586
_cell_length_b 14.635188
_cell_length_c 12.400441
_cell_angle_alpha 90.000000
_cell_angle_beta 90.000000
_cell_angle_gamma 90.000000
_cell_volume 3164.440194
_symmetry_space_group_name_H-M "P N M A"
_symmetry_group_IT_number 62
_symmetry_cell_setting 'orthorhombic'
loop_
_space_group_symop_operation_xyz
x,y,z
1/2-x,-y,1/2+z
1/2+x,1/2-y,1/2-z
-x,1/2+y,-z
-x,-y,-z
1/2+x,y,1/2-z
1/2-x,1/2+y,1/2+z
x,1/2-y,z
loop_
_atom_site_type_symbol
_atom_site_label
_atom_site_fract_x
_atom_site_fract_y
_atom_site_fract_z
Si Si1 0.596521 0.027441 0.735458
Si Si2 0.728677 0.490470 0.236304
Si Si3 0.877720 0.643978 0.640931
Si Si4 0.145896 0.642929 0.372444
Si Si5 0.728687 0.355281 0.438814
Si Si6 0.441376 0.854311 0.460041
Si Si7 0.507400 0.644644 0.689361
Si Si8 0.029508 0.141143 0.572612
O O1 0.551806 0.076813 0.638114
O O2 0.576891 0.082821 0.842215
O O3 0.686577 0.026369 0.713774
O O4 0.567102 0.924269 0.740473
O O5 0.695391 0.420616 0.147101
O O6 0.671769 0.576793 0.224594
O O7 0.732029 0.431927 0.346341
O O8 0.855988 0.750000 0.631538
O O9 0.936373 0.621909 0.545083
O O10 0.925887 0.631631 0.751061
O O11 0.148094 0.750000 0.341770
O O12 0.205579 0.630804 0.471280
O O13 0.060349 0.620388 0.412722
O O14 0.736829 0.250000 0.396326
O O15 0.645616 0.359366 0.495314
O O16 0.454246 0.750000 0.422776
O O17 0.495564 0.871709 0.562446
O O18 0.529081 0.750000 0.706722
O O19 0.038902 0.250000 0.591899
#
# Coordination Sequence:
#
# PCOD9465395 Si02
#       8
#     8   8   8   8   8   8   8   8
#     4  12  25  37  62  95 129 162 208 258 313 387
#     4  12  24  36  64  95 125 160 207 261 321 370
#     4  10  22  43  66  91 126 164 208 264 318 371
#     4  10  23  44  67  92 128 171 217 262 314 387
#     4  10  21  40  64  91 123 165 213 258 312 381
#     4  10  20  41  65  84 118 166 212 252 305 374
#     4  10  22  40  62  88 120 164 212 262 313 366
#     4  10  24  43  66  95 128 170 211 259 322 377
#
# _framework density 20.224744999999999
#
# number of rings (size 3 to 8) (size 9 to 14) (size 15 to 20)
#    0.000    1.500    2.500    1.875    3.500    2.500 
#    0.000    0.000    0.000    0.000    0.000    0.000 
#    0.000    0.000    0.000    0.000    0.000    0.000 
#
# Total GULP energy -357674.231670 kJ/mol
# GULP energy per Si atom -5588.659870 kJ/mol
# Density = 2.017871 g / cm^3
# Si number density = 20.224745 Si / 1000 Ang^3
#
#
#
# Elastic Constant Matrix: (Units=GPa)
#
#
# Indices 1 2 3 4 5 6 
#
# 1 44.0396 0.5024 -13.6931 0.0000 0.0000 0.0000
# 2 0.5024 64.0744 30.6617 0.0000 0.0000 0.0000
# 3 -13.6931 30.6617 57.0629 0.0000 0.0000 0.0000
# 4 0.0000 0.0000 0.0000 29.2513 0.0000 0.0000
# 5 0.0000 0.0000 0.0000 0.0000 2.7790 0.0000
# 6 0.0000 0.0000 0.0000 0.0000 0.0000 29.6807
#
#
#
# Elastic Compliance Matrix: (Units=1/GPa)
#
#
# Indices 1 2 3 4 5 6 
#
# 1 0.025345 -0.004185 0.008331 0.000000 0.000000 0.000000
# 2 -0.004185 0.021700 -0.012664 0.000000 0.000000 0.000000
# 3 0.008331 -0.012664 0.026329 0.000000 0.000000 0.000000
# 4 0.000000 0.000000 0.000000 0.034187 0.000000 0.000000
# 5 0.000000 0.000000 0.000000 0.000000 0.359848 0.000000
# 6 0.000000 0.000000 0.000000 0.000000 0.000000 0.033692
#
#
# Mechanical properties :
#
#
# Convention : Reuss Voigt Hill
#
# Bulk Modulus (GPa) = 17.75078 22.23543 19.99310
# Shear Modulus (GPa) = 9.31245 22.18926 15.75086
#
# Velocity S-wave (km/s) = 2.14813 3.31590 2.79371
# Velocity P-wave (km/s) = 3.86632 5.06737 4.50703
#
# Compressibility (1/GPa) = 0.05633555
#
# Stress axis : x y z
#
# Youngs Moduli (GPa) = 39.45582 46.08295 37.98151
#
# Poissons Ratio (x) = 0.19287 -0.31641
# Poissons Ratio (y) = 0.16513 0.48101
# Poissons Ratio (z) = -0.32870 0.58361
#
# Static dielectric constant tensor:
#      x y z
#    x 1.698740 0.000000 0.000000 
#    y 0.000000 1.735890 0.000000 
#    z 0.000000 0.000000 1.699210 
# 
# From -- ./inp_files/14332.got.cif
#   From: 2010.05.17/outbox.cif.g08.bks.cpg/sg62_8_cif.got.tgz:14332.got - 2010.06.03 15:25:27.
