data_PCOD9465744
_publ_section_title
;
Structure prediction by ZEFSAII (Michael W. Deem and Ramdas Pophale) SiO2 
 PCOD9465744
Probable space group: P N M A
;
_chemical_formula_sum "Si O2"
_cell_formula_units_Z 48
_cell_length_a 12.902155
_cell_length_b 14.235883
_cell_length_c 13.326819
_cell_angle_alpha 90.000000
_cell_angle_beta 90.000000
_cell_angle_gamma 90.000000
_cell_volume 2447.784410
_symmetry_space_group_name_H-M "P N M A"
_symmetry_group_IT_number 62
_symmetry_cell_setting 'orthorhombic'
loop_
_space_group_symop_operation_xyz
x,y,z
1/2-x,-y,1/2+z
1/2+x,1/2-y,1/2-z
-x,1/2+y,-z
-x,-y,-z
1/2+x,y,1/2-z
1/2-x,1/2+y,1/2+z
x,1/2-y,z
loop_
_atom_site_type_symbol
_atom_site_label
_atom_site_fract_x
_atom_site_fract_y
_atom_site_fract_z
Si Si1 0.591545 0.555274 0.263586
Si Si2 0.608715 0.250000 0.475212
Si Si3 0.973876 0.250000 0.221645
Si Si4 0.741720 0.453897 0.113139
Si Si5 0.094729 0.750000 0.115637
Si Si6 0.710518 0.061532 0.419203
Si Si7 0.593731 0.558742 0.773536
Si Si8 0.233348 0.750000 0.914205
O O1 0.673559 0.525856 0.177980
O O2 0.601777 0.657421 0.313977
O O3 0.616896 0.481419 0.353480
O O4 0.479879 0.531133 0.216354
O O5 0.559284 0.250000 0.364056
O O6 0.515854 0.250000 0.556239
O O7 0.676406 0.155729 0.476047
O O8 0.974032 0.347058 0.281089
O O9 0.863180 0.250000 0.163425
O O10 0.854955 0.451543 0.163971
O O11 0.705723 0.345628 0.109297
O O12 0.754448 0.487285 0.000975
O O13 0.181626 0.750000 0.026124
O O14 0.808310 0.072844 0.345730
#
# Coordination Sequence:
#
# PCOD9465744 Si02
#       8
#     8   4   4   8   4   8   8   4
#     4  11  23  39  61  90 128 167 215 266 329 379
#     4  11  21  34  65  94 118 161 216 260 325 375
#     4   9  17  32  57  88 115 146 198 264 302 364
#     4  10  22  38  61  91 125 170 213 266 317 389
#     4  11  22  38  65  94 127 170 211 274 322 384
#     4  11  22  38  60  91 125 168 212 269 321 387
#     4  10  21  37  58  89 125 160 205 267 321 375
#     4   9  18  36  61  90 122 161 215 254 315 375
#
# _framework density 19.609570000000001
#
# number of rings (size 3 to 8) (size 9 to 14) (size 15 to 20)
#    0.000    1.667    3.333    1.500    0.000    5.333 
#    0.000    4.167    0.000    0.000    0.000    0.000 
#    0.000    0.000    0.000    0.000    0.000    0.000 
#
# Total GULP energy -267643.971582 kJ/mol
# GULP energy per Si atom -5575.916075 kJ/mol
# Density = 1.956494 g / cm^3
# Si number density = 19.609570 Si / 1000 Ang^3
#
#
#
# Elastic Constant Matrix: (Units=GPa)
#
#
# Indices 1 2 3 4 5 6 
#
# 1 55.4273 44.2733 14.4079 0.0000 0.0000 0.0000
# 2 44.2733 96.2667 10.8565 0.0000 0.0000 0.0000
# 3 14.4079 10.8565 46.2912 0.0000 0.0000 0.0000
# 4 0.0000 0.0000 0.0000 31.1030 0.0000 0.0000
# 5 0.0000 0.0000 0.0000 0.0000 15.1658 0.0000
# 6 0.0000 0.0000 0.0000 0.0000 0.0000 707.5259
#
#
#
# Elastic Compliance Matrix: (Units=1/GPa)
#
#
# Indices 1 2 3 4 5 6 
#
# 1 0.030212 -0.013183 -0.006312 0.000000 0.000000 0.000000
# 2 -0.013183 0.016422 0.000252 0.000000 0.000000 0.000000
# 3 -0.006312 0.000252 0.023508 0.000000 0.000000 0.000000
# 4 0.000000 0.000000 0.000000 0.032151 0.000000 0.000000
# 5 0.000000 0.000000 0.000000 0.000000 0.065938 0.000000
# 6 0.000000 0.000000 0.000000 0.000000 0.000000 0.001413
#
#
# Mechanical properties :
#
#
# Convention : Reuss Voigt Hill
#
# Bulk Modulus (GPa) = 31.58904 37.45117 34.52011
# Shear Modulus (GPa) = 22.86413 159.32211 91.09312
#
# Velocity S-wave (km/s) = 3.41833 9.02350 6.82307
# Velocity P-wave (km/s) = 5.63240 11.30064 8.92828
#
# Compressibility (1/GPa) = 0.03165655
#
# Stress axis : x y z
#
# Youngs Moduli (GPa) = 33.09904 60.89291 42.53898
#
# Poissons Ratio (x) = 0.80275 0.26849
# Poissons Ratio (y) = 0.43634 -0.01071
# Poissons Ratio (z) = 0.20891 -0.01533
#
# Static dielectric constant tensor:
#      x y z
#    x 1.730590 0.000000 0.000000 
#    y 0.000000 1.742190 0.000000 
#    z 0.000000 0.000000 1.665080 
# 
# From -- ./inp_files/18039.got.cif
#   From: 2010.05.17/outbox.cif.g08.bks.cpg/sg62_10_cif.got.tgz:18039.got - 2010.06.03 15:25:27.
