data_PCOD9465720
_publ_section_title
;
Structure prediction by ZEFSAII (Michael W. Deem and Ramdas Pophale) SiO2 
 PCOD9465720
Probable space group: P N M A
;
_chemical_formula_sum "Si O2"
_cell_formula_units_Z 56
_cell_length_a 10.793724
_cell_length_b 11.266305
_cell_length_c 23.194236
_cell_angle_alpha 90.000000
_cell_angle_beta 90.000000
_cell_angle_gamma 90.000000
_cell_volume 2820.544037
_symmetry_space_group_name_H-M "P N M A"
_symmetry_group_IT_number 62
_symmetry_cell_setting 'orthorhombic'
loop_
_space_group_symop_operation_xyz
x,y,z
1/2-x,-y,1/2+z
1/2+x,1/2-y,1/2-z
-x,1/2+y,-z
-x,-y,-z
1/2+x,y,1/2-z
1/2-x,1/2+y,1/2+z
x,1/2-y,z
loop_
_atom_site_type_symbol
_atom_site_label
_atom_site_fract_x
_atom_site_fract_y
_atom_site_fract_z
Si Si1 0.596475 0.608638 0.696235
Si Si2 0.597657 0.890172 0.832837
Si Si3 0.736530 0.061722 0.541459
Si Si4 0.750020 0.964556 0.416555
Si Si5 0.166238 0.388473 0.374111
Si Si6 0.510213 0.117607 0.622934
Si Si7 0.503359 0.375132 0.966702
O O1 0.566511 0.750000 0.681894
O O2 0.583013 0.594968 0.764538
O O3 0.739964 0.588726 0.678420
O O4 0.528296 0.500362 0.662882
O O5 0.612114 0.750000 0.843745
O O6 0.471186 0.935933 0.862933
O O7 0.711582 0.957566 0.861506
O O8 0.615655 0.109365 0.573259
O O9 0.864357 0.126838 0.558998
O O10 0.728553 0.048259 0.472849
O O11 0.763838 0.933296 0.569272
O O12 0.625304 0.894090 0.404653
O O13 0.871653 0.885670 0.429914
O O14 0.151162 0.250000 0.377427
O O15 0.522511 0.250000 0.650212
O O16 0.512166 0.250000 0.000572
O O17 0.500000 0.500000 0.000000
#
# Coordination Sequence:
#
# PCOD9465720 Si02
#       7
#     8   8   8   8   8   8   8
#     4   9  21  41  66  90 121 160 211 264 316 368
#     4  10  21  37  63  95 123 157 207 269 316 367
#     4  10  21  40  61  90 125 169 208 248 306 376
#     4  11  23  38  60  95 129 165 205 256 315 371
#     4   9  18  35  61  92 121 158 204 258 315 364
#     4  11  24  42  63  90 130 171 211 254 310 372
#     4  10  21  37  58  84 119 160 205 250 300 357
#
# _framework density 19.854323999999998
#
# number of rings (size 3 to 8) (size 9 to 14) (size 15 to 20)
#    0.000    2.000    1.429    1.286    2.000    6.286 
#    0.000    4.286    0.000    0.000    0.000    0.000 
#    0.000    0.000    0.000    0.000    0.000    0.000 
#
# Total GULP energy -311764.892230 kJ/mol
# GULP energy per Si atom -5567.230218 kJ/mol
# Density = 1.980914 g / cm^3
# Si number density = 19.854324 Si / 1000 Ang^3
#
#
#
# Elastic Constant Matrix: (Units=GPa)
#
#
# Indices 1 2 3 4 5 6 
#
# 1 140.7424 47.9467 27.4572 0.0000 0.0000 0.0000
# 2 47.9467 114.4204 31.6537 0.0000 0.0000 0.0000
# 3 27.4572 31.6537 61.1390 0.0000 0.0000 0.0000
# 4 0.0000 0.0000 0.0000 16.6447 0.0000 0.0000
# 5 0.0000 0.0000 0.0000 0.0000 17.5289 0.0000
# 6 0.0000 0.0000 0.0000 0.0000 0.0000 -23.9163
#
#
#
# Elastic Compliance Matrix: (Units=1/GPa)
#
#
# Indices 1 2 3 4 5 6 
#
# 1 0.008561 -0.002946 -0.002320 0.000000 0.000000 0.000000
# 2 -0.002946 0.011214 -0.004483 0.000000 0.000000 0.000000
# 3 -0.002320 -0.004483 0.019719 0.000000 0.000000 0.000000
# 4 0.000000 0.000000 0.000000 0.060079 0.000000 0.000000
# 5 0.000000 0.000000 0.000000 0.000000 0.057049 0.000000
# 6 0.000000 0.000000 0.000000 0.000000 0.000000 -0.041812
#
#
# Mechanical properties :
#
#
# Convention : Reuss Voigt Hill
#
# Bulk Modulus (GPa) = 50.00641 58.93523 54.47082
# Shear Modulus (GPa) = 35.46786 16.00108 25.73447
#
# Velocity S-wave (km/s) = 4.23117 2.84196 3.60413
# Velocity P-wave (km/s) = 7.00798 6.36532 6.69436
#
# Compressibility (1/GPa) = 0.01999744
#
# Stress axis : x y z
#
# Youngs Moduli (GPa) = 116.80518 89.17168 50.71254
#
# Poissons Ratio (x) = 0.26268 0.11764
# Poissons Ratio (y) = 0.34408 0.22735
# Poissons Ratio (z) = 0.27095 0.39976
#
# Static dielectric constant tensor:
#      x y z
#    x 1.726230 0.000000 0.000000 
#    y 0.000000 1.753840 0.000000 
#    z 0.000000 0.000000 1.727060 
# 
# From -- ./inp_files/29388.got.cif
#   From: 2010.05.17/outbox.cif.g08.bks.cpg/sg62_15_cif.got.tgz:29388.got - 2010.06.03 15:25:27.
