data_PCOD9465449
_publ_section_title
;
Structure prediction by ZEFSAII (Michael W. Deem and Ramdas Pophale) SiO2 
 PCOD9465449
Probable space group: P N M A
;
_chemical_formula_sum "Si O2"
_cell_formula_units_Z 64
_cell_length_a 25.934860
_cell_length_b 23.105256
_cell_length_c 5.231240
_cell_angle_alpha 90.000000
_cell_angle_beta 90.000000
_cell_angle_gamma 90.000000
_cell_volume 3134.724209
_symmetry_space_group_name_H-M "P N M A"
_symmetry_group_IT_number 62
_symmetry_cell_setting 'orthorhombic'
loop_
_space_group_symop_operation_xyz
x,y,z
1/2-x,-y,1/2+z
1/2+x,1/2-y,1/2-z
-x,1/2+y,-z
-x,-y,-z
1/2+x,y,1/2-z
1/2-x,1/2+y,1/2+z
x,1/2-y,z
loop_
_atom_site_type_symbol
_atom_site_label
_atom_site_fract_x
_atom_site_fract_y
_atom_site_fract_z
Si Si1 0.363566 0.424784 0.207249
Si Si2 0.186961 0.319376 0.693439
Si Si3 0.981392 0.884468 0.931877
Si Si4 0.544194 0.900832 0.087997
Si Si5 0.422772 0.998084 0.598677
Si Si6 0.183892 0.010174 0.331021
Si Si7 0.268902 0.405322 0.505173
Si Si8 0.376693 0.680577 0.692849
O O1 0.404993 0.451482 0.405197
O O2 0.318408 0.388465 0.337774
O O3 0.396151 0.390335 0.994780
O O4 0.335276 0.482136 0.096456
O O5 0.194120 0.250000 0.679246
O O6 0.239683 0.353472 0.642885
O O7 0.163416 0.334582 0.968069
O O8 0.146116 0.336384 0.469805
O O9 0.009936 0.889326 0.660195
O O10 0.958260 0.947560 0.003059
O O11 0.931961 0.844616 0.883830
O O12 0.019003 0.868936 0.167858
O O13 0.549694 0.968342 0.169576
O O14 0.368744 0.971411 0.693306
O O15 0.224916 0.060668 0.348009
O O16 0.209139 0.955137 0.191106
O O17 0.380967 0.750000 0.695997
#
# Coordination Sequence:
#
# PCOD9465449 Si02
#       8
#     8   8   8   8   8   8   8   8
#     4  10  22  37  51  83 123 158 193 251 288 347
#     4  10  23  41  66  91 122 159 197 251 308 367
#     4  12  23  35  63  84 112 165 196 238 297 362
#     4  11  23  38  54  87 119 156 201 234 294 350
#     4  10  22  35  54  82 126 152 195 241 291 358
#     4  10  21  32  53  86 119 161 193 247 306 366
#     4  11  21  36  59  86 125 159 210 241 309 371
#     4  10  23  43  62  93 122 149 197 256 307 356
#
# _framework density 20.416471000000001
#
# number of rings (size 3 to 8) (size 9 to 14) (size 15 to 20)
#    0.000    1.500    2.500    2.250    7.000    0.000 
#    0.000    0.000    0.000    1.500    0.000    2.625 
#    0.000    0.000    0.000    0.000    0.000    0.000 
#
# Total GULP energy -357287.574527 kJ/mol
# GULP energy per Si atom -5582.618352 kJ/mol
# Density = 2.037000 g / cm^3
# Si number density = 20.416471 Si / 1000 Ang^3
#
#
#
# Elastic Constant Matrix: (Units=GPa)
#
#
# Indices 1 2 3 4 5 6 
#
# 1 74.0909 20.4881 34.4739 0.0000 0.0000 0.0000
# 2 20.4881 25.9374 7.8439 0.0000 0.0000 0.0000
# 3 34.4739 7.8439 81.1341 0.0000 0.0000 0.0000
# 4 0.0000 0.0000 0.0000 15.3203 0.0000 0.0000
# 5 0.0000 0.0000 0.0000 0.0000 35.4187 0.0000
# 6 0.0000 0.0000 0.0000 0.0000 0.0000 31.6811
#
#
#
# Elastic Compliance Matrix: (Units=1/GPa)
#
#
# Indices 1 2 3 4 5 6 
#
# 1 0.020940 -0.014267 -0.007518 0.000000 0.000000 0.000000
# 2 -0.014267 0.049436 0.001283 0.000000 0.000000 0.000000
# 3 -0.007518 0.001283 0.015396 0.000000 0.000000 0.000000
# 4 0.000000 0.000000 0.000000 0.065273 0.000000 0.000000
# 5 0.000000 0.000000 0.000000 0.000000 0.028234 0.000000
# 6 0.000000 0.000000 0.000000 0.000000 0.000000 0.031565
#
#
# Mechanical properties :
#
#
# Convention : Reuss Voigt Hill
#
# Bulk Modulus (GPa) = 22.33793 34.08601 28.21197
# Shear Modulus (GPa) = 18.74265 24.37445 21.55855
#
# Velocity S-wave (km/s) = 3.03317 3.45898 3.25305
# Velocity P-wave (km/s) = 4.81992 5.71702 5.28753
#
# Compressibility (1/GPa) = 0.04476690
#
# Stress axis : x y z
#
# Youngs Moduli (GPa) = 47.75463 20.22806 64.95294
#
# Poissons Ratio (x) = 0.28860 0.48833
# Poissons Ratio (y) = 0.68133 -0.08332
# Poissons Ratio (z) = 0.35903 -0.02595
#
# Static dielectric constant tensor:
#      x y z
#    x 1.768300 0.000000 0.000000 
#    y 0.000000 1.689310 0.000000 
#    z 0.000000 0.000000 1.823060 
# 
# From -- ./inp_files/3315.got.cif
#   From: 2010.05.17/outbox.cif.g08.bks.cpg/sg62_2_cif.got.tgz:3315.got - 2010.06.03 15:25:27.
