data_PCOD9465777
_publ_section_title
;
Structure prediction by ZEFSAII (Michael W. Deem and Ramdas Pophale) SiO2 
 PCOD9465777
Probable space group: P N M A
;
_chemical_formula_sum "Si O2"
_cell_formula_units_Z 56
_cell_length_a 22.083485
_cell_length_b 8.707270
_cell_length_c 14.954925
_cell_angle_alpha 90.000000
_cell_angle_beta 90.000000
_cell_angle_gamma 90.000000
_cell_volume 2875.635666
_symmetry_space_group_name_H-M "P N M A"
_symmetry_group_IT_number 62
_symmetry_cell_setting 'orthorhombic'
loop_
_space_group_symop_operation_xyz
x,y,z
1/2-x,-y,1/2+z
1/2+x,1/2-y,1/2-z
-x,1/2+y,-z
-x,-y,-z
1/2+x,y,1/2-z
1/2-x,1/2+y,1/2+z
x,1/2-y,z
loop_
_atom_site_type_symbol
_atom_site_label
_atom_site_fract_x
_atom_site_fract_y
_atom_site_fract_z
Si Si1 0.438634 0.433136 0.889053
Si Si2 0.337934 0.936823 0.389024
Si Si3 0.073067 0.933758 0.593053
Si Si4 0.913955 0.566534 0.793207
Si Si5 0.478054 0.934501 0.405079
Si Si6 0.299655 0.935516 0.583742
Si Si7 0.312257 0.565845 0.193192
O O1 0.440223 0.250000 0.878446
O O2 0.506990 0.498135 0.886791
O O3 0.403110 0.507051 0.806819
O O4 0.413816 0.467643 0.988200
O O5 0.337195 0.750000 0.390693
O O6 0.408680 0.982199 0.388507
O O7 0.307559 0.988516 0.481370
O O8 0.307181 0.985637 0.296628
O O9 0.071354 0.750000 0.604020
O O10 0.124230 0.006396 0.654482
O O11 0.919337 0.750000 0.793444
O O12 0.859817 0.522917 0.860266
O O13 0.976038 0.494972 0.830347
O O14 0.479978 0.750000 0.407708
O O15 0.500000 0.000000 0.500000
O O16 0.295451 0.750000 0.583650
O O17 0.241568 0.002237 0.632781
O O18 0.311868 0.750000 0.191145
#
# Coordination Sequence:
#
# PCOD9465777 Si02
#       7
#     8   8   8   8   8   8   8
#     4  10  21  37  60  89 121 155 193 243 297 352
#     4   9  20  40  61  82 116 157 192 238 302 359
#     4  10  21  39  61  86 118 157 197 239 295 357
#     4  11  22  37  59  88 121 158 199 246 301 361
#     4  11  20  35  60  89 120 156 196 245 307 367
#     4  10  22  42  60  79 115 158 199 242 294 355
#     4  11  23  39  62  88 115 153 203 251 297 355
#
# _framework density 19.473956000000001
#
# number of rings (size 3 to 8) (size 9 to 14) (size 15 to 20)
#    0.000    1.714    1.429    3.000    0.000    5.143 
#    0.000    7.857    0.000    0.000    0.000    0.000 
#    0.000    0.000    0.000    0.000    0.000    0.000 
#
# Total GULP energy -312968.307738 kJ/mol
# GULP energy per Si atom -5588.719781 kJ/mol
# Density = 1.942963 g / cm^3
# Si number density = 19.473956 Si / 1000 Ang^3
#
#
#
# Elastic Constant Matrix: (Units=GPa)
#
#
# Indices 1 2 3 4 5 6 
#
# 1 60.8015 15.5046 49.3135 0.0000 0.0000 0.0000
# 2 15.5046 32.0685 32.6374 0.0000 0.0000 0.0000
# 3 49.3135 32.6374 156.8923 0.0000 0.0000 0.0000
# 4 0.0000 0.0000 0.0000 33.6399 0.0000 0.0000
# 5 0.0000 0.0000 0.0000 0.0000 21.1830 0.0000
# 6 0.0000 0.0000 0.0000 0.0000 0.0000 30.7116
#
#
#
# Elastic Compliance Matrix: (Units=1/GPa)
#
#
# Indices 1 2 3 4 5 6 
#
# 1 0.022618 -0.004694 -0.006133 0.000000 0.000000 0.000000
# 2 -0.004694 0.040532 -0.006956 0.000000 0.000000 0.000000
# 3 -0.006133 -0.006956 0.009748 0.000000 0.000000 0.000000
# 4 0.000000 0.000000 0.000000 0.029727 0.000000 0.000000
# 5 0.000000 0.000000 0.000000 0.000000 0.047208 0.000000
# 6 0.000000 0.000000 0.000000 0.000000 0.000000 0.032561
#
#
# Mechanical properties :
#
#
# Convention : Reuss Voigt Hill
#
# Bulk Modulus (GPa) = 26.78607 49.40816 38.09711
# Shear Modulus (GPa) = 21.70099 27.26068 24.48083
#
# Velocity S-wave (km/s) = 3.34182 3.74552 3.54942
# Velocity P-wave (km/s) = 5.35491 6.64317 6.03352
#
# Compressibility (1/GPa) = 0.03733284
#
# Stress axis : x y z
#
# Youngs Moduli (GPa) = 44.21275 24.67163 102.58011
#
# Poissons Ratio (x) = 0.11581 0.62909
# Poissons Ratio (y) = 0.20753 0.71358
# Poissons Ratio (z) = 0.27114 0.17162
#
# Static dielectric constant tensor:
#      x y z
#    x 1.645040 0.000000 0.000000 
#    y 0.000000 1.655630 0.000000 
#    z 0.000000 0.000000 1.702720 
# 
# From -- ./inp_files/20325.got.cif
#   From: 2010.05.17/outbox.cif.g08.bks.cpg/sg62_11_cif.got.tgz:20325.got - 2010.06.03 15:25:27.
