data_PCOD9465017
_publ_section_title
;
Structure prediction by ZEFSAII (Michael W. Deem and Ramdas Pophale) SiO2 
 PCOD9465017
Probable space group: P N M A
;
_chemical_formula_sum "Si O2"
_cell_formula_units_Z 48
_cell_length_a 12.051807
_cell_length_b 8.807603
_cell_length_c 23.461182
_cell_angle_alpha 90.000000
_cell_angle_beta 90.000000
_cell_angle_gamma 90.000000
_cell_volume 2490.346555
_symmetry_space_group_name_H-M "P N M A"
_symmetry_group_IT_number 62
_symmetry_cell_setting 'orthorhombic'
loop_
_space_group_symop_operation_xyz
x,y,z
1/2-x,-y,1/2+z
1/2+x,1/2-y,1/2-z
-x,1/2+y,-z
-x,-y,-z
1/2+x,y,1/2-z
1/2-x,1/2+y,1/2+z
x,1/2-y,z
loop_
_atom_site_type_symbol
_atom_site_label
_atom_site_fract_x
_atom_site_fract_y
_atom_site_fract_z
Si Si1 0.782112 0.431686 0.080265
Si Si2 0.005471 0.069305 0.863172
Si Si3 0.350948 0.069508 0.144110
Si Si4 0.593502 0.569827 0.150338
Si Si5 0.347053 0.568598 0.730170
Si Si6 0.306181 0.431133 0.551453
O O1 0.785802 0.250000 0.085345
O O2 0.663320 0.492947 0.099876
O O3 0.875539 0.503995 0.120618
O O4 0.807177 0.473270 0.014714
O O5 0.010472 0.250000 0.853702
O O6 0.922416 0.039723 0.916484
O O7 0.948174 0.989158 0.809311
O O8 0.369607 0.250000 0.144224
O O9 0.265628 0.033111 0.195538
O O10 0.466570 0.984179 0.149764
O O11 0.287196 0.018936 0.086956
O O12 0.600450 0.750000 0.146094
O O13 0.646538 0.512482 0.209453
O O14 0.354310 0.750000 0.737376
O O15 0.284834 0.250000 0.555664
#
# Coordination Sequence:
#
# PCOD9465017 Si02
#       6
#     8   8   8   8   8   8
#     4  11  23  39  60  89 125 162 203 249 298 356
#     4  10  20  37  62  93 124 157 200 249 302 355
#     4  10  22  41  65  89 117 156 200 247 303 363
#     4  12  26  41  60  87 121 160 203 251 301 358
#     4  10  22  41  64  88 118 156 199 246 301 362
#     4   9  20  39  63  90 122 160 201 248 300 356
#
# _framework density 19.274425999999998
#
# number of rings (size 3 to 8) (size 9 to 14) (size 15 to 20)
#    0.000    1.667    0.000    4.000    2.333    4.667 
#    0.000    0.000    0.000    0.000    0.000    0.000 
#    0.000    0.000    0.000    0.000    0.000    0.000 
#
# Total GULP energy -268408.560238 kJ/mol
# GULP energy per Si atom -5591.845005 kJ/mol
# Density = 1.923056 g / cm^3
# Si number density = 19.274426 Si / 1000 Ang^3
#
#
#
# Elastic Constant Matrix: (Units=GPa)
#
#
# Indices 1 2 3 4 5 6 
#
# 1 67.3216 21.8836 -0.8214 0.0000 0.0000 0.0000
# 2 21.8836 40.2329 3.3316 0.0000 0.0000 0.0000
# 3 -0.8214 3.3316 30.6632 0.0000 0.0000 0.0000
# 4 0.0000 0.0000 0.0000 31.6148 0.0000 0.0000
# 5 0.0000 0.0000 0.0000 0.0000 5.1106 0.0000
# 6 0.0000 0.0000 0.0000 0.0000 0.0000 36.8142
#
#
#
# Elastic Compliance Matrix: (Units=1/GPa)
#
#
# Indices 1 2 3 4 5 6 
#
# 1 0.018119 -0.009985 0.001570 0.000000 0.000000 0.000000
# 2 -0.009985 0.030584 -0.003590 0.000000 0.000000 0.000000
# 3 0.001570 -0.003590 0.033045 0.000000 0.000000 0.000000
# 4 0.000000 0.000000 0.000000 0.031631 0.000000 0.000000
# 5 0.000000 0.000000 0.000000 0.000000 0.195670 0.000000
# 6 0.000000 0.000000 0.000000 0.000000 0.000000 0.027163
#
#
# Mechanical properties :
#
#
# Convention : Reuss Voigt Hill
#
# Bulk Modulus (GPa) = 17.32012 20.77838 19.04925
# Shear Modulus (GPa) = 13.17633 22.29618 17.73626
#
# Velocity S-wave (km/s) = 2.61744 3.40483 3.03676
# Velocity P-wave (km/s) = 4.25914 5.12453 4.71175
#
# Compressibility (1/GPa) = 0.05773633
#
# Stress axis : x y z
#
# Youngs Moduli (GPa) = 55.19042 32.69695 30.26218
#
# Poissons Ratio (x) = 0.32649 -0.04752
# Poissons Ratio (y) = 0.55110 0.10866
# Poissons Ratio (z) = -0.08666 0.11740
#
# Static dielectric constant tensor:
#      x y z
#    x 1.652180 0.000000 0.000000 
#    y 0.000000 1.636870 0.000000 
#    z 0.000000 0.000000 1.655970 
# 
# From -- ./inp_files/29277.got.cif
#   From: 2010.05.17/outbox.cif.g08.bks.cpg/sg62_15_cif.got.tgz:29277.got - 2010.06.03 15:25:27.
