data_PCOD9465781
_publ_section_title
;
Structure prediction by ZEFSAII (Michael W. Deem and Ramdas Pophale) SiO2 
 PCOD9465781
Probable space group: P N M A
;
_chemical_formula_sum "Si O2"
_cell_formula_units_Z 64
_cell_length_a 11.800470
_cell_length_b 11.462613
_cell_length_c 22.550662
_cell_angle_alpha 90.000000
_cell_angle_beta 90.000000
_cell_angle_gamma 90.000000
_cell_volume 3050.297725
_symmetry_space_group_name_H-M "P N M A"
_symmetry_group_IT_number 62
_symmetry_cell_setting 'orthorhombic'
loop_
_space_group_symop_operation_xyz
x,y,z
1/2-x,-y,1/2+z
1/2+x,1/2-y,1/2-z
-x,1/2+y,-z
-x,-y,-z
1/2+x,y,1/2-z
1/2-x,1/2+y,1/2+z
x,1/2-y,z
loop_
_atom_site_type_symbol
_atom_site_label
_atom_site_fract_x
_atom_site_fract_y
_atom_site_fract_z
Si Si1 0.634899 0.983576 0.996844
Si Si2 0.466931 0.039709 0.797623
Si Si3 0.861929 0.384613 0.370778
Si Si4 0.352233 0.117171 0.523642
Si Si5 0.781600 0.121949 0.619805
Si Si6 0.213513 0.119589 0.232246
Si Si7 0.096043 0.980330 0.808728
Si Si8 0.533922 0.114036 0.418026
O O1 0.676861 0.929141 0.057956
O O2 0.653207 0.901769 0.940031
O O3 0.500000 0.000000 0.000000
O O4 0.718066 0.094100 0.986410
O O5 0.541320 0.968546 0.845116
O O6 0.376584 0.957125 0.765490
O O7 0.388631 0.124813 0.835387
O O8 0.545316 0.069408 0.740921
O O9 0.888242 0.250000 0.357219
O O10 0.749490 0.416287 0.333776
O O11 0.368509 0.250000 0.548841
O O12 0.424563 0.115775 0.462522
O O13 0.396922 0.001328 0.558980
O O14 0.735396 0.250000 0.609682
O O15 0.683949 0.045297 0.648880
O O16 0.171838 0.250000 0.231491
O O17 0.330522 0.108979 0.269342
O O18 0.008351 0.915470 0.851610
O O19 0.580079 0.250000 0.420893
#
# Coordination Sequence:
#
# PCOD9465781 Si02
#       8
#     8   8   8   8   8   8   8   8
#     4  12  24  44  66  93 129 176 226 286 340 402
#     4  10  21  40  61  88 126 165 212 264 330 398
#     4  10  21  37  60  93 126 161 209 266 329 387
#     4  10  24  44  65  98 138 180 226 280 348 413
#     4  11  24  43  64  91 125 172 227 277 334 407
#     4   9  19  35  60  93 127 160 202 261 328 399
#     4  10  21  39  64  92 129 169 215 275 336 401
#     4  10  21  41  71 102 135 174 223 282 343 412
#
# _framework density 20.981558
#
# number of rings (size 3 to 8) (size 9 to 14) (size 15 to 20)
#    0.000    1.750    2.500    1.125    1.750    4.500 
#    0.000    0.000    0.000    0.000    0.000    0.000 
#    0.000    0.000    0.000    0.000    0.000    0.000 
#
# Total GULP energy -356846.801545 kJ/mol
# GULP energy per Si atom -5575.731274 kJ/mol
# Density = 2.093380 g / cm^3
# Si number density = 20.981558 Si / 1000 Ang^3
#
#
#
# Elastic Constant Matrix: (Units=GPa)
#
#
# Indices 1 2 3 4 5 6 
#
# 1 89.9314 40.7910 31.1234 0.0000 0.0000 0.0000
# 2 40.7910 108.3137 38.9772 0.0000 0.0000 0.0000
# 3 31.1234 38.9772 141.0624 0.0000 0.0000 0.0000
# 4 0.0000 0.0000 0.0000 8.5210 0.0000 0.0000
# 5 0.0000 0.0000 0.0000 0.0000 35.5859 0.0000
# 6 0.0000 0.0000 0.0000 0.0000 0.0000 -14.6490
#
#
#
# Elastic Compliance Matrix: (Units=1/GPa)
#
#
# Indices 1 2 3 4 5 6 
#
# 1 0.013804 -0.004556 -0.001787 0.000000 0.000000 0.000000
# 2 -0.004556 0.011755 -0.002243 0.000000 0.000000 0.000000
# 3 -0.001787 -0.002243 0.008103 0.000000 0.000000 0.000000
# 4 0.000000 0.000000 0.000000 0.117357 0.000000 0.000000
# 5 0.000000 0.000000 0.000000 0.000000 0.028101 0.000000
# 6 0.000000 0.000000 0.000000 0.000000 0.000000 -0.068264
#
#
# Mechanical properties :
#
#
# Convention : Reuss Voigt Hill
#
# Bulk Modulus (GPa) = 60.63728 62.34341 61.49035
# Shear Modulus (GPa) = 37.44624 21.11931 29.28278
#
# Velocity S-wave (km/s) = 4.22918 3.17608 3.73988
# Velocity P-wave (km/s) = 7.26712 6.57480 6.92961
#
# Compressibility (1/GPa) = 0.01649150
#
# Stress axis : x y z
#
# Youngs Moduli (GPa) = 72.44080 85.06831 123.40984
#
# Poissons Ratio (x) = 0.38755 0.22053
# Poissons Ratio (y) = 0.33002 0.27680
# Poissons Ratio (z) = 0.12945 0.19081
#
# Static dielectric constant tensor:
#      x y z
#    x 1.771440 0.000000 0.000000 
#    y 0.000000 1.586190 0.000000 
#    z 0.000000 0.000000 1.994540 
# 
# From -- ./inp_files/29490.got.cif
#   From: 2010.05.17/outbox.cif.g08.bks.cpg/sg62_15_cif.got.tgz:29490.got - 2010.06.03 15:25:27.
