data_PCOD9465725
_publ_section_title
;
Structure prediction by ZEFSAII (Michael W. Deem and Ramdas Pophale) SiO2 
 PCOD9465725
Probable space group: P N M A
;
_chemical_formula_sum "Si O2"
_cell_formula_units_Z 56
_cell_length_a 14.275660
_cell_length_b 8.031506
_cell_length_c 19.825581
_cell_angle_alpha 90.000000
_cell_angle_beta 90.000000
_cell_angle_gamma 90.000000
_cell_volume 2273.102960
_symmetry_space_group_name_H-M "P N M A"
_symmetry_group_IT_number 62
_symmetry_cell_setting 'orthorhombic'
loop_
_space_group_symop_operation_xyz
x,y,z
1/2-x,-y,1/2+z
1/2+x,1/2-y,1/2-z
-x,1/2+y,-z
-x,-y,-z
1/2+x,y,1/2-z
1/2-x,1/2+y,1/2+z
x,1/2-y,z
loop_
_atom_site_type_symbol
_atom_site_label
_atom_site_fract_x
_atom_site_fract_y
_atom_site_fract_z
Si Si1 0.961866 0.061185 0.929275
Si Si2 0.895330 0.050313 0.418282
Si Si3 0.715894 0.056334 0.491452
Si Si4 0.279836 0.452036 0.215049
Si Si5 0.562184 0.550964 0.288062
Si Si6 0.423735 0.053053 0.858389
Si Si7 0.212888 0.557672 0.863054
O O1 0.991463 0.250000 0.924020
O O2 0.981264 0.977474 0.856894
O O3 0.850613 0.046796 0.942512
O O4 0.000000 0.000000 0.000000
O O5 0.906582 0.250000 0.417710
O O6 0.823708 0.008098 0.478440
O O7 0.840183 0.998931 0.349704
O O8 0.997834 0.972981 0.414658
O O9 0.706404 0.250000 0.472248
O O10 0.684678 0.034545 0.568654
O O11 0.276461 0.250000 0.216822
O O12 0.173574 0.515857 0.209307
O O13 0.316080 0.507836 0.289143
O O14 0.548486 0.750000 0.289589
O O15 0.532662 0.494152 0.213667
O O16 0.400913 0.250000 0.854821
O O17 0.326289 0.957661 0.864585
O O18 0.185794 0.750000 0.869776
#
# Coordination Sequence:
#
# PCOD9465725 Si02
#       7
#     8   8   8   8   8   8   8
#     4  11  23  39  60  87 120 156 197 241 294 353
#     4  10  21  37  58  85 115 151 197 241 290 349
#     4  11  23  40  61  85 118 157 197 242 296 353
#     4   9  18  35  59  83 109 147 193 240 290 347
#     4   9  19  36  57  82 112 145 187 237 290 343
#     4  10  21  37  58  86 116 151 195 243 294 345
#     4  10  21  38  60  86 119 155 195 243 296 350
#
# _framework density 24.635928
#
# number of rings (size 3 to 8) (size 9 to 14) (size 15 to 20)
#    0.000    2.000    1.429    1.714    0.000    5.143 
#    0.000    2.857    0.000    0.000    0.000    0.000 
#    0.000    0.000    0.000    0.000    0.000    0.000 
#
# Total GULP energy -313026.704900 kJ/mol
# GULP energy per Si atom -5589.762588 kJ/mol
# Density = 2.457986 g / cm^3
# Si number density = 24.635928 Si / 1000 Ang^3
#
#
#
# Elastic Constant Matrix: (Units=GPa)
#
#
# Indices 1 2 3 4 5 6 
#
# 1 53.9233 1.6253 7.0263 0.0000 0.0000 0.0000
# 2 1.6253 35.8813 9.6290 0.0000 0.0000 0.0000
# 3 7.0263 9.6290 122.5093 0.0000 0.0000 0.0000
# 4 0.0000 0.0000 0.0000 22.0596 0.0000 0.0000
# 5 0.0000 0.0000 0.0000 0.0000 40.6899 0.0000
# 6 0.0000 0.0000 0.0000 0.0000 0.0000 27.1993
#
#
#
# Elastic Compliance Matrix: (Units=1/GPa)
#
#
# Indices 1 2 3 4 5 6 
#
# 1 0.018696 -0.000571 -0.001027 0.000000 0.000000 0.000000
# 2 -0.000571 0.028488 -0.002206 0.000000 0.000000 0.000000
# 3 -0.001027 -0.002206 0.008395 0.000000 0.000000 0.000000
# 4 0.000000 0.000000 0.000000 0.045332 0.000000 0.000000
# 5 0.000000 0.000000 0.000000 0.000000 0.024576 0.000000
# 6 0.000000 0.000000 0.000000 0.000000 0.000000 0.036766
#
#
# Mechanical properties :
#
#
# Convention : Reuss Voigt Hill
#
# Bulk Modulus (GPa) = 20.84688 27.65279 24.24983
# Shear Modulus (GPa) = 26.90321 30.92531 28.91426
#
# Velocity S-wave (km/s) = 3.30818 3.54686 3.42959
# Velocity P-wave (km/s) = 4.80337 5.29363 5.05445
#
# Compressibility (1/GPa) = 0.04796882
#
# Stress axis : x y z
#
# Youngs Moduli (GPa) = 53.48758 35.10293 119.11877
#
# Poissons Ratio (x) = 0.02005 0.12238
# Poissons Ratio (y) = 0.03055 0.26281
# Poissons Ratio (z) = 0.05495 0.07745
#
# Static dielectric constant tensor:
#      x y z
#    x 1.995120 0.000000 0.000000 
#    y 0.000000 1.817230 0.000000 
#    z 0.000000 0.000000 2.064910 
# 
# From -- ./inp_files/27274.got.cif
#   From: 2010.05.17/outbox.cif.g08.bks.cpg/sg62_14_cif.got.tgz:27274.got - 2010.06.03 15:25:27.
