data_PCOD9465480
_publ_section_title
;
Structure prediction by ZEFSAII (Michael W. Deem and Ramdas Pophale) SiO2 
 PCOD9465480
Probable space group: P N M A
;
_chemical_formula_sum "Si O2"
_cell_formula_units_Z 52
_cell_length_a 9.933992
_cell_length_b 11.738485
_cell_length_c 25.112185
_cell_angle_alpha 90.000000
_cell_angle_beta 90.000000
_cell_angle_gamma 90.000000
_cell_volume 2928.332297
_symmetry_space_group_name_H-M "P N M A"
_symmetry_group_IT_number 62
_symmetry_cell_setting 'orthorhombic'
loop_
_space_group_symop_operation_xyz
x,y,z
1/2-x,-y,1/2+z
1/2+x,1/2-y,1/2-z
-x,1/2+y,-z
-x,-y,-z
1/2+x,y,1/2-z
1/2-x,1/2+y,1/2+z
x,1/2-y,z
loop_
_atom_site_type_symbol
_atom_site_label
_atom_site_fract_x
_atom_site_fract_y
_atom_site_fract_z
Si Si1 0.119952 0.750000 0.680731
Si Si2 0.779266 0.007119 0.144864
Si Si3 0.486504 0.614101 0.278766
Si Si4 0.600569 0.250000 0.382116
Si Si5 0.482644 0.499234 0.163518
Si Si6 0.486093 0.516832 0.562508
Si Si7 0.154878 0.750000 0.807475
Si Si8 0.790333 0.115110 0.864853
O O1 0.253586 0.750000 0.644545
O O2 0.039254 0.635527 0.668154
O O3 0.154726 0.750000 0.743686
O O4 0.625327 0.972789 0.136931
O O5 0.781062 0.134075 0.170031
O O6 0.870176 0.005697 0.092088
O O7 0.859006 0.927610 0.186783
O O8 0.481913 0.750000 0.271768
O O9 0.487239 0.551298 0.222800
O O10 0.620638 0.583948 0.312535
O O11 0.572191 0.138415 0.417634
O O12 0.495143 0.250000 0.332840
O O13 0.351668 0.552259 0.135844
O O14 0.500000 0.500000 0.500000
O O15 0.384301 0.423763 0.586729
O O16 0.770350 0.250000 0.864298
#
# Coordination Sequence:
#
# PCOD9465480 Si02
#       8
#     4   8   8   4   8   8   4   8
#     4  12  23  32  57  86 129 159 177 233 298 361
#     4  10  22  37  57  88 115 150 199 237 286 348
#     4  10  21  36  54  80 116 159 196 226 267 339
#     4  10  22  40  62  92 114 154 206 238 293 362
#     4  12  22  34  55  84 123 152 181 230 293 347
#     4  10  22  43  67  83 107 149 203 257 293 340
#     4  10  21  34  57  88 121 155 195 227 279 361
#     4  10  22  39  58  84 115 152 198 236 284 347
#
# _framework density 17.757548
#
# number of rings (size 3 to 8) (size 9 to 14) (size 15 to 20)
#    0.000    1.538    3.077    1.846    3.231    2.462 
#    0.000    0.769    0.000    0.000    0.000    0.000 
#    0.000    0.000    0.000    0.000    0.000    0.000 
#
# Total GULP energy -290504.762506 kJ/mol
# GULP energy per Si atom -5586.630048 kJ/mol
# Density = 1.771713 g / cm^3
# Si number density = 17.757548 Si / 1000 Ang^3
#
#
#
# Elastic Constant Matrix: (Units=GPa)
#
#
# Indices 1 2 3 4 5 6 
#
# 1 158.4583 44.1623 55.0450 0.0000 0.0000 0.0000
# 2 44.1623 67.4970 23.3952 0.0000 0.0000 0.0000
# 3 55.0450 23.3952 116.4980 0.0000 0.0000 0.0000
# 4 0.0000 0.0000 0.0000 12.9033 0.0000 0.0000
# 5 0.0000 0.0000 0.0000 0.0000 5.0835 0.0000
# 6 0.0000 0.0000 0.0000 0.0000 0.0000 12.8971
#
#
#
# Elastic Compliance Matrix: (Units=1/GPa)
#
#
# Indices 1 2 3 4 5 6 
#
# 1 0.008696 -0.004585 -0.003188 0.000000 0.000000 0.000000
# 2 -0.004585 0.018341 -0.001517 0.000000 0.000000 0.000000
# 3 -0.003188 -0.001517 0.010395 0.000000 0.000000 0.000000
# 4 0.000000 0.000000 0.000000 0.077499 0.000000 0.000000
# 5 0.000000 0.000000 0.000000 0.000000 0.196716 0.000000
# 6 0.000000 0.000000 0.000000 0.000000 0.000000 0.077537
#
#
# Mechanical properties :
#
#
# Convention : Reuss Voigt Hill
#
# Bulk Modulus (GPa) = 53.04410 65.29537 59.16973
# Shear Modulus (GPa) = 12.07590 20.83350 16.45470
#
# Velocity S-wave (km/s) = 2.61059 3.42894 3.04736
# Velocity P-wave (km/s) = 6.24684 7.24756 6.76573
#
# Compressibility (1/GPa) = 0.01885224
#
# Stress axis : x y z
#
# Youngs Moduli (GPa) = 114.99476 54.52280 96.20117
#
# Poissons Ratio (x) = 0.24997 0.30671
# Poissons Ratio (y) = 0.52721 0.14594
# Poissons Ratio (z) = 0.36662 0.08271
#
# Static dielectric constant tensor:
#      x y z
#    x 1.616390 0.000000 0.000000 
#    y 0.000000 1.613970 0.000000 
#    z 0.000000 0.000000 1.583630 
# 
# From -- ./inp_files/30825.got.cif
#   From: 2010.05.17/outbox.cif.g08.bks.cpg/sg62_16_cif.got.tgz:30825.got - 2010.06.03 15:25:27.
