data_PCOD9465426
_publ_section_title
;
Structure prediction by ZEFSAII (Michael W. Deem and Ramdas Pophale) SiO2 
 PCOD9465426
Probable space group: P N M A
;
_chemical_formula_sum "Si O2"
_cell_formula_units_Z 64
_cell_length_a 7.058704
_cell_length_b 23.896736
_cell_length_c 15.669993
_cell_angle_alpha 90.000000
_cell_angle_beta 90.000000
_cell_angle_gamma 90.000000
_cell_volume 2643.214200
_symmetry_space_group_name_H-M "P N M A"
_symmetry_group_IT_number 62
_symmetry_cell_setting 'orthorhombic'
loop_
_space_group_symop_operation_xyz
x,y,z
1/2-x,-y,1/2+z
1/2+x,1/2-y,1/2-z
-x,1/2+y,-z
-x,-y,-z
1/2+x,y,1/2-z
1/2-x,1/2+y,1/2+z
x,1/2-y,z
loop_
_atom_site_type_symbol
_atom_site_label
_atom_site_fract_x
_atom_site_fract_y
_atom_site_fract_z
Si Si1 0.932504 0.629665 0.142800
Si Si2 0.928410 0.588400 0.639921
Si Si3 0.869708 0.605570 0.827989
Si Si4 0.990005 0.645085 0.471970
Si Si5 0.960437 0.490109 0.898751
Si Si6 0.516754 0.473988 0.906369
Si Si7 0.099396 0.185173 0.025578
Si Si8 0.052463 0.813215 0.306803
O O1 0.923019 0.562649 0.135673
O O2 0.040333 0.643250 0.229810
O O3 0.758533 0.672753 0.156468
O O4 0.999999 0.649530 0.049402
O O5 0.157387 0.593023 0.640096
O O6 0.873102 0.620183 0.552350
O O7 0.903233 0.521000 0.645748
O O8 0.860503 0.615328 0.727408
O O9 0.985854 0.549456 0.851514
O O10 0.943208 0.656989 0.883594
O O11 0.172056 0.676872 0.511428
O O12 0.916957 0.679839 0.390087
O O13 0.052525 0.588691 0.420691
O O14 0.739661 0.472518 0.884670
O O15 0.000000 0.500000 0.000000
O O16 0.500000 0.500000 0.000000
O O17 0.050687 0.250000 0.021382
O O18 0.038950 0.750000 0.275266
#
# Coordination Sequence:
#
# PCOD9465426 Si02
#       8
#     8   8   8   8   8   8   8   8
#     4  11  24  40  65  91 128 168 216 267 324 385
#     4   9  20  37  56  86 122 160 198 248 310 374
#     4  10  21  38  59  90 125 162 206 256 315 377
#     4   9  19  37  62  85 117 161 210 252 312 368
#     4  11  23  39  60  95 130 171 210 258 326 399
#     4   9  20  36  59  89 126 162 202 255 314 378
#     4  10  20  42  67  87 120 172 215 259 321 385
#     4  11  24  42  64  92 125 171 219 269 321 386
#
# _framework density 24.212942999999999
#
# number of rings (size 3 to 8) (size 9 to 14) (size 15 to 20)
#    0.000    2.000    1.250    3.000    7.000    3.000 
#    0.000    3.125    0.000    0.000    0.000    0.000 
#    0.000    0.000    0.000    0.000    0.000    0.000 
#
# Total GULP energy -357121.683636 kJ/mol
# GULP energy per Si atom -5580.026307 kJ/mol
# Density = 2.415783 g / cm^3
# Si number density = 24.212943 Si / 1000 Ang^3
#
#
#
# Elastic Constant Matrix: (Units=GPa)
#
#
# Indices 1 2 3 4 5 6 
#
# 1 49.8159 3.3568 -6.8373 0.0000 0.0000 0.0000
# 2 3.3568 116.4175 39.3745 0.0000 0.0000 0.0000
# 3 -6.8373 39.3745 152.0493 0.0000 0.0000 0.0000
# 4 0.0000 0.0000 0.0000 39.1196 0.0000 0.0000
# 5 0.0000 0.0000 0.0000 0.0000 31.1292 0.0000
# 6 0.0000 0.0000 0.0000 0.0000 0.0000 19.4859
#
#
#
# Elastic Compliance Matrix: (Units=1/GPa)
#
#
# Indices 1 2 3 4 5 6 
#
# 1 0.020300 -0.000980 0.001167 0.000000 0.000000 0.000000
# 2 -0.000980 0.009462 -0.002494 0.000000 0.000000 0.000000
# 3 0.001167 -0.002494 0.007275 0.000000 0.000000 0.000000
# 4 0.000000 0.000000 0.000000 0.025563 0.000000 0.000000
# 5 0.000000 0.000000 0.000000 0.000000 0.032124 0.000000
# 6 0.000000 0.000000 0.000000 0.000000 0.000000 0.051319
#
#
# Mechanical properties :
#
#
# Convention : Reuss Voigt Hill
#
# Bulk Modulus (GPa) = 30.84345 43.34120 37.09233
# Shear Modulus (GPa) = 30.96647 36.77288 33.86968
#
# Velocity S-wave (km/s) = 3.58008 3.90131 3.74414
# Velocity P-wave (km/s) = 5.46401 6.18325 5.83472
#
# Compressibility (1/GPa) = 0.03242179
#
# Stress axis : x y z
#
# Youngs Moduli (GPa) = 49.26093 105.69014 137.45372
#
# Poissons Ratio (x) = 0.10357 -0.16035
# Poissons Ratio (y) = 0.04827 0.34284
# Poissons Ratio (z) = -0.05747 0.26362
#
# Static dielectric constant tensor:
#      x y z
#    x 2.170630 0.000000 0.000000 
#    y 0.000000 1.933960 0.000000 
#    z 0.000000 0.000000 2.032070 
# 
# From -- ./inp_files/17354.got.cif
#   From: 2010.05.17/outbox.cif.g08.bks.cpg/sg62_9_cif.got.tgz:17354.got - 2010.06.03 15:25:27.
