data_PCOD9465795
_publ_section_title
;
Structure prediction by ZEFSAII (Michael W. Deem and Ramdas Pophale) SiO2 
 PCOD9465795
Probable space group: P N M A
;
_chemical_formula_sum "Si O2"
_cell_formula_units_Z 40
_cell_length_a 15.824317
_cell_length_b 9.348257
_cell_length_c 12.663466
_cell_angle_alpha 90.000000
_cell_angle_beta 90.000000
_cell_angle_gamma 90.000000
_cell_volume 1873.303767
_symmetry_space_group_name_H-M "P N M A"
_symmetry_group_IT_number 62
_symmetry_cell_setting 'orthorhombic'
loop_
_space_group_symop_operation_xyz
x,y,z
1/2-x,-y,1/2+z
1/2+x,1/2-y,1/2-z
-x,1/2+y,-z
-x,-y,-z
1/2+x,y,1/2-z
1/2-x,1/2+y,1/2+z
x,1/2-y,z
loop_
_atom_site_type_symbol
_atom_site_label
_atom_site_fract_x
_atom_site_fract_y
_atom_site_fract_z
Si Si1 0.920637 0.409222 0.119924
Si Si2 0.590920 0.578627 0.004102
Si Si3 0.883237 0.591342 0.931466
Si Si4 0.328802 0.087976 0.767131
Si Si5 0.138800 0.086192 0.696561
O O1 0.888426 0.250000 0.144649
O O2 0.923920 0.506626 0.223745
O O3 0.015368 0.395414 0.076431
O O4 0.866372 0.486538 0.029239
O O5 0.582542 0.750000 0.987888
O O6 0.634921 0.555619 0.117438
O O7 0.500000 0.500000 0.000000
O O8 0.643771 0.504772 0.910281
O O9 0.847142 0.750000 0.948764
O O10 0.856702 0.523127 0.821433
O O11 0.357648 0.250000 0.738964
O O12 0.227575 0.088074 0.758084
O O13 0.113444 0.250000 0.674546
#
# Coordination Sequence:
#
# PCOD9465795 Si02
#       5
#     8   8   8   8   8
#     4  10  21  38  61  90 122 160 203 251 309 372
#     4  11  24  44  68  95 129 172 219 268 320 384
#     4  10  21  37  61  90 121 158 203 252 306 368
#     4  10  24  42  61  89 127 165 206 258 316 375
#     4  11  24  41  62  92 127 165 209 261 319 376
#
# _framework density 21.352649
#
# number of rings (size 3 to 8) (size 9 to 14) (size 15 to 20)
#    0.000    1.600    0.000    3.600    2.800    8.800 
#    0.000    0.000    0.000    0.000    0.000    0.000 
#    0.000    0.000    0.000    0.000    0.000    0.000 
#
# Total GULP energy -223518.069883 kJ/mol
# GULP energy per Si atom -5587.951747 kJ/mol
# Density = 2.130405 g / cm^3
# Si number density = 21.352649 Si / 1000 Ang^3
#
#
#
# Elastic Constant Matrix: (Units=GPa)
#
#
# Indices 1 2 3 4 5 6 
#
# 1 35.0664 17.1588 6.8995 0.0000 0.0000 0.0000
# 2 17.1588 144.4684 57.9376 0.0000 0.0000 0.0000
# 3 6.8995 57.9376 97.6987 0.0000 0.0000 0.0000
# 4 0.0000 0.0000 0.0000 36.9428 0.0000 0.0000
# 5 0.0000 0.0000 0.0000 0.0000 36.3276 0.0000
# 6 0.0000 0.0000 0.0000 0.0000 0.0000 10.9893
#
#
#
# Elastic Compliance Matrix: (Units=1/GPa)
#
#
# Indices 1 2 3 4 5 6 
#
# 1 0.030277 -0.003593 -0.000007 0.000000 0.000000 0.000000
# 2 -0.003593 0.009508 -0.005385 0.000000 0.000000 0.000000
# 3 -0.000007 -0.005385 0.013429 0.000000 0.000000 0.000000
# 4 0.000000 0.000000 0.000000 0.027069 0.000000 0.000000
# 5 0.000000 0.000000 0.000000 0.000000 0.027527 0.000000
# 6 0.000000 0.000000 0.000000 0.000000 0.000000 0.090998
#
#
# Mechanical properties :
#
#
# Convention : Reuss Voigt Hill
#
# Bulk Modulus (GPa) = 28.37367 49.02505 38.69936
# Shear Modulus (GPa) = 21.87923 29.86777 25.87350
#
# Velocity S-wave (km/s) = 3.20451 3.74409 3.48476
# Velocity P-wave (km/s) = 5.19700 6.45759 5.86128
#
# Compressibility (1/GPa) = 0.03524394
#
# Stress axis : x y z
#
# Youngs Moduli (GPa) = 33.02842 105.17200 74.46334
#
# Poissons Ratio (x) = 0.37789 0.00055
# Poissons Ratio (y) = 0.11867 0.40097
# Poissons Ratio (z) = 0.00024 0.56634
#
# Static dielectric constant tensor:
#      x y z
#    x 1.818920 0.000000 0.000000 
#    y 0.000000 1.785840 0.000000 
#    z 0.000000 0.000000 1.739200 
# 
# From -- ./inp_files/13831.got.cif
#   From: 2010.05.17/outbox.cif.g08.bks.cpg/sg62_7_cif.got.tgz:13831.got - 2010.06.03 15:25:27.
