data_PCOD9465684
_publ_section_title
;
Structure prediction by ZEFSAII (Michael W. Deem and Ramdas Pophale) SiO2 
 PCOD9465684
Probable space group: P N M A
;
_chemical_formula_sum "Si O2"
_cell_formula_units_Z 64
_cell_length_a 9.310167
_cell_length_b 14.008016
_cell_length_c 25.805346
_cell_angle_alpha 90.000000
_cell_angle_beta 90.000000
_cell_angle_gamma 90.000000
_cell_volume 3365.454991
_symmetry_space_group_name_H-M "P N M A"
_symmetry_group_IT_number 62
_symmetry_cell_setting 'orthorhombic'
loop_
_space_group_symop_operation_xyz
x,y,z
1/2-x,-y,1/2+z
1/2+x,1/2-y,1/2-z
-x,1/2+y,-z
-x,-y,-z
1/2+x,y,1/2-z
1/2-x,1/2+y,1/2+z
x,1/2-y,z
loop_
_atom_site_type_symbol
_atom_site_label
_atom_site_fract_x
_atom_site_fract_y
_atom_site_fract_z
Si Si1 0.909447 0.636296 0.631146
Si Si2 0.979924 0.363533 0.689870
Si Si3 0.101159 0.634446 0.534815
Si Si4 0.804522 0.540681 0.235062
Si Si5 0.864806 0.004536 0.126607
Si Si6 0.621015 0.138596 0.401760
Si Si7 0.355600 0.135163 0.919379
Si Si8 0.315715 0.141755 0.201045
O O1 0.883253 0.750000 0.629397
O O2 0.764945 0.578279 0.637668
O O3 0.983251 0.604885 0.576915
O O4 0.028285 0.620343 0.675772
O O5 0.977064 0.250000 0.695424
O O6 0.840564 0.408393 0.717302
O O7 0.961548 0.385947 0.628808
O O8 0.118249 0.404906 0.718171
O O9 0.097107 0.750000 0.536633
O O10 0.259048 0.609462 0.556217
O O11 0.083727 0.606172 0.475328
O O12 0.903394 0.536319 0.183469
O O13 0.778669 0.434530 0.255907
O O14 0.991639 0.064280 0.100894
O O15 0.791860 0.920791 0.092977
O O16 0.577574 0.250000 0.410738
O O17 0.704051 0.137313 0.346580
O O18 0.331464 0.250000 0.919707
O O19 0.317076 0.250000 0.221173
#
# Coordination Sequence:
#
# PCOD9465684 Si02
#       8
#     8   8   8   8   8   8   8   8
#     4   9  18  33  53  77 105 135 169 206 247 302
#     4  10  21  37  57  77 100 133 175 219 262 304
#     4   8  16  34  56  73  98 136 170 205 251 304
#     4  11  21  35  52  76 106 137 173 213 255 302
#     4  11  21  31  48  77 106 132 165 211 257 300
#     4   9  18  32  50  74 104 135 166 201 251 313
#     4   9  19  35  54  75  98 130 174 217 257 303
#     4   9  18  33  51  72 101 140 175 202 243 305
#
# _framework density 19.016745
#
# number of rings (size 3 to 8) (size 9 to 14) (size 15 to 20)
#    0.000    2.500    0.000    4.500    0.000    2.500 
#    0.000    3.125    0.000    3.000    0.000   11.375 
#    0.000    0.000    0.000    0.000    0.000    0.000 
#
# Total GULP energy -357258.685458 kJ/mol
# GULP energy per Si atom -5582.166960 kJ/mol
# Density = 1.897346 g / cm^3
# Si number density = 19.016745 Si / 1000 Ang^3
#
#
#
# Elastic Constant Matrix: (Units=GPa)
#
#
# Indices 1 2 3 4 5 6 
#
# 1 43.6678 13.0199 17.9691 0.0000 0.0000 0.0000
# 2 13.0199 60.7985 29.1637 0.0000 0.0000 0.0000
# 3 17.9691 29.1637 103.7202 0.0000 0.0000 0.0000
# 4 0.0000 0.0000 0.0000 27.2627 0.0000 0.0000
# 5 0.0000 0.0000 0.0000 0.0000 15.2911 0.0000
# 6 0.0000 0.0000 0.0000 0.0000 0.0000 22.1924
#
#
#
# Elastic Compliance Matrix: (Units=1/GPa)
#
#
# Indices 1 2 3 4 5 6 
#
# 1 0.025414 -0.003850 -0.003320 0.000000 0.000000 0.000000
# 2 -0.003850 0.019595 -0.004843 0.000000 0.000000 0.000000
# 3 -0.003320 -0.004843 0.011578 0.000000 0.000000 0.000000
# 4 0.000000 0.000000 0.000000 0.036680 0.000000 0.000000
# 5 0.000000 0.000000 0.000000 0.000000 0.065398 0.000000
# 6 0.000000 0.000000 0.000000 0.000000 0.000000 0.045060
#
#
# Mechanical properties :
#
#
# Convention : Reuss Voigt Hill
#
# Bulk Modulus (GPa) = 30.71077 36.49912 33.60494
# Shear Modulus (GPa) = 20.95507 22.81816 21.88661
#
# Velocity S-wave (km/s) = 3.32313 3.46771 3.39619
# Velocity P-wave (km/s) = 5.55955 5.93870 5.75225
#
# Compressibility (1/GPa) = 0.03256187
#
# Stress axis : x y z
#
# Youngs Moduli (GPa) = 39.34785 51.03309 86.36880
#
# Poissons Ratio (x) = 0.19646 0.28679
# Poissons Ratio (y) = 0.15148 0.41826
# Poissons Ratio (z) = 0.13065 0.24714
#
# Static dielectric constant tensor:
#      x y z
#    x 1.635680 0.000000 0.000000 
#    y 0.000000 1.680460 0.000000 
#    z 0.000000 0.000000 1.683390 
# 
# From -- ./inp_files/28969.got.cif
#   From: 2010.05.17/outbox.cif.g08.bks.cpg/sg62_15_cif.got.tgz:28969.got - 2010.06.03 15:25:27.
