data_PCOD9465060
_publ_section_title
;
Structure prediction by ZEFSAII (Michael W. Deem and Ramdas Pophale) SiO2 
 PCOD9465060
Probable space group: P N M A
;
_chemical_formula_sum "Si O2"
_cell_formula_units_Z 60
_cell_length_a 25.137730
_cell_length_b 9.414424
_cell_length_c 14.215791
_cell_angle_alpha 90.000000
_cell_angle_beta 90.000000
_cell_angle_gamma 90.000000
_cell_volume 3364.269985
_symmetry_space_group_name_H-M "P N M A"
_symmetry_group_IT_number 62
_symmetry_cell_setting 'orthorhombic'
loop_
_space_group_symop_operation_xyz
x,y,z
1/2-x,-y,1/2+z
1/2+x,1/2-y,1/2-z
-x,1/2+y,-z
-x,-y,-z
1/2+x,y,1/2-z
1/2-x,1/2+y,1/2+z
x,1/2-y,z
loop_
_atom_site_type_symbol
_atom_site_label
_atom_site_fract_x
_atom_site_fract_y
_atom_site_fract_z
Si Si1 0.999412 0.026539 0.852972
Si Si2 0.819294 0.081593 0.383225
Si Si3 0.508195 0.250000 0.477377
Si Si4 0.396864 0.916427 0.249211
Si Si5 0.881673 0.416120 0.870709
Si Si6 0.345247 0.918949 0.454495
Si Si7 0.209578 0.086233 0.231997
Si Si8 0.733393 0.418085 0.047797
O O1 0.042078 0.047738 0.770798
O O2 0.939041 0.063545 0.824093
O O3 0.014143 0.130563 0.938584
O O4 0.000156 0.872331 0.897487
O O5 0.825348 0.250000 0.400768
O O6 0.766347 0.063398 0.318393
O O7 0.868350 0.015491 0.326500
O O8 0.807612 0.992907 0.477397
O O9 0.391014 0.750000 0.224431
O O10 0.367267 0.938290 0.349745
O O11 0.873829 0.250000 0.891721
O O12 0.833939 0.480310 0.809831
O O13 0.881696 0.505149 0.967800
O O14 0.341979 0.750000 0.473730
O O15 0.288524 0.996092 0.463427
O O16 0.193502 0.250000 0.211978
O O17 0.216350 0.070046 0.343541
O O18 0.740358 0.250000 0.026233
#
# Coordination Sequence:
#
# PCOD9465060 Si02
#       8
#     8   8   4   8   8   8   8   8
#     4  11  23  38  55  87 122 162 197 244 289 354
#     4  11  23  40  60  88 118 153 198 245 295 352
#     4  10  20  38  58  82 128 160 200 232 294 352
#     4  11  23  38  58  84 123 162 200 240 291 350
#     4  12  24  36  58  86 122 161 202 240 288 352
#     4  11  22  33  56  86 120 161 194 240 289 344
#     4  10  23  41  59  85 118 155 197 244 296 349
#     4  11  22  41  61  84 118 155 197 245 295 348
#
# _framework density 17.834478000000001
#
# number of rings (size 3 to 8) (size 9 to 14) (size 15 to 20)
#    0.000    1.067    4.000    3.200    4.667    2.133 
#    0.000    0.000    0.000    0.800    0.000    0.000 
#    0.000    0.000    0.000    0.000    0.000    0.000 
#
# Total GULP energy -334233.938195 kJ/mol
# GULP energy per Si atom -5570.565637 kJ/mol
# Density = 1.779389 g / cm^3
# Si number density = 17.834478 Si / 1000 Ang^3
#
#
#
# Elastic Constant Matrix: (Units=GPa)
#
#
# Indices 1 2 3 4 5 6 
#
# 1 52.1255 20.7631 -5.5489 0.0000 0.0000 0.0000
# 2 20.7631 138.2191 25.2279 0.0000 0.0000 0.0000
# 3 -5.5489 25.2279 45.4562 0.0000 0.0000 0.0000
# 4 0.0000 0.0000 0.0000 30.9341 0.0000 0.0000
# 5 0.0000 0.0000 0.0000 0.0000 22.3263 0.0000
# 6 0.0000 0.0000 0.0000 0.0000 0.0000 -236.7038
#
#
#
# Elastic Compliance Matrix: (Units=1/GPa)
#
#
# Indices 1 2 3 4 5 6 
#
# 1 0.021335 -0.004095 0.004877 0.000000 0.000000 0.000000
# 2 -0.004095 0.008836 -0.005404 0.000000 0.000000 0.000000
# 3 0.004877 -0.005404 0.025594 0.000000 0.000000 0.000000
# 4 0.000000 0.000000 0.000000 0.032327 0.000000 0.000000
# 5 0.000000 0.000000 0.000000 0.000000 0.044790 0.000000
# 6 0.000000 0.000000 0.000000 0.000000 0.000000 -0.004225
#
#
# Mechanical properties :
#
#
# Convention : Reuss Voigt Hill
#
# Bulk Modulus (GPa) = 21.49565 35.18721 28.34143
# Shear Modulus (GPa) = 32.59276 -23.66477 4.46399
#
# Velocity S-wave (km/s) = 4.27958 -3.64663 1.58381
# Velocity P-wave (km/s) = 6.04142 1.42904 4.38981
#
# Compressibility (1/GPa) = 0.04652104
#
# Stress axis : x y z
#
# Youngs Moduli (GPa) = 46.87171 113.16828 39.07201
#
# Poissons Ratio (x) = 0.46343 -0.19056
# Poissons Ratio (y) = 0.19194 0.21115
# Poissons Ratio (z) = -0.22860 0.61157
#
# Static dielectric constant tensor:
#      x y z
#    x 1.652880 0.000000 0.000000 
#    y 0.000000 1.591180 0.000000 
#    z 0.000000 0.000000 1.583770 
# 
# From -- ./inp_files/20746.got.cif
#   From: 2010.05.17/outbox.cif.g08.bks.cpg/sg62_11_cif.got.tgz:20746.got - 2010.06.03 15:25:27.
