data_PCOD9465026
_publ_section_title
;
Structure prediction by ZEFSAII (Michael W. Deem and Ramdas Pophale) SiO2 
 PCOD9465026
Probable space group: P N M A
;
_chemical_formula_sum "Si O2"
_cell_formula_units_Z 40
_cell_length_a 8.166164
_cell_length_b 16.879398
_cell_length_c 13.424174
_cell_angle_alpha 90.000000
_cell_angle_beta 90.000000
_cell_angle_gamma 90.000000
_cell_volume 1850.387235
_symmetry_space_group_name_H-M "P N M A"
_symmetry_group_IT_number 62
_symmetry_cell_setting 'orthorhombic'
loop_
_space_group_symop_operation_xyz
x,y,z
1/2-x,-y,1/2+z
1/2+x,1/2-y,1/2-z
-x,1/2+y,-z
-x,-y,-z
1/2+x,y,1/2-z
1/2-x,1/2+y,1/2+z
x,1/2-y,z
loop_
_atom_site_type_symbol
_atom_site_label
_atom_site_fract_x
_atom_site_fract_y
_atom_site_fract_z
Si Si1 0.074429 0.750000 0.305931
Si Si2 0.294537 0.657609 0.771527
Si Si3 0.595525 0.579907 0.878540
Si Si4 0.148988 0.840427 0.973408
Si Si5 0.931437 0.750000 0.096856
Si Si6 0.448419 0.904590 0.087958
O O1 0.063462 0.750000 0.186715
O O2 0.255704 0.750000 0.352786
O O3 0.985882 0.670729 0.344604
O O4 0.289535 0.750000 0.744640
O O5 0.460485 0.636674 0.828587
O O6 0.260923 0.604827 0.675403
O O7 0.157733 0.639454 0.857256
O O8 0.550248 0.488758 0.857930
O O9 0.577744 0.591870 0.996690
O O10 0.221903 0.750000 0.976457
O O11 0.975984 0.825258 0.026979
O O12 0.270789 0.894742 0.035972
#
# Coordination Sequence:
#
# PCOD9465026 Si02
#       6
#     4   8   8   8   4   8
#     4  12  22  36  63  84 115 166 207 246 306 390
#     4  10  20  37  63  88 120 161 202 254 316 368
#     4  10  23  38  59  93 125 160 205 263 311 373
#     4   8  17  38  60  85 118 156 199 257 303 360
#     4  10  22  36  57  92 111 150 213 254 300 362
#     4  10  21  40  60  87 126 165 206 251 315 367
#
# _framework density 21.617097000000001
#
# number of rings (size 3 to 8) (size 9 to 14) (size 15 to 20)
#    0.600    1.600    1.000    1.800    2.800    4.800 
#    0.000    0.000    0.000    8.400    0.000    0.000 
#    0.000    0.000    0.000    0.000    0.000    0.000 
#
# Total GULP energy -223170.454723 kJ/mol
# GULP energy per Si atom -5579.261368 kJ/mol
# Density = 2.156790 g / cm^3
# Si number density = 21.617097 Si / 1000 Ang^3
#
#
#
# Elastic Constant Matrix: (Units=GPa)
#
#
# Indices 1 2 3 4 5 6 
#
# 1 40.1816 3.6332 -0.4820 0.0000 0.0000 0.0000
# 2 3.6332 76.4231 23.6445 0.0000 0.0000 0.0000
# 3 -0.4820 23.6445 52.2211 0.0000 0.0000 0.0000
# 4 0.0000 0.0000 0.0000 28.8246 0.0000 0.0000
# 5 0.0000 0.0000 0.0000 0.0000 31.8165 0.0000
# 6 0.0000 0.0000 0.0000 0.0000 0.0000 18.4723
#
#
#
# Elastic Compliance Matrix: (Units=1/GPa)
#
#
# Indices 1 2 3 4 5 6 
#
# 1 0.025030 -0.001467 0.000895 0.000000 0.000000 0.000000
# 2 -0.001467 0.015303 -0.006942 0.000000 0.000000 0.000000
# 3 0.000895 -0.006942 0.022301 0.000000 0.000000 0.000000
# 4 0.000000 0.000000 0.000000 0.034693 0.000000 0.000000
# 5 0.000000 0.000000 0.000000 0.000000 0.031430 0.000000
# 6 0.000000 0.000000 0.000000 0.000000 0.000000 0.054135
#
#
# Mechanical properties :
#
#
# Convention : Reuss Voigt Hill
#
# Bulk Modulus (GPa) = 21.00574 24.71303 22.85939
# Shear Modulus (GPa) = 23.38761 25.29135 24.33948
#
# Velocity S-wave (km/s) = 3.29280 3.42419 3.35914
# Velocity P-wave (km/s) = 4.91884 5.20485 5.06386
#
# Compressibility (1/GPa) = 0.04760603
#
# Stress axis : x y z
#
# Youngs Moduli (GPa) = 39.95146 65.34825 44.84132
#
# Poissons Ratio (x) = 0.09586 -0.04014
# Poissons Ratio (y) = 0.05861 0.31130
# Poissons Ratio (z) = -0.03577 0.45366
#
# Static dielectric constant tensor:
#      x y z
#    x 1.855360 0.000000 0.000000 
#    y 0.000000 1.740820 0.000000 
#    z 0.000000 0.000000 1.809410 
# 
# From -- ./inp_files/11107.got.cif
#   From: 2010.05.17/outbox.cif.g08.bks.cpg/sg62_6_cif.got.tgz:11107.got - 2010.06.03 15:25:27.
