data_PCOD9465474
_publ_section_title
;
Structure prediction by ZEFSAII (Michael W. Deem and Ramdas Pophale) SiO2 
 PCOD9465474
Probable space group: P N M A
;
_chemical_formula_sum "Si O2"
_cell_formula_units_Z 48
_cell_length_a 5.293112
_cell_length_b 13.285456
_cell_length_c 30.386053
_cell_angle_alpha 90.000000
_cell_angle_beta 90.000000
_cell_angle_gamma 90.000000
_cell_volume 2136.789987
_symmetry_space_group_name_H-M "P N M A"
_symmetry_group_IT_number 62
_symmetry_cell_setting 'orthorhombic'
loop_
_space_group_symop_operation_xyz
x,y,z
1/2-x,-y,1/2+z
1/2+x,1/2-y,1/2-z
-x,1/2+y,-z
-x,-y,-z
1/2+x,y,1/2-z
1/2-x,1/2+y,1/2+z
x,1/2-y,z
loop_
_atom_site_type_symbol
_atom_site_label
_atom_site_fract_x
_atom_site_fract_y
_atom_site_fract_z
Si Si1 0.190514 0.491165 0.846641
Si Si2 0.412927 0.966094 0.572360
Si Si3 0.392096 0.132884 0.721505
Si Si4 0.295123 0.085156 0.989387
Si Si5 0.452412 0.633142 0.778823
Si Si6 0.462813 0.641088 0.096699
O O1 0.970306 0.444233 0.816444
O O2 0.379976 0.556524 0.817266
O O3 0.324655 0.394798 0.869115
O O4 0.086035 0.561011 0.886331
O O5 0.573055 0.036383 0.539433
O O6 0.212488 0.043256 0.592957
O O7 0.301096 0.884438 0.538097
O O8 0.113622 0.118843 0.741807
O O9 0.410775 0.250000 0.707538
O O10 0.428147 0.151544 0.952717
O O11 0.500000 0.000000 0.000000
O O12 0.728043 0.619329 0.757292
O O13 0.436593 0.750000 0.793460
O O14 0.352507 0.750000 0.109171
#
# Coordination Sequence:
#
# PCOD9465474 Si02
#       6
#     8   8   8   8   8   8
#     4  11  22  35  59  88 121 158 202 254 315 368
#     4   9  19  33  57  83 114 155 201 250 300 361
#     4  10  22  37  53  78 119 167 209 246 292 363
#     4   8  16  36  56  76 110 155 201 244 293 351
#     4  10  23  43  68  93 120 159 213 268 322 380
#     4  10  21  34  55  89 126 163 201 244 298 372
#
# _framework density 22.463602999999999
#
# number of rings (size 3 to 8) (size 9 to 14) (size 15 to 20)
#    0.000    2.333    0.000    1.500    4.667    3.333 
#    0.000    0.833    0.000   31.000    0.000    0.000 
#    0.000    0.000    0.000    0.000    0.000    0.000 
#
# Total GULP energy -267667.361175 kJ/mol
# GULP energy per Si atom -5576.403358 kJ/mol
# Density = 2.241247 g / cm^3
# Si number density = 22.463603 Si / 1000 Ang^3
#
#
#
# Elastic Constant Matrix: (Units=GPa)
#
#
# Indices 1 2 3 4 5 6 
#
# 1 70.0800 -5.3624 24.1717 0.0000 0.0000 0.0000
# 2 -5.3624 70.2280 31.5453 0.0000 0.0000 0.0000
# 3 24.1717 31.5453 118.3925 0.0000 0.0000 0.0000
# 4 0.0000 0.0000 0.0000 -3.1264 0.0000 0.0000
# 5 0.0000 0.0000 0.0000 0.0000 42.6716 0.0000
# 6 0.0000 0.0000 0.0000 0.0000 0.0000 41.1625
#
#
#
# Elastic Compliance Matrix: (Units=1/GPa)
#
#
# Indices 1 2 3 4 5 6 
#
# 1 0.015900 0.003036 -0.004055 0.000000 0.000000 0.000000
# 2 0.003036 0.016755 -0.005084 0.000000 0.000000 0.000000
# 3 -0.004055 -0.005084 0.010629 0.000000 0.000000 0.000000
# 4 0.000000 0.000000 0.000000 -0.319860 0.000000 0.000000
# 5 0.000000 0.000000 0.000000 0.000000 0.023435 0.000000
# 6 0.000000 0.000000 0.000000 0.000000 0.000000 0.024294
#
#
# Mechanical properties :
#
#
# Convention : Reuss Voigt Hill
#
# Bulk Modulus (GPa) = 32.17807 39.93440 36.05624
# Shear Modulus (GPa) = -24.23877 30.03128 2.89625
#
# Velocity S-wave (km/s) = -3.28841 3.66031 1.13671
# Velocity P-wave (km/s) = 0.25018 5.97326 4.22003
#
# Compressibility (1/GPa) = 0.03107706
#
# Stress axis : x y z
#
# Youngs Moduli (GPa) = 62.89168 59.68446 94.08209
#
# Poissons Ratio (x) = -0.18118 0.38152
# Poissons Ratio (y) = -0.19091 0.47831
# Poissons Ratio (z) = 0.25503 0.30344
#
# Static dielectric constant tensor:
#      x y z
#    x 1.852160 0.000000 0.000000 
#    y 0.000000 1.762710 0.000000 
#    z 0.000000 0.000000 1.824920 
# 
# From -- ./inp_files/30392.got.cif
#   From: 2010.05.17/outbox.cif.g08.bks.cpg/sg62_16_cif.got.tgz:30392.got - 2010.06.03 15:25:27.
