data_PCOD9465708
_publ_section_title
;
Structure prediction by ZEFSAII (Michael W. Deem and Ramdas Pophale) SiO2 
 PCOD9465708
Probable space group: P N M A
;
_chemical_formula_sum "Si O2"
_cell_formula_units_Z 56
_cell_length_a 14.983394
_cell_length_b 8.913414
_cell_length_c 21.490336
_cell_angle_alpha 90.000000
_cell_angle_beta 90.000000
_cell_angle_gamma 90.000000
_cell_volume 2870.103010
_symmetry_space_group_name_H-M "P N M A"
_symmetry_group_IT_number 62
_symmetry_cell_setting 'orthorhombic'
loop_
_space_group_symop_operation_xyz
x,y,z
1/2-x,-y,1/2+z
1/2+x,1/2-y,1/2-z
-x,1/2+y,-z
-x,-y,-z
1/2+x,y,1/2-z
1/2-x,1/2+y,1/2+z
x,1/2-y,z
loop_
_atom_site_type_symbol
_atom_site_label
_atom_site_fract_x
_atom_site_fract_y
_atom_site_fract_z
Si Si1 0.415506 0.575489 0.687298
Si Si2 0.856339 0.573166 0.519183
Si Si3 0.258485 0.428843 0.765320
Si Si4 0.516840 0.930913 0.567693
Si Si5 0.077324 0.923975 0.718242
Si Si6 0.207303 0.428661 0.904199
Si Si7 0.981444 0.927036 0.407104
O O1 0.386850 0.750000 0.685566
O O2 0.343389 0.483818 0.726422
O O3 0.439897 0.525366 0.617420
O O4 0.508416 0.568621 0.724809
O O5 0.840746 0.750000 0.527496
O O6 0.769293 0.483279 0.539411
O O7 0.893924 0.547244 0.449850
O O8 0.937432 0.518718 0.562980
O O9 0.250049 0.250000 0.759713
O O10 0.171486 0.508658 0.737896
O O11 0.258129 0.464889 0.839228
O O12 0.518576 0.750000 0.564909
O O13 0.500000 0.000000 0.500000
O O14 0.612088 0.990458 0.592156
O O15 0.086315 0.750000 0.699692
O O16 0.037304 0.018574 0.661782
O O17 0.194059 0.250000 0.906579
O O18 0.002662 0.750000 0.409743
#
# Coordination Sequence:
#
# PCOD9465708 Si02
#       7
#     8   8   8   8   8   8   8
#     4  10  23  42  64  91 124 163 208 258 314 376
#     4  10  21  37  59  86 120 163 205 249 304 369
#     4  11  24  39  62  93 124 160 204 257 314 372
#     4  11  24  44  67  92 124 165 211 263 318 380
#     4  11  22  39  63  89 120 160 202 251 307 369
#     4  11  23  40  63  92 123 163 210 259 314 376
#     4  10  21  37  57  87 124 159 201 254 309 364
#
# _framework density 19.511495
#
# number of rings (size 3 to 8) (size 9 to 14) (size 15 to 20)
#    0.000    1.429    1.429    3.429    0.000    9.143 
#    0.000    0.000    0.000    0.000    0.000    0.000 
#    0.000    0.000    0.000    0.000    0.000    0.000 
#
# Total GULP energy -313006.600454 kJ/mol
# GULP energy per Si atom -5589.403580 kJ/mol
# Density = 1.946709 g / cm^3
# Si number density = 19.511495 Si / 1000 Ang^3
#
#
#
# Elastic Constant Matrix: (Units=GPa)
#
#
# Indices 1 2 3 4 5 6 
#
# 1 51.9486 14.7405 -0.8806 0.0000 0.0000 0.0000
# 2 14.7405 48.7100 25.5459 0.0000 0.0000 0.0000
# 3 -0.8806 25.5459 86.9816 0.0000 0.0000 0.0000
# 4 0.0000 0.0000 0.0000 30.6789 0.0000 0.0000
# 5 0.0000 0.0000 0.0000 0.0000 13.4712 0.0000
# 6 0.0000 0.0000 0.0000 0.0000 0.0000 33.9847
#
#
#
# Elastic Compliance Matrix: (Units=1/GPa)
#
#
# Indices 1 2 3 4 5 6 
#
# 1 0.021515 -0.007831 0.002518 0.000000 0.000000 0.000000
# 2 -0.007831 0.027118 -0.008044 0.000000 0.000000 0.000000
# 3 0.002518 -0.008044 0.013885 0.000000 0.000000 0.000000
# 4 0.000000 0.000000 0.000000 0.032596 0.000000 0.000000
# 5 0.000000 0.000000 0.000000 0.000000 0.074232 0.000000
# 6 0.000000 0.000000 0.000000 0.000000 0.000000 0.029425
#
#
# Mechanical properties :
#
#
# Convention : Reuss Voigt Hill
#
# Bulk Modulus (GPa) = 27.93056 29.60575 28.76815
# Shear Modulus (GPa) = 21.05985 25.50925 23.28455
#
# Velocity S-wave (km/s) = 3.28892 3.61972 3.45828
# Velocity P-wave (km/s) = 5.36364 5.71631 5.54278
#
# Compressibility (1/GPa) = 0.03580308
#
# Stress axis : x y z
#
# Youngs Moduli (GPa) = 46.48011 36.87588 72.02257
#
# Poissons Ratio (x) = 0.28878 -0.18133
# Poissons Ratio (y) = 0.36399 0.57932
# Poissons Ratio (z) = -0.11703 0.29662
#
# Static dielectric constant tensor:
#      x y z
#    x 1.656920 0.000000 0.000000 
#    y 0.000000 1.666210 0.000000 
#    z 0.000000 0.000000 1.687700 
# 
# From -- ./inp_files/27300.got.cif
#   From: 2010.05.17/outbox.cif.g08.bks.cpg/sg62_14_cif.got.tgz:27300.got - 2010.06.03 15:25:27.
