data_PCOD9465953
_publ_section_title
;
Structure prediction by ZEFSAII (Michael W. Deem and Ramdas Pophale) SiO2 
 PCOD9465953
Probable space group: P N M A
;
_chemical_formula_sum "Si O2"
_cell_formula_units_Z 64
_cell_length_a 24.336237
_cell_length_b 8.804638
_cell_length_c 15.616060
_cell_angle_alpha 90.000000
_cell_angle_beta 90.000000
_cell_angle_gamma 90.000000
_cell_volume 3346.080615
_symmetry_space_group_name_H-M "P N M A"
_symmetry_group_IT_number 62
_symmetry_cell_setting 'orthorhombic'
loop_
_space_group_symop_operation_xyz
x,y,z
1/2-x,-y,1/2+z
1/2+x,1/2-y,1/2-z
-x,1/2+y,-z
-x,-y,-z
1/2+x,y,1/2-z
1/2-x,1/2+y,1/2+z
x,1/2-y,z
loop_
_atom_site_type_symbol
_atom_site_label
_atom_site_fract_x
_atom_site_fract_y
_atom_site_fract_z
Si Si1 0.741461 0.568959 0.910635
Si Si2 0.477385 0.070503 0.413274
Si Si3 0.951798 0.067556 0.758302
Si Si4 0.176177 0.933621 0.228034
Si Si5 0.124393 0.925699 0.678663
Si Si6 0.370162 0.927155 0.355385
Si Si7 0.255549 0.434080 0.893936
Si Si8 0.491603 0.428114 0.092397
O O1 0.752572 0.750000 0.913839
O O2 0.788523 0.494708 0.852009
O O3 0.682493 0.547283 0.866206
O O4 0.736337 0.512517 0.008577
O O5 0.484282 0.250000 0.412300
O O6 0.500000 0.000000 0.500000
O O7 0.509688 0.000718 0.332348
O O8 0.413573 0.025887 0.406844
O O9 0.955381 0.250000 0.760607
O O10 0.888033 0.023569 0.773463
O O11 0.973348 0.008509 0.666867
O O12 0.179072 0.750000 0.226344
O O13 0.204430 0.986748 0.317537
O O14 0.123828 0.750000 0.710976
O O15 0.072645 0.941355 0.616728
O O16 0.117566 0.040609 0.756395
O O17 0.377157 0.750000 0.376501
O O18 0.307119 0.970517 0.370049
O O19 0.260930 0.250000 0.895408
O O20 0.505649 0.250000 0.091405
O O21 0.500000 0.500000 0.000000
#
# Coordination Sequence:
#
# PCOD9465953 Si02
#       8
#     8   8   8   8   8   8   8   8
#     4  10  21  38  62  89 120 160 205 248 302 365
#     4  12  26  44  65  91 126 163 208 257 313 374
#     4  11  24  42  65  92 125 166 209 256 313 373
#     4  10  22  41  62  87 123 161 201 251 306 365
#     4  10  21  38  62  89 120 160 206 257 310 363
#     4  11  21  38  65  91 121 159 206 255 309 367
#     4   9  20  38  61  89 120 160 200 244 302 362
#     4  11  24  41  63  92 126 166 209 258 312 367
#
# _framework density 19.126856
#
# number of rings (size 3 to 8) (size 9 to 14) (size 15 to 20)
#    0.000    1.500    2.500    2.250    3.500    1.500 
#    0.000    1.250    0.000    0.000    0.000    0.000 
#    0.000    0.000    0.000    0.000    0.000    0.000 
#
# Total GULP energy -357526.866928 kJ/mol
# GULP energy per Si atom -5586.357296 kJ/mol
# Density = 1.908332 g / cm^3
# Si number density = 19.126856 Si / 1000 Ang^3
#
#
#
# Elastic Constant Matrix: (Units=GPa)
#
#
# Indices 1 2 3 4 5 6 
#
# 1 69.4151 27.6946 -8.7050 0.0000 0.0000 0.0000
# 2 27.6946 54.9924 11.3062 0.0000 0.0000 0.0000
# 3 -8.7050 11.3062 61.0500 0.0000 0.0000 0.0000
# 4 0.0000 0.0000 0.0000 32.6815 0.0000 0.0000
# 5 0.0000 0.0000 0.0000 0.0000 24.1851 0.0000
# 6 0.0000 0.0000 0.0000 0.0000 0.0000 24.7839
#
#
#
# Elastic Compliance Matrix: (Units=1/GPa)
#
#
# Indices 1 2 3 4 5 6 
#
# 1 0.019254 -0.010667 0.004721 0.000000 0.000000 0.000000
# 2 -0.010667 0.024814 -0.006116 0.000000 0.000000 0.000000
# 3 0.004721 -0.006116 0.018186 0.000000 0.000000 0.000000
# 4 0.000000 0.000000 0.000000 0.030598 0.000000 0.000000
# 5 0.000000 0.000000 0.000000 0.000000 0.041348 0.000000
# 6 0.000000 0.000000 0.000000 0.000000 0.000000 0.040349
#
#
# Mechanical properties :
#
#
# Convention : Reuss Voigt Hill
#
# Bulk Modulus (GPa) = 26.22706 27.33877 26.78291
# Shear Modulus (GPa) = 23.65374 26.67422 25.16398
#
# Velocity S-wave (km/s) = 3.52046 3.73848 3.63110
# Velocity P-wave (km/s) = 5.50152 5.74103 5.62255
#
# Compressibility (1/GPa) = 0.03812856
#
# Stress axis : x y z
#
# Youngs Moduli (GPa) = 51.93750 40.30016 54.98773
#
# Poissons Ratio (x) = 0.42988 -0.25959
# Poissons Ratio (y) = 0.55402 0.33633
# Poissons Ratio (z) = -0.24519 0.24649
#
# Static dielectric constant tensor:
#      x y z
#    x 1.694890 0.000000 0.000000 
#    y 0.000000 1.656210 0.000000 
#    z 0.000000 0.000000 1.657030 
# 
# From -- ./inp_files/20876.got.cif
#   From: 2010.05.17/outbox.cif.g08.bks.cpg/sg62_11_cif.got.tgz:20876.got - 2010.06.03 15:25:27.
