data_PCOD9465284
_publ_section_title
;
Structure prediction by ZEFSAII (Michael W. Deem and Ramdas Pophale) SiO2 
 PCOD9465284
Probable space group: P N M A
;
_chemical_formula_sum "Si O2"
_cell_formula_units_Z 56
_cell_length_a 14.678595
_cell_length_b 20.876965
_cell_length_c 9.116071
_cell_angle_alpha 90.000000
_cell_angle_beta 90.000000
_cell_angle_gamma 90.000000
_cell_volume 2793.569948
_symmetry_space_group_name_H-M "P N M A"
_symmetry_group_IT_number 62
_symmetry_cell_setting 'orthorhombic'
loop_
_space_group_symop_operation_xyz
x,y,z
1/2-x,-y,1/2+z
1/2+x,1/2-y,1/2-z
-x,1/2+y,-z
-x,-y,-z
1/2+x,y,1/2-z
1/2-x,1/2+y,1/2+z
x,1/2-y,z
loop_
_atom_site_type_symbol
_atom_site_label
_atom_site_fract_x
_atom_site_fract_y
_atom_site_fract_z
Si Si1 0.095933 0.523914 0.382482
Si Si2 0.284792 0.917546 0.407100
Si Si3 0.409315 0.578566 0.123531
Si Si4 0.165552 0.322108 0.392409
Si Si5 0.200772 0.673755 0.640041
Si Si6 0.983744 0.178028 0.201552
Si Si7 0.053928 0.050532 0.097451
O O1 0.197452 0.545626 0.345151
O O2 0.103866 0.490069 0.541496
O O3 0.059803 0.472031 0.265494
O O4 0.019833 0.579922 0.373590
O O5 0.359986 0.912934 0.278940
O O6 0.239629 0.857417 0.492457
O O7 0.343752 0.948924 0.536531
O O8 0.361985 0.631174 0.021695
O O9 0.189922 0.250000 0.442792
O O10 0.243470 0.347986 0.284480
O O11 0.077183 0.317178 0.290172
O O12 0.213791 0.750000 0.629569
O O13 0.096401 0.661224 0.684027
O O14 0.963628 0.250000 0.140817
O O15 0.003898 0.119598 0.091294
O O16 0.000000 0.000000 0.000000
#
# Coordination Sequence:
#
# PCOD9465284 Si02
#       7
#     8   8   8   8   8   8   8
#     4  11  24  41  61  87 133 169 216 263 334 408
#     4  12  24  38  65  96 129 173 216 279 342 393
#     4  11  23  40  59  90 126 170 205 267 334 390
#     4  10  20  39  63  87 119 166 214 256 314 391
#     4  10  22  40  67  96 124 169 225 274 326 397
#     4  10  21  41  70  94 124 174 225 272 325 399
#     4  12  24  42  66  98 134 173 229 280 332 399
#
# _framework density 20.046035
#
# number of rings (size 3 to 8) (size 9 to 14) (size 15 to 20)
#    0.000    1.143    4.286    1.714    2.000    4.000 
#    0.000    0.000    0.000    0.857    0.000    0.000 
#    0.000    0.000    0.000    0.000    0.000    0.000 
#
# Total GULP energy -312234.413769 kJ/mol
# GULP energy per Si atom -5575.614532 kJ/mol
# Density = 2.000041 g / cm^3
# Si number density = 20.046035 Si / 1000 Ang^3
#
#
#
# Elastic Constant Matrix: (Units=GPa)
#
#
# Indices 1 2 3 4 5 6 
#
# 1 74.0954 30.8392 2.2222 0.0000 0.0000 0.0000
# 2 30.8392 77.8645 41.7993 0.0000 0.0000 0.0000
# 3 2.2222 41.7993 61.7762 0.0000 0.0000 0.0000
# 4 0.0000 0.0000 0.0000 33.8678 0.0000 0.0000
# 5 0.0000 0.0000 0.0000 0.0000 29.2526 0.0000
# 6 0.0000 0.0000 0.0000 0.0000 0.0000 23.6664
#
#
#
# Elastic Compliance Matrix: (Units=1/GPa)
#
#
# Indices 1 2 3 4 5 6 
#
# 1 0.017650 -0.010443 0.006431 0.000000 0.000000 0.000000
# 2 -0.010443 0.026347 -0.017451 0.000000 0.000000 0.000000
# 3 0.006431 -0.017451 0.027764 0.000000 0.000000 0.000000
# 4 0.000000 0.000000 0.000000 0.029527 0.000000 0.000000
# 5 0.000000 0.000000 0.000000 0.000000 0.034185 0.000000
# 6 0.000000 0.000000 0.000000 0.000000 0.000000 0.042254
#
#
# Mechanical properties :
#
#
# Convention : Reuss Voigt Hill
#
# Bulk Modulus (GPa) = 34.68071 40.38416 37.53243
# Shear Modulus (GPa) = 21.71421 26.61572 24.16497
#
# Velocity S-wave (km/s) = 3.29480 3.64776 3.47576
# Velocity P-wave (km/s) = 5.64024 6.15881 5.90522
#
# Compressibility (1/GPa) = 0.02883447
#
# Stress axis : x y z
#
# Youngs Moduli (GPa) = 56.65873 37.95500 36.01762
#
# Poissons Ratio (x) = 0.39635 -0.23162
# Poissons Ratio (y) = 0.59166 0.62856
# Poissons Ratio (z) = -0.36436 0.66237
#
# Static dielectric constant tensor:
#      x y z
#    x 1.758590 0.000000 0.000000 
#    y 0.000000 1.754050 0.000000 
#    z 0.000000 0.000000 1.702850 
# 
# From -- ./inp_files/6773.got.cif
#   From: 2010.05.17/outbox.cif.g08.bks.cpg/sg62_4_cif.got.tgz:6773.got - 2010.06.03 15:25:27.
