data_PCOD9465198
_publ_section_title
;
Structure prediction by ZEFSAII (Michael W. Deem and Ramdas Pophale) SiO2 
 PCOD9465198
Probable space group: P N M A
;
_chemical_formula_sum "Si O2"
_cell_formula_units_Z 64
_cell_length_a 24.051165
_cell_length_b 8.764099
_cell_length_c 15.643190
_cell_angle_alpha 90.000000
_cell_angle_beta 90.000000
_cell_angle_gamma 90.000000
_cell_volume 3297.377823
_symmetry_space_group_name_H-M "P N M A"
_symmetry_group_IT_number 62
_symmetry_cell_setting 'orthorhombic'
loop_
_space_group_symop_operation_xyz
x,y,z
1/2-x,-y,1/2+z
1/2+x,1/2-y,1/2-z
-x,1/2+y,-z
-x,-y,-z
1/2+x,y,1/2-z
1/2-x,1/2+y,1/2+z
x,1/2-y,z
loop_
_atom_site_type_symbol
_atom_site_label
_atom_site_fract_x
_atom_site_fract_y
_atom_site_fract_z
Si Si1 0.867919 0.068328 0.900511
Si Si2 0.251119 0.432171 0.839451
Si Si3 0.366546 0.568657 0.419220
Si Si4 0.749968 0.430560 0.347723
Si Si5 0.362299 0.569382 0.093110
Si Si6 0.573283 0.569026 0.745754
Si Si7 0.548483 0.932847 0.246753
Si Si8 0.872528 0.067482 0.586550
O O1 0.858844 0.250000 0.897516
O O2 0.913975 0.030882 0.829377
O O3 0.810511 0.985332 0.877056
O O4 0.884727 0.015903 0.994922
O O5 0.251527 0.250000 0.819652
O O6 0.198878 0.461186 0.900871
O O7 0.243405 0.522417 0.751415
O O8 0.310263 0.470481 0.881149
O O9 0.373726 0.750000 0.428953
O O10 0.399511 0.510784 0.336668
O O11 0.755607 0.250000 0.358864
O O12 0.798616 0.514023 0.399443
O O13 0.365519 0.750000 0.103995
O O14 0.395344 0.489359 0.169767
O O15 0.384700 0.518601 0.001042
O O16 0.579613 0.750000 0.738378
O O17 0.509118 0.521222 0.751759
O O18 0.537789 0.750000 0.247232
O O19 0.584620 0.967659 0.162420
O O20 0.873883 0.250000 0.571291
#
# Coordination Sequence:
#
# PCOD9465198 Si02
#       8
#     8   8   8   8   8   8   8   8
#     4  11  23  42  67  96 130 168 211 258 315 378
#     4  10  20  38  64  93 128 168 203 253 318 377
#     4  11  23  40  66  97 131 167 208 260 318 376
#     4  12  23  37  63  96 131 168 209 256 314 379
#     4  12  25  42  65  94 129 167 211 261 318 381
#     4  12  26  44  66  92 124 166 216 267 316 375
#     4  10  23  44  68  92 124 168 212 263 317 370
#     4  10  21  41  67  96 129 164 208 258 316 378
#
# _framework density 19.409362999999999
#
# number of rings (size 3 to 8) (size 9 to 14) (size 15 to 20)
#    0.000    1.000    2.500    4.875    0.000    4.500 
#    0.000    0.000    0.000    0.000    0.000    0.000 
#    0.000    0.000    0.000    0.000    0.000    0.000 
#
# Total GULP energy -358157.137454 kJ/mol
# GULP energy per Si atom -5596.205273 kJ/mol
# Density = 1.936519 g / cm^3
# Si number density = 19.409363 Si / 1000 Ang^3
#
#
#
# Elastic Constant Matrix: (Units=GPa)
#
#
# Indices 1 2 3 4 5 6 
#
# 1 70.1603 9.8660 0.3757 0.0000 0.0000 0.0000
# 2 9.8660 28.6830 2.9062 0.0000 0.0000 0.0000
# 3 0.3757 2.9062 66.9205 0.0000 0.0000 0.0000
# 4 0.0000 0.0000 0.0000 31.9911 0.0000 0.0000
# 5 0.0000 0.0000 0.0000 0.0000 -2.1543 0.0000
# 6 0.0000 0.0000 0.0000 0.0000 0.0000 20.8114
#
#
#
# Elastic Compliance Matrix: (Units=1/GPa)
#
#
# Indices 1 2 3 4 5 6 
#
# 1 0.014979 -0.005166 0.000140 0.000000 0.000000 0.000000
# 2 -0.005166 0.036800 -0.001569 0.000000 0.000000 0.000000
# 3 0.000140 -0.001569 0.015010 0.000000 0.000000 0.000000
# 4 0.000000 0.000000 0.000000 0.031259 0.000000 0.000000
# 5 0.000000 0.000000 0.000000 0.000000 -0.464187 0.000000
# 6 0.000000 0.000000 0.000000 0.000000 0.000000 0.048051
#
#
# Mechanical properties :
#
#
# Convention : Reuss Voigt Hill
#
# Bulk Modulus (GPa) = 18.65716 21.33993 19.99854
# Shear Modulus (GPa) = -17.41967 20.30403 1.44218
#
# Velocity S-wave (km/s) = -2.99906 3.23785 0.86293
# Velocity P-wave (km/s) = 1.53596 4.99967 3.36434
#
# Compressibility (1/GPa) = 0.05359873
#
# Stress axis : x y z
#
# Youngs Moduli (GPa) = 66.76092 27.17393 66.62020
#
# Poissons Ratio (x) = 0.14039 -0.00935
# Poissons Ratio (y) = 0.34492 0.10453
# Poissons Ratio (z) = -0.00937 0.04264
#
# Static dielectric constant tensor:
#      x y z
#    x 1.657000 0.000000 0.000000 
#    y 0.000000 1.647240 0.000000 
#    z 0.000000 0.000000 1.664250 
# 
# From -- ./inp_files/20797.got.cif
#   From: 2010.05.17/outbox.cif.g08.bks.cpg/sg62_11_cif.got.tgz:20797.got - 2010.06.03 15:25:27.
