data_PCOD9465390
_publ_section_title
;
Structure prediction by ZEFSAII (Michael W. Deem and Ramdas Pophale) SiO2 
 PCOD9465390
Probable space group: P N M A
;
_chemical_formula_sum "Si O2"
_cell_formula_units_Z 60
_cell_length_a 18.725855
_cell_length_b 24.597546
_cell_length_c 5.285365
_cell_angle_alpha 90.000000
_cell_angle_beta 90.000000
_cell_angle_gamma 90.000000
_cell_volume 2434.492394
_symmetry_space_group_name_H-M "P N M A"
_symmetry_group_IT_number 62
_symmetry_cell_setting 'orthorhombic'
loop_
_space_group_symop_operation_xyz
x,y,z
1/2-x,-y,1/2+z
1/2+x,1/2-y,1/2-z
-x,1/2+y,-z
-x,-y,-z
1/2+x,y,1/2-z
1/2-x,1/2+y,1/2+z
x,1/2-y,z
loop_
_atom_site_type_symbol
_atom_site_label
_atom_site_fract_x
_atom_site_fract_y
_atom_site_fract_z
Si Si1 0.815059 0.653336 0.189097
Si Si2 0.069202 0.750000 0.841248
Si Si3 0.601663 0.524451 0.760426
Si Si4 0.184935 0.835438 0.040873
Si Si5 0.894349 0.921520 0.549842
Si Si6 0.457865 0.845290 0.562550
Si Si7 0.933844 0.089511 0.758300
Si Si8 0.253137 0.928201 0.691627
O O1 0.749141 0.688328 0.289266
O O2 0.860285 0.631417 0.423154
O O3 0.877494 0.674466 0.005808
O O4 0.778614 0.599064 0.069544
O O5 0.007424 0.701806 0.825745
O O6 0.131704 0.796280 0.893861
O O7 0.579741 0.463686 0.838472
O O8 0.571362 0.561152 0.988761
O O9 0.687907 0.530385 0.782158
O O10 0.576384 0.546196 0.488225
O O11 0.134369 0.870837 0.221851
O O12 0.222388 0.876602 0.846996
O O13 0.946678 0.897165 0.756958
O O14 0.827154 0.949649 0.692082
O O15 0.500778 0.869955 0.321626
#
# Coordination Sequence:
#
# PCOD9465390 Si02
#       8
#     8   4   8   8   8   8   8   8
#     4  10  20  41  63  93 139 163 222 288 347 396
#     4  10  22  46  72  90 126 176 238 280 368 422
#     4  11  23  38  66 100 137 196 233 276 332 414
#     4   9  19  41  65  96 124 170 226 296 334 408
#     4  10  24  37  63  97 139 184 222 283 341 410
#     4  10  24  44  64  95 138 182 225 291 352 422
#     4  10  23  40  65  97 144 183 241 276 334 406
#     4   9  20  37  62  92 133 171 224 285 336 395
#
# _framework density 24.645795
#
# number of rings (size 3 to 8) (size 9 to 14) (size 15 to 20)
#    0.000    2.133    1.333    0.000    7.467    1.600 
#    0.000    8.667    0.000    0.000    0.000    0.000 
#    0.000    0.000    0.000    0.000    0.000    0.000 
#
# Total GULP energy -334231.895102 kJ/mol
# GULP energy per Si atom -5570.531585 kJ/mol
# Density = 2.458970 g / cm^3
# Si number density = 24.645795 Si / 1000 Ang^3
#
#
#
# Elastic Constant Matrix: (Units=GPa)
#
#
# Indices 1 2 3 4 5 6 
#
# 1 170.5247 33.1049 30.7465 0.0000 0.0000 0.0000
# 2 33.1049 80.1281 0.3399 0.0000 0.0000 0.0000
# 3 30.7465 0.3399 68.9648 0.0000 0.0000 0.0000
# 4 0.0000 0.0000 0.0000 -15.2501 0.0000 0.0000
# 5 0.0000 0.0000 0.0000 0.0000 35.3702 0.0000
# 6 0.0000 0.0000 0.0000 0.0000 0.0000 29.1888
#
#
#
# Elastic Compliance Matrix: (Units=1/GPa)
#
#
# Indices 1 2 3 4 5 6 
#
# 1 0.006980 -0.002871 -0.003098 0.000000 0.000000 0.000000
# 2 -0.002871 0.013661 0.001212 0.000000 0.000000 0.000000
# 3 -0.003098 0.001212 0.015875 0.000000 0.000000 0.000000
# 4 0.000000 0.000000 0.000000 -0.065573 0.000000 0.000000
# 5 0.000000 0.000000 0.000000 0.000000 0.028272 0.000000
# 6 0.000000 0.000000 0.000000 0.000000 0.000000 0.034260
#
#
# Mechanical properties :
#
#
# Convention : Reuss Voigt Hill
#
# Bulk Modulus (GPa) = 37.03111 49.77782 43.40447
# Shear Modulus (GPa) = 96.17545 26.89020 61.53282
#
# Velocity S-wave (km/s) = 6.25362 3.30671 5.00211
# Velocity P-wave (km/s) = 8.19766 5.90087 7.14220
#
# Compressibility (1/GPa) = 0.02700432
#
# Stress axis : x y z
#
# Youngs Moduli (GPa) = 143.26437 73.20163 62.99108
#
# Poissons Ratio (x) = 0.21014 0.19513
# Poissons Ratio (y) = 0.41127 -0.07638
# Poissons Ratio (z) = 0.44380 -0.08876
#
# Static dielectric constant tensor:
#      x y z
#    x 2.029050 0.000000 0.000000 
#    y 0.000000 1.898010 0.000000 
#    z 0.000000 0.000000 1.996850 
# 
# From -- ./inp_files/1812.got.cif
#   From: 2010.05.17/outbox.cif.g08.bks.cpg/sg62_1_cif.got.tgz:1812.got - 2010.06.03 15:25:27.
