data_PCOD9465709
_publ_section_title
;
Structure prediction by ZEFSAII (Michael W. Deem and Ramdas Pophale) SiO2 
 PCOD9465709
Probable space group: P N M A
;
_chemical_formula_sum "Si O2"
_cell_formula_units_Z 48
_cell_length_a 22.984745
_cell_length_b 12.346182
_cell_length_c 8.265548
_cell_angle_alpha 90.000000
_cell_angle_beta 90.000000
_cell_angle_gamma 90.000000
_cell_volume 2345.546337
_symmetry_space_group_name_H-M "P N M A"
_symmetry_group_IT_number 62
_symmetry_cell_setting 'orthorhombic'
loop_
_space_group_symop_operation_xyz
x,y,z
1/2-x,-y,1/2+z
1/2+x,1/2-y,1/2-z
-x,1/2+y,-z
-x,-y,-z
1/2+x,y,1/2-z
1/2-x,1/2+y,1/2+z
x,1/2-y,z
loop_
_atom_site_type_symbol
_atom_site_label
_atom_site_fract_x
_atom_site_fract_y
_atom_site_fract_z
Si Si1 0.783859 0.029187 0.871368
Si Si2 0.873650 0.627429 0.049022
Si Si3 0.091997 0.555396 0.713652
Si Si4 0.292395 0.366481 0.315073
Si Si5 0.529799 0.041311 0.336712
Si Si6 0.614133 0.619502 0.152488
O O1 0.826081 0.082295 0.738458
O O2 0.731592 0.964702 0.790931
O O3 0.767617 0.117413 0.005358
O O4 0.820679 0.940940 0.974297
O O5 0.858461 0.750000 0.087751
O O6 0.898246 0.563319 0.206323
O O7 0.921655 0.622355 0.905138
O O8 0.137488 0.626060 0.818783
O O9 0.110667 0.574743 0.529926
O O10 0.024140 0.584673 0.732326
O O11 0.275241 0.250000 0.247232
O O12 0.500000 0.000000 0.500000
O O13 0.562953 0.942484 0.249481
O O14 0.608852 0.750000 0.154454
#
# Coordination Sequence:
#
# PCOD9465709 Si02
#       6
#     8   8   8   8   8   8
#     4  10  22  39  58  87 114 145 197 240 276 343
#     4   9  19  37  59  81 113 151 184 231 289 336
#     4  10  21  37  57  88 119 147 193 237 278 347
#     4  11  22  39  62  85 118 156 189 236 291 338
#     4   9  20  37  57  84 115 145 190 237 276 339
#     4  11  22  39  62  85 116 154 190 237 292 339
#
# _framework density 20.464317000000001
#
# number of rings (size 3 to 8) (size 9 to 14) (size 15 to 20)
#    0.000    2.000    0.000    4.000    0.000    4.000 
#    0.000   17.500    0.000    0.000    0.000    0.000 
#    0.000    0.000    0.000    0.000    0.000    0.000 
#
# Total GULP energy -267713.663279 kJ/mol
# GULP energy per Si atom -5577.367985 kJ/mol
# Density = 2.041774 g / cm^3
# Si number density = 20.464317 Si / 1000 Ang^3
#
#
#
# Elastic Constant Matrix: (Units=GPa)
#
#
# Indices 1 2 3 4 5 6 
#
# 1 75.9160 25.3956 6.8345 0.0000 0.0000 0.0000
# 2 25.3956 118.7950 44.0343 0.0000 0.0000 0.0000
# 3 6.8345 44.0343 77.6489 0.0000 0.0000 0.0000
# 4 0.0000 0.0000 0.0000 20.3924 0.0000 0.0000
# 5 0.0000 0.0000 0.0000 0.0000 36.9829 0.0000
# 6 0.0000 0.0000 0.0000 0.0000 0.0000 6.0417
#
#
#
# Elastic Compliance Matrix: (Units=1/GPa)
#
#
# Indices 1 2 3 4 5 6 
#
# 1 0.014209 -0.003259 0.000598 0.000000 0.000000 0.000000
# 2 -0.003259 0.011406 -0.006181 0.000000 0.000000 0.000000
# 3 0.000598 -0.006181 0.016331 0.000000 0.000000 0.000000
# 4 0.000000 0.000000 0.000000 0.049038 0.000000 0.000000
# 5 0.000000 0.000000 0.000000 0.000000 0.027040 0.000000
# 6 0.000000 0.000000 0.000000 0.000000 0.000000 0.165517
#
#
# Mechanical properties :
#
#
# Convention : Reuss Voigt Hill
#
# Bulk Modulus (GPa) = 41.21948 47.20984 44.21466
# Shear Modulus (GPa) = 16.16486 25.75642 20.96064
#
# Velocity S-wave (km/s) = 2.81357 3.55153 3.20387
# Velocity P-wave (km/s) = 5.54444 6.31959 5.94466
#
# Compressibility (1/GPa) = 0.02426037
#
# Stress axis : x y z
#
# Youngs Moduli (GPa) = 70.37852 87.67454 61.23215
#
# Poissons Ratio (x) = 0.28573 -0.03659
# Poissons Ratio (y) = 0.22936 0.37850
# Poissons Ratio (z) = -0.04205 0.54195
#
# Static dielectric constant tensor:
#      x y z
#    x 1.798250 0.000000 0.000000 
#    y 0.000000 1.712250 0.000000 
#    z 0.000000 0.000000 1.751450 
# 
# From -- ./inp_files/9298.got.cif
#   From: 2010.05.17/outbox.cif.g08.bks.cpg/sg62_5_cif.got.tgz:9298.got - 2010.06.03 15:25:27.
