data_PCOD9465450
_publ_section_title
;
Structure prediction by ZEFSAII (Michael W. Deem and Ramdas Pophale) SiO2 
 PCOD9465450
Probable space group: P N M A
;
_chemical_formula_sum "Si O2"
_cell_formula_units_Z 64
_cell_length_a 5.355540
_cell_length_b 23.196362
_cell_length_c 22.595102
_cell_angle_alpha 90.000000
_cell_angle_beta 90.000000
_cell_angle_gamma 90.000000
_cell_volume 2806.967933
_symmetry_space_group_name_H-M "P N M A"
_symmetry_group_IT_number 62
_symmetry_cell_setting 'orthorhombic'
loop_
_space_group_symop_operation_xyz
x,y,z
1/2-x,-y,1/2+z
1/2+x,1/2-y,1/2-z
-x,1/2+y,-z
-x,-y,-z
1/2+x,y,1/2-z
1/2-x,1/2+y,1/2+z
x,1/2-y,z
loop_
_atom_site_type_symbol
_atom_site_label
_atom_site_fract_x
_atom_site_fract_y
_atom_site_fract_z
Si Si1 0.920838 0.986833 0.910736
Si Si2 0.245127 0.980192 0.716847
Si Si3 0.948067 0.180668 0.408700
Si Si4 0.693940 0.384339 0.917685
Si Si5 0.726739 0.120552 0.783254
Si Si6 0.435678 0.180594 0.477181
Si Si7 0.780141 0.180004 0.280106
Si Si8 0.691802 0.544299 0.028468
O O1 0.826227 0.961907 0.849361
O O2 0.797345 0.050399 0.915346
O O3 0.205538 0.008012 0.915390
O O4 0.876395 0.951189 0.971464
O O5 0.470622 0.962829 0.760884
O O6 0.236362 0.050369 0.716644
O O7 0.976064 0.250000 0.404626
O O8 0.706865 0.170308 0.449394
O O9 0.881475 0.160296 0.343271
O O10 0.210720 0.158776 0.434219
O O11 0.685108 0.361612 0.851201
O O12 0.426589 0.396941 0.947974
O O13 0.868344 0.347206 0.960020
O O14 0.492091 0.139131 0.743465
O O15 0.412399 0.250000 0.482337
O O16 0.495540 0.163074 0.266514
O O17 0.775138 0.250000 0.280572
O O18 0.500000 0.500000 0.000000
#
# Coordination Sequence:
#
# PCOD9465450 Si02
#       8
#     8   8   8   8   8   8   8   8
#     4   9  19  33  51  77 113 137 174 224 262 317
#     4   9  18  28  48  74 104 139 172 209 259 310
#     4   9  18  32  47  71 105 132 165 215 263 309
#     4  10  21  32  56  76 106 142 182 215 270 326
#     4   9  19  31  48  75 105 134 169 220 267 308
#     4  10  21  35  52  75 107 142 180 226 269 317
#     4   9  15  24  43  69  95 125 158 201 263 321
#     4   9  19  33  50  78 109 140 167 216 269 314
#
# _framework density 22.800401999999998
#
# number of rings (size 3 to 8) (size 9 to 14) (size 15 to 20)
#    0.000    2.750    0.000    0.750   12.250    3.000 
#    0.000    0.000    0.000    0.750    0.000    5.250 
#    0.000    0.000    0.000    0.000    0.000    0.000 
#
# Total GULP energy -357138.766462 kJ/mol
# GULP energy per Si atom -5580.293226 kJ/mol
# Density = 2.274851 g / cm^3
# Si number density = 22.800402 Si / 1000 Ang^3
#
#
#
# Elastic Constant Matrix: (Units=GPa)
#
#
# Indices 1 2 3 4 5 6 
#
# 1 195.8275 -10.3649 133.8494 0.0000 0.0000 0.0000
# 2 -10.3649 31.0611 -3.8825 0.0000 0.0000 0.0000
# 3 133.8494 -3.8825 249.2064 0.0000 0.0000 0.0000
# 4 0.0000 0.0000 0.0000 13.5664 0.0000 0.0000
# 5 0.0000 0.0000 0.0000 0.0000 28.8687 0.0000
# 6 0.0000 0.0000 0.0000 0.0000 0.0000 3.8078
#
#
#
# Elastic Compliance Matrix: (Units=1/GPa)
#
#
# Indices 1 2 3 4 5 6 
#
# 1 0.008215 0.002194 -0.004378 0.000000 0.000000 0.000000
# 2 0.002194 0.032843 -0.000667 0.000000 0.000000 0.000000
# 3 -0.004378 -0.000667 0.006354 0.000000 0.000000 0.000000
# 4 0.000000 0.000000 0.000000 0.073712 0.000000 0.000000
# 5 0.000000 0.000000 0.000000 0.000000 0.034640 0.000000
# 6 0.000000 0.000000 0.000000 0.000000 0.000000 0.262616
#
#
# Mechanical properties :
#
#
# Convention : Reuss Voigt Hill
#
# Bulk Modulus (GPa) = 23.97461 79.47765 51.72613
# Shear Modulus (GPa) = 11.41591 33.01479 22.21535
#
# Velocity S-wave (km/s) = 2.24004 3.80938 3.12483
# Velocity P-wave (km/s) = 4.15068 7.36764 5.97956
#
# Compressibility (1/GPa) = 0.04171080
#
# Stress axis : x y z
#
# Youngs Moduli (GPa) = 121.72529 30.44747 157.38336
#
# Poissons Ratio (x) = -0.06681 0.68906
# Poissons Ratio (y) = -0.26708 0.10494
# Poissons Ratio (z) = 0.53294 0.02030
#
# Static dielectric constant tensor:
#      x y z
#    x 2.006560 0.000000 0.000000 
#    y 0.000000 1.957380 0.000000 
#    z 0.000000 0.000000 1.860890 
# 
# From -- ./inp_files/25475.got.cif
#   From: 2010.05.17/outbox.cif.g08.bks.cpg/sg62_13_cif.got.tgz:25475.got - 2010.06.03 15:25:27.
