data_PCOD9465844
_publ_section_title
;
Structure prediction by ZEFSAII (Michael W. Deem and Ramdas Pophale) SiO2 
 PCOD9465844
Probable space group: P N M A
;
_chemical_formula_sum "Si O2"
_cell_formula_units_Z 48
_cell_length_a 11.976465
_cell_length_b 13.960530
_cell_length_c 15.590896
_cell_angle_alpha 90.000000
_cell_angle_beta 90.000000
_cell_angle_gamma 90.000000
_cell_volume 2606.763494
_symmetry_space_group_name_H-M "P N M A"
_symmetry_group_IT_number 62
_symmetry_cell_setting 'orthorhombic'
loop_
_space_group_symop_operation_xyz
x,y,z
1/2-x,-y,1/2+z
1/2+x,1/2-y,1/2-z
-x,1/2+y,-z
-x,-y,-z
1/2+x,y,1/2-z
1/2-x,1/2+y,1/2+z
x,1/2-y,z
loop_
_atom_site_type_symbol
_atom_site_label
_atom_site_fract_x
_atom_site_fract_y
_atom_site_fract_z
Si Si1 0.428496 0.140984 0.519663
Si Si2 0.178944 0.361157 0.451047
Si Si3 0.594256 0.051885 0.384374
Si Si4 0.985353 0.137626 0.582777
Si Si5 0.960506 0.543794 0.687668
Si Si6 0.162832 0.863952 0.583924
O O1 0.441309 0.250000 0.550854
O O2 0.307087 0.131808 0.475859
O O3 0.521150 0.116176 0.448863
O O4 0.430532 0.058265 0.590595
O O5 0.151479 0.250000 0.432988
O O6 0.098510 0.388178 0.530528
O O7 0.144290 0.420874 0.368706
O O8 0.559293 0.065432 0.286329
O O9 0.722939 0.079695 0.400106
O O10 0.988270 0.250000 0.604646
O O11 0.887491 0.122210 0.512092
O O12 0.974440 0.067648 0.662929
O O13 0.067226 0.599140 0.648594
O O14 0.180245 0.750000 0.595397
#
# Coordination Sequence:
#
# PCOD9465844 Si02
#       6
#     8   8   8   8   8   8
#     4  10  22  41  59  77 111 155 189 219 274 341
#     4   9  18  35  60  83 107 143 183 225 276 331
#     4  11  24  37  56  84 114 149 185 230 277 327
#     4   9  18  35  60  84 108 144 184 228 276 325
#     4  11  21  34  57  87 114 139 183 235 279 322
#     4  10  21  38  58  82 115 148 183 226 277 331
#
# _framework density 18.413639
#
# number of rings (size 3 to 8) (size 9 to 14) (size 15 to 20)
#    0.000    2.000    0.000    6.000    2.333    3.333 
#    0.000    0.000    0.000    0.000    0.000    0.000 
#    0.000    0.000    0.000    0.000    0.000    0.000 
#
# Total GULP energy -268037.779676 kJ/mol
# GULP energy per Si atom -5584.120410 kJ/mol
# Density = 1.837173 g / cm^3
# Si number density = 18.413639 Si / 1000 Ang^3
#
#
#
# Elastic Constant Matrix: (Units=GPa)
#
#
# Indices 1 2 3 4 5 6 
#
# 1 61.2528 -1.6409 6.5730 0.0000 0.0000 0.0000
# 2 -1.6409 74.7143 0.4263 0.0000 0.0000 0.0000
# 3 6.5730 0.4263 25.0916 0.0000 0.0000 0.0000
# 4 0.0000 0.0000 0.0000 4.8822 0.0000 0.0000
# 5 0.0000 0.0000 0.0000 0.0000 6.4024 0.0000
# 6 0.0000 0.0000 0.0000 0.0000 0.0000 27.8696
#
#
#
# Elastic Compliance Matrix: (Units=1/GPa)
#
#
# Indices 1 2 3 4 5 6 
#
# 1 0.016810 0.000394 -0.004410 0.000000 0.000000 0.000000
# 2 0.000394 0.013395 -0.000331 0.000000 0.000000 0.000000
# 3 -0.004410 -0.000331 0.041015 0.000000 0.000000 0.000000
# 4 0.000000 0.000000 0.000000 0.204824 0.000000 0.000000
# 5 0.000000 0.000000 0.000000 0.000000 0.156191 0.000000
# 6 0.000000 0.000000 0.000000 0.000000 0.000000 0.035881
#
#
# Mechanical properties :
#
#
# Convention : Reuss Voigt Hill
#
# Bulk Modulus (GPa) = 15.99337 19.08618 17.53978
# Shear Modulus (GPa) = 10.04720 18.21088 14.12904
#
# Velocity S-wave (km/s) = 2.33843 3.14823 2.77305
# Velocity P-wave (km/s) = 3.99943 4.85828 4.44963
#
# Compressibility (1/GPa) = 0.06252590
#
# Stress axis : x y z
#
# Youngs Moduli (GPa) = 59.48981 74.65548 24.38142
#
# Poissons Ratio (x) = -0.02944 0.10753
# Poissons Ratio (y) = -0.02346 0.00807
# Poissons Ratio (z) = 0.26236 0.02470
#
# Static dielectric constant tensor:
#      x y z
#    x 1.623280 0.000000 0.000000 
#    y 0.000000 1.673040 0.000000 
#    z 0.000000 0.000000 1.583150 
# 
# From -- ./inp_files/18004.got.cif
#   From: 2010.05.17/outbox.cif.g08.bks.cpg/sg62_10_cif.got.tgz:18004.got - 2010.06.03 15:25:27.
