data_PCOD9465648
_publ_section_title
;
Structure prediction by ZEFSAII (Michael W. Deem and Ramdas Pophale) SiO2 
 PCOD9465648
Probable space group: P N M A
;
_chemical_formula_sum "Si O2"
_cell_formula_units_Z 64
_cell_length_a 18.287132
_cell_length_b 18.203873
_cell_length_c 9.119874
_cell_angle_alpha 90.000000
_cell_angle_beta 90.000000
_cell_angle_gamma 90.000000
_cell_volume 3035.975307
_symmetry_space_group_name_H-M "P N M A"
_symmetry_group_IT_number 62
_symmetry_cell_setting 'orthorhombic'
loop_
_space_group_symop_operation_xyz
x,y,z
1/2-x,-y,1/2+z
1/2+x,1/2-y,1/2-z
-x,1/2+y,-z
-x,-y,-z
1/2+x,y,1/2-z
1/2-x,1/2+y,1/2+z
x,1/2-y,z
loop_
_atom_site_type_symbol
_atom_site_label
_atom_site_fract_x
_atom_site_fract_y
_atom_site_fract_z
Si Si1 0.675833 0.832951 0.017866
Si Si2 0.658300 0.492263 0.588721
Si Si3 0.469610 0.082513 0.490711
Si Si4 0.664548 0.169628 0.599632
Si Si5 0.598747 0.061802 0.036346
Si Si6 0.960122 0.408574 0.664725
Si Si7 0.588541 0.167919 0.299784
Si Si8 0.725496 0.522629 0.867877
O O1 0.672038 0.750000 0.960038
O O2 0.693244 0.897305 0.903267
O O3 0.748171 0.835611 0.122631
O O4 0.600861 0.854662 0.097267
O O5 0.606118 0.562147 0.589424
O O6 0.630221 0.410566 0.634668
O O7 0.724384 0.507087 0.697721
O O8 0.693662 0.485253 0.430078
O O9 0.463510 0.106501 0.660442
O O10 0.520727 0.130972 0.387181
O O11 0.500000 0.000000 0.500000
O O12 0.638442 0.250000 0.657784
O O13 0.650373 0.173199 0.424885
O O14 0.613005 0.122238 0.159802
O O15 0.567752 0.991227 0.126340
O O16 0.536599 0.092587 0.924650
O O17 0.668361 0.033510 0.944564
O O18 0.567773 0.250000 0.255216
#
# Coordination Sequence:
#
# PCOD9465648 Si02
#       8
#     8   8   8   8   8   8   8   8
#     4   9  20  37  61  89 121 157 205 258 314 373
#     4  11  23  38  64  96 123 165 212 264 311 371
#     4  12  22  38  64  92 127 166 209 263 309 365
#     4   9  19  37  62  85 119 164 209 254 310 371
#     4  10  21  39  58  87 124 157 209 257 305 370
#     4  10  21  36  62  88 118 166 202 256 315 368
#     4  11  24  41  63  91 126 170 212 256 316 378
#     4  10  24  38  64  93 120 163 216 255 311 382
#
# _framework density 21.080539999999999
#
# number of rings (size 3 to 8) (size 9 to 14) (size 15 to 20)
#    0.000    1.750    2.500    0.750   12.250    1.000 
#    0.000    0.625    0.000    1.500    0.000    0.000 
#    0.000    0.000    0.000    0.000    0.000    0.000 
#
# Total GULP energy -356775.655728 kJ/mol
# GULP energy per Si atom -5574.619621 kJ/mol
# Density = 2.103256 g / cm^3
# Si number density = 21.080540 Si / 1000 Ang^3
#
#
#
# Elastic Constant Matrix: (Units=GPa)
#
#
# Indices 1 2 3 4 5 6 
#
# 1 76.7478 20.5446 -1.7535 0.0000 0.0000 0.0000
# 2 20.5446 96.8043 15.3656 0.0000 0.0000 0.0000
# 3 -1.7535 15.3656 43.0436 0.0000 0.0000 0.0000
# 4 0.0000 0.0000 0.0000 15.5920 0.0000 0.0000
# 5 0.0000 0.0000 0.0000 0.0000 33.3413 0.0000
# 6 0.0000 0.0000 0.0000 0.0000 0.0000 25.0162
#
#
#
# Elastic Compliance Matrix: (Units=1/GPa)
#
#
# Indices 1 2 3 4 5 6 
#
# 1 0.013934 -0.003230 0.001721 0.000000 0.000000 0.000000
# 2 -0.003230 0.011699 -0.004308 0.000000 0.000000 0.000000
# 3 0.001721 -0.004308 0.024840 0.000000 0.000000 0.000000
# 4 0.000000 0.000000 0.000000 0.064135 0.000000 0.000000
# 5 0.000000 0.000000 0.000000 0.000000 0.029993 0.000000
# 6 0.000000 0.000000 0.000000 0.000000 0.000000 0.039974
#
#
# Mechanical properties :
#
#
# Convention : Reuss Voigt Hill
#
# Bulk Modulus (GPa) = 25.74775 31.65657 28.70216
# Shear Modulus (GPa) = 23.90549 26.95251 25.42900
#
# Velocity S-wave (km/s) = 3.37116 3.57956 3.47692
# Velocity P-wave (km/s) = 5.23387 5.66868 5.45561
#
# Compressibility (1/GPa) = 0.03883834
#
# Stress axis : x y z
#
# Youngs Moduli (GPa) = 71.76836 85.47385 40.25727
#
# Poissons Ratio (x) = 0.27610 -0.06927
# Poissons Ratio (y) = 0.23183 0.17343
# Poissons Ratio (z) = -0.12350 0.36823
#
# Static dielectric constant tensor:
#      x y z
#    x 1.999320 0.000000 0.000000 
#    y 0.000000 1.786980 0.000000 
#    z 0.000000 0.000000 1.743930 
# 
# From -- ./inp_files/8895.got.cif
#   From: 2010.05.17/outbox.cif.g08.bks.cpg/sg62_5_cif.got.tgz:8895.got - 2010.06.03 15:25:27.
