data_PCOD9465547
_publ_section_title
;
Structure prediction by ZEFSAII (Michael W. Deem and Ramdas Pophale) SiO2 
 PCOD9465547
Probable space group: P N M A
;
_chemical_formula_sum "Si O2"
_cell_formula_units_Z 64
_cell_length_a 36.197570
_cell_length_b 18.300139
_cell_length_c 5.035986
_cell_angle_alpha 90.000000
_cell_angle_beta 90.000000
_cell_angle_gamma 90.000000
_cell_volume 3335.940679
_symmetry_space_group_name_H-M "P N M A"
_symmetry_group_IT_number 62
_symmetry_cell_setting 'orthorhombic'
loop_
_space_group_symop_operation_xyz
x,y,z
1/2-x,-y,1/2+z
1/2+x,1/2-y,1/2-z
-x,1/2+y,-z
-x,-y,-z
1/2+x,y,1/2-z
1/2-x,1/2+y,1/2+z
x,1/2-y,z
loop_
_atom_site_type_symbol
_atom_site_label
_atom_site_fract_x
_atom_site_fract_y
_atom_site_fract_z
Si Si1 0.392286 0.165811 0.825724
Si Si2 0.657802 0.666614 0.688737
Si Si3 0.459653 0.948939 0.277735
Si Si4 0.097602 0.333857 0.546636
Si Si5 0.771709 0.411530 0.935494
Si Si6 0.148089 0.166187 0.060873
Si Si7 0.774729 0.586787 0.929718
Si Si8 0.956527 0.450960 0.732669
O O1 0.401733 0.250000 0.900895
O O2 0.372755 0.167593 0.541180
O O3 0.427301 0.113674 0.796863
O O4 0.362381 0.138292 0.044926
O O5 0.669772 0.750000 0.746207
O O6 0.691906 0.624197 0.559058
O O7 0.435039 0.884317 0.157470
O O8 0.502315 0.925348 0.316202
O O9 0.445881 0.987452 0.548424
O O10 0.459423 0.011267 0.053236
O O11 0.085143 0.250000 0.495931
O O12 0.119189 0.361100 0.284637
O O13 0.127344 0.332808 0.781905
O O14 0.777266 0.498913 0.942322
O O15 0.756661 0.390699 0.644438
O O16 0.739033 0.392679 0.138408
O O17 0.157310 0.250000 0.137147
O O18 0.185358 0.120984 0.029224
#
# Coordination Sequence:
#
# PCOD9465547 Si02
#       8
#     8   8   8   8   8   8   8   8
#     4  10  21  37  56  81 112 144 182 226 272 326
#     4  10  21  36  55  80 108 140 181 225 269 324
#     4  10  21  37  57  83 113 145 185 229 273 327
#     4  10  21  37  56  81 112 144 182 226 272 326
#     4  10  21  36  53  76 106 139 178 224 273 327
#     4  10  21  36  55  80 108 140 181 225 269 324
#     4  10  21  36  53  76 106 139 178 224 273 327
#     4  10  21  37  57  83 113 145 185 229 273 327
#
# _framework density 19.184994
#
# number of rings (size 3 to 8) (size 9 to 14) (size 15 to 20)
#    0.000    2.000    0.000    3.000    0.000    4.500 
#    0.000    0.000    0.000    9.000    0.000    0.000 
#    0.000    0.000    0.000    0.000    0.000    0.000 
#
# Total GULP energy -357048.242294 kJ/mol
# GULP energy per Si atom -5578.878786 kJ/mol
# Density = 1.914133 g / cm^3
# Si number density = 19.184994 Si / 1000 Ang^3
#
#
#
# Elastic Constant Matrix: (Units=GPa)
#
#
# Indices 1 2 3 4 5 6 
#
# 1 66.9607 35.3143 -15.7706 0.0000 0.0000 0.0000
# 2 35.3143 31.4318 -9.0891 0.0000 0.0000 0.0000
# 3 -15.7706 -9.0891 70.5713 0.0000 0.0000 0.0000
# 4 0.0000 0.0000 0.0000 16.9546 0.0000 0.0000
# 5 0.0000 0.0000 0.0000 0.0000 27.3872 0.0000
# 6 0.0000 0.0000 0.0000 0.0000 0.0000 43.1624
#
#
#
# Elastic Compliance Matrix: (Units=1/GPa)
#
#
# Indices 1 2 3 4 5 6 
#
# 1 0.037272 -0.040994 0.003049 0.000000 0.000000 0.000000
# 2 -0.040994 0.078134 0.000902 0.000000 0.000000 0.000000
# 3 0.003049 0.000902 0.014968 0.000000 0.000000 0.000000
# 4 0.000000 0.000000 0.000000 0.058981 0.000000 0.000000
# 5 0.000000 0.000000 0.000000 0.000000 0.036513 0.000000
# 6 0.000000 0.000000 0.000000 0.000000 0.000000 0.023168
#
#
# Mechanical properties :
#
#
# Convention : Reuss Voigt Hill
#
# Bulk Modulus (GPa) = 17.76574 21.09699 19.43136
# Shear Modulus (GPa) = 14.62482 28.06812 21.34647
#
# Velocity S-wave (km/s) = 2.76398 3.82910 3.33928
# Velocity P-wave (km/s) = 4.41208 5.52900 5.00181
#
# Compressibility (1/GPa) = 0.05628813
#
# Stress axis : x y z
#
# Youngs Moduli (GPa) = 26.82963 12.79858 66.81049
#
# Poissons Ratio (x) = 0.52467 -0.20373
# Poissons Ratio (y) = 1.09986 -0.06027
# Poissons Ratio (z) = -0.08182 -0.01155
#
# Static dielectric constant tensor:
#      x y z
#    x 1.654860 0.000000 0.000000 
#    y 0.000000 1.674710 0.000000 
#    z 0.000000 0.000000 1.666630 
# 
# From -- ./inp_files/3705.got.cif
#   From: 2010.05.17/outbox.cif.g08.bks.cpg/sg62_2_cif.got.tgz:3705.got - 2010.06.03 15:25:27.
