data_PCOD9465491
_publ_section_title
;
Structure prediction by ZEFSAII (Michael W. Deem and Ramdas Pophale) SiO2 
 PCOD9465491
Probable space group: P N M A
;
_chemical_formula_sum "Si O2"
_cell_formula_units_Z 64
_cell_length_a 12.819831
_cell_length_b 9.520817
_cell_length_c 29.081633
_cell_angle_alpha 90.000000
_cell_angle_beta 90.000000
_cell_angle_gamma 90.000000
_cell_volume 3549.566420
_symmetry_space_group_name_H-M "P N M A"
_symmetry_group_IT_number 62
_symmetry_cell_setting 'orthorhombic'
loop_
_space_group_symop_operation_xyz
x,y,z
1/2-x,-y,1/2+z
1/2+x,1/2-y,1/2-z
-x,1/2+y,-z
-x,-y,-z
1/2+x,y,1/2-z
1/2-x,1/2+y,1/2+z
x,1/2-y,z
loop_
_atom_site_type_symbol
_atom_site_label
_atom_site_fract_x
_atom_site_fract_y
_atom_site_fract_z
Si Si1 0.772627 0.583423 0.125258
Si Si2 0.711565 0.414527 0.377909
Si Si3 0.471573 0.584496 0.247093
Si Si4 0.891974 0.085321 0.549423
Si Si5 0.284936 0.403658 0.226702
Si Si6 0.904282 0.417873 0.441255
Si Si7 0.988921 0.082459 0.853542
Si Si8 0.374810 0.908224 0.807352
O O1 0.764717 0.750000 0.137532
O O2 0.716404 0.564216 0.076122
O O3 0.703641 0.488755 0.159095
O O4 0.894731 0.546121 0.128546
O O5 0.690589 0.250000 0.387881
O O6 0.755175 0.423019 0.326016
O O7 0.804559 0.463127 0.411421
O O8 0.604432 0.501057 0.378365
O O9 0.481096 0.750000 0.240315
O O10 0.353974 0.530055 0.245267
O O11 0.512731 0.552160 0.298569
O O12 0.526359 0.501643 0.205595
O O13 0.919271 0.250000 0.553935
O O14 0.883389 0.053672 0.495271
O O15 0.987036 0.994771 0.570083
O O16 0.339144 0.250000 0.231783
O O17 0.184416 0.397424 0.258692
O O18 0.916678 0.250000 0.435067
O O19 0.975263 0.250000 0.858950
O O20 0.399226 0.750000 0.823450
#
# Coordination Sequence:
#
# PCOD9465491 Si02
#       8
#     8   8   8   8   8   8   8   8
#     4  10  21  38  56  80 111 144 186 227 272 324
#     4  10  21  37  56  79 110 144 182 225 271 325
#     4  11  22  35  52  74 106 146 184 225 269 318
#     4   9  19  37  61  84 109 141 175 220 276 329
#     4  10  21  35  51  75 106 143 181 222 269 317
#     4   9  19  37  60  85 111 139 174 222 276 327
#     4  10  21  36  54  76 108 147 185 225 267 318
#     4  11  22  35  53  77 108 144 184 225 268 320
#
# _framework density 18.030372
#
# number of rings (size 3 to 8) (size 9 to 14) (size 15 to 20)
#    0.000    2.000    2.500    0.750    1.750    3.000 
#    0.000    0.625    0.000    0.000    0.000    0.000 
#    0.000    0.000    0.000    0.000    0.000    0.000 
#
# Total GULP energy -356926.021303 kJ/mol
# GULP energy per Si atom -5576.969083 kJ/mol
# Density = 1.798933 g / cm^3
# Si number density = 18.030372 Si / 1000 Ang^3
#
#
#
# Elastic Constant Matrix: (Units=GPa)
#
#
# Indices 1 2 3 4 5 6 
#
# 1 50.6850 26.9842 9.8326 0.0000 0.0000 0.0000
# 2 26.9842 41.1657 16.9081 0.0000 0.0000 0.0000
# 3 9.8326 16.9081 41.3894 0.0000 0.0000 0.0000
# 4 0.0000 0.0000 0.0000 17.5806 0.0000 0.0000
# 5 0.0000 0.0000 0.0000 0.0000 29.1387 0.0000
# 6 0.0000 0.0000 0.0000 0.0000 0.0000 36.4286
#
#
#
# Elastic Compliance Matrix: (Units=1/GPa)
#
#
# Indices 1 2 3 4 5 6 
#
# 1 0.030348 -0.020346 0.001102 0.000000 0.000000 0.000000
# 2 -0.020346 0.042830 -0.012663 0.000000 0.000000 0.000000
# 3 0.001102 -0.012663 0.029072 0.000000 0.000000 0.000000
# 4 0.000000 0.000000 0.000000 0.056881 0.000000 0.000000
# 5 0.000000 0.000000 0.000000 0.000000 0.034319 0.000000
# 6 0.000000 0.000000 0.000000 0.000000 0.000000 0.027451
#
#
# Mechanical properties :
#
#
# Convention : Reuss Voigt Hill
#
# Bulk Modulus (GPa) = 26.01731 26.74333 26.38032
# Shear Modulus (GPa) = 16.80528 21.93059 19.36794
#
# Velocity S-wave (km/s) = 3.05627 3.49135 3.28103
# Velocity P-wave (km/s) = 5.18801 5.57829 5.38668
#
# Compressibility (1/GPa) = 0.03843594
#
# Stress axis : x y z
#
# Youngs Moduli (GPa) = 32.95141 23.34827 34.39733
#
# Poissons Ratio (x) = 0.47503 -0.03790
# Poissons Ratio (y) = 0.67041 0.43558
# Poissons Ratio (z) = -0.03631 0.29566
#
# Static dielectric constant tensor:
#      x y z
#    x 1.611470 0.000000 0.000000 
#    y 0.000000 1.634810 0.000000 
#    z 0.000000 0.000000 1.620110 
# 
# From -- ./inp_files/32533.got.cif
#   From: 2010.05.17/outbox.cif.g08.bks.cpg/sg62_17_cif.got.tgz:32533.got - 2010.06.03 15:25:27.
