data_PCOD9465187
_publ_section_title
;
Structure prediction by ZEFSAII (Michael W. Deem and Ramdas Pophale) SiO2 
 PCOD9465187
Probable space group: P N M A
;
_chemical_formula_sum "Si O2"
_cell_formula_units_Z 48
_cell_length_a 10.555227
_cell_length_b 8.579902
_cell_length_c 27.383496
_cell_angle_alpha 90.000000
_cell_angle_beta 90.000000
_cell_angle_gamma 90.000000
_cell_volume 2479.926434
_symmetry_space_group_name_H-M "P N M A"
_symmetry_group_IT_number 62
_symmetry_cell_setting 'orthorhombic'
loop_
_space_group_symop_operation_xyz
x,y,z
1/2-x,-y,1/2+z
1/2+x,1/2-y,1/2-z
-x,1/2+y,-z
-x,-y,-z
1/2+x,y,1/2-z
1/2-x,1/2+y,1/2+z
x,1/2-y,z
loop_
_atom_site_type_symbol
_atom_site_label
_atom_site_fract_x
_atom_site_fract_y
_atom_site_fract_z
Si Si1 0.128147 0.062503 0.975656
Si Si2 0.614115 0.561325 0.195633
Si Si3 0.124623 0.561365 0.190110
Si Si4 0.878148 0.935640 0.471537
Si Si5 0.134903 0.439554 0.862607
Si Si6 0.373863 0.434990 0.137629
O O1 0.126720 0.250000 0.976761
O O2 0.135813 0.011256 0.919017
O O3 0.250477 0.002452 0.004484
O O4 0.000000 0.000000 0.000000
O O5 0.604702 0.750000 0.192493
O O6 0.623640 0.520683 0.252680
O O7 0.739955 0.510847 0.166545
O O8 0.490759 0.489331 0.170925
O O9 0.134242 0.750000 0.186554
O O10 0.243915 0.488202 0.162969
O O11 0.993573 0.512031 0.164559
O O12 0.876537 0.750000 0.474808
O O13 0.884870 0.986415 0.415288
O O14 0.000000 0.000000 0.500000
O O15 0.135553 0.250000 0.862211
O O16 0.375625 0.250000 0.131679
#
# Coordination Sequence:
#
# PCOD9465187 Si02
#       6
#     8   8   8   8   8   8
#     4  11  22  38  60  88 123 163 206 251 303 363
#     4  10  20  38  64  90 118 157 204 251 300 357
#     4  10  20  38  64  91 119 157 204 249 297 356
#     4  12  25  43  65  90 121 159 207 260 313 371
#     4   9  19  35  58  87 116 149 194 247 297 350
#     4  12  25  40  60  90 126 163 203 248 305 369
#
# _framework density 19.355412000000001
#
# number of rings (size 3 to 8) (size 9 to 14) (size 15 to 20)
#    0.000    1.333    0.000    6.500    0.000    6.000 
#    0.000    2.500    0.000    0.000    0.000    0.000 
#    0.000    0.000    0.000    0.000    0.000    0.000 
#
# Total GULP energy -268537.820799 kJ/mol
# GULP energy per Si atom -5594.537933 kJ/mol
# Density = 1.931136 g / cm^3
# Si number density = 19.355412 Si / 1000 Ang^3
#
#
#
# Elastic Constant Matrix: (Units=GPa)
#
#
# Indices 1 2 3 4 5 6 
#
# 1 129.0682 34.8782 29.8184 0.0000 0.0000 0.0000
# 2 34.8782 72.9283 39.0148 0.0000 0.0000 0.0000
# 3 29.8184 39.0148 109.2135 0.0000 0.0000 0.0000
# 4 0.0000 0.0000 0.0000 26.0422 0.0000 0.0000
# 5 0.0000 0.0000 0.0000 0.0000 47.2578 0.0000
# 6 0.0000 0.0000 0.0000 0.0000 0.0000 26.6219
#
#
#
# Elastic Compliance Matrix: (Units=1/GPa)
#
#
# Indices 1 2 3 4 5 6 
#
# 1 0.009011 -0.003701 -0.001138 0.000000 0.000000 0.000000
# 2 -0.003701 0.018471 -0.005588 0.000000 0.000000 0.000000
# 3 -0.001138 -0.005588 0.011463 0.000000 0.000000 0.000000
# 4 0.000000 0.000000 0.000000 0.038399 0.000000 0.000000
# 5 0.000000 0.000000 0.000000 0.000000 0.021161 0.000000
# 6 0.000000 0.000000 0.000000 0.000000 0.000000 0.037563
#
#
# Mechanical properties :
#
#
# Convention : Reuss Voigt Hill
#
# Bulk Modulus (GPa) = 55.27413 57.62584 56.44998
# Shear Modulus (GPa) = 30.68363 33.81761 32.25062
#
# Velocity S-wave (km/s) = 3.98587 4.18448 4.08638
# Velocity P-wave (km/s) = 7.05708 7.29271 7.17586
#
# Compressibility (1/GPa) = 0.01809165
#
# Stress axis : x y z
#
# Youngs Moduli (GPa) = 110.97789 54.13752 87.23355
#
# Poissons Ratio (x) = 0.20034 0.09929
# Poissons Ratio (y) = 0.41067 0.48749
# Poissons Ratio (z) = 0.12632 0.30254
#
# Static dielectric constant tensor:
#      x y z
#    x 1.628190 0.000000 0.000000 
#    y 0.000000 1.653900 0.000000 
#    z 0.000000 0.000000 1.645030 
# 
# From -- ./inp_files/32027.got.cif
#   From: 2010.05.17/outbox.cif.g08.bks.cpg/sg62_17_cif.got.tgz:32027.got - 2010.06.03 15:25:27.
