data_PCOD9465998
_publ_section_title
;
Structure prediction by ZEFSAII (Michael W. Deem and Ramdas Pophale) SiO2 
 PCOD9465998
Probable space group: P N M A
;
_chemical_formula_sum "Si O2"
_cell_formula_units_Z 64
_cell_length_a 8.943678
_cell_length_b 29.720780
_cell_length_c 11.081936
_cell_angle_alpha 90.000000
_cell_angle_beta 90.000000
_cell_angle_gamma 90.000000
_cell_volume 2945.723610
_symmetry_space_group_name_H-M "P N M A"
_symmetry_group_IT_number 62
_symmetry_cell_setting 'orthorhombic'
loop_
_space_group_symop_operation_xyz
x,y,z
1/2-x,-y,1/2+z
1/2+x,1/2-y,1/2-z
-x,1/2+y,-z
-x,-y,-z
1/2+x,y,1/2-z
1/2-x,1/2+y,1/2+z
x,1/2-y,z
loop_
_atom_site_type_symbol
_atom_site_label
_atom_site_fract_x
_atom_site_fract_y
_atom_site_fract_z
Si Si1 0.496520 0.697031 0.202104
Si Si2 0.812573 0.035292 0.846135
Si Si3 0.555323 0.063122 0.011648
Si Si4 0.565881 0.068733 0.523601
Si Si5 0.802385 0.050139 0.315516
Si Si6 0.822537 0.390447 0.660456
Si Si7 0.200061 0.620155 0.890723
Si Si8 0.819245 0.302161 0.932603
O O1 0.529677 0.750000 0.173807
O O2 0.607268 0.658851 0.150155
O O3 0.536355 0.692308 0.344854
O O4 0.329203 0.687602 0.151164
O O5 0.808160 0.085550 0.790014
O O6 0.981811 0.032059 0.893718
O O7 0.755350 0.996353 0.755665
O O8 0.688828 0.034943 0.952547
O O9 0.464721 0.044313 0.125178
O O10 0.637568 0.107446 0.058952
O O11 0.436756 0.076698 0.910327
O O12 0.681815 0.053192 0.423009
O O13 0.659766 0.103455 0.603905
O O14 0.430354 0.092263 0.455460
O O15 0.799944 0.096696 0.241188
O O16 0.174366 0.669730 0.943660
O O17 0.806984 0.250000 0.962870
#
# Coordination Sequence:
#
# PCOD9465998 Si02
#       8
#     8   8   8   8   8   8   8   8
#     4  10  21  38  64  96 128 162 202 256 329 396
#     4  11  23  38  62  90 123 165 210 272 320 372
#     4  10  22  39  59  86 122 164 214 264 317 367
#     4  10  24  39  59  87 125 168 210 265 310 369
#     4  11  24  41  61  85 121 172 225 260 306 368
#     4  11  22  37  59  92 127 158 198 262 329 380
#     4  11  22  41  62  89 125 168 212 260 315 375
#     4  10  22  39  66  99 129 163 205 261 323 390
#
# _framework density 21.726410000000001
#
# number of rings (size 3 to 8) (size 9 to 14) (size 15 to 20)
#    0.000    1.500    1.250    3.750    3.500    8.000 
#    0.000    0.000    0.000    6.000    0.000    0.000 
#    0.000    0.000    0.000    0.000    0.000    0.000 
#
# Total GULP energy -356809.124179 kJ/mol
# GULP energy per Si atom -5575.142565 kJ/mol
# Density = 2.167696 g / cm^3
# Si number density = 21.726410 Si / 1000 Ang^3
#
#
#
# Elastic Constant Matrix: (Units=GPa)
#
#
# Indices 1 2 3 4 5 6 
#
# 1 118.5904 41.8482 43.3136 0.0000 0.0000 0.0000
# 2 41.8482 101.3044 35.4469 0.0000 0.0000 0.0000
# 3 43.3136 35.4469 68.8596 0.0000 0.0000 0.0000
# 4 0.0000 0.0000 0.0000 27.1032 0.0000 0.0000
# 5 0.0000 0.0000 0.0000 0.0000 -21.9154 0.0000
# 6 0.0000 0.0000 0.0000 0.0000 0.0000 27.6761
#
#
#
# Elastic Compliance Matrix: (Units=1/GPa)
#
#
# Indices 1 2 3 4 5 6 
#
# 1 0.011528 -0.002714 -0.005854 0.000000 0.000000 0.000000
# 2 -0.002714 0.012679 -0.004820 0.000000 0.000000 0.000000
# 3 -0.005854 -0.004820 0.020686 0.000000 0.000000 0.000000
# 4 0.000000 0.000000 0.000000 0.036896 0.000000 0.000000
# 5 0.000000 0.000000 0.000000 0.000000 -0.045630 0.000000
# 6 0.000000 0.000000 0.000000 0.000000 0.000000 0.036132
#
#
# Mechanical properties :
#
#
# Convention : Reuss Voigt Hill
#
# Bulk Modulus (GPa) = 55.19649 58.88577 57.04113
# Shear Modulus (GPa) = 47.57110 17.78250 32.67680
#
# Velocity S-wave (km/s) = 4.68434 2.86400 3.88237
# Velocity P-wave (km/s) = 7.39715 6.17242 6.81236
#
# Compressibility (1/GPa) = 0.01811709
#
# Stress axis : x y z
#
# Youngs Moduli (GPa) = 86.74317 78.87255 48.34219
#
# Poissons Ratio (x) = 0.21404 0.28302
# Poissons Ratio (y) = 0.23540 0.23299
# Poissons Ratio (z) = 0.50784 0.38014
#
# Static dielectric constant tensor:
#      x y z
#    x 1.796360 0.000000 0.000000 
#    y 0.000000 1.895490 0.000000 
#    z 0.000000 0.000000 1.896980 
# 
# From -- ./inp_files/11575.got.cif
#   From: 2010.05.17/outbox.cif.g08.bks.cpg/sg62_6_cif.got.tgz:11575.got - 2010.06.03 15:25:27.
