data_PCOD9465433
_publ_section_title
;
Structure prediction by ZEFSAII (Michael W. Deem and Ramdas Pophale) SiO2 
 PCOD9465433
Probable space group: P N M A
;
_chemical_formula_sum "Si O2"
_cell_formula_units_Z 32
_cell_length_a 8.738946
_cell_length_b 26.911658
_cell_length_c 5.448410
_cell_angle_alpha 90.000000
_cell_angle_beta 90.000000
_cell_angle_gamma 90.000000
_cell_volume 1281.354481
_symmetry_space_group_name_H-M "P N M A"
_symmetry_group_IT_number 62
_symmetry_cell_setting 'orthorhombic'
loop_
_space_group_symop_operation_xyz
x,y,z
1/2-x,-y,1/2+z
1/2+x,1/2-y,1/2-z
-x,1/2+y,-z
-x,-y,-z
1/2+x,y,1/2-z
1/2-x,1/2+y,1/2+z
x,1/2-y,z
loop_
_atom_site_type_symbol
_atom_site_label
_atom_site_fract_x
_atom_site_fract_y
_atom_site_fract_z
Si Si1 0.732227 0.469763 0.521634
Si Si2 0.395633 0.750000 0.282086
Si Si3 0.008700 0.596931 0.261120
Si Si4 0.251430 0.836463 0.037315
Si Si5 0.887677 0.750000 0.720265
O O1 0.742132 0.491148 0.246906
O O2 0.572777 0.443166 0.586561
O O3 0.864247 0.429104 0.570540
O O4 0.290198 0.798181 0.257015
O O5 0.481621 0.750000 0.533586
O O6 0.486531 0.750000 0.027832
O O7 0.091356 0.637763 0.089929
O O8 0.880507 0.621422 0.433766
O O9 0.287058 0.800137 0.809928
#
# Coordination Sequence:
#
# PCOD9465433 Si02
#       5
#     8   4   8   8   4
#     4  11  24  45  62  89 120 157 194 251 310 353
#     4   8  18  38  58  84 128 156 196 236 296 342
#     4  10  20  43  62  94 116 158 202 247 290 366
#     4   8  20  37  62  90 122 160 198 243 290 348
#     4   8  18  38  58  84 128 156 196 236 296 342
#
# _framework density 24.973572999999998
#
# number of rings (size 3 to 8) (size 9 to 14) (size 15 to 20)
#    1.500    1.000    0.000    1.500    0.000    4.000 
#   27.000    2.500    0.000    0.000    0.000    0.000 
#    0.000    0.000    0.000    0.000    0.000    0.000 
#
# Total GULP energy -178686.742636 kJ/mol
# GULP energy per Si atom -5583.960707 kJ/mol
# Density = 2.491673 g / cm^3
# Si number density = 24.973573 Si / 1000 Ang^3
#
#
#
# Elastic Constant Matrix: (Units=GPa)
#
#
# Indices 1 2 3 4 5 6 
#
# 1 73.5248 9.8600 -7.9118 0.0000 0.0000 0.0000
# 2 9.8600 86.6320 5.1529 0.0000 0.0000 0.0000
# 3 -7.9118 5.1529 140.7319 0.0000 0.0000 0.0000
# 4 0.0000 0.0000 0.0000 -15.2940 0.0000 0.0000
# 5 0.0000 0.0000 0.0000 0.0000 9.1363 0.0000
# 6 0.0000 0.0000 0.0000 0.0000 0.0000 45.0173
#
#
#
# Elastic Compliance Matrix: (Units=1/GPa)
#
#
# Indices 1 2 3 4 5 6 
#
# 1 0.013910 -0.001633 0.000842 0.000000 0.000000 0.000000
# 2 -0.001633 0.011760 -0.000522 0.000000 0.000000 0.000000
# 3 0.000842 -0.000522 0.007172 0.000000 0.000000 0.000000
# 4 0.000000 0.000000 0.000000 -0.065385 0.000000 0.000000
# 5 0.000000 0.000000 0.000000 0.000000 0.109454 0.000000
# 6 0.000000 0.000000 0.000000 0.000000 0.000000 0.022214
#
#
# Mechanical properties :
#
#
# Convention : Reuss Voigt Hill
#
# Bulk Modulus (GPa) = 33.09622 35.01010 34.05316
# Shear Modulus (GPa) = 44.71309 27.35775 36.03542
#
# Velocity S-wave (km/s) = 4.23592 3.31338 3.80273
# Velocity P-wave (km/s) = 6.09962 5.35605 5.73988
#
# Compressibility (1/GPa) = 0.03021494
#
# Stress axis : x y z
#
# Youngs Moduli (GPa) = 71.88826 85.03372 139.42786
#
# Poissons Ratio (x) = 0.13889 -0.11738
# Poissons Ratio (y) = 0.11741 0.07284
# Poissons Ratio (z) = -0.06052 0.04442
#
# Static dielectric constant tensor:
#      x y z
#    x 1.922370 0.000000 0.000000 
#    y 0.000000 2.006930 0.000000 
#    z 0.000000 0.000000 1.984480 
# 
# From -- ./inp_files/206.got.cif
#   From: 2010.05.17/outbox.cif.g08.bks.cpg/sg62_1_cif.got.tgz:206.got - 2010.06.03 15:25:27.
