data_PCOD9465464
_publ_section_title
;
Structure prediction by ZEFSAII (Michael W. Deem and Ramdas Pophale) SiO2 
 PCOD9465464
Probable space group: P N M A
;
_chemical_formula_sum "Si O2"
_cell_formula_units_Z 40
_cell_length_a 5.047355
_cell_length_b 22.397727
_cell_length_c 14.718662
_cell_angle_alpha 90.000000
_cell_angle_beta 90.000000
_cell_angle_gamma 90.000000
_cell_volume 1663.934132
_symmetry_space_group_name_H-M "P N M A"
_symmetry_group_IT_number 62
_symmetry_cell_setting 'orthorhombic'
loop_
_space_group_symop_operation_xyz
x,y,z
1/2-x,-y,1/2+z
1/2+x,1/2-y,1/2-z
-x,1/2+y,-z
-x,-y,-z
1/2+x,y,1/2-z
1/2-x,1/2+y,1/2+z
x,1/2-y,z
loop_
_atom_site_type_symbol
_atom_site_label
_atom_site_fract_x
_atom_site_fract_y
_atom_site_fract_z
Si Si1 0.790856 0.352500 0.189543
Si Si2 0.112228 0.938163 0.464252
Si Si3 0.136594 0.994068 0.801810
Si Si4 0.412056 0.135990 0.503430
Si Si5 0.386407 0.821389 0.303615
O O1 0.515103 0.337372 0.236958
O O2 0.796537 0.425023 0.174801
O O3 0.846121 0.328140 0.088670
O O4 0.258372 0.957913 0.372400
O O5 0.351201 0.910094 0.522583
O O6 0.862485 0.894172 0.464866
O O7 0.000000 0.000000 0.500000
O O8 0.325230 0.002411 0.713920
O O9 0.534851 0.166955 0.592421
O O10 0.108337 0.844581 0.265976
O O11 0.373257 0.750000 0.294608
#
# Coordination Sequence:
#
# PCOD9465464 Si02
#       5
#     8   8   8   8   8
#     4  10  21  36  55  79 114 157 202 236 283 352
#     4  12  24  36  53  84 125 158 205 255 305 350
#     4  10  21  34  50  71 108 159 201 238 287 347
#     4  12  24  38  64  87 119 165 207 255 313 378
#     4  10  23  45  70  96 126 158 203 268 335 388
#
# _framework density 24.039411999999999
#
# number of rings (size 3 to 8) (size 9 to 14) (size 15 to 20)
#    0.000    1.200    2.000    4.200    5.600    4.800 
#    0.000    0.000    0.000    1.200    0.000    0.000 
#    0.000    0.000    0.000    0.000    0.000    0.000 
#
# Total GULP energy -223736.655420 kJ/mol
# GULP energy per Si atom -5593.416386 kJ/mol
# Density = 2.398470 g / cm^3
# Si number density = 24.039412 Si / 1000 Ang^3
#
#
#
# Elastic Constant Matrix: (Units=GPa)
#
#
# Indices 1 2 3 4 5 6 
#
# 1 126.2551 6.3194 -2.2836 0.0000 0.0000 0.0000
# 2 6.3194 19.5935 10.0789 0.0000 0.0000 0.0000
# 3 -2.2836 10.0789 76.9144 0.0000 0.0000 0.0000
# 4 0.0000 0.0000 0.0000 7.5376 0.0000 0.0000
# 5 0.0000 0.0000 0.0000 0.0000 46.2750 0.0000
# 6 0.0000 0.0000 0.0000 0.0000 0.0000 10.5007
#
#
#
# Elastic Compliance Matrix: (Units=1/GPa)
#
#
# Indices 1 2 3 4 5 6 
#
# 1 0.008078 -0.002926 0.000623 0.000000 0.000000 0.000000
# 2 -0.002926 0.055786 -0.007397 0.000000 0.000000 0.000000
# 3 0.000623 -0.007397 0.013989 0.000000 0.000000 0.000000
# 4 0.000000 0.000000 0.000000 0.132669 0.000000 0.000000
# 5 0.000000 0.000000 0.000000 0.000000 0.021610 0.000000
# 6 0.000000 0.000000 0.000000 0.000000 0.000000 0.095231
#
#
# Mechanical properties :
#
#
# Convention : Reuss Voigt Hill
#
# Bulk Modulus (GPa) = 17.10752 27.88804 22.49778
# Shear Modulus (GPa) = 13.65194 26.77255 20.21225
#
# Velocity S-wave (km/s) = 2.38565 3.34083 2.90279
# Velocity P-wave (km/s) = 3.83671 5.14856 4.54026
#
# Compressibility (1/GPa) = 0.05845384
#
# Stress axis : x y z
#
# Youngs Moduli (GPa) = 123.78991 17.92560 71.48324
#
# Poissons Ratio (x) = 0.05245 -0.04455
# Poissons Ratio (y) = 0.36221 0.52877
# Poissons Ratio (z) = -0.07716 0.13260
#
# Static dielectric constant tensor:
#      x y z
#    x 1.876160 0.000000 0.000000 
#    y 0.000000 1.955190 0.000000 
#    z 0.000000 0.000000 1.976090 
# 
# From -- ./inp_files/16168.got.cif
#   From: 2010.05.17/outbox.cif.g08.bks.cpg/sg62_9_cif.got.tgz:16168.got - 2010.06.03 15:25:27.
