data_PCOD9465358
_publ_section_title
;
Structure prediction by ZEFSAII (Michael W. Deem and Ramdas Pophale) SiO2 
 PCOD9465358
Probable space group: P N M A
;
_chemical_formula_sum "Si O2"
_cell_formula_units_Z 56
_cell_length_a 16.375165
_cell_length_b 8.616635
_cell_length_c 20.277297
_cell_angle_alpha 90.000000
_cell_angle_beta 90.000000
_cell_angle_gamma 90.000000
_cell_volume 2861.102677
_symmetry_space_group_name_H-M "P N M A"
_symmetry_group_IT_number 62
_symmetry_cell_setting 'orthorhombic'
loop_
_space_group_symop_operation_xyz
x,y,z
1/2-x,-y,1/2+z
1/2+x,1/2-y,1/2-z
-x,1/2+y,-z
-x,-y,-z
1/2+x,y,1/2-z
1/2-x,1/2+y,1/2+z
x,1/2-y,z
loop_
_atom_site_type_symbol
_atom_site_label
_atom_site_fract_x
_atom_site_fract_y
_atom_site_fract_z
Si Si1 0.752860 0.429751 0.558488
Si Si2 0.773042 0.933608 0.700342
Si Si3 0.147894 0.576569 0.130098
Si Si4 0.589108 0.432717 0.493692
Si Si5 0.880305 0.567167 0.284702
Si Si6 0.193927 0.930376 0.591323
Si Si7 0.551644 0.435002 0.263982
O O1 0.777089 0.250000 0.568840
O O2 0.774246 0.526907 0.622666
O O3 0.654094 0.432072 0.552609
O O4 0.790595 0.473568 0.485885
O O5 0.764187 0.750000 0.709854
O O6 0.863391 0.979807 0.726914
O O7 0.696416 0.011031 0.739097
O O8 0.173106 0.750000 0.149396
O O9 0.127346 0.561194 0.054264
O O10 0.221534 0.454112 0.132300
O O11 0.067743 0.520305 0.167164
O O12 0.500000 0.500000 0.500000
O O13 0.588693 0.250000 0.470237
O O14 0.887338 0.750000 0.275953
O O15 0.865468 0.528049 0.362211
O O16 0.965805 0.487950 0.265165
O O17 0.171494 0.750000 0.592279
O O18 0.551212 0.250000 0.271176
#
# Coordination Sequence:
#
# PCOD9465358 Si02
#       7
#     8   8   8   8   8   8   8
#     4   9  21  39  61  86 120 161 205 257 312 370
#     4  11  24  42  66  93 127 166 207 259 317 378
#     4  11  21  35  58  86 118 158 201 250 304 365
#     4  10  21  36  54  81 119 161 203 251 306 371
#     4  12  25  40  65  95 126 163 210 263 315 376
#     4  10  20  40  64  89 122 163 206 250 308 370
#     4  11  24  42  63  89 124 165 210 257 313 376
#
# _framework density 19.572873999999999
#
# number of rings (size 3 to 8) (size 9 to 14) (size 15 to 20)
#    0.000    1.429    1.429    5.143    2.000    5.143 
#    0.000    0.714    0.000    0.000    0.000    0.000 
#    0.000    0.000    0.000    0.000    0.000    0.000 
#
# Total GULP energy -311755.240099 kJ/mol
# GULP energy per Si atom -5567.057859 kJ/mol
# Density = 1.952833 g / cm^3
# Si number density = 19.572874 Si / 1000 Ang^3
#
#
#
# Elastic Constant Matrix: (Units=GPa)
#
#
# Indices 1 2 3 4 5 6 
#
# 1 72.3545 23.5120 15.9161 0.0000 0.0000 0.0000
# 2 23.5120 87.6605 24.4312 0.0000 0.0000 0.0000
# 3 15.9161 24.4312 57.7984 0.0000 0.0000 0.0000
# 4 0.0000 0.0000 0.0000 33.8998 0.0000 0.0000
# 5 0.0000 0.0000 0.0000 0.0000 18.1619 0.0000
# 6 0.0000 0.0000 0.0000 0.0000 0.0000 22.9587
#
#
#
# Elastic Compliance Matrix: (Units=1/GPa)
#
#
# Indices 1 2 3 4 5 6 
#
# 1 0.015545 -0.003374 -0.002855 0.000000 0.000000 0.000000
# 2 -0.003374 0.013663 -0.004846 0.000000 0.000000 0.000000
# 3 -0.002855 -0.004846 0.020136 0.000000 0.000000 0.000000
# 4 0.000000 0.000000 0.000000 0.029499 0.000000 0.000000
# 5 0.000000 0.000000 0.000000 0.000000 0.055060 0.000000
# 6 0.000000 0.000000 0.000000 0.000000 0.000000 0.043556
#
#
# Mechanical properties :
#
#
# Convention : Reuss Voigt Hill
#
# Bulk Modulus (GPa) = 36.77158 38.39245 37.58201
# Shear Modulus (GPa) = 23.96075 25.26768 24.61421
#
# Velocity S-wave (km/s) = 3.50263 3.59688 3.55007
# Velocity P-wave (km/s) = 5.93175 6.07518 6.00389
#
# Compressibility (1/GPa) = 0.02719492
#
# Stress axis : x y z
#
# Youngs Moduli (GPa) = 64.32878 73.18890 49.66194
#
# Poissons Ratio (x) = 0.24693 0.14176
# Poissons Ratio (y) = 0.21704 0.24068
# Poissons Ratio (z) = 0.18363 0.35470
#
# Static dielectric constant tensor:
#      x y z
#    x 1.761190 0.000000 0.000000 
#    y 0.000000 1.694860 0.000000 
#    z 0.000000 0.000000 1.782920 
# 
# From -- ./inp_files/27126.got.cif
#   From: 2010.05.17/outbox.cif.g08.bks.cpg/sg62_14_cif.got.tgz:27126.got - 2010.06.03 15:25:27.
