data_PCOD9465389
_publ_section_title
;
Structure prediction by ZEFSAII (Michael W. Deem and Ramdas Pophale) SiO2 
 PCOD9465389
Probable space group: P N M A
;
_chemical_formula_sum "Si O2"
_cell_formula_units_Z 48
_cell_length_a 20.045386
_cell_length_b 15.152812
_cell_length_c 7.233090
_cell_angle_alpha 90.000000
_cell_angle_beta 90.000000
_cell_angle_gamma 90.000000
_cell_volume 2197.007440
_symmetry_space_group_name_H-M "P N M A"
_symmetry_group_IT_number 62
_symmetry_cell_setting 'orthorhombic'
loop_
_space_group_symop_operation_xyz
x,y,z
1/2-x,-y,1/2+z
1/2+x,1/2-y,1/2-z
-x,1/2+y,-z
-x,-y,-z
1/2+x,y,1/2-z
1/2-x,1/2+y,1/2+z
x,1/2-y,z
loop_
_atom_site_type_symbol
_atom_site_label
_atom_site_fract_x
_atom_site_fract_y
_atom_site_fract_z
Si Si1 0.188131 0.565642 0.528216
Si Si2 0.669413 0.061529 0.297652
Si Si3 0.910498 0.750000 0.139254
Si Si4 0.529065 0.434983 0.250380
Si Si5 0.183971 0.250000 0.230316
Si Si6 0.084077 0.063147 0.671177
Si Si7 0.658827 0.750000 0.832166
Si Si8 0.528734 0.750000 0.624607
O O1 0.180996 0.522996 0.328349
O O2 0.266497 0.571765 0.573445
O O3 0.149790 0.498571 0.665723
O O4 0.152414 0.659975 0.551494
O O5 0.595172 0.054195 0.375954
O O6 0.667254 0.154953 0.185324
O O7 0.901799 0.660559 0.254853
O O8 0.858304 0.750000 0.964422
O O9 0.987458 0.750000 0.066289
O O10 0.475768 0.512025 0.274777
O O11 0.496978 0.339710 0.281031
O O12 0.556704 0.437324 0.040420
O O13 0.263766 0.250000 0.222984
O O14 0.608094 0.750000 0.659578
#
# Coordination Sequence:
#
# PCOD9465389 Si02
#       8
#     8   8   4   8   4   8   4   4
#     4  10  22  39  67  89 126 165 211 261 315 390
#     4  10  21  40  63  94 120 173 208 256 321 373
#     4  12  25  40  64 101 124 164 221 271 302 380
#     4  10  20  41  63  88 126 170 202 254 329 387
#     4  10  22  42  61  84 137 167 203 267 321 367
#     4  10  23  40  62  95 123 163 212 263 314 384
#     4  10  22  41  58  91 124 168 205 255 333 367
#     4  12  21  39  63  86 125 171 205 259 318 378
#
# _framework density 21.847899000000002
#
# number of rings (size 3 to 8) (size 9 to 14) (size 15 to 20)
#    0.000    1.667    3.333    0.500    4.667    2.667 
#    6.000    0.833    0.000    0.000    0.000    0.000 
#    0.000    0.000    0.000    0.000    0.000    0.000 
#
# Total GULP energy -267774.685311 kJ/mol
# GULP energy per Si atom -5578.639277 kJ/mol
# Density = 2.179817 g / cm^3
# Si number density = 21.847899 Si / 1000 Ang^3
#
#
#
# Elastic Constant Matrix: (Units=GPa)
#
#
# Indices 1 2 3 4 5 6 
#
# 1 138.7648 47.3447 29.5470 0.0000 0.0000 0.0000
# 2 47.3447 166.0991 30.2521 0.0000 0.0000 0.0000
# 3 29.5470 30.2521 39.9238 0.0000 0.0000 0.0000
# 4 0.0000 0.0000 0.0000 27.0421 0.0000 0.0000
# 5 0.0000 0.0000 0.0000 0.0000 23.3292 0.0000
# 6 0.0000 0.0000 0.0000 0.0000 0.0000 32.9849
#
#
#
# Elastic Compliance Matrix: (Units=1/GPa)
#
#
# Indices 1 2 3 4 5 6 
#
# 1 0.008885 -0.001549 -0.005402 0.000000 0.000000 0.000000
# 2 -0.001549 0.007254 -0.004351 0.000000 0.000000 0.000000
# 3 -0.005402 -0.004351 0.032343 0.000000 0.000000 0.000000
# 4 0.000000 0.000000 0.000000 0.036979 0.000000 0.000000
# 5 0.000000 0.000000 0.000000 0.000000 0.042865 0.000000
# 6 0.000000 0.000000 0.000000 0.000000 0.000000 0.030317
#
#
# Mechanical properties :
#
#
# Convention : Reuss Voigt Hill
#
# Bulk Modulus (GPa) = 38.64185 62.11945 50.38065
# Shear Modulus (GPa) = 26.33343 32.51417 29.42380
#
# Velocity S-wave (km/s) = 3.47552 3.86191 3.67380
# Velocity P-wave (km/s) = 5.81643 6.95559 6.41136
#
# Compressibility (1/GPa) = 0.02587868
#
# Stress axis : x y z
#
# Youngs Moduli (GPa) = 112.54773 137.84810 30.91894
#
# Poissons Ratio (x) = 0.21348 0.16703
# Poissons Ratio (y) = 0.17430 0.13452
# Poissons Ratio (z) = 0.60801 0.59975
#
# Static dielectric constant tensor:
#      x y z
#    x 1.825010 0.000000 0.000000 
#    y 0.000000 1.801080 0.000000 
#    z 0.000000 0.000000 1.844110 
# 
# From -- ./inp_files/9377.got.cif
#   From: 2010.05.17/outbox.cif.g08.bks.cpg/sg62_5_cif.got.tgz:9377.got - 2010.06.03 15:25:27.
