data_PCOD9465253
_publ_section_title
;
Structure prediction by ZEFSAII (Michael W. Deem and Ramdas Pophale) SiO2 
 PCOD9465253
Probable space group: P N M A
;
_chemical_formula_sum "Si O2"
_cell_formula_units_Z 64
_cell_length_a 22.972142
_cell_length_b 8.812379
_cell_length_c 15.196325
_cell_angle_alpha 90.000000
_cell_angle_beta 90.000000
_cell_angle_gamma 90.000000
_cell_volume 3076.332206
_symmetry_space_group_name_H-M "P N M A"
_symmetry_group_IT_number 62
_symmetry_cell_setting 'orthorhombic'
loop_
_space_group_symop_operation_xyz
x,y,z
1/2-x,-y,1/2+z
1/2+x,1/2-y,1/2-z
-x,1/2+y,-z
-x,-y,-z
1/2+x,y,1/2-z
1/2-x,1/2+y,1/2+z
x,1/2-y,z
loop_
_atom_site_type_symbol
_atom_site_label
_atom_site_fract_x
_atom_site_fract_y
_atom_site_fract_z
Si Si1 0.006691 0.432915 0.684734
Si Si2 0.035063 0.572001 0.128896
Si Si3 0.792582 0.069453 0.063415
Si Si4 0.307056 0.934603 0.802743
Si Si5 0.369171 0.567543 0.125077
Si Si6 0.590172 0.075024 0.534239
Si Si7 0.756074 0.568311 0.876649
Si Si8 0.088086 0.067839 0.427229
O O1 0.005710 0.250000 0.685057
O O2 0.074504 0.476812 0.682389
O O3 0.973301 0.486415 0.772275
O O4 0.972279 0.492213 0.600262
O O5 0.051560 0.750000 0.129796
O O6 0.970641 0.562334 0.085774
O O7 0.077690 0.482194 0.064681
O O8 0.788248 0.250000 0.057619
O O9 0.748870 0.017837 0.139801
O O10 0.858744 0.020158 0.078055
O O11 0.773002 0.000976 0.970177
O O12 0.308195 0.750000 0.802449
O O13 0.298323 0.984057 0.702488
O O14 0.364020 0.984119 0.855586
O O15 0.360514 0.750000 0.131964
O O16 0.309456 0.483868 0.146121
O O17 0.387670 0.533732 0.024092
O O18 0.607919 0.250000 0.532699
O O19 0.758336 0.750000 0.882024
O O20 0.081803 0.250000 0.422362
#
# Coordination Sequence:
#
# PCOD9465253 Si02
#       8
#     8   8   8   8   8   8   8   8
#     4  10  22  37  58  88 116 146 194 246 290 342
#     4   9  20  39  57  82 119 155 191 238 292 345
#     4  11  22  41  64  87 119 159 195 236 299 359
#     4   9  21  40  60  85 120 156 191 237 293 354
#     4  10  21  40  62  83 116 156 190 236 297 351
#     4  10  21  37  59  86 117 152 195 241 285 340
#     4  11  23  39  61  91 121 151 198 248 288 345
#     4  10  20  39  61  82 113 154 193 232 291 355
#
# _framework density 20.803996000000001
#
# number of rings (size 3 to 8) (size 9 to 14) (size 15 to 20)
#    0.000    2.000    1.250    1.500    3.500    2.000 
#    0.000    2.500    0.000    0.000    0.000    0.000 
#    0.000    0.000    0.000    0.000    0.000    0.000 
#
# Total GULP energy -357647.568640 kJ/mol
# GULP energy per Si atom -5588.243260 kJ/mol
# Density = 2.075665 g / cm^3
# Si number density = 20.803996 Si / 1000 Ang^3
#
#
#
# Elastic Constant Matrix: (Units=GPa)
#
#
# Indices 1 2 3 4 5 6 
#
# 1 34.2937 2.7386 -16.3728 0.0000 0.0000 0.0000
# 2 2.7386 23.3429 8.5118 0.0000 0.0000 0.0000
# 3 -16.3728 8.5118 64.7909 0.0000 0.0000 0.0000
# 4 0.0000 0.0000 0.0000 2.7922 0.0000 0.0000
# 5 0.0000 0.0000 0.0000 0.0000 3.9226 0.0000
# 6 0.0000 0.0000 0.0000 0.0000 0.0000 31.4011
#
#
#
# Elastic Compliance Matrix: (Units=1/GPa)
#
#
# Indices 1 2 3 4 5 6 
#
# 1 0.034387 -0.007565 0.009684 0.000000 0.000000 0.000000
# 2 -0.007565 0.046660 -0.008042 0.000000 0.000000 0.000000
# 3 0.009684 -0.008042 0.018938 0.000000 0.000000 0.000000
# 4 0.000000 0.000000 0.000000 0.358144 0.000000 0.000000
# 5 0.000000 0.000000 0.000000 0.000000 0.254933 0.000000
# 6 0.000000 0.000000 0.000000 0.000000 0.000000 0.031846
#
#
# Mechanical properties :
#
#
# Convention : Reuss Voigt Hill
#
# Bulk Modulus (GPa) = 11.34589 12.46476 11.90533
# Shear Modulus (GPa) = 6.36024 16.12649 11.24337
#
# Velocity S-wave (km/s) = 1.75039 2.78720 2.32726
# Velocity P-wave (km/s) = 3.09042 4.04506 3.59953
#
# Compressibility (1/GPa) = 0.08813764
#
# Stress axis : x y z
#
# Youngs Moduli (GPa) = 29.08055 21.43183 52.80447
#
# Poissons Ratio (x) = 0.16214 -0.51134
# Poissons Ratio (y) = 0.22001 0.42463
# Poissons Ratio (z) = -0.28160 0.17235
#
# Static dielectric constant tensor:
#      x y z
#    x 1.746150 0.000000 0.000000 
#    y 0.000000 1.696810 0.000000 
#    z 0.000000 0.000000 1.755070 
# 
# From -- ./inp_files/20839.got.cif
#   From: 2010.05.17/outbox.cif.g08.bks.cpg/sg62_11_cif.got.tgz:20839.got - 2010.06.03 15:25:27.
