data_PCOD9465622
_publ_section_title
;
Structure prediction by ZEFSAII (Michael W. Deem and Ramdas Pophale) SiO2 
 PCOD9465622
Probable space group: P N M A
;
_chemical_formula_sum "Si O2"
_cell_formula_units_Z 32
_cell_length_a 4.981824
_cell_length_b 16.897564
_cell_length_c 19.243357
_cell_angle_alpha 90.000000
_cell_angle_beta 90.000000
_cell_angle_gamma 90.000000
_cell_volume 1619.919068
_symmetry_space_group_name_H-M "P N M A"
_symmetry_group_IT_number 62
_symmetry_cell_setting 'orthorhombic'
loop_
_space_group_symop_operation_xyz
x,y,z
1/2-x,-y,1/2+z
1/2+x,1/2-y,1/2-z
-x,1/2+y,-z
-x,-y,-z
1/2+x,y,1/2-z
1/2-x,1/2+y,1/2+z
x,1/2-y,z
loop_
_atom_site_type_symbol
_atom_site_label
_atom_site_fract_x
_atom_site_fract_y
_atom_site_fract_z
Si Si1 0.488634 0.250000 0.534907
Si Si2 0.283861 0.595798 0.539022
Si Si3 0.716105 0.473850 0.089741
Si Si4 0.947683 0.916986 0.294473
Si Si5 0.481403 0.250000 0.869864
O O1 0.578618 0.173525 0.491472
O O2 0.678267 0.250000 0.602761
O O3 0.185797 0.250000 0.564143
O O4 0.485713 0.560120 0.596550
O O5 0.250782 0.535283 0.474290
O O6 0.984562 0.597445 0.568930
O O7 0.569656 0.521940 0.150139
O O8 0.139330 0.926210 0.227383
O O9 0.974397 0.829136 0.325937
#
# Coordination Sequence:
#
# PCOD9465622 Si02
#       5
#     4   8   8   8   4
#     4  12  22  37  60  88 118 157 182 239 305 356
#     4  10  21  36  59  84 114 147 191 244 302 340
#     4  10  21  37  57  84 112 151 196 245 282 341
#     4  12  24  39  57  82 119 165 199 230 275 341
#     4  12  24  37  54  86 124 159 198 223 269 362
#
# _framework density 19.754073000000002
#
# number of rings (size 3 to 8) (size 9 to 14) (size 15 to 20)
#    0.000    1.000    2.500    5.250    7.000    0.000 
#    0.000    0.000    0.000    0.000    0.000   17.500 
#    0.000    0.000    0.000    0.000    0.000    0.000 
#
# Total GULP energy -178642.264003 kJ/mol
# GULP energy per Si atom -5582.570750 kJ/mol
# Density = 1.970911 g / cm^3
# Si number density = 19.754073 Si / 1000 Ang^3
#
#
#
# Elastic Constant Matrix: (Units=GPa)
#
#
# Indices 1 2 3 4 5 6 
#
# 1 85.0841 27.5239 8.6736 0.0000 0.0000 0.0000
# 2 27.5239 44.3157 21.7955 0.0000 0.0000 0.0000
# 3 8.6736 21.7955 39.9577 0.0000 0.0000 0.0000
# 4 0.0000 0.0000 0.0000 95.9051 0.0000 0.0000
# 5 0.0000 0.0000 0.0000 0.0000 38.4970 0.0000
# 6 0.0000 0.0000 0.0000 0.0000 0.0000 22.2022
#
#
#
# Elastic Compliance Matrix: (Units=1/GPa)
#
#
# Indices 1 2 3 4 5 6 
#
# 1 0.014885 -0.010463 0.002476 0.000000 0.000000 0.000000
# 2 -0.010463 0.038193 -0.018562 0.000000 0.000000 0.000000
# 3 0.002476 -0.018562 0.034614 0.000000 0.000000 0.000000
# 4 0.000000 0.000000 0.000000 0.010427 0.000000 0.000000
# 5 0.000000 0.000000 0.000000 0.000000 0.025976 0.000000
# 6 0.000000 0.000000 0.000000 0.000000 0.000000 0.045041
#
#
# Mechanical properties :
#
#
# Convention : Reuss Voigt Hill
#
# Bulk Modulus (GPa) = 28.90608 31.70483 30.30546
# Shear Modulus (GPa) = 21.38910 38.74514 30.06712
#
# Velocity S-wave (km/s) = 3.29412 4.43355 3.90561
# Velocity P-wave (km/s) = 5.39750 6.50331 5.97604
#
# Compressibility (1/GPa) = 0.03459479
#
# Stress axis : x y z
#
# Youngs Moduli (GPa) = 67.18039 26.18302 28.89028
#
# Poissons Ratio (x) = 0.27395 -0.07153
# Poissons Ratio (y) = 0.70289 0.53625
# Poissons Ratio (z) = -0.16634 0.48600
#
# Static dielectric constant tensor:
#      x y z
#    x 1.688390 0.000000 0.000000 
#    y 0.000000 1.701390 0.000000 
#    z 0.000000 0.000000 1.705580 
# 
# From -- ./inp_files/16088.got.cif
#   From: 2010.05.17/outbox.cif.g08.bks.cpg/sg62_9_cif.got.tgz:16088.got - 2010.06.03 15:25:27.
