data_PCOD9465224
_publ_section_title
;
Structure prediction by ZEFSAII (Michael W. Deem and Ramdas Pophale) SiO2 
 PCOD9465224
Probable space group: P N M A
;
_chemical_formula_sum "Si O2"
_cell_formula_units_Z 64
_cell_length_a 8.319243
_cell_length_b 20.241068
_cell_length_c 18.495860
_cell_angle_alpha 90.000000
_cell_angle_beta 90.000000
_cell_angle_gamma 90.000000
_cell_volume 3114.524584
_symmetry_space_group_name_H-M "P N M A"
_symmetry_group_IT_number 62
_symmetry_cell_setting 'orthorhombic'
loop_
_space_group_symop_operation_xyz
x,y,z
1/2-x,-y,1/2+z
1/2+x,1/2-y,1/2-z
-x,1/2+y,-z
-x,-y,-z
1/2+x,y,1/2-z
1/2-x,1/2+y,1/2+z
x,1/2-y,z
loop_
_atom_site_type_symbol
_atom_site_label
_atom_site_fract_x
_atom_site_fract_y
_atom_site_fract_z
Si Si1 0.399510 0.172398 0.802081
Si Si2 0.795129 0.947192 0.154770
Si Si3 0.247234 0.525190 0.699350
Si Si4 0.694609 0.173425 0.139419
Si Si5 0.635008 0.460451 0.049802
Si Si6 0.632987 0.555699 0.427602
Si Si7 0.735323 0.673326 0.350617
Si Si8 0.478130 0.376932 0.262024
O O1 0.361706 0.250000 0.809882
O O2 0.274675 0.126444 0.843224
O O3 0.378149 0.155731 0.717414
O O4 0.580899 0.160877 0.827273
O O5 0.957244 0.949789 0.107775
O O6 0.802447 0.975825 0.236080
O O7 0.661252 0.993945 0.119105
O O8 0.253592 0.485414 0.626377
O O9 0.134088 0.588079 0.702964
O O10 0.417318 0.561532 0.709691
O O11 0.695584 0.250000 0.112929
O O12 0.631961 0.115795 0.082785
O O13 0.869884 0.152128 0.172819
O O14 0.587060 0.170435 0.213136
O O15 0.500000 0.500000 0.000000
O O16 0.804792 0.463843 0.005863
O O17 0.684802 0.631270 0.418383
O O18 0.718496 0.750000 0.364494
#
# Coordination Sequence:
#
# PCOD9465224 Si02
#       8
#     8   8   8   8   8   8   8   8
#     4  10  21  36  57  87 125 163 214 275 323 377
#     4  12  23  40  63  91 129 170 225 280 322 395
#     4  11  20  36  62  97 127 167 220 270 327 389
#     4  11  23  43  69 101 133 170 221 281 342 406
#     4  12  26  44  64  94 138 180 218 269 338 413
#     4  12  24  36  63  91 127 174 216 270 332 395
#     4  10  21  35  54  85 121 164 214 263 322 380
#     4  10  20  38  66  95 131 160 214 280 336 387
#
# _framework density 20.548883
#
# number of rings (size 3 to 8) (size 9 to 14) (size 15 to 20)
#    0.000    1.000    5.000    3.000    1.750    2.000 
#    0.000    0.625    0.000    0.000    0.000    0.000 
#    0.000    0.000    0.000    0.000    0.000    0.000 
#
# Total GULP energy -356562.311181 kJ/mol
# GULP energy per Si atom -5571.286112 kJ/mol
# Density = 2.050211 g / cm^3
# Si number density = 20.548883 Si / 1000 Ang^3
#
#
#
# Elastic Constant Matrix: (Units=GPa)
#
#
# Indices 1 2 3 4 5 6 
#
# 1 50.7181 41.6996 9.9294 0.0000 0.0000 0.0000
# 2 41.6996 105.7732 36.7709 0.0000 0.0000 0.0000
# 3 9.9294 36.7709 66.7636 0.0000 0.0000 0.0000
# 4 0.0000 0.0000 0.0000 29.1372 0.0000 0.0000
# 5 0.0000 0.0000 0.0000 0.0000 24.3756 0.0000
# 6 0.0000 0.0000 0.0000 0.0000 0.0000 22.1515
#
#
#
# Elastic Compliance Matrix: (Units=1/GPa)
#
#
# Indices 1 2 3 4 5 6 
#
# 1 0.029505 -0.012500 0.002496 0.000000 0.000000 0.000000
# 2 -0.012500 0.016989 -0.007498 0.000000 0.000000 0.000000
# 3 0.002496 -0.007498 0.018736 0.000000 0.000000 0.000000
# 4 0.000000 0.000000 0.000000 0.034320 0.000000 0.000000
# 5 0.000000 0.000000 0.000000 0.000000 0.041025 0.000000
# 6 0.000000 0.000000 0.000000 0.000000 0.000000 0.045144
#
#
# Mechanical properties :
#
#
# Convention : Reuss Voigt Hill
#
# Bulk Modulus (GPa) = 33.08210 44.45053 38.76632
# Shear Modulus (GPa) = 21.66402 24.12318 22.89360
#
# Velocity S-wave (km/s) = 3.25047 3.43000 3.34144
# Velocity P-wave (km/s) = 5.49742 6.11270 5.81320
#
# Compressibility (1/GPa) = 0.03022783
#
# Stress axis : x y z
#
# Youngs Moduli (GPa) = 33.89221 58.86315 53.37209
#
# Poissons Ratio (x) = 0.73578 -0.13323
# Poissons Ratio (y) = 0.42365 0.40016
# Poissons Ratio (z) = -0.08460 0.44133
#
# Static dielectric constant tensor:
#      x y z
#    x 1.823580 0.000000 0.000000 
#    y 0.000000 1.758510 0.000000 
#    z 0.000000 0.000000 1.730420 
# 
# From -- ./inp_files/22576.got.cif
#   From: 2010.05.17/outbox.cif.g08.bks.cpg/sg62_12_cif.got.tgz:22576.got - 2010.06.03 15:25:27.
