data_PCOD9465234
_publ_section_title
;
Structure prediction by ZEFSAII (Michael W. Deem and Ramdas Pophale) SiO2 
 PCOD9465234
Probable space group: P N M A
;
_chemical_formula_sum "Si O2"
_cell_formula_units_Z 44
_cell_length_a 8.809619
_cell_length_b 27.390703
_cell_length_c 9.492024
_cell_angle_alpha 90.000000
_cell_angle_beta 90.000000
_cell_angle_gamma 90.000000
_cell_volume 2290.441125
_symmetry_space_group_name_H-M "P N M A"
_symmetry_group_IT_number 62
_symmetry_cell_setting 'orthorhombic'
loop_
_space_group_symop_operation_xyz
x,y,z
1/2-x,-y,1/2+z
1/2+x,1/2-y,1/2-z
-x,1/2+y,-z
-x,-y,-z
1/2+x,y,1/2-z
1/2-x,1/2+y,1/2+z
x,1/2-y,z
loop_
_atom_site_type_symbol
_atom_site_label
_atom_site_fract_x
_atom_site_fract_y
_atom_site_fract_z
Si Si1 0.896837 0.895908 0.931125
Si Si2 0.563193 0.083246 0.871429
Si Si3 0.247730 0.469693 0.864210
Si Si4 0.063789 0.174107 0.824948
Si Si5 0.701316 0.750000 0.318408
Si Si6 0.257023 0.086526 0.360775
O O1 0.800674 0.894436 0.789040
O O2 0.074759 0.895603 0.896149
O O3 0.856023 0.945713 0.014485
O O4 0.863916 0.851811 0.038432
O O5 0.687530 0.053079 0.782012
O O6 0.417635 0.049075 0.892595
O O7 0.516396 0.129455 0.776985
O O8 0.638607 0.099891 0.016560
O O9 0.239936 0.527580 0.857572
O O10 0.181895 0.207688 0.742143
O O11 0.921007 0.207189 0.863956
#
# Coordination Sequence:
#
# PCOD9465234 Si02
#       6
#     8   8   8   8   4   8
#     4  11  23  37  56  85 125 157 205 248 296 351
#     4  11  21  36  59  84 120 154 204 249 295 347
#     4  11  21  36  55  85 120 167 214 247 274 339
#     4  10  21  39  62  91 108 143 189 255 303 357
#     4  10  20  38  68  84 106 134 190 238 302 368
#     4  12  22  36  56  84 124 172 198 239 294 352
#
# _framework density 19.210273999999998
#
# number of rings (size 3 to 8) (size 9 to 14) (size 15 to 20)
#    0.000    1.091    0.000    9.818    0.000    0.000 
#    0.000    0.000    0.000   19.636    0.000    0.000 
#    0.000    0.000    0.000    0.000    0.000    0.000 
#
# Total GULP energy -244988.406752 kJ/mol
# GULP energy per Si atom -5567.918335 kJ/mol
# Density = 1.916655 g / cm^3
# Si number density = 19.210274 Si / 1000 Ang^3
#
#
#
# Elastic Constant Matrix: (Units=GPa)
#
#
# Indices 1 2 3 4 5 6 
#
# 1 62.8960 -4.8340 -6.6204 0.0000 0.0000 0.0000
# 2 -4.8340 59.9492 -2.0111 0.0000 0.0000 0.0000
# 3 -6.6204 -2.0111 50.5957 0.0000 0.0000 0.0000
# 4 0.0000 0.0000 0.0000 -5.4814 0.0000 0.0000
# 5 0.0000 0.0000 0.0000 0.0000 26.4503 0.0000
# 6 0.0000 0.0000 0.0000 0.0000 0.0000 23.7555
#
#
#
# Elastic Compliance Matrix: (Units=1/GPa)
#
#
# Indices 1 2 3 4 5 6 
#
# 1 0.016235 0.001382 0.002179 0.000000 0.000000 0.000000
# 2 0.001382 0.016821 0.000849 0.000000 0.000000 0.000000
# 3 0.002179 0.000849 0.020083 0.000000 0.000000 0.000000
# 4 0.000000 0.000000 0.000000 -0.182436 0.000000 0.000000
# 5 0.000000 0.000000 0.000000 0.000000 0.037807 0.000000
# 6 0.000000 0.000000 0.000000 0.000000 0.000000 0.042095
#
#
# Mechanical properties :
#
#
# Convention : Reuss Voigt Hill
#
# Bulk Modulus (GPa) = 16.13920 16.27887 16.20903
# Shear Modulus (GPa) = -133.10806 21.40533 -55.85137
#
# Velocity S-wave (km/s) = -8.33309 3.34168 -5.39785
# Velocity P-wave (km/s) = 9.17430 4.83545 5.51299
#
# Compressibility (1/GPa) = 0.06196096
#
# Stress axis : x y z
#
# Youngs Moduli (GPa) = 61.59572 59.45046 49.79223
#
# Poissons Ratio (x) = -0.08217 -0.10851
# Poissons Ratio (y) = -0.08514 -0.04230
# Poissons Ratio (z) = -0.13423 -0.05050
#
# Static dielectric constant tensor:
#      x y z
#    x 1.671310 0.000000 0.000000 
#    y 0.000000 1.642570 0.000000 
#    z 0.000000 0.000000 1.682160 
# 
# From -- ./inp_files/4470.got.cif
#   From: 2010.05.17/outbox.cif.g08.bks.cpg/sg62_3_cif.got.tgz:4470.got - 2010.06.03 15:25:27.
