data_PCOD9465689
_publ_section_title
;
Structure prediction by ZEFSAII (Michael W. Deem and Ramdas Pophale) SiO2 
 PCOD9465689
Probable space group: P N M A
;
_chemical_formula_sum "Si O2"
_cell_formula_units_Z 48
_cell_length_a 30.156638
_cell_length_b 9.461592
_cell_length_c 8.203528
_cell_angle_alpha 90.000000
_cell_angle_beta 90.000000
_cell_angle_gamma 90.000000
_cell_volume 2340.711043
_symmetry_space_group_name_H-M "P N M A"
_symmetry_group_IT_number 62
_symmetry_cell_setting 'orthorhombic'
loop_
_space_group_symop_operation_xyz
x,y,z
1/2-x,-y,1/2+z
1/2+x,1/2-y,1/2-z
-x,1/2+y,-z
-x,-y,-z
1/2+x,y,1/2-z
1/2-x,1/2+y,1/2+z
x,1/2-y,z
loop_
_atom_site_type_symbol
_atom_site_label
_atom_site_fract_x
_atom_site_fract_y
_atom_site_fract_z
Si Si1 0.441072 0.585101 0.375482
Si Si2 0.478806 0.585631 0.742459
Si Si3 0.650746 0.415213 0.763490
Si Si4 0.308992 0.085272 0.747560
Si Si5 0.729507 0.585200 0.617337
Si Si6 0.612124 0.415440 0.126900
O O1 0.442391 0.750000 0.329702
O O2 0.456624 0.572162 0.562248
O O3 0.476381 0.502693 0.265554
O O4 0.390499 0.539571 0.350039
O O5 0.489291 0.750000 0.770243
O O6 0.439344 0.541238 0.862850
O O7 0.662274 0.250000 0.731356
O O8 0.692831 0.512081 0.731258
O O9 0.631714 0.424428 0.945775
O O10 0.311491 0.250000 0.793105
O O11 0.289254 0.075530 0.565740
O O12 0.275006 0.999417 0.861164
O O13 0.356566 0.011187 0.761835
O O14 0.736348 0.750000 0.657197
O O15 0.614030 0.250000 0.178908
#
# Coordination Sequence:
#
# PCOD9465689 Si02
#       6
#     8   8   8   8   8   8
#     4   9  18  33  53  77 107 144 184 226 272 321
#     4   9  18  33  53  77 107 144 184 226 272 321
#     4  10  21  37  57  82 112 146 185 227 272 324
#     4  11  24  40  59  84 112 143 181 224 271 325
#     4  11  24  40  59  84 112 143 181 224 271 325
#     4  10  21  37  57  82 112 146 185 227 272 324
#
# _framework density 20.506591
#
# number of rings (size 3 to 8) (size 9 to 14) (size 15 to 20)
#    0.000    2.000    0.000    3.000    0.000   10.667 
#    0.000    3.333    0.000    0.000    0.000    0.000 
#    0.000    0.000    0.000    0.000    0.000    0.000 
#
# Total GULP energy -268304.545182 kJ/mol
# GULP energy per Si atom -5589.678025 kJ/mol
# Density = 2.045992 g / cm^3
# Si number density = 20.506591 Si / 1000 Ang^3
#
#
#
# Elastic Constant Matrix: (Units=GPa)
#
#
# Indices 1 2 3 4 5 6 
#
# 1 50.8329 14.7717 4.7000 0.0000 0.0000 0.0000
# 2 14.7717 57.8550 21.8664 0.0000 0.0000 0.0000
# 3 4.7000 21.8664 30.4052 0.0000 0.0000 0.0000
# 4 0.0000 0.0000 0.0000 17.2878 0.0000 0.0000
# 5 0.0000 0.0000 0.0000 0.0000 31.9890 0.0000
# 6 0.0000 0.0000 0.0000 0.0000 0.0000 26.6861
#
#
#
# Elastic Compliance Matrix: (Units=1/GPa)
#
#
# Indices 1 2 3 4 5 6 
#
# 1 0.021265 -0.005750 0.000848 0.000000 0.000000 0.000000
# 2 -0.005750 0.025291 -0.017300 0.000000 0.000000 0.000000
# 3 0.000848 -0.017300 0.045199 0.000000 0.000000 0.000000
# 4 0.000000 0.000000 0.000000 0.057844 0.000000 0.000000
# 5 0.000000 0.000000 0.000000 0.000000 0.031261 0.000000
# 6 0.000000 0.000000 0.000000 0.000000 0.000000 0.037473
#
#
# Mechanical properties :
#
#
# Convention : Reuss Voigt Hill
#
# Bulk Modulus (GPa) = 21.11834 24.64103 22.87969
# Shear Modulus (GPa) = 17.95202 21.70958 19.83080
#
# Velocity S-wave (km/s) = 2.96197 3.25724 3.11311
# Velocity P-wave (km/s) = 4.69237 5.11746 4.90952
#
# Compressibility (1/GPa) = 0.04735221
#
# Stress axis : x y z
#
# Youngs Moduli (GPa) = 47.02613 39.53956 22.12418
#
# Poissons Ratio (x) = 0.22735 -0.01876
# Poissons Ratio (y) = 0.27040 0.38274
# Poissons Ratio (z) = -0.03988 0.68402
#
# Static dielectric constant tensor:
#      x y z
#    x 1.705830 0.000000 0.000000 
#    y 0.000000 1.690030 0.000000 
#    z 0.000000 0.000000 1.767240 
# 
# From -- ./inp_files/10207.got.cif
#   From: 2010.05.17/outbox.cif.g08.bks.cpg/sg62_6_cif.got.tgz:10207.got - 2010.06.03 15:25:27.
