data_PCOD9465782
_publ_section_title
;
Structure prediction by ZEFSAII (Michael W. Deem and Ramdas Pophale) SiO2 
 PCOD9465782
Probable space group: P N M A
;
_chemical_formula_sum "Si O2"
_cell_formula_units_Z 28
_cell_length_a 4.953245
_cell_length_b 19.532965
_cell_length_c 10.716376
_cell_angle_alpha 90.000000
_cell_angle_beta 90.000000
_cell_angle_gamma 90.000000
_cell_volume 1036.826109
_symmetry_space_group_name_H-M "P N M A"
_symmetry_group_IT_number 62
_symmetry_cell_setting 'orthorhombic'
loop_
_space_group_symop_operation_xyz
x,y,z
1/2-x,-y,1/2+z
1/2+x,1/2-y,1/2-z
-x,1/2+y,-z
-x,-y,-z
1/2+x,y,1/2-z
1/2-x,1/2+y,1/2+z
x,1/2-y,z
loop_
_atom_site_type_symbol
_atom_site_label
_atom_site_fract_x
_atom_site_fract_y
_atom_site_fract_z
Si Si1 0.326645 0.250000 0.837381
Si Si2 0.428055 0.329754 0.333524
Si Si3 0.037241 0.388121 0.535516
Si Si4 0.724696 0.516522 0.832964
O O1 0.025579 0.250000 0.782896
O O2 0.392293 0.180298 0.913947
O O3 0.732632 0.340016 0.286763
O O4 0.411068 0.250000 0.365985
O O5 0.282780 0.366258 0.446930
O O6 0.846111 0.440140 0.456551
O O7 0.169167 0.436830 0.639429
O O8 0.019333 0.531121 0.780484
#
# Coordination Sequence:
#
# PCOD9465782 Si02
#       4
#     4   8   8   8
#     4  12  28  46  68 102 136 172 220 272 336 404
#     4  10  21  37  60  94 129 164 213 263 317 386
#     4  11  24  45  70  97 136 178 218 274 337 387
#     4  11  26  45  68  99 133 176 228 273 323 395
#
# _framework density 27.005496000000001
#
# number of rings (size 3 to 8) (size 9 to 14) (size 15 to 20)
#    0.000    1.143    1.429    3.429    0.000   11.429 
#    0.000    0.000    0.000    0.000    0.000    0.000 
#    0.000    0.000    0.000    0.000    0.000    0.000 
#
# Total GULP energy -157267.263966 kJ/mol
# GULP energy per Si atom -5616.687999 kJ/mol
# Density = 2.694403 g / cm^3
# Si number density = 27.005496 Si / 1000 Ang^3
#
#
#
# Elastic Constant Matrix: (Units=GPa)
#
#
# Indices 1 2 3 4 5 6 
#
# 1 98.4595 1.1072 12.6818 0.0000 0.0000 0.0000
# 2 1.1072 148.8742 35.2247 0.0000 0.0000 0.0000
# 3 12.6818 35.2247 77.4994 0.0000 0.0000 0.0000
# 4 0.0000 0.0000 0.0000 68.5499 0.0000 0.0000
# 5 0.0000 0.0000 0.0000 0.0000 39.0846 0.0000
# 6 0.0000 0.0000 0.0000 0.0000 0.0000 42.4784
#
#
#
# Elastic Compliance Matrix: (Units=1/GPa)
#
#
# Indices 1 2 3 4 5 6 
#
# 1 0.010393 0.000364 -0.001866 0.000000 0.000000 0.000000
# 2 0.000364 0.007539 -0.003486 0.000000 0.000000 0.000000
# 3 -0.001866 -0.003486 0.014793 0.000000 0.000000 0.000000
# 4 0.000000 0.000000 0.000000 0.014588 0.000000 0.000000
# 5 0.000000 0.000000 0.000000 0.000000 0.025586 0.000000
# 6 0.000000 0.000000 0.000000 0.000000 0.000000 0.023541
#
#
# Mechanical properties :
#
#
# Convention : Reuss Voigt Hill
#
# Bulk Modulus (GPa) = 43.95840 46.98449 45.47145
# Shear Modulus (GPa) = 43.85982 48.41054 46.13518
#
# Velocity S-wave (km/s) = 4.03439 4.23853 4.13772
# Velocity P-wave (km/s) = 6.16561 6.43346 6.30095
#
# Compressibility (1/GPa) = 0.02274878
#
# Stress axis : x y z
#
# Youngs Moduli (GPa) = 96.22107 132.63898 67.59815
#
# Poissons Ratio (x) = -0.04832 0.12615
# Poissons Ratio (y) = -0.03505 0.23567
# Poissons Ratio (z) = 0.17957 0.46242
#
# Static dielectric constant tensor:
#      x y z
#    x 2.034630 0.000000 0.000000 
#    y 0.000000 2.221460 0.000000 
#    z 0.000000 0.000000 2.108880 
# 
# From -- ./inp_files/10617.got.cif
#   From: 2010.05.17/outbox.cif.g08.bks.cpg/sg62_6_cif.got.tgz:10617.got - 2010.06.03 15:25:27.
