data_PCOD9465911
_publ_section_title
;
Structure prediction by ZEFSAII (Michael W. Deem and Ramdas Pophale) SiO2 
 PCOD9465911
Probable space group: P N M A
;
_chemical_formula_sum "Si O2"
_cell_formula_units_Z 56
_cell_length_a 15.159471
_cell_length_b 8.563619
_cell_length_c 21.564898
_cell_angle_alpha 90.000000
_cell_angle_beta 90.000000
_cell_angle_gamma 90.000000
_cell_volume 2799.553633
_symmetry_space_group_name_H-M "P N M A"
_symmetry_group_IT_number 62
_symmetry_cell_setting 'orthorhombic'
loop_
_space_group_symop_operation_xyz
x,y,z
1/2-x,-y,1/2+z
1/2+x,1/2-y,1/2-z
-x,1/2+y,-z
-x,-y,-z
1/2+x,y,1/2-z
1/2-x,1/2+y,1/2+z
x,1/2-y,z
loop_
_atom_site_type_symbol
_atom_site_label
_atom_site_fract_x
_atom_site_fract_y
_atom_site_fract_z
Si Si1 0.968314 0.568932 0.596074
Si Si2 0.642845 0.566357 0.988385
Si Si3 0.288882 0.436423 0.601204
Si Si4 0.982439 0.938231 0.931285
Si Si5 0.056340 0.932674 0.272852
Si Si6 0.408303 0.063257 0.316528
Si Si7 0.244944 0.062132 0.235550
O O1 0.959421 0.750000 0.614800
O O2 0.889127 0.521148 0.550153
O O3 0.968709 0.461507 0.656044
O O4 0.059649 0.551672 0.558544
O O5 0.655645 0.750000 0.000915
O O6 0.728004 0.495830 0.955089
O O7 0.291893 0.250000 0.601717
O O8 0.387998 0.501826 0.593600
O O9 0.247236 0.496664 0.665821
O O10 0.980434 0.750000 0.931642
O O11 0.059869 0.991869 0.884125
O O12 0.000000 0.000000 0.000000
O O13 0.057305 0.750000 0.257662
O O14 0.151358 0.006219 0.260628
O O15 0.986927 0.019998 0.229661
O O16 0.399711 0.250000 0.320705
O O17 0.319815 0.004669 0.283297
O O18 0.248517 0.250000 0.231898
#
# Coordination Sequence:
#
# PCOD9465911 Si02
#       7
#     8   8   8   8   8   8   8
#     4  10  21  38  60  88 125 165 207 258 317 377
#     4  10  21  38  61  89 122 164 210 258 314 375
#     4  12  24  40  63  94 127 167 215 262 323 391
#     4  11  24  44  68  93 127 170 216 270 327 388
#     4  12  24  38  61  92 127 164 205 257 315 380
#     4  10  23  43  67  92 124 168 215 267 327 386
#     4  11  23  41  65  92 123 164 215 266 323 385
#
# _framework density 20.003188000000002
#
# number of rings (size 3 to 8) (size 9 to 14) (size 15 to 20)
#    0.000    1.143    1.429    5.143    0.000    8.000 
#    0.000    4.286    0.000    0.000    0.000    0.000 
#    0.000    0.000    0.000    0.000    0.000    0.000 
#
# Total GULP energy -313168.911456 kJ/mol
# GULP energy per Si atom -5592.301990 kJ/mol
# Density = 1.995766 g / cm^3
# Si number density = 20.003188 Si / 1000 Ang^3
#
#
#
# Elastic Constant Matrix: (Units=GPa)
#
#
# Indices 1 2 3 4 5 6 
#
# 1 664.6439 497.6700 445.2201 0.0000 0.0000 0.0000
# 2 497.6700 413.4059 361.2098 0.0000 0.0000 0.0000
# 3 445.2201 361.2098 398.9946 0.0000 0.0000 0.0000
# 4 0.0000 0.0000 0.0000 20.0722 0.0000 0.0000
# 5 0.0000 0.0000 0.0000 0.0000 -307.4093 0.0000
# 6 0.0000 0.0000 0.0000 0.0000 0.0000 36.3762
#
#
#
# Elastic Compliance Matrix: (Units=1/GPa)
#
#
# Indices 1 2 3 4 5 6 
#
# 1 0.015566 -0.017045 -0.001939 0.000000 0.000000 0.000000
# 2 -0.017045 0.030239 -0.008355 0.000000 0.000000 0.000000
# 3 -0.001939 -0.008355 0.012233 0.000000 0.000000 0.000000
# 4 0.000000 0.000000 0.000000 0.049820 0.000000 0.000000
# 5 0.000000 0.000000 0.000000 0.000000 -0.003253 0.000000
# 6 0.000000 0.000000 0.000000 0.000000 0.000000 0.027491
#
#
# Mechanical properties :
#
#
# Convention : Reuss Voigt Hill
#
# Bulk Modulus (GPa) = 297.57942 453.91603 375.74773
# Shear Modulus (GPa) = 26.61076 -38.66255 -6.02589
#
# Velocity S-wave (km/s) = 3.65132 -4.40115 -1.73753
# Velocity P-wave (km/s) = 12.91763 14.19815 13.57300
#
# Compressibility (1/GPa) = 0.00336045
#
# Stress axis : x y z
#
# Youngs Moduli (GPa) = 64.24098 33.07016 81.74484
#
# Poissons Ratio (x) = 0.56370 0.15847
# Poissons Ratio (y) = 1.09502 0.68297
# Poissons Ratio (z) = 0.12454 0.27630
#
# Static dielectric constant tensor:
#      x y z
#    x 1.685600 0.000000 0.000000 
#    y 0.000000 1.669790 0.000000 
#    z 0.000000 0.000000 1.703020 
# 
# From -- ./inp_files/27287.got.cif
#   From: 2010.05.17/outbox.cif.g08.bks.cpg/sg62_14_cif.got.tgz:27287.got - 2010.06.03 15:25:27.
