data_PCOD9465591
_publ_section_title
;
Structure prediction by ZEFSAII (Michael W. Deem and Ramdas Pophale) SiO2 
 PCOD9465591
Probable space group: P N M A
;
_chemical_formula_sum "Si O2"
_cell_formula_units_Z 48
_cell_length_a 12.340200
_cell_length_b 8.024223
_cell_length_c 23.880583
_cell_angle_alpha 90.000000
_cell_angle_beta 90.000000
_cell_angle_gamma 90.000000
_cell_volume 2364.667667
_symmetry_space_group_name_H-M "P N M A"
_symmetry_group_IT_number 62
_symmetry_cell_setting 'orthorhombic'
loop_
_space_group_symop_operation_xyz
x,y,z
1/2-x,-y,1/2+z
1/2+x,1/2-y,1/2-z
-x,1/2+y,-z
-x,-y,-z
1/2+x,y,1/2-z
1/2-x,1/2+y,1/2+z
x,1/2-y,z
loop_
_atom_site_type_symbol
_atom_site_label
_atom_site_fract_x
_atom_site_fract_y
_atom_site_fract_z
Si Si1 0.948974 0.050708 0.558211
Si Si2 0.997158 0.446759 0.065082
Si Si3 0.083063 0.941354 0.660661
Si Si4 0.622306 0.451593 0.221263
Si Si5 0.731696 0.052096 0.615985
Si Si6 0.675901 0.454491 0.347857
O O1 0.960547 0.250000 0.567313
O O2 0.823128 0.009487 0.569349
O O3 0.000000 0.000000 0.500000
O O4 0.016012 0.949825 0.603891
O O5 0.011474 0.250000 0.063716
O O6 0.095013 0.516152 0.103826
O O7 0.883606 0.481722 0.096782
O O8 0.000000 0.500000 0.000000
O O9 0.101798 0.750000 0.678942
O O10 0.200299 0.014583 0.648321
O O11 0.996312 0.018431 0.703367
O O12 0.618645 0.250000 0.219055
O O13 0.714087 0.501057 0.175666
O O14 0.642299 0.501006 0.284916
O O15 0.720043 0.250000 0.617372
O O16 0.675005 0.250000 0.350971
#
# Coordination Sequence:
#
# PCOD9465591 Si02
#       6
#     8   8   8   8   8   8
#     4  10  21  36  57  82 111 145 189 238 288 342
#     4  11  24  41  61  87 122 162 207 250 298 360
#     4   9  18  34  56  84 115 145 184 232 287 345
#     4   9  18  35  62  90 113 146 193 238 292 354
#     4  10  22  40  59  84 119 155 192 241 296 353
#     4   9  20  36  60  89 116 150 191 241 292 349
#
# _framework density 20.298836000000001
#
# number of rings (size 3 to 8) (size 9 to 14) (size 15 to 20)
#    0.000    2.333    0.000    1.500    4.667    2.000 
#    0.000    3.333    0.000    0.000    0.000    0.000 
#    0.000    0.000    0.000    0.000    0.000    0.000 
#
# Total GULP energy -267544.391255 kJ/mol
# GULP energy per Si atom -5573.841484 kJ/mol
# Density = 2.025264 g / cm^3
# Si number density = 20.298836 Si / 1000 Ang^3
#
#
#
# Elastic Constant Matrix: (Units=GPa)
#
#
# Indices 1 2 3 4 5 6 
#
# 1 169.0594 10.5214 58.9698 0.0000 0.0000 0.0000
# 2 10.5214 25.9043 5.5769 0.0000 0.0000 0.0000
# 3 58.9698 5.5769 75.7131 0.0000 0.0000 0.0000
# 4 0.0000 0.0000 0.0000 16.7383 0.0000 0.0000
# 5 0.0000 0.0000 0.0000 0.0000 7.2105 0.0000
# 6 0.0000 0.0000 0.0000 0.0000 0.0000 18.0419
#
#
#
# Elastic Compliance Matrix: (Units=1/GPa)
#
#
# Indices 1 2 3 4 5 6 
#
# 1 0.008221 -0.001992 -0.006257 0.000000 0.000000 0.000000
# 2 -0.001992 0.039708 -0.001373 0.000000 0.000000 0.000000
# 3 -0.006257 -0.001373 0.018182 0.000000 0.000000 0.000000
# 4 0.000000 0.000000 0.000000 0.059743 0.000000 0.000000
# 5 0.000000 0.000000 0.000000 0.000000 0.138687 0.000000
# 6 0.000000 0.000000 0.000000 0.000000 0.000000 0.055426
#
#
# Mechanical properties :
#
#
# Convention : Reuss Voigt Hill
#
# Bulk Modulus (GPa) = 21.33667 46.75701 34.04684
# Shear Modulus (GPa) = 14.09106 21.43872 17.76489
#
# Velocity S-wave (km/s) = 2.63759 3.25338 2.96153
# Velocity P-wave (km/s) = 4.45084 6.09893 5.33886
#
# Compressibility (1/GPa) = 0.04686767
#
# Stress axis : x y z
#
# Youngs Moduli (GPa) = 121.63323 25.18360 54.99980
#
# Poissons Ratio (x) = 0.05017 0.34411
# Poissons Ratio (y) = 0.24233 0.07552
# Poissons Ratio (z) = 0.76101 0.03458
#
# Static dielectric constant tensor:
#      x y z
#    x 2.236290 0.000000 0.000000 
#    y 0.000000 1.740980 0.000000 
#    z 0.000000 0.000000 1.698150 
# 
# From -- ./inp_files/29236.got.cif
#   From: 2010.05.17/outbox.cif.g08.bks.cpg/sg62_15_cif.got.tgz:29236.got - 2010.06.03 15:25:27.
