data_PCOD9465499
_publ_section_title
;
Structure prediction by ZEFSAII (Michael W. Deem and Ramdas Pophale) SiO2 
 PCOD9465499
Probable space group: P N M A
;
_chemical_formula_sum "Si O2"
_cell_formula_units_Z 64
_cell_length_a 10.802654
_cell_length_b 13.781842
_cell_length_c 21.745542
_cell_angle_alpha 90.000000
_cell_angle_beta 90.000000
_cell_angle_gamma 90.000000
_cell_volume 3237.486527
_symmetry_space_group_name_H-M "P N M A"
_symmetry_group_IT_number 62
_symmetry_cell_setting 'orthorhombic'
loop_
_space_group_symop_operation_xyz
x,y,z
1/2-x,-y,1/2+z
1/2+x,1/2-y,1/2-z
-x,1/2+y,-z
-x,-y,-z
1/2+x,y,1/2-z
1/2-x,1/2+y,1/2+z
x,1/2-y,z
loop_
_atom_site_type_symbol
_atom_site_label
_atom_site_fract_x
_atom_site_fract_y
_atom_site_fract_z
Si Si1 0.311223 0.517128 0.476092
Si Si2 0.070380 0.640799 0.813324
Si Si3 0.911013 0.138018 0.521418
Si Si4 0.367849 0.535625 0.225454
Si Si5 0.608498 0.865917 0.280794
Si Si6 0.812296 0.860182 0.601265
Si Si7 0.439533 0.002588 0.603465
Si Si8 0.040562 0.522401 0.600857
O O1 0.228700 0.610092 0.460617
O O2 0.230555 0.422460 0.457872
O O3 0.431750 0.518902 0.433353
O O4 0.344999 0.511993 0.547679
O O5 0.040423 0.750000 0.792699
O O6 0.105515 0.563971 0.761370
O O7 0.192572 0.644913 0.855750
O O8 0.961948 0.592603 0.854403
O O9 0.937762 0.250000 0.526121
O O10 0.997505 0.073415 0.564814
O O11 0.921587 0.097783 0.452027
O O12 0.237534 0.585876 0.242464
O O13 0.487590 0.602135 0.241381
O O14 0.366436 0.507894 0.153725
O O15 0.619766 0.750000 0.281750
O O16 0.586553 0.910686 0.349108
O O17 0.850349 0.750000 0.587161
O O18 0.921370 0.923887 0.630858
#
# Coordination Sequence:
#
# PCOD9465499 Si02
#       8
#     8   8   8   8   8   8   8   8
#     4   9  18  34  55  81 115 153 188 236 293 340
#     4   9  19  35  56  83 114 151 194 243 298 350
#     4  10  21  35  53  81 112 143 184 232 282 337
#     4  11  23  42  62  86 119 153 196 246 294 351
#     4  11  24  41  62  88 118 155 199 245 293 346
#     4   9  17  32  54  80 112 152 197 240 289 350
#     4   9  19  36  56  82 117 151 192 239 285 346
#     4  10  21  37  56  79 111 148 186 232 286 342
#
# _framework density 19.768421
#
# number of rings (size 3 to 8) (size 9 to 14) (size 15 to 20)
#    0.000    2.250    0.000    2.250    0.000    4.500 
#    0.000    6.250    0.000    0.000    0.000    0.000 
#    0.000    0.000    0.000    0.000    0.000    0.000 
#
# Total GULP energy -357056.901463 kJ/mol
# GULP energy per Si atom -5579.014085 kJ/mol
# Density = 1.972343 g / cm^3
# Si number density = 19.768421 Si / 1000 Ang^3
#
#
#
# Elastic Constant Matrix: (Units=GPa)
#
#
# Indices 1 2 3 4 5 6 
#
# 1 59.5373 31.6103 11.6306 0.0000 0.0000 0.0000
# 2 31.6103 170.9986 37.3130 0.0000 0.0000 0.0000
# 3 11.6306 37.3130 64.7912 0.0000 0.0000 0.0000
# 4 0.0000 0.0000 0.0000 12.9650 0.0000 0.0000
# 5 0.0000 0.0000 0.0000 0.0000 21.0847 0.0000
# 6 0.0000 0.0000 0.0000 0.0000 0.0000 18.2370
#
#
#
# Elastic Compliance Matrix: (Units=1/GPa)
#
#
# Indices 1 2 3 4 5 6 
#
# 1 0.018762 -0.003126 -0.001568 0.000000 0.000000 0.000000
# 2 -0.003126 0.007209 -0.003591 0.000000 0.000000 0.000000
# 3 -0.001568 -0.003591 0.017783 0.000000 0.000000 0.000000
# 4 0.000000 0.000000 0.000000 0.077131 0.000000 0.000000
# 5 0.000000 0.000000 0.000000 0.000000 0.047428 0.000000
# 6 0.000000 0.000000 0.000000 0.000000 0.000000 0.054834
#
#
# Mechanical properties :
#
#
# Convention : Reuss Voigt Hill
#
# Bulk Modulus (GPa) = 36.78359 50.71498 43.74928
# Shear Modulus (GPa) = 20.09821 24.77555 22.43688
#
# Velocity S-wave (km/s) = 3.19201 3.54402 3.37261
# Velocity P-wave (km/s) = 5.67740 6.51591 6.11105
#
# Compressibility (1/GPa) = 0.02718604
#
# Stress axis : x y z
#
# Youngs Moduli (GPa) = 53.29851 138.70729 56.23203
#
# Poissons Ratio (x) = 0.43364 0.08815
# Poissons Ratio (y) = 0.16663 0.20191
# Poissons Ratio (z) = 0.08355 0.49805
#
# Static dielectric constant tensor:
#      x y z
#    x 1.765990 0.000000 0.000000 
#    y 0.000000 1.664320 0.000000 
#    z 0.000000 0.000000 1.700960 
# 
# From -- ./inp_files/29456.got.cif
#   From: 2010.05.17/outbox.cif.g08.bks.cpg/sg62_15_cif.got.tgz:29456.got - 2010.06.03 15:25:27.
