data_PCOD9465875
_publ_section_title
;
Structure prediction by ZEFSAII (Michael W. Deem and Ramdas Pophale) SiO2 
 PCOD9465875
Probable space group: P N M A
;
_chemical_formula_sum "Si O2"
_cell_formula_units_Z 48
_cell_length_a 28.486385
_cell_length_b 7.606209
_cell_length_c 9.624151
_cell_angle_alpha 90.000000
_cell_angle_beta 90.000000
_cell_angle_gamma 90.000000
_cell_volume 2085.297500
_symmetry_space_group_name_H-M "P N M A"
_symmetry_group_IT_number 62
_symmetry_cell_setting 'orthorhombic'
loop_
_space_group_symop_operation_xyz
x,y,z
1/2-x,-y,1/2+z
1/2+x,1/2-y,1/2-z
-x,1/2+y,-z
-x,-y,-z
1/2+x,y,1/2-z
1/2-x,1/2+y,1/2+z
x,1/2-y,z
loop_
_atom_site_type_symbol
_atom_site_label
_atom_site_fract_x
_atom_site_fract_y
_atom_site_fract_z
Si Si1 0.355817 0.540669 0.019310
Si Si2 0.455097 0.539589 0.905621
Si Si3 0.191338 0.952041 0.035933
Si Si4 0.987386 0.460462 0.156442
Si Si5 0.618562 0.962580 0.675687
Si Si6 0.729436 0.548271 0.173418
O O1 0.352377 0.750000 0.996556
O O2 0.406473 0.471971 0.967090
O O3 0.315145 0.455700 0.928815
O O4 0.353833 0.509028 0.183956
O O5 0.449403 0.750000 0.899859
O O6 0.471551 0.471334 0.756207
O O7 0.500000 0.500000 0.000000
O O8 0.180341 0.750000 0.073435
O O9 0.144935 0.029074 0.962777
O O10 0.229666 0.955371 0.913061
O O11 0.213384 0.028866 0.177366
O O12 0.985503 0.250000 0.176573
O O13 0.934985 0.527734 0.189294
O O14 0.000000 0.500000 0.000000
O O15 0.617601 0.750000 0.666703
O O16 0.745109 0.750000 0.196242
#
# Coordination Sequence:
#
# PCOD9465875 Si02
#       6
#     8   8   8   8   8   8
#     4  11  23  38  60  90 121 155 197 245 293 349
#     4  10  21  38  59  86 119 157 201 245 290 343
#     4  10  23  42  63  89 119 151 195 243 292 351
#     4  10  22  38  58  86 121 160 201 246 295 348
#     4  10  21  40  63  87 120 160 199 245 297 351
#     4  11  24  41  63  89 117 154 192 237 295 353
#
# _framework density 23.018298000000001
#
# number of rings (size 3 to 8) (size 9 to 14) (size 15 to 20)
#    0.000    1.667    1.667    2.000    2.333    6.667 
#    0.000    0.000    0.000    0.000    0.000    0.000 
#    0.000    0.000    0.000    0.000    0.000    0.000 
#
# Total GULP energy -268283.963325 kJ/mol
# GULP energy per Si atom -5589.249236 kJ/mol
# Density = 2.296591 g / cm^3
# Si number density = 23.018298 Si / 1000 Ang^3
#
#
#
# Elastic Constant Matrix: (Units=GPa)
#
#
# Indices 1 2 3 4 5 6 
#
# 1 61.8798 -8.2693 -0.8562 0.0000 0.0000 0.0000
# 2 -8.2693 57.3391 -11.4626 0.0000 0.0000 0.0000
# 3 -0.8562 -11.4626 116.1788 0.0000 0.0000 0.0000
# 4 0.0000 0.0000 0.0000 15.2569 0.0000 0.0000
# 5 0.0000 0.0000 0.0000 0.0000 44.0827 0.0000
# 6 0.0000 0.0000 0.0000 0.0000 0.0000 10.3006
#
#
#
# Elastic Compliance Matrix: (Units=1/GPa)
#
#
# Indices 1 2 3 4 5 6 
#
# 1 0.016493 0.002451 0.000363 0.000000 0.000000 0.000000
# 2 0.002451 0.018155 0.001809 0.000000 0.000000 0.000000
# 3 0.000363 0.001809 0.008789 0.000000 0.000000 0.000000
# 4 0.000000 0.000000 0.000000 0.065544 0.000000 0.000000
# 5 0.000000 0.000000 0.000000 0.000000 0.022685 0.000000
# 6 0.000000 0.000000 0.000000 0.000000 0.000000 0.097082
#
#
# Mechanical properties :
#
#
# Convention : Reuss Voigt Hill
#
# Bulk Modulus (GPa) = 18.98081 21.58015 20.28048
# Shear Modulus (GPa) = 21.09162 30.99377 26.04270
#
# Velocity S-wave (km/s) = 3.03033 3.67343 3.36726
# Velocity P-wave (km/s) = 4.52854 5.23332 4.89364
#
# Compressibility (1/GPa) = 0.05268480
#
# Stress axis : x y z
#
# Youngs Moduli (GPa) = 60.63196 55.08028 113.78353
#
# Poissons Ratio (x) = -0.13501 -0.04135
# Poissons Ratio (y) = -0.14862 -0.20587
# Poissons Ratio (z) = -0.02203 -0.09966
#
# Static dielectric constant tensor:
#      x y z
#    x 1.885840 0.000000 0.000000 
#    y 0.000000 1.886560 0.000000 
#    z 0.000000 0.000000 1.880800 
# 
# From -- ./inp_files/10253.got.cif
#   From: 2010.05.17/outbox.cif.g08.bks.cpg/sg62_6_cif.got.tgz:10253.got - 2010.06.03 15:25:27.
