data_PCOD9465822
_publ_section_title
;
Structure prediction by ZEFSAII (Michael W. Deem and Ramdas Pophale) SiO2 
 PCOD9465822
Probable space group: P N M A
;
_chemical_formula_sum "Si O2"
_cell_formula_units_Z 64
_cell_length_a 10.113256
_cell_length_b 14.463820
_cell_length_c 21.640002
_cell_angle_alpha 90.000000
_cell_angle_beta 90.000000
_cell_angle_gamma 90.000000
_cell_volume 3165.419736
_symmetry_space_group_name_H-M "P N M A"
_symmetry_group_IT_number 62
_symmetry_cell_setting 'orthorhombic'
loop_
_space_group_symop_operation_xyz
x,y,z
1/2-x,-y,1/2+z
1/2+x,1/2-y,1/2-z
-x,1/2+y,-z
-x,-y,-z
1/2+x,y,1/2-z
1/2-x,1/2+y,1/2+z
x,1/2-y,z
loop_
_atom_site_type_symbol
_atom_site_label
_atom_site_fract_x
_atom_site_fract_y
_atom_site_fract_z
Si Si1 0.653472 0.987469 0.983735
Si Si2 0.431449 0.146980 0.216715
Si Si3 0.576115 0.855503 0.635421
Si Si4 0.308163 0.858912 0.106836
Si Si5 0.528242 0.640642 0.325810
Si Si6 0.711101 0.041297 0.610449
Si Si7 0.273617 0.857291 0.616600
Si Si8 0.036608 0.549898 0.309262
O O1 0.702156 0.086123 0.957538
O O2 0.683547 0.918254 0.927568
O O3 0.500000 0.000000 0.000000
O O4 0.729742 0.946617 0.042515
O O5 0.480847 0.250000 0.198999
O O6 0.422555 0.143816 0.290200
O O7 0.287437 0.135544 0.185268
O O8 0.515811 0.060468 0.193985
O O9 0.601397 0.750000 0.615001
O O10 0.427243 0.883491 0.615538
O O11 0.676773 0.932732 0.613908
O O12 0.331334 0.750000 0.098396
O O13 0.173006 0.871849 0.144917
O O14 0.426418 0.904266 0.146610
O O15 0.504311 0.750000 0.317614
O O16 0.419795 0.597275 0.371562
O O17 0.522286 0.590619 0.259467
O O18 0.821171 0.067814 0.660895
O O19 0.265482 0.750000 0.598647
#
# Coordination Sequence:
#
# PCOD9465822 Si02
#       8
#     8   8   8   8   8   8   8   8
#     4  12  25  47  65  96 131 174 229 274 333 397
#     4  10  21  37  64  98 132 170 215 267 330 402
#     4  10  23  39  62 100 136 169 214 272 342 405
#     4  11  25  46  71  96 136 183 227 281 335 398
#     4  11  26  45  68 103 135 174 227 282 343 400
#     4  12  26  41  70 100 134 177 221 281 329 402
#     4  10  22  42  66  92 133 180 218 269 336 404
#     4  12  23  42  70 100 138 179 220 277 345 404
#
# _framework density 20.218487
#
# number of rings (size 3 to 8) (size 9 to 14) (size 15 to 20)
#    0.000    1.000    3.750    1.875    1.750    6.000 
#    0.000    2.500    0.000    0.000    0.000    0.000 
#    0.000    0.000    0.000    0.000    0.000    0.000 
#
# Total GULP energy -357791.498766 kJ/mol
# GULP energy per Si atom -5590.492168 kJ/mol
# Density = 2.017247 g / cm^3
# Si number density = 20.218487 Si / 1000 Ang^3
#
#
#
# Elastic Constant Matrix: (Units=GPa)
#
#
# Indices 1 2 3 4 5 6 
#
# 1 84.3242 35.5783 23.5085 0.0000 0.0000 0.0000
# 2 35.5783 87.6378 21.0358 0.0000 0.0000 0.0000
# 3 23.5085 21.0358 77.6516 0.0000 0.0000 0.0000
# 4 0.0000 0.0000 0.0000 11.6041 0.0000 0.0000
# 5 0.0000 0.0000 0.0000 0.0000 87.7108 0.0000
# 6 0.0000 0.0000 0.0000 0.0000 0.0000 23.1374
#
#
#
# Elastic Compliance Matrix: (Units=1/GPa)
#
#
# Indices 1 2 3 4 5 6 
#
# 1 0.014971 -0.005337 -0.003087 0.000000 0.000000 0.000000
# 2 -0.005337 0.014107 -0.002206 0.000000 0.000000 0.000000
# 3 -0.003087 -0.002206 0.014410 0.000000 0.000000 0.000000
# 4 0.000000 0.000000 0.000000 0.086176 0.000000 0.000000
# 5 0.000000 0.000000 0.000000 0.000000 0.011401 0.000000
# 6 0.000000 0.000000 0.000000 0.000000 0.000000 0.043220
#
#
# Mechanical properties :
#
#
# Convention : Reuss Voigt Hill
#
# Bulk Modulus (GPa) = 44.98588 45.53987 45.26288
# Shear Modulus (GPa) = 23.47921 35.78986 29.63454
#
# Velocity S-wave (km/s) = 3.41144 4.21189 3.83262
# Velocity P-wave (km/s) = 6.14943 6.79898 6.48234
#
# Compressibility (1/GPa) = 0.02222920
#
# Stress axis : x y z
#
# Youngs Moduli (GPa) = 66.79440 70.88820 69.39610
#
# Poissons Ratio (x) = 0.37833 0.21420
# Poissons Ratio (y) = 0.35648 0.15307
# Poissons Ratio (z) = 0.20617 0.15636
#
# Static dielectric constant tensor:
#      x y z
#    x 1.706790 0.000000 0.000000 
#    y 0.000000 1.727990 0.000000 
#    z 0.000000 0.000000 1.755390 
# 
# From -- ./inp_files/29014.got.cif
#   From: 2010.05.17/outbox.cif.g08.bks.cpg/sg62_15_cif.got.tgz:29014.got - 2010.06.03 15:25:27.
