data_PCOD9465927
_publ_section_title
;
Structure prediction by ZEFSAII (Michael W. Deem and Ramdas Pophale) SiO2 
 PCOD9465927
Probable space group: P N M A
;
_chemical_formula_sum "Si O2"
_cell_formula_units_Z 40
_cell_length_a 12.281441
_cell_length_b 11.820533
_cell_length_c 12.138573
_cell_angle_alpha 90.000000
_cell_angle_beta 90.000000
_cell_angle_gamma 90.000000
_cell_volume 1762.195226
_symmetry_space_group_name_H-M "P N M A"
_symmetry_group_IT_number 62
_symmetry_cell_setting 'orthorhombic'
loop_
_space_group_symop_operation_xyz
x,y,z
1/2-x,-y,1/2+z
1/2+x,1/2-y,1/2-z
-x,1/2+y,-z
-x,-y,-z
1/2+x,y,1/2-z
1/2-x,1/2+y,1/2+z
x,1/2-y,z
loop_
_atom_site_type_symbol
_atom_site_label
_atom_site_fract_x
_atom_site_fract_y
_atom_site_fract_z
Si Si1 0.331362 0.429602 0.753198
Si Si2 0.497452 0.876774 0.060441
Si Si3 0.442048 0.880028 0.635981
Si Si4 0.640904 0.047688 0.598794
Si Si5 0.250339 0.866178 0.034392
O O1 0.424890 0.388727 0.834630
O O2 0.353591 0.560775 0.717328
O O3 0.214298 0.398765 0.806217
O O4 0.335398 0.373671 0.632897
O O5 0.524590 0.750000 0.008751
O O6 0.369806 0.868388 0.083893
O O7 0.500000 0.000000 0.000000
O O8 0.462966 0.750000 0.665705
O O9 0.404660 0.884547 0.506848
O O10 0.546675 0.963446 0.641308
O O11 0.733764 0.970146 0.543720
O O12 0.233818 0.750000 0.971016
#
# Coordination Sequence:
#
# PCOD9465927 Si02
#       5
#     8   8   8   8   8
#     4  11  22  40  62  92 126 165 213 267 317 387
#     4  11  23  41  64  94 130 169 215 267 324 385
#     4  10  23  39  62  94 125 169 220 269 326 391
#     4  10  21  41  62  85 130 163 210 267 326 380
#     4  10  21  38  61  88 121 166 213 257 318 380
#
# _framework density 22.698961000000001
#
# number of rings (size 3 to 8) (size 9 to 14) (size 15 to 20)
#    0.000    1.600    2.000    2.400    0.000    4.000 
#    0.000    5.000    0.000    0.000    0.000    0.000 
#    0.000    0.000    0.000    0.000    0.000    0.000 
#
# Total GULP energy -222730.304815 kJ/mol
# GULP energy per Si atom -5568.257620 kJ/mol
# Density = 2.264730 g / cm^3
# Si number density = 22.698961 Si / 1000 Ang^3
#
#
#
# Elastic Constant Matrix: (Units=GPa)
#
#
# Indices 1 2 3 4 5 6 
#
# 1 69.3160 9.0627 4.6144 0.0000 0.0000 0.0000
# 2 9.0627 133.2585 14.6665 0.0000 0.0000 0.0000
# 3 4.6144 14.6665 45.1565 0.0000 0.0000 0.0000
# 4 0.0000 0.0000 0.0000 -5.0785 0.0000 0.0000
# 5 0.0000 0.0000 0.0000 0.0000 35.8415 0.0000
# 6 0.0000 0.0000 0.0000 0.0000 0.0000 12.7231
#
#
#
# Elastic Compliance Matrix: (Units=1/GPa)
#
#
# Indices 1 2 3 4 5 6 
#
# 1 0.014620 -0.000861 -0.001214 0.000000 0.000000 0.000000
# 2 -0.000861 0.007833 -0.002456 0.000000 0.000000 0.000000
# 3 -0.001214 -0.002456 0.023067 0.000000 0.000000 0.000000
# 4 0.000000 0.000000 0.000000 -0.196910 0.000000 0.000000
# 5 0.000000 0.000000 0.000000 0.000000 0.027901 0.000000
# 6 0.000000 0.000000 0.000000 0.000000 0.000000 0.078597
#
#
# Mechanical properties :
#
#
# Convention : Reuss Voigt Hill
#
# Bulk Modulus (GPa) = 27.42906 33.82425 30.62666
# Shear Modulus (GPa) = -211.17893 23.32305 -93.92794
#
# Velocity S-wave (km/s) = -9.65591 3.20893 -6.43970
# Velocity P-wave (km/s) = 10.59270 5.35381 6.46305
#
# Compressibility (1/GPa) = 0.03645768
#
# Stress axis : x y z
#
# Youngs Moduli (GPa) = 68.39916 127.66388 43.35182
#
# Poissons Ratio (x) = 0.10987 0.05265
# Poissons Ratio (y) = 0.05887 0.10648
# Poissons Ratio (z) = 0.08307 0.31357
#
# Static dielectric constant tensor:
#      x y z
#    x 1.867910 0.000000 0.000000 
#    y 0.000000 1.955340 0.000000 
#    z 0.000000 0.000000 1.843070 
# 
# From -- ./inp_files/17805.got.cif
#   From: 2010.05.17/outbox.cif.g08.bks.cpg/sg62_9_cif.got.tgz:17805.got - 2010.06.03 15:25:27.
