data_PCOD9465738
_publ_section_title
;
Structure prediction by ZEFSAII (Michael W. Deem and Ramdas Pophale) SiO2 
 PCOD9465738
Probable space group: P N M A
;
_chemical_formula_sum "Si O2"
_cell_formula_units_Z 56
_cell_length_a 18.142885
_cell_length_b 13.545730
_cell_length_c 12.595373
_cell_angle_alpha 90.000000
_cell_angle_beta 90.000000
_cell_angle_gamma 90.000000
_cell_volume 3095.421507
_symmetry_space_group_name_H-M "P N M A"
_symmetry_group_IT_number 62
_symmetry_cell_setting 'orthorhombic'
loop_
_space_group_symop_operation_xyz
x,y,z
1/2-x,-y,1/2+z
1/2+x,1/2-y,1/2-z
-x,1/2+y,-z
-x,-y,-z
1/2+x,y,1/2-z
1/2-x,1/2+y,1/2+z
x,1/2-y,z
loop_
_atom_site_type_symbol
_atom_site_label
_atom_site_fract_x
_atom_site_fract_y
_atom_site_fract_z
Si Si1 0.728303 0.863448 0.069382
Si Si2 0.460594 0.996343 0.165149
Si Si3 0.066683 0.038299 0.148431
Si Si4 0.564366 0.633784 0.036922
Si Si5 0.223881 0.136246 0.172903
Si Si6 0.056985 0.632942 0.989262
Si Si7 0.166440 0.523746 0.825385
O O1 0.742479 0.750000 0.102145
O O2 0.643015 0.888563 0.092241
O O3 0.785587 0.938814 0.119949
O O4 0.737325 0.867904 0.942046
O O5 0.497130 0.901691 0.110005
O O6 0.522538 0.042136 0.241941
O O7 0.390808 0.978645 0.240346
O O8 0.440476 0.072087 0.071659
O O9 0.149384 0.073745 0.163831
O O10 0.021866 0.106581 0.064539
O O11 0.062402 0.928612 0.098281
O O12 0.562636 0.750000 0.015443
O O13 0.205289 0.250000 0.195202
O O14 0.278451 0.094417 0.261377
O O15 0.065828 0.750000 0.000409
O O16 0.118308 0.585059 0.910849
#
# Coordination Sequence:
#
# PCOD9465738 Si02
#       7
#     8   8   8   8   8   8   8
#     4  10  21  38  61  86 117 158 197 236 292 356
#     4  10  22  37  60  86 114 151 193 239 290 341
#     4  10  21  38  56  85 120 153 191 244 293 350
#     4  10  21  40  61  84 115 153 197 239 286 349
#     4  11  21  36  60  86 114 155 197 238 293 355
#     4  10  21  37  58  87 119 153 194 243 296 348
#     4  11  21  38  62  88 119 152 195 246 293 350
#
# _framework density 18.091235999999999
#
# number of rings (size 3 to 8) (size 9 to 14) (size 15 to 20)
#    0.000    1.714    2.857    1.714    0.000    4.000 
#    0.000    0.714    0.000    0.857    0.000    0.000 
#    0.000    0.000    0.000    0.000    0.000    0.000 
#
# Total GULP energy -312656.705136 kJ/mol
# GULP energy per Si atom -5583.155449 kJ/mol
# Density = 1.805006 g / cm^3
# Si number density = 18.091236 Si / 1000 Ang^3
#
#
#
# Elastic Constant Matrix: (Units=GPa)
#
#
# Indices 1 2 3 4 5 6 
#
# 1 89.6061 37.8767 8.8617 0.0000 0.0000 0.0000
# 2 37.8767 96.6459 14.0222 0.0000 0.0000 0.0000
# 3 8.8617 14.0222 25.4026 0.0000 0.0000 0.0000
# 4 0.0000 0.0000 0.0000 15.3574 0.0000 0.0000
# 5 0.0000 0.0000 0.0000 0.0000 25.3839 0.0000
# 6 0.0000 0.0000 0.0000 0.0000 0.0000 22.9486
#
#
#
# Elastic Compliance Matrix: (Units=1/GPa)
#
#
# Indices 1 2 3 4 5 6 
#
# 1 0.013463 -0.004995 -0.001939 0.000000 0.000000 0.000000
# 2 -0.004995 0.013101 -0.005489 0.000000 0.000000 0.000000
# 3 -0.001939 -0.005489 0.043073 0.000000 0.000000 0.000000
# 4 0.000000 0.000000 0.000000 0.065115 0.000000 0.000000
# 5 0.000000 0.000000 0.000000 0.000000 0.039395 0.000000
# 6 0.000000 0.000000 0.000000 0.000000 0.000000 0.043576
#
#
# Mechanical properties :
#
#
# Convention : Reuss Voigt Hill
#
# Bulk Modulus (GPa) = 22.32663 37.01952 29.67307
# Shear Modulus (GPa) = 19.41749 22.79758 21.10754
#
# Velocity S-wave (km/s) = 3.27969 3.55370 3.41944
# Velocity P-wave (km/s) = 5.16815 6.11110 5.65930
#
# Compressibility (1/GPa) = 0.04478957
#
# Stress axis : x y z
#
# Youngs Moduli (GPa) = 74.27686 76.32965 23.21663
#
# Poissons Ratio (x) = 0.38127 0.04503
# Poissons Ratio (y) = 0.37101 0.12744
# Poissons Ratio (z) = 0.14405 0.41899
#
# Static dielectric constant tensor:
#      x y z
#    x 1.616400 0.000000 0.000000 
#    y 0.000000 1.587410 0.000000 
#    z 0.000000 0.000000 1.615970 
# 
# From -- ./inp_files/14800.got.cif
#   From: 2010.05.17/outbox.cif.g08.bks.cpg/sg62_8_cif.got.tgz:14800.got - 2010.06.03 15:25:27.
