data_PCOD9465529
_publ_section_title
;
Structure prediction by ZEFSAII (Michael W. Deem and Ramdas Pophale) SiO2 
 PCOD9465529
Probable space group: P N M A
;
_chemical_formula_sum "Si O2"
_cell_formula_units_Z 64
_cell_length_a 14.193369
_cell_length_b 18.412066
_cell_length_c 10.737233
_cell_angle_alpha 90.000000
_cell_angle_beta 90.000000
_cell_angle_gamma 90.000000
_cell_volume 2805.953013
_symmetry_space_group_name_H-M "P N M A"
_symmetry_group_IT_number 62
_symmetry_cell_setting 'orthorhombic'
loop_
_space_group_symop_operation_xyz
x,y,z
1/2-x,-y,1/2+z
1/2+x,1/2-y,1/2-z
-x,1/2+y,-z
-x,-y,-z
1/2+x,y,1/2-z
1/2-x,1/2+y,1/2+z
x,1/2-y,z
loop_
_atom_site_type_symbol
_atom_site_label
_atom_site_fract_x
_atom_site_fract_y
_atom_site_fract_z
Si Si1 0.887045 0.918560 0.178421
Si Si2 0.214638 0.834182 0.710819
Si Si3 0.422822 0.668260 0.944376
Si Si4 0.065302 0.335433 0.170785
Si Si5 0.279875 0.557276 0.060073
Si Si6 0.600809 0.577928 0.579338
Si Si7 0.791682 0.393970 0.544337
Si Si8 0.451625 0.166981 0.807634
O O1 0.824979 0.936831 0.302939
O O2 0.814263 0.877783 0.088277
O O3 0.976482 0.871310 0.214755
O O4 0.915599 0.995110 0.119393
O O5 0.206974 0.750000 0.747397
O O6 0.324879 0.854802 0.690040
O O7 0.163087 0.883601 0.811813
O O8 0.177045 0.844873 0.571101
O O9 0.383157 0.750000 0.932697
O O10 0.471836 0.652656 0.812646
O O11 0.341191 0.611956 0.976115
O O12 0.491268 0.667762 0.061738
O O13 0.059737 0.250000 0.140525
O O14 0.998528 0.380669 0.080132
O O15 0.169915 0.577289 0.040286
O O16 0.293476 0.476585 0.004520
O O17 0.859689 0.379065 0.659897
O O18 0.429177 0.250000 0.772468
#
# Coordination Sequence:
#
# PCOD9465529 Si02
#       8
#     8   8   8   8   8   8   8   8
#     4  10  24  41  61  91 121 161 203 257 303 358
#     4  11  22  39  63  91 127 162 202 257 305 359
#     4   9  18  33  56  87 120 151 192 251 299 347
#     4  10  21  35  58  93 125 156 194 246 312 369
#     4  10  21  38  60  87 122 157 202 248 303 360
#     4  11  21  37  62  92 123 162 201 250 308 369
#     4  11  23  41  63  89 122 162 207 249 305 369
#     4  10  22  39  62  88 115 160 211 251 297 354
#
# _framework density 22.80865
#
# number of rings (size 3 to 8) (size 9 to 14) (size 15 to 20)
#    0.000    1.750    2.500    1.500    1.750    3.500 
#    2.250    1.250    0.000    0.000    0.000    0.000 
#    0.000    0.000    0.000    0.000    0.000    0.000 
#
# Total GULP energy -357940.877114 kJ/mol
# GULP energy per Si atom -5592.826205 kJ/mol
# Density = 2.275674 g / cm^3
# Si number density = 22.808650 Si / 1000 Ang^3
#
#
#
# Elastic Constant Matrix: (Units=GPa)
#
#
# Indices 1 2 3 4 5 6 
#
# 1 84.3225 23.7810 15.0418 0.0000 0.0000 0.0000
# 2 23.7810 50.5690 12.8265 0.0000 0.0000 0.0000
# 3 15.0418 12.8265 73.7064 0.0000 0.0000 0.0000
# 4 0.0000 0.0000 0.0000 14.2518 0.0000 0.0000
# 5 0.0000 0.0000 0.0000 0.0000 36.5687 0.0000
# 6 0.0000 0.0000 0.0000 0.0000 0.0000 28.1808
#
#
#
# Elastic Compliance Matrix: (Units=1/GPa)
#
#
# Indices 1 2 3 4 5 6 
#
# 1 0.013891 -0.006082 -0.001776 0.000000 0.000000 0.000000
# 2 -0.006082 0.023351 -0.002822 0.000000 0.000000 0.000000
# 3 -0.001776 -0.002822 0.014421 0.000000 0.000000 0.000000
# 4 0.000000 0.000000 0.000000 0.070167 0.000000 0.000000
# 5 0.000000 0.000000 0.000000 0.000000 0.027346 0.000000
# 6 0.000000 0.000000 0.000000 0.000000 0.000000 0.035485
#
#
# Mechanical properties :
#
#
# Convention : Reuss Voigt Hill
#
# Bulk Modulus (GPa) = 33.00158 34.65515 33.82836
# Shear Modulus (GPa) = 23.13492 26.26351 24.69921
#
# Velocity S-wave (km/s) = 3.18827 3.39702 3.29430
# Velocity P-wave (km/s) = 5.29658 5.53291 5.41603
#
# Compressibility (1/GPa) = 0.03030158
#
# Stress axis : x y z
#
# Youngs Moduli (GPa) = 71.98687 42.82461 69.34309
#
# Poissons Ratio (x) = 0.26046 0.12319
# Poissons Ratio (y) = 0.43783 0.19571
# Poissons Ratio (z) = 0.12788 0.12087
#
# Static dielectric constant tensor:
#      x y z
#    x 1.889120 0.000000 0.000000 
#    y 0.000000 1.792460 0.000000 
#    z 0.000000 0.000000 1.880430 
# 
# From -- ./inp_files/13603.got.cif
#   From: 2010.05.17/outbox.cif.g08.bks.cpg/sg62_7_cif.got.tgz:13603.got - 2010.06.03 15:25:27.
