data_PCOD9465211
_publ_section_title
;
Structure prediction by ZEFSAII (Michael W. Deem and Ramdas Pophale) SiO2 
 PCOD9465211
Probable space group: P N M A
;
_chemical_formula_sum "Si O2"
_cell_formula_units_Z 48
_cell_length_a 9.621013
_cell_length_b 8.755918
_cell_length_c 28.537912
_cell_angle_alpha 90.000000
_cell_angle_beta 90.000000
_cell_angle_gamma 90.000000
_cell_volume 2404.056563
_symmetry_space_group_name_H-M "P N M A"
_symmetry_group_IT_number 62
_symmetry_cell_setting 'orthorhombic'
loop_
_space_group_symop_operation_xyz
x,y,z
1/2-x,-y,1/2+z
1/2+x,1/2-y,1/2-z
-x,1/2+y,-z
-x,-y,-z
1/2+x,y,1/2-z
1/2-x,1/2+y,1/2+z
x,1/2-y,z
loop_
_atom_site_type_symbol
_atom_site_label
_atom_site_fract_x
_atom_site_fract_y
_atom_site_fract_z
Si Si1 0.104497 0.930403 0.462166
Si Si2 0.690188 0.431309 0.385665
Si Si3 0.197363 0.935536 0.280201
Si Si4 0.852042 0.431424 0.987743
Si Si5 0.989877 0.435199 0.807172
Si Si6 0.023033 0.068659 0.640664
O O1 0.120941 0.750000 0.470519
O O2 0.045262 0.950946 0.410331
O O3 0.247861 0.014648 0.471863
O O4 0.000000 0.000000 0.500000
O O5 0.681692 0.250000 0.389312
O O6 0.695515 0.503100 0.437514
O O7 0.560243 0.496650 0.356373
O O8 0.831428 0.481538 0.359397
O O9 0.201750 0.750000 0.279994
O O10 0.125387 0.981360 0.231502
O O11 0.355604 0.984378 0.290645
O O12 0.089128 0.980725 0.320819
O O13 0.855376 0.250000 0.984816
O O14 0.000000 0.500000 0.000000
O O15 0.990139 0.250000 0.810360
O O16 0.051524 0.250000 0.647854
#
# Coordination Sequence:
#
# PCOD9465211 Si02
#       6
#     8   8   8   8   8   8
#     4  11  22  38  63  94 129 168 214 258 306 366
#     4  12  25  41  61  90 125 165 212 258 313 376
#     4   9  19  37  65  97 122 156 207 256 310 378
#     4  12  26  44  65  91 127 167 211 262 317 375
#     4  10  20  38  65  92 123 160 204 259 314 374
#     4  10  21  39  64  93 124 164 210 255 307 370
#
# _framework density 19.966252999999998
#
# number of rings (size 3 to 8) (size 9 to 14) (size 15 to 20)
#    0.000    1.333    1.667    4.500    2.333    3.333 
#    0.000    4.167    0.000    0.000    0.000    0.000 
#    0.000    0.000    0.000    0.000    0.000    0.000 
#
# Total GULP energy -268367.254578 kJ/mol
# GULP energy per Si atom -5590.984470 kJ/mol
# Density = 1.992081 g / cm^3
# Si number density = 19.966253 Si / 1000 Ang^3
#
#
#
# Elastic Constant Matrix: (Units=GPa)
#
#
# Indices 1 2 3 4 5 6 
#
# 1 114.6923 31.2587 7.4002 0.0000 0.0000 0.0000
# 2 31.2587 74.9239 37.1493 0.0000 0.0000 0.0000
# 3 7.4002 37.1493 55.1802 0.0000 0.0000 0.0000
# 4 0.0000 0.0000 0.0000 20.0741 0.0000 0.0000
# 5 0.0000 0.0000 0.0000 0.0000 34.5869 0.0000
# 6 0.0000 0.0000 0.0000 0.0000 0.0000 29.8989
#
#
#
# Elastic Compliance Matrix: (Units=1/GPa)
#
#
# Indices 1 2 3 4 5 6 
#
# 1 0.010013 -0.005271 0.002206 0.000000 0.000000 0.000000
# 2 -0.005271 0.022810 -0.014649 0.000000 0.000000 0.000000
# 3 0.002206 -0.014649 0.027689 0.000000 0.000000 0.000000
# 4 0.000000 0.000000 0.000000 0.049816 0.000000 0.000000
# 5 0.000000 0.000000 0.000000 0.000000 0.028913 0.000000
# 6 0.000000 0.000000 0.000000 0.000000 0.000000 0.033446
#
#
# Mechanical properties :
#
#
# Convention : Reuss Voigt Hill
#
# Bulk Modulus (GPa) = 39.86827 44.04584 41.95706
# Shear Modulus (GPa) = 23.09718 28.17785 25.63752
#
# Velocity S-wave (km/s) = 3.40488 3.76077 3.58724
# Velocity P-wave (km/s) = 5.95557 6.40046 6.18202
#
# Compressibility (1/GPa) = 0.02508260
#
# Stress axis : x y z
#
# Youngs Moduli (GPa) = 99.86677 43.84107 36.11535
#
# Poissons Ratio (x) = 0.23110 -0.07967
# Poissons Ratio (y) = 0.52644 0.52907
# Poissons Ratio (z) = -0.22031 0.64224
#
# Static dielectric constant tensor:
#      x y z
#    x 1.717780 0.000000 0.000000 
#    y 0.000000 1.673960 0.000000 
#    z 0.000000 0.000000 1.697430 
# 
# From -- ./inp_files/31959.got.cif
#   From: 2010.05.17/outbox.cif.g08.bks.cpg/sg62_16_cif.got.tgz:31959.got - 2010.06.03 15:25:27.
