data_PCOD9465434
_publ_section_title
;
Structure prediction by ZEFSAII (Michael W. Deem and Ramdas Pophale) SiO2 
 PCOD9465434
Probable space group: P N M A
;
_chemical_formula_sum "Si O2"
_cell_formula_units_Z 36
_cell_length_a 14.432111
_cell_length_b 10.502553
_cell_length_c 10.878044
_cell_angle_alpha 90.000000
_cell_angle_beta 90.000000
_cell_angle_gamma 90.000000
_cell_volume 1648.828757
_symmetry_space_group_name_H-M "P N M A"
_symmetry_group_IT_number 62
_symmetry_cell_setting 'orthorhombic'
loop_
_space_group_symop_operation_xyz
x,y,z
1/2-x,-y,1/2+z
1/2+x,1/2-y,1/2-z
-x,1/2+y,-z
-x,-y,-z
1/2+x,y,1/2-z
1/2-x,1/2+y,1/2+z
x,1/2-y,z
loop_
_atom_site_type_symbol
_atom_site_label
_atom_site_fract_x
_atom_site_fract_y
_atom_site_fract_z
Si Si1 0.849703 0.250000 0.595746
Si Si2 0.125306 0.002581 0.569195
Si Si3 0.560121 0.750000 0.360728
Si Si4 0.452529 0.605546 0.830618
Si Si5 0.163141 0.499124 0.111951
Si Si6 0.354668 0.750000 0.440698
O O1 0.868020 0.371692 0.510025
O O2 0.909023 0.250000 0.718514
O O3 0.741518 0.250000 0.633056
O O4 0.227874 0.031164 0.615341
O O5 0.047316 0.975356 0.670882
O O6 0.085363 0.100817 0.469962
O O7 0.604195 0.623820 0.421952
O O8 0.450171 0.750000 0.369145
O O9 0.471221 0.750000 0.792936
O O10 0.375227 0.545788 0.743505
O O11 0.148608 0.378138 0.023310
#
# Coordination Sequence:
#
# PCOD9465434 Si02
#       6
#     4   8   4   8   8   4
#     4  10  20  43  65  88 127 174 206 263 323 370
#     4  10  23  43  64  94 130 165 218 271 313 385
#     4  12  24  42  65 101 128 170 219 257 329 393
#     4  11  22  41  69  95 125 174 220 261 324 390
#     4  11  24  44  66  97 133 171 212 269 330 377
#     4  10  24  45  66  89 139 170 211 272 322 377
#
# _framework density 21.833680000000001
#
# number of rings (size 3 to 8) (size 9 to 14) (size 15 to 20)
#    0.000    1.333    4.444    0.667    1.556    1.778 
#    4.000    0.000    0.000    0.000    0.000    0.000 
#    0.000    0.000    0.000    0.000    0.000    0.000 
#
# Total GULP energy -201368.738286 kJ/mol
# GULP energy per Si atom -5593.576064 kJ/mol
# Density = 2.178399 g / cm^3
# Si number density = 21.833680 Si / 1000 Ang^3
#
#
#
# Elastic Constant Matrix: (Units=GPa)
#
#
# Indices 1 2 3 4 5 6 
#
# 1 192.4112 -4.2295 41.1158 0.0000 0.0000 0.0000
# 2 -4.2295 83.4331 1.4658 0.0000 0.0000 0.0000
# 3 41.1158 1.4658 39.1825 0.0000 0.0000 0.0000
# 4 0.0000 0.0000 0.0000 14.7894 0.0000 0.0000
# 5 0.0000 0.0000 0.0000 0.0000 37.4382 0.0000
# 6 0.0000 0.0000 0.0000 0.0000 0.0000 5.4285
#
#
#
# Elastic Compliance Matrix: (Units=1/GPa)
#
#
# Indices 1 2 3 4 5 6 
#
# 1 0.006717 0.000465 -0.007066 0.000000 0.000000 0.000000
# 2 0.000465 0.012026 -0.000937 0.000000 0.000000 0.000000
# 3 -0.007066 -0.000937 0.032972 0.000000 0.000000 0.000000
# 4 0.000000 0.000000 0.000000 0.067616 0.000000 0.000000
# 5 0.000000 0.000000 0.000000 0.000000 0.026711 0.000000
# 6 0.000000 0.000000 0.000000 0.000000 0.000000 0.184214
#
#
# Mechanical properties :
#
#
# Convention : Reuss Voigt Hill
#
# Bulk Modulus (GPa) = 27.29512 43.52566 35.41039
# Shear Modulus (GPa) = 13.98425 29.97619 21.98022
#
# Velocity S-wave (km/s) = 2.53354 3.70933 3.17631
# Velocity P-wave (km/s) = 4.59205 6.19063 5.45027
#
# Compressibility (1/GPa) = 0.03663659
#
# Stress axis : x y z
#
# Youngs Moduli (GPa) = 148.86782 83.15543 30.32922
#
# Poissons Ratio (x) = -0.03864 0.21431
# Poissons Ratio (y) = -0.06917 0.02843
# Poissons Ratio (z) = 1.05193 0.07795
#
# Static dielectric constant tensor:
#      x y z
#    x 1.779820 0.000000 0.000000 
#    y 0.000000 1.820050 0.000000 
#    z 0.000000 0.000000 1.783400 
# 
# From -- ./inp_files/11893.got.cif
#   From: 2010.05.17/outbox.cif.g08.bks.cpg/sg62_6_cif.got.tgz:11893.got - 2010.06.03 15:25:27.
