data_PCOD9465235
_publ_section_title
;
Structure prediction by ZEFSAII (Michael W. Deem and Ramdas Pophale) SiO2 
 PCOD9465235
Probable space group: P N M A
;
_chemical_formula_sum "Si O2"
_cell_formula_units_Z 40
_cell_length_a 21.990789
_cell_length_b 8.639111
_cell_length_c 9.507796
_cell_angle_alpha 90.000000
_cell_angle_beta 90.000000
_cell_angle_gamma 90.000000
_cell_volume 1806.299329
_symmetry_space_group_name_H-M "P N M A"
_symmetry_group_IT_number 62
_symmetry_cell_setting 'orthorhombic'
loop_
_space_group_symop_operation_xyz
x,y,z
1/2-x,-y,1/2+z
1/2+x,1/2-y,1/2-z
-x,1/2+y,-z
-x,-y,-z
1/2+x,y,1/2-z
1/2-x,1/2+y,1/2+z
x,1/2-y,z
loop_
_atom_site_type_symbol
_atom_site_label
_atom_site_fract_x
_atom_site_fract_y
_atom_site_fract_z
Si Si1 0.530387 0.750000 0.024155
Si Si2 0.174936 0.572541 0.041058
Si Si3 0.897490 0.750000 0.617855
Si Si4 0.379095 0.503357 0.088649
Si Si5 0.398983 0.750000 0.553997
Si Si6 0.950761 0.750000 0.230025
Si Si7 0.757869 0.422193 0.250640
O O1 0.464036 0.750000 0.954781
O O2 0.569385 0.608000 0.970265
O O3 0.515169 0.750000 0.189857
O O4 0.149426 0.750000 0.035882
O O5 0.133954 0.417208 0.029139
O O6 0.220567 0.559568 0.908636
O O7 0.212895 0.548167 0.184499
O O8 0.863100 0.894038 0.547761
O O9 0.911002 0.750000 0.780675
O O10 0.411495 0.606258 0.209306
O O11 0.319797 0.430299 0.157027
O O12 0.452203 0.750000 0.437354
O O13 0.730768 0.250000 0.269947
#
# Coordination Sequence:
#
# PCOD9465235 Si02
#       7
#     4   8   4   8   4   4   8
#     4  10  20  43  68 101 124 164 229 268 316 403
#     4  11  27  42  65  97 132 174 222 267 318 394
#     4  10  24  38  64  93 128 171 209 275 316 395
#     4  10  20  39  67  93 124 164 220 262 322 388
#     4  12  24  47  62  95 140 172 218 271 337 374
#     4  10  20  38  68  85 128 175 200 268 335 376
#     4  11  23  41  65  94 125 175 213 268 321 385
#
# _framework density 22.144725999999999
#
# number of rings (size 3 to 8) (size 9 to 14) (size 15 to 20)
#    0.000    1.600    4.000    2.400    7.000    0.000 
#    1.800    4.000    0.000    0.000    0.000    0.000 
#    0.000    0.000    0.000    0.000    0.000    0.000 
#
# Total GULP energy -223252.850238 kJ/mol
# GULP energy per Si atom -5581.321256 kJ/mol
# Density = 2.209432 g / cm^3
# Si number density = 22.144726 Si / 1000 Ang^3
#
#
#
# Elastic Constant Matrix: (Units=GPa)
#
#
# Indices 1 2 3 4 5 6 
#
# 1 28.7000 9.6290 -9.9944 0.0000 0.0000 0.0000
# 2 9.6290 125.1671 25.7061 0.0000 0.0000 0.0000
# 3 -9.9944 25.7061 134.4395 0.0000 0.0000 0.0000
# 4 0.0000 0.0000 0.0000 20.4752 0.0000 0.0000
# 5 0.0000 0.0000 0.0000 0.0000 20.3314 0.0000
# 6 0.0000 0.0000 0.0000 0.0000 0.0000 -4.2676
#
#
#
# Elastic Compliance Matrix: (Units=1/GPa)
#
#
# Indices 1 2 3 4 5 6 
#
# 1 0.037245 -0.003574 0.003452 0.000000 0.000000 0.000000
# 2 -0.003574 0.008659 -0.001921 0.000000 0.000000 0.000000
# 3 0.003452 -0.001921 0.008062 0.000000 0.000000 0.000000
# 4 0.000000 0.000000 0.000000 0.048840 0.000000 0.000000
# 5 0.000000 0.000000 0.000000 0.000000 0.049185 0.000000
# 6 0.000000 0.000000 0.000000 0.000000 0.000000 -0.234326
#
#
# Mechanical properties :
#
#
# Convention : Reuss Voigt Hill
#
# Bulk Modulus (GPa) = 20.04850 37.66534 28.85692
# Shear Modulus (GPa) = -81.13920 24.83887 -28.15017
#
# Velocity S-wave (km/s) = -6.05970 3.35275 -3.56924
# Velocity P-wave (km/s) = 6.31561 5.65982 1.98158
#
# Compressibility (1/GPa) = 0.04987904
#
# Stress axis : x y z
#
# Youngs Moduli (GPa) = 26.84959 115.48842 124.03384
#
# Poissons Ratio (x) = 0.41278 -0.42819
# Poissons Ratio (y) = 0.09597 0.23831
# Poissons Ratio (z) = -0.09269 0.22190
#
# Static dielectric constant tensor:
#      x y z
#    x 1.801790 0.000000 0.000000 
#    y 0.000000 1.980530 0.000000 
#    z 0.000000 0.000000 1.801790 
# 
# From -- ./inp_files/9163.got.cif
#   From: 2010.05.17/outbox.cif.g08.bks.cpg/sg62_5_cif.got.tgz:9163.got - 2010.06.03 15:25:27.
