data_PCOD9465330
_publ_section_title
;
Structure prediction by ZEFSAII (Michael W. Deem and Ramdas Pophale) SiO2 
 PCOD9465330
Probable space group: P N M A
;
_chemical_formula_sum "Si O2"
_cell_formula_units_Z 48
_cell_length_a 9.514513
_cell_length_b 23.994695
_cell_length_c 9.020661
_cell_angle_alpha 90.000000
_cell_angle_beta 90.000000
_cell_angle_gamma 90.000000
_cell_volume 2059.397399
_symmetry_space_group_name_H-M "P N M A"
_symmetry_group_IT_number 62
_symmetry_cell_setting 'orthorhombic'
loop_
_space_group_symop_operation_xyz
x,y,z
1/2-x,-y,1/2+z
1/2+x,1/2-y,1/2-z
-x,1/2+y,-z
-x,-y,-z
1/2+x,y,1/2-z
1/2-x,1/2+y,1/2+z
x,1/2-y,z
loop_
_atom_site_type_symbol
_atom_site_label
_atom_site_fract_x
_atom_site_fract_y
_atom_site_fract_z
Si Si1 0.174818 0.993297 0.629105
Si Si2 0.544760 0.908378 0.088603
Si Si3 0.346081 0.859709 0.891889
Si Si4 0.536746 0.250000 0.460624
Si Si5 0.451231 0.551847 0.653569
Si Si6 0.726827 0.750000 0.756330
Si Si7 0.067127 0.632023 0.082023
O O1 0.341027 0.998610 0.643540
O O2 0.154079 0.947803 0.497587
O O3 0.095926 0.968055 0.772725
O O4 0.088039 0.048895 0.597740
O O5 0.491355 0.858770 0.982676
O O6 0.580058 0.883305 0.246430
O O7 0.217445 0.870129 0.002223
O O8 0.376293 0.906804 0.770033
O O9 0.299675 0.804445 0.810698
O O10 0.703277 0.250000 0.420554
O O11 0.432184 0.250000 0.312522
O O12 0.496459 0.306474 0.548819
O O13 0.474327 0.586381 0.505221
#
# Coordination Sequence:
#
# PCOD9465330 Si02
#       7
#     8   8   8   4   8   4   8
#     4  10  24  42  63  93 126 172 219 259 314 391
#     4  10  25  41  61  91 137 166 210 265 326 380
#     4  10  22  41  62  94 127 165 215 265 317 385
#     4  10  22  41  66 100 124 164 223 262 324 382
#     4  11  21  40  66  92 123 169 217 259 317 381
#     4  10  20  39  68  90 126 166 213 268 308 390
#     4  11  23  39  67  95 129 168 213 272 322 383
#
# _framework density 23.307789
#
# number of rings (size 3 to 8) (size 9 to 14) (size 15 to 20)
#    0.000    1.667    3.333    0.000    4.667    4.000 
#    0.000    0.000    0.000    1.000    0.000    0.000 
#    0.000    0.000    0.000    0.000    0.000    0.000 
#
# Total GULP energy -268371.783544 kJ/mol
# GULP energy per Si atom -5591.078824 kJ/mol
# Density = 2.325474 g / cm^3
# Si number density = 23.307789 Si / 1000 Ang^3
#
#
#
# Elastic Constant Matrix: (Units=GPa)
#
#
# Indices 1 2 3 4 5 6 
#
# 1 75.0783 26.4834 11.8796 0.0000 0.0000 0.0000
# 2 26.4834 32.8340 -3.7806 0.0000 0.0000 0.0000
# 3 11.8796 -3.7806 84.7094 0.0000 0.0000 0.0000
# 4 0.0000 0.0000 0.0000 29.5166 0.0000 0.0000
# 5 0.0000 0.0000 0.0000 0.0000 13.2740 0.0000
# 6 0.0000 0.0000 0.0000 0.0000 0.0000 30.8266
#
#
#
# Elastic Compliance Matrix: (Units=1/GPa)
#
#
# Indices 1 2 3 4 5 6 
#
# 1 0.019580 -0.016192 -0.003469 0.000000 0.000000 0.000000
# 2 -0.016192 0.044004 0.004235 0.000000 0.000000 0.000000
# 3 -0.003469 0.004235 0.012480 0.000000 0.000000 0.000000
# 4 0.000000 0.000000 0.000000 0.033879 0.000000 0.000000
# 5 0.000000 0.000000 0.000000 0.000000 0.075335 0.000000
# 6 0.000000 0.000000 0.000000 0.000000 0.000000 0.032439
#
#
# Mechanical properties :
#
#
# Convention : Reuss Voigt Hill
#
# Bulk Modulus (GPa) = 22.11779 29.08739 25.60259
# Shear Modulus (GPa) = 18.96513 25.25940 22.11226
#
# Velocity S-wave (km/s) = 2.85561 3.29558 3.08345
# Velocity P-wave (km/s) = 4.51472 5.19499 4.86675
#
# Compressibility (1/GPa) = 0.04521247
#
# Stress axis : x y z
#
# Youngs Moduli (GPa) = 51.07254 22.72507 80.12512
#
# Poissons Ratio (x) = 0.36797 0.27792
# Poissons Ratio (y) = 0.82698 -0.33931
# Poissons Ratio (z) = 0.17715 -0.09623
#
# Static dielectric constant tensor:
#      x y z
#    x 1.889430 0.000000 0.000000 
#    y 0.000000 1.837430 0.000000 
#    z 0.000000 0.000000 1.923570 
# 
# From -- ./inp_files/4580.got.cif
#   From: 2010.05.17/outbox.cif.g08.bks.cpg/sg62_3_cif.got.tgz:4580.got - 2010.06.03 15:25:27.
