data_PCOD9465295
_publ_section_title
;
Structure prediction by ZEFSAII (Michael W. Deem and Ramdas Pophale) SiO2 
 PCOD9465295
Probable space group: P N M A
;
_chemical_formula_sum "Si O2"
_cell_formula_units_Z 64
_cell_length_a 16.882817
_cell_length_b 11.629736
_cell_length_c 15.623357
_cell_angle_alpha 90.000000
_cell_angle_beta 90.000000
_cell_angle_gamma 90.000000
_cell_volume 3067.532169
_symmetry_space_group_name_H-M "P N M A"
_symmetry_group_IT_number 62
_symmetry_cell_setting 'orthorhombic'
loop_
_space_group_symop_operation_xyz
x,y,z
1/2-x,-y,1/2+z
1/2+x,1/2-y,1/2-z
-x,1/2+y,-z
-x,-y,-z
1/2+x,y,1/2-z
1/2-x,1/2+y,1/2+z
x,1/2-y,z
loop_
_atom_site_type_symbol
_atom_site_label
_atom_site_fract_x
_atom_site_fract_y
_atom_site_fract_z
Si Si1 0.639279 0.478402 0.394105
Si Si2 0.391616 0.962651 0.175990
Si Si3 0.191635 0.455445 0.401994
Si Si4 0.203125 0.624456 0.561259
Si Si5 0.047391 0.122453 0.500129
Si Si6 0.365711 0.122947 0.441462
Si Si7 0.729353 0.616710 0.255054
Si Si8 0.508468 0.615767 0.710665
O O1 0.705932 0.383579 0.411478
O O2 0.614611 0.530266 0.485628
O O3 0.686189 0.579053 0.342912
O O4 0.569736 0.424716 0.338784
O O5 0.411786 0.884286 0.094160
O O6 0.324214 0.902679 0.233801
O O7 0.347738 0.074484 0.138178
O O8 0.467918 0.016902 0.221501
O O9 0.192715 0.545105 0.479836
O O10 0.112505 0.385196 0.423967
O O11 0.274091 0.388100 0.413080
O O12 0.196107 0.527978 0.315243
O O13 0.178193 0.750000 0.538744
O O14 0.008704 0.250000 0.493575
O O15 0.000000 0.000000 0.500000
O O16 0.379066 0.250000 0.477970
O O17 0.420370 0.111085 0.358577
O O18 0.714260 0.750000 0.234540
O O19 0.502270 0.750000 0.739972
#
# Coordination Sequence:
#
# PCOD9465295 Si02
#       8
#     8   8   8   8   8   8   8   8
#     4  10  22  36  57  88 125 160 208 253 318 382
#     4  10  22  41  63  90 125 166 215 264 318 387
#     4  10  21  39  63  91 122 160 214 262 315 385
#     4   9  18  35  58  83 115 160 211 261 314 373
#     4  11  26  46  69  97 133 177 222 273 330 394
#     4  10  20  39  64  86 119 164 208 256 312 381
#     4  11  22  40  64  92 125 163 212 269 319 377
#     4  11  22  38  61  91 130 166 206 263 321 382
#
# _framework density 20.863676000000002
#
# number of rings (size 3 to 8) (size 9 to 14) (size 15 to 20)
#    0.000    1.750    1.250    3.375    1.750    3.000 
#    0.000    3.125    0.000    0.000    0.000    0.000 
#    0.000    0.000    0.000    0.000    0.000    0.000 
#
# Total GULP energy -357141.573738 kJ/mol
# GULP energy per Si atom -5580.337090 kJ/mol
# Density = 2.081619 g / cm^3
# Si number density = 20.863676 Si / 1000 Ang^3
#
#
#
# Elastic Constant Matrix: (Units=GPa)
#
#
# Indices 1 2 3 4 5 6 
#
# 1 66.0434 25.5997 4.8958 0.0000 0.0000 0.0000
# 2 25.5997 110.6267 7.7951 0.0000 0.0000 0.0000
# 3 4.8958 7.7951 53.8298 0.0000 0.0000 0.0000
# 4 0.0000 0.0000 0.0000 -29.5612 0.0000 0.0000
# 5 0.0000 0.0000 0.0000 0.0000 33.7302 0.0000
# 6 0.0000 0.0000 0.0000 0.0000 0.0000 1.5335
#
#
#
# Elastic Compliance Matrix: (Units=1/GPa)
#
#
# Indices 1 2 3 4 5 6 
#
# 1 0.016683 -0.003792 -0.000968 0.000000 0.000000 0.000000
# 2 -0.003792 0.009995 -0.001102 0.000000 0.000000 0.000000
# 3 -0.000968 -0.001102 0.018825 0.000000 0.000000 0.000000
# 4 0.000000 0.000000 0.000000 -0.033828 0.000000 0.000000
# 5 0.000000 0.000000 0.000000 0.000000 0.029647 0.000000
# 6 0.000000 0.000000 0.000000 0.000000 0.000000 0.652121
#
#
# Mechanical properties :
#
#
# Convention : Reuss Voigt Hill
#
# Bulk Modulus (GPa) = 29.60612 34.12013 31.86313
# Shear Modulus (GPa) = 6.97907 13.95444 10.46676
#
# Velocity S-wave (km/s) = 1.83094 2.58900 2.24224
# Velocity P-wave (km/s) = 4.32329 5.03255 4.69134
#
# Compressibility (1/GPa) = 0.03377680
#
# Stress axis : x y z
#
# Youngs Moduli (GPa) = 59.94002 100.05330 53.12150
#
# Poissons Ratio (x) = 0.37944 0.05143
# Poissons Ratio (y) = 0.22732 0.05856
# Poissons Ratio (z) = 0.05803 0.11030
#
# Static dielectric constant tensor:
#      x y z
#    x 1.785210 0.000000 0.000000 
#    y 0.000000 1.753880 0.000000 
#    z 0.000000 0.000000 1.749510 
# 
# From -- ./inp_files/19876.got.cif
#   From: 2010.05.17/outbox.cif.g08.bks.cpg/sg62_10_cif.got.tgz:19876.got - 2010.06.03 15:25:27.
