data_PCOD9465321
_publ_section_title
;
Structure prediction by ZEFSAII (Michael W. Deem and Ramdas Pophale) SiO2 
 PCOD9465321
Probable space group: P N M A
;
_chemical_formula_sum "Si O2"
_cell_formula_units_Z 32
_cell_length_a 8.213662
_cell_length_b 13.333802
_cell_length_c 11.856196
_cell_angle_alpha 90.000000
_cell_angle_beta 90.000000
_cell_angle_gamma 90.000000
_cell_volume 1298.482794
_symmetry_space_group_name_H-M "P N M A"
_symmetry_group_IT_number 62
_symmetry_cell_setting 'orthorhombic'
loop_
_space_group_symop_operation_xyz
x,y,z
1/2-x,-y,1/2+z
1/2+x,1/2-y,1/2-z
-x,1/2+y,-z
-x,-y,-z
1/2+x,y,1/2-z
1/2-x,1/2+y,1/2+z
x,1/2-y,z
loop_
_atom_site_type_symbol
_atom_site_label
_atom_site_fract_x
_atom_site_fract_y
_atom_site_fract_z
Si Si1 0.465645 0.017644 0.371116
Si Si2 0.176864 0.631261 0.223330
Si Si3 0.483452 0.871699 0.070960
Si Si4 0.632009 0.129535 0.169669
O O1 0.585144 0.079942 0.288233
O O2 0.306618 0.084965 0.359817
O O3 0.500000 0.000000 0.500000
O O4 0.502357 0.905095 0.325516
O O5 0.189362 0.750000 0.221223
O O6 0.318404 0.593664 0.137684
O O7 0.143563 0.601916 0.355125
O O8 0.475783 0.750000 0.070935
O O9 0.480732 0.899410 0.938660
O O10 0.633683 0.250000 0.178998
#
# Coordination Sequence:
#
# PCOD9465321 Si02
#       4
#     8   8   8   8
#     4  12  25  43  72 104 136 189 243 296 360 433
#     4  10  20  39  65  96 135 175 227 294 352 410
#     4   9  19  38  63  92 133 180 225 283 351 417
#     4  11  25  47  68 100 146 191 238 297 362 433
#
# _framework density 24.644145999999999
#
# number of rings (size 3 to 8) (size 9 to 14) (size 15 to 20)
#    0.000    1.500    2.500    2.250    0.000    2.000 
#    4.500    0.000    0.000    0.000    0.000    0.000 
#    0.000    0.000    0.000    0.000    0.000    0.000 
#
# Total GULP energy -178447.056072 kJ/mol
# GULP energy per Si atom -5576.470502 kJ/mol
# Density = 2.458805 g / cm^3
# Si number density = 24.644146 Si / 1000 Ang^3
#
#
#
# Elastic Constant Matrix: (Units=GPa)
#
#
# Indices 1 2 3 4 5 6 
#
# 1 72.3027 26.1272 63.3686 0.0000 0.0000 0.0000
# 2 26.1272 111.0494 60.2638 0.0000 0.0000 0.0000
# 3 63.3686 60.2638 213.3676 0.0000 0.0000 0.0000
# 4 0.0000 0.0000 0.0000 45.4472 0.0000 0.0000
# 5 0.0000 0.0000 0.0000 0.0000 28.7512 0.0000
# 6 0.0000 0.0000 0.0000 0.0000 0.0000 34.4669
#
#
#
# Elastic Compliance Matrix: (Units=1/GPa)
#
#
# Indices 1 2 3 4 5 6 
#
# 1 0.018953 -0.001659 -0.005160 0.000000 0.000000 0.000000
# 2 -0.001659 0.010780 -0.002552 0.000000 0.000000 0.000000
# 3 -0.005160 -0.002552 0.006940 0.000000 0.000000 0.000000
# 4 0.000000 0.000000 0.000000 0.022004 0.000000 0.000000
# 5 0.000000 0.000000 0.000000 0.000000 0.034781 0.000000
# 6 0.000000 0.000000 0.000000 0.000000 0.000000 0.029013
#
#
# Mechanical properties :
#
#
# Convention : Reuss Voigt Hill
#
# Bulk Modulus (GPa) = 55.77001 77.35986 66.56493
# Shear Modulus (GPa) = 33.96951 38.19706 36.08328
#
# Velocity S-wave (km/s) = 3.71671 3.94120 3.83060
# Velocity P-wave (km/s) = 6.41076 7.22286 6.82889
#
# Compressibility (1/GPa) = 0.01793079
#
# Stress axis : x y z
#
# Youngs Moduli (GPa) = 52.76245 92.76214 144.08866
#
# Poissons Ratio (x) = 0.15387 0.74355
# Poissons Ratio (y) = 0.08752 0.36774
# Poissons Ratio (z) = 0.27227 0.23674
#
# Static dielectric constant tensor:
#      x y z
#    x 2.194960 0.000000 0.000000 
#    y 0.000000 2.021500 0.000000 
#    z 0.000000 0.000000 2.033980 
# 
# From -- ./inp_files/4888.got.cif
#   From: 2010.05.17/outbox.cif.g08.bks.cpg/sg62_3_cif.got.tgz:4888.got - 2010.06.03 15:25:27.
