data_PCOD9465944
_publ_section_title
;
Structure prediction by ZEFSAII (Michael W. Deem and Ramdas Pophale) SiO2 
 PCOD9465944
Probable space group: P N M A
;
_chemical_formula_sum "Si O2"
_cell_formula_units_Z 64
_cell_length_a 11.935948
_cell_length_b 9.001814
_cell_length_c 31.154403
_cell_angle_alpha 90.000000
_cell_angle_beta 90.000000
_cell_angle_gamma 90.000000
_cell_volume 3347.390557
_symmetry_space_group_name_H-M "P N M A"
_symmetry_group_IT_number 62
_symmetry_cell_setting 'orthorhombic'
loop_
_space_group_symop_operation_xyz
x,y,z
1/2-x,-y,1/2+z
1/2+x,1/2-y,1/2-z
-x,1/2+y,-z
-x,-y,-z
1/2+x,y,1/2-z
1/2-x,1/2+y,1/2+z
x,1/2-y,z
loop_
_atom_site_type_symbol
_atom_site_label
_atom_site_fract_x
_atom_site_fract_y
_atom_site_fract_z
Si Si1 0.241706 0.426422 0.448096
Si Si2 0.508761 0.576701 0.167071
Si Si3 0.987114 0.425416 0.423314
Si Si4 0.227908 0.426203 0.295543
Si Si5 0.133083 0.927407 0.118940
Si Si6 0.765801 0.925041 0.294740
Si Si7 0.369668 0.926889 0.368205
Si Si8 0.748798 0.073529 0.462904
O O1 0.260665 0.250000 0.446606
O O2 0.107998 0.453033 0.444212
O O3 0.301273 0.502751 0.407686
O O4 0.282947 0.493841 0.492899
O O5 0.541312 0.750000 0.166848
O O6 0.479384 0.523679 0.119270
O O7 0.610659 0.479627 0.184334
O O8 0.397500 0.559900 0.195420
O O9 0.982767 0.250000 0.411598
O O10 0.880266 0.455821 0.452986
O O11 0.237884 0.250000 0.298118
O O12 0.234062 0.482478 0.246892
O O13 0.323825 0.502087 0.324433
O O14 0.150481 0.750000 0.112857
O O15 0.199084 0.970206 0.162313
O O16 0.001410 0.954513 0.125317
O O17 0.180813 0.011840 0.077725
O O18 0.741547 0.750000 0.287043
O O19 0.351320 0.750000 0.367136
O O20 0.733214 0.250000 0.466912
#
# Coordination Sequence:
#
# PCOD9465944 Si02
#       8
#     8   8   8   8   8   8   8   8
#     4  11  23  40  63  91 126 166 207 255 312 369
#     4  11  22  39  68  95 124 164 206 256 308 367
#     4  10  21  38  61  93 129 162 201 256 311 365
#     4  12  26  42  63  94 131 166 205 254 311 371
#     4  10  23  44  66  90 122 161 209 261 310 366
#     4  10  23  43  66  94 124 163 211 256 309 366
#     4  11  24  43  66  91 122 163 212 261 309 366
#     4  11  23  39  63  94 127 163 206 254 311 375
#
# _framework density 19.11937
#
# number of rings (size 3 to 8) (size 9 to 14) (size 15 to 20)
#    0.000    1.250    2.500    3.000    1.750    4.000 
#    0.000    0.000    0.000    0.000    0.000    0.000 
#    0.000    0.000    0.000    0.000    0.000    0.000 
#
# Total GULP energy -357914.495743 kJ/mol
# GULP energy per Si atom -5592.413996 kJ/mol
# Density = 1.907585 g / cm^3
# Si number density = 19.119370 Si / 1000 Ang^3
#
#
#
# Elastic Constant Matrix: (Units=GPa)
#
#
# Indices 1 2 3 4 5 6 
#
# 1 41.5827 22.1138 -9.4006 0.0000 0.0000 0.0000
# 2 22.1138 62.8495 29.2228 0.0000 0.0000 0.0000
# 3 -9.4006 29.2228 70.2494 0.0000 0.0000 0.0000
# 4 0.0000 0.0000 0.0000 37.6350 0.0000 0.0000
# 5 0.0000 0.0000 0.0000 0.0000 7.4559 0.0000
# 6 0.0000 0.0000 0.0000 0.0000 0.0000 21.0556
#
#
#
# Elastic Compliance Matrix: (Units=1/GPa)
#
#
# Indices 1 2 3 4 5 6 
#
# 1 0.037086 -0.019039 0.012883 0.000000 0.000000 0.000000
# 2 -0.019039 0.029500 -0.014819 0.000000 0.000000 0.000000
# 3 0.012883 -0.014819 0.022124 0.000000 0.000000 0.000000
# 4 0.000000 0.000000 0.000000 0.026571 0.000000 0.000000
# 5 0.000000 0.000000 0.000000 0.000000 0.134123 0.000000
# 6 0.000000 0.000000 0.000000 0.000000 0.000000 0.047493
#
#
# Mechanical properties :
#
#
# Convention : Reuss Voigt Hill
#
# Bulk Modulus (GPa) = 21.38651 28.72817 25.05734
# Shear Modulus (GPa) = 14.10701 22.07900 18.09300
#
# Velocity S-wave (km/s) = 2.71927 3.40192 3.07957
# Velocity P-wave (km/s) = 4.59013 5.52169 5.07732
#
# Compressibility (1/GPa) = 0.04675844
#
# Stress axis : x y z
#
# Youngs Moduli (GPa) = 26.96464 33.89790 45.20066
#
# Poissons Ratio (x) = 0.64537 -0.58230
# Poissons Ratio (y) = 0.51337 0.66985
# Poissons Ratio (z) = -0.34737 0.50235
#
# Static dielectric constant tensor:
#      x y z
#    x 1.656970 0.000000 0.000000 
#    y 0.000000 1.637080 0.000000 
#    z 0.000000 0.000000 1.633400 
# 
# From -- ./inp_files/32465.got.cif
#   From: 2010.05.17/outbox.cif.g08.bks.cpg/sg62_17_cif.got.tgz:32465.got - 2010.06.03 15:25:27.
