data_PCOD9465628
_publ_section_title
;
Structure prediction by ZEFSAII (Michael W. Deem and Ramdas Pophale) SiO2 
 PCOD9465628
Probable space group: P N M A
;
_chemical_formula_sum "Si O2"
_cell_formula_units_Z 56
_cell_length_a 15.586615
_cell_length_b 7.863974
_cell_length_c 20.782859
_cell_angle_alpha 90.000000
_cell_angle_beta 90.000000
_cell_angle_gamma 90.000000
_cell_volume 2547.411871
_symmetry_space_group_name_H-M "P N M A"
_symmetry_group_IT_number 62
_symmetry_cell_setting 'orthorhombic'
loop_
_space_group_symop_operation_xyz
x,y,z
1/2-x,-y,1/2+z
1/2+x,1/2-y,1/2-z
-x,1/2+y,-z
-x,-y,-z
1/2+x,y,1/2-z
1/2-x,1/2+y,1/2+z
x,1/2-y,z
loop_
_atom_site_type_symbol
_atom_site_label
_atom_site_fract_x
_atom_site_fract_y
_atom_site_fract_z
Si Si1 0.268040 0.956461 0.466768
Si Si2 0.189794 0.041934 0.684451
Si Si3 0.654015 0.950595 0.403710
Si Si4 0.500344 0.057757 0.317704
Si Si5 0.187084 0.443538 0.826282
Si Si6 0.491576 0.455633 0.822108
Si Si7 0.579959 0.545840 0.043990
O O1 0.272720 0.750000 0.466747
O O2 0.286013 0.019214 0.394418
O O3 0.171146 0.013310 0.483021
O O4 0.332780 0.018534 0.520984
O O5 0.189295 0.250000 0.685374
O O6 0.260535 0.985736 0.633383
O O7 0.212106 0.982173 0.756932
O O8 0.091632 0.991331 0.669740
O O9 0.647165 0.750000 0.391594
O O10 0.570667 0.032450 0.372213
O O11 0.468100 0.250000 0.318460
O O12 0.416525 0.942270 0.325522
O O13 0.538793 0.019371 0.247247
O O14 0.220955 0.250000 0.826433
O O15 0.489404 0.250000 0.820632
O O16 0.437645 0.515188 0.883331
O O17 0.584417 0.750000 0.047075
O O18 0.500000 0.500000 0.000000
#
# Coordination Sequence:
#
# PCOD9465628 Si02
#       7
#     8   8   8   8   8   8   8
#     4  10  22  38  58  86 118 152 192 243 294 339
#     4   8  16  32  58  85 107 142 192 237 274 329
#     4  11  22  37  60  85 114 153 195 237 287 352
#     4  11  23  38  57  85 116 147 189 244 297 344
#     4   9  19  39  62  83 110 148 195 242 289 344
#     4   9  18  36  60  84 112 151 195 233 280 347
#     4  10  21  36  59  88 122 159 195 238 287 347
#
# _framework density 21.983097000000001
#
# number of rings (size 3 to 8) (size 9 to 14) (size 15 to 20)
#    0.000    2.286    0.000    3.429    2.000    3.429 
#    0.000    7.143    0.000    0.000    0.000    0.000 
#    0.000    0.000    0.000    0.000    0.000    0.000 
#
# Total GULP energy -312793.159609 kJ/mol
# GULP energy per Si atom -5585.592136 kJ/mol
# Density = 2.193306 g / cm^3
# Si number density = 21.983097 Si / 1000 Ang^3
#
#
#
# Elastic Constant Matrix: (Units=GPa)
#
#
# Indices 1 2 3 4 5 6 
#
# 1 21.8616 -5.9291 4.6762 0.0000 0.0000 0.0000
# 2 -5.9291 36.7660 -6.2483 0.0000 0.0000 0.0000
# 3 4.6762 -6.2483 78.7899 0.0000 0.0000 0.0000
# 4 0.0000 0.0000 0.0000 16.6212 0.0000 0.0000
# 5 0.0000 0.0000 0.0000 0.0000 37.1749 0.0000
# 6 0.0000 0.0000 0.0000 0.0000 0.0000 13.3724
#
#
#
# Elastic Compliance Matrix: (Units=1/GPa)
#
#
# Indices 1 2 3 4 5 6 
#
# 1 0.048234 0.007392 -0.002277 0.000000 0.000000 0.000000
# 2 0.007392 0.028703 0.001838 0.000000 0.000000 0.000000
# 3 -0.002277 0.001838 0.012973 0.000000 0.000000 0.000000
# 4 0.000000 0.000000 0.000000 0.060164 0.000000 0.000000
# 5 0.000000 0.000000 0.000000 0.000000 0.026900 0.000000
# 6 0.000000 0.000000 0.000000 0.000000 0.000000 0.074781
#
#
# Mechanical properties :
#
#
# Convention : Reuss Voigt Hill
#
# Bulk Modulus (GPa) = 9.63251 13.60171 11.61711
# Shear Modulus (GPa) = 18.35168 23.09496 20.72332
#
# Velocity S-wave (km/s) = 2.89244 3.24478 3.07366
# Velocity P-wave (km/s) = 3.94287 4.49877 4.22996
#
# Compressibility (1/GPa) = 0.10381511
#
# Stress axis : x y z
#
# Youngs Moduli (GPa) = 20.73230 34.83919 77.08427
#
# Poissons Ratio (x) = -0.25751 0.17549
# Poissons Ratio (y) = -0.15324 -0.14165
# Poissons Ratio (z) = 0.04720 -0.06402
#
# Static dielectric constant tensor:
#      x y z
#    x 1.785770 0.000000 0.000000 
#    y 0.000000 1.829710 0.000000 
#    z 0.000000 0.000000 1.798730 
# 
# From -- ./inp_files/27188.got.cif
#   From: 2010.05.17/outbox.cif.g08.bks.cpg/sg62_14_cif.got.tgz:27188.got - 2010.06.03 15:25:27.
