data_PCOD9465304
_publ_section_title
;
Structure prediction by ZEFSAII (Michael W. Deem and Ramdas Pophale) SiO2 
 PCOD9465304
Probable space group: P N M A
;
_chemical_formula_sum "Si O2"
_cell_formula_units_Z 56
_cell_length_a 14.910007
_cell_length_b 8.951882
_cell_length_c 21.779232
_cell_angle_alpha 90.000000
_cell_angle_beta 90.000000
_cell_angle_gamma 90.000000
_cell_volume 2906.931228
_symmetry_space_group_name_H-M "P N M A"
_symmetry_group_IT_number 62
_symmetry_cell_setting 'orthorhombic'
loop_
_space_group_symop_operation_xyz
x,y,z
1/2-x,-y,1/2+z
1/2+x,1/2-y,1/2-z
-x,1/2+y,-z
-x,-y,-z
1/2+x,y,1/2-z
1/2-x,1/2+y,1/2+z
x,1/2-y,z
loop_
_atom_site_type_symbol
_atom_site_label
_atom_site_fract_x
_atom_site_fract_y
_atom_site_fract_z
Si Si1 0.603822 0.428818 0.739800
Si Si2 0.729152 0.071308 0.986001
Si Si3 0.190548 0.571143 0.281241
Si Si4 0.910574 0.929225 0.384297
Si Si5 0.401361 0.928234 0.900152
Si Si6 0.930588 0.571466 0.821173
Si Si7 0.916677 0.928155 0.964968
O O1 0.589582 0.250000 0.733425
O O2 0.703799 0.464295 0.716811
O O3 0.598934 0.464416 0.812342
O O4 0.526036 0.514520 0.704205
O O5 0.744694 0.250000 0.984776
O O6 0.676278 0.028427 0.923883
O O7 0.823062 0.988589 0.990954
O O8 0.663222 0.038268 0.042632
O O9 0.180257 0.750000 0.281288
O O10 0.139267 0.502160 0.339121
O O11 0.145432 0.505994 0.220024
O O12 0.921243 0.750000 0.390148
O O13 0.999321 0.007851 0.409578
O O14 0.405575 0.750000 0.892486
O O15 0.924508 0.750000 0.814303
O O16 0.920876 0.532983 0.892698
O O17 0.920834 0.750000 0.970696
O O18 0.000000 0.000000 0.000000
#
# Coordination Sequence:
#
# PCOD9465304 Si02
#       7
#     8   8   8   8   8   8   8
#     4  10  22  38  62  92 121 161 208 252 305 368
#     4  10  23  42  64  91 127 168 209 259 312 368
#     4  11  23  40  63  92 126 166 212 257 308 372
#     4  10  20  39  64  92 125 164 210 255 309 375
#     4  11  23  38  60  93 129 165 207 259 316 365
#     4  11  24  42  64  93 126 161 203 257 316 369
#     4  11  26  45  66  93 125 165 212 259 312 374
#
# _framework density 19.264303000000002
#
# number of rings (size 3 to 8) (size 9 to 14) (size 15 to 20)
#    0.000    1.429    1.429    3.000    2.000    6.286 
#    0.000    0.000    0.000    0.000    0.000    0.000 
#    0.000    0.000    0.000    0.000    0.000    0.000 
#
# Total GULP energy -313220.189451 kJ/mol
# GULP energy per Si atom -5593.217669 kJ/mol
# Density = 1.922046 g / cm^3
# Si number density = 19.264303 Si / 1000 Ang^3
#
#
#
# Elastic Constant Matrix: (Units=GPa)
#
#
# Indices 1 2 3 4 5 6 
#
# 1 97.2741 20.8096 -3.7214 0.0000 0.0000 0.0000
# 2 20.8096 18.9978 11.3149 0.0000 0.0000 0.0000
# 3 -3.7214 11.3149 31.8848 0.0000 0.0000 0.0000
# 4 0.0000 0.0000 0.0000 25.4217 0.0000 0.0000
# 5 0.0000 0.0000 0.0000 0.0000 24.8156 0.0000
# 6 0.0000 0.0000 0.0000 0.0000 0.0000 31.8965
#
#
#
# Elastic Compliance Matrix: (Units=1/GPa)
#
#
# Indices 1 2 3 4 5 6 
#
# 1 0.015588 -0.023025 0.009990 0.000000 0.000000 0.000000
# 2 -0.023025 0.100754 -0.038442 0.000000 0.000000 0.000000
# 3 0.009990 -0.038442 0.046171 0.000000 0.000000 0.000000
# 4 0.000000 0.000000 0.000000 0.039336 0.000000 0.000000
# 5 0.000000 0.000000 0.000000 0.000000 0.040297 0.000000
# 6 0.000000 0.000000 0.000000 0.000000 0.000000 0.031351
#
#
# Mechanical properties :
#
#
# Convention : Reuss Voigt Hill
#
# Bulk Modulus (GPa) = 16.78979 22.77364 19.78172
# Shear Modulus (GPa) = 12.61660 24.41033 18.51346
#
# Velocity S-wave (km/s) = 2.56192 3.56354 3.10340
# Velocity P-wave (km/s) = 4.18158 5.36461 4.80961
#
# Compressibility (1/GPa) = 0.05956000
#
# Stress axis : x y z
#
# Youngs Moduli (GPa) = 64.15189 9.92519 21.65877
#
# Poissons Ratio (x) = 0.22852 -0.21637
# Poissons Ratio (y) = 1.47707 0.83260
# Poissons Ratio (z) = -0.64088 0.38154
#
# Static dielectric constant tensor:
#      x y z
#    x 1.640760 0.000000 0.000000 
#    y 0.000000 1.643850 0.000000 
#    z 0.000000 0.000000 1.657660 
# 
# From -- ./inp_files/27151.got.cif
#   From: 2010.05.17/outbox.cif.g08.bks.cpg/sg62_14_cif.got.tgz:27151.got - 2010.06.03 15:25:27.
