data_PCOD9465523
_publ_section_title
;
Structure prediction by ZEFSAII (Michael W. Deem and Ramdas Pophale) SiO2 
 PCOD9465523
Probable space group: P N M A
;
_chemical_formula_sum "Si O2"
_cell_formula_units_Z 64
_cell_length_a 14.537440
_cell_length_b 8.601839
_cell_length_c 25.385266
_cell_angle_alpha 90.000000
_cell_angle_beta 90.000000
_cell_angle_gamma 90.000000
_cell_volume 3174.394978
_symmetry_space_group_name_H-M "P N M A"
_symmetry_group_IT_number 62
_symmetry_cell_setting 'orthorhombic'
loop_
_space_group_symop_operation_xyz
x,y,z
1/2-x,-y,1/2+z
1/2+x,1/2-y,1/2-z
-x,1/2+y,-z
-x,-y,-z
1/2+x,y,1/2-z
1/2-x,1/2+y,1/2+z
x,1/2-y,z
loop_
_atom_site_type_symbol
_atom_site_label
_atom_site_fract_x
_atom_site_fract_y
_atom_site_fract_z
Si Si1 0.309035 0.062531 0.699316
Si Si2 0.023034 0.425524 0.944668
Si Si3 0.848025 0.933822 0.609024
Si Si4 0.529729 0.938300 0.942320
Si Si5 0.227482 0.426163 0.977736
Si Si6 0.491002 0.938558 0.329230
Si Si7 0.731945 0.436081 0.915927
Si Si8 0.290915 0.063840 0.300759
O O1 0.302530 0.250000 0.704477
O O2 0.417109 0.019266 0.702568
O O3 0.270751 0.021765 0.641346
O O4 0.249858 0.983686 0.744592
O O5 0.986384 0.250000 0.945808
O O6 0.133781 0.422751 0.944865
O O7 0.994253 0.497572 0.889288
O O8 0.000000 0.500000 0.000000
O O9 0.854014 0.750000 0.617736
O O10 0.781906 0.997155 0.655024
O O11 0.951850 0.990747 0.599882
O O12 0.797840 0.967261 0.553717
O O13 0.531596 0.750000 0.943962
O O14 0.628729 0.002661 0.925664
O O15 0.500000 0.000000 0.000000
O O16 0.263608 0.250000 0.981135
O O17 0.210647 0.489961 0.036107
O O18 0.486574 0.750000 0.331574
O O19 0.393364 0.998151 0.308882
O O20 0.734063 0.250000 0.920517
O O21 0.296245 0.250000 0.305626
#
# Coordination Sequence:
#
# PCOD9465523 Si02
#       8
#     8   8   8   8   8   8   8   8
#     4  10  24  44  66  90 122 167 211 255 308 368
#     4  10  21  35  56  89 124 160 200 248 302 364
#     4  10  22  39  59  85 120 160 200 249 309 366
#     4  11  22  37  59  89 125 166 210 255 310 372
#     4  11  21  34  58  89 120 157 201 251 304 362
#     4  10  21  42  66  90 123 163 208 254 304 368
#     4  11  23  40  61  88 125 166 206 255 315 371
#     4  11  24  42  66  94 124 161 206 261 316 365
#
# _framework density 20.161321999999998
#
# number of rings (size 3 to 8) (size 9 to 14) (size 15 to 20)
#    0.000    1.500    2.500    2.250    0.000    6.000 
#    0.000    2.500    0.000    0.000    0.000    0.000 
#    0.000    0.000    0.000    0.000    0.000    0.000 
#
# Total GULP energy -357394.188857 kJ/mol
# GULP energy per Si atom -5584.284201 kJ/mol
# Density = 2.011543 g / cm^3
# Si number density = 20.161322 Si / 1000 Ang^3
#
#
#
# Elastic Constant Matrix: (Units=GPa)
#
#
# Indices 1 2 3 4 5 6 
#
# 1 110.5128 16.3440 36.8866 0.0000 0.0000 0.0000
# 2 16.3440 11.3068 5.9660 0.0000 0.0000 0.0000
# 3 36.8866 5.9660 93.0042 0.0000 0.0000 0.0000
# 4 0.0000 0.0000 0.0000 27.7956 0.0000 0.0000
# 5 0.0000 0.0000 0.0000 0.0000 32.6595 0.0000
# 6 0.0000 0.0000 0.0000 0.0000 0.0000 24.5362
#
#
#
# Elastic Compliance Matrix: (Units=1/GPa)
#
#
# Indices 1 2 3 4 5 6 
#
# 1 0.012821 -0.016405 -0.004033 0.000000 0.000000 0.000000
# 2 -0.016405 0.112531 -0.000712 0.000000 0.000000 0.000000
# 3 -0.004033 -0.000712 0.012397 0.000000 0.000000 0.000000
# 4 0.000000 0.000000 0.000000 0.035977 0.000000 0.000000
# 5 0.000000 0.000000 0.000000 0.000000 0.030619 0.000000
# 6 0.000000 0.000000 0.000000 0.000000 0.000000 0.040756
#
#
# Mechanical properties :
#
#
# Convention : Reuss Voigt Hill
#
# Bulk Modulus (GPa) = 10.47671 37.02409 23.75040
# Shear Modulus (GPa) = 15.66336 27.37342 21.51839
#
# Velocity S-wave (km/s) = 2.79032 3.68872 3.27052
# Velocity P-wave (km/s) = 3.94828 6.04533 5.10563
#
# Compressibility (1/GPa) = 0.09544983
#
# Stress axis : x y z
#
# Youngs Moduli (GPa) = 77.99816 8.88646 80.66296
#
# Poissons Ratio (x) = 0.14578 0.32528
# Poissons Ratio (y) = 1.27953 0.05745
# Poissons Ratio (z) = 0.31453 0.00633
#
# Static dielectric constant tensor:
#      x y z
#    x 1.733080 0.000000 0.000000 
#    y 0.000000 1.732660 0.000000 
#    z 0.000000 0.000000 1.702060 
# 
# From -- ./inp_files/29769.got.cif
#   From: 2010.05.17/outbox.cif.g08.bks.cpg/sg62_15_cif.got.tgz:29769.got - 2010.06.03 15:25:27.
