data_PCOD9465498
_publ_section_title
;
Structure prediction by ZEFSAII (Michael W. Deem and Ramdas Pophale) SiO2 
 PCOD9465498
Probable space group: P N M A
;
_chemical_formula_sum "Si O2"
_cell_formula_units_Z 64
_cell_length_a 19.865742
_cell_length_b 8.613966
_cell_length_c 21.092758
_cell_angle_alpha 90.000000
_cell_angle_beta 90.000000
_cell_angle_gamma 90.000000
_cell_volume 3609.452360
_symmetry_space_group_name_H-M "P N M A"
_symmetry_group_IT_number 62
_symmetry_cell_setting 'orthorhombic'
loop_
_space_group_symop_operation_xyz
x,y,z
1/2-x,-y,1/2+z
1/2+x,1/2-y,1/2-z
-x,1/2+y,-z
-x,-y,-z
1/2+x,y,1/2-z
1/2-x,1/2+y,1/2+z
x,1/2-y,z
loop_
_atom_site_type_symbol
_atom_site_label
_atom_site_fract_x
_atom_site_fract_y
_atom_site_fract_z
Si Si1 0.457309 0.563197 0.187775
Si Si2 0.536173 0.936037 0.062144
Si Si3 0.170793 0.436824 0.239730
Si Si4 0.035337 0.935739 0.937590
Si Si5 0.537207 0.564540 0.313767
Si Si6 0.327484 0.562891 0.888680
Si Si7 0.676199 0.936903 0.761329
Si Si8 0.675901 0.561020 0.614466
O O1 0.458195 0.750000 0.187445
O O2 0.495428 0.509261 0.124727
O O3 0.496853 0.510986 0.250922
O O4 0.381174 0.506178 0.194655
O O5 0.534896 0.750000 0.060914
O O6 0.612886 0.991710 0.070341
O O7 0.500000 0.000000 0.000000
O O8 0.164509 0.250000 0.234938
O O9 0.114161 0.517284 0.198169
O O10 0.161658 0.477565 0.314268
O O11 0.247227 0.479802 0.221988
O O12 0.036235 0.750000 0.940783
O O13 0.112696 0.990357 0.927333
O O14 0.994351 0.987822 0.875621
O O15 0.000000 0.000000 0.000000
O O16 0.531232 0.750000 0.318885
O O17 0.330258 0.750000 0.893250
O O18 0.251173 0.512291 0.905190
O O19 0.671851 0.750000 0.762610
O O20 0.664739 0.986300 0.687916
O O21 0.676607 0.750000 0.614625
#
# Coordination Sequence:
#
# PCOD9465498 Si02
#       8
#     8   8   8   8   8   8   8   8
#     4  10  21  35  53  80 113 141 176 225 275 325
#     4  11  23  39  55  80 113 147 185 227 275 327
#     4   9  18  32  54  84 113 141 180 229 277 328
#     4  11  22  38  58  82 114 150 189 230 277 331
#     4  11  21  35  55  82 113 145 183 227 276 328
#     4   9  17  33  57  82 107 140 181 223 273 330
#     4   9  17  32  55  83 110 140 183 227 273 329
#     4   8  16  32  55  81 108 140 179 223 271 327
#
# _framework density 17.731221999999999
#
# number of rings (size 3 to 8) (size 9 to 14) (size 15 to 20)
#    0.000    2.250    2.500    2.625    0.000    2.000 
#    0.000    4.375    0.000    1.500    0.000    0.000 
#    0.000    0.000    0.000    0.000    0.000    0.000 
#
# Total GULP energy -357070.131485 kJ/mol
# GULP energy per Si atom -5579.220804 kJ/mol
# Density = 1.769087 g / cm^3
# Si number density = 17.731222 Si / 1000 Ang^3
#
#
#
# Elastic Constant Matrix: (Units=GPa)
#
#
# Indices 1 2 3 4 5 6 
#
# 1 167.4156 29.8801 81.1558 0.0000 0.0000 0.0000
# 2 29.8801 21.6944 29.7008 0.0000 0.0000 0.0000
# 3 81.1558 29.7008 112.7152 0.0000 0.0000 0.0000
# 4 0.0000 0.0000 0.0000 24.0065 0.0000 0.0000
# 5 0.0000 0.0000 0.0000 0.0000 29.2136 0.0000
# 6 0.0000 0.0000 0.0000 0.0000 0.0000 28.4512
#
#
#
# Elastic Compliance Matrix: (Units=1/GPa)
#
#
# Indices 1 2 3 4 5 6 
#
# 1 0.009636 -0.005903 -0.005383 0.000000 0.000000 0.000000
# 2 -0.005903 0.075724 -0.015703 0.000000 0.000000 0.000000
# 3 -0.005383 -0.015703 0.016885 0.000000 0.000000 0.000000
# 4 0.000000 0.000000 0.000000 0.041655 0.000000 0.000000
# 5 0.000000 0.000000 0.000000 0.000000 0.034231 0.000000
# 6 0.000000 0.000000 0.000000 0.000000 0.000000 0.035148
#
#
# Mechanical properties :
#
#
# Convention : Reuss Voigt Hill
#
# Bulk Modulus (GPa) = 20.71784 64.81095 42.76439
# Shear Modulus (GPa) = 17.64630 27.07350 22.35990
#
# Velocity S-wave (km/s) = 3.15812 3.91177 3.55497
# Velocity P-wave (km/s) = 5.00080 7.55208 6.40476
#
# Compressibility (1/GPa) = 0.04826758
#
# Stress axis : x y z
#
# Youngs Moduli (GPa) = 103.77879 13.20588 59.22309
#
# Poissons Ratio (x) = 0.07795 0.31877
# Poissons Ratio (y) = 0.61257 0.93001
# Poissons Ratio (z) = 0.55859 0.20738
#
# Static dielectric constant tensor:
#      x y z
#    x 1.618420 0.000000 0.000000 
#    y 0.000000 1.590640 0.000000 
#    z 0.000000 0.000000 1.578720 
# 
# From -- ./inp_files/27709.got.cif
#   From: 2010.05.17/outbox.cif.g08.bks.cpg/sg62_14_cif.got.tgz:27709.got - 2010.06.03 15:25:27.
