data_PCOD9465254
_publ_section_title
;
Structure prediction by ZEFSAII (Michael W. Deem and Ramdas Pophale) SiO2 
 PCOD9465254
Probable space group: P N M A
;
_chemical_formula_sum "Si O2"
_cell_formula_units_Z 48
_cell_length_a 19.237733
_cell_length_b 7.700084
_cell_length_c 15.467487
_cell_angle_alpha 90.000000
_cell_angle_beta 90.000000
_cell_angle_gamma 90.000000
_cell_volume 2291.232260
_symmetry_space_group_name_H-M "P N M A"
_symmetry_group_IT_number 62
_symmetry_cell_setting 'orthorhombic'
loop_
_space_group_symop_operation_xyz
x,y,z
1/2-x,-y,1/2+z
1/2+x,1/2-y,1/2-z
-x,1/2+y,-z
-x,-y,-z
1/2+x,y,1/2-z
1/2-x,1/2+y,1/2+z
x,1/2-y,z
loop_
_atom_site_type_symbol
_atom_site_label
_atom_site_fract_x
_atom_site_fract_y
_atom_site_fract_z
Si Si1 0.478222 0.040762 0.097617
Si Si2 0.284954 0.962635 0.484941
Si Si3 0.322241 0.040109 0.133250
Si Si4 0.266645 0.044831 0.798588
Si Si5 0.433055 0.959093 0.557097
Si Si6 0.577656 0.046079 0.248965
O O1 0.477012 0.250000 0.103303
O O2 0.400444 0.977340 0.117857
O O3 0.532485 0.973458 0.169528
O O4 0.500000 0.000000 0.000000
O O5 0.285746 0.750000 0.483908
O O6 0.229393 0.017622 0.557026
O O7 0.260961 0.021863 0.390499
O O8 0.361766 0.021215 0.512486
O O9 0.323169 0.250000 0.131150
O O10 0.289628 0.986581 0.224209
O O11 0.278237 0.250000 0.807373
O O12 0.340642 0.968020 0.770881
O O13 0.427304 0.750000 0.562433
O O14 0.437575 0.027265 0.655563
O O15 0.500000 0.000000 0.500000
O O16 0.560220 0.250000 0.253656
#
# Coordination Sequence:
#
# PCOD9465254 Si02
#       6
#     8   8   8   8   8   8
#     4  10  22  38  61  89 117 154 196 238 291 349
#     4   9  19  37  58  79 112 152 186 228 290 344
#     4  10  20  39  61  82 115 156 189 231 293 353
#     4  11  22  36  59  89 113 146 195 243 288 337
#     4  10  21  38  58  82 114 154 193 235 285 341
#     4  10  21  40  61  84 118 157 192 230 287 353
#
# _framework density 20.949425000000002
#
# number of rings (size 3 to 8) (size 9 to 14) (size 15 to 20)
#    0.000    2.000    1.667    1.500    2.333    3.333 
#    0.000    2.500    0.000    0.000    0.000    0.000 
#    0.000    0.000    0.000    0.000    0.000    0.000 
#
# Total GULP energy -268219.198975 kJ/mol
# GULP energy per Si atom -5587.899979 kJ/mol
# Density = 2.090174 g / cm^3
# Si number density = 20.949425 Si / 1000 Ang^3
#
#
#
# Elastic Constant Matrix: (Units=GPa)
#
#
# Indices 1 2 3 4 5 6 
#
# 1 126.0169 0.4055 71.3620 0.0000 0.0000 0.0000
# 2 0.4055 30.5005 6.3029 0.0000 0.0000 0.0000
# 3 71.3620 6.3029 196.7940 0.0000 0.0000 0.0000
# 4 0.0000 0.0000 0.0000 15.2138 0.0000 0.0000
# 5 0.0000 0.0000 0.0000 0.0000 44.5051 0.0000
# 6 0.0000 0.0000 0.0000 0.0000 0.0000 16.1321
#
#
#
# Elastic Compliance Matrix: (Units=1/GPa)
#
#
# Indices 1 2 3 4 5 6 
#
# 1 0.009998 0.000620 -0.003645 0.000000 0.000000 0.000000
# 2 0.000620 0.033043 -0.001283 0.000000 0.000000 0.000000
# 3 -0.003645 -0.001283 0.006444 0.000000 0.000000 0.000000
# 4 0.000000 0.000000 0.000000 0.065730 0.000000 0.000000
# 5 0.000000 0.000000 0.000000 0.000000 0.022469 0.000000
# 6 0.000000 0.000000 0.000000 0.000000 0.000000 0.061988
#
#
# Mechanical properties :
#
#
# Convention : Reuss Voigt Hill
#
# Bulk Modulus (GPa) = 24.46839 56.60580 40.53710
# Shear Modulus (GPa) = 22.53143 33.51959 28.02551
#
# Velocity S-wave (km/s) = 3.28306 4.00437 3.66152
# Velocity P-wave (km/s) = 5.10651 6.96124 6.10472
#
# Compressibility (1/GPa) = 0.04086905
#
# Stress axis : x y z
#
# Youngs Moduli (GPa) = 100.02274 30.26337 155.17315
#
# Poissons Ratio (x) = -0.01877 0.56565
# Poissons Ratio (y) = -0.06205 0.19913
# Poissons Ratio (z) = 0.36461 0.03884
#
# Static dielectric constant tensor:
#      x y z
#    x 1.707730 0.000000 0.000000 
#    y 0.000000 1.773910 0.000000 
#    z 0.000000 0.000000 1.727060 
# 
# From -- ./inp_files/19523.got.cif
#   From: 2010.05.17/outbox.cif.g08.bks.cpg/sg62_10_cif.got.tgz:19523.got - 2010.06.03 15:25:27.
