data_PCOD9465161
_publ_section_title
;
Structure prediction by ZEFSAII (Michael W. Deem and Ramdas Pophale) SiO2 
 PCOD9465161
Probable space group: P N M A
;
_chemical_formula_sum "Si O2"
_cell_formula_units_Z 48
_cell_length_a 20.161134
_cell_length_b 8.725182
_cell_length_c 15.125707
_cell_angle_alpha 90.000000
_cell_angle_beta 90.000000
_cell_angle_gamma 90.000000
_cell_volume 2660.756516
_symmetry_space_group_name_H-M "P N M A"
_symmetry_group_IT_number 62
_symmetry_cell_setting 'orthorhombic'
loop_
_space_group_symop_operation_xyz
x,y,z
1/2-x,-y,1/2+z
1/2+x,1/2-y,1/2-z
-x,1/2+y,-z
-x,-y,-z
1/2+x,y,1/2-z
1/2-x,1/2+y,1/2+z
x,1/2-y,z
loop_
_atom_site_type_symbol
_atom_site_label
_atom_site_fract_x
_atom_site_fract_y
_atom_site_fract_z
Si Si1 0.457146 0.066420 0.579482
Si Si2 0.487877 0.431618 0.779082
Si Si3 0.668148 0.933111 0.193359
Si Si4 0.803081 0.566956 0.505695
Si Si5 0.812739 0.566812 0.884161
Si Si6 0.058385 0.568438 0.560769
O O1 0.450185 0.250000 0.572240
O O2 0.490791 0.034980 0.674831
O O3 0.500000 0.000000 0.500000
O O4 0.384448 0.991958 0.583136
O O5 0.499994 0.250000 0.792872
O O6 0.411489 0.462301 0.807419
O O7 0.536954 0.528041 0.839551
O O8 0.677118 0.750000 0.194214
O O9 0.699311 0.005397 0.106027
O O10 0.694953 0.003782 0.284319
O O11 0.800922 0.750000 0.505140
O O12 0.743907 0.499129 0.447272
O O13 0.872631 0.508799 0.465523
O O14 0.811120 0.750000 0.883734
O O15 0.062921 0.750000 0.546852
O O16 0.000000 0.500000 0.500000
#
# Coordination Sequence:
#
# PCOD9465161 Si02
#       6
#     8   8   8   8   8   8
#     4  10  21  40  65  91 121 157 203 250 300 356
#     4   9  19  36  59  86 119 154 194 243 296 353
#     4  10  20  38  63  88 118 156 198 242 297 359
#     4  12  24  40  62  88 121 160 203 251 302 357
#     4  11  23  41  63  89 122 159 203 248 299 360
#     4  12  23  36  58  89 123 157 199 246 298 357
#
# _framework density 18.039982999999999
#
# number of rings (size 3 to 8) (size 9 to 14) (size 15 to 20)
#    0.000    1.333    1.667    6.500    0.000    3.333 
#    3.000    0.000    0.000    0.000    0.000    0.000 
#    0.000    0.000    0.000    0.000    0.000    0.000 
#
# Total GULP energy -268355.239077 kJ/mol
# GULP energy per Si atom -5590.734147 kJ/mol
# Density = 1.799892 g / cm^3
# Si number density = 18.039983 Si / 1000 Ang^3
#
#
#
# Elastic Constant Matrix: (Units=GPa)
#
#
# Indices 1 2 3 4 5 6 
#
# 1 97.8980 65.4968 94.9989 0.0000 0.0000 0.0000
# 2 65.4968 152.7247 94.8056 0.0000 0.0000 0.0000
# 3 94.9989 94.8056 170.1499 0.0000 0.0000 0.0000
# 4 0.0000 0.0000 0.0000 36.5783 0.0000 0.0000
# 5 0.0000 0.0000 0.0000 0.0000 36.4482 0.0000
# 6 0.0000 0.0000 0.0000 0.0000 0.0000 31.0980
#
#
#
# Elastic Compliance Matrix: (Units=1/GPa)
#
#
# Indices 1 2 3 4 5 6 
#
# 1 0.023107 -0.002906 -0.011282 0.000000 0.000000 0.000000
# 2 -0.002906 0.010376 -0.004159 0.000000 0.000000 0.000000
# 3 -0.011282 -0.004159 0.014493 0.000000 0.000000 0.000000
# 4 0.000000 0.000000 0.000000 0.027339 0.000000 0.000000
# 5 0.000000 0.000000 0.000000 0.000000 0.027436 0.000000
# 6 0.000000 0.000000 0.000000 0.000000 0.000000 0.032156
#
#
# Mechanical properties :
#
#
# Convention : Reuss Voigt Hill
#
# Bulk Modulus (GPa) = 88.63327 103.48614 96.05971
# Shear Modulus (GPa) = 28.51271 31.85631 30.18451
#
# Velocity S-wave (km/s) = 3.97990 4.20679 4.09492
# Velocity P-wave (km/s) = 8.38795 9.00475 8.70182
#
# Compressibility (1/GPa) = 0.01128245
#
# Stress axis : x y z
#
# Youngs Moduli (GPa) = 43.27744 96.38082 68.99801
#
# Poissons Ratio (x) = 0.28010 0.77842
# Poissons Ratio (y) = 0.12577 0.28693
# Poissons Ratio (z) = 0.48825 0.40080
#
# Static dielectric constant tensor:
#      x y z
#    x 1.583930 0.000000 0.000000 
#    y 0.000000 1.598700 0.000000 
#    z 0.000000 0.000000 1.619500 
# 
# From -- ./inp_files/19597.got.cif
#   From: 2010.05.17/outbox.cif.g08.bks.cpg/sg62_10_cif.got.tgz:19597.got - 2010.06.03 15:25:27.
