data_PCOD9465094
_publ_section_title
;
Structure prediction by ZEFSAII (Michael W. Deem and Ramdas Pophale) SiO2 
 PCOD9465094
Probable space group: P N M A
;
_chemical_formula_sum "Si O2"
_cell_formula_units_Z 64
_cell_length_a 20.748118
_cell_length_b 18.045338
_cell_length_c 8.984297
_cell_angle_alpha 90.000000
_cell_angle_beta 90.000000
_cell_angle_gamma 90.000000
_cell_volume 3363.781910
_symmetry_space_group_name_H-M "P N M A"
_symmetry_group_IT_number 62
_symmetry_cell_setting 'orthorhombic'
loop_
_space_group_symop_operation_xyz
x,y,z
1/2-x,-y,1/2+z
1/2+x,1/2-y,1/2-z
-x,1/2+y,-z
-x,-y,-z
1/2+x,y,1/2-z
1/2-x,1/2+y,1/2+z
x,1/2-y,z
loop_
_atom_site_type_symbol
_atom_site_label
_atom_site_fract_x
_atom_site_fract_y
_atom_site_fract_z
Si Si1 0.392707 0.336308 0.103442
Si Si2 0.130351 0.166556 0.399509
Si Si3 0.144817 0.164595 0.045506
Si Si4 0.514054 0.415084 0.959791
Si Si5 0.757130 0.085880 0.059901
Si Si6 0.516639 0.161471 0.645727
Si Si7 0.887151 0.336102 0.039787
Si Si8 0.231807 0.931032 0.584768
O O1 0.382070 0.250000 0.068360
O O2 0.397258 0.343116 0.282594
O O3 0.332667 0.385345 0.048766
O O4 0.458201 0.365688 0.033517
O O5 0.111483 0.250000 0.441694
O O6 0.127445 0.160137 0.220660
O O7 0.082132 0.108872 0.471986
O O8 0.203179 0.149524 0.448759
O O9 0.164158 0.250000 0.016804
O O10 0.205238 0.111003 0.021772
O O11 0.081729 0.148268 0.948430
O O12 0.515260 0.392192 0.787120
O O13 0.500000 0.500000 0.000000
O O14 0.826199 0.112987 0.000703
O O15 0.763492 0.068808 0.235830
O O16 0.732122 0.013527 0.976930
O O17 0.516083 0.250000 0.686452
O O18 0.453060 0.147535 0.546511
O O19 0.870553 0.250000 0.010655
#
# Coordination Sequence:
#
# PCOD9465094 Si02
#       8
#     8   8   8   8   8   8   8   8
#     4  10  20  38  61  82 108 147 191 229 272 330
#     4  10  20  38  61  82 108 147 191 229 272 330
#     4   9  19  37  61  85 109 144 190 235 276 324
#     4  12  25  38  54  82 118 150 183 226 280 336
#     4  10  21  36  56  84 116 147 182 228 280 333
#     4  10  21  38  59  84 113 144 185 234 278 324
#     4   9  19  37  61  85 109 144 190 235 276 324
#     4  10  21  36  56  84 116 147 182 228 280 333
#
# _framework density 19.026204
#
# number of rings (size 3 to 8) (size 9 to 14) (size 15 to 20)
#    0.000    2.000    0.000    3.375    0.000   11.000 
#    0.000    1.875    0.000    6.000    0.000    0.000 
#    0.000    0.000    0.000    0.000    0.000    0.000 
#
# Total GULP energy -357449.586150 kJ/mol
# GULP energy per Si atom -5585.149784 kJ/mol
# Density = 1.898290 g / cm^3
# Si number density = 19.026204 Si / 1000 Ang^3
#
#
#
# Elastic Constant Matrix: (Units=GPa)
#
#
# Indices 1 2 3 4 5 6 
#
# 1 70.0027 8.3824 26.3683 0.0000 0.0000 0.0000
# 2 8.3824 54.9289 30.5758 0.0000 0.0000 0.0000
# 3 26.3683 30.5758 29.3939 0.0000 0.0000 0.0000
# 4 0.0000 0.0000 0.0000 24.4421 0.0000 0.0000
# 5 0.0000 0.0000 0.0000 0.0000 13.3139 0.0000
# 6 0.0000 0.0000 0.0000 0.0000 0.0000 30.3174
#
#
#
# Elastic Compliance Matrix: (Units=1/GPa)
#
#
# Indices 1 2 3 4 5 6 
#
# 1 0.032615 0.026863 -0.057201 0.000000 0.000000 0.000000
# 2 0.026863 0.065372 -0.092098 0.000000 0.000000 0.000000
# 3 -0.057201 -0.092098 0.181135 0.000000 0.000000 0.000000
# 4 0.000000 0.000000 0.000000 0.040913 0.000000 0.000000
# 5 0.000000 0.000000 0.000000 0.000000 0.075110 0.000000
# 6 0.000000 0.000000 0.000000 0.000000 0.000000 0.032984
#
#
# Mechanical properties :
#
#
# Convention : Reuss Voigt Hill
#
# Bulk Modulus (GPa) = 29.19747 31.66428 30.43087
# Shear Modulus (GPa) = 7.30549 19.54794 13.42672
#
# Velocity S-wave (km/s) = 1.96164 3.20882 2.65938
# Velocity P-wave (km/s) = 4.52879 5.51428 5.04565
#
# Compressibility (1/GPa) = 0.03424954
#
# Stress axis : x y z
#
# Youngs Moduli (GPa) = 30.66112 15.29715 5.52075
#
# Poissons Ratio (x) = -0.41093 0.31579
# Poissons Ratio (y) = -0.82366 0.50845
# Poissons Ratio (z) = 1.75384 1.40884
#
# Static dielectric constant tensor:
#      x y z
#    x 1.634250 0.000000 0.000000 
#    y 0.000000 1.643150 0.000000 
#    z 0.000000 0.000000 1.646870 
# 
# From -- ./inp_files/8905.got.cif
#   From: 2010.05.17/outbox.cif.g08.bks.cpg/sg62_5_cif.got.tgz:8905.got - 2010.06.03 15:25:27.
