data_PCOD9465438
_publ_section_title
;
Structure prediction by ZEFSAII (Michael W. Deem and Ramdas Pophale) SiO2 
 PCOD9465438
Probable space group: P N M A
;
_chemical_formula_sum "Si O2"
_cell_formula_units_Z 40
_cell_length_a 9.434979
_cell_length_b 8.920362
_cell_length_c 20.701140
_cell_angle_alpha 90.000000
_cell_angle_beta 90.000000
_cell_angle_gamma 90.000000
_cell_volume 1742.278909
_symmetry_space_group_name_H-M "P N M A"
_symmetry_group_IT_number 62
_symmetry_cell_setting 'orthorhombic'
loop_
_space_group_symop_operation_xyz
x,y,z
1/2-x,-y,1/2+z
1/2+x,1/2-y,1/2-z
-x,1/2+y,-z
-x,-y,-z
1/2+x,y,1/2-z
1/2-x,1/2+y,1/2+z
x,1/2-y,z
loop_
_atom_site_type_symbol
_atom_site_label
_atom_site_fract_x
_atom_site_fract_y
_atom_site_fract_z
Si Si1 0.575114 0.250000 0.566097
Si Si2 0.051486 0.931606 0.278966
Si Si3 0.249072 0.924309 0.685885
Si Si4 0.775082 0.490140 0.601166
Si Si5 0.277769 0.250000 0.500459
Si Si6 0.767857 0.250000 0.436584
Si Si7 0.023969 0.750000 0.461994
O O1 0.634498 0.389830 0.605807
O O2 0.415911 0.250000 0.543875
O O3 0.665274 0.250000 0.498188
O O4 0.060656 0.750000 0.286351
O O5 0.158689 0.016450 0.328960
O O6 0.115644 0.985815 0.211200
O O7 0.893674 0.989848 0.293305
O O8 0.246133 0.750000 0.710374
O O9 0.254128 0.893884 0.608796
O O10 0.734788 0.613397 0.549379
O O11 0.900894 0.392402 0.569072
O O12 0.141029 0.250000 0.545578
O O13 0.928093 0.250000 0.463239
#
# Coordination Sequence:
#
# PCOD9465438 Si02
#       7
#     4   8   8   8   4   4   4
#     4  10  22  46  61  98 142 164 218 276 335 396
#     4  12  23  45  67  97 136 176 224 274 343 393
#     4  10  24  41  69  96 130 174 227 276 325 394
#     4  10  23  41  65  94 137 175 213 273 327 407
#     4  12  22  33  70  96 128 179 220 270 332 386
#     4   8  20  41  68  90 134 171 222 268 326 394
#     4  10  20  44  63  94 138 168 222 264 323 408
#
# _framework density 22.958437
#
# number of rings (size 3 to 8) (size 9 to 14) (size 15 to 20)
#    0.600    1.200    2.000    3.600    2.800    3.200 
#    0.000    2.000    8.800    0.000    0.000    0.000 
#    0.000    0.000    0.000    0.000    0.000    0.000 
#
# Total GULP energy -223487.545067 kJ/mol
# GULP energy per Si atom -5587.188627 kJ/mol
# Density = 2.290618 g / cm^3
# Si number density = 22.958437 Si / 1000 Ang^3
#
#
#
# Elastic Constant Matrix: (Units=GPa)
#
#
# Indices 1 2 3 4 5 6 
#
# 1 124.4985 12.5852 20.9763 0.0000 0.0000 0.0000
# 2 12.5852 61.2972 -14.9741 0.0000 0.0000 0.0000
# 3 20.9763 -14.9741 56.7136 0.0000 0.0000 0.0000
# 4 0.0000 0.0000 0.0000 1.6569 0.0000 0.0000
# 5 0.0000 0.0000 0.0000 0.0000 22.3155 0.0000
# 6 0.0000 0.0000 0.0000 0.0000 0.0000 29.0838
#
#
#
# Elastic Compliance Matrix: (Units=1/GPa)
#
#
# Indices 1 2 3 4 5 6 
#
# 1 0.009008 -0.002847 -0.004083 0.000000 0.000000 0.000000
# 2 -0.002847 0.018339 0.005895 0.000000 0.000000 0.000000
# 3 -0.004083 0.005895 0.020699 0.000000 0.000000 0.000000
# 4 0.000000 0.000000 0.000000 0.603523 0.000000 0.000000
# 5 0.000000 0.000000 0.000000 0.000000 0.044812 0.000000
# 6 0.000000 0.000000 0.000000 0.000000 0.000000 0.034383
#
#
# Mechanical properties :
#
#
# Convention : Reuss Voigt Hill
#
# Bulk Modulus (GPa) = 21.75106 31.07600 26.41353
# Shear Modulus (GPa) = 6.68306 25.53938 16.11122
#
# Velocity S-wave (km/s) = 1.70800 3.33891 2.65194
# Velocity P-wave (km/s) = 3.65846 5.33194 4.57241
#
# Compressibility (1/GPa) = 0.04597477
#
# Stress axis : x y z
#
# Youngs Moduli (GPa) = 111.01213 54.52995 48.31103
#
# Poissons Ratio (x) = 0.15525 0.19727
# Poissons Ratio (y) = 0.31605 -0.28479
# Poissons Ratio (z) = 0.45331 -0.32145
#
# Static dielectric constant tensor:
#      x y z
#    x 1.816890 0.000000 0.000000 
#    y 0.000000 1.787570 0.000000 
#    z 0.000000 0.000000 1.911620 
# 
# From -- ./inp_files/28660.got.cif
#   From: 2010.05.17/outbox.cif.g08.bks.cpg/sg62_15_cif.got.tgz:28660.got - 2010.06.03 15:25:27.
