data_PCOD9465399
_publ_section_title
;
Structure prediction by ZEFSAII (Michael W. Deem and Ramdas Pophale) SiO2 
 PCOD9465399
Probable space group: P N M A
;
_chemical_formula_sum "Si O2"
_cell_formula_units_Z 40
_cell_length_a 12.367989
_cell_length_b 24.291606
_cell_length_c 5.420793
_cell_angle_alpha 90.000000
_cell_angle_beta 90.000000
_cell_angle_gamma 90.000000
_cell_volume 1628.613919
_symmetry_space_group_name_H-M "P N M A"
_symmetry_group_IT_number 62
_symmetry_cell_setting 'orthorhombic'
loop_
_space_group_symop_operation_xyz
x,y,z
1/2-x,-y,1/2+z
1/2+x,1/2-y,1/2-z
-x,1/2+y,-z
-x,-y,-z
1/2+x,y,1/2-z
1/2-x,1/2+y,1/2+z
x,1/2-y,z
loop_
_atom_site_type_symbol
_atom_site_label
_atom_site_fract_x
_atom_site_fract_y
_atom_site_fract_z
Si Si1 0.990937 0.629990 0.180275
Si Si2 0.843431 0.056459 0.764861
Si Si3 0.634010 0.448405 0.019692
Si Si4 0.235999 0.133683 0.112084
Si Si5 0.689974 0.250000 0.239991
Si Si6 0.455073 0.750000 0.261554
O O1 0.954410 0.592461 0.411343
O O2 0.020825 0.692761 0.244757
O O3 0.078205 0.590223 0.049918
O O4 0.879441 0.635993 0.029906
O O5 0.820130 0.106088 0.572409
O O6 0.902239 0.001454 0.670108
O O7 0.722144 0.033466 0.815384
O O8 0.711322 0.409248 0.176418
O O9 0.257461 0.193899 0.223580
O O10 0.607672 0.250000 0.474727
O O11 0.626629 0.250000 0.976583
#
# Coordination Sequence:
#
# PCOD9465399 Si02
#       6
#     8   8   8   8   4   4
#     4  10  23  39  64  88 123 169 214 263 333 385
#     4  11  23  39  60  94 127 163 217 268 317 400
#     4  11  21  40  60  88 127 163 208 263 327 385
#     4  10  22  40  62  90 122 170 207 266 330 382
#     4  10  20  41  67  90 129 172 216 268 330 391
#     4  10  20  41  65  94 127 164 222 272 318 393
#
# _framework density 24.560763999999999
#
# number of rings (size 3 to 8) (size 9 to 14) (size 15 to 20)
#    0.000    1.600    4.000    0.600    0.000    3.200 
#    0.000    2.000    0.000    0.000    0.000    0.000 
#    0.000    0.000    0.000    0.000    0.000    0.000 
#
# Total GULP energy -223036.099506 kJ/mol
# GULP energy per Si atom -5575.902488 kJ/mol
# Density = 2.450486 g / cm^3
# Si number density = 24.560764 Si / 1000 Ang^3
#
#
#
# Elastic Constant Matrix: (Units=GPa)
#
#
# Indices 1 2 3 4 5 6 
#
# 1 60.5530 29.7865 -10.8244 0.0000 0.0000 0.0000
# 2 29.7865 174.7563 -6.4651 0.0000 0.0000 0.0000
# 3 -10.8244 -6.4651 17.6898 0.0000 0.0000 0.0000
# 4 0.0000 0.0000 0.0000 22.4178 0.0000 0.0000
# 5 0.0000 0.0000 0.0000 0.0000 -71.5393 0.0000
# 6 0.0000 0.0000 0.0000 0.0000 0.0000 38.8500
#
#
#
# Elastic Compliance Matrix: (Units=1/GPa)
#
#
# Indices 1 2 3 4 5 6 
#
# 1 0.019976 -0.002993 0.011130 0.000000 0.000000 0.000000
# 2 -0.002993 0.006249 0.000452 0.000000 0.000000 0.000000
# 3 0.011130 0.000452 0.063505 0.000000 0.000000 0.000000
# 4 0.000000 0.000000 0.000000 0.044607 0.000000 0.000000
# 5 0.000000 0.000000 0.000000 0.000000 -0.013978 0.000000
# 6 0.000000 0.000000 0.000000 0.000000 0.000000 0.025740
#
#
# Mechanical properties :
#
#
# Convention : Reuss Voigt Hill
#
# Bulk Modulus (GPa) = 9.35378 30.88812 20.12095
# Shear Modulus (GPa) = 30.38434 13.97917 22.18175
#
# Velocity S-wave (km/s) = 3.52107 2.38831 3.00849
# Velocity P-wave (km/s) = 4.51080 4.49543 4.50312
#
# Compressibility (1/GPa) = 0.10690863
#
# Stress axis : x y z
#
# Youngs Moduli (GPa) = 50.05922 160.02158 15.74670
#
# Poissons Ratio (x) = 0.47897 -0.17526
# Poissons Ratio (y) = 0.14983 -0.00712
# Poissons Ratio (z) = -0.55714 -0.07239
#
# Static dielectric constant tensor:
#      x y z
#    x 2.270000 0.000000 0.000000 
#    y 0.000000 1.938390 0.000000 
#    z 0.000000 0.000000 1.307560 
# 
# From -- ./inp_files/630.got.cif
#   From: 2010.05.17/outbox.cif.g08.bks.cpg/sg62_1_cif.got.tgz:630.got - 2010.06.03 15:25:27.
