data_PCOD9465038
_publ_section_title
;
Structure prediction by ZEFSAII (Michael W. Deem and Ramdas Pophale) SiO2 
 PCOD9465038
Probable space group: P N M A
;
_chemical_formula_sum "Si O2"
_cell_formula_units_Z 40
_cell_length_a 16.507206
_cell_length_b 8.732375
_cell_length_c 12.664585
_cell_angle_alpha 90.000000
_cell_angle_beta 90.000000
_cell_angle_gamma 90.000000
_cell_volume 1825.563365
_symmetry_space_group_name_H-M "P N M A"
_symmetry_group_IT_number 62
_symmetry_cell_setting 'orthorhombic'
loop_
_space_group_symop_operation_xyz
x,y,z
1/2-x,-y,1/2+z
1/2+x,1/2-y,1/2-z
-x,1/2+y,-z
-x,-y,-z
1/2+x,y,1/2-z
1/2-x,1/2+y,1/2+z
x,1/2-y,z
loop_
_atom_site_type_symbol
_atom_site_label
_atom_site_fract_x
_atom_site_fract_y
_atom_site_fract_z
Si Si1 0.340311 0.069590 0.827371
Si Si2 0.588478 0.067916 0.969079
Si Si3 0.817415 0.071628 0.269744
Si Si4 0.418646 0.421341 0.625432
Si Si5 0.391983 0.919277 0.423351
O O1 0.338236 0.250000 0.852676
O O2 0.414741 0.037249 0.748097
O O3 0.265200 0.019885 0.754199
O O4 0.351830 0.975279 0.933850
O O5 0.581063 0.250000 0.956986
O O6 0.627923 0.997339 0.863346
O O7 0.500000 0.000000 0.000000
O O8 0.801868 0.250000 0.289680
O O9 0.862221 0.045459 0.158119
O O10 0.383292 0.250000 0.615302
O O11 0.511770 0.411988 0.592094
O O12 0.375639 0.534069 0.543720
O O13 0.358234 0.750000 0.399234
#
# Coordination Sequence:
#
# PCOD9465038 Si02
#       5
#     8   8   8   8   8
#     4  11  24  43  67  96 133 175 224 278 336 399
#     4  12  26  47  73 102 137 181 232 283 343 412
#     4  12  26  43  65  95 134 177 224 276 336 398
#     4   9  20  38  62  91 125 164 209 261 322 390
#     4  10  20  37  63  93 126 165 211 264 324 390
#
# _framework density 21.911044
#
# number of rings (size 3 to 8) (size 9 to 14) (size 15 to 20)
#    0.000    1.200    0.000    6.000    2.800    4.000 
#    0.000    0.000    0.000    0.000    0.000    0.000 
#    0.000    0.000    0.000    0.000    0.000    0.000 
#
# Total GULP energy -223478.601931 kJ/mol
# GULP energy per Si atom -5586.965048 kJ/mol
# Density = 2.186117 g / cm^3
# Si number density = 21.911044 Si / 1000 Ang^3
#
#
#
# Elastic Constant Matrix: (Units=GPa)
#
#
# Indices 1 2 3 4 5 6 
#
# 1 39.0238 1.2813 -0.8881 0.0000 0.0000 0.0000
# 2 1.2813 84.8864 2.4710 0.0000 0.0000 0.0000
# 3 -0.8881 2.4710 67.6470 0.0000 0.0000 0.0000
# 4 0.0000 0.0000 0.0000 46.0875 0.0000 0.0000
# 5 0.0000 0.0000 0.0000 0.0000 31.0158 0.0000
# 6 0.0000 0.0000 0.0000 0.0000 0.0000 29.8644
#
#
#
# Elastic Compliance Matrix: (Units=1/GPa)
#
#
# Indices 1 2 3 4 5 6 
#
# 1 0.025646 -0.000397 0.000351 0.000000 0.000000 0.000000
# 2 -0.000397 0.011799 -0.000436 0.000000 0.000000 0.000000
# 3 0.000351 -0.000436 0.014803 0.000000 0.000000 0.000000
# 4 0.000000 0.000000 0.000000 0.021698 0.000000 0.000000
# 5 0.000000 0.000000 0.000000 0.000000 0.032242 0.000000
# 6 0.000000 0.000000 0.000000 0.000000 0.000000 0.033485
#
#
# Mechanical properties :
#
#
# Convention : Reuss Voigt Hill
#
# Bulk Modulus (GPa) = 19.49923 21.92062 20.70993
# Shear Modulus (GPa) = 31.69927 33.97307 32.83617
#
# Velocity S-wave (km/s) = 3.80771 3.94191 3.87539
# Velocity P-wave (km/s) = 5.31509 5.54475 5.43113
#
# Compressibility (1/GPa) = 0.05128407
#
# Stress axis : x y z
#
# Youngs Moduli (GPa) = 38.99177 84.75193 67.55308
#
# Poissons Ratio (x) = 0.03367 -0.02372
# Poissons Ratio (y) = 0.01549 0.02947
# Poissons Ratio (z) = -0.01369 0.03697
#
# Static dielectric constant tensor:
#      x y z
#    x 1.909760 0.000000 0.000000 
#    y 0.000000 1.771200 0.000000 
#    z 0.000000 0.000000 1.825080 
# 
# From -- ./inp_files/13825.got.cif
#   From: 2010.05.17/outbox.cif.g08.bks.cpg/sg62_7_cif.got.tgz:13825.got - 2010.06.03 15:25:27.
