data_PCOD9465933
_publ_section_title
;
Structure prediction by ZEFSAII (Michael W. Deem and Ramdas Pophale) SiO2 
 PCOD9465933
Probable space group: P N M A
;
_chemical_formula_sum "Si O2"
_cell_formula_units_Z 40
_cell_length_a 13.656467
_cell_length_b 13.899453
_cell_length_c 8.737579
_cell_angle_alpha 90.000000
_cell_angle_beta 90.000000
_cell_angle_gamma 90.000000
_cell_volume 1658.544713
_symmetry_space_group_name_H-M "P N M A"
_symmetry_group_IT_number 62
_symmetry_cell_setting 'orthorhombic'
loop_
_space_group_symop_operation_xyz
x,y,z
1/2-x,-y,1/2+z
1/2+x,1/2-y,1/2-z
-x,1/2+y,-z
-x,-y,-z
1/2+x,y,1/2-z
1/2-x,1/2+y,1/2+z
x,1/2-y,z
loop_
_atom_site_type_symbol
_atom_site_label
_atom_site_fract_x
_atom_site_fract_y
_atom_site_fract_z
Si Si1 0.758830 0.400265 0.025831
Si Si2 0.371133 0.141383 0.028415
Si Si3 0.920119 0.071321 0.812052
Si Si4 0.843901 0.647019 0.827957
Si Si5 0.625115 0.475075 0.756201
O O1 0.857533 0.369795 0.936694
O O2 0.685081 0.422114 0.888099
O O3 0.698203 0.346511 0.154771
O O4 0.800668 0.487206 0.129669
O O5 0.408673 0.250000 0.043131
O O6 0.255718 0.143292 0.070557
O O7 0.416620 0.068683 0.152833
O O8 0.390191 0.102965 0.858646
O O9 0.036556 0.082133 0.818120
O O10 0.895664 0.957265 0.836858
O O11 0.894599 0.750000 0.862378
#
# Coordination Sequence:
#
# PCOD9465933 Si02
#       5
#     8   8   8   8   8
#     4  11  21  41  60  89 127 160 203 258 310 368
#     4  10  21  38  61  89 124 162 201 253 312 364
#     4  12  21  39  65  93 119 165 209 257 306 370
#     4  10  21  38  62  91 126 165 203 253 310 368
#     4  11  22  38  63  92 121 164 207 253 312 367
#
# _framework density 24.117529000000001
#
# number of rings (size 3 to 8) (size 9 to 14) (size 15 to 20)
#    0.000    1.200    6.000    1.200    0.000    1.600 
#    0.000    0.000    0.000    4.800    0.000    0.000 
#    0.000    0.000    0.000    0.000    0.000    0.000 
#
# Total GULP energy -223315.781969 kJ/mol
# GULP energy per Si atom -5582.894549 kJ/mol
# Density = 2.406264 g / cm^3
# Si number density = 24.117529 Si / 1000 Ang^3
#
#
#
# Elastic Constant Matrix: (Units=GPa)
#
#
# Indices 1 2 3 4 5 6 
#
# 1 66.1281 -12.8050 6.0740 0.0000 0.0000 0.0000
# 2 -12.8050 50.7051 12.3010 0.0000 0.0000 0.0000
# 3 6.0740 12.3010 93.1570 0.0000 0.0000 0.0000
# 4 0.0000 0.0000 0.0000 -6.5021 0.0000 0.0000
# 5 0.0000 0.0000 0.0000 0.0000 22.8212 0.0000
# 6 0.0000 0.0000 0.0000 0.0000 0.0000 -17.3424
#
#
#
# Elastic Compliance Matrix: (Units=1/GPa)
#
#
# Indices 1 2 3 4 5 6 
#
# 1 0.016140 0.004474 -0.001643 0.000000 0.000000 0.000000
# 2 0.004474 0.021615 -0.003146 0.000000 0.000000 0.000000
# 3 -0.001643 -0.003146 0.011257 0.000000 0.000000 0.000000
# 4 0.000000 0.000000 0.000000 -0.153798 0.000000 0.000000
# 5 0.000000 0.000000 0.000000 0.000000 0.043819 0.000000
# 6 0.000000 0.000000 0.000000 0.000000 0.000000 -0.057662
#
#
# Mechanical properties :
#
#
# Convention : Reuss Voigt Hill
#
# Bulk Modulus (GPa) = 20.66864 24.57003 22.61934
# Shear Modulus (GPa) = -49.08102 13.42335 -17.82883
#
# Velocity S-wave (km/s) = -4.51608 2.36176 -2.72186
# Velocity P-wave (km/s) = 4.31332 4.20082 0.69201
#
# Compressibility (1/GPa) = 0.04838247
#
# Stress axis : x y z
#
# Youngs Moduli (GPa) = 61.95968 46.26402 88.83273
#
# Poissons Ratio (x) = -0.20701 0.14597
# Poissons Ratio (y) = -0.27724 0.27946
# Poissons Ratio (z) = 0.10181 0.14554
#
# Static dielectric constant tensor:
#      x y z
#    x 1.956540 0.000000 0.000000 
#    y 0.000000 1.962300 0.000000 
#    z 0.000000 0.000000 1.898590 
# 
# From -- ./inp_files/6097.got.cif
#   From: 2010.05.17/outbox.cif.g08.bks.cpg/sg62_4_cif.got.tgz:6097.got - 2010.06.03 15:25:27.
