data_PCOD9465373
_publ_section_title
;
Structure prediction by ZEFSAII (Michael W. Deem and Ramdas Pophale) SiO2 
 PCOD9465373
Probable space group: P N M A
;
_chemical_formula_sum "Si O2"
_cell_formula_units_Z 36
_cell_length_a 14.075917
_cell_length_b 10.791383
_cell_length_c 11.384658
_cell_angle_alpha 90.000000
_cell_angle_beta 90.000000
_cell_angle_gamma 90.000000
_cell_volume 1729.313742
_symmetry_space_group_name_H-M "P N M A"
_symmetry_group_IT_number 62
_symmetry_cell_setting 'orthorhombic'
loop_
_space_group_symop_operation_xyz
x,y,z
1/2-x,-y,1/2+z
1/2+x,1/2-y,1/2-z
-x,1/2+y,-z
-x,-y,-z
1/2+x,y,1/2-z
1/2-x,1/2+y,1/2+z
x,1/2-y,z
loop_
_atom_site_type_symbol
_atom_site_label
_atom_site_fract_x
_atom_site_fract_y
_atom_site_fract_z
Si Si1 0.166073 0.500706 0.402848
Si Si2 0.377031 0.894122 0.408856
Si Si3 0.921362 0.250000 0.584115
Si Si4 0.427657 0.999908 0.648555
Si Si5 0.836544 0.250000 0.845239
Si Si6 0.641335 0.250000 0.950246
O O1 0.274700 0.544686 0.387476
O O2 0.114276 0.618436 0.466278
O O3 0.117286 0.477786 0.275936
O O4 0.157215 0.374800 0.475039
O O5 0.378461 0.750000 0.375886
O O6 0.460771 0.969984 0.344607
O O7 0.402823 0.902658 0.547835
O O8 0.873570 0.250000 0.712461
O O9 0.033957 0.250000 0.593890
O O10 0.379747 0.126711 0.599952
O O11 0.724268 0.250000 0.854562
#
# Coordination Sequence:
#
# PCOD9465373 Si02
#       6
#     8   8   4   8   4   4
#     4  11  24  43  67  98 131 175 217 271 341 389
#     4  11  22  41  68  92 135 169 220 279 316 409
#     4  10  24  42  65  95 130 173 229 260 330 395
#     4  10  23  41  63  98 126 173 218 264 338 389
#     4  10  20  40  67  91 124 177 216 257 332 388
#     4  12  24  44  66  98 140 170 213 293 324 393
#
# _framework density 20.817506000000002
#
# number of rings (size 3 to 8) (size 9 to 14) (size 15 to 20)
#    0.000    1.333    4.444    0.667    1.556    7.111 
#    4.000    0.000    0.000    0.000    0.000    0.000 
#    0.000    0.000    0.000    0.000    0.000    0.000 
#
# Total GULP energy -201134.995727 kJ/mol
# GULP energy per Si atom -5587.083215 kJ/mol
# Density = 2.077012 g / cm^3
# Si number density = 20.817506 Si / 1000 Ang^3
#
#
#
# Elastic Constant Matrix: (Units=GPa)
#
#
# Indices 1 2 3 4 5 6 
#
# 1 220.2049 52.4412 43.7044 0.0000 0.0000 0.0000
# 2 52.4412 104.0792 34.3904 0.0000 0.0000 0.0000
# 3 43.7044 34.3904 67.9431 0.0000 0.0000 0.0000
# 4 0.0000 0.0000 0.0000 6.8644 0.0000 0.0000
# 5 0.0000 0.0000 0.0000 0.0000 27.9387 0.0000
# 6 0.0000 0.0000 0.0000 0.0000 0.0000 28.1353
#
#
#
# Elastic Compliance Matrix: (Units=1/GPa)
#
#
# Indices 1 2 3 4 5 6 
#
# 1 0.005510 -0.001928 -0.002569 0.000000 0.000000 0.000000
# 2 -0.001928 0.012212 -0.004941 0.000000 0.000000 0.000000
# 3 -0.002569 -0.004941 0.018872 0.000000 0.000000 0.000000
# 4 0.000000 0.000000 0.000000 0.145680 0.000000 0.000000
# 5 0.000000 0.000000 0.000000 0.000000 0.035793 0.000000
# 6 0.000000 0.000000 0.000000 0.000000 0.000000 0.035543
#
#
# Mechanical properties :
#
#
# Convention : Reuss Voigt Hill
#
# Bulk Modulus (GPa) = 56.43821 72.58879 64.51350
# Shear Modulus (GPa) = 17.96039 30.03378 23.99708
#
# Velocity S-wave (km/s) = 2.94045 3.80243 3.39888
# Velocity P-wave (km/s) = 6.22078 7.36361 6.81619
#
# Compressibility (1/GPa) = 0.01771849
#
# Stress axis : x y z
#
# Youngs Moduli (GPa) = 181.48575 81.88648 52.98948
#
# Poissons Ratio (x) = 0.15784 0.13611
# Poissons Ratio (y) = 0.34982 0.26184
# Poissons Ratio (z) = 0.46618 0.40463
#
# Static dielectric constant tensor:
#      x y z
#    x 1.746820 0.000000 0.000000 
#    y 0.000000 1.812190 0.000000 
#    z 0.000000 0.000000 1.742540 
# 
# From -- ./inp_files/11891.got.cif
#   From: 2010.05.17/outbox.cif.g08.bks.cpg/sg62_6_cif.got.tgz:11891.got - 2010.06.03 15:25:27.
