data_PCOD9465721
_publ_section_title
;
Structure prediction by ZEFSAII (Michael W. Deem and Ramdas Pophale) SiO2 
 PCOD9465721
Probable space group: P N M A
;
_chemical_formula_sum "Si O2"
_cell_formula_units_Z 64
_cell_length_a 14.231146
_cell_length_b 9.182740
_cell_length_c 24.232169
_cell_angle_alpha 90.000000
_cell_angle_beta 90.000000
_cell_angle_gamma 90.000000
_cell_volume 3166.681984
_symmetry_space_group_name_H-M "P N M A"
_symmetry_group_IT_number 62
_symmetry_cell_setting 'orthorhombic'
loop_
_space_group_symop_operation_xyz
x,y,z
1/2-x,-y,1/2+z
1/2+x,1/2-y,1/2-z
-x,1/2+y,-z
-x,-y,-z
1/2+x,y,1/2-z
1/2-x,1/2+y,1/2+z
x,1/2-y,z
loop_
_atom_site_type_symbol
_atom_site_label
_atom_site_fract_x
_atom_site_fract_y
_atom_site_fract_z
Si Si1 0.402123 0.576647 0.652751
Si Si2 0.546059 0.082208 0.575281
Si Si3 0.520322 0.078884 0.875956
Si Si4 0.806664 0.584383 0.177988
Si Si5 0.785706 0.422838 0.402931
Si Si6 0.163539 0.416410 0.391014
Si Si7 0.806892 0.418270 0.005919
Si Si8 0.481175 0.577419 0.254442
O O1 0.419342 0.750000 0.649332
O O2 0.457004 0.496331 0.602755
O O3 0.291469 0.550180 0.645010
O O4 0.446054 0.511911 0.708492
O O5 0.528450 0.250000 0.559535
O O6 0.622308 0.086495 0.625551
O O7 0.596963 0.989629 0.527935
O O8 0.526870 0.250000 0.887817
O O9 0.506498 0.058814 0.810264
O O10 0.615968 0.000426 0.892681
O O11 0.428699 0.009372 0.903434
O O12 0.773577 0.750000 0.187764
O O13 0.720708 0.483930 0.160455
O O14 0.874855 0.535836 0.227366
O O15 0.798414 0.250000 0.408187
O O16 0.738409 0.487699 0.457683
O O17 0.137265 0.250000 0.379714
O O18 0.234247 0.419934 0.442749
O O19 0.819659 0.250000 0.989443
O O20 0.490598 0.750000 0.268038
#
# Coordination Sequence:
#
# PCOD9465721 Si02
#       8
#     8   8   8   8   8   8   8   8
#     4  10  21  37  59  88 120 153 189 232 285 343
#     4   9  17  32  57  87 118 151 187 229 276 331
#     4  11  24  41  60  82 110 149 196 239 282 338
#     4   8  15  31  55  83 112 141 178 224 272 323
#     4  11  25  42  58  82 117 153 191 237 288 341
#     4  10  21  37  58  85 113 143 186 236 284 337
#     4  10  21  38  61  87 115 151 193 237 288 343
#     4   9  20  38  60  86 115 149 188 231 281 338
#
# _framework density 20.210428
#
# number of rings (size 3 to 8) (size 9 to 14) (size 15 to 20)
#    0.000    2.250    0.000    3.000    0.000    9.500 
#    0.000    3.750    0.000    0.000    0.000    0.000 
#    0.000    0.000    0.000    0.000    0.000    0.000 
#
# Total GULP energy -357646.280752 kJ/mol
# GULP energy per Si atom -5588.223137 kJ/mol
# Density = 2.016443 g / cm^3
# Si number density = 20.210428 Si / 1000 Ang^3
#
#
#
# Elastic Constant Matrix: (Units=GPa)
#
#
# Indices 1 2 3 4 5 6 
#
# 1 121.7785 64.0832 11.3693 0.0000 0.0000 0.0000
# 2 64.0832 107.2054 16.8382 0.0000 0.0000 0.0000
# 3 11.3693 16.8382 23.1256 0.0000 0.0000 0.0000
# 4 0.0000 0.0000 0.0000 16.5951 0.0000 0.0000
# 5 0.0000 0.0000 0.0000 0.0000 9.2257 0.0000
# 6 0.0000 0.0000 0.0000 0.0000 0.0000 31.3137
#
#
#
# Elastic Compliance Matrix: (Units=1/GPa)
#
#
# Indices 1 2 3 4 5 6 
#
# 1 0.011992 -0.007048 -0.000764 0.000000 0.000000 0.000000
# 2 -0.007048 0.014675 -0.007220 0.000000 0.000000 0.000000
# 3 -0.000764 -0.007220 0.048875 0.000000 0.000000 0.000000
# 4 0.000000 0.000000 0.000000 0.060259 0.000000 0.000000
# 5 0.000000 0.000000 0.000000 0.000000 0.108393 0.000000
# 6 0.000000 0.000000 0.000000 0.000000 0.000000 0.031935
#
#
# Mechanical properties :
#
#
# Convention : Reuss Voigt Hill
#
# Bulk Modulus (GPa) = 21.98881 48.52121 35.25501
# Shear Modulus (GPa) = 15.55929 22.08149 18.82039
#
# Velocity S-wave (km/s) = 2.77765 3.30900 3.05490
# Velocity P-wave (km/s) = 4.60333 6.21767 5.47038
#
# Compressibility (1/GPa) = 0.04547768
#
# Stress axis : x y z
#
# Youngs Moduli (GPa) = 83.38905 68.14228 20.46055
#
# Poissons Ratio (x) = 0.48030 0.01562
# Poissons Ratio (y) = 0.58776 0.14773
# Poissons Ratio (z) = 0.06367 0.49199
#
# Static dielectric constant tensor:
#      x y z
#    x 1.712640 0.000000 0.000000 
#    y 0.000000 1.682040 0.000000 
#    z 0.000000 0.000000 1.727190 
# 
# From -- ./inp_files/29863.got.cif
#   From: 2010.05.17/outbox.cif.g08.bks.cpg/sg62_15_cif.got.tgz:29863.got - 2010.06.03 15:25:27.
