data_PCOD9465059
_publ_section_title
;
Structure prediction by ZEFSAII (Michael W. Deem and Ramdas Pophale) SiO2 
 PCOD9465059
Probable space group: P N M A
;
_chemical_formula_sum "Si O2"
_cell_formula_units_Z 24
_cell_length_a 5.088838
_cell_length_b 16.156769
_cell_length_c 11.385501
_cell_angle_alpha 90.000000
_cell_angle_beta 90.000000
_cell_angle_gamma 90.000000
_cell_volume 936.106557
_symmetry_space_group_name_H-M "P N M A"
_symmetry_group_IT_number 62
_symmetry_cell_setting 'orthorhombic'
loop_
_space_group_symop_operation_xyz
x,y,z
1/2-x,-y,1/2+z
1/2+x,1/2-y,1/2-z
-x,1/2+y,-z
-x,-y,-z
1/2+x,y,1/2-z
1/2-x,1/2+y,1/2+z
x,1/2-y,z
loop_
_atom_site_type_symbol
_atom_site_label
_atom_site_fract_x
_atom_site_fract_y
_atom_site_fract_z
Si Si1 0.809275 0.629341 0.185599
Si Si2 0.373444 0.344488 0.079899
Si Si3 0.104574 0.548965 0.884645
O O1 0.598308 0.657874 0.280869
O O2 0.719109 0.654843 0.056398
O O3 0.814536 0.529227 0.193175
O O4 0.408741 0.250000 0.118497
O O5 0.136370 0.390602 0.148738
O O6 0.640300 0.396859 0.085794
O O7 0.000000 0.500000 0.000000
#
# Coordination Sequence:
#
# PCOD9465059 Si02
#       3
#     8   8   8
#     4  11  21  35  58  85 113 145 183 232 283 334
#     4  11  22  37  59  85 115 150 189 236 287 339
#     4  10  20  38  58  80 111 155 200 226 266 343
#
# _framework density 25.638107000000002
#
# number of rings (size 3 to 8) (size 9 to 14) (size 15 to 20)
#    0.000    1.333    0.000   11.000    0.000    1.333 
#    0.000    0.000    0.000   20.000    0.000    0.000 
#    0.000    0.000    0.000    0.000    0.000    0.000 
#
# Total GULP energy -134540.832900 kJ/mol
# GULP energy per Si atom -5605.868037 kJ/mol
# Density = 2.557975 g / cm^3
# Si number density = 25.638107 Si / 1000 Ang^3
#
#
#
# Elastic Constant Matrix: (Units=GPa)
#
#
# Indices 1 2 3 4 5 6 
#
# 1 202.7917 89.1465 19.7207 0.0000 0.0000 0.0000
# 2 89.1465 236.1299 5.7766 0.0000 0.0000 0.0000
# 3 19.7207 5.7766 80.4505 0.0000 0.0000 0.0000
# 4 0.0000 0.0000 0.0000 8.3885 0.0000 0.0000
# 5 0.0000 0.0000 0.0000 0.0000 29.5584 0.0000
# 6 0.0000 0.0000 0.0000 0.0000 0.0000 -0.1574
#
#
#
# Elastic Compliance Matrix: (Units=1/GPa)
#
#
# Indices 1 2 3 4 5 6 
#
# 1 0.006049 -0.002252 -0.001321 0.000000 0.000000 0.000000
# 2 -0.002252 0.005080 0.000187 0.000000 0.000000 0.000000
# 3 -0.001321 0.000187 0.012740 0.000000 0.000000 0.000000
# 4 0.000000 0.000000 0.000000 0.119211 0.000000 0.000000
# 5 0.000000 0.000000 0.000000 0.000000 0.033831 0.000000
# 6 0.000000 0.000000 0.000000 0.000000 0.000000 -6.354314
#
#
# Mechanical properties :
#
#
# Convention : Reuss Voigt Hill
#
# Bulk Modulus (GPa) = 58.48290 83.18444 70.83367
# Shear Modulus (GPa) = -0.81104 34.53979 16.86438
#
# Velocity S-wave (km/s) = -0.56305 3.67441 2.56752
# Velocity P-wave (km/s) = 4.73685 7.10759 6.03968
#
# Compressibility (1/GPa) = 0.01709902
#
# Stress axis : x y z
#
# Youngs Moduli (GPa) = 165.30529 196.83486 78.49023
#
# Poissons Ratio (x) = 0.44318 0.10370
# Poissons Ratio (y) = 0.37219 -0.01469
# Poissons Ratio (z) = 0.21840 -0.03683
#
# Static dielectric constant tensor:
#      x y z
#    x 1.977660 0.000000 0.000000 
#    y 0.000000 1.989680 0.000000 
#    z 0.000000 0.000000 2.056400 
# 
# From -- ./inp_files/16018.got.cif
#   From: 2010.05.17/outbox.cif.g08.bks.cpg/sg62_9_cif.got.tgz:16018.got - 2010.06.03 15:25:27.
