data_PCOD9465940
_publ_section_title
;
Structure prediction by ZEFSAII (Michael W. Deem and Ramdas Pophale) SiO2 
 PCOD9465940
Probable space group: P N M A
;
_chemical_formula_sum "Si O2"
_cell_formula_units_Z 48
_cell_length_a 10.999233
_cell_length_b 21.379488
_cell_length_c 7.468635
_cell_angle_alpha 90.000000
_cell_angle_beta 90.000000
_cell_angle_gamma 90.000000
_cell_volume 1756.309045
_symmetry_space_group_name_H-M "P N M A"
_symmetry_group_IT_number 62
_symmetry_cell_setting 'orthorhombic'
loop_
_space_group_symop_operation_xyz
x,y,z
1/2-x,-y,1/2+z
1/2+x,1/2-y,1/2-z
-x,1/2+y,-z
-x,-y,-z
1/2+x,y,1/2-z
1/2-x,1/2+y,1/2+z
x,1/2-y,z
loop_
_atom_site_type_symbol
_atom_site_label
_atom_site_fract_x
_atom_site_fract_y
_atom_site_fract_z
Si Si1 0.894529 0.573980 0.130525
Si Si2 0.445937 0.676393 0.813033
Si Si3 0.437102 0.081997 0.932338
Si Si4 0.807920 0.355320 0.105262
Si Si5 0.750093 0.679768 0.198404
Si Si6 0.756542 0.486115 0.938037
O O1 0.877387 0.647811 0.146019
O O2 0.862204 0.538871 0.949405
O O3 0.784018 0.547921 0.256448
O O4 0.015764 0.561500 0.237708
O O5 0.459572 0.750000 0.870825
O O6 0.558537 0.662177 0.678677
O O7 0.302321 0.668419 0.768147
O O8 0.459762 0.618093 0.954629
O O9 0.346526 0.139640 0.908922
O O10 0.368230 0.024399 0.021538
O O11 0.796930 0.430251 0.071988
O O12 0.780758 0.325710 0.909636
O O13 0.748152 0.750000 0.143195
#
# Coordination Sequence:
#
# PCOD9465940 Si02
#       6
#     8   8   8   8   8   8
#     4  10  21  38  61  92 124 173 214 274 333 396
#     4  12  24  44  70 100 137 181 229 279 340 406
#     4  11  22  39  67  95 129 176 224 275 341 400
#     4  11  25  43  69  98 134 181 222 282 339 399
#     4  10  21  41  61  90 131 172 220 272 335 399
#     4  10  21  39  62  94 130 168 221 274 332 402
#
# _framework density 27.330044000000001
#
# number of rings (size 3 to 8) (size 9 to 14) (size 15 to 20)
#    0.000    1.333    3.333    3.500    2.333    0.667 
#    9.000    2.500    0.000    0.000    0.000    0.000 
#    0.000    0.000    0.000    0.000    0.000    0.000 
#
# Total GULP energy -268551.903405 kJ/mol
# GULP energy per Si atom -5594.831321 kJ/mol
# Density = 2.726784 g / cm^3
# Si number density = 27.330044 Si / 1000 Ang^3
#
#
#
# Elastic Constant Matrix: (Units=GPa)
#
#
# Indices 1 2 3 4 5 6 
#
# 1 123.9364 24.4795 34.3493 0.0000 0.0000 0.0000
# 2 24.4795 165.1701 7.1221 0.0000 0.0000 0.0000
# 3 34.3493 7.1221 56.1114 0.0000 0.0000 0.0000
# 4 0.0000 0.0000 0.0000 34.1259 0.0000 0.0000
# 5 0.0000 0.0000 0.0000 0.0000 44.8414 0.0000
# 6 0.0000 0.0000 0.0000 0.0000 0.0000 33.7524
#
#
#
# Elastic Compliance Matrix: (Units=1/GPa)
#
#
# Indices 1 2 3 4 5 6 
#
# 1 0.009956 -0.001219 -0.005940 0.000000 0.000000 0.000000
# 2 -0.001219 0.006237 -0.000045 0.000000 0.000000 0.000000
# 3 -0.005940 -0.000045 0.021464 0.000000 0.000000 0.000000
# 4 0.000000 0.000000 0.000000 0.029303 0.000000 0.000000
# 5 0.000000 0.000000 0.000000 0.000000 0.022301 0.000000
# 6 0.000000 0.000000 0.000000 0.000000 0.000000 0.029627
#
#
# Mechanical properties :
#
#
# Convention : Reuss Voigt Hill
#
# Bulk Modulus (GPa) = 43.01516 53.01331 48.01423
# Shear Modulus (GPa) = 35.44949 41.16174 38.30562
#
# Velocity S-wave (km/s) = 3.60542 3.88506 3.74785
# Velocity P-wave (km/s) = 5.75373 6.29003 6.02785
#
# Compressibility (1/GPa) = 0.02324762
#
# Stress axis : x y z
#
# Youngs Moduli (GPa) = 100.44475 160.33255 46.59066
#
# Poissons Ratio (x) = 0.19551 0.27674
# Poissons Ratio (y) = 0.12248 0.00211
# Poissons Ratio (z) = 0.59662 0.00725
#
# Static dielectric constant tensor:
#      x y z
#    x 2.185640 0.000000 0.000000 
#    y 0.000000 2.125970 0.000000 
#    z 0.000000 0.000000 2.254710 
# 
# From -- ./inp_files/5304.got.cif
#   From: 2010.05.17/outbox.cif.g08.bks.cpg/sg62_3_cif.got.tgz:5304.got - 2010.06.03 15:25:27.
