data_PCOD9465411
_publ_section_title
;
Structure prediction by ZEFSAII (Michael W. Deem and Ramdas Pophale) SiO2 
 PCOD9465411
Probable space group: P N M A
;
_chemical_formula_sum "Si O2"
_cell_formula_units_Z 32
_cell_length_a 8.080469
_cell_length_b 8.014235
_cell_length_c 22.032881
_cell_angle_alpha 90.000000
_cell_angle_beta 90.000000
_cell_angle_gamma 90.000000
_cell_volume 1426.822438
_symmetry_space_group_name_H-M "P N M A"
_symmetry_group_IT_number 62
_symmetry_cell_setting 'orthorhombic'
loop_
_space_group_symop_operation_xyz
x,y,z
1/2-x,-y,1/2+z
1/2+x,1/2-y,1/2-z
-x,1/2+y,-z
-x,-y,-z
1/2+x,y,1/2-z
1/2-x,1/2+y,1/2+z
x,1/2-y,z
loop_
_atom_site_type_symbol
_atom_site_label
_atom_site_fract_x
_atom_site_fract_y
_atom_site_fract_z
Si Si1 0.844976 0.555382 0.540085
Si Si2 0.455717 0.250000 0.277425
Si Si3 0.133476 0.443046 0.068287
Si Si4 0.841152 0.565422 0.150072
Si Si5 0.812101 0.250000 0.343936
O O1 0.856351 0.750000 0.553569
O O2 0.691471 0.519749 0.494418
O O3 0.808552 0.462181 0.602866
O O4 0.000000 0.500000 0.500000
O O5 0.363660 0.415079 0.302584
O O6 0.639843 0.250000 0.305321
O O7 0.454470 0.250000 0.204894
O O8 0.073015 0.250000 0.060009
O O9 0.293526 0.408530 0.111771
O O10 0.002611 0.546221 0.106678
O O11 0.834099 0.750000 0.177192
#
# Coordination Sequence:
#
# PCOD9465411 Si02
#       5
#     8   4   8   8   4
#     4  12  23  36  54  88 123 153 194 243 297 354
#     4  10  20  42  58  90 112 158 203 238 299 342
#     4   9  19  38  58  86 111 156 195 235 293 345
#     4  11  21  38  61  86 117 157 199 241 288 353
#     4   8  20  36  64  80 118 156 193 244 295 344
#
# _framework density 22.427458000000001
#
# number of rings (size 3 to 8) (size 9 to 14) (size 15 to 20)
#    0.750    1.000    2.500    3.750    0.000    2.000 
#    0.000    6.250    0.000    0.000    0.000    0.000 
#    0.000    0.000    0.000    0.000    0.000    0.000 
#
# Total GULP energy -178744.761256 kJ/mol
# GULP energy per Si atom -5585.773789 kJ/mol
# Density = 2.237641 g / cm^3
# Si number density = 22.427458 Si / 1000 Ang^3
#
#
#
# Elastic Constant Matrix: (Units=GPa)
#
#
# Indices 1 2 3 4 5 6 
#
# 1 49.2020 4.8341 -8.2523 0.0000 0.0000 0.0000
# 2 4.8341 146.2833 10.1754 0.0000 0.0000 0.0000
# 3 -8.2523 10.1754 69.1156 0.0000 0.0000 0.0000
# 4 0.0000 0.0000 0.0000 24.1969 0.0000 0.0000
# 5 0.0000 0.0000 0.0000 0.0000 39.9292 0.0000
# 6 0.0000 0.0000 0.0000 0.0000 0.0000 26.3091
#
#
#
# Elastic Compliance Matrix: (Units=1/GPa)
#
#
# Indices 1 2 3 4 5 6 
#
# 1 0.020849 -0.000871 0.002618 0.000000 0.000000 0.000000
# 2 -0.000871 0.006943 -0.001126 0.000000 0.000000 0.000000
# 3 0.002618 -0.001126 0.014947 0.000000 0.000000 0.000000
# 4 0.000000 0.000000 0.000000 0.041328 0.000000 0.000000
# 5 0.000000 0.000000 0.000000 0.000000 0.025044 0.000000
# 6 0.000000 0.000000 0.000000 0.000000 0.000000 0.038010
#
#
# Mechanical properties :
#
#
# Convention : Reuss Voigt Hill
#
# Bulk Modulus (GPa) = 22.73778 30.90171 26.81975
# Shear Modulus (GPa) = 31.14491 35.27662 33.21076
#
# Velocity S-wave (km/s) = 3.73056 3.97031 3.85230
# Velocity P-wave (km/s) = 5.35878 5.90138 5.63661
#
# Compressibility (1/GPa) = 0.04397966
#
# Stress axis : x y z
#
# Youngs Moduli (GPa) = 47.96395 144.02639 66.90373
#
# Poissons Ratio (x) = 0.12546 -0.17513
# Poissons Ratio (y) = 0.04178 0.07535
# Poissons Ratio (z) = -0.12555 0.16220
#
# Static dielectric constant tensor:
#      x y z
#    x 1.953790 0.000000 0.000000 
#    y 0.000000 1.780410 0.000000 
#    z 0.000000 0.000000 1.825090 
# 
# From -- ./inp_files/28547.got.cif
#   From: 2010.05.17/outbox.cif.g08.bks.cpg/sg62_15_cif.got.tgz:28547.got - 2010.06.03 15:25:27.
