data_PCOD9465597
_publ_section_title
;
Structure prediction by ZEFSAII (Michael W. Deem and Ramdas Pophale) SiO2 
 PCOD9465597
Probable space group: P N M A
;
_chemical_formula_sum "Si O2"
_cell_formula_units_Z 64
_cell_length_a 9.254055
_cell_length_b 15.749638
_cell_length_c 23.157890
_cell_angle_alpha 90.000000
_cell_angle_beta 90.000000
_cell_angle_gamma 90.000000
_cell_volume 3375.216529
_symmetry_space_group_name_H-M "P N M A"
_symmetry_group_IT_number 62
_symmetry_cell_setting 'orthorhombic'
loop_
_space_group_symop_operation_xyz
x,y,z
1/2-x,-y,1/2+z
1/2+x,1/2-y,1/2-z
-x,1/2+y,-z
-x,-y,-z
1/2+x,y,1/2-z
1/2-x,1/2+y,1/2+z
x,1/2-y,z
loop_
_atom_site_type_symbol
_atom_site_label
_atom_site_fract_x
_atom_site_fract_y
_atom_site_fract_z
Si Si1 0.012922 0.344733 0.409795
Si Si2 0.741286 0.445632 0.764793
Si Si3 0.778540 0.416456 0.486330
Si Si4 0.542159 0.494790 0.178383
Si Si5 0.521966 0.151831 0.545567
Si Si6 0.691038 0.116896 0.975681
Si Si7 0.513497 0.351964 0.680252
Si Si8 0.934656 0.345736 0.600606
O O1 0.019329 0.250000 0.385732
O O2 0.116194 0.350687 0.465914
O O3 0.853193 0.365382 0.434664
O O4 0.056786 0.418373 0.366080
O O5 0.624382 0.495529 0.803039
O O6 0.637341 0.391355 0.721645
O O7 0.844617 0.510578 0.730371
O O8 0.856832 0.388060 0.799736
O O9 0.611062 0.402779 0.499305
O O10 0.817229 0.514602 0.477550
O O11 0.848007 0.379071 0.545033
O O12 0.581252 0.585541 0.149977
O O13 0.569285 0.250000 0.540681
O O14 0.354234 0.144891 0.530917
O O15 0.541474 0.125550 0.612788
O O16 0.599208 0.150831 0.921778
O O17 0.513449 0.250000 0.684890
O O18 0.893741 0.250000 0.616592
#
# Coordination Sequence:
#
# PCOD9465597 Si02
#       8
#     8   8   8   8   8   8   8   8
#     4  11  22  40  64  84 110 148 195 240 281 340
#     4  10  23  38  59  78 116 148 194 252 280 328
#     4  11  20  36  56  87 120 153 190 226 276 342
#     4  11  22  42  58  87 110 149 196 237 295 336
#     4  11  22  34  51  86 126 153 184 227 287 343
#     4  11  20  36  56  87 120 153 190 226 276 342
#     4  10  21  36  57  84 116 158 194 228 280 339
#     4  11  20  35  60  85 119 156 187 223 273 344
#
# _framework density 18.961746000000002
#
# number of rings (size 3 to 8) (size 9 to 14) (size 15 to 20)
#    0.000    1.250    2.500    6.000    0.000    5.000 
#    0.000    0.625    0.000    0.000    0.000    0.000 
#    0.000    0.000    0.000    0.000    0.000    0.000 
#
# Total GULP energy -357539.506305 kJ/mol
# GULP energy per Si atom -5586.554786 kJ/mol
# Density = 1.891859 g / cm^3
# Si number density = 18.961746 Si / 1000 Ang^3
#
#
#
# Elastic Constant Matrix: (Units=GPa)
#
#
# Indices 1 2 3 4 5 6 
#
# 1 67.3838 1.9303 -6.3672 0.0000 0.0000 0.0000
# 2 1.9303 98.9558 21.1638 0.0000 0.0000 0.0000
# 3 -6.3672 21.1638 41.3681 0.0000 0.0000 0.0000
# 4 0.0000 0.0000 0.0000 1.2966 0.0000 0.0000
# 5 0.0000 0.0000 0.0000 0.0000 23.3657 0.0000
# 6 0.0000 0.0000 0.0000 0.0000 0.0000 21.2660
#
#
#
# Elastic Compliance Matrix: (Units=1/GPa)
#
#
# Indices 1 2 3 4 5 6 
#
# 1 0.015129 -0.000891 0.002784 0.000000 0.000000 0.000000
# 2 -0.000891 0.011399 -0.005969 0.000000 0.000000 0.000000
# 3 0.002784 -0.005969 0.027655 0.000000 0.000000 0.000000
# 4 0.000000 0.000000 0.000000 0.771260 0.000000 0.000000
# 5 0.000000 0.000000 0.000000 0.000000 0.042798 0.000000
# 6 0.000000 0.000000 0.000000 0.000000 0.000000 0.047023
#
#
# Mechanical properties :
#
#
# Convention : Reuss Voigt Hill
#
# Bulk Modulus (GPa) = 21.72349 26.79574 24.25961
# Shear Modulus (GPa) = 5.32617 21.91771 13.62194
#
# Velocity S-wave (km/s) = 1.67780 3.40353 2.68319
# Velocity P-wave (km/s) = 3.90316 5.44128 4.73509
#
# Compressibility (1/GPa) = 0.04603312
#
# Stress axis : x y z
#
# Youngs Moduli (GPa) = 66.09842 87.72323 36.15922
#
# Poissons Ratio (x) = 0.07812 -0.10067
# Poissons Ratio (y) = 0.05887 0.21583
# Poissons Ratio (z) = -0.18403 0.52362
#
# Static dielectric constant tensor:
#      x y z
#    x 1.710100 0.000000 0.000000 
#    y 0.000000 1.649570 0.000000 
#    z 0.000000 0.000000 1.658830 
# 
# From -- ./inp_files/29007.got.cif
#   From: 2010.05.17/outbox.cif.g08.bks.cpg/sg62_15_cif.got.tgz:29007.got - 2010.06.03 15:25:27.
