data_PCOD9465339
_publ_section_title
;
Structure prediction by ZEFSAII (Michael W. Deem and Ramdas Pophale) SiO2 
 PCOD9465339
Probable space group: P N M A
;
_chemical_formula_sum "Si O2"
_cell_formula_units_Z 56
_cell_length_a 15.494937
_cell_length_b 20.242173
_cell_length_c 9.230924
_cell_angle_alpha 90.000000
_cell_angle_beta 90.000000
_cell_angle_gamma 90.000000
_cell_volume 2895.290347
_symmetry_space_group_name_H-M "P N M A"
_symmetry_group_IT_number 62
_symmetry_cell_setting 'orthorhombic'
loop_
_space_group_symop_operation_xyz
x,y,z
1/2-x,-y,1/2+z
1/2+x,1/2-y,1/2-z
-x,1/2+y,-z
-x,-y,-z
1/2+x,y,1/2-z
1/2-x,1/2+y,1/2+z
x,1/2-y,z
loop_
_atom_site_type_symbol
_atom_site_label
_atom_site_fract_x
_atom_site_fract_y
_atom_site_fract_z
Si Si1 0.114500 0.822726 0.498905
Si Si2 0.721810 0.968280 0.722479
Si Si3 0.943402 0.376204 0.212600
Si Si4 0.493653 0.586484 0.165401
Si Si5 0.054214 0.170207 0.949530
Si Si6 0.592117 0.043488 0.117268
Si Si7 0.222674 0.088152 0.975971
O O1 0.129879 0.750000 0.447806
O O2 0.098362 0.827058 0.670442
O O3 0.030916 0.853224 0.426485
O O4 0.194707 0.866660 0.454887
O O5 0.633702 0.928855 0.688695
O O6 0.808220 0.941216 0.643958
O O7 0.707589 0.041607 0.661849
O O8 0.749961 0.958660 0.889342
O O9 0.024469 0.411678 0.292875
O O10 0.980218 0.342499 0.069223
O O11 0.466022 0.621943 0.312827
O O12 0.567835 0.530092 0.174842
O O13 0.427060 0.550610 0.054766
O O14 0.061651 0.250000 0.920853
O O15 0.143116 0.137161 0.007775
#
# Coordination Sequence:
#
# PCOD9465339 Si02
#       7
#     8   8   8   8   8   8   8
#     4  10  20  40  61  82 117 167 210 242 300 385
#     4  11  23  39  65  98 124 156 207 271 318 371
#     4  10  23  39  64  92 120 164 210 256 314 366
#     4  10  22  37  64  90 121 163 205 259 319 374
#     4  12  25  42  61  92 132 167 208 257 310 375
#     4  10  20  42  63  90 126 158 207 264 320 376
#     4  11  24  39  63  92 123 163 204 260 319 372
#
# _framework density 19.341756
#
# number of rings (size 3 to 8) (size 9 to 14) (size 15 to 20)
#    0.000    1.429    2.857    2.143    6.000    1.143 
#    0.000    0.000    0.000    0.000    0.000    0.000 
#    0.000    0.000    0.000    0.000    0.000    0.000 
#
# Total GULP energy -312123.461633 kJ/mol
# GULP energy per Si atom -5573.633243 kJ/mol
# Density = 1.929773 g / cm^3
# Si number density = 19.341756 Si / 1000 Ang^3
#
#
#
# Elastic Constant Matrix: (Units=GPa)
#
#
# Indices 1 2 3 4 5 6 
#
# 1 101.6375 23.3771 20.8734 0.0000 0.0000 0.0000
# 2 23.3771 107.5264 42.7284 0.0000 0.0000 0.0000
# 3 20.8734 42.7284 54.0785 0.0000 0.0000 0.0000
# 4 0.0000 0.0000 0.0000 -4.6206 0.0000 0.0000
# 5 0.0000 0.0000 0.0000 0.0000 24.0098 0.0000
# 6 0.0000 0.0000 0.0000 0.0000 0.0000 11.0457
#
#
#
# Elastic Compliance Matrix: (Units=1/GPa)
#
#
# Indices 1 2 3 4 5 6 
#
# 1 0.010760 -0.001004 -0.003360 0.000000 0.000000 0.000000
# 2 -0.001004 0.013650 -0.010398 0.000000 0.000000 0.000000
# 3 -0.003360 -0.010398 0.028004 0.000000 0.000000 0.000000
# 4 0.000000 0.000000 0.000000 -0.216423 0.000000 0.000000
# 5 0.000000 0.000000 0.000000 0.000000 0.041650 0.000000
# 6 0.000000 0.000000 0.000000 0.000000 0.000000 0.090533
#
#
# Mechanical properties :
#
#
# Convention : Reuss Voigt Hill
#
# Bulk Modulus (GPa) = 43.68578 48.57779 46.13178
# Shear Modulus (GPa) = 938.71924 17.83790 478.27857
#
# Velocity S-wave (km/s) = 22.05417 3.04015 15.74213
# Velocity P-wave (km/s) = 25.90658 6.12318 18.82344
#
# Compressibility (1/GPa) = 0.02289074
#
# Stress axis : x y z
#
# Youngs Moduli (GPa) = 92.93815 73.25950 35.70954
#
# Poissons Ratio (x) = 0.07357 0.11997
# Poissons Ratio (y) = 0.09333 0.37129
# Poissons Ratio (z) = 0.31224 0.76172
#
# Static dielectric constant tensor:
#      x y z
#    x 1.697130 0.000000 0.000000 
#    y 0.000000 1.694260 0.000000 
#    z 0.000000 0.000000 1.715500 
# 
# From -- ./inp_files/6776.got.cif
#   From: 2010.05.17/outbox.cif.g08.bks.cpg/sg62_4_cif.got.tgz:6776.got - 2010.06.03 15:25:27.
