data_PCOD9465455
_publ_section_title
;
Structure prediction by ZEFSAII (Michael W. Deem and Ramdas Pophale) SiO2 
 PCOD9465455
Probable space group: P N M A
;
_chemical_formula_sum "Si O2"
_cell_formula_units_Z 56
_cell_length_a 21.074094
_cell_length_b 25.524180
_cell_length_c 5.289566
_cell_angle_alpha 90.000000
_cell_angle_beta 90.000000
_cell_angle_gamma 90.000000
_cell_volume 2845.252096
_symmetry_space_group_name_H-M "P N M A"
_symmetry_group_IT_number 62
_symmetry_cell_setting 'orthorhombic'
loop_
_space_group_symop_operation_xyz
x,y,z
1/2-x,-y,1/2+z
1/2+x,1/2-y,1/2-z
-x,1/2+y,-z
-x,-y,-z
1/2+x,y,1/2-z
1/2-x,1/2+y,1/2+z
x,1/2-y,z
loop_
_atom_site_type_symbol
_atom_site_label
_atom_site_fract_x
_atom_site_fract_y
_atom_site_fract_z
Si Si1 0.057103 0.002675 0.203216
Si Si2 0.151751 0.809466 0.170851
Si Si3 0.372298 0.941210 0.307325
Si Si4 0.672721 0.551014 0.836113
Si Si5 0.411310 0.152592 0.184799
Si Si6 0.996696 0.911584 0.415613
Si Si7 0.762560 0.089822 0.845884
O O1 0.029877 0.043948 0.400125
O O2 0.117647 0.030388 0.077935
O O3 0.056749 0.941484 0.284920
O O4 0.000000 0.000000 0.000000
O O5 0.174579 0.750000 0.149086
O O6 0.124540 0.819105 0.452542
O O7 0.205966 0.852922 0.124281
O O8 0.098683 0.818949 0.951724
O O9 0.436080 0.907180 0.266704
O O10 0.311013 0.908399 0.231996
O O11 0.361515 0.995083 0.148989
O O12 0.621548 0.595954 0.776474
O O13 0.722024 0.556966 0.601040
O O14 0.705167 0.563443 0.101542
O O15 0.480062 0.138045 0.072337
#
# Coordination Sequence:
#
# PCOD9465455 Si02
#       7
#     8   8   8   8   8   8   8
#     4   9  19  31  48  74 117 159 192 214 263 325
#     4  10  22  41  64  85 106 141 194 259 313 349
#     4  11  22  32  54  79 127 165 194 227 283 346
#     4  10  21  35  53  81 120 157 197 232 277 338
#     4  10  21  36  62  86 112 144 191 245 294 349
#     4  10  21  33  51  85 117 159 196 230 271 349
#     4  10  23  37  55  84 113 156 199 244 287 344
#
# _framework density 19.681910999999999
#
# number of rings (size 3 to 8) (size 9 to 14) (size 15 to 20)
#    0.000    2.000    0.000    3.857   14.000    0.000 
#    0.000    0.000    0.000    1.714    0.000    0.000 
#    0.000    0.000    0.000    0.000    0.000    0.000 
#
# Total GULP energy -312076.607474 kJ/mol
# GULP energy per Si atom -5572.796562 kJ/mol
# Density = 1.963711 g / cm^3
# Si number density = 19.681911 Si / 1000 Ang^3
#
#
#
# Elastic Constant Matrix: (Units=GPa)
#
#
# Indices 1 2 3 4 5 6 
#
# 1 85.5909 25.8928 20.1467 0.0000 0.0000 0.0000
# 2 25.8928 82.6016 14.7900 0.0000 0.0000 0.0000
# 3 20.1467 14.7900 88.0750 0.0000 0.0000 0.0000
# 4 0.0000 0.0000 0.0000 16.3265 0.0000 0.0000
# 5 0.0000 0.0000 0.0000 0.0000 27.8023 0.0000
# 6 0.0000 0.0000 0.0000 0.0000 0.0000 9.9705
#
#
#
# Elastic Compliance Matrix: (Units=1/GPa)
#
#
# Indices 1 2 3 4 5 6 
#
# 1 0.013394 -0.003763 -0.002432 0.000000 0.000000 0.000000
# 2 -0.003763 0.013539 -0.001413 0.000000 0.000000 0.000000
# 3 -0.002432 -0.001413 0.012147 0.000000 0.000000 0.000000
# 4 0.000000 0.000000 0.000000 0.061250 0.000000 0.000000
# 5 0.000000 0.000000 0.000000 0.000000 0.035968 0.000000
# 6 0.000000 0.000000 0.000000 0.000000 0.000000 0.100296
#
#
# Mechanical properties :
#
#
# Convention : Reuss Voigt Hill
#
# Bulk Modulus (GPa) = 41.90241 41.99184 41.94712
# Shear Modulus (GPa) = 19.24808 23.84905 21.54856
#
# Velocity S-wave (km/s) = 3.13062 3.48476 3.31243
# Velocity P-wave (km/s) = 5.86547 6.12968 5.99903
#
# Compressibility (1/GPa) = 0.02386498
#
# Stress axis : x y z
#
# Youngs Moduli (GPa) = 74.65820 73.86128 82.32151
#
# Poissons Ratio (x) = 0.27796 0.20020
# Poissons Ratio (y) = 0.28096 0.11630
# Poissons Ratio (z) = 0.18157 0.10434
#
# Static dielectric constant tensor:
#      x y z
#    x 1.798340 0.000000 0.000000 
#    y 0.000000 1.674500 0.000000 
#    z 0.000000 0.000000 1.861170 
# 
# From -- ./inp_files/2286.got.cif
#   From: 2010.05.17/outbox.cif.g08.bks.cpg/sg62_2_cif.got.tgz:2286.got - 2010.06.03 15:25:27.
