data_PCOD9465636
_publ_section_title
;
Structure prediction by ZEFSAII (Michael W. Deem and Ramdas Pophale) SiO2 
 PCOD9465636
Probable space group: P N M A
;
_chemical_formula_sum "Si O2"
_cell_formula_units_Z 56
_cell_length_a 15.141896
_cell_length_b 8.620735
_cell_length_c 22.208337
_cell_angle_alpha 90.000000
_cell_angle_beta 90.000000
_cell_angle_gamma 90.000000
_cell_volume 2898.949121
_symmetry_space_group_name_H-M "P N M A"
_symmetry_group_IT_number 62
_symmetry_cell_setting 'orthorhombic'
loop_
_space_group_symop_operation_xyz
x,y,z
1/2-x,-y,1/2+z
1/2+x,1/2-y,1/2-z
-x,1/2+y,-z
-x,-y,-z
1/2+x,y,1/2-z
1/2-x,1/2+y,1/2+z
x,1/2-y,z
loop_
_atom_site_type_symbol
_atom_site_label
_atom_site_fract_x
_atom_site_fract_y
_atom_site_fract_z
Si Si1 0.688275 0.937131 0.719445
Si Si2 0.920379 0.935651 0.460088
Si Si3 0.613709 0.062859 0.249793
Si Si4 0.777267 0.062635 0.986862
Si Si5 0.089060 0.562746 0.115954
Si Si6 0.891035 0.564703 0.096444
Si Si7 0.443059 0.062913 0.173575
O O1 0.683643 0.750000 0.712705
O O2 0.790301 0.983630 0.725470
O O3 0.635450 0.977624 0.780214
O O4 0.642570 0.012690 0.661920
O O5 0.921824 0.750000 0.463269
O O6 0.824171 0.989931 0.483386
O O7 0.931203 0.988031 0.391217
O O8 0.000000 0.000000 0.500000
O O9 0.611860 0.250000 0.253146
O O10 0.534364 0.014942 0.205839
O O11 0.599680 0.999250 0.316709
O O12 0.777229 0.250000 0.987079
O O13 0.832582 0.010725 0.928164
O O14 0.828802 0.006279 0.045531
O O15 0.090190 0.750000 0.118119
O O16 0.993300 0.514022 0.090543
O O17 0.888158 0.750000 0.091966
O O18 0.444098 0.250000 0.166787
#
# Coordination Sequence:
#
# PCOD9465636 Si02
#       7
#     8   8   8   8   8   8   8
#     4  10  21  38  60  87 121 159 197 243 296 354
#     4  11  25  43  64  88 119 159 204 252 302 355
#     4  10  21  36  60  89 117 155 197 237 291 353
#     4  10  23  42  62  84 117 162 201 242 300 360
#     4  10  21  39  61  90 123 154 194 245 300 356
#     4  11  23  37  59  92 122 152 197 250 299 353
#     4  10  21  39  61  88 121 156 197 242 292 353
#
# _framework density 19.317345
#
# number of rings (size 3 to 8) (size 9 to 14) (size 15 to 20)
#    0.000    1.714    1.429    2.143    2.000    4.000 
#    0.000    0.000    0.000    0.000    0.000    0.000 
#    0.000    0.000    0.000    0.000    0.000    0.000 
#
# Total GULP energy -312997.670712 kJ/mol
# GULP energy per Si atom -5589.244120 kJ/mol
# Density = 1.927338 g / cm^3
# Si number density = 19.317345 Si / 1000 Ang^3
#
#
#
# Elastic Constant Matrix: (Units=GPa)
#
#
# Indices 1 2 3 4 5 6 
#
# 1 147.1538 27.0686 25.7016 0.0000 0.0000 0.0000
# 2 27.0686 11.1491 14.5214 0.0000 0.0000 0.0000
# 3 25.7016 14.5214 59.8678 0.0000 0.0000 0.0000
# 4 0.0000 0.0000 0.0000 37.6873 0.0000 0.0000
# 5 0.0000 0.0000 0.0000 0.0000 27.3508 0.0000
# 6 0.0000 0.0000 0.0000 0.0000 0.0000 17.5364
#
#
#
# Elastic Compliance Matrix: (Units=1/GPa)
#
#
# Indices 1 2 3 4 5 6 
#
# 1 0.012625 -0.034489 0.002945 0.000000 0.000000 0.000000
# 2 -0.034489 0.225329 -0.039849 0.000000 0.000000 0.000000
# 3 0.002945 -0.039849 0.025105 0.000000 0.000000 0.000000
# 4 0.000000 0.000000 0.000000 0.026534 0.000000 0.000000
# 5 0.000000 0.000000 0.000000 0.000000 0.036562 0.000000
# 6 0.000000 0.000000 0.000000 0.000000 0.000000 0.057024
#
#
# Mechanical properties :
#
#
# Convention : Reuss Voigt Hill
#
# Bulk Modulus (GPa) = 8.31431 39.19486 23.75459
# Shear Modulus (GPa) = 8.83305 26.57353 17.70329
#
# Velocity S-wave (km/s) = 2.14068 3.71297 3.03057
# Velocity P-wave (km/s) = 3.22854 6.22219 4.95676
#
# Compressibility (1/GPa) = 0.12027455
#
# Stress axis : x y z
#
# Youngs Moduli (GPa) = 79.20597 4.43795 39.83328
#
# Poissons Ratio (x) = 0.15306 -0.11732
# Poissons Ratio (y) = 2.73172 1.58732
# Poissons Ratio (z) = -0.23329 0.17685
#
# Static dielectric constant tensor:
#      x y z
#    x 1.681660 0.000000 0.000000 
#    y 0.000000 1.658550 0.000000 
#    z 0.000000 0.000000 1.619450 
# 
# From -- ./inp_files/27089.got.cif
#   From: 2010.05.17/outbox.cif.g08.bks.cpg/sg62_14_cif.got.tgz:27089.got - 2010.06.03 15:25:27.
