data_PCOD9465143
_publ_section_title
;
Structure prediction by ZEFSAII (Michael W. Deem and Ramdas Pophale) SiO2 
 PCOD9465143
Probable space group: P N M A
;
_chemical_formula_sum "Si O2"
_cell_formula_units_Z 40
_cell_length_a 18.657547
_cell_length_b 8.010046
_cell_length_c 12.666320
_cell_angle_alpha 90.000000
_cell_angle_beta 90.000000
_cell_angle_gamma 90.000000
_cell_volume 1892.953781
_symmetry_space_group_name_H-M "P N M A"
_symmetry_group_IT_number 62
_symmetry_cell_setting 'orthorhombic'
loop_
_space_group_symop_operation_xyz
x,y,z
1/2-x,-y,1/2+z
1/2+x,1/2-y,1/2-z
-x,1/2+y,-z
-x,-y,-z
1/2+x,y,1/2-z
1/2-x,1/2+y,1/2+z
x,1/2-y,z
loop_
_atom_site_type_symbol
_atom_site_label
_atom_site_fract_x
_atom_site_fract_y
_atom_site_fract_z
Si Si1 0.878601 0.444948 0.203001
Si Si2 0.542699 0.454183 0.279783
Si Si3 0.076625 0.451171 0.451572
Si Si4 0.794583 0.945268 0.398957
Si Si5 0.142079 0.055546 0.031546
O O1 0.876649 0.250000 0.231719
O O2 0.824109 0.535869 0.280717
O O3 0.959892 0.506961 0.220174
O O4 0.860429 0.465463 0.080501
O O5 0.543656 0.250000 0.281779
O O6 0.578865 0.507925 0.170027
O O7 0.584726 0.511148 0.383569
O O8 0.079591 0.250000 0.451814
O O9 0.142365 0.510202 0.523650
O O10 0.000000 0.500000 0.500000
O O11 0.782393 0.750000 0.422144
O O12 0.720485 0.038165 0.418148
O O13 0.126007 0.250000 0.011911
#
# Coordination Sequence:
#
# PCOD9465143 Si02
#       5
#     8   8   8   8   8
#     4  11  22  41  66  89 122 162 205 256 311 369
#     4   9  20  39  64  91 120 160 204 253 311 367
#     4  10  20  38  62  89 121 157 202 253 305 364
#     4  11  24  40  61  93 127 162 206 255 309 370
#     4  11  24  41  63  91 126 165 207 255 310 369
#
# _framework density 21.130997000000001
#
# number of rings (size 3 to 8) (size 9 to 14) (size 15 to 20)
#    0.000    1.600    2.000    2.400    2.800    0.800 
#    0.000    5.000    0.000    0.000    0.000    0.000 
#    0.000    0.000    0.000    0.000    0.000    0.000 
#
# Total GULP energy -223654.440298 kJ/mol
# GULP energy per Si atom -5591.361007 kJ/mol
# Density = 2.108290 g / cm^3
# Si number density = 21.130997 Si / 1000 Ang^3
#
#
#
# Elastic Constant Matrix: (Units=GPa)
#
#
# Indices 1 2 3 4 5 6 
#
# 1 31.4037 -6.5234 3.0084 0.0000 0.0000 0.0000
# 2 -6.5234 27.3268 -8.7676 0.0000 0.0000 0.0000
# 3 3.0084 -8.7676 114.4533 0.0000 0.0000 0.0000
# 4 0.0000 0.0000 0.0000 7.8071 0.0000 0.0000
# 5 0.0000 0.0000 0.0000 0.0000 23.7788 0.0000
# 6 0.0000 0.0000 0.0000 0.0000 0.0000 20.4819
#
#
#
# Elastic Compliance Matrix: (Units=1/GPa)
#
#
# Indices 1 2 3 4 5 6 
#
# 1 0.033513 0.007912 -0.000275 0.000000 0.000000 0.000000
# 2 0.007912 0.039384 0.002809 0.000000 0.000000 0.000000
# 3 -0.000275 0.002809 0.008960 0.000000 0.000000 0.000000
# 4 0.000000 0.000000 0.000000 0.128089 0.000000 0.000000
# 5 0.000000 0.000000 0.000000 0.000000 0.042054 0.000000
# 6 0.000000 0.000000 0.000000 0.000000 0.000000 0.048824
#
#
# Mechanical properties :
#
#
# Convention : Reuss Voigt Hill
#
# Bulk Modulus (GPa) = 9.73240 16.51317 13.12278
# Shear Modulus (GPa) = 15.91440 22.77798 19.34619
#
# Velocity S-wave (km/s) = 2.74730 3.28676 3.02907
# Velocity P-wave (km/s) = 3.83135 4.71544 4.29620
#
# Compressibility (1/GPa) = 0.10274962
#
# Stress axis : x y z
#
# Youngs Moduli (GPa) = 29.83895 25.39092 111.61219
#
# Poissons Ratio (x) = -0.20089 0.03067
# Poissons Ratio (y) = -0.23609 -0.31352
# Poissons Ratio (z) = 0.00820 -0.07132
#
# Static dielectric constant tensor:
#      x y z
#    x 1.723760 0.000000 0.000000 
#    y 0.000000 1.741840 0.000000 
#    z 0.000000 0.000000 1.743080 
# 
# From -- ./inp_files/13837.got.cif
#   From: 2010.05.17/outbox.cif.g08.bks.cpg/sg62_7_cif.got.tgz:13837.got - 2010.06.03 15:25:27.
