data_PCOD9465672
_publ_section_title
;
Structure prediction by ZEFSAII (Michael W. Deem and Ramdas Pophale) SiO2 
 PCOD9465672
Probable space group: P N M A
;
_chemical_formula_sum "Si O2"
_cell_formula_units_Z 40
_cell_length_a 13.707100
_cell_length_b 8.943543
_cell_length_c 18.871773
_cell_angle_alpha 90.000000
_cell_angle_beta 90.000000
_cell_angle_gamma 90.000000
_cell_volume 2313.491374
_symmetry_space_group_name_H-M "P N M A"
_symmetry_group_IT_number 62
_symmetry_cell_setting 'orthorhombic'
loop_
_space_group_symop_operation_xyz
x,y,z
1/2-x,-y,1/2+z
1/2+x,1/2-y,1/2-z
-x,1/2+y,-z
-x,-y,-z
1/2+x,y,1/2-z
1/2-x,1/2+y,1/2+z
x,1/2-y,z
loop_
_atom_site_type_symbol
_atom_site_label
_atom_site_fract_x
_atom_site_fract_y
_atom_site_fract_z
Si Si1 0.096224 0.927307 0.287021
Si Si2 0.109159 0.572534 0.713250
Si Si3 0.392937 0.928926 0.503951
Si Si4 0.302788 0.928247 0.351108
Si Si5 0.706435 0.571375 0.359452
O O1 0.075100 0.750000 0.291696
O O2 0.188924 0.961022 0.336921
O O3 0.134342 0.958192 0.207182
O O4 0.999742 0.018837 0.303578
O O5 0.117869 0.750000 0.708944
O O6 0.135513 0.516288 0.792473
O O7 0.189385 0.495707 0.662879
O O8 0.400320 0.750000 0.511570
O O9 0.337690 0.960624 0.430117
O O10 0.500000 0.000000 0.500000
O O11 0.335834 0.997670 0.570222
O O12 0.316016 0.750000 0.337488
O O13 0.713575 0.750000 0.367129
#
# Coordination Sequence:
#
# PCOD9465672 Si02
#       5
#     8   8   8   8   8
#     4   9  18  35  56  75 100 138 179 215 257 310
#     4  11  21  33  54  82 108 135 173 221 266 312
#     4  11  22  36  55  81 111 141 176 218 267 319
#     4   9  20  37  55  76 106 143 178 214 259 314
#     4  10  21  37  56  78 107 143 180 218 263 315
#
# _framework density 17.289885000000002
#
# number of rings (size 3 to 8) (size 9 to 14) (size 15 to 20)
#    0.000    2.000    0.000    5.400    0.000   10.400 
#    0.000    1.000    0.000    0.000    0.000    0.000 
#    0.000    0.000    0.000    0.000    0.000    0.000 
#
# Total GULP energy -223417.787601 kJ/mol
# GULP energy per Si atom -5585.444690 kJ/mol
# Density = 1.725053 g / cm^3
# Si number density = 17.289885 Si / 1000 Ang^3
#
#
#
# Elastic Constant Matrix: (Units=GPa)
#
#
# Indices 1 2 3 4 5 6 
#
# 1 130.6602 71.1975 81.5117 0.0000 0.0000 0.0000
# 2 71.1975 80.1574 72.1918 0.0000 0.0000 0.0000
# 3 81.5117 72.1918 136.5246 0.0000 0.0000 0.0000
# 4 0.0000 0.0000 0.0000 30.2636 0.0000 0.0000
# 5 0.0000 0.0000 0.0000 0.0000 10.9096 0.0000
# 6 0.0000 0.0000 0.0000 0.0000 0.0000 27.9980
#
#
#
# Elastic Compliance Matrix: (Units=1/GPa)
#
#
# Indices 1 2 3 4 5 6 
#
# 1 0.015825 -0.010590 -0.003848 0.000000 0.000000 0.000000
# 2 -0.010590 0.030906 -0.010020 0.000000 0.000000 0.000000
# 3 -0.003848 -0.010020 0.014921 0.000000 0.000000 0.000000
# 4 0.000000 0.000000 0.000000 0.033043 0.000000 0.000000
# 5 0.000000 0.000000 0.000000 0.000000 0.091662 0.000000
# 6 0.000000 0.000000 0.000000 0.000000 0.000000 0.035717
#
#
# Mechanical properties :
#
#
# Convention : Reuss Voigt Hill
#
# Bulk Modulus (GPa) = 78.52362 88.57157 83.54759
# Shear Modulus (GPa) = 18.16636 21.99698 20.08167
#
# Velocity S-wave (km/s) = 3.24496 3.57072 3.41173
# Velocity P-wave (km/s) = 7.71713 8.26672 7.99665
#
# Compressibility (1/GPa) = 0.01273502
#
# Stress axis : x y z
#
# Youngs Moduli (GPa) = 63.19219 32.35663 67.02177
#
# Poissons Ratio (x) = 0.34266 0.25792
# Poissons Ratio (y) = 0.66920 0.67153
# Poissons Ratio (z) = 0.24319 0.32420
#
# Static dielectric constant tensor:
#      x y z
#    x 1.572550 0.000000 0.000000 
#    y 0.000000 1.580370 0.000000 
#    z 0.000000 0.000000 1.563390 
# 
# From -- ./inp_files/22756.got.cif
#   From: 2010.05.17/outbox.cif.g08.bks.cpg/sg62_12_cif.got.tgz:22756.got - 2010.06.03 15:25:27.
