data_PCOD9465469
_publ_section_title
;
Structure prediction by ZEFSAII (Michael W. Deem and Ramdas Pophale) SiO2 
 PCOD9465469
Probable space group: P N M A
;
_chemical_formula_sum "Si O2"
_cell_formula_units_Z 48
_cell_length_a 23.355630
_cell_length_b 7.518199
_cell_length_c 12.338037
_cell_angle_alpha 90.000000
_cell_angle_beta 90.000000
_cell_angle_gamma 90.000000
_cell_volume 2166.463975
_symmetry_space_group_name_H-M "P N M A"
_symmetry_group_IT_number 62
_symmetry_cell_setting 'orthorhombic'
loop_
_space_group_symop_operation_xyz
x,y,z
1/2-x,-y,1/2+z
1/2+x,1/2-y,1/2-z
-x,1/2+y,-z
-x,-y,-z
1/2+x,y,1/2-z
1/2-x,1/2+y,1/2+z
x,1/2-y,z
loop_
_atom_site_type_symbol
_atom_site_label
_atom_site_fract_x
_atom_site_fract_y
_atom_site_fract_z
Si Si1 0.359246 0.044569 0.487184
Si Si2 0.051351 0.033230 0.164676
Si Si3 0.358648 0.540043 0.843690
Si Si4 0.076670 0.536971 0.787545
Si Si5 0.852049 0.536834 0.413031
Si Si6 0.229883 0.534652 0.165502
O O1 0.342572 0.250000 0.470229
O O2 0.375353 0.965078 0.370985
O O3 0.310884 0.968294 0.566897
O O4 0.417907 0.035020 0.556559
O O5 0.052675 0.250000 0.160441
O O6 0.091596 0.971470 0.264226
O O7 0.986569 0.972859 0.182089
O O8 0.369522 0.750000 0.853483
O O9 0.299434 0.518020 0.778306
O O10 0.357421 0.466254 0.964850
O O11 0.075464 0.750000 0.802055
O O12 0.095016 0.501002 0.665141
O O13 0.846182 0.750000 0.420727
O O14 0.793938 0.471180 0.355785
O O15 0.228721 0.750000 0.163769
#
# Coordination Sequence:
#
# PCOD9465469 Si02
#       6
#     8   8   8   8   8   8
#     4   9  18  33  54  78 103 137 173 214 267 310
#     4   9  18  34  54  79 107 136 175 218 258 308
#     4   9  19  36  56  75 102 139 173 210 262 313
#     4  10  21  34  52  79 109 139 174 216 260 307
#     4  10  22  36  51  75 105 139 175 213 257 309
#     4   9  19  35  53  74 101 131 172 218 257 308
#
# _framework density 22.155919999999998
#
# number of rings (size 3 to 8) (size 9 to 14) (size 15 to 20)
#    0.000    2.667    0.000    0.500    2.333    3.333 
#    0.000    0.000    0.000    0.000    0.000    0.000 
#    0.000    0.000    0.000    0.000    0.000    0.000 
#
# Total GULP energy -268011.772155 kJ/mol
# GULP energy per Si atom -5583.578587 kJ/mol
# Density = 2.210549 g / cm^3
# Si number density = 22.155920 Si / 1000 Ang^3
#
#
#
# Elastic Constant Matrix: (Units=GPa)
#
#
# Indices 1 2 3 4 5 6 
#
# 1 35.8109 -7.9950 -4.0972 0.0000 0.0000 0.0000
# 2 -7.9950 53.2666 -8.0823 0.0000 0.0000 0.0000
# 3 -4.0972 -8.0823 100.8823 0.0000 0.0000 0.0000
# 4 0.0000 0.0000 0.0000 -53.1893 0.0000 0.0000
# 5 0.0000 0.0000 0.0000 0.0000 4.1573 0.0000
# 6 0.0000 0.0000 0.0000 0.0000 0.0000 16.0071
#
#
#
# Elastic Compliance Matrix: (Units=1/GPa)
#
#
# Indices 1 2 3 4 5 6 
#
# 1 0.029131 0.004608 0.001552 0.000000 0.000000 0.000000
# 2 0.004608 0.019733 0.001768 0.000000 0.000000 0.000000
# 3 0.001552 0.001768 0.010117 0.000000 0.000000 0.000000
# 4 0.000000 0.000000 0.000000 -0.018801 0.000000 0.000000
# 5 0.000000 0.000000 0.000000 0.000000 0.240542 0.000000
# 6 0.000000 0.000000 0.000000 0.000000 0.000000 0.062472
#
#
# Mechanical properties :
#
#
# Convention : Reuss Voigt Hill
#
# Bulk Modulus (GPa) = 13.36219 16.62341 14.99280
# Shear Modulus (GPa) = 14.19309 7.40396 10.79852
#
# Velocity S-wave (km/s) = 2.53375 1.83003 2.21008
# Velocity P-wave (km/s) = 3.82151 3.46187 3.64613
#
# Compressibility (1/GPa) = 0.07483801
#
# Stress axis : x y z
#
# Youngs Moduli (GPa) = 34.32795 50.67548 98.84119
#
# Poissons Ratio (x) = -0.23351 -0.15343
# Poissons Ratio (y) = -0.15818 -0.17476
# Poissons Ratio (z) = -0.05329 -0.08960
#
# Static dielectric constant tensor:
#      x y z
#    x 1.791070 0.000000 0.000000 
#    y 0.000000 1.838110 0.000000 
#    z 0.000000 0.000000 1.814890 
# 
# From -- ./inp_files/15098.got.cif
#   From: 2010.05.17/outbox.cif.g08.bks.cpg/sg62_8_cif.got.tgz:15098.got - 2010.06.03 15:25:27.
