data_PCOD9465309
_publ_section_title
;
Structure prediction by ZEFSAII (Michael W. Deem and Ramdas Pophale) SiO2 
 PCOD9465309
Probable space group: P N M A
;
_chemical_formula_sum "Si O2"
_cell_formula_units_Z 52
_cell_length_a 5.393803
_cell_length_b 17.269829
_cell_length_c 29.509029
_cell_angle_alpha 90.000000
_cell_angle_beta 90.000000
_cell_angle_gamma 90.000000
_cell_volume 2748.767688
_symmetry_space_group_name_H-M "P N M A"
_symmetry_group_IT_number 62
_symmetry_cell_setting 'orthorhombic'
loop_
_space_group_symop_operation_xyz
x,y,z
1/2-x,-y,1/2+z
1/2+x,1/2-y,1/2-z
-x,1/2+y,-z
-x,-y,-z
1/2+x,y,1/2-z
1/2-x,1/2+y,1/2+z
x,1/2-y,z
loop_
_atom_site_type_symbol
_atom_site_label
_atom_site_fract_x
_atom_site_fract_y
_atom_site_fract_z
Si Si1 0.819089 0.066305 0.981907
Si Si2 0.685272 0.921536 0.720224
Si Si3 0.037206 0.836943 0.525027
Si Si4 0.794790 0.045883 0.411851
Si Si5 0.221418 0.490532 0.868120
Si Si6 0.802004 0.839826 0.072812
Si Si7 0.872905 0.250000 0.220579
O O1 0.941636 0.129645 0.949071
O O2 0.636613 0.016404 0.951048
O O3 0.703307 0.110009 0.023823
O O4 0.000000 0.000000 0.000000
O O5 0.446699 0.925378 0.753285
O O6 0.674146 0.991491 0.684502
O O7 0.663861 0.834642 0.697758
O O8 0.978446 0.750000 0.535680
O O9 0.217467 0.873198 0.561993
O O10 0.134586 0.841826 0.473090
O O11 0.529607 0.021715 0.392106
O O12 0.026008 0.038038 0.378396
O O13 0.257712 0.402922 0.888008
O O14 0.810150 0.750000 0.087820
O O15 0.150969 0.250000 0.241672
#
# Coordination Sequence:
#
# PCOD9465309 Si02
#       7
#     8   8   8   8   8   8   4
#     4  11  19  34  55  76 107 159 209 250 286 343
#     4  10  20  39  65  88 113 147 187 232 297 371
#     4  11  21  35  52  78 115 162 205 241 289 347
#     4  11  22  37  54  82 115 156 194 242 287 342
#     4  11  23  39  60  86 118 148 197 245 300 349
#     4  10  21  35  55  82 114 158 207 250 289 340
#     4   8  16  32  58  88 106 136 178 222 274 352
#
# _framework density 18.917570000000001
#
# number of rings (size 3 to 8) (size 9 to 14) (size 15 to 20)
#    0.000    1.538    3.077    3.692    0.000    0.000 
#    2.769    0.000    0.000    0.923    0.000    0.000 
#    0.000    0.000    0.000    0.000    0.000    0.000 
#
# Total GULP energy -289550.987091 kJ/mol
# GULP energy per Si atom -5568.288213 kJ/mol
# Density = 1.887451 g / cm^3
# Si number density = 18.917570 Si / 1000 Ang^3
#
#
#
# Elastic Constant Matrix: (Units=GPa)
#
#
# Indices 1 2 3 4 5 6 
#
# 1 79.5997 32.8997 10.9573 0.0000 0.0000 0.0000
# 2 32.8997 123.5698 39.4120 0.0000 0.0000 0.0000
# 3 10.9573 39.4120 49.2046 0.0000 0.0000 0.0000
# 4 0.0000 0.0000 0.0000 24.3197 0.0000 0.0000
# 5 0.0000 0.0000 0.0000 0.0000 24.5032 0.0000
# 6 0.0000 0.0000 0.0000 0.0000 0.0000 19.3533
#
#
#
# Elastic Compliance Matrix: (Units=1/GPa)
#
#
# Indices 1 2 3 4 5 6 
#
# 1 0.014117 -0.003702 -0.000179 0.000000 0.000000 0.000000
# 2 -0.003702 0.011840 -0.008659 0.000000 0.000000 0.000000
# 3 -0.000179 -0.008659 0.027299 0.000000 0.000000 0.000000
# 4 0.000000 0.000000 0.000000 0.041119 0.000000 0.000000
# 5 0.000000 0.000000 0.000000 0.000000 0.040811 0.000000
# 6 0.000000 0.000000 0.000000 0.000000 0.000000 0.051671
#
#
# Mechanical properties :
#
#
# Convention : Reuss Voigt Hill
#
# Bulk Modulus (GPa) = 35.49009 46.54580 41.01794
# Shear Modulus (GPa) = 22.59081 24.90891 23.74986
#
# Velocity S-wave (km/s) = 3.45943 3.63258 3.54706
# Velocity P-wave (km/s) = 5.89559 6.50017 6.20524
#
# Compressibility (1/GPa) = 0.02817688
#
# Stress axis : x y z
#
# Youngs Moduli (GPa) = 70.83451 84.45983 36.63136
#
# Poissons Ratio (x) = 0.31264 0.00655
# Poissons Ratio (y) = 0.26220 0.31720
# Poissons Ratio (z) = 0.01267 0.73136
#
# Static dielectric constant tensor:
#      x y z
#    x 1.742400 0.000000 0.000000 
#    y 0.000000 1.689710 0.000000 
#    z 0.000000 0.000000 1.694360 
# 
# From -- ./inp_files/30487.got.cif
#   From: 2010.05.17/outbox.cif.g08.bks.cpg/sg62_16_cif.got.tgz:30487.got - 2010.06.03 15:25:27.
