data_PCOD9465719
_publ_section_title
;
Structure prediction by ZEFSAII (Michael W. Deem and Ramdas Pophale) SiO2 
 PCOD9465719
Probable space group: P N M A
;
_chemical_formula_sum "Si O2"
_cell_formula_units_Z 64
_cell_length_a 24.382542
_cell_length_b 7.796647
_cell_length_c 15.833640
_cell_angle_alpha 90.000000
_cell_angle_beta 90.000000
_cell_angle_gamma 90.000000
_cell_volume 3010.007786
_symmetry_space_group_name_H-M "P N M A"
_symmetry_group_IT_number 62
_symmetry_cell_setting 'orthorhombic'
loop_
_space_group_symop_operation_xyz
x,y,z
1/2-x,-y,1/2+z
1/2+x,1/2-y,1/2-z
-x,1/2+y,-z
-x,-y,-z
1/2+x,y,1/2-z
1/2-x,1/2+y,1/2+z
x,1/2-y,z
loop_
_atom_site_type_symbol
_atom_site_label
_atom_site_fract_x
_atom_site_fract_y
_atom_site_fract_z
Si Si1 0.548484 0.539372 0.751260
Si Si2 0.622665 0.551459 0.904630
Si Si3 0.849077 0.049651 0.583637
Si Si4 0.759919 0.050276 0.168372
Si Si5 0.242359 0.052618 0.644099
Si Si6 0.576955 0.452972 0.239851
Si Si7 0.622693 0.959273 0.596555
Si Si8 0.139896 0.958062 0.089677
O O1 0.549567 0.750000 0.750539
O O2 0.584095 0.477825 0.831403
O O3 0.485616 0.484632 0.757390
O O4 0.577974 0.483945 0.664714
O O5 0.605711 0.750000 0.912042
O O6 0.685677 0.541660 0.874435
O O7 0.622883 0.476775 0.999013
O O8 0.837662 0.250000 0.568329
O O9 0.790844 0.965870 0.605136
O O10 0.887914 0.033147 0.664542
O O11 0.767001 0.250000 0.190705
O O12 0.816936 0.988716 0.128808
O O13 0.746806 0.955519 0.255591
O O14 0.234452 0.250000 0.618194
O O15 0.296834 0.983931 0.598924
O O16 0.576336 0.250000 0.223683
O O17 0.605923 0.483598 0.329470
O O18 0.622295 0.750000 0.595870
O O19 0.615534 0.015000 0.499963
O O20 0.141215 0.750000 0.091403
#
# Coordination Sequence:
#
# PCOD9465719 Si02
#       8
#     8   8   8   8   8   8   8   8
#     4   9  19  38  60  83 110 147 199 243 282 338
#     4  10  21  39  62  85 114 154 193 235 289 348
#     4  11  23  38  58  86 119 151 188 241 294 341
#     4  11  20  35  62  88 114 153 193 228 283 349
#     4  11  21  34  56  88 124 153 183 231 286 341
#     4  11  23  38  59  82 110 152 198 244 287 340
#     4   9  18  35  61  86 112 150 189 228 281 343
#     4  10  21  37  58  84 117 152 185 230 286 342
#
# _framework density 21.262404
#
# number of rings (size 3 to 8) (size 9 to 14) (size 15 to 20)
#    0.000    1.750    2.500    2.250    0.000    3.500 
#    0.000    2.500    0.000    0.000    0.000    0.000 
#    0.000    0.000    0.000    0.000    0.000    0.000 
#
# Total GULP energy -357649.305529 kJ/mol
# GULP energy per Si atom -5588.270399 kJ/mol
# Density = 2.121401 g / cm^3
# Si number density = 21.262404 Si / 1000 Ang^3
#
#
#
# Elastic Constant Matrix: (Units=GPa)
#
#
# Indices 1 2 3 4 5 6 
#
# 1 109.5848 -3.5952 25.1211 0.0000 0.0000 0.0000
# 2 -3.5952 30.5958 -3.5755 0.0000 0.0000 0.0000
# 3 25.1211 -3.5755 103.8027 0.0000 0.0000 0.0000
# 4 0.0000 0.0000 0.0000 4.4988 0.0000 0.0000
# 5 0.0000 0.0000 0.0000 0.0000 2.5875 0.0000
# 6 0.0000 0.0000 0.0000 0.0000 0.0000 -6.9590
#
#
#
# Elastic Compliance Matrix: (Units=1/GPa)
#
#
# Indices 1 2 3 4 5 6 
#
# 1 0.009684 0.000868 -0.002314 0.000000 0.000000 0.000000
# 2 0.000868 0.032894 0.000923 0.000000 0.000000 0.000000
# 3 -0.002314 0.000923 0.010225 0.000000 0.000000 0.000000
# 4 0.000000 0.000000 0.000000 0.222280 0.000000 0.000000
# 5 0.000000 0.000000 0.000000 0.000000 0.386473 0.000000
# 6 0.000000 0.000000 0.000000 0.000000 0.000000 -0.143699
#
#
# Mechanical properties :
#
#
# Convention : Reuss Voigt Hill
#
# Bulk Modulus (GPa) = 19.32094 31.09826 25.20960
# Shear Modulus (GPa) = 9.32565 15.09433 12.20999
#
# Velocity S-wave (km/s) = 2.09654 2.66730 2.39896
# Velocity P-wave (km/s) = 3.86876 4.91362 4.42216
#
# Compressibility (1/GPa) = 0.05175732
#
# Stress axis : x y z
#
# Youngs Moduli (GPa) = 103.26071 30.40068 97.79559
#
# Poissons Ratio (x) = -0.02637 0.22628
# Poissons Ratio (y) = -0.08958 -0.09027
# Poissons Ratio (z) = 0.23892 -0.02806
#
# Static dielectric constant tensor:
#      x y z
#    x 1.722480 0.000000 0.000000 
#    y 0.000000 1.834580 0.000000 
#    z 0.000000 0.000000 1.768920 
# 
# From -- ./inp_files/20759.got.cif
#   From: 2010.05.17/outbox.cif.g08.bks.cpg/sg62_11_cif.got.tgz:20759.got - 2010.06.03 15:25:27.
