data_PCOD9465289
_publ_section_title
;
Structure prediction by ZEFSAII (Michael W. Deem and Ramdas Pophale) SiO2 
 PCOD9465289
Probable space group: P N M A
;
_chemical_formula_sum "Si O2"
_cell_formula_units_Z 56
_cell_length_a 21.485322
_cell_length_b 13.807092
_cell_length_c 9.071042
_cell_angle_alpha 90.000000
_cell_angle_beta 90.000000
_cell_angle_gamma 90.000000
_cell_volume 2690.922954
_symmetry_space_group_name_H-M "P N M A"
_symmetry_group_IT_number 62
_symmetry_cell_setting 'orthorhombic'
loop_
_space_group_symop_operation_xyz
x,y,z
1/2-x,-y,1/2+z
1/2+x,1/2-y,1/2-z
-x,1/2+y,-z
-x,-y,-z
1/2+x,y,1/2-z
1/2-x,1/2+y,1/2+z
x,1/2-y,z
loop_
_atom_site_type_symbol
_atom_site_label
_atom_site_fract_x
_atom_site_fract_y
_atom_site_fract_z
Si Si1 0.871080 0.006995 0.564648
Si Si2 0.221451 0.361451 0.270192
Si Si3 0.097040 0.141388 0.678597
Si Si4 0.045203 0.856842 0.242410
Si Si5 0.068070 0.541533 0.969467
Si Si6 0.639145 0.863764 0.787408
Si Si7 0.848295 0.639610 0.021683
O O1 0.921410 0.058703 0.667635
O O2 0.850844 0.089430 0.448005
O O3 0.818170 0.946129 0.651458
O O4 0.901832 0.928686 0.457731
O O5 0.204406 0.250000 0.315792
O O6 0.294732 0.374325 0.295867
O O7 0.208197 0.364086 0.093216
O O8 0.102770 0.250000 0.623410
O O9 0.151898 0.127291 0.800217
O O10 0.029746 0.132821 0.756977
O O11 0.058828 0.750000 0.303624
O O12 0.072009 0.867470 0.078477
O O13 0.087827 0.577594 0.807558
O O14 0.111045 0.452792 0.020912
O O15 0.000000 0.500000 0.000000
O O16 0.623997 0.750000 0.797764
O O17 0.874774 0.750000 0.003530
#
# Coordination Sequence:
#
# PCOD9465289 Si02
#       7
#     8   8   8   8   8   8   8
#     4  12  22  38  64  88 124 167 211 258 322 385
#     4  10  24  43  64  91 125 165 215 267 317 379
#     4  10  21  38  61  92 126 159 205 264 317 374
#     4  11  23  38  58  89 128 164 205 258 315 380
#     4  12  22  41  67  94 122 163 213 261 319 380
#     4  11  26  44  62  92 131 169 210 263 321 383
#     4  10  20  39  63  90 120 158 209 261 312 372
#
# _framework density 20.810704000000001
#
# number of rings (size 3 to 8) (size 9 to 14) (size 15 to 20)
#    0.000    1.143    4.286    1.714    2.000    0.571 
#    0.000    0.000    0.000    6.857    0.000    0.000 
#    0.000    0.000    0.000    0.000    0.000    0.000 
#
# Total GULP energy -312014.207954 kJ/mol
# GULP energy per Si atom -5571.682285 kJ/mol
# Density = 2.076334 g / cm^3
# Si number density = 20.810704 Si / 1000 Ang^3
#
#
#
# Elastic Constant Matrix: (Units=GPa)
#
#
# Indices 1 2 3 4 5 6 
#
# 1 49.9507 27.8749 18.4169 0.0000 0.0000 0.0000
# 2 27.8749 122.4319 34.8014 0.0000 0.0000 0.0000
# 3 18.4169 34.8014 85.9397 0.0000 0.0000 0.0000
# 4 0.0000 0.0000 0.0000 39.9245 0.0000 0.0000
# 5 0.0000 0.0000 0.0000 0.0000 22.2475 0.0000
# 6 0.0000 0.0000 0.0000 0.0000 0.0000 26.3344
#
#
#
# Elastic Compliance Matrix: (Units=1/GPa)
#
#
# Indices 1 2 3 4 5 6 
#
# 1 0.023721 -0.004470 -0.003273 0.000000 0.000000 0.000000
# 2 -0.004470 0.010073 -0.003121 0.000000 0.000000 0.000000
# 3 -0.003273 -0.003121 0.013601 0.000000 0.000000 0.000000
# 4 0.000000 0.000000 0.000000 0.025047 0.000000 0.000000
# 5 0.000000 0.000000 0.000000 0.000000 0.044949 0.000000
# 6 0.000000 0.000000 0.000000 0.000000 0.000000 0.037973
#
#
# Mechanical properties :
#
#
# Convention : Reuss Voigt Hill
#
# Bulk Modulus (GPa) = 38.96159 46.72316 42.84237
# Shear Modulus (GPa) = 26.93253 29.51656 28.22455
#
# Velocity S-wave (km/s) = 3.60136 3.77017 3.68673
# Velocity P-wave (km/s) = 6.00463 6.43836 6.22527
#
# Compressibility (1/GPa) = 0.02566630
#
# Stress axis : x y z
#
# Youngs Moduli (GPa) = 42.15630 99.27781 73.52209
#
# Poissons Ratio (x) = 0.44381 0.24065
# Poissons Ratio (y) = 0.18845 0.22946
# Poissons Ratio (z) = 0.13799 0.30984
#
# Static dielectric constant tensor:
#      x y z
#    x 1.739070 0.000000 0.000000 
#    y 0.000000 1.787030 0.000000 
#    z 0.000000 0.000000 1.780280 
# 
# From -- ./inp_files/8727.got.cif
#   From: 2010.05.17/outbox.cif.g08.bks.cpg/sg62_5_cif.got.tgz:8727.got - 2010.06.03 15:25:27.
