data_PCOD9465414
_publ_section_title
;
Structure prediction by ZEFSAII (Michael W. Deem and Ramdas Pophale) SiO2 
 PCOD9465414
Probable space group: P N M A
;
_chemical_formula_sum "Si O2"
_cell_formula_units_Z 24
_cell_length_a 15.141316
_cell_length_b 12.703476
_cell_length_c 4.798080
_cell_angle_alpha 90.000000
_cell_angle_beta 90.000000
_cell_angle_gamma 90.000000
_cell_volume 922.897946
_symmetry_space_group_name_H-M "P N M A"
_symmetry_group_IT_number 62
_symmetry_cell_setting 'orthorhombic'
loop_
_space_group_symop_operation_xyz
x,y,z
1/2-x,-y,1/2+z
1/2+x,1/2-y,1/2-z
-x,1/2+y,-z
-x,-y,-z
1/2+x,y,1/2-z
1/2-x,1/2+y,1/2+z
x,1/2-y,z
loop_
_atom_site_type_symbol
_atom_site_label
_atom_site_fract_x
_atom_site_fract_y
_atom_site_fract_z
Si Si1 0.333972 0.750000 0.049415
Si Si2 0.935027 0.071528 0.317088
Si Si3 0.945227 0.750000 0.945499
Si Si4 0.828007 0.369628 0.849997
O O1 0.423496 0.750000 0.228527
O O2 0.276961 0.853308 0.128131
O O3 0.353320 0.750000 0.723633
O O4 0.867248 0.117394 0.544864
O O5 0.002602 0.149258 0.161437
O O6 0.870354 0.045121 0.056881
O O7 0.000000 0.000000 0.500000
O O8 0.854803 0.250000 0.944952
#
# Coordination Sequence:
#
# PCOD9465414 Si02
#       4
#     4   8   4   8
#     4  10  22  36  70  86 126 176 204 268 330 382
#     4  12  23  39  67  95 129 170 219 270 319 393
#     4  12  20  40  60 100 122 164 224 268 314 388
#     4  10  20  42  62  88 127 175 208 254 341 382
#
# _framework density 26.005042
#
# number of rings (size 3 to 8) (size 9 to 14) (size 15 to 20)
#    1.000    0.000    3.333    5.000    0.000    0.000 
#    0.000    6.667    0.000    0.000    0.000    0.000 
#    0.000    0.000    0.000    0.000    0.000    0.000 
#
# Total GULP energy -134054.373104 kJ/mol
# GULP energy per Si atom -5585.598879 kJ/mol
# Density = 2.594585 g / cm^3
# Si number density = 26.005042 Si / 1000 Ang^3
#
#
#
# Elastic Constant Matrix: (Units=GPa)
#
#
# Indices 1 2 3 4 5 6 
#
# 1 40.8904 -5.9778 7.9711 0.0000 0.0000 0.0000
# 2 -5.9778 29.4130 -5.0945 0.0000 0.0000 0.0000
# 3 7.9711 -5.0945 117.4440 0.0000 0.0000 0.0000
# 4 0.0000 0.0000 0.0000 31.7664 0.0000 0.0000
# 5 0.0000 0.0000 0.0000 0.0000 51.6386 0.0000
# 6 0.0000 0.0000 0.0000 0.0000 0.0000 31.6137
#
#
#
# Elastic Compliance Matrix: (Units=1/GPa)
#
#
# Indices 1 2 3 4 5 6 
#
# 1 0.025469 0.004914 -0.001515 0.000000 0.000000 0.000000
# 2 0.004914 0.035204 0.001194 0.000000 0.000000 0.000000
# 3 -0.001515 0.001194 0.008669 0.000000 0.000000 0.000000
# 4 0.000000 0.000000 0.000000 0.031480 0.000000 0.000000
# 5 0.000000 0.000000 0.000000 0.000000 0.019365 0.000000
# 6 0.000000 0.000000 0.000000 0.000000 0.000000 0.031632
#
#
# Mechanical properties :
#
#
# Convention : Reuss Voigt Hill
#
# Bulk Modulus (GPa) = 12.73454 20.17167 16.45310
# Shear Modulus (GPa) = 29.61884 35.72697 32.67290
#
# Velocity S-wave (km/s) = 3.37852 3.71057 3.54843
# Velocity P-wave (km/s) = 4.48628 5.11189 4.80927
#
# Compressibility (1/GPa) = 0.07852660
#
# Stress axis : x y z
#
# Youngs Moduli (GPa) = 39.26276 28.40587 115.34921
#
# Poissons Ratio (x) = -0.13958 0.17481
# Poissons Ratio (y) = -0.19293 -0.13768
# Poissons Ratio (z) = 0.05950 -0.03390
#
# Static dielectric constant tensor:
#      x y z
#    x 2.335980 0.000000 0.000000 
#    y 0.000000 2.117080 0.000000 
#    z 0.000000 0.000000 1.915350 
# 
# From -- ./inp_files/813.got.cif
#   From: 2010.05.17/outbox.cif.g08.bks.cpg/sg62_1_cif.got.tgz:813.got - 2010.06.03 15:25:27.
