data_PCOD9465326
_publ_section_title
;
Structure prediction by ZEFSAII (Michael W. Deem and Ramdas Pophale) SiO2 
 PCOD9465326
Probable space group: P N M A
;
_chemical_formula_sum "Si O2"
_cell_formula_units_Z 64
_cell_length_a 13.790771
_cell_length_b 23.986281
_cell_length_c 8.151269
_cell_angle_alpha 90.000000
_cell_angle_beta 90.000000
_cell_angle_gamma 90.000000
_cell_volume 2696.352635
_symmetry_space_group_name_H-M "P N M A"
_symmetry_group_IT_number 62
_symmetry_cell_setting 'orthorhombic'
loop_
_space_group_symop_operation_xyz
x,y,z
1/2-x,-y,1/2+z
1/2+x,1/2-y,1/2-z
-x,1/2+y,-z
-x,-y,-z
1/2+x,y,1/2-z
1/2-x,1/2+y,1/2+z
x,1/2-y,z
loop_
_atom_site_type_symbol
_atom_site_label
_atom_site_fract_x
_atom_site_fract_y
_atom_site_fract_z
Si Si1 0.898056 0.096238 0.541360
Si Si2 0.217493 0.688597 0.645109
Si Si3 0.407612 0.902708 0.905445
Si Si4 0.606540 0.478390 0.546244
Si Si5 0.216965 0.188342 0.524250
Si Si6 0.422269 0.312788 0.690707
Si Si7 0.081354 0.147657 0.052804
Si Si8 0.779306 0.498134 0.725115
O O1 0.844832 0.135846 0.410117
O O2 0.936320 0.139338 0.677700
O O3 0.824900 0.053274 0.624698
O O4 0.994520 0.069111 0.467420
O O5 0.174510 0.750000 0.612028
O O6 0.242181 0.685551 0.837744
O O7 0.319991 0.682946 0.550479
O O8 0.359541 0.861000 0.035874
O O9 0.436590 0.866795 0.744014
O O10 0.326391 0.945896 0.847999
O O11 0.500000 0.500000 0.500000
O O12 0.601144 0.411936 0.531903
O O13 0.662848 0.496122 0.710930
O O14 0.678619 0.503006 0.407825
O O15 0.173811 0.250000 0.548002
O O16 0.309781 0.182656 0.638838
O O17 0.439530 0.250000 0.750665
O O18 0.491657 0.323652 0.535646
#
# Coordination Sequence:
#
# PCOD9465326 Si02
#       8
#     8   8   8   8   8   8   8   8
#     4  12  24  41  61  98 136 170 220 275 355 417
#     4  10  20  39  66  91 123 167 220 276 330 404
#     4  10  24  41  68  93 125 179 229 281 333 415
#     4  11  25  45  70 104 136 186 235 286 350 417
#     4   9  21  41  63  91 124 168 221 276 333 400
#     4  11  24  40  63  95 135 175 215 277 355 417
#     4  10  21  42  64  92 124 170 229 272 333 408
#     4  11  26  45  68 100 140 182 225 291 345 415
#
# _framework density 23.735769000000001
#
# number of rings (size 3 to 8) (size 9 to 14) (size 15 to 20)
#    0.000    1.500    1.250    2.625    3.500    6.500 
#    0.000    1.250    0.000    0.000    0.000    0.000 
#    0.000    0.000    0.000    0.000    0.000    0.000 
#
# Total GULP energy -358272.224222 kJ/mol
# GULP energy per Si atom -5598.003503 kJ/mol
# Density = 2.368174 g / cm^3
# Si number density = 23.735769 Si / 1000 Ang^3
#
#
#
# Elastic Constant Matrix: (Units=GPa)
#
#
# Indices 1 2 3 4 5 6 
#
# 1 98.6161 9.3698 25.1358 0.0000 0.0000 0.0000
# 2 9.3698 45.9007 0.6041 0.0000 0.0000 0.0000
# 3 25.1358 0.6041 25.4484 0.0000 0.0000 0.0000
# 4 0.0000 0.0000 0.0000 14.6348 0.0000 0.0000
# 5 0.0000 0.0000 0.0000 0.0000 36.5623 0.0000
# 6 0.0000 0.0000 0.0000 0.0000 0.0000 24.7106
#
#
#
# Elastic Compliance Matrix: (Units=1/GPa)
#
#
# Indices 1 2 3 4 5 6 
#
# 1 0.013867 -0.002651 -0.013634 0.000000 0.000000 0.000000
# 2 -0.002651 0.022300 0.002089 0.000000 0.000000 0.000000
# 3 -0.013634 0.002089 0.052712 0.000000 0.000000 0.000000
# 4 0.000000 0.000000 0.000000 0.068330 0.000000 0.000000
# 5 0.000000 0.000000 0.000000 0.000000 0.027351 0.000000
# 6 0.000000 0.000000 0.000000 0.000000 0.000000 0.040468
#
#
# Mechanical properties :
#
#
# Convention : Reuss Voigt Hill
#
# Bulk Modulus (GPa) = 16.53240 26.68720 21.60980
# Shear Modulus (GPa) = 18.27598 24.17191 21.22394
#
# Velocity S-wave (km/s) = 2.77785 3.19466 2.99352
# Velocity P-wave (km/s) = 4.15559 4.98755 4.59046
#
# Compressibility (1/GPa) = 0.06048728
#
# Stress axis : x y z
#
# Youngs Moduli (GPa) = 72.11173 44.84334 18.97096
#
# Poissons Ratio (x) = 0.11889 0.25865
# Poissons Ratio (y) = 0.19119 -0.03964
# Poissons Ratio (z) = 0.98318 -0.09369
#
# Static dielectric constant tensor:
#      x y z
#    x 1.896500 0.000000 0.000000 
#    y 0.000000 1.860200 0.000000 
#    z 0.000000 0.000000 1.993920 
# 
# From -- ./inp_files/6966.got.cif
#   From: 2010.05.17/outbox.cif.g08.bks.cpg/sg62_4_cif.got.tgz:6966.got - 2010.06.03 15:25:27.
