data_PCOD9465560
_publ_section_title
;
Structure prediction by ZEFSAII (Michael W. Deem and Ramdas Pophale) SiO2 
 PCOD9465560
Probable space group: P N M A
;
_chemical_formula_sum "Si O2"
_cell_formula_units_Z 64
_cell_length_a 26.330265
_cell_length_b 9.038397
_cell_length_c 15.015583
_cell_angle_alpha 90.000000
_cell_angle_beta 90.000000
_cell_angle_gamma 90.000000
_cell_volume 3573.459318
_symmetry_space_group_name_H-M "P N M A"
_symmetry_group_IT_number 62
_symmetry_cell_setting 'orthorhombic'
loop_
_space_group_symop_operation_xyz
x,y,z
1/2-x,-y,1/2+z
1/2+x,1/2-y,1/2-z
-x,1/2+y,-z
-x,-y,-z
1/2+x,y,1/2-z
1/2-x,1/2+y,1/2+z
x,1/2-y,z
loop_
_atom_site_type_symbol
_atom_site_label
_atom_site_fract_x
_atom_site_fract_y
_atom_site_fract_z
Si Si1 0.605231 0.572247 0.657190
Si Si2 0.053548 0.075979 0.515778
Si Si3 0.138437 0.075329 0.365448
Si Si4 0.998073 0.572117 0.098091
Si Si5 0.631152 0.927048 0.855434
Si Si6 0.893085 0.072760 0.818505
Si Si7 0.175885 0.927333 0.010438
Si Si8 0.785561 0.427225 0.500124
O O1 0.596336 0.750000 0.653610
O O2 0.551794 0.489825 0.646532
O O3 0.631621 0.536985 0.751230
O O4 0.641390 0.533277 0.574660
O O5 0.046883 0.250000 0.530323
O O6 0.089983 0.054638 0.430356
O O7 0.083446 0.004578 0.598080
O O8 0.000000 0.000000 0.500000
O O9 0.149035 0.250000 0.359210
O O10 0.125110 0.008682 0.269955
O O11 0.184840 0.994460 0.415170
O O12 0.996056 0.750000 0.089595
O O13 0.049611 0.534049 0.151386
O O14 0.000000 0.500000 0.000000
O O15 0.625219 0.750000 0.863900
O O16 0.680751 0.968421 0.912944
O O17 0.891669 0.250000 0.804009
O O18 0.855906 0.037848 0.900807
O O19 0.184033 0.750000 0.008058
O O20 0.229482 0.008354 0.007636
O O21 0.784470 0.250000 0.506718
#
# Coordination Sequence:
#
# PCOD9465560 Si02
#       8
#     8   8   8   8   8   8   8   8
#     4  10  21  39  60  85 118 155 194 238 291 349
#     4  10  21  36  55  81 113 149 191 236 286 341
#     4  10  22  39  59  84 113 152 197 240 290 346
#     4  11  22  38  59  85 119 157 195 238 291 344
#     4   9  20  38  59  82 113 150 189 235 288 343
#     4  10  22  39  58  85 120 156 193 238 293 344
#     4  10  21  39  60  84 117 155 192 237 292 346
#     4  10  21  39  61  87 117 151 193 243 293 343
#
# _framework density 17.909814999999998
#
# number of rings (size 3 to 8) (size 9 to 14) (size 15 to 20)
#    0.000    2.000    1.250    1.500    1.750    5.500 
#    0.000    1.250    0.000    0.000    0.000    0.000 
#    0.000    0.000    0.000    0.000    0.000    0.000 
#
# Total GULP energy -357432.928789 kJ/mol
# GULP energy per Si atom -5584.889512 kJ/mol
# Density = 1.786905 g / cm^3
# Si number density = 17.909815 Si / 1000 Ang^3
#
#
#
# Elastic Constant Matrix: (Units=GPa)
#
#
# Indices 1 2 3 4 5 6 
#
# 1 139.3654 59.1121 51.8097 0.0000 0.0000 0.0000
# 2 59.1121 45.6692 54.8450 0.0000 0.0000 0.0000
# 3 51.8097 54.8450 135.0650 0.0000 0.0000 0.0000
# 4 0.0000 0.0000 0.0000 28.9504 0.0000 0.0000
# 5 0.0000 0.0000 0.0000 0.0000 2.8332 0.0000
# 6 0.0000 0.0000 0.0000 0.0000 0.0000 37.9809
#
#
#
# Elastic Compliance Matrix: (Units=1/GPa)
#
#
# Indices 1 2 3 4 5 6 
#
# 1 0.017380 -0.028280 0.004817 0.000000 0.000000 0.000000
# 2 -0.028280 0.088755 -0.025192 0.000000 0.000000 0.000000
# 3 0.004817 -0.025192 0.015786 0.000000 0.000000 0.000000
# 4 0.000000 0.000000 0.000000 0.034542 0.000000 0.000000
# 5 0.000000 0.000000 0.000000 0.000000 0.352957 0.000000
# 6 0.000000 0.000000 0.000000 0.000000 0.000000 0.026329
#
#
# Mechanical properties :
#
#
# Convention : Reuss Voigt Hill
#
# Bulk Modulus (GPa) = 40.63485 72.40367 56.51926
# Shear Modulus (GPa) = 7.79712 24.24176 16.01944
#
# Velocity S-wave (km/s) = 2.08878 3.68305 2.99398
# Velocity P-wave (km/s) = 5.34370 7.65513 6.60137
#
# Compressibility (1/GPa) = 0.02460941
#
# Stress axis : x y z
#
# Youngs Moduli (GPa) = 57.53801 11.26700 63.34837
#
# Poissons Ratio (x) = 0.31863 -0.30514
# Poissons Ratio (y) = 1.62719 1.59588
# Poissons Ratio (z) = -0.27715 0.28384
#
# Static dielectric constant tensor:
#      x y z
#    x 1.579610 0.000000 0.000000 
#    y 0.000000 1.597910 0.000000 
#    z 0.000000 0.000000 1.597170 
# 
# From -- ./inp_files/20817.got.cif
#   From: 2010.05.17/outbox.cif.g08.bks.cpg/sg62_11_cif.got.tgz:20817.got - 2010.06.03 15:25:27.
