data_PCOD9465219
_publ_section_title
;
Structure prediction by ZEFSAII (Michael W. Deem and Ramdas Pophale) SiO2 
 PCOD9465219
Probable space group: P N M A
;
_chemical_formula_sum "Si O2"
_cell_formula_units_Z 48
_cell_length_a 15.415563
_cell_length_b 28.795234
_cell_length_c 5.223385
_cell_angle_alpha 90.000000
_cell_angle_beta 90.000000
_cell_angle_gamma 90.000000
_cell_volume 2318.633146
_symmetry_space_group_name_H-M "P N M A"
_symmetry_group_IT_number 62
_symmetry_cell_setting 'orthorhombic'
loop_
_space_group_symop_operation_xyz
x,y,z
1/2-x,-y,1/2+z
1/2+x,1/2-y,1/2-z
-x,1/2+y,-z
-x,-y,-z
1/2+x,y,1/2-z
1/2-x,1/2+y,1/2+z
x,1/2-y,z
loop_
_atom_site_type_symbol
_atom_site_label
_atom_site_fract_x
_atom_site_fract_y
_atom_site_fract_z
Si Si1 0.044039 0.834755 0.076484
Si Si2 0.376244 0.199274 0.084967
Si Si3 0.069456 0.964262 0.382606
Si Si4 0.170801 0.050858 0.397954
Si Si5 0.927006 0.916641 0.096942
Si Si6 0.840495 0.395387 0.239790
O O1 0.052917 0.806523 0.812797
O O2 0.116144 0.874450 0.014571
O O3 0.074888 0.806082 0.317650
O O4 0.956365 0.863196 0.122634
O O5 0.334600 0.250000 0.105961
O O6 0.315864 0.153450 0.119712
O O7 0.092660 0.922058 0.572901
O O8 0.014639 0.946720 0.141051
O O9 0.155031 0.995874 0.352904
O O10 0.000000 0.000000 0.500000
O O11 0.138247 0.066871 0.678532
O O12 0.265741 0.069542 0.337453
O O13 0.110779 0.074367 0.181210
#
# Coordination Sequence:
#
# PCOD9465219 Si02
#       6
#     8   8   8   8   8   8
#     4  10  20  38  66  88 119 157 208 257 309 374
#     4  10  21  39  68  93 117 157 213 266 317 370
#     4  10  21  40  58  89 124 174 205 253 305 374
#     4  11  25  36  61  91 132 169 208 255 317 372
#     4  11  21  41  59  90 126 170 204 254 315 377
#     4  10  24  40  62  97 126 163 220 262 310 378
#
# _framework density 20.70185
#
# number of rings (size 3 to 8) (size 9 to 14) (size 15 to 20)
#    1.000    0.667    1.667    4.000    2.333    5.333 
#    0.000    0.000    0.000    6.000    0.000    0.000 
#    0.000    0.000    0.000    0.000    0.000    0.000 
#
# Total GULP energy -267426.452895 kJ/mol
# GULP energy per Si atom -5571.384435 kJ/mol
# Density = 2.065473 g / cm^3
# Si number density = 20.701850 Si / 1000 Ang^3
#
#
#
# Elastic Constant Matrix: (Units=GPa)
#
#
# Indices 1 2 3 4 5 6 
#
# 1 34.5791 18.5004 8.9751 0.0000 0.0000 0.0000
# 2 18.5004 81.5845 7.7811 0.0000 0.0000 0.0000
# 3 8.9751 7.7811 88.4315 0.0000 0.0000 0.0000
# 4 0.0000 0.0000 0.0000 3.0141 0.0000 0.0000
# 5 0.0000 0.0000 0.0000 0.0000 26.1862 0.0000
# 6 0.0000 0.0000 0.0000 0.0000 0.0000 17.1434
#
#
#
# Elastic Compliance Matrix: (Units=1/GPa)
#
#
# Indices 1 2 3 4 5 6 
#
# 1 0.033567 -0.007349 -0.002760 0.000000 0.000000 0.000000
# 2 -0.007349 0.013970 -0.000483 0.000000 0.000000 0.000000
# 3 -0.002760 -0.000483 0.011631 0.000000 0.000000 0.000000
# 4 0.000000 0.000000 0.000000 0.331771 0.000000 0.000000
# 5 0.000000 0.000000 0.000000 0.000000 0.038188 0.000000
# 6 0.000000 0.000000 0.000000 0.000000 0.000000 0.058331
#
#
# Mechanical properties :
#
#
# Convention : Reuss Voigt Hill
#
# Bulk Modulus (GPa) = 26.32725 30.56760 28.44742
# Shear Modulus (GPa) = 9.59134 20.55798 15.07466
#
# Velocity S-wave (km/s) = 2.15480 3.15469 2.70141
# Velocity P-wave (km/s) = 4.35153 5.29784 4.84783
#
# Compressibility (1/GPa) = 0.03798347
#
# Stress axis : x y z
#
# Youngs Moduli (GPa) = 29.79098 71.58336 85.97814
#
# Poissons Ratio (x) = 0.52604 0.23732
# Poissons Ratio (y) = 0.21892 0.04156
# Poissons Ratio (z) = 0.08223 0.03460
#
# Static dielectric constant tensor:
#      x y z
#    x 1.776640 0.000000 0.000000 
#    y 0.000000 1.820720 0.000000 
#    z 0.000000 0.000000 1.767750 
# 
# From -- ./inp_files/1236.got.cif
#   From: 2010.05.17/outbox.cif.g08.bks.cpg/sg62_1_cif.got.tgz:1236.got - 2010.06.03 15:25:27.
