data_PCOD9465124
_publ_section_title
;
Structure prediction by ZEFSAII (Michael W. Deem and Ramdas Pophale) SiO2 
 PCOD9465124
Probable space group: P N M A
;
_chemical_formula_sum "Si O2"
_cell_formula_units_Z 40
_cell_length_a 23.549966
_cell_length_b 8.099228
_cell_length_c 10.474492
_cell_angle_alpha 90.000000
_cell_angle_beta 90.000000
_cell_angle_gamma 90.000000
_cell_volume 1997.868405
_symmetry_space_group_name_H-M "P N M A"
_symmetry_group_IT_number 62
_symmetry_cell_setting 'orthorhombic'
loop_
_space_group_symop_operation_xyz
x,y,z
1/2-x,-y,1/2+z
1/2+x,1/2-y,1/2-z
-x,1/2+y,-z
-x,-y,-z
1/2+x,y,1/2-z
1/2-x,1/2+y,1/2+z
x,1/2-y,z
loop_
_atom_site_type_symbol
_atom_site_label
_atom_site_fract_x
_atom_site_fract_y
_atom_site_fract_z
Si Si1 0.377426 0.444060 0.758273
Si Si2 0.816040 0.555800 0.490184
Si Si3 0.311594 0.556056 0.513660
Si Si4 0.619438 0.451574 0.736712
Si Si5 0.502846 0.550595 0.352122
O O1 0.382208 0.250000 0.787496
O O2 0.335320 0.467072 0.638748
O O3 0.439066 0.508072 0.713345
O O4 0.352247 0.530973 0.882173
O O5 0.804623 0.750000 0.471868
O O6 0.755375 0.468669 0.501487
O O7 0.850826 0.493902 0.367019
O O8 0.324205 0.750000 0.529001
O O9 0.344281 0.496820 0.386915
O O10 0.619188 0.250000 0.738303
O O11 0.554555 0.506175 0.717758
O O12 0.500000 0.500000 0.500000
O O13 0.503876 0.750000 0.348797
#
# Coordination Sequence:
#
# PCOD9465124 Si02
#       5
#     8   8   8   8   8
#     4  11  23  38  59  89 122 155 196 246 295 356
#     4  11  23  39  59  86 122 159 197 243 298 355
#     4  11  21  38  64  88 117 156 199 246 297 355
#     4   9  20  38  60  85 115 152 194 244 299 346
#     4  10  20  38  62  86 114 150 198 248 295 354
#
# _framework density 20.021338
#
# number of rings (size 3 to 8) (size 9 to 14) (size 15 to 20)
#    0.000    1.600    2.000    3.000    0.000    3.200 
#    0.000    5.000    0.000    0.000    0.000    0.000 
#    0.000    0.000    0.000    0.000    0.000    0.000 
#
# Total GULP energy -223589.917366 kJ/mol
# GULP energy per Si atom -5589.747934 kJ/mol
# Density = 1.997577 g / cm^3
# Si number density = 20.021338 Si / 1000 Ang^3
#
#
#
# Elastic Constant Matrix: (Units=GPa)
#
#
# Indices 1 2 3 4 5 6 
#
# 1 138.2312 -7.9040 47.3723 0.0000 0.0000 0.0000
# 2 -7.9040 19.2816 -8.9887 0.0000 0.0000 0.0000
# 3 47.3723 -8.9887 116.7352 0.0000 0.0000 0.0000
# 4 0.0000 0.0000 0.0000 9.6811 0.0000 0.0000
# 5 0.0000 0.0000 0.0000 0.0000 -26.9359 0.0000
# 6 0.0000 0.0000 0.0000 0.0000 0.0000 22.4917
#
#
#
# Elastic Compliance Matrix: (Units=1/GPa)
#
#
# Indices 1 2 3 4 5 6 
#
# 1 0.008472 0.001940 -0.003289 0.000000 0.000000 0.000000
# 2 0.001940 0.054238 0.003389 0.000000 0.000000 0.000000
# 3 -0.003289 0.003389 0.010162 0.000000 0.000000 0.000000
# 4 0.000000 0.000000 0.000000 0.103294 0.000000 0.000000
# 5 0.000000 0.000000 0.000000 0.000000 -0.037125 0.000000
# 6 0.000000 0.000000 0.000000 0.000000 0.000000 0.044461
#
#
# Mechanical properties :
#
#
# Convention : Reuss Voigt Hill
#
# Bulk Modulus (GPa) = 12.99499 37.24524 25.12012
# Shear Modulus (GPa) = 24.38162 17.29860 20.84011
#
# Velocity S-wave (km/s) = 3.49346 2.94259 3.22979
# Velocity P-wave (km/s) = 4.77253 5.49439 5.14613
#
# Compressibility (1/GPa) = 0.07695270
#
# Stress axis : x y z
#
# Youngs Moduli (GPa) = 118.03243 18.43726 98.40606
#
# Poissons Ratio (x) = -0.03577 0.32363
# Poissons Ratio (y) = -0.22897 -0.33351
# Poissons Ratio (z) = 0.38818 -0.06249
#
# Static dielectric constant tensor:
#      x y z
#    x 1.694030 0.000000 0.000000 
#    y 0.000000 1.709900 0.000000 
#    z 0.000000 0.000000 1.661250 
# 
# From -- ./inp_files/8478.got.cif
#   From: 2010.05.17/outbox.cif.g08.bks.cpg/sg62_5_cif.got.tgz:8478.got - 2010.06.03 15:25:27.
