data_PCOD9465982
_publ_section_title
;
Structure prediction by ZEFSAII (Michael W. Deem and Ramdas Pophale) SiO2 
 PCOD9465982
Probable space group: P N M A
;
_chemical_formula_sum "Si O2"
_cell_formula_units_Z 64
_cell_length_a 11.896345
_cell_length_b 30.237474
_cell_length_c 7.343331
_cell_angle_alpha 90.000000
_cell_angle_beta 90.000000
_cell_angle_gamma 90.000000
_cell_volume 2641.509414
_symmetry_space_group_name_H-M "P N M A"
_symmetry_group_IT_number 62
_symmetry_cell_setting 'orthorhombic'
loop_
_space_group_symop_operation_xyz
x,y,z
1/2-x,-y,1/2+z
1/2+x,1/2-y,1/2-z
-x,1/2+y,-z
-x,-y,-z
1/2+x,y,1/2-z
1/2-x,1/2+y,1/2+z
x,1/2-y,z
loop_
_atom_site_type_symbol
_atom_site_label
_atom_site_fract_x
_atom_site_fract_y
_atom_site_fract_z
Si Si1 0.595186 0.109439 0.088441
Si Si2 0.766965 0.557575 0.086694
Si Si3 0.493931 0.421762 0.469272
Si Si4 0.196118 0.200390 0.953860
Si Si5 0.271356 0.459387 0.336625
Si Si6 0.874759 0.361483 0.602765
Si Si7 0.796107 0.798904 0.489692
Si Si8 0.445390 0.323576 0.555870
O O1 0.551907 0.094186 0.283862
O O2 0.687931 0.072038 0.048424
O O3 0.482670 0.113106 0.970779
O O4 0.647207 0.158460 0.078583
O O5 0.729248 0.557047 0.872845
O O6 0.902201 0.562653 0.092158
O O7 0.732936 0.510136 0.164401
O O8 0.707671 0.599857 0.174521
O O9 0.395268 0.455602 0.422888
O O10 0.440020 0.376366 0.537112
O O11 0.228470 0.250000 0.001356
O O12 0.286438 0.165054 0.025351
O O13 0.194088 0.196025 0.731403
O O14 0.066808 0.192040 0.006550
O O15 0.925631 0.321820 0.726556
O O16 0.839491 0.750000 0.538291
O O17 0.662803 0.801434 0.530961
#
# Coordination Sequence:
#
# PCOD9465982 Si02
#       8
#     8   8   8   8   8   8   8   8
#     4  11  23  43  65  88 130 172 202 257 326 373
#     4  11  25  43  65  95 127 165 217 262 324 380
#     4  11  23  43  67  88 129 169 207 263 320 379
#     4  10  21  38  64  98 128 162 212 268 313 364
#     4  11  25  43  66  93 128 167 210 268 318 384
#     4  11  23  40  64  96 127 170 212 259 314 385
#     4  10  21  38  63  94 126 165 213 260 312 373
#     4  11  21  38  68  92 125 167 211 263 314 372
#
# _framework density 24.228573000000001
#
# number of rings (size 3 to 8) (size 9 to 14) (size 15 to 20)
#    0.000    1.250    5.000    0.750    1.750    2.500 
#    0.000    1.250    0.000    0.000    0.000    0.000 
#    0.000    0.000    0.000    0.000    0.000    0.000 
#
# Total GULP energy -357627.097007 kJ/mol
# GULP energy per Si atom -5587.923391 kJ/mol
# Density = 2.417343 g / cm^3
# Si number density = 24.228573 Si / 1000 Ang^3
#
#
#
# Elastic Constant Matrix: (Units=GPa)
#
#
# Indices 1 2 3 4 5 6 
#
# 1 119.3856 37.0546 8.6180 0.0000 0.0000 0.0000
# 2 37.0546 155.7730 -6.4907 0.0000 0.0000 0.0000
# 3 8.6180 -6.4907 37.2149 0.0000 0.0000 0.0000
# 4 0.0000 0.0000 0.0000 11.2037 0.0000 0.0000
# 5 0.0000 0.0000 0.0000 0.0000 23.6057 0.0000
# 6 0.0000 0.0000 0.0000 0.0000 0.0000 17.4799
#
#
#
# Elastic Compliance Matrix: (Units=1/GPa)
#
#
# Indices 1 2 3 4 5 6 
#
# 1 0.009278 -0.002313 -0.002552 0.000000 0.000000 0.000000
# 2 -0.002313 0.007043 0.001764 0.000000 0.000000 0.000000
# 3 -0.002552 0.001764 0.027770 0.000000 0.000000 0.000000
# 4 0.000000 0.000000 0.000000 0.089256 0.000000 0.000000
# 5 0.000000 0.000000 0.000000 0.000000 0.042363 0.000000
# 6 0.000000 0.000000 0.000000 0.000000 0.000000 0.057208
#
#
# Mechanical properties :
#
#
# Convention : Reuss Voigt Hill
#
# Bulk Modulus (GPa) = 26.39307 43.41524 34.90415
# Shear Modulus (GPa) = 19.86087 28.67064 24.26576
#
# Velocity S-wave (km/s) = 2.86620 3.44370 3.16814
# Velocity P-wave (km/s) = 4.67659 5.81120 5.27449
#
# Compressibility (1/GPa) = 0.03788874
#
# Stress axis : x y z
#
# Youngs Moduli (GPa) = 107.77606 141.97632 36.01051
#
# Poissons Ratio (x) = 0.32846 0.09190
# Poissons Ratio (y) = 0.24934 -0.06353
# Poissons Ratio (z) = 0.27506 -0.25047
#
# Static dielectric constant tensor:
#      x y z
#    x 1.952640 0.000000 0.000000 
#    y 0.000000 1.865600 0.000000 
#    z 0.000000 0.000000 2.165070 
# 
# From -- ./inp_files/5535.got.cif
#   From: 2010.05.17/outbox.cif.g08.bks.cpg/sg62_3_cif.got.tgz:5535.got - 2010.06.03 15:25:27.
