data_PCOD9465789
_publ_section_title
;
Structure prediction by ZEFSAII (Michael W. Deem and Ramdas Pophale) SiO2 
 PCOD9465789
Probable space group: P N M A
;
_chemical_formula_sum "Si O2"
_cell_formula_units_Z 64
_cell_length_a 11.785602
_cell_length_b 12.063390
_cell_length_c 22.855049
_cell_angle_alpha 90.000000
_cell_angle_beta 90.000000
_cell_angle_gamma 90.000000
_cell_volume 3249.400897
_symmetry_space_group_name_H-M "P N M A"
_symmetry_group_IT_number 62
_symmetry_cell_setting 'orthorhombic'
loop_
_space_group_symop_operation_xyz
x,y,z
1/2-x,-y,1/2+z
1/2+x,1/2-y,1/2-z
-x,1/2+y,-z
-x,-y,-z
1/2+x,y,1/2-z
1/2-x,1/2+y,1/2+z
x,1/2-y,z
loop_
_atom_site_type_symbol
_atom_site_label
_atom_site_fract_x
_atom_site_fract_y
_atom_site_fract_z
Si Si1 0.603017 0.621880 0.077159
Si Si2 0.002870 0.552301 0.838408
Si Si3 0.029694 0.131848 0.286630
Si Si4 0.885105 0.958109 0.357818
Si Si5 0.768084 0.505967 0.675099
Si Si6 0.193485 0.623045 0.544481
Si Si7 0.828914 0.375621 0.793418
Si Si8 0.458294 0.619382 0.529019
O O1 0.637304 0.750000 0.081151
O O2 0.479441 0.606227 0.105106
O O3 0.687559 0.549048 0.115798
O O4 0.612369 0.590735 0.009309
O O5 0.965712 0.626477 0.783294
O O6 0.923580 0.444516 0.828781
O O7 0.985049 0.605284 0.901882
O O8 0.135138 0.525758 0.828927
O O9 0.982269 0.250000 0.305501
O O10 0.952663 0.031462 0.310036
O O11 0.154929 0.113871 0.312948
O O12 0.823871 0.043330 0.401219
O O13 0.789686 0.884701 0.327780
O O14 0.803866 0.429001 0.730038
O O15 0.169227 0.750000 0.561125
O O16 0.322455 0.617816 0.522063
O O17 0.866112 0.250000 0.786220
O O18 0.500000 0.500000 0.500000
O O19 0.494055 0.750000 0.511916
#
# Coordination Sequence:
#
# PCOD9465789 Si02
#       8
#     8   8   8   8   8   8   8   8
#     4  10  21  37  61  87 119 161 202 252 311 370
#     4  11  22  42  61  90 121 165 211 259 320 385
#     4  10  22  38  61  90 122 160 200 254 314 373
#     4  11  20  40  59  90 125 156 205 259 309 377
#     4  10  22  40  59  88 124 159 205 253 309 380
#     4  10  21  39  62  88 118 161 208 256 315 379
#     4  11  23  38  60  90 125 163 207 261 320 384
#     4  11  24  42  64  90 127 168 219 272 325 389
#
# _framework density 19.69594
#
# number of rings (size 3 to 8) (size 9 to 14) (size 15 to 20)
#    0.000    1.500    2.500    2.625    0.000    2.500 
#    0.000    0.000    0.000    3.000    0.000    0.000 
#    0.000    0.000    0.000    0.000    0.000    0.000 
#
# Total GULP energy -357006.662327 kJ/mol
# GULP energy per Si atom -5578.229099 kJ/mol
# Density = 1.965111 g / cm^3
# Si number density = 19.695940 Si / 1000 Ang^3
#
#
#
# Elastic Constant Matrix: (Units=GPa)
#
#
# Indices 1 2 3 4 5 6 
#
# 1 72.5082 9.7752 -14.6789 0.0000 0.0000 0.0000
# 2 9.7752 93.0818 26.2984 0.0000 0.0000 0.0000
# 3 -14.6789 26.2984 59.5852 0.0000 0.0000 0.0000
# 4 0.0000 0.0000 0.0000 -29.3686 0.0000 0.0000
# 5 0.0000 0.0000 0.0000 0.0000 24.4477 0.0000
# 6 0.0000 0.0000 0.0000 0.0000 0.0000 17.2972
#
#
#
# Elastic Compliance Matrix: (Units=1/GPa)
#
#
# Indices 1 2 3 4 5 6 
#
# 1 0.015232 -0.003039 0.005094 0.000000 0.000000 0.000000
# 2 -0.003039 0.012880 -0.006433 0.000000 0.000000 0.000000
# 3 0.005094 -0.006433 0.020877 0.000000 0.000000 0.000000
# 4 0.000000 0.000000 0.000000 -0.034050 0.000000 0.000000
# 5 0.000000 0.000000 0.000000 0.000000 0.040904 0.000000
# 6 0.000000 0.000000 0.000000 0.000000 0.000000 0.057813
#
#
# Mechanical properties :
#
#
# Convention : Reuss Voigt Hill
#
# Bulk Modulus (GPa) = 24.85549 29.77385 27.31467
# Shear Modulus (GPa) = 36.81252 16.06062 26.43657
#
# Velocity S-wave (km/s) = 4.32793 2.85867 3.66763
# Velocity P-wave (km/s) = 6.13365 5.10348 5.64213
#
# Compressibility (1/GPa) = 0.04023255
#
# Stress axis : x y z
#
# Youngs Moduli (GPa) = 65.64947 77.64001 47.89985
#
# Poissons Ratio (x) = 0.23593 -0.24399
# Poissons Ratio (y) = 0.19950 0.30815
# Poissons Ratio (z) = -0.33440 0.49948
#
# Static dielectric constant tensor:
#      x y z
#    x 1.677910 0.000000 0.000000 
#    y 0.000000 1.718390 0.000000 
#    z 0.000000 0.000000 1.684920 
# 
# From -- ./inp_files/29447.got.cif
#   From: 2010.05.17/outbox.cif.g08.bks.cpg/sg62_15_cif.got.tgz:29447.got - 2010.06.03 15:25:27.
