data_PCOD9465534
_publ_section_title
;
Structure prediction by ZEFSAII (Michael W. Deem and Ramdas Pophale) SiO2 
 PCOD9465534
Probable space group: P N M A
;
_chemical_formula_sum "Si O2"
_cell_formula_units_Z 40
_cell_length_a 18.536984
_cell_length_b 18.996476
_cell_length_c 6.285850
_cell_angle_alpha 90.000000
_cell_angle_beta 90.000000
_cell_angle_gamma 90.000000
_cell_volume 2213.482698
_symmetry_space_group_name_H-M "P N M A"
_symmetry_group_IT_number 62
_symmetry_cell_setting 'orthorhombic'
loop_
_space_group_symop_operation_xyz
x,y,z
1/2-x,-y,1/2+z
1/2+x,1/2-y,1/2-z
-x,1/2+y,-z
-x,-y,-z
1/2+x,y,1/2-z
1/2-x,1/2+y,1/2+z
x,1/2-y,z
loop_
_atom_site_type_symbol
_atom_site_label
_atom_site_fract_x
_atom_site_fract_y
_atom_site_fract_z
Si Si1 0.044015 0.460948 0.811778
Si Si2 0.306361 0.912224 0.441664
Si Si3 0.190222 0.667391 0.711736
Si Si4 0.913704 0.076745 0.539453
Si Si5 0.202297 0.932438 0.098979
O O1 0.077502 0.519508 0.650039
O O2 0.989392 0.417377 0.662180
O O3 0.107773 0.415788 0.918979
O O4 0.000000 0.500000 0.000000
O O5 0.264503 0.861907 0.605109
O O6 0.272004 0.899653 0.211149
O O7 0.282472 0.992149 0.496866
O O8 0.193954 0.750000 0.745775
O O9 0.124132 0.645455 0.557642
O O10 0.177073 0.622953 0.924705
O O11 0.857648 0.053287 0.721576
#
# Coordination Sequence:
#
# PCOD9465534 Si02
#       5
#     8   8   8   8   8
#     4  11  20  35  61  97 123 151 199 256 304 360
#     4  11  20  34  61  91 116 152 203 250 300 362
#     4  11  24  39  58  87 124 163 205 259 315 368
#     4  10  21  35  60  90 121 157 202 252 305 368
#     4  11  19  36  60  88 116 156 203 254 299 355
#
# _framework density 18.071069000000001
#
# number of rings (size 3 to 8) (size 9 to 14) (size 15 to 20)
#    0.000    1.200    6.000    1.200    0.000    3.200 
#    0.000    1.000    0.000    6.000    0.000    0.000 
#    0.000    0.000    0.000    0.000    0.000    0.000 
#
# Total GULP energy -223020.120504 kJ/mol
# GULP energy per Si atom -5575.503013 kJ/mol
# Density = 1.802994 g / cm^3
# Si number density = 18.071069 Si / 1000 Ang^3
#
#
#
# Elastic Constant Matrix: (Units=GPa)
#
#
# Indices 1 2 3 4 5 6 
#
# 1 110.7256 19.4387 37.4304 0.0000 0.0000 0.0000
# 2 19.4387 87.5676 34.4139 0.0000 0.0000 0.0000
# 3 37.4304 34.4139 97.6391 0.0000 0.0000 0.0000
# 4 0.0000 0.0000 0.0000 13.2272 0.0000 0.0000
# 5 0.0000 0.0000 0.0000 0.0000 35.2569 0.0000
# 6 0.0000 0.0000 0.0000 0.0000 0.0000 14.7297
#
#
#
# Elastic Compliance Matrix: (Units=1/GPa)
#
#
# Indices 1 2 3 4 5 6 
#
# 1 0.010432 -0.000864 -0.003695 0.000000 0.000000 0.000000
# 2 -0.000864 0.013327 -0.004366 0.000000 0.000000 0.000000
# 3 -0.003695 -0.004366 0.013197 0.000000 0.000000 0.000000
# 4 0.000000 0.000000 0.000000 0.075602 0.000000 0.000000
# 5 0.000000 0.000000 0.000000 0.000000 0.028363 0.000000
# 6 0.000000 0.000000 0.000000 0.000000 0.000000 0.067890
#
#
# Mechanical properties :
#
#
# Convention : Reuss Voigt Hill
#
# Bulk Modulus (GPa) = 52.33661 53.16647 52.75154
# Shear Modulus (GPa) = 21.45647 26.28605 23.87126
#
# Velocity S-wave (km/s) = 3.44952 3.81805 3.63845
# Velocity P-wave (km/s) = 6.70000 6.99438 6.84877
#
# Compressibility (1/GPa) = 0.01910708
#
# Stress axis : x y z
#
# Youngs Moduli (GPa) = 95.85928 75.03332 75.77410
#
# Poissons Ratio (x) = 0.06481 0.27996
# Poissons Ratio (y) = 0.08280 0.33085
# Poissons Ratio (z) = 0.35417 0.32762
#
# Static dielectric constant tensor:
#      x y z
#    x 1.680830 0.000000 0.000000 
#    y 0.000000 1.572700 0.000000 
#    z 0.000000 0.000000 1.655790 
# 
# From -- ./inp_files/1544.got.cif
#   From: 2010.05.17/outbox.cif.g08.bks.cpg/sg62_1_cif.got.tgz:1544.got - 2010.06.03 15:25:27.
