data_PCOD9465770
_publ_section_title
;
Structure prediction by ZEFSAII (Michael W. Deem and Ramdas Pophale) SiO2 
 PCOD9465770
Probable space group: P N M A
;
_chemical_formula_sum "Si O2"
_cell_formula_units_Z 64
_cell_length_a 22.774647
_cell_length_b 7.450990
_cell_length_c 14.965794
_cell_angle_alpha 90.000000
_cell_angle_beta 90.000000
_cell_angle_gamma 90.000000
_cell_volume 2539.600464
_symmetry_space_group_name_H-M "P N M A"
_symmetry_group_IT_number 62
_symmetry_cell_setting 'orthorhombic'
loop_
_space_group_symop_operation_xyz
x,y,z
1/2-x,-y,1/2+z
1/2+x,1/2-y,1/2-z
-x,1/2+y,-z
-x,-y,-z
1/2+x,y,1/2-z
1/2-x,1/2+y,1/2+z
x,1/2-y,z
loop_
_atom_site_type_symbol
_atom_site_label
_atom_site_fract_x
_atom_site_fract_y
_atom_site_fract_z
Si Si1 0.003423 0.464342 0.693546
Si Si2 0.038674 0.532379 0.122668
Si Si3 0.783901 0.969287 0.078152
Si Si4 0.319937 0.957225 0.791079
Si Si5 0.374439 0.533057 0.135138
Si Si6 0.587875 0.043703 0.556643
Si Si7 0.758947 0.538218 0.877803
Si Si8 0.091793 0.036008 0.437365
O O1 0.005600 0.250000 0.702718
O O2 0.070734 0.528663 0.695612
O O3 0.962355 0.528290 0.774833
O O4 0.973454 0.504768 0.599077
O O5 0.042137 0.750000 0.118052
O O6 0.974233 0.468398 0.088575
O O7 0.085352 0.462413 0.051414
O O8 0.782670 0.750000 0.081065
O O9 0.850888 0.031168 0.089928
O O10 0.740231 0.038300 0.152635
O O11 0.763616 0.029512 0.979125
O O12 0.337068 0.750000 0.776999
O O13 0.304360 0.038830 0.694883
O O14 0.366632 0.040742 0.859177
O O15 0.375735 0.750000 0.136425
O O16 0.307944 0.482341 0.155844
O O17 0.390154 0.468708 0.034589
O O18 0.586677 0.250000 0.586433
O O19 0.770854 0.750000 0.883159
O O20 0.100945 0.250000 0.441616
#
# Coordination Sequence:
#
# PCOD9465770 Si02
#       8
#     8   8   8   8   8   8   8   8
#     4  10  22  36  56  83 111 142 184 234 279 328
#     4   9  19  36  53  79 112 143 181 229 275 324
#     4  10  21  37  60  86 111 148 190 230 279 335
#     4  10  22  39  58  84 118 150 186 234 282 332
#     4  10  21  39  60  82 110 147 186 229 281 333
#     4   9  19  35  57  80 109 147 184 223 273 329
#     4  10  22  38  57  85 118 149 187 234 280 332
#     4  10  21  38  59  82 110 146 186 228 279 334
#
# _framework density 25.200811999999999
#
# number of rings (size 3 to 8) (size 9 to 14) (size 15 to 20)
#    0.000    2.250    1.250    0.375    3.500    3.000 
#    0.000    0.000    0.000    0.000    0.000    0.000 
#    0.000    0.000    0.000    0.000    0.000    0.000 
#
# Total GULP energy -357810.792274 kJ/mol
# GULP energy per Si atom -5590.793629 kJ/mol
# Density = 2.514345 g / cm^3
# Si number density = 25.200812 Si / 1000 Ang^3
#
#
#
# Elastic Constant Matrix: (Units=GPa)
#
#
# Indices 1 2 3 4 5 6 
#
# 1 70.6136 -6.0765 -12.1244 0.0000 0.0000 0.0000
# 2 -6.0765 83.4734 -3.3002 0.0000 0.0000 0.0000
# 3 -12.1244 -3.3002 77.3128 0.0000 0.0000 0.0000
# 4 0.0000 0.0000 0.0000 90.5056 0.0000 0.0000
# 5 0.0000 0.0000 0.0000 0.0000 29.3760 0.0000
# 6 0.0000 0.0000 0.0000 0.0000 0.0000 12.0434
#
#
#
# Elastic Compliance Matrix: (Units=1/GPa)
#
#
# Indices 1 2 3 4 5 6 
#
# 1 0.014665 0.001160 0.002349 0.000000 0.000000 0.000000
# 2 0.001160 0.012092 0.000698 0.000000 0.000000 0.000000
# 3 0.002349 0.000698 0.013333 0.000000 0.000000 0.000000
# 4 0.000000 0.000000 0.000000 0.011049 0.000000 0.000000
# 5 0.000000 0.000000 0.000000 0.000000 0.034041 0.000000
# 6 0.000000 0.000000 0.000000 0.000000 0.000000 0.083033
#
#
# Mechanical properties :
#
#
# Convention : Reuss Voigt Hill
#
# Bulk Modulus (GPa) = 20.61636 20.93308 20.77472
# Shear Modulus (GPa) = 28.41468 43.24507 35.82988
#
# Velocity S-wave (km/s) = 3.36151 4.14698 3.77473
# Velocity P-wave (km/s) = 4.82338 5.59057 5.22108
#
# Compressibility (1/GPa) = 0.04850516
#
# Stress axis : x y z
#
# Youngs Moduli (GPa) = 68.19044 82.69977 75.00363
#
# Poissons Ratio (x) = -0.09597 -0.17621
# Poissons Ratio (y) = -0.07913 -0.05236
# Poissons Ratio (z) = -0.16020 -0.05774
#
# Static dielectric constant tensor:
#      x y z
#    x 1.973200 0.000000 0.000000 
#    y 0.000000 1.963300 0.000000 
#    z 0.000000 0.000000 2.025870 
# 
# From -- ./inp_files/20840.got.cif
#   From: 2010.05.17/outbox.cif.g08.bks.cpg/sg62_11_cif.got.tgz:20840.got - 2010.06.03 15:25:27.
