data_PCOD9465093
_publ_section_title
;
Structure prediction by ZEFSAII (Michael W. Deem and Ramdas Pophale) SiO2 
 PCOD9465093
Probable space group: P N M A
;
_chemical_formula_sum "Si O2"
_cell_formula_units_Z 64
_cell_length_a 18.641322
_cell_length_b 30.381696
_cell_length_c 5.335535
_cell_angle_alpha 90.000000
_cell_angle_beta 90.000000
_cell_angle_gamma 90.000000
_cell_volume 3021.806808
_symmetry_space_group_name_H-M "P N M A"
_symmetry_group_IT_number 62
_symmetry_cell_setting 'orthorhombic'
loop_
_space_group_symop_operation_xyz
x,y,z
1/2-x,-y,1/2+z
1/2+x,1/2-y,1/2-z
-x,1/2+y,-z
-x,-y,-z
1/2+x,y,1/2-z
1/2-x,1/2+y,1/2+z
x,1/2-y,z
loop_
_atom_site_type_symbol
_atom_site_label
_atom_site_fract_x
_atom_site_fract_y
_atom_site_fract_z
Si Si1 0.419011 0.497866 0.600535
Si Si2 0.835221 0.861619 0.352401
Si Si3 0.322106 0.057519 0.308876
Si Si4 0.065906 0.801373 0.869114
Si Si5 0.574066 0.909365 0.071148
Si Si6 0.485059 0.667835 0.131150
Si Si7 0.330980 0.580213 0.646672
Si Si8 0.181233 0.641488 0.115389
O O1 0.500000 0.500000 0.500000
O O2 0.354282 0.488065 0.403103
O O3 0.419454 0.455275 0.781267
O O4 0.391695 0.543867 0.709079
O O5 0.900205 0.827582 0.357530
O O6 0.834315 0.884936 0.625591
O O7 0.757457 0.839432 0.312722
O O8 0.843800 0.895647 0.118870
O O9 0.249874 0.058470 0.145287
O O10 0.302162 0.091765 0.524446
O O11 0.394939 0.078827 0.196981
O O12 0.082905 0.750000 0.872686
O O13 0.138062 0.829870 0.914262
O O14 0.023014 0.812544 0.615296
O O15 0.017915 0.813865 0.111533
O O16 0.499074 0.885252 0.106140
O O17 0.627149 0.870445 0.163505
#
# Coordination Sequence:
#
# PCOD9465093 Si02
#       8
#     8   8   8   8   8   8   8   8
#     4  11  26  37  55  87 127 167 220 275 326 364
#     4  11  23  41  66  91 125 164 215 260 312 367
#     4  10  21  37  60  80 119 163 210 258 313 367
#     4  11  23  42  67  97 128 161 199 248 311 385
#     4  10  20  38  61  80 118 166 212 252 312 371
#     4  11  23  41  68  93 128 164 204 254 316 383
#     4  11  25  40  60  92 123 168 218 272 316 367
#     4   9  20  40  62  92 115 161 210 254 296 385
#
# _framework density 21.179383999999999
#
# number of rings (size 3 to 8) (size 9 to 14) (size 15 to 20)
#    0.000    1.500    2.500    1.875    5.250    0.500 
#    0.000    1.250    0.000    0.000    0.000    0.000 
#    0.000    0.000    0.000    0.000    0.000    0.000 
#
# Total GULP energy -356615.813913 kJ/mol
# GULP energy per Si atom -5572.122092 kJ/mol
# Density = 2.113118 g / cm^3
# Si number density = 21.179384 Si / 1000 Ang^3
#
#
#
# Elastic Constant Matrix: (Units=GPa)
#
#
# Indices 1 2 3 4 5 6 
#
# 1 97.7680 14.1424 2.1351 0.0000 0.0000 0.0000
# 2 14.1424 56.3458 12.5580 0.0000 0.0000 0.0000
# 3 2.1351 12.5580 80.5079 0.0000 0.0000 0.0000
# 4 0.0000 0.0000 0.0000 13.1268 0.0000 0.0000
# 5 0.0000 0.0000 0.0000 0.0000 25.4528 0.0000
# 6 0.0000 0.0000 0.0000 0.0000 0.0000 12.6550
#
#
#
# Elastic Compliance Matrix: (Units=1/GPa)
#
#
# Indices 1 2 3 4 5 6 
#
# 1 0.010615 -0.002695 0.000139 0.000000 0.000000 0.000000
# 2 -0.002695 0.019071 -0.002903 0.000000 0.000000 0.000000
# 3 0.000139 -0.002903 0.012870 0.000000 0.000000 0.000000
# 4 0.000000 0.000000 0.000000 0.076180 0.000000 0.000000
# 5 0.000000 0.000000 0.000000 0.000000 0.039288 0.000000
# 6 0.000000 0.000000 0.000000 0.000000 0.000000 0.079020
#
#
# Mechanical properties :
#
#
# Convention : Reuss Voigt Hill
#
# Bulk Modulus (GPa) = 31.60837 32.47697 32.04267
# Shear Modulus (GPa) = 19.34155 23.96599 21.65377
#
# Velocity S-wave (km/s) = 3.02524 3.36753 3.20097
# Velocity P-wave (km/s) = 5.21146 5.52158 5.36876
#
# Compressibility (1/GPa) = 0.03163719
#
# Stress axis : x y z
#
# Youngs Moduli (GPa) = 94.20505 52.43528 77.69811
#
# Poissons Ratio (x) = 0.14133 -0.01079
# Poissons Ratio (y) = 0.25391 0.22558
# Poissons Ratio (z) = -0.01309 0.15224
#
# Static dielectric constant tensor:
#      x y z
#    x 1.882330 0.000000 0.000000 
#    y 0.000000 1.791180 0.000000 
#    z 0.000000 0.000000 1.806730 
# 
# From -- ./inp_files/1903.got.cif
#   From: 2010.05.17/outbox.cif.g08.bks.cpg/sg62_1_cif.got.tgz:1903.got - 2010.06.03 15:25:27.
