data_PCOD9465115
_publ_section_title
;
Structure prediction by ZEFSAII (Michael W. Deem and Ramdas Pophale) SiO2 
 PCOD9465115
Probable space group: P N M A
;
_chemical_formula_sum "Si O2"
_cell_formula_units_Z 52
_cell_length_a 10.645942
_cell_length_b 11.615177
_cell_length_c 17.343906
_cell_angle_alpha 90.000000
_cell_angle_beta 90.000000
_cell_angle_gamma 90.000000
_cell_volume 2144.652036
_symmetry_space_group_name_H-M "P N M A"
_symmetry_group_IT_number 62
_symmetry_cell_setting 'orthorhombic'
loop_
_space_group_symop_operation_xyz
x,y,z
1/2-x,-y,1/2+z
1/2+x,1/2-y,1/2-z
-x,1/2+y,-z
-x,-y,-z
1/2+x,y,1/2-z
1/2-x,1/2+y,1/2+z
x,1/2-y,z
loop_
_atom_site_type_symbol
_atom_site_label
_atom_site_fract_x
_atom_site_fract_y
_atom_site_fract_z
Si Si1 0.538465 0.122372 0.113788
Si Si2 0.582090 0.376659 0.887753
Si Si3 0.574346 0.750000 0.329557
Si Si4 0.289100 0.375375 0.488617
Si Si5 0.763369 0.926054 0.253215
Si Si6 0.920054 0.960888 0.110460
Si Si7 0.101498 0.120857 0.205616
O O1 0.480715 0.250000 0.094802
O O2 0.673104 0.123913 0.071768
O O3 0.554273 0.119098 0.205816
O O4 0.479165 0.998521 0.091367
O O5 0.524561 0.250000 0.906631
O O6 0.614998 0.377552 0.797357
O O7 0.718269 0.375955 0.929564
O O8 0.645927 0.848502 0.275669
O O9 0.507349 0.649248 0.382682
O O10 0.351050 0.250000 0.478961
O O11 0.371030 0.486022 0.469196
O O12 0.799036 0.932160 0.164364
O O13 0.730337 0.049407 0.289325
O O14 0.996755 0.062240 0.153071
O O15 0.124816 0.250000 0.180842
#
# Coordination Sequence:
#
# PCOD9465115 Si02
#       7
#     8   8   4   8   8   8   8
#     4  10  20  38  61  95 127 154 199 258 310 374
#     4  11  23  40  63  90 127 170 205 249 312 376
#     4  10  24  38  54  90 124 148 206 266 298 358
#     4  10  22  41  63  88 125 164 204 249 312 370
#     4  11  21  38  61  86 118 160 200 251 310 365
#     4  11  21  39  62  87 117 160 208 248 306 367
#     4  10  21  35  60  93 119 151 201 262 307 357
#
# _framework density 24.246357
#
# number of rings (size 3 to 8) (size 9 to 14) (size 15 to 20)
#    0.000    1.538    3.846    1.385    0.000    1.231 
#    2.769    3.077    3.385    0.000    0.000    0.000 
#    0.000    0.000    0.000    0.000    0.000    0.000 
#
# Total GULP energy -289602.949179 kJ/mol
# GULP energy per Si atom -5569.287484 kJ/mol
# Density = 2.419117 g / cm^3
# Si number density = 24.246357 Si / 1000 Ang^3
#
#
#
# Elastic Constant Matrix: (Units=GPa)
#
#
# Indices 1 2 3 4 5 6 
#
# 1 65.9004 59.5943 4.3340 0.0000 0.0000 0.0000
# 2 59.5943 245.4180 14.7104 0.0000 0.0000 0.0000
# 3 4.3340 14.7104 55.2998 0.0000 0.0000 0.0000
# 4 0.0000 0.0000 0.0000 -980.3157 0.0000 0.0000
# 5 0.0000 0.0000 0.0000 0.0000 40.2058 0.0000
# 6 0.0000 0.0000 0.0000 0.0000 0.0000 -23.2466
#
#
#
# Elastic Compliance Matrix: (Units=1/GPa)
#
#
# Indices 1 2 3 4 5 6 
#
# 1 0.019448 -0.004706 -0.000272 0.000000 0.000000 0.000000
# 2 -0.004706 0.005280 -0.001036 0.000000 0.000000 0.000000
# 3 -0.000272 -0.001036 0.018380 0.000000 0.000000 0.000000
# 4 0.000000 0.000000 0.000000 -0.001020 0.000000 0.000000
# 5 0.000000 0.000000 0.000000 0.000000 0.024872 0.000000
# 6 0.000000 0.000000 0.000000 0.000000 0.000000 -0.043017
#
#
# Mechanical properties :
#
#
# Convention : Reuss Voigt Hill
#
# Bulk Modulus (GPa) = 32.17546 58.21062 45.19304
# Shear Modulus (GPa) = 107.91927 -173.47268 -32.77671
#
# Velocity S-wave (km/s) = 6.67878 -8.46766 -3.68070
# Velocity P-wave (km/s) = 8.53076 8.45822 0.78497
#
# Compressibility (1/GPa) = 0.03107959
#
# Stress axis : x y z
#
# Youngs Moduli (GPa) = 51.41859 189.40969 54.40674
#
# Poissons Ratio (x) = 0.89141 0.01482
# Poissons Ratio (y) = 0.24199 0.05634
# Poissons Ratio (z) = 0.01400 0.19615
#
# Static dielectric constant tensor:
#      x y z
#    x 1.993950 0.000000 0.000000 
#    y 0.000000 1.949490 0.000000 
#    z 0.000000 0.000000 1.966560 
# 
# From -- ./inp_files/23937.got.cif
#   From: 2010.05.17/outbox.cif.g08.bks.cpg/sg62_12_cif.got.tgz:23937.got - 2010.06.03 15:25:27.
