data_PCOD9465809
_publ_section_title
;
Structure prediction by ZEFSAII (Michael W. Deem and Ramdas Pophale) SiO2 
 PCOD9465809
Probable space group: P N M A
;
_chemical_formula_sum "Si O2"
_cell_formula_units_Z 40
_cell_length_a 17.650440
_cell_length_b 12.046517
_cell_length_c 8.975570
_cell_angle_alpha 90.000000
_cell_angle_beta 90.000000
_cell_angle_gamma 90.000000
_cell_volume 1908.442469
_symmetry_space_group_name_H-M "P N M A"
_symmetry_group_IT_number 62
_symmetry_cell_setting 'orthorhombic'
loop_
_space_group_symop_operation_xyz
x,y,z
1/2-x,-y,1/2+z
1/2+x,1/2-y,1/2-z
-x,1/2+y,-z
-x,-y,-z
1/2+x,y,1/2-z
1/2-x,1/2+y,1/2+z
x,1/2-y,z
loop_
_atom_site_type_symbol
_atom_site_label
_atom_site_fract_x
_atom_site_fract_y
_atom_site_fract_z
Si Si1 0.202513 0.120244 0.684205
Si Si2 0.319804 0.033284 0.918132
Si Si3 0.445723 0.877211 0.362879
Si Si4 0.062551 0.438893 0.193443
Si Si5 0.031816 0.625184 0.547782
O O1 0.201171 0.250000 0.644468
O O2 0.261460 0.099512 0.816614
O O3 0.119810 0.087714 0.748569
O O4 0.218805 0.043868 0.542212
O O5 0.367645 0.955102 0.804512
O O6 0.380821 0.111054 0.002399
O O7 0.460730 0.750000 0.337912
O O8 0.417888 0.891709 0.532532
O O9 0.522873 0.943387 0.339262
O O10 0.996734 0.373589 0.281736
O O11 0.007454 0.750000 0.490444
O O12 0.000000 0.500000 0.500000
#
# Coordination Sequence:
#
# PCOD9465809 Si02
#       5
#     8   8   8   8   8
#     4  11  24  42  64  92 130 176 221 272 333 397
#     4  11  23  42  64  93 130 172 222 273 329 394
#     4  10  21  38  62  92 127 167 212 266 327 392
#     4  10  21  39  63  94 126 167 213 274 323 392
#     4  10  21  37  62  95 128 167 214 269 325 387
#
# _framework density 20.959500999999999
#
# number of rings (size 3 to 8) (size 9 to 14) (size 15 to 20)
#    0.000    1.600    2.000    2.400    0.000    8.000 
#    0.000    2.000    0.000    0.000    0.000    0.000 
#    0.000    0.000    0.000    0.000    0.000    0.000 
#
# Total GULP energy -223010.092724 kJ/mol
# GULP energy per Si atom -5575.252318 kJ/mol
# Density = 2.091180 g / cm^3
# Si number density = 20.959501 Si / 1000 Ang^3
#
#
#
# Elastic Constant Matrix: (Units=GPa)
#
#
# Indices 1 2 3 4 5 6 
#
# 1 39.5653 17.1551 -4.0456 0.0000 0.0000 0.0000
# 2 17.1551 93.4445 17.6145 0.0000 0.0000 0.0000
# 3 -4.0456 17.6145 80.2589 0.0000 0.0000 0.0000
# 4 0.0000 0.0000 0.0000 17.2337 0.0000 0.0000
# 5 0.0000 0.0000 0.0000 0.0000 36.9865 0.0000
# 6 0.0000 0.0000 0.0000 0.0000 0.0000 13.1115
#
#
#
# Elastic Compliance Matrix: (Units=1/GPa)
#
#
# Indices 1 2 3 4 5 6 
#
# 1 0.027990 -0.005638 0.002648 0.000000 0.000000 0.000000
# 2 -0.005638 0.012299 -0.002983 0.000000 0.000000 0.000000
# 3 0.002648 -0.002983 0.013248 0.000000 0.000000 0.000000
# 4 0.000000 0.000000 0.000000 0.058026 0.000000 0.000000
# 5 0.000000 0.000000 0.000000 0.000000 0.027037 0.000000
# 6 0.000000 0.000000 0.000000 0.000000 0.000000 0.076269
#
#
# Mechanical properties :
#
#
# Convention : Reuss Voigt Hill
#
# Bulk Modulus (GPa) = 24.04378 30.52408 27.28393
# Shear Modulus (GPa) = 20.77466 25.63600 23.20533
#
# Velocity S-wave (km/s) = 3.15172 3.50111 3.33100
# Velocity P-wave (km/s) = 4.97402 5.56225 5.27634
#
# Compressibility (1/GPa) = 0.04159080
#
# Stress axis : x y z
#
# Youngs Moduli (GPa) = 35.72720 81.30789 75.48337
#
# Poissons Ratio (x) = 0.45839 -0.19989
# Poissons Ratio (y) = 0.20142 0.22520
# Poissons Ratio (z) = -0.09461 0.24258
#
# Static dielectric constant tensor:
#      x y z
#    x 1.762950 0.000000 0.000000 
#    y 0.000000 1.762210 0.000000 
#    z 0.000000 0.000000 1.811990 
# 
# From -- ./inp_files/7304.got.cif
#   From: 2010.05.17/outbox.cif.g08.bks.cpg/sg62_4_cif.got.tgz:7304.got - 2010.06.03 15:25:27.
