data_PCOD9465796
_publ_section_title
;
Structure prediction by ZEFSAII (Michael W. Deem and Ramdas Pophale) SiO2 
 PCOD9465796
Probable space group: P N M A
;
_chemical_formula_sum "Si O2"
_cell_formula_units_Z 64
_cell_length_a 14.060471
_cell_length_b 12.662580
_cell_length_c 17.012219
_cell_angle_alpha 90.000000
_cell_angle_beta 90.000000
_cell_angle_gamma 90.000000
_cell_volume 3028.886754
_symmetry_space_group_name_H-M "P N M A"
_symmetry_group_IT_number 62
_symmetry_cell_setting 'orthorhombic'
loop_
_space_group_symop_operation_xyz
x,y,z
1/2-x,-y,1/2+z
1/2+x,1/2-y,1/2-z
-x,1/2+y,-z
-x,-y,-z
1/2+x,y,1/2-z
1/2-x,1/2+y,1/2+z
x,1/2-y,z
loop_
_atom_site_type_symbol
_atom_site_label
_atom_site_fract_x
_atom_site_fract_y
_atom_site_fract_z
Si Si1 0.228810 0.032311 0.805811
Si Si2 0.027438 0.625219 0.469770
Si Si3 0.454698 0.127990 0.638124
Si Si4 0.269904 0.867008 0.134633
Si Si5 0.628600 0.374768 0.543851
Si Si6 0.951584 0.025890 0.692195
Si Si7 0.384132 0.368662 0.218421
Si Si8 0.208547 0.925685 0.562308
O O1 0.217327 0.099491 0.725386
O O2 0.192107 0.096198 0.880155
O O3 0.339336 0.001974 0.814731
O O4 0.162541 0.931410 0.790292
O O5 0.992644 0.750000 0.488847
O O6 0.024996 0.609844 0.375824
O O7 0.135424 0.626326 0.502485
O O8 0.000000 0.500000 0.500000
O O9 0.481903 0.250000 0.652150
O O10 0.343199 0.127660 0.619955
O O11 0.523395 0.088583 0.569057
O O12 0.468769 0.069073 0.720265
O O13 0.304699 0.750000 0.121835
O O14 0.316137 0.951702 0.077478
O O15 0.625919 0.250000 0.531091
O O16 0.684905 0.419918 0.469715
O O17 0.022422 0.927153 0.685319
O O18 0.406720 0.250000 0.239125
O O19 0.307476 0.374363 0.147529
#
# Coordination Sequence:
#
# PCOD9465796 Si02
#       8
#     8   8   8   8   8   8   8   8
#     4  10  21  37  61  91 116 157 206 263 315 365
#     4  12  25  40  60  91 128 167 209 257 316 383
#     4   9  19  36  61  90 116 149 200 264 315 361
#     4   9  20  39  59  85 122 160 202 257 313 367
#     4  11  20  34  60  90 120 155 203 257 312 367
#     4  11  21  38  64  89 119 159 206 260 321 375
#     4  11  23  41  59  84 126 167 208 253 310 390
#     4  11  23  38  58  88 124 168 204 250 309 376
#
# _framework density 21.129874999999998
#
# number of rings (size 3 to 8) (size 9 to 14) (size 15 to 20)
#    0.000    1.500    3.750    1.875    0.000    2.500 
#    0.000    0.625    0.000    0.000    0.000    0.000 
#    0.000    0.000    0.000    0.000    0.000    0.000 
#
# Total GULP energy -356759.449675 kJ/mol
# GULP energy per Si atom -5574.366401 kJ/mol
# Density = 2.108178 g / cm^3
# Si number density = 21.129875 Si / 1000 Ang^3
#
#
#
# Elastic Constant Matrix: (Units=GPa)
#
#
# Indices 1 2 3 4 5 6 
#
# 1 50.6366 17.1518 1.4757 0.0000 0.0000 0.0000
# 2 17.1518 126.3745 17.1203 0.0000 0.0000 0.0000
# 3 1.4757 17.1203 33.5317 0.0000 0.0000 0.0000
# 4 0.0000 0.0000 0.0000 11.1602 0.0000 0.0000
# 5 0.0000 0.0000 0.0000 0.0000 32.9998 0.0000
# 6 0.0000 0.0000 0.0000 0.0000 0.0000 23.9862
#
#
#
# Elastic Compliance Matrix: (Units=1/GPa)
#
#
# Indices 1 2 3 4 5 6 
#
# 1 0.020710 -0.002887 0.000563 0.000000 0.000000 0.000000
# 2 -0.002887 0.008903 -0.004419 0.000000 0.000000 0.000000
# 3 0.000563 -0.004419 0.032054 0.000000 0.000000 0.000000
# 4 0.000000 0.000000 0.000000 0.089604 0.000000 0.000000
# 5 0.000000 0.000000 0.000000 0.000000 0.030303 0.000000
# 6 0.000000 0.000000 0.000000 0.000000 0.000000 0.041691
#
#
# Mechanical properties :
#
#
# Convention : Reuss Voigt Hill
#
# Bulk Modulus (GPa) = 20.75508 31.33760 26.04634
# Shear Modulus (GPa) = 19.77755 25.28225 22.52990
#
# Velocity S-wave (km/s) = 3.06273 3.46282 3.26890
# Velocity P-wave (km/s) = 4.72769 5.55440 5.15763
#
# Compressibility (1/GPa) = 0.04818097
#
# Stress axis : x y z
#
# Youngs Moduli (GPa) = 48.28568 112.31602 31.19748
#
# Poissons Ratio (x) = 0.32426 -0.01755
# Poissons Ratio (y) = 0.13940 0.13786
# Poissons Ratio (z) = -0.02717 0.49630
#
# Static dielectric constant tensor:
#      x y z
#    x 1.803150 0.000000 0.000000 
#    y 0.000000 1.810200 0.000000 
#    z 0.000000 0.000000 1.735130 
# 
# From -- ./inp_files/24027.got.cif
#   From: 2010.05.17/outbox.cif.g08.bks.cpg/sg62_13_cif.got.tgz:24027.got - 2010.06.03 15:25:27.
