data_PCOD9465638
_publ_section_title
;
Structure prediction by ZEFSAII (Michael W. Deem and Ramdas Pophale) SiO2 
 PCOD9465638
Probable space group: P N M A
;
_chemical_formula_sum "Si O2"
_cell_formula_units_Z 48
_cell_length_a 12.046406
_cell_length_b 18.915797
_cell_length_c 11.811455
_cell_angle_alpha 90.000000
_cell_angle_beta 90.000000
_cell_angle_gamma 90.000000
_cell_volume 2691.445192
_symmetry_space_group_name_H-M "P N M A"
_symmetry_group_IT_number 62
_symmetry_cell_setting 'orthorhombic'
loop_
_space_group_symop_operation_xyz
x,y,z
1/2-x,-y,1/2+z
1/2+x,1/2-y,1/2-z
-x,1/2+y,-z
-x,-y,-z
1/2+x,y,1/2-z
1/2-x,1/2+y,1/2+z
x,1/2-y,z
loop_
_atom_site_type_symbol
_atom_site_label
_atom_site_fract_x
_atom_site_fract_y
_atom_site_fract_z
Si Si1 0.675471 0.912979 0.094829
Si Si2 0.740906 0.668069 0.318904
Si Si3 0.822878 0.924372 0.653013
Si Si4 0.390556 0.092899 0.493979
Si Si5 0.952613 0.833876 0.475905
Si Si6 0.366959 0.566993 0.582729
O O1 0.721965 0.881370 0.211657
O O2 0.566015 0.870847 0.059940
O O3 0.649924 0.995812 0.113054
O O4 0.769340 0.906948 0.999026
O O5 0.733828 0.750000 0.285822
O O6 0.649982 0.650041 0.414938
O O7 0.859345 0.654698 0.378719
O O8 0.698160 0.909020 0.608414
O O9 0.903204 0.870508 0.587759
O O10 0.836442 0.920869 0.787161
O O11 0.515110 0.101121 0.450110
O O12 0.380778 0.016894 0.556997
O O13 0.966234 0.750000 0.490584
#
# Coordination Sequence:
#
# PCOD9465638 Si02
#       6
#     8   8   8   8   8   8
#     4  11  22  36  62  93 116 151 205 248 295 352
#     4  10  21  39  60  84 120 158 194 245 303 351
#     4  10  21  38  63  86 119 157 196 246 300 352
#     4   9  20  38  57  88 121 151 193 242 294 357
#     4  10  23  41  59  86 121 161 199 241 302 360
#     4  10  21  36  60  91 116 150 197 247 293 350
#
# _framework density 17.834285000000001
#
# number of rings (size 3 to 8) (size 9 to 14) (size 15 to 20)
#    0.000    2.000    1.667    1.000    4.667    1.333 
#    0.000    3.333    0.000    0.000    0.000    0.000 
#    0.000    0.000    0.000    0.000    0.000    0.000 
#
# Total GULP energy -268032.525129 kJ/mol
# GULP energy per Si atom -5584.010940 kJ/mol
# Density = 1.779369 g / cm^3
# Si number density = 17.834285 Si / 1000 Ang^3
#
#
#
# Elastic Constant Matrix: (Units=GPa)
#
#
# Indices 1 2 3 4 5 6 
#
# 1 119.8795 54.1786 67.0124 0.0000 0.0000 0.0000
# 2 54.1786 65.2054 39.3862 0.0000 0.0000 0.0000
# 3 67.0124 39.3862 136.2990 0.0000 0.0000 0.0000
# 4 0.0000 0.0000 0.0000 10.4372 0.0000 0.0000
# 5 0.0000 0.0000 0.0000 0.0000 9.0368 0.0000
# 6 0.0000 0.0000 0.0000 0.0000 0.0000 19.3592
#
#
#
# Elastic Compliance Matrix: (Units=1/GPa)
#
#
# Indices 1 2 3 4 5 6 
#
# 1 0.015525 -0.010041 -0.004731 0.000000 0.000000 0.000000
# 2 -0.010041 0.025074 -0.002309 0.000000 0.000000 0.000000
# 3 -0.004731 -0.002309 0.010330 0.000000 0.000000 0.000000
# 4 0.000000 0.000000 0.000000 0.095811 0.000000 0.000000
# 5 0.000000 0.000000 0.000000 0.000000 0.110658 0.000000
# 6 0.000000 0.000000 0.000000 0.000000 0.000000 0.051655
#
#
# Mechanical properties :
#
#
# Convention : Reuss Voigt Hill
#
# Bulk Modulus (GPa) = 59.64394 71.39313 65.51853
# Shear Modulus (GPa) = 14.33469 18.48709 16.41089
#
# Velocity S-wave (km/s) = 2.83816 3.22313 3.03675
# Velocity P-wave (km/s) = 6.65254 7.34641 7.00806
#
# Compressibility (1/GPa) = 0.01676616
#
# Stress axis : x y z
#
# Youngs Moduli (GPa) = 64.41413 39.88189 96.80537
#
# Poissons Ratio (x) = 0.40047 0.45799
# Poissons Ratio (y) = 0.64681 0.22349
# Poissons Ratio (z) = 0.30475 0.09207
#
# Static dielectric constant tensor:
#      x y z
#    x 1.594360 0.000000 0.000000 
#    y 0.000000 1.597580 0.000000 
#    z 0.000000 0.000000 1.578320 
# 
# From -- ./inp_files/12246.got.cif
#   From: 2010.05.17/outbox.cif.g08.bks.cpg/sg62_7_cif.got.tgz:12246.got - 2010.06.03 15:25:27.
