data_PCOD9465699
_publ_section_title
;
Structure prediction by ZEFSAII (Michael W. Deem and Ramdas Pophale) SiO2 
 PCOD9465699
Probable space group: P N M A
;
_chemical_formula_sum "Si O2"
_cell_formula_units_Z 64
_cell_length_a 14.878950
_cell_length_b 8.826316
_cell_length_c 26.307811
_cell_angle_alpha 90.000000
_cell_angle_beta 90.000000
_cell_angle_gamma 90.000000
_cell_volume 3454.907860
_symmetry_space_group_name_H-M "P N M A"
_symmetry_group_IT_number 62
_symmetry_cell_setting 'orthorhombic'
loop_
_space_group_symop_operation_xyz
x,y,z
1/2-x,-y,1/2+z
1/2+x,1/2-y,1/2-z
-x,1/2+y,-z
-x,-y,-z
1/2+x,y,1/2-z
1/2-x,1/2+y,1/2+z
x,1/2-y,z
loop_
_atom_site_type_symbol
_atom_site_label
_atom_site_fract_x
_atom_site_fract_y
_atom_site_fract_z
Si Si1 0.322577 0.929788 0.899636
Si Si2 0.653146 0.068835 0.366899
Si Si3 0.519044 0.571308 0.445561
Si Si4 0.600588 0.931092 0.998247
Si Si5 0.638359 0.427804 0.636852
Si Si6 0.003502 0.069032 0.331140
Si Si7 0.500423 0.931916 0.712750
Si Si8 0.839781 0.570104 0.392663
O O1 0.319854 0.750000 0.909642
O O2 0.403165 0.959447 0.860034
O O3 0.346490 0.015286 0.951754
O O4 0.229026 0.984623 0.876242
O O5 0.663942 0.250000 0.367628
O O6 0.588589 0.027180 0.319547
O O7 0.599573 0.013514 0.416752
O O8 0.749126 0.989510 0.366581
O O9 0.500000 0.500000 0.500000
O O10 0.539282 0.750000 0.449685
O O11 0.431531 0.553864 0.409832
O O12 0.594503 0.750000 0.996547
O O13 0.500000 0.000000 0.000000
O O14 0.648371 0.992373 0.947635
O O15 0.657116 0.250000 0.643047
O O16 0.585357 0.491103 0.685654
O O17 0.985087 0.250000 0.335072
O O18 0.008303 0.028985 0.271782
O O19 0.924898 0.979814 0.359292
O O20 0.510652 0.750000 0.708534
O O21 0.837206 0.750000 0.398812
#
# Coordination Sequence:
#
# PCOD9465699 Si02
#       8
#     8   8   8   8   8   8   8   8
#     4  11  23  39  62  91 123 162 205 249 300 364
#     4  10  21  39  62  88 121 158 200 251 303 358
#     4  10  21  37  57  83 117 156 202 249 301 363
#     4  12  24  41  63  88 123 162 201 251 304 360
#     4  10  22  39  59  87 123 159 198 250 305 359
#     4  10  22  41  64  89 119 157 205 255 302 358
#     4   9  20  41  66  89 117 158 204 252 305 360
#     4  12  25  40  61  91 124 162 204 248 302 367
#
# _framework density 18.524372
#
# number of rings (size 3 to 8) (size 9 to 14) (size 15 to 20)
#    0.000    1.500    1.250    3.750    1.750    4.000 
#    0.000    2.500    0.000    0.000    0.000    0.000 
#    0.000    0.000    0.000    0.000    0.000    0.000 
#
# Total GULP energy -357804.490074 kJ/mol
# GULP energy per Si atom -5590.695157 kJ/mol
# Density = 1.848221 g / cm^3
# Si number density = 18.524372 Si / 1000 Ang^3
#
#
#
# Elastic Constant Matrix: (Units=GPa)
#
#
# Indices 1 2 3 4 5 6 
#
# 1 110.4218 67.9873 32.8505 0.0000 0.0000 0.0000
# 2 67.9873 110.6330 62.9743 0.0000 0.0000 0.0000
# 3 32.8505 62.9743 125.1649 0.0000 0.0000 0.0000
# 4 0.0000 0.0000 0.0000 28.4414 0.0000 0.0000
# 5 0.0000 0.0000 0.0000 0.0000 -1.8368 0.0000
# 6 0.0000 0.0000 0.0000 0.0000 0.0000 35.3529
#
#
#
# Elastic Compliance Matrix: (Units=1/GPa)
#
#
# Indices 1 2 3 4 5 6 
#
# 1 0.014650 -0.009549 0.000959 0.000000 0.000000 0.000000
# 2 -0.009549 0.018891 -0.006998 0.000000 0.000000 0.000000
# 3 0.000959 -0.006998 0.011259 0.000000 0.000000 0.000000
# 4 0.000000 0.000000 0.000000 0.035160 0.000000 0.000000
# 5 0.000000 0.000000 0.000000 0.000000 -0.544439 0.000000
# 6 0.000000 0.000000 0.000000 0.000000 0.000000 0.028286
#
#
# Mechanical properties :
#
#
# Convention : Reuss Voigt Hill
#
# Bulk Modulus (GPa) = 73.40179 74.87155 74.13667
# Shear Modulus (GPa) = -12.48513 24.55201 6.03344
#
# Velocity S-wave (km/s) = -2.59894 3.64454 1.80668
# Velocity P-wave (km/s) = 5.54116 7.62993 6.66785
#
# Compressibility (1/GPa) = 0.01362365
#
# Stress axis : x y z
#
# Youngs Moduli (GPa) = 68.25848 52.93635 88.82028
#
# Poissons Ratio (x) = 0.50549 -0.08521
# Poissons Ratio (y) = 0.65181 0.62158
# Poissons Ratio (z) = -0.06549 0.37046
#
# Static dielectric constant tensor:
#      x y z
#    x 1.618490 0.000000 0.000000 
#    y 0.000000 1.624640 0.000000 
#    z 0.000000 0.000000 1.614740 
# 
# From -- ./inp_files/29921.got.cif
#   From: 2010.05.17/outbox.cif.g08.bks.cpg/sg62_15_cif.got.tgz:29921.got - 2010.06.03 15:25:27.
