data_PCOD9465212
_publ_section_title
;
Structure prediction by ZEFSAII (Michael W. Deem and Ramdas Pophale) SiO2 
 PCOD9465212
Probable space group: P N M A
;
_chemical_formula_sum "Si O2"
_cell_formula_units_Z 48
_cell_length_a 9.647803
_cell_length_b 7.977555
_cell_length_c 28.471797
_cell_angle_alpha 90.000000
_cell_angle_beta 90.000000
_cell_angle_gamma 90.000000
_cell_volume 2191.356885
_symmetry_space_group_name_H-M "P N M A"
_symmetry_group_IT_number 62
_symmetry_cell_setting 'orthorhombic'
loop_
_space_group_symop_operation_xyz
x,y,z
1/2-x,-y,1/2+z
1/2+x,1/2-y,1/2-z
-x,1/2+y,-z
-x,-y,-z
1/2+x,y,1/2-z
1/2-x,1/2+y,1/2+z
x,1/2-y,z
loop_
_atom_site_type_symbol
_atom_site_label
_atom_site_fract_x
_atom_site_fract_y
_atom_site_fract_z
Si Si1 0.010265 0.940672 0.144492
Si Si2 0.308385 0.451352 0.114946
Si Si3 0.692629 0.944483 0.722428
Si Si4 0.914002 0.056871 0.045458
Si Si5 0.157471 0.951179 0.508580
Si Si6 0.996408 0.956316 0.694606
O O1 0.004461 0.750000 0.160785
O O2 0.911955 0.044904 0.178666
O O3 0.953409 0.955424 0.091553
O O4 0.168862 0.999579 0.142106
O O5 0.313152 0.250000 0.112780
O O6 0.302516 0.510774 0.061157
O O7 0.443133 0.508052 0.144039
O O8 0.718605 0.750000 0.734219
O O9 0.608207 0.014405 0.766703
O O10 0.842560 0.016001 0.708228
O O11 0.947049 0.250000 0.055549
O O12 0.755831 0.033369 0.030119
O O13 0.000000 0.000000 0.000000
O O14 0.175531 0.750000 0.506294
O O15 0.000000 0.000000 0.500000
O O16 0.993186 0.750000 0.694742
#
# Coordination Sequence:
#
# PCOD9465212 Si02
#       6
#     8   8   8   8   8   8
#     4  12  25  40  61  91 125 164 210 256 314 376
#     4  10  21  40  64  91 123 165 211 256 308 370
#     4  10  20  38  65  93 123 159 203 257 310 371
#     4  12  24  42  66  92 124 164 213 262 314 373
#     4  11  24  40  62  93 132 171 212 258 309 368
#     4   9  19  37  65  96 122 156 206 255 310 373
#
# _framework density 21.904237999999999
#
# number of rings (size 3 to 8) (size 9 to 14) (size 15 to 20)
#    0.000    1.333    1.667    4.500    2.333    3.333 
#    0.000    4.167    0.000    0.000    0.000    0.000 
#    0.000    0.000    0.000    0.000    0.000    0.000 
#
# Total GULP energy -268410.752555 kJ/mol
# GULP energy per Si atom -5591.890678 kJ/mol
# Density = 2.185438 g / cm^3
# Si number density = 21.904238 Si / 1000 Ang^3
#
#
#
# Elastic Constant Matrix: (Units=GPa)
#
#
# Indices 1 2 3 4 5 6 
#
# 1 113.2755 -11.0852 3.6230 0.0000 0.0000 0.0000
# 2 -11.0852 34.1389 -9.4221 0.0000 0.0000 0.0000
# 3 3.6230 -9.4221 54.5451 0.0000 0.0000 0.0000
# 4 0.0000 0.0000 0.0000 8.9993 0.0000 0.0000
# 5 0.0000 0.0000 0.0000 0.0000 36.5595 0.0000
# 6 0.0000 0.0000 0.0000 0.0000 0.0000 20.1680
#
#
#
# Elastic Compliance Matrix: (Units=1/GPa)
#
#
# Indices 1 2 3 4 5 6 
#
# 1 0.009118 0.002933 -0.000099 0.000000 0.000000 0.000000
# 2 0.002933 0.031702 0.005281 0.000000 0.000000 0.000000
# 3 -0.000099 0.005281 0.019252 0.000000 0.000000 0.000000
# 4 0.000000 0.000000 0.000000 0.111120 0.000000 0.000000
# 5 0.000000 0.000000 0.000000 0.000000 0.027353 0.000000
# 6 0.000000 0.000000 0.000000 0.000000 0.000000 0.049583
#
#
# Mechanical properties :
#
#
# Convention : Reuss Voigt Hill
#
# Bulk Modulus (GPa) = 13.10533 18.68786 15.89659
# Shear Modulus (GPa) = 19.43016 27.73495 23.58256
#
# Velocity S-wave (km/s) = 2.98157 3.56222 3.28475
# Velocity P-wave (km/s) = 4.22481 5.04672 4.65394
#
# Compressibility (1/GPa) = 0.07630486
#
# Stress axis : x y z
#
# Youngs Moduli (GPa) = 109.66990 31.54348 51.94173
#
# Poissons Ratio (x) = -0.09253 0.00514
# Poissons Ratio (y) = -0.32172 -0.27433
# Poissons Ratio (z) = 0.01085 -0.16659
#
# Static dielectric constant tensor:
#      x y z
#    x 1.827870 0.000000 0.000000 
#    y 0.000000 1.824160 0.000000 
#    z 0.000000 0.000000 1.795870 
# 
# From -- ./inp_files/31952.got.cif
#   From: 2010.05.17/outbox.cif.g08.bks.cpg/sg62_16_cif.got.tgz:31952.got - 2010.06.03 15:25:27.
