data_PCOD9465936
_publ_section_title
;
Structure prediction by ZEFSAII (Michael W. Deem and Ramdas Pophale) SiO2 
 PCOD9465936
Probable space group: P N M A
;
_chemical_formula_sum "Si O2"
_cell_formula_units_Z 48
_cell_length_a 14.464562
_cell_length_b 8.726776
_cell_length_c 20.687696
_cell_angle_alpha 90.000000
_cell_angle_beta 90.000000
_cell_angle_gamma 90.000000
_cell_volume 2611.387023
_symmetry_space_group_name_H-M "P N M A"
_symmetry_group_IT_number 62
_symmetry_cell_setting 'orthorhombic'
loop_
_space_group_symop_operation_xyz
x,y,z
1/2-x,-y,1/2+z
1/2+x,1/2-y,1/2-z
-x,1/2+y,-z
-x,-y,-z
1/2+x,y,1/2-z
1/2-x,1/2+y,1/2+z
x,1/2-y,z
loop_
_atom_site_type_symbol
_atom_site_label
_atom_site_fract_x
_atom_site_fract_y
_atom_site_fract_z
Si Si1 0.558898 0.433250 0.441373
Si Si2 0.049628 0.564610 0.312405
Si Si3 0.057459 0.065945 0.558993
Si Si4 0.554015 0.933610 0.687802
Si Si5 0.744083 0.933841 0.492563
Si Si6 0.745861 0.065597 0.638860
O O1 0.500000 0.500000 0.500000
O O2 0.563862 0.250000 0.446191
O O3 0.507143 0.472884 0.375211
O O4 0.659141 0.504544 0.451041
O O5 0.047129 0.750000 0.307467
O O6 0.156513 0.521549 0.327328
O O7 0.988122 0.515798 0.374038
O O8 0.001856 0.494697 0.249452
O O9 0.051847 0.250000 0.557648
O O10 0.162763 0.022826 0.545140
O O11 0.000000 0.000000 0.500000
O O12 0.563148 0.750000 0.691208
O O13 0.655895 0.004515 0.676811
O O14 0.738649 0.750000 0.498577
O O15 0.743731 0.002084 0.565248
O O16 0.742343 0.250000 0.635918
#
# Coordination Sequence:
#
# PCOD9465936 Si02
#       6
#     8   8   8   8   8   8
#     4  11  23  39  61  89 121 158 206 256 306 365
#     4  10  23  42  63  91 125 164 208 250 306 372
#     4  10  21  38  61  91 123 158 205 254 301 362
#     4  11  25  42  62  91 126 162 206 257 310 368
#     4  11  22  36  61  94 126 160 204 257 307 364
#     4  11  22  39  65  90 121 164 206 252 307 371
#
# _framework density 18.381036000000002
#
# number of rings (size 3 to 8) (size 9 to 14) (size 15 to 20)
#    0.000    1.333    3.333    2.000    0.000    6.000 
#    0.000    5.000    0.000    0.000    0.000    0.000 
#    0.000    0.000    0.000    0.000    0.000    0.000 
#
# Total GULP energy -268164.924205 kJ/mol
# GULP energy per Si atom -5586.769254 kJ/mol
# Density = 1.833920 g / cm^3
# Si number density = 18.381036 Si / 1000 Ang^3
#
#
#
# Elastic Constant Matrix: (Units=GPa)
#
#
# Indices 1 2 3 4 5 6 
#
# 1 215.7462 60.8710 103.9497 0.0000 0.0000 0.0000
# 2 60.8710 37.4231 50.8047 0.0000 0.0000 0.0000
# 3 103.9497 50.8047 164.4543 0.0000 0.0000 0.0000
# 4 0.0000 0.0000 0.0000 29.9211 0.0000 0.0000
# 5 0.0000 0.0000 0.0000 0.0000 30.8152 0.0000
# 6 0.0000 0.0000 0.0000 0.0000 0.0000 28.2277
#
#
#
# Elastic Compliance Matrix: (Units=1/GPa)
#
#
# Indices 1 2 3 4 5 6 
#
# 1 0.008930 -0.011820 -0.001993 0.000000 0.000000 0.000000
# 2 -0.011820 0.061667 -0.011580 0.000000 0.000000 0.000000
# 3 -0.001993 -0.011580 0.010918 0.000000 0.000000 0.000000
# 4 0.000000 0.000000 0.000000 0.033421 0.000000 0.000000
# 5 0.000000 0.000000 0.000000 0.000000 0.032452 0.000000
# 6 0.000000 0.000000 0.000000 0.000000 0.000000 0.035426
#
#
# Mechanical properties :
#
#
# Convention : Reuss Voigt Hill
#
# Bulk Modulus (GPa) = 32.54135 94.31939 63.43037
# Shear Modulus (GPa) = 20.50499 31.25934 25.88217
#
# Velocity S-wave (km/s) = 3.34361 4.12834 3.75652
# Velocity P-wave (km/s) = 5.71389 8.61099 7.30745
#
# Compressibility (1/GPa) = 0.03073013
#
# Stress axis : x y z
#
# Youngs Moduli (GPa) = 111.97857 16.21608 91.59181
#
# Poissons Ratio (x) = 0.19167 0.18257
# Poissons Ratio (y) = 1.32354 1.06061
# Poissons Ratio (z) = 0.22321 0.18778
#
# Static dielectric constant tensor:
#      x y z
#    x 1.587060 0.000000 0.000000 
#    y 0.000000 1.620780 0.000000 
#    z 0.000000 0.000000 1.595910 
# 
# From -- ./inp_files/23756.got.cif
#   From: 2010.05.17/outbox.cif.g08.bks.cpg/sg62_12_cif.got.tgz:23756.got - 2010.06.03 15:25:27.
