data_PCOD9465830
_publ_section_title
;
Structure prediction by ZEFSAII (Michael W. Deem and Ramdas Pophale) SiO2 
 PCOD9465830
Probable space group: P N M A
;
_chemical_formula_sum "Si O2"
_cell_formula_units_Z 52
_cell_length_a 8.857392
_cell_length_b 23.793843
_cell_length_c 9.074032
_cell_angle_alpha 90.000000
_cell_angle_beta 90.000000
_cell_angle_gamma 90.000000
_cell_volume 1912.364899
_symmetry_space_group_name_H-M "P N M A"
_symmetry_group_IT_number 62
_symmetry_cell_setting 'orthorhombic'
loop_
_space_group_symop_operation_xyz
x,y,z
1/2-x,-y,1/2+z
1/2+x,1/2-y,1/2-z
-x,1/2+y,-z
-x,-y,-z
1/2+x,y,1/2-z
1/2-x,1/2+y,1/2+z
x,1/2-y,z
loop_
_atom_site_type_symbol
_atom_site_label
_atom_site_fract_x
_atom_site_fract_y
_atom_site_fract_z
Si Si1 0.067827 0.858832 0.736361
Si Si2 0.049556 0.987730 0.785085
Si Si3 0.771662 0.364247 0.554490
Si Si4 0.172043 0.750000 0.278203
Si Si5 0.031290 0.347501 0.740467
Si Si6 0.240663 0.967682 0.051497
Si Si7 0.292064 0.837320 0.970061
O O1 0.201778 0.870101 0.616725
O O2 0.144161 0.825624 0.871602
O O3 0.933078 0.831108 0.643068
O O4 0.015326 0.920847 0.784051
O O5 0.114980 0.005724 0.628615
O O6 0.905310 0.018952 0.849383
O O7 0.191241 0.993776 0.896721
O O8 0.622275 0.382499 0.639825
O O9 0.774624 0.298951 0.602695
O O10 0.921800 0.384677 0.638856
O O11 0.073681 0.799878 0.191190
O O12 0.139368 0.312520 0.623961
O O13 0.267433 0.901750 0.022901
#
# Coordination Sequence:
#
# PCOD9465830 Si02
#       7
#     8   8   8   4   8   8   8
#     4  10  21  39  58  79 115 152 184 232 286 332
#     4  10  21  38  57  81 114 152 193 235 280 336
#     4   9  19  34  60  84 112 147 183 227 284 337
#     4   8  18  36  60  82 120 140 182 234 284 340
#     4   9  19  34  58  84 112 144 184 229 279 336
#     4  10  22  37  57  84 113 151 191 236 286 333
#     4  10  22  38  56  81 115 148 188 236 280 337
#
# _framework density 27.191462999999999
#
# number of rings (size 3 to 8) (size 9 to 14) (size 15 to 20)
#    0.923    1.538    0.000    2.308    0.000    7.385 
#    0.000    0.769    0.000    0.000    0.000    0.000 
#    0.000    0.000    0.000    0.000    0.000    0.000 
#
# Total GULP energy -289714.724985 kJ/mol
# GULP energy per Si atom -5571.437019 kJ/mol
# Density = 2.712957 g / cm^3
# Si number density = 27.191463 Si / 1000 Ang^3
#
#
#
# Elastic Constant Matrix: (Units=GPa)
#
#
# Indices 1 2 3 4 5 6 
#
# 1 89.5943 -12.0473 29.6731 0.0000 0.0000 0.0000
# 2 -12.0473 54.3734 -2.4021 0.0000 0.0000 0.0000
# 3 29.6731 -2.4021 125.9208 0.0000 0.0000 0.0000
# 4 0.0000 0.0000 0.0000 111.3196 0.0000 0.0000
# 5 0.0000 0.0000 0.0000 0.0000 62.8577 0.0000
# 6 0.0000 0.0000 0.0000 0.0000 0.0000 -4.6912
#
#
#
# Elastic Compliance Matrix: (Units=1/GPa)
#
#
# Indices 1 2 3 4 5 6 
#
# 1 0.012473 0.002636 -0.002889 0.000000 0.000000 0.000000
# 2 0.002636 0.018964 -0.000259 0.000000 0.000000 0.000000
# 3 -0.002889 -0.000259 0.008617 0.000000 0.000000 0.000000
# 4 0.000000 0.000000 0.000000 0.008983 0.000000 0.000000
# 5 0.000000 0.000000 0.000000 0.000000 0.015909 0.000000
# 6 0.000000 0.000000 0.000000 0.000000 0.000000 -0.213164
#
#
# Mechanical properties :
#
#
# Convention : Reuss Voigt Hill
#
# Bulk Modulus (GPa) = 25.62191 33.37066 29.49629
# Shear Modulus (GPa) = -37.26225 50.87485 6.80630
#
# Velocity S-wave (km/s) = -3.70586 4.33018 1.58384
# Velocity P-wave (km/s) = 2.97791 6.10735 3.77040
#
# Compressibility (1/GPa) = 0.03902909
#
# Stress axis : x y z
#
# Youngs Moduli (GPa) = 80.17554 52.73177 116.04543
#
# Poissons Ratio (x) = -0.13899 0.33524
# Poissons Ratio (y) = -0.21133 0.03010
# Poissons Ratio (z) = 0.23162 0.01368
#
# Static dielectric constant tensor:
#      x y z
#    x 2.338600 0.000000 0.000000 
#    y 0.000000 -0.130990 0.000000 
#    z 0.000000 0.000000 2.139150 
# 
# From -- ./inp_files/5399.got.cif
#   From: 2010.05.17/outbox.cif.g08.bks.cpg/sg62_3_cif.got.tgz:5399.got - 2010.06.03 15:25:27.
