data_PCOD9465282
_publ_section_title
;
Structure prediction by ZEFSAII (Michael W. Deem and Ramdas Pophale) SiO2 
 PCOD9465282
Probable space group: P N M A
;
_chemical_formula_sum "Si O2"
_cell_formula_units_Z 48
_cell_length_a 15.493424
_cell_length_b 8.566821
_cell_length_c 19.449490
_cell_angle_alpha 90.000000
_cell_angle_beta 90.000000
_cell_angle_gamma 90.000000
_cell_volume 2581.518945
_symmetry_space_group_name_H-M "P N M A"
_symmetry_group_IT_number 62
_symmetry_cell_setting 'orthorhombic'
loop_
_space_group_symop_operation_xyz
x,y,z
1/2-x,-y,1/2+z
1/2+x,1/2-y,1/2-z
-x,1/2+y,-z
-x,-y,-z
1/2+x,y,1/2-z
1/2-x,1/2+y,1/2+z
x,1/2-y,z
loop_
_atom_site_type_symbol
_atom_site_label
_atom_site_fract_x
_atom_site_fract_y
_atom_site_fract_z
Si Si1 0.847566 0.936649 0.172874
Si Si2 0.001422 0.563939 0.422765
Si Si3 0.344583 0.937953 0.830449
Si Si4 0.147899 0.938061 0.674798
Si Si5 0.498568 0.061886 0.422774
Si Si6 0.345423 0.560833 0.673421
O O1 0.846414 0.750000 0.173358
O O2 0.752010 0.001125 0.156878
O O3 0.871739 0.999405 0.248787
O O4 0.915964 0.999239 0.118172
O O5 0.000133 0.750000 0.423898
O O6 0.086559 0.505354 0.383141
O O7 0.000000 0.500000 0.500000
O O8 0.919572 0.501561 0.379977
O O9 0.345104 0.750000 0.833637
O O10 0.367276 0.985545 0.751778
O O11 0.143921 0.750000 0.676360
O O12 0.246770 0.986642 0.658707
O O13 0.497127 0.250000 0.422924
O O14 0.583712 0.007870 0.380927
O O15 0.500000 0.000000 0.500000
O O16 0.345938 0.750000 0.672560
#
# Coordination Sequence:
#
# PCOD9465282 Si02
#       6
#     8   8   8   8   8   8
#     4  11  22  38  60  89 119 152 194 243 293 350
#     4  12  25  40  58  86 121 159 198 243 295 353
#     4  10  20  39  64  88 112 149 197 247 297 349
#     4  10  20  39  63  87 114 151 197 247 295 346
#     4  11  22  38  57  83 118 157 197 243 294 348
#     4   8  18  36  61  85 110 146 191 239 291 342
#
# _framework density 18.593705
#
# number of rings (size 3 to 8) (size 9 to 14) (size 15 to 20)
#    0.000    1.667    0.000    6.500    0.000    2.667 
#    0.000   14.167    0.000    0.000    0.000    0.000 
#    0.000    0.000    0.000    0.000    0.000    0.000 
#
# Total GULP energy -268290.839673 kJ/mol
# GULP energy per Si atom -5589.392493 kJ/mol
# Density = 1.855138 g / cm^3
# Si number density = 18.593705 Si / 1000 Ang^3
#
#
#
# Elastic Constant Matrix: (Units=GPa)
#
#
# Indices 1 2 3 4 5 6 
#
# 1 138.3200 53.9536 141.5201 0.0000 0.0000 0.0000
# 2 53.9536 121.7154 67.6177 0.0000 0.0000 0.0000
# 3 141.5201 67.6177 193.6732 0.0000 0.0000 0.0000
# 4 0.0000 0.0000 0.0000 34.5692 0.0000 0.0000
# 5 0.0000 0.0000 0.0000 0.0000 -21.0906 0.0000
# 6 0.0000 0.0000 0.0000 0.0000 0.0000 29.7219
#
#
#
# Elastic Compliance Matrix: (Units=1/GPa)
#
#
# Indices 1 2 3 4 5 6 
#
# 1 0.028820 -0.001335 -0.020593 0.000000 0.000000 0.000000
# 2 -0.001335 0.010255 -0.002605 0.000000 0.000000 0.000000
# 3 -0.020593 -0.002605 0.021120 0.000000 0.000000 0.000000
# 4 0.000000 0.000000 0.000000 0.028928 0.000000 0.000000
# 5 0.000000 0.000000 0.000000 0.000000 -0.047414 0.000000
# 6 0.000000 0.000000 0.000000 0.000000 0.000000 0.033645
#
#
# Mechanical properties :
#
#
# Convention : Reuss Voigt Hill
#
# Bulk Modulus (GPa) = 89.85211 108.87683 99.36447
# Shear Modulus (GPa) = 39.02349 21.34791 30.18570
#
# Velocity S-wave (km/s) = 4.58618 3.39208 4.03356
# Velocity P-wave (km/s) = 8.74488 8.60375 8.67460
#
# Compressibility (1/GPa) = 0.01112940
#
# Stress axis : x y z
#
# Youngs Moduli (GPa) = 34.69858 97.51633 47.34777
#
# Poissons Ratio (x) = 0.13018 0.97503
# Poissons Ratio (y) = 0.04632 0.12333
# Poissons Ratio (z) = 0.71454 0.25401
#
# Static dielectric constant tensor:
#      x y z
#    x 1.635770 0.000000 0.000000 
#    y 0.000000 1.628250 0.000000 
#    z 0.000000 0.000000 1.603210 
# 
# From -- ./inp_files/23639.got.cif
#   From: 2010.05.17/outbox.cif.g08.bks.cpg/sg62_12_cif.got.tgz:23639.got - 2010.06.03 15:25:27.
