data_PCOD9465350
_publ_section_title
;
Structure prediction by ZEFSAII (Michael W. Deem and Ramdas Pophale) SiO2 
 PCOD9465350
Probable space group: P N M A
;
_chemical_formula_sum "Si O2"
_cell_formula_units_Z 40
_cell_length_a 8.962069
_cell_length_b 8.009074
_cell_length_c 29.530623
_cell_angle_alpha 90.000000
_cell_angle_beta 90.000000
_cell_angle_gamma 90.000000
_cell_volume 2119.645331
_symmetry_space_group_name_H-M "P N M A"
_symmetry_group_IT_number 62
_symmetry_cell_setting 'orthorhombic'
loop_
_space_group_symop_operation_xyz
x,y,z
1/2-x,-y,1/2+z
1/2+x,1/2-y,1/2-z
-x,1/2+y,-z
-x,-y,-z
1/2+x,y,1/2-z
1/2-x,1/2+y,1/2+z
x,1/2-y,z
loop_
_atom_site_type_symbol
_atom_site_label
_atom_site_fract_x
_atom_site_fract_y
_atom_site_fract_z
Si Si1 0.927407 0.057597 0.137449
Si Si2 0.404309 0.552104 0.543403
Si Si3 0.069380 0.064639 0.361713
Si Si4 0.064057 0.750000 0.300423
Si Si5 0.930787 0.941495 0.452736
Si Si6 0.575857 0.250000 0.701443
O O1 0.964739 0.250000 0.150391
O O2 0.748108 0.049912 0.131780
O O3 0.004886 0.020452 0.089538
O O4 0.969657 0.916386 0.173719
O O5 0.500000 0.500000 0.500000
O O6 0.374583 0.750000 0.540858
O O7 0.246810 0.459775 0.544387
O O8 0.037665 0.250000 0.343316
O O9 0.021242 0.915189 0.328777
O O10 0.992163 0.044376 0.410271
O O11 0.991787 0.750000 0.251238
O O12 0.243905 0.750000 0.295933
O O13 0.973948 0.750000 0.444871
O O14 0.000000 0.000000 0.500000
#
# Coordination Sequence:
#
# PCOD9465350 Si02
#       6
#     8   8   8   4   8   4
#     4   9  21  39  61  87 117 156 199 247 300 354
#     4  11  23  38  58  87 120 159 203 245 298 356
#     4  10  20  40  63  86 119 155 198 249 298 352
#     4  10  22  40  58  94 114 160 198 248 301 360
#     4  12  24  38  58  87 121 159 202 245 297 357
#     4  10  22  38  64  84 124 154 202 246 303 356
#
# _framework density 18.871081
#
# number of rings (size 3 to 8) (size 9 to 14) (size 15 to 20)
#    0.000    1.600    1.000    3.600    2.800    4.000 
#    0.000    0.000    0.000    0.000    0.000    0.000 
#    0.000    0.000    0.000    0.000    0.000    0.000 
#
# Total GULP energy -223519.940143 kJ/mol
# GULP energy per Si atom -5587.998504 kJ/mol
# Density = 1.882813 g / cm^3
# Si number density = 18.871081 Si / 1000 Ang^3
#
#
#
# Elastic Constant Matrix: (Units=GPa)
#
#
# Indices 1 2 3 4 5 6 
#
# 1 32.3458 37.8778 40.4897 0.0000 0.0000 0.0000
# 2 37.8778 135.5407 82.3299 0.0000 0.0000 0.0000
# 3 40.4897 82.3299 151.1006 0.0000 0.0000 0.0000
# 4 0.0000 0.0000 0.0000 31.3779 0.0000 0.0000
# 5 0.0000 0.0000 0.0000 0.0000 39.8459 0.0000
# 6 0.0000 0.0000 0.0000 0.0000 0.0000 23.9229
#
#
#
# Elastic Compliance Matrix: (Units=1/GPa)
#
#
# Indices 1 2 3 4 5 6 
#
# 1 0.053369 -0.009308 -0.009229 0.000000 0.000000 0.000000
# 2 -0.009308 0.012651 -0.004399 0.000000 0.000000 0.000000
# 3 -0.009229 -0.004399 0.011488 0.000000 0.000000 0.000000
# 4 0.000000 0.000000 0.000000 0.031870 0.000000 0.000000
# 5 0.000000 0.000000 0.000000 0.000000 0.025097 0.000000
# 6 0.000000 0.000000 0.000000 0.000000 0.000000 0.041801
#
#
# Mechanical properties :
#
#
# Convention : Reuss Voigt Hill
#
# Bulk Modulus (GPa) = 31.61024 71.15355 51.38189
# Shear Modulus (GPa) = 21.48749 29.58199 25.53474
#
# Velocity S-wave (km/s) = 3.37804 3.96357 3.68246
# Velocity P-wave (km/s) = 5.65702 7.66377 6.73555
#
# Compressibility (1/GPa) = 0.03163532
#
# Stress axis : x y z
#
# Youngs Moduli (GPa) = 18.73741 79.04443 87.04733
#
# Poissons Ratio (x) = 0.73578 0.80338
# Poissons Ratio (y) = 0.17442 0.38291
# Poissons Ratio (z) = 0.17293 0.34771
#
# Static dielectric constant tensor:
#      x y z
#    x 1.633150 0.000000 0.000000 
#    y 0.000000 1.702760 0.000000 
#    z 0.000000 0.000000 1.605180 
# 
# From -- ./inp_files/28619.got.cif
#   From: 2010.05.17/outbox.cif.g08.bks.cpg/sg62_15_cif.got.tgz:28619.got - 2010.06.03 15:25:27.
