data_PCOD9465367
_publ_section_title
;
Structure prediction by ZEFSAII (Michael W. Deem and Ramdas Pophale) SiO2 
 PCOD9465367
Probable space group: P N M A
;
_chemical_formula_sum "Si O2"
_cell_formula_units_Z 56
_cell_length_a 14.923296
_cell_length_b 22.389028
_cell_length_c 9.120978
_cell_angle_alpha 90.000000
_cell_angle_beta 90.000000
_cell_angle_gamma 90.000000
_cell_volume 3047.483767
_symmetry_space_group_name_H-M "P N M A"
_symmetry_group_IT_number 62
_symmetry_cell_setting 'orthorhombic'
loop_
_space_group_symop_operation_xyz
x,y,z
1/2-x,-y,1/2+z
1/2+x,1/2-y,1/2-z
-x,1/2+y,-z
-x,-y,-z
1/2+x,y,1/2-z
1/2-x,1/2+y,1/2+z
x,1/2-y,z
loop_
_atom_site_type_symbol
_atom_site_label
_atom_site_fract_x
_atom_site_fract_y
_atom_site_fract_z
Si Si1 0.781614 0.934779 0.857622
Si Si2 0.056171 0.680234 0.895048
Si Si3 0.147066 0.000195 0.428110
Si Si4 0.546056 0.180516 0.087693
Si Si5 0.536500 0.066926 0.536791
Si Si6 0.516893 0.420540 0.871993
Si Si7 0.245435 0.317644 0.292256
O O1 0.744193 0.868939 0.827449
O O2 0.801759 0.966646 0.702757
O O3 0.715237 0.973101 0.955654
O O4 0.874386 0.927689 0.941942
O O5 0.029966 0.750000 0.932776
O O6 0.164046 0.679574 0.886883
O O7 0.012201 0.667603 0.734283
O O8 0.024358 0.624237 0.992800
O O9 0.081842 0.949090 0.365425
O O10 0.079593 0.043442 0.514768
O O11 0.535723 0.250000 0.058080
O O12 0.651407 0.169920 0.125132
O O13 0.514960 0.143675 0.947364
O O14 0.555115 0.073213 0.709318
O O15 0.500000 0.000000 0.500000
O O16 0.238694 0.250000 0.233241
#
# Coordination Sequence:
#
# PCOD9465367 Si02
#       7
#     8   8   8   8   8   8   8
#     4  12  23  40  62  93 126 164 214 257 315 377
#     4  10  22  41  66  90 124 169 212 260 319 383
#     4  11  24  38  61  88 125 167 203 259 319 373
#     4  10  20  40  66  91 119 163 212 256 312 378
#     4  12  25  39  60  93 130 168 212 262 312 384
#     4  11  23  41  59  89 129 163 206 260 317 372
#     4  10  21  38  65  92 118 158 211 258 306 378
#
# _framework density 18.375816
#
# number of rings (size 3 to 8) (size 9 to 14) (size 15 to 20)
#    0.000    1.143    4.286    1.714    6.000    0.571 
#    2.571    0.000    0.000    0.000    0.000    0.000 
#    0.000    0.000    0.000    0.000    0.000    0.000 
#
# Total GULP energy -312444.432803 kJ/mol
# GULP energy per Si atom -5579.364871 kJ/mol
# Density = 1.833399 g / cm^3
# Si number density = 18.375816 Si / 1000 Ang^3
#
#
#
# Elastic Constant Matrix: (Units=GPa)
#
#
# Indices 1 2 3 4 5 6 
#
# 1 52.8679 29.7025 -1.2035 0.0000 0.0000 0.0000
# 2 29.7025 80.2026 37.8375 0.0000 0.0000 0.0000
# 3 -1.2035 37.8375 76.9251 0.0000 0.0000 0.0000
# 4 0.0000 0.0000 0.0000 26.4149 0.0000 0.0000
# 5 0.0000 0.0000 0.0000 0.0000 29.6774 0.0000
# 6 0.0000 0.0000 0.0000 0.0000 0.0000 9.1618
#
#
#
# Elastic Compliance Matrix: (Units=1/GPa)
#
#
# Indices 1 2 3 4 5 6 
#
# 1 0.026352 -0.012961 0.006788 0.000000 0.000000 0.000000
# 2 -0.012961 0.022611 -0.011325 0.000000 0.000000 0.000000
# 3 0.006788 -0.011325 0.018676 0.000000 0.000000 0.000000
# 4 0.000000 0.000000 0.000000 0.037857 0.000000 0.000000
# 5 0.000000 0.000000 0.000000 0.000000 0.033696 0.000000
# 6 0.000000 0.000000 0.000000 0.000000 0.000000 0.109149
#
#
# Mechanical properties :
#
#
# Convention : Reuss Voigt Hill
#
# Bulk Modulus (GPa) = 30.63517 38.07429 34.35473
# Shear Modulus (GPa) = 16.99412 22.62808 19.81110
#
# Velocity S-wave (km/s) = 3.04437 3.51295 3.28702
# Velocity P-wave (km/s) = 5.39122 6.10075 5.75692
#
# Compressibility (1/GPa) = 0.03264222
#
# Stress axis : x y z
#
# Youngs Moduli (GPa) = 37.94836 44.22564 53.54403
#
# Poissons Ratio (x) = 0.57323 -0.36344
# Poissons Ratio (y) = 0.49186 0.60637
# Poissons Ratio (z) = -0.25758 0.50084
#
# Static dielectric constant tensor:
#      x y z
#    x 1.641710 0.000000 0.000000 
#    y 0.000000 1.667960 0.000000 
#    z 0.000000 0.000000 1.605580 
# 
# From -- ./inp_files/6751.got.cif
#   From: 2010.05.17/outbox.cif.g08.bks.cpg/sg62_4_cif.got.tgz:6751.got - 2010.06.03 15:25:27.
