data_PCOD9465272
_publ_section_title
;
Structure prediction by ZEFSAII (Michael W. Deem and Ramdas Pophale) SiO2 
 PCOD9465272
Probable space group: P N M A
;
_chemical_formula_sum "Si O2"
_cell_formula_units_Z 40
_cell_length_a 8.610926
_cell_length_b 23.930896
_cell_length_c 8.835942
_cell_angle_alpha 90.000000
_cell_angle_beta 90.000000
_cell_angle_gamma 90.000000
_cell_volume 1820.797603
_symmetry_space_group_name_H-M "P N M A"
_symmetry_group_IT_number 62
_symmetry_cell_setting 'orthorhombic'
loop_
_space_group_symop_operation_xyz
x,y,z
1/2-x,-y,1/2+z
1/2+x,1/2-y,1/2-z
-x,1/2+y,-z
-x,-y,-z
1/2+x,y,1/2-z
1/2-x,1/2+y,1/2+z
x,1/2-y,z
loop_
_atom_site_type_symbol
_atom_site_label
_atom_site_fract_x
_atom_site_fract_y
_atom_site_fract_z
Si Si1 0.221189 0.521377 0.912915
Si Si2 0.484193 0.418881 0.183857
Si Si3 0.534126 0.686490 0.020136
Si Si4 0.658762 0.186615 0.712667
Si Si5 0.556875 0.086567 0.519581
O O1 0.392194 0.545878 0.912512
O O2 0.193740 0.456009 0.934278
O O3 0.146734 0.540010 0.751101
O O4 0.105056 0.551885 0.032202
O O5 0.436784 0.363311 0.095963
O O6 0.563554 0.399195 0.342028
O O7 0.537060 0.750000 0.957386
O O8 0.372229 0.677390 0.109575
O O9 0.667576 0.683506 0.148202
O O10 0.604202 0.250000 0.682660
O O11 0.565108 0.140610 0.620331
#
# Coordination Sequence:
#
# PCOD9465272 Si02
#       5
#     8   8   8   8   8
#     4   9  21  38  61  90 125 155 203 244 310 351
#     4  10  20  39  62  89 118 159 203 248 291 374
#     4  10  23  40  62  90 122 160 207 253 305 361
#     4  10  22  40  60  87 120 159 200 249 305 360
#     4   9  21  39  62  86 127 156 198 253 297 366
#
# _framework density 21.968394
#
# number of rings (size 3 to 8) (size 9 to 14) (size 15 to 20)
#    1.200    1.200    0.000    1.200    2.800    4.000 
#    0.000    4.000    0.000    0.000    0.000    0.000 
#    0.000    0.000    0.000    0.000    0.000    0.000 
#
# Total GULP energy -223145.227430 kJ/mol
# GULP energy per Si atom -5578.630686 kJ/mol
# Density = 2.191839 g / cm^3
# Si number density = 21.968394 Si / 1000 Ang^3
#
#
#
# Elastic Constant Matrix: (Units=GPa)
#
#
# Indices 1 2 3 4 5 6 
#
# 1 41.1130 23.7541 4.2735 0.0000 0.0000 0.0000
# 2 23.7541 133.2041 62.1589 0.0000 0.0000 0.0000
# 3 4.2735 62.1589 63.0228 0.0000 0.0000 0.0000
# 4 0.0000 0.0000 0.0000 39.2994 0.0000 0.0000
# 5 0.0000 0.0000 0.0000 0.0000 25.6794 0.0000
# 6 0.0000 0.0000 0.0000 0.0000 0.0000 28.6012
#
#
#
# Elastic Compliance Matrix: (Units=1/GPa)
#
#
# Indices 1 2 3 4 5 6 
#
# 1 0.028159 -0.007653 0.005638 0.000000 0.000000 0.000000
# 2 -0.007653 0.015988 -0.015250 0.000000 0.000000 0.000000
# 3 0.005638 -0.015250 0.030526 0.000000 0.000000 0.000000
# 4 0.000000 0.000000 0.000000 0.025446 0.000000 0.000000
# 5 0.000000 0.000000 0.000000 0.000000 0.038942 0.000000
# 6 0.000000 0.000000 0.000000 0.000000 0.000000 0.034964
#
#
# Mechanical properties :
#
#
# Convention : Reuss Voigt Hill
#
# Bulk Modulus (GPa) = 24.91033 46.41254 35.66144
# Shear Modulus (GPa) = 22.52911 28.52621 25.52766
#
# Velocity S-wave (km/s) = 3.20585 3.60740 3.41254
# Velocity P-wave (km/s) = 5.00671 6.20676 5.63875
#
# Compressibility (1/GPa) = 0.04014399
#
# Stress axis : x y z
#
# Youngs Moduli (GPa) = 35.51312 62.54514 32.75864
#
# Poissons Ratio (x) = 0.47863 -0.18470
# Poissons Ratio (y) = 0.27177 0.49958
# Poissons Ratio (z) = -0.20023 0.95384
#
# Static dielectric constant tensor:
#      x y z
#    x 1.909740 0.000000 0.000000 
#    y 0.000000 1.760900 0.000000 
#    z 0.000000 0.000000 1.816960 
# 
# From -- ./inp_files/4389.got.cif
#   From: 2010.05.17/outbox.cif.g08.bks.cpg/sg62_3_cif.got.tgz:4389.got - 2010.06.03 15:25:27.
