data_PCOD9465452
_publ_section_title
;
Structure prediction by ZEFSAII (Michael W. Deem and Ramdas Pophale) SiO2 
 PCOD9465452
Probable space group: P N M A
;
_chemical_formula_sum "Si O2"
_cell_formula_units_Z 40
_cell_length_a 5.143429
_cell_length_b 14.299834
_cell_length_c 28.219446
_cell_angle_alpha 90.000000
_cell_angle_beta 90.000000
_cell_angle_gamma 90.000000
_cell_volume 2075.545358
_symmetry_space_group_name_H-M "P N M A"
_symmetry_group_IT_number 62
_symmetry_cell_setting 'orthorhombic'
loop_
_space_group_symop_operation_xyz
x,y,z
1/2-x,-y,1/2+z
1/2+x,1/2-y,1/2-z
-x,1/2+y,-z
-x,-y,-z
1/2+x,y,1/2-z
1/2-x,1/2+y,1/2+z
x,1/2-y,z
loop_
_atom_site_type_symbol
_atom_site_label
_atom_site_fract_x
_atom_site_fract_y
_atom_site_fract_z
Si Si1 0.635308 0.639929 0.219268
Si Si2 0.668940 0.988616 0.647105
Si Si3 0.469518 0.856934 0.913720
Si Si4 0.374835 0.858639 0.717703
Si Si5 0.513907 0.449006 0.450233
O O1 0.347519 0.621867 0.239297
O O2 0.655062 0.750000 0.207174
O O3 0.716219 0.573724 0.176401
O O4 0.893705 0.914458 0.633245
O O5 0.457746 0.930851 0.677217
O O6 0.551284 0.014143 0.595563
O O7 0.520822 0.750000 0.902818
O O8 0.290365 0.096697 0.059797
O O9 0.211674 0.871112 0.945563
O O10 0.094517 0.872093 0.741482
O O11 0.395634 0.750000 0.701521
O O12 0.500000 0.500000 0.500000
#
# Coordination Sequence:
#
# PCOD9465452 Si02
#       5
#     8   8   8   8   8
#     4  10  22  39  60  86 119 159 208 255 302 356
#     4  10  23  35  65  84 122 155 201 244 302 364
#     4  10  22  38  63  91 120 157 194 244 305 370
#     4  10  21  33  49  81 120 153 189 228 277 352
#     4  10  23  40  62  86 124 159 207 251 297 365
#
# _framework density 19.272044000000001
#
# number of rings (size 3 to 8) (size 9 to 14) (size 15 to 20)
#    1.200    0.800    0.000    3.000    5.600    0.000 
#    0.000    2.000    0.000    0.000    0.000    0.000 
#    0.000    0.000    0.000    0.000    0.000    0.000 
#
# Total GULP energy -223284.411797 kJ/mol
# GULP energy per Si atom -5582.110295 kJ/mol
# Density = 1.922818 g / cm^3
# Si number density = 19.272044 Si / 1000 Ang^3
#
#
#
# Elastic Constant Matrix: (Units=GPa)
#
#
# Indices 1 2 3 4 5 6 
#
# 1 48.3872 -22.3772 -0.1607 0.0000 0.0000 0.0000
# 2 -22.3772 60.3320 41.6719 0.0000 0.0000 0.0000
# 3 -0.1607 41.6719 106.5624 0.0000 0.0000 0.0000
# 4 0.0000 0.0000 0.0000 14.9767 0.0000 0.0000
# 5 0.0000 0.0000 0.0000 0.0000 20.5157 0.0000
# 6 0.0000 0.0000 0.0000 0.0000 0.0000 -1.5795
#
#
#
# Elastic Compliance Matrix: (Units=1/GPa)
#
#
# Indices 1 2 3 4 5 6 
#
# 1 0.026969 0.013666 -0.005304 0.000000 0.000000 0.000000
# 2 0.013666 0.029634 -0.011568 0.000000 0.000000 0.000000
# 3 -0.005304 -0.011568 0.013900 0.000000 0.000000 0.000000
# 4 0.000000 0.000000 0.000000 0.066770 0.000000 0.000000
# 5 0.000000 0.000000 0.000000 0.000000 0.048743 0.000000
# 6 0.000000 0.000000 0.000000 0.000000 0.000000 -0.633094
#
#
# Mechanical properties :
#
#
# Convention : Reuss Voigt Hill
#
# Bulk Modulus (GPa) = 15.60257 28.17217 21.88737
# Shear Modulus (GPa) = -11.92455 19.85908 3.96726
#
# Velocity S-wave (km/s) = -2.49016 3.21356 1.43632
# Velocity P-wave (km/s) = 0.39288 5.33097 3.75931
#
# Compressibility (1/GPa) = 0.06409200
#
# Stress axis : x y z
#
# Youngs Moduli (GPa) = 37.07953 33.74533 71.94321
#
# Poissons Ratio (x) = -0.46117 0.38155
# Poissons Ratio (y) = -0.50673 0.83223
# Poissons Ratio (z) = 0.19665 0.39036
#
# Static dielectric constant tensor:
#      x y z
#    x 1.695080 0.000000 0.000000 
#    y 0.000000 1.661250 0.000000 
#    z 0.000000 0.000000 1.675370 
# 
# From -- ./inp_files/30322.got.cif
#   From: 2010.05.17/outbox.cif.g08.bks.cpg/sg62_16_cif.got.tgz:30322.got - 2010.06.03 15:25:27.
