data_PCOD9465556
_publ_section_title
;
Structure prediction by ZEFSAII (Michael W. Deem and Ramdas Pophale) SiO2 
 PCOD9465556
Probable space group: P N M A
;
_chemical_formula_sum "Si O2"
_cell_formula_units_Z 64
_cell_length_a 9.959251
_cell_length_b 15.157889
_cell_length_c 19.937232
_cell_angle_alpha 90.000000
_cell_angle_beta 90.000000
_cell_angle_gamma 90.000000
_cell_volume 3009.748890
_symmetry_space_group_name_H-M "P N M A"
_symmetry_group_IT_number 62
_symmetry_cell_setting 'orthorhombic'
loop_
_space_group_symop_operation_xyz
x,y,z
1/2-x,-y,1/2+z
1/2+x,1/2-y,1/2-z
-x,1/2+y,-z
-x,-y,-z
1/2+x,y,1/2-z
1/2-x,1/2+y,1/2+z
x,1/2-y,z
loop_
_atom_site_type_symbol
_atom_site_label
_atom_site_fract_x
_atom_site_fract_y
_atom_site_fract_z
Si Si1 0.099095 0.142507 0.690206
Si Si2 0.409299 0.644502 0.686395
Si Si3 0.106229 0.351372 0.915426
Si Si4 0.599098 0.857493 0.309796
Si Si5 0.090700 0.855498 0.686394
Si Si6 0.606232 0.851372 0.084575
Si Si7 0.404010 0.939573 0.545555
Si Si8 0.095990 0.939573 0.545554
O O1 0.108829 0.250000 0.691478
O O2 0.249999 0.108156 0.696431
O O3 1.000000 0.116864 0.750001
O O4 0.024470 0.113189 0.622274
O O5 0.427506 0.750000 0.675141
O O6 0.499999 0.619265 0.750000
O O7 0.250000 0.630477 0.698918
O O8 0.446517 0.591445 0.618993
O O9 0.112895 0.250000 0.893648
O O10 0.249998 0.393623 0.895474
O O11 0.975527 0.386811 0.877727
O O12 0.099333 0.355700 0.995190
O O13 0.608831 0.750000 0.308523
O O14 0.072493 0.750000 0.675140
O O15 0.053483 0.908554 0.618992
O O16 0.612898 0.750000 0.106353
O O17 0.599334 0.855700 0.004811
O O18 0.250000 0.973336 0.548798
O O19 0.500000 0.000000 0.500000
O O20 0.000000 0.000000 0.500000
#
# Coordination Sequence:
#
# PCOD9465556 Si02
#       8
#     8   8   8   8   8   8   8   8
#     4   9  16  26  42  66  95 125 159 202 249 295
#     4   9  18  35  60  88 115 145 186 236 286 335
#     4   9  17  31  51  72  95 129 174 220 266 318
#     4   9  16  26  42  66  95 125 159 202 249 295
#     4   9  18  35  60  88 115 145 186 236 286 335
#     4   9  17  31  51  72  95 129 174 220 266 318
#     4  10  21  36  54  78 110 145 178 218 273 336
#     4  10  21  36  54  78 110 145 178 218 273 336
#
# _framework density 21.264233000000001
#
# number of rings (size 3 to 8) (size 9 to 14) (size 15 to 20)
#    0.000    2.750    0.000    1.500    0.000    8.000 
#    0.000    1.250    0.000   10.500    0.000    0.000 
#    0.000    0.000    0.000    0.000    0.000    0.000 
#
# Total GULP energy -356680.066959 kJ/mol
# GULP energy per Si atom -5573.126046 kJ/mol
# Density = 2.121583 g / cm^3
# Si number density = 21.264233 Si / 1000 Ang^3
#
#
#
# Elastic Constant Matrix: (Units=GPa)
#
#
# Indices 1 2 3 4 5 6 
#
# 1 157.6970 35.8945 111.4008 0.0000 0.0000 0.0000
# 2 35.8945 54.9677 32.9384 0.0000 0.0000 0.0000
# 3 111.4008 32.9384 192.7807 0.0000 0.0000 0.0000
# 4 0.0000 0.0000 0.0000 25.3207 0.0000 0.0000
# 5 0.0000 0.0000 0.0000 0.0000 39.0156 0.0000
# 6 0.0000 0.0000 0.0000 0.0000 0.0000 11.4618
#
#
#
# Elastic Compliance Matrix: (Units=1/GPa)
#
#
# Indices 1 2 3 4 5 6 
#
# 1 0.011421 -0.003903 -0.005933 0.000000 0.000000 0.000000
# 2 -0.003903 0.021601 -0.001436 0.000000 0.000000 0.000000
# 3 -0.005933 -0.001436 0.008861 0.000000 0.000000 0.000000
# 4 0.000000 0.000000 0.000000 0.039493 0.000000 0.000000
# 5 0.000000 0.000000 0.000000 0.000000 0.025631 0.000000
# 6 0.000000 0.000000 0.000000 0.000000 0.000000 0.087246
#
#
# Mechanical properties :
#
#
# Convention : Reuss Voigt Hill
#
# Bulk Modulus (GPa) = 51.70444 85.10141 68.40292
# Shear Modulus (GPa) = 22.39720 30.17372 26.28546
#
# Velocity S-wave (km/s) = 3.24895 3.77103 3.51969
# Velocity P-wave (km/s) = 6.20018 7.68562 6.98251
#
# Compressibility (1/GPa) = 0.01934070
#
# Stress axis : x y z
#
# Youngs Moduli (GPa) = 87.56094 46.29367 112.85628
#
# Poissons Ratio (x) = 0.18067 0.66955
# Poissons Ratio (y) = 0.34172 0.16201
# Poissons Ratio (z) = 0.51948 0.06646
#
# Static dielectric constant tensor:
#      x y z
#    x 1.807470 0.000000 0.000000 
#    y 0.000000 1.849910 0.000000 
#    z 0.000000 0.000000 1.759940 
# 
# From -- ./inp_files/22588.got.cif
#   From: 2010.05.17/outbox.cif.g08.bks.cpg/sg62_12_cif.got.tgz:22588.got - 2010.06.03 15:25:27.
