data_PCOD9465477
_publ_section_title
;
Structure prediction by ZEFSAII (Michael W. Deem and Ramdas Pophale) SiO2 
 PCOD9465477
Probable space group: P N M A
;
_chemical_formula_sum "Si O2"
_cell_formula_units_Z 56
_cell_length_a 5.829030
_cell_length_b 22.113377
_cell_length_c 19.799830
_cell_angle_alpha 90.000000
_cell_angle_beta 90.000000
_cell_angle_gamma 90.000000
_cell_volume 2552.188938
_symmetry_space_group_name_H-M "P N M A"
_symmetry_group_IT_number 62
_symmetry_cell_setting 'orthorhombic'
loop_
_space_group_symop_operation_xyz
x,y,z
1/2-x,-y,1/2+z
1/2+x,1/2-y,1/2-z
-x,1/2+y,-z
-x,-y,-z
1/2+x,y,1/2-z
1/2-x,1/2+y,1/2+z
x,1/2-y,z
loop_
_atom_site_type_symbol
_atom_site_label
_atom_site_fract_x
_atom_site_fract_y
_atom_site_fract_z
Si Si1 0.266817 0.589889 0.610046
Si Si2 0.130151 0.153615 0.912320
Si Si3 0.526714 0.681357 0.269150
Si Si4 0.927673 0.318716 0.287788
Si Si5 0.523042 0.376594 0.984610
Si Si6 0.403606 0.031763 0.567471
Si Si7 0.593693 0.815816 0.555500
O O1 0.103824 0.624912 0.661571
O O2 0.150053 0.591208 0.536081
O O3 0.336495 0.520562 0.619916
O O4 0.491473 0.632075 0.602248
O O5 0.012639 0.183469 0.849262
O O6 0.401467 0.157566 0.922934
O O7 0.080427 0.081800 0.906139
O O8 0.033615 0.178742 0.983038
O O9 0.780623 0.653883 0.255512
O O10 0.538387 0.750000 0.240774
O O11 0.684753 0.322619 0.245095
O O12 0.920367 0.250000 0.317445
O O13 0.691977 0.426781 0.955811
O O14 0.650223 0.329305 0.032918
O O15 0.500000 0.000000 0.500000
O O16 0.561125 0.750000 0.585754
#
# Coordination Sequence:
#
# PCOD9465477 Si02
#       7
#     8   8   8   8   8   8   8
#     4  11  22  38  62  87 121 158 212 251 314 375
#     4  10  22  38  59  86 123 160 205 254 313 367
#     4  10  23  42  65  89 121 168 215 257 309 372
#     4  10  24  45  66  89 123 168 215 264 318 371
#     4  10  21  35  60  91 123 160 196 254 314 385
#     4  11  20  38  59  92 123 163 199 248 317 380
#     4  10  21  34  56  91 122 151 195 257 318 376
#
# _framework density 21.941952000000001
#
# number of rings (size 3 to 8) (size 9 to 14) (size 15 to 20)
#    0.000    1.714    4.286    1.286    6.000    3.429 
#    0.000    1.429    0.000    0.000    0.000    0.000 
#    0.000    0.000    0.000    0.000    0.000    0.000 
#
# Total GULP energy -312068.507408 kJ/mol
# GULP energy per Si atom -5572.651918 kJ/mol
# Density = 2.189201 g / cm^3
# Si number density = 21.941952 Si / 1000 Ang^3
#
#
#
# Elastic Constant Matrix: (Units=GPa)
#
#
# Indices 1 2 3 4 5 6 
#
# 1 97.7232 3.2663 11.0580 0.0000 0.0000 0.0000
# 2 3.2663 89.1124 1.8572 0.0000 0.0000 0.0000
# 3 11.0580 1.8572 30.9231 0.0000 0.0000 0.0000
# 4 0.0000 0.0000 0.0000 26.4838 0.0000 0.0000
# 5 0.0000 0.0000 0.0000 0.0000 29.5530 0.0000
# 6 0.0000 0.0000 0.0000 0.0000 0.0000 10.6876
#
#
#
# Elastic Compliance Matrix: (Units=1/GPa)
#
#
# Indices 1 2 3 4 5 6 
#
# 1 0.010673 -0.000312 -0.003798 0.000000 0.000000 0.000000
# 2 -0.000312 0.011245 -0.000564 0.000000 0.000000 0.000000
# 3 -0.003798 -0.000564 0.033730 0.000000 0.000000 0.000000
# 4 0.000000 0.000000 0.000000 0.037759 0.000000 0.000000
# 5 0.000000 0.000000 0.000000 0.000000 0.033838 0.000000
# 6 0.000000 0.000000 0.000000 0.000000 0.000000 0.093567
#
#
# Mechanical properties :
#
#
# Convention : Reuss Voigt Hill
#
# Bulk Modulus (GPa) = 21.59783 27.79127 24.69455
# Shear Modulus (GPa) = 20.35890 26.78335 23.57113
#
# Velocity S-wave (km/s) = 3.04937 3.49756 3.28113
# Velocity P-wave (km/s) = 4.71834 5.38553 5.06294
#
# Compressibility (1/GPa) = 0.04630095
#
# Stress axis : x y z
#
# Youngs Moduli (GPa) = 93.69281 88.92861 29.64692
#
# Poissons Ratio (x) = 0.02775 0.11260
# Poissons Ratio (y) = 0.02924 0.01671
# Poissons Ratio (z) = 0.35584 0.05013
#
# Static dielectric constant tensor:
#      x y z
#    x 1.948130 0.000000 0.000000 
#    y 0.000000 1.815270 0.000000 
#    z 0.000000 0.000000 1.830900 
# 
# From -- ./inp_files/25376.got.cif
#   From: 2010.05.17/outbox.cif.g08.bks.cpg/sg62_13_cif.got.tgz:25376.got - 2010.06.03 15:25:27.
