data_PCOD9465964
_publ_section_title
;
Structure prediction by ZEFSAII (Michael W. Deem and Ramdas Pophale) SiO2 
 PCOD9465964
Probable space group: P N M A
;
_chemical_formula_sum "Si O2"
_cell_formula_units_Z 56
_cell_length_a 21.580971
_cell_length_b 8.736385
_cell_length_c 14.945045
_cell_angle_alpha 90.000000
_cell_angle_beta 90.000000
_cell_angle_gamma 90.000000
_cell_volume 2817.733872
_symmetry_space_group_name_H-M "P N M A"
_symmetry_group_IT_number 62
_symmetry_cell_setting 'orthorhombic'
loop_
_space_group_symop_operation_xyz
x,y,z
1/2-x,-y,1/2+z
1/2+x,1/2-y,1/2-z
-x,1/2+y,-z
-x,-y,-z
1/2+x,y,1/2-z
1/2-x,1/2+y,1/2+z
x,1/2-y,z
loop_
_atom_site_type_symbol
_atom_site_label
_atom_site_fract_x
_atom_site_fract_y
_atom_site_fract_z
Si Si1 0.377863 0.565701 0.601124
Si Si2 0.671365 0.066363 0.071089
Si Si3 0.487218 0.932767 0.727056
Si Si4 0.534536 0.568123 0.085784
Si Si5 0.759901 0.934009 0.390271
Si Si6 0.220318 0.433646 0.810682
Si Si7 0.910443 0.933750 0.096659
O O1 0.372515 0.750000 0.601274
O O2 0.421162 0.520102 0.683845
O O3 0.309628 0.496832 0.603674
O O4 0.410701 0.522238 0.507649
O O5 0.664698 0.250000 0.071874
O O6 0.604978 0.991645 0.086551
O O7 0.721127 0.016060 0.145219
O O8 0.699393 0.016109 0.974974
O O9 0.486947 0.750000 0.738052
O O10 0.496477 0.011544 0.822255
O O11 0.539198 0.981680 0.656336
O O12 0.533042 0.750000 0.081595
O O13 0.500000 0.500000 0.000000
O O14 0.757248 0.750000 0.394069
O O15 0.786630 0.977241 0.293303
O O16 0.230184 0.250000 0.815457
O O17 0.158041 0.468388 0.865288
O O18 0.919906 0.750000 0.103498
#
# Coordination Sequence:
#
# PCOD9465964 Si02
#       7
#     8   8   8   8   8   8   8
#     4  10  21  39  62  91 127 167 211 260 313 376
#     4  11  23  41  64  94 128 163 206 260 316 374
#     4  11  24  41  63  94 128 166 211 262 319 381
#     4  12  27  47  69  93 125 167 213 263 316 379
#     4  10  22  37  60  91 123 160 202 254 313 375
#     4  10  21  39  62  90 125 167 214 260 316 378
#     4  10  21  38  62  91 125 168 215 266 320 376
#
# _framework density 19.874127000000001
#
# number of rings (size 3 to 8) (size 9 to 14) (size 15 to 20)
#    0.000    1.429    1.429    3.429    2.000    5.714 
#    0.000    0.000    0.000    0.000    0.000    0.000 
#    0.000    0.000    0.000    0.000    0.000    0.000 
#
# Total GULP energy -313208.548608 kJ/mol
# GULP energy per Si atom -5593.009797 kJ/mol
# Density = 1.982889 g / cm^3
# Si number density = 19.874127 Si / 1000 Ang^3
#
#
#
# Elastic Constant Matrix: (Units=GPa)
#
#
# Indices 1 2 3 4 5 6 
#
# 1 38.6343 14.5165 -4.9681 0.0000 0.0000 0.0000
# 2 14.5165 43.0323 16.3930 0.0000 0.0000 0.0000
# 3 -4.9681 16.3930 99.7592 0.0000 0.0000 0.0000
# 4 0.0000 0.0000 0.0000 27.5287 0.0000 0.0000
# 5 0.0000 0.0000 0.0000 0.0000 27.2708 0.0000
# 6 0.0000 0.0000 0.0000 0.0000 0.0000 34.1900
#
#
#
# Elastic Compliance Matrix: (Units=1/GPa)
#
#
# Indices 1 2 3 4 5 6 
#
# 1 0.030714 -0.011674 0.003448 0.000000 0.000000 0.000000
# 2 -0.011674 0.029228 -0.005384 0.000000 0.000000 0.000000
# 3 0.003448 -0.005384 0.011081 0.000000 0.000000 0.000000
# 4 0.000000 0.000000 0.000000 0.036326 0.000000 0.000000
# 5 0.000000 0.000000 0.000000 0.000000 0.036669 0.000000
# 6 0.000000 0.000000 0.000000 0.000000 0.000000 0.029248
#
#
# Mechanical properties :
#
#
# Convention : Reuss Voigt Hill
#
# Bulk Modulus (GPa) = 22.83073 25.92317 24.37695
# Shear Modulus (GPa) = 23.24640 28.16354 25.70497
#
# Velocity S-wave (km/s) = 3.42377 3.76852 3.60027
# Velocity P-wave (km/s) = 5.20982 5.65753 5.43828
#
# Compressibility (1/GPa) = 0.04380062
#
# Stress axis : x y z
#
# Youngs Moduli (GPa) = 32.55870 34.21410 90.24765
#
# Poissons Ratio (x) = 0.39943 -0.31117
# Poissons Ratio (y) = 0.38011 0.48592
# Poissons Ratio (z) = -0.11226 0.18422
#
# Static dielectric constant tensor:
#      x y z
#    x 1.658320 0.000000 0.000000 
#    y 0.000000 1.663180 0.000000 
#    z 0.000000 0.000000 1.701490 
# 
# From -- ./inp_files/20260.got.cif
#   From: 2010.05.17/outbox.cif.g08.bks.cpg/sg62_11_cif.got.tgz:20260.got - 2010.06.03 15:25:27.
