data_PCOD9465757
_publ_section_title
;
Structure prediction by ZEFSAII (Michael W. Deem and Ramdas Pophale) SiO2 
 PCOD9465757
Probable space group: P N M A
;
_chemical_formula_sum "Si O2"
_cell_formula_units_Z 64
_cell_length_a 15.216835
_cell_length_b 8.877088
_cell_length_c 23.407160
_cell_angle_alpha 90.000000
_cell_angle_beta 90.000000
_cell_angle_gamma 90.000000
_cell_volume 3161.866872
_symmetry_space_group_name_H-M "P N M A"
_symmetry_group_IT_number 62
_symmetry_cell_setting 'orthorhombic'
loop_
_space_group_symop_operation_xyz
x,y,z
1/2-x,-y,1/2+z
1/2+x,1/2-y,1/2-z
-x,1/2+y,-z
-x,-y,-z
1/2+x,y,1/2-z
1/2-x,1/2+y,1/2+z
x,1/2-y,z
loop_
_atom_site_type_symbol
_atom_site_label
_atom_site_fract_x
_atom_site_fract_y
_atom_site_fract_z
Si Si1 0.364354 0.429056 0.750635
Si Si2 0.072498 0.569370 0.593695
Si Si3 0.951657 0.070311 0.211197
Si Si4 0.370447 0.069256 0.519341
Si Si5 0.324104 0.569741 0.996694
Si Si6 0.035183 0.429213 0.910017
Si Si7 0.302331 0.068880 0.196747
Si Si8 0.874305 0.568632 0.628681
O O1 0.367309 0.250000 0.749118
O O2 0.459403 0.495061 0.734393
O O3 0.289777 0.489867 0.708100
O O4 0.342496 0.487989 0.814335
O O5 0.073185 0.750000 0.589839
O O6 0.097984 0.502255 0.532829
O O7 0.146432 0.522669 0.639439
O O8 0.976326 0.528148 0.616837
O O9 0.962947 0.250000 0.212841
O O10 0.869390 0.033045 0.251565
O O11 0.937591 0.013981 0.147015
O O12 0.375372 0.250000 0.509277
O O13 0.268910 0.027510 0.524756
O O14 0.433692 0.036537 0.572773
O O15 0.409670 0.985234 0.464371
O O16 0.334187 0.750000 0.998780
O O17 0.324690 0.528012 0.929870
O O18 0.043837 0.250000 0.902710
O O19 0.290019 0.250000 0.195542
O O20 0.868599 0.750000 0.636970
#
# Coordination Sequence:
#
# PCOD9465757 Si02
#       8
#     8   8   8   8   8   8   8   8
#     4  12  26  41  63  95 128 160 203 261 313 364
#     4  10  21  40  63  88 119 156 204 252 299 361
#     4  11  23  43  68  91 123 166 210 250 307 378
#     4   9  20  39  57  84 121 162 202 244 301 365
#     4  10  22  37  61  90 119 157 203 252 305 362
#     4  10  21  37  59  87 124 158 200 253 303 357
#     4  10  23  43  65  89 122 167 208 250 303 372
#     4  10  21  42  64  86 121 163 204 247 303 372
#
# _framework density 20.241206999999999
#
# number of rings (size 3 to 8) (size 9 to 14) (size 15 to 20)
#    0.000    1.750    1.250    2.250    3.500    3.500 
#    0.000    0.000    0.000    0.000    0.000    0.000 
#    0.000    0.000    0.000    0.000    0.000    0.000 
#
# Total GULP energy -357778.652298 kJ/mol
# GULP energy per Si atom -5590.291442 kJ/mol
# Density = 2.019514 g / cm^3
# Si number density = 20.241207 Si / 1000 Ang^3
#
#
#
# Elastic Constant Matrix: (Units=GPa)
#
#
# Indices 1 2 3 4 5 6 
#
# 1 56.5804 14.0221 -16.3843 0.0000 0.0000 0.0000
# 2 14.0221 25.9351 4.6493 0.0000 0.0000 0.0000
# 3 -16.3843 4.6493 43.6132 0.0000 0.0000 0.0000
# 4 0.0000 0.0000 0.0000 26.5730 0.0000 0.0000
# 5 0.0000 0.0000 0.0000 0.0000 -24.6696 0.0000
# 6 0.0000 0.0000 0.0000 0.0000 0.0000 13.6893
#
#
#
# Elastic Compliance Matrix: (Units=1/GPa)
#
#
# Indices 1 2 3 4 5 6 
#
# 1 0.024600 -0.015248 0.010867 0.000000 0.000000 0.000000
# 2 -0.015248 0.048761 -0.010926 0.000000 0.000000 0.000000
# 3 0.010867 -0.010926 0.028176 0.000000 0.000000 0.000000
# 4 0.000000 0.000000 0.000000 0.037632 0.000000 0.000000
# 5 0.000000 0.000000 0.000000 0.000000 -0.040536 0.000000
# 6 0.000000 0.000000 0.000000 0.000000 0.000000 0.073050
#
#
# Mechanical properties :
#
#
# Convention : Reuss Voigt Hill
#
# Bulk Modulus (GPa) = 14.10015 14.52253 14.31134
# Shear Modulus (GPa) = 22.12994 11.37465 16.75229
#
# Velocity S-wave (km/s) = 3.31011 2.37313 2.87998
# Velocity P-wave (km/s) = 4.64654 3.83397 4.25967
#
# Compressibility (1/GPa) = 0.07092121
#
# Stress axis : x y z
#
# Youngs Moduli (GPa) = 40.65100 20.50833 35.49119
#
# Poissons Ratio (x) = 0.31271 -0.38568
# Poissons Ratio (y) = 0.61985 0.38779
# Poissons Ratio (z) = -0.44175 0.22408
#
# Static dielectric constant tensor:
#      x y z
#    x 1.719130 0.000000 0.000000 
#    y 0.000000 1.672370 0.000000 
#    z 0.000000 0.000000 1.705160 
# 
# From -- ./inp_files/29908.got.cif
#   From: 2010.05.17/outbox.cif.g08.bks.cpg/sg62_15_cif.got.tgz:29908.got - 2010.06.03 15:25:27.
