data_PCOD9465883
_publ_section_title
;
Structure prediction by ZEFSAII (Michael W. Deem and Ramdas Pophale) SiO2 
 PCOD9465883
Probable space group: P N M A
;
_chemical_formula_sum "Si O2"
_cell_formula_units_Z 64
_cell_length_a 14.947526
_cell_length_b 8.513910
_cell_length_c 22.931976
_cell_angle_alpha 90.000000
_cell_angle_beta 90.000000
_cell_angle_gamma 90.000000
_cell_volume 2918.366632
_symmetry_space_group_name_H-M "P N M A"
_symmetry_group_IT_number 62
_symmetry_cell_setting 'orthorhombic'
loop_
_space_group_symop_operation_xyz
x,y,z
1/2-x,-y,1/2+z
1/2+x,1/2-y,1/2-z
-x,1/2+y,-z
-x,-y,-z
1/2+x,y,1/2-z
1/2-x,1/2+y,1/2+z
x,1/2-y,z
loop_
_atom_site_type_symbol
_atom_site_label
_atom_site_fract_x
_atom_site_fract_y
_atom_site_fract_z
Si Si1 0.299081 0.564203 0.810579
Si Si2 0.132664 0.563350 0.628614
Si Si3 0.071420 0.560802 0.213834
Si Si4 0.359700 0.932088 0.469259
Si Si5 0.315372 0.565862 0.011347
Si Si6 0.044029 0.562331 0.081328
Si Si7 0.370896 0.936548 0.255269
Si Si8 0.934511 0.558062 0.589645
O O1 0.291416 0.750000 0.816863
O O2 0.354925 0.521990 0.752763
O O3 0.200886 0.495308 0.801988
O O4 0.360536 0.504278 0.863538
O O5 0.131215 0.750000 0.636075
O O6 0.192940 0.518859 0.573259
O O7 0.157047 0.488064 0.690219
O O8 0.032640 0.507602 0.609916
O O9 0.077932 0.750000 0.221977
O O10 0.080050 0.528828 0.145312
O O11 0.972193 0.507590 0.233461
O O12 0.334305 0.750000 0.463603
O O13 0.437392 0.968182 0.422769
O O14 0.271528 0.036385 0.471608
O O15 0.408288 0.963864 0.531207
O O16 0.325122 0.750000 0.022635
O O17 0.399854 0.506571 0.973720
O O18 0.055779 0.750000 0.069190
O O19 0.372561 0.750000 0.258240
O O20 0.934938 0.750000 0.589218
#
# Coordination Sequence:
#
# PCOD9465883 Si02
#       8
#     8   8   8   8   8   8   8   8
#     4  11  23  41  64  92 125 163 206 255 305 363
#     4  11  22  42  65  88 119 156 201 253 301 358
#     4  10  22  41  64  91 123 161 206 253 306 366
#     4  10  21  38  59  88 119 154 199 247 297 356
#     4  11  23  39  61  89 120 156 197 246 304 363
#     4   9  20  39  61  83 118 158 197 246 298 352
#     4  11  24  41  63  93 126 164 205 252 308 368
#     4   9  21  41  63  88 120 155 198 249 303 357
#
# _framework density 21.930074999999999
#
# number of rings (size 3 to 8) (size 9 to 14) (size 15 to 20)
#    0.000    1.750    1.250    2.250    3.500    1.500 
#    0.000    3.750    0.000    0.000    0.000    0.000 
#    0.000    0.000    0.000    0.000    0.000    0.000 
#
# Total GULP energy -357884.710444 kJ/mol
# GULP energy per Si atom -5591.948601 kJ/mol
# Density = 2.188016 g / cm^3
# Si number density = 21.930075 Si / 1000 Ang^3
#
#
#
# Elastic Constant Matrix: (Units=GPa)
#
#
# Indices 1 2 3 4 5 6 
#
# 1 65.2644 5.3167 -11.7053 0.0000 0.0000 0.0000
# 2 5.3167 20.7908 -3.7138 0.0000 0.0000 0.0000
# 3 -11.7053 -3.7138 44.8893 0.0000 0.0000 0.0000
# 4 0.0000 0.0000 0.0000 16.8821 0.0000 0.0000
# 5 0.0000 0.0000 0.0000 0.0000 10.5600 0.0000
# 6 0.0000 0.0000 0.0000 0.0000 0.0000 30.6239
#
#
#
# Elastic Compliance Matrix: (Units=1/GPa)
#
#
# Indices 1 2 3 4 5 6 
#
# 1 0.016316 -0.003464 0.003968 0.000000 0.000000 0.000000
# 2 -0.003464 0.049555 0.003197 0.000000 0.000000 0.000000
# 3 0.003968 0.003197 0.023576 0.000000 0.000000 0.000000
# 4 0.000000 0.000000 0.000000 0.059234 0.000000 0.000000
# 5 0.000000 0.000000 0.000000 0.000000 0.094697 0.000000
# 6 0.000000 0.000000 0.000000 0.000000 0.000000 0.032654
#
#
# Mechanical properties :
#
#
# Convention : Reuss Voigt Hill
#
# Bulk Modulus (GPa) = 10.32529 12.30438 11.31484
# Shear Modulus (GPa) = 16.61605 21.01632 18.81619
#
# Velocity S-wave (km/s) = 2.75559 3.09905 2.93236
# Velocity P-wave (km/s) = 3.85265 4.29284 4.07868
#
# Compressibility (1/GPa) = 0.09684955
#
# Stress axis : x y z
#
# Youngs Moduli (GPa) = 61.28904 20.17959 42.41566
#
# Poissons Ratio (x) = 0.06989 -0.16831
# Poissons Ratio (y) = 0.21228 -0.13559
# Poissons Ratio (z) = -0.24320 -0.06451
#
# Static dielectric constant tensor:
#      x y z
#    x 1.828450 0.000000 0.000000 
#    y 0.000000 1.747190 0.000000 
#    z 0.000000 0.000000 1.785680 
# 
# From -- ./inp_files/29903.got.cif
#   From: 2010.05.17/outbox.cif.g08.bks.cpg/sg62_15_cif.got.tgz:29903.got - 2010.06.03 15:25:27.
