data_PCOD9465077
_publ_section_title
;
Structure prediction by ZEFSAII (Michael W. Deem and Ramdas Pophale) SiO2 
 PCOD9465077
Probable space group: P N M A
;
_chemical_formula_sum "Si O2"
_cell_formula_units_Z 32
_cell_length_a 8.015880
_cell_length_b 8.028302
_cell_length_c 21.981342
_cell_angle_alpha 90.000000
_cell_angle_beta 90.000000
_cell_angle_gamma 90.000000
_cell_volume 1414.585204
_symmetry_space_group_name_H-M "P N M A"
_symmetry_group_IT_number 62
_symmetry_cell_setting 'orthorhombic'
loop_
_space_group_symop_operation_xyz
x,y,z
1/2-x,-y,1/2+z
1/2+x,1/2-y,1/2-z
-x,1/2+y,-z
-x,-y,-z
1/2+x,y,1/2-z
1/2-x,1/2+y,1/2+z
x,1/2-y,z
loop_
_atom_site_type_symbol
_atom_site_label
_atom_site_fract_x
_atom_site_fract_y
_atom_site_fract_z
Si Si1 0.806607 0.437751 0.083008
Si Si2 0.803456 0.250000 0.654828
Si Si3 0.945576 0.250000 0.777551
Si Si4 0.158124 0.055566 0.539376
Si Si5 0.161510 0.066508 0.151457
O O1 0.738719 0.250000 0.092823
O O2 0.701794 0.584580 0.114230
O O3 0.988626 0.442268 0.113141
O O4 0.804937 0.465251 0.010641
O O5 0.946367 0.250000 0.704977
O O6 0.629010 0.250000 0.692834
O O7 0.851818 0.415497 0.801477
O O8 0.146634 0.250000 0.554884
O O9 0.196696 0.958649 0.600782
O O10 0.000000 0.000000 0.500000
O O11 0.174770 0.250000 0.179852
#
# Coordination Sequence:
#
# PCOD9465077 Si02
#       5
#     8   4   4   8   8
#     4   9  21  38  58  84 112 150 194 233 281 343
#     4  10  22  38  62  80 116 152 195 236 283 336
#     4  10  22  40  56  88 110 152 197 234 279 342
#     4  11  22  35  54  87 122 149 187 235 290 343
#     4  10  20  38  60  82 113 151 191 235 282 339
#
# _framework density 22.621472000000001
#
# number of rings (size 3 to 8) (size 9 to 14) (size 15 to 20)
#    0.000    2.000    1.250    1.500    3.500    3.000 
#    0.000    0.000    0.000    0.000    0.000    0.000 
#    0.000    0.000    0.000    0.000    0.000    0.000 
#
# Total GULP energy -178930.176310 kJ/mol
# GULP energy per Si atom -5591.568010 kJ/mol
# Density = 2.256998 g / cm^3
# Si number density = 22.621472 Si / 1000 Ang^3
#
#
#
# Elastic Constant Matrix: (Units=GPa)
#
#
# Indices 1 2 3 4 5 6 
#
# 1 49.0424 15.8390 -0.3412 0.0000 0.0000 0.0000
# 2 15.8390 140.2428 46.1797 0.0000 0.0000 0.0000
# 3 -0.3412 46.1797 48.3096 0.0000 0.0000 0.0000
# 4 0.0000 0.0000 0.0000 25.6958 0.0000 0.0000
# 5 0.0000 0.0000 0.0000 0.0000 35.1288 0.0000
# 6 0.0000 0.0000 0.0000 0.0000 0.0000 18.5604
#
#
#
# Elastic Compliance Matrix: (Units=1/GPa)
#
#
# Indices 1 2 3 4 5 6 
#
# 1 0.021589 -0.003631 0.003624 0.000000 0.000000 0.000000
# 2 -0.003631 0.011017 -0.010557 0.000000 0.000000 0.000000
# 3 0.003624 -0.010557 0.030817 0.000000 0.000000 0.000000
# 4 0.000000 0.000000 0.000000 0.038917 0.000000 0.000000
# 5 0.000000 0.000000 0.000000 0.000000 0.028467 0.000000
# 6 0.000000 0.000000 0.000000 0.000000 0.000000 0.053878
#
#
# Mechanical properties :
#
#
# Convention : Reuss Voigt Hill
#
# Bulk Modulus (GPa) = 23.64437 40.10553 31.87495
# Shear Modulus (GPa) = 22.73657 27.60483 25.17070
#
# Velocity S-wave (km/s) = 3.17375 3.49706 3.33932
# Velocity P-wave (km/s) = 4.88929 5.83724 5.38417
#
# Compressibility (1/GPa) = 0.04229337
#
# Stress axis : x y z
#
# Youngs Moduli (GPa) = 46.32076 90.77057 32.44995
#
# Poissons Ratio (x) = 0.32963 -0.11759
# Poissons Ratio (y) = 0.16821 0.34256
# Poissons Ratio (z) = -0.16786 0.95824
#
# Static dielectric constant tensor:
#      x y z
#    x 1.916970 0.000000 0.000000 
#    y 0.000000 1.830670 0.000000 
#    z 0.000000 0.000000 1.775840 
# 
# From -- ./inp_files/25550.got.cif
#   From: 2010.05.17/outbox.cif.g08.bks.cpg/sg62_13_cif.got.tgz:25550.got - 2010.06.03 15:25:27.
