data_PCOD9465685
_publ_section_title
;
Structure prediction by ZEFSAII (Michael W. Deem and Ramdas Pophale) SiO2 
 PCOD9465685
Probable space group: P N M A
;
_chemical_formula_sum "Si O2"
_cell_formula_units_Z 48
_cell_length_a 16.148324
_cell_length_b 9.647907
_cell_length_c 16.523985
_cell_angle_alpha 90.000000
_cell_angle_beta 90.000000
_cell_angle_gamma 90.000000
_cell_volume 2574.396018
_symmetry_space_group_name_H-M "P N M A"
_symmetry_group_IT_number 62
_symmetry_cell_setting 'orthorhombic'
loop_
_space_group_symop_operation_xyz
x,y,z
1/2-x,-y,1/2+z
1/2+x,1/2-y,1/2-z
-x,1/2+y,-z
-x,-y,-z
1/2+x,y,1/2-z
1/2-x,1/2+y,1/2+z
x,1/2-y,z
loop_
_atom_site_type_symbol
_atom_site_label
_atom_site_fract_x
_atom_site_fract_y
_atom_site_fract_z
Si Si1 0.388637 0.913122 0.245793
Si Si2 0.606041 0.089484 0.069877
Si Si3 0.520425 0.591366 0.377158
Si Si4 0.374922 0.591423 0.513662
Si Si5 0.910648 0.410823 0.408655
Si Si6 0.745737 0.587537 0.120412
O O1 0.396924 0.750000 0.223075
O O2 0.471371 0.952930 0.296630
O O3 0.311984 0.923678 0.307561
O O4 0.376751 0.011457 0.169769
O O5 0.628910 0.250000 0.056970
O O6 0.510766 0.086082 0.097313
O O7 0.668003 0.011995 0.130298
O O8 0.610826 0.999280 0.987940
O O9 0.547290 0.750000 0.366455
O O10 0.449355 0.590642 0.447147
O O11 0.594757 0.500052 0.411673
O O12 0.362926 0.750000 0.539155
O O13 0.295037 0.547160 0.462051
O O14 0.884842 0.250000 0.415514
O O15 0.722135 0.750000 0.113999
#
# Coordination Sequence:
#
# PCOD9465685 Si02
#       6
#     8   8   8   8   8   8
#     4   9  18  33  53  78 108 139 172 212 259 310
#     4  10  21  37  57  79 102 133 175 217 258 308
#     4   8  14  25  42  66  97 133 170 204 242 294
#     4   8  14  25  42  66  97 132 168 204 244 294
#     4  10  21  37  57  79 102 132 173 218 261 306
#     4   9  18  33  53  78 108 139 170 211 262 309
#
# _framework density 18.645149
#
# number of rings (size 3 to 8) (size 9 to 14) (size 15 to 20)
#    0.000    3.000    0.000    3.000    0.000    4.000 
#    0.000    5.000    0.000    4.000    0.000    0.000 
#    0.000    0.000    0.000    0.000    0.000    0.000 
#
# Total GULP energy -267538.073080 kJ/mol
# GULP energy per Si atom -5573.709856 kJ/mol
# Density = 1.860271 g / cm^3
# Si number density = 18.645149 Si / 1000 Ang^3
#
#
#
# Elastic Constant Matrix: (Units=GPa)
#
#
# Indices 1 2 3 4 5 6 
#
# 1 39.3800 31.4691 2.3081 0.0000 0.0000 0.0000
# 2 31.4691 86.7750 31.7801 0.0000 0.0000 0.0000
# 3 2.3081 31.7801 38.8362 0.0000 0.0000 0.0000
# 4 0.0000 0.0000 0.0000 26.0494 0.0000 0.0000
# 5 0.0000 0.0000 0.0000 0.0000 2.0277 0.0000
# 6 0.0000 0.0000 0.0000 0.0000 0.0000 27.9891
#
#
#
# Elastic Compliance Matrix: (Units=1/GPa)
#
#
# Indices 1 2 3 4 5 6 
#
# 1 0.040251 -0.019593 0.013641 0.000000 0.000000 0.000000
# 2 -0.019593 0.025993 -0.020106 0.000000 0.000000 0.000000
# 3 0.013641 -0.020106 0.041391 0.000000 0.000000 0.000000
# 4 0.000000 0.000000 0.000000 0.038389 0.000000 0.000000
# 5 0.000000 0.000000 0.000000 0.000000 0.493167 0.000000
# 6 0.000000 0.000000 0.000000 0.000000 0.000000 0.035728
#
#
# Mechanical properties :
#
#
# Convention : Reuss Voigt Hill
#
# Bulk Modulus (GPa) = 18.01162 32.90065 25.45614
# Shear Modulus (GPa) = 6.70653 17.84216 12.27434
#
# Velocity S-wave (km/s) = 1.89861 3.09679 2.56854
# Velocity P-wave (km/s) = 3.80625 5.52004 4.74122
#
# Compressibility (1/GPa) = 0.05551971
#
# Stress axis : x y z
#
# Youngs Moduli (GPa) = 24.84401 38.47182 24.15956
#
# Poissons Ratio (x) = 0.75378 -0.32956
# Poissons Ratio (y) = 0.48677 0.48575
# Poissons Ratio (z) = -0.33890 0.77351
#
# Static dielectric constant tensor:
#      x y z
#    x 1.677510 0.000000 0.000000 
#    y 0.000000 1.630120 0.000000 
#    z 0.000000 0.000000 1.645740 
# 
# From -- ./inp_files/24199.got.cif
#   From: 2010.05.17/outbox.cif.g08.bks.cpg/sg62_13_cif.got.tgz:24199.got - 2010.06.03 15:25:27.
