data_PCOD9465098
_publ_section_title
;
Structure prediction by ZEFSAII (Michael W. Deem and Ramdas Pophale) SiO2 
 PCOD9465098
Probable space group: P N M A
;
_chemical_formula_sum "Si O2"
_cell_formula_units_Z 40
_cell_length_a 14.665035
_cell_length_b 12.882970
_cell_length_c 10.931991
_cell_angle_alpha 90.000000
_cell_angle_beta 90.000000
_cell_angle_gamma 90.000000
_cell_volume 2065.372379
_symmetry_space_group_name_H-M "P N M A"
_symmetry_group_IT_number 62
_symmetry_cell_setting 'orthorhombic'
loop_
_space_group_symop_operation_xyz
x,y,z
1/2-x,-y,1/2+z
1/2+x,1/2-y,1/2-z
-x,1/2+y,-z
-x,-y,-z
1/2+x,y,1/2-z
1/2-x,1/2+y,1/2+z
x,1/2-y,z
loop_
_atom_site_type_symbol
_atom_site_label
_atom_site_fract_x
_atom_site_fract_y
_atom_site_fract_z
Si Si1 0.625762 0.032694 0.030182
Si Si2 0.215010 0.634458 0.836460
Si Si3 0.577305 0.041273 0.592717
Si Si4 0.988164 0.372512 0.664436
Si Si5 0.741953 0.133499 0.435059
O O1 0.709194 0.106429 0.064552
O O2 0.585740 0.965624 0.144349
O O3 0.554747 0.097676 0.949376
O O4 0.672372 0.941024 0.953877
O O5 0.178368 0.750000 0.851593
O O6 0.132975 0.553620 0.846279
O O7 0.270618 0.630094 0.709865
O O8 0.535324 0.108024 0.703936
O O9 0.654340 0.099701 0.512591
O O10 0.500000 0.000000 0.500000
O O11 0.961064 0.250000 0.656455
O O12 0.766625 0.250000 0.471472
#
# Coordination Sequence:
#
# PCOD9465098 Si02
#       5
#     8   8   8   8   8
#     4  10  21  38  59  87 118 153 196 248 288 358
#     4  10  21  39  61  85 115 156 199 243 299 353
#     4  11  23  39  59  88 124 154 197 253 295 358
#     4  11  22  38  60  88 121 156 196 246 305 356
#     4  10  20  38  61  83 114 157 198 240 296 352
#
# _framework density 19.366968
#
# number of rings (size 3 to 8) (size 9 to 14) (size 15 to 20)
#    0.000    1.600    2.000    3.000    0.000    1.600 
#    0.000    1.000    0.000    0.000    0.000    0.000 
#    0.000    0.000    0.000    0.000    0.000    0.000 
#
# Total GULP energy -222845.845955 kJ/mol
# GULP energy per Si atom -5571.146149 kJ/mol
# Density = 1.932289 g / cm^3
# Si number density = 19.366968 Si / 1000 Ang^3
#
#
#
# Elastic Constant Matrix: (Units=GPa)
#
#
# Indices 1 2 3 4 5 6 
#
# 1 34.0358 5.9088 9.0372 0.0000 0.0000 0.0000
# 2 5.9088 95.1510 37.5292 0.0000 0.0000 0.0000
# 3 9.0372 37.5292 63.1950 0.0000 0.0000 0.0000
# 4 0.0000 0.0000 0.0000 21.5514 0.0000 0.0000
# 5 0.0000 0.0000 0.0000 0.0000 28.1610 0.0000
# 6 0.0000 0.0000 0.0000 0.0000 0.0000 11.6722
#
#
#
# Elastic Compliance Matrix: (Units=1/GPa)
#
#
# Indices 1 2 3 4 5 6 
#
# 1 0.030544 -0.000227 -0.004233 0.000000 0.000000 0.000000
# 2 -0.000227 0.013726 -0.008119 0.000000 0.000000 0.000000
# 3 -0.004233 -0.008119 0.021251 0.000000 0.000000 0.000000
# 4 0.000000 0.000000 0.000000 0.046401 0.000000 0.000000
# 5 0.000000 0.000000 0.000000 0.000000 0.035510 0.000000
# 6 0.000000 0.000000 0.000000 0.000000 0.000000 0.085674
#
#
# Mechanical properties :
#
#
# Convention : Reuss Voigt Hill
#
# Bulk Modulus (GPa) = 24.77524 33.03690 28.90607
# Shear Modulus (GPa) = 18.40142 21.60401 20.00271
#
# Velocity S-wave (km/s) = 3.08579 3.34355 3.21725
# Velocity P-wave (km/s) = 5.05138 5.65695 5.36272
#
# Compressibility (1/GPa) = 0.04036288
#
# Stress axis : x y z
#
# Youngs Moduli (GPa) = 32.73944 72.85477 47.05686
#
# Poissons Ratio (x) = 0.01655 0.19919
# Poissons Ratio (y) = 0.00744 0.38205
# Poissons Ratio (z) = 0.13859 0.59150
#
# Static dielectric constant tensor:
#      x y z
#    x 1.700080 0.000000 0.000000 
#    y 0.000000 1.822880 0.000000 
#    z 0.000000 0.000000 1.705760 
# 
# From -- ./inp_files/6080.got.cif
#   From: 2010.05.17/outbox.cif.g08.bks.cpg/sg62_4_cif.got.tgz:6080.got - 2010.06.03 15:25:27.
