data_PCOD9465937
_publ_section_title
;
Structure prediction by ZEFSAII (Michael W. Deem and Ramdas Pophale) SiO2 
 PCOD9465937
Probable space group: P N M A
;
_chemical_formula_sum "Si O2"
_cell_formula_units_Z 40
_cell_length_a 14.301491
_cell_length_b 8.919423
_cell_length_c 14.251537
_cell_angle_alpha 90.000000
_cell_angle_beta 90.000000
_cell_angle_gamma 90.000000
_cell_volume 1817.940992
_symmetry_space_group_name_H-M "P N M A"
_symmetry_group_IT_number 62
_symmetry_cell_setting 'orthorhombic'
loop_
_space_group_symop_operation_xyz
x,y,z
1/2-x,-y,1/2+z
1/2+x,1/2-y,1/2-z
-x,1/2+y,-z
-x,-y,-z
1/2+x,y,1/2-z
1/2-x,1/2+y,1/2+z
x,1/2-y,z
loop_
_atom_site_type_symbol
_atom_site_label
_atom_site_fract_x
_atom_site_fract_y
_atom_site_fract_z
Si Si1 0.552578 0.929661 0.703948
Si Si2 0.118883 0.928590 0.119607
Si Si3 0.775316 0.928465 0.702298
Si Si4 0.454309 0.076275 0.088667
Si Si5 0.235809 0.924577 0.489716
O O1 0.537693 0.750000 0.696919
O O2 0.663358 0.955005 0.699853
O O3 0.522994 0.983303 0.808408
O O4 0.486611 0.012026 0.630494
O O5 0.121732 0.750000 0.116889
O O6 0.174320 0.990539 0.211304
O O7 0.172814 0.995229 0.030058
O O8 0.791939 0.750000 0.709649
O O9 0.805135 0.993260 0.601565
O O10 0.481455 0.250000 0.088078
O O11 0.342970 0.069118 0.070630
O O12 0.500000 0.000000 0.000000
O O13 0.253461 0.750000 0.468453
#
# Coordination Sequence:
#
# PCOD9465937 Si02
#       5
#     8   8   8   8   8
#     4  10  22  42  65  88 124 171 214 262 320 382
#     4  12  25  41  64  96 130 170 216 265 323 385
#     4  11  23  43  67  94 128 170 216 267 325 384
#     4  10  21  38  61  91 123 161 208 259 317 375
#     4  11  23  42  65  93 128 170 215 265 321 383
#
# _framework density 22.002915000000002
#
# number of rings (size 3 to 8) (size 9 to 14) (size 15 to 20)
#    0.000    1.200    2.000    4.200    0.000    8.000 
#    0.000    0.000    0.000    0.000    0.000    0.000 
#    0.000    0.000    0.000    0.000    0.000    0.000 
#
# Total GULP energy -223840.010373 kJ/mol
# GULP energy per Si atom -5596.000259 kJ/mol
# Density = 2.195284 g / cm^3
# Si number density = 22.002915 Si / 1000 Ang^3
#
#
#
# Elastic Constant Matrix: (Units=GPa)
#
#
# Indices 1 2 3 4 5 6 
#
# 1 74.4602 29.7021 -4.4710 0.0000 0.0000 0.0000
# 2 29.7021 76.1590 -3.6906 0.0000 0.0000 0.0000
# 3 -4.4710 -3.6906 54.5405 0.0000 0.0000 0.0000
# 4 0.0000 0.0000 0.0000 29.9159 0.0000 0.0000
# 5 0.0000 0.0000 0.0000 0.0000 42.2225 0.0000
# 6 0.0000 0.0000 0.0000 0.0000 0.0000 30.0158
#
#
#
# Elastic Compliance Matrix: (Units=1/GPa)
#
#
# Indices 1 2 3 4 5 6 
#
# 1 0.015947 -0.006176 0.000889 0.000000 0.000000 0.000000
# 2 -0.006176 0.015566 0.000547 0.000000 0.000000 0.000000
# 3 0.000889 0.000547 0.018445 0.000000 0.000000 0.000000
# 4 0.000000 0.000000 0.000000 0.033427 0.000000 0.000000
# 5 0.000000 0.000000 0.000000 0.000000 0.023684 0.000000
# 6 0.000000 0.000000 0.000000 0.000000 0.000000 0.033316
#
#
# Mechanical properties :
#
#
# Convention : Reuss Voigt Hill
#
# Bulk Modulus (GPa) = 24.70490 27.58229 26.14360
# Shear Modulus (GPa) = 30.60778 32.67212 31.63995
#
# Velocity S-wave (km/s) = 3.73376 3.85762 3.79620
# Velocity P-wave (km/s) = 5.46263 5.69250 5.57875
#
# Compressibility (1/GPa) = 0.04047780
#
# Stress axis : x y z
#
# Youngs Moduli (GPa) = 62.70724 64.24382 54.21545
#
# Poissons Ratio (x) = 0.39679 -0.04822
# Poissons Ratio (y) = 0.38730 -0.02966
# Poissons Ratio (z) = -0.05577 -0.03514
#
# Static dielectric constant tensor:
#      x y z
#    x 1.858840 0.000000 0.000000 
#    y 0.000000 1.711490 0.000000 
#    z 0.000000 0.000000 1.809080 
# 
# From -- ./inp_files/18589.got.cif
#   From: 2010.05.17/outbox.cif.g08.bks.cpg/sg62_10_cif.got.tgz:18589.got - 2010.06.03 15:25:27.
