data_PCOD9465692
_publ_section_title
;
Structure prediction by ZEFSAII (Michael W. Deem and Ramdas Pophale) SiO2 
 PCOD9465692
Probable space group: P N M A
;
_chemical_formula_sum "Si O2"
_cell_formula_units_Z 48
_cell_length_a 31.468543
_cell_length_b 8.834843
_cell_length_c 9.442552
_cell_angle_alpha 90.000000
_cell_angle_beta 90.000000
_cell_angle_gamma 90.000000
_cell_volume 2625.214878
_symmetry_space_group_name_H-M "P N M A"
_symmetry_group_IT_number 62
_symmetry_cell_setting 'orthorhombic'
loop_
_space_group_symop_operation_xyz
x,y,z
1/2-x,-y,1/2+z
1/2+x,1/2-y,1/2-z
-x,1/2+y,-z
-x,-y,-z
1/2+x,y,1/2-z
1/2-x,1/2+y,1/2+z
x,1/2-y,z
loop_
_atom_site_type_symbol
_atom_site_label
_atom_site_fract_x
_atom_site_fract_y
_atom_site_fract_z
Si Si1 0.460937 0.067792 0.912993
Si Si2 0.707327 0.926759 0.573600
Si Si3 0.617636 0.070074 0.587663
Si Si4 0.539934 0.932191 0.416260
Si Si5 0.119812 0.932855 0.599669
Si Si6 0.784463 0.071980 0.409953
O O1 0.463890 0.250000 0.917683
O O2 0.461976 0.022116 0.748765
O O3 0.416859 0.025251 0.989748
O O4 0.500000 0.000000 0.000000
O O5 0.697927 0.750000 0.549819
O O6 0.717216 0.946156 0.740316
O O7 0.665040 0.021893 0.541551
O O8 0.747753 0.978843 0.484774
O O9 0.612856 0.250000 0.585700
O O10 0.582582 0.993288 0.488821
O O11 0.612080 0.008699 0.748108
O O12 0.538933 0.750000 0.424130
O O13 0.500000 0.000000 0.500000
O O14 0.119519 0.750000 0.619851
O O15 0.167380 0.973005 0.548894
O O16 0.778843 0.250000 0.443031
#
# Coordination Sequence:
#
# PCOD9465692 Si02
#       6
#     8   8   8   8   8   8
#     4  10  22  38  58  83 111 144 183 226 274 328
#     4  10  21  37  57  82 113 149 186 228 279 332
#     4  11  22  37  58  84 112 146 187 230 276 329
#     4  11  23  39  58  84 115 149 187 227 276 331
#     4   9  19  38  59  80 110 146 183 229 281 331
#     4   9  19  35  55  81 111 144 185 230 277 331
#
# _framework density 18.284217000000002
#
# number of rings (size 3 to 8) (size 9 to 14) (size 15 to 20)
#    0.000    2.000    0.000    4.500    0.000    9.333 
#    0.000    1.667    0.000    0.000    0.000    0.000 
#    0.000    0.000    0.000    0.000    0.000    0.000 
#
# Total GULP energy -268125.382874 kJ/mol
# GULP energy per Si atom -5585.945477 kJ/mol
# Density = 1.824260 g / cm^3
# Si number density = 18.284217 Si / 1000 Ang^3
#
#
#
# Elastic Constant Matrix: (Units=GPa)
#
#
# Indices 1 2 3 4 5 6 
#
# 1 146.6936 51.1898 89.8258 0.0000 0.0000 0.0000
# 2 51.1898 61.2296 47.6188 0.0000 0.0000 0.0000
# 3 89.8258 47.6188 105.0113 0.0000 0.0000 0.0000
# 4 0.0000 0.0000 0.0000 29.2522 0.0000 0.0000
# 5 0.0000 0.0000 0.0000 0.0000 37.5240 0.0000
# 6 0.0000 0.0000 0.0000 0.0000 0.0000 36.8703
#
#
#
# Elastic Compliance Matrix: (Units=1/GPa)
#
#
# Indices 1 2 3 4 5 6 
#
# 1 0.014903 -0.003932 -0.010965 0.000000 0.000000 0.000000
# 2 -0.003932 0.026267 -0.008548 0.000000 0.000000 0.000000
# 3 -0.010965 -0.008548 0.022778 0.000000 0.000000 0.000000
# 4 0.000000 0.000000 0.000000 0.034185 0.000000 0.000000
# 5 0.000000 0.000000 0.000000 0.000000 0.026650 0.000000
# 6 0.000000 0.000000 0.000000 0.000000 0.000000 0.027122
#
#
# Mechanical properties :
#
#
# Convention : Reuss Voigt Hill
#
# Bulk Modulus (GPa) = 58.62051 76.68928 67.65489
# Shear Modulus (GPa) = 24.45203 29.01598 26.73401
#
# Velocity S-wave (km/s) = 3.66092 3.98797 3.82794
# Velocity P-wave (km/s) = 7.07107 7.95230 7.52460
#
# Compressibility (1/GPa) = 0.01705887
#
# Stress axis : x y z
#
# Youngs Moduli (GPa) = 67.09843 38.07089 43.90110
#
# Poissons Ratio (x) = 0.14969 0.48139
# Poissons Ratio (y) = 0.26383 0.37525
# Poissons Ratio (z) = 0.73576 0.32542
#
# Static dielectric constant tensor:
#      x y z
#    x 1.612110 0.000000 0.000000 
#    y 0.000000 1.628670 0.000000 
#    z 0.000000 0.000000 1.602280 
# 
# From -- ./inp_files/10210.got.cif
#   From: 2010.05.17/outbox.cif.g08.bks.cpg/sg62_6_cif.got.tgz:10210.got - 2010.06.03 15:25:27.
