data_PCOD9465381
_publ_section_title
;
Structure prediction by ZEFSAII (Michael W. Deem and Ramdas Pophale) SiO2 
 PCOD9465381
Probable space group: P N M A
;
_chemical_formula_sum "Si O2"
_cell_formula_units_Z 48
_cell_length_a 13.790680
_cell_length_b 27.098617
_cell_length_c 5.117044
_cell_angle_alpha 90.000000
_cell_angle_beta 90.000000
_cell_angle_gamma 90.000000
_cell_volume 1912.282098
_symmetry_space_group_name_H-M "P N M A"
_symmetry_group_IT_number 62
_symmetry_cell_setting 'orthorhombic'
loop_
_space_group_symop_operation_xyz
x,y,z
1/2-x,-y,1/2+z
1/2+x,1/2-y,1/2-z
-x,1/2+y,-z
-x,-y,-z
1/2+x,y,1/2-z
1/2-x,1/2+y,1/2+z
x,1/2-y,z
loop_
_atom_site_type_symbol
_atom_site_label
_atom_site_fract_x
_atom_site_fract_y
_atom_site_fract_z
Si Si1 0.704585 0.616458 0.780226
Si Si2 0.187623 0.987545 0.487140
Si Si3 0.020211 0.663728 0.785935
Si Si4 0.396996 0.584535 0.013982
Si Si5 0.648121 0.332805 0.641229
Si Si6 0.240076 0.250000 0.530930
Si Si7 0.374708 0.250000 0.022310
O O1 0.667100 0.569159 0.943429
O O2 0.621688 0.642087 0.607213
O O3 0.791267 0.596366 0.605109
O O4 0.755842 0.655209 0.975582
O O5 0.232336 0.993978 0.199401
O O6 0.099609 0.025982 0.521495
O O7 0.057231 0.703019 0.575303
O O8 0.970979 0.616343 0.653279
O O9 0.940242 0.688262 0.971257
O O10 0.392816 0.612935 0.286697
O O11 0.676537 0.297988 0.884421
O O12 0.288774 0.250000 0.246158
O O13 0.328221 0.250000 0.738173
#
# Coordination Sequence:
#
# PCOD9465381 Si02
#       7
#     8   8   8   8   8   4   4
#     4  10  21  42  66  95 137 181 227 281 342 415
#     4  10  20  40  68  97 135 187 228 276 340 410
#     4  11  25  42  68 101 139 173 234 288 348 404
#     4  10  23  40  68  96 140 179 230 280 348 403
#     4  11  23  43  66  99 134 184 222 292 338 414
#     4  12  27  45  76  95 134 180 230 270 349 406
#     4  12  27  47  70 101 132 182 222 278 345 414
#
# _framework density 25.100897
#
# number of rings (size 3 to 8) (size 9 to 14) (size 15 to 20)
#    0.000    1.333    3.333    1.500    4.667    2.667 
#    0.000    0.833    0.000    0.000    0.000    0.000 
#    0.000    0.000    0.000    0.000    0.000    0.000 
#
# Total GULP energy -268484.213684 kJ/mol
# GULP energy per Si atom -5593.421118 kJ/mol
# Density = 2.504377 g / cm^3
# Si number density = 25.100897 Si / 1000 Ang^3
#
#
#
# Elastic Constant Matrix: (Units=GPa)
#
#
# Indices 1 2 3 4 5 6 
#
# 1 106.3719 42.8725 11.3897 0.0000 0.0000 0.0000
# 2 42.8725 99.0557 13.8036 0.0000 0.0000 0.0000
# 3 11.3897 13.8036 64.6425 0.0000 0.0000 0.0000
# 4 0.0000 0.0000 0.0000 37.8033 0.0000 0.0000
# 5 0.0000 0.0000 0.0000 0.0000 20.8252 0.0000
# 6 0.0000 0.0000 0.0000 0.0000 0.0000 29.5845
#
#
#
# Elastic Compliance Matrix: (Units=1/GPa)
#
#
# Indices 1 2 3 4 5 6 
#
# 1 0.011448 -0.004817 -0.000988 0.000000 0.000000 0.000000
# 2 -0.004817 0.012432 -0.001806 0.000000 0.000000 0.000000
# 3 -0.000988 -0.001806 0.016029 0.000000 0.000000 0.000000
# 4 0.000000 0.000000 0.000000 0.026453 0.000000 0.000000
# 5 0.000000 0.000000 0.000000 0.000000 0.048019 0.000000
# 6 0.000000 0.000000 0.000000 0.000000 0.000000 0.033801
#
#
# Mechanical properties :
#
#
# Convention : Reuss Voigt Hill
#
# Bulk Modulus (GPa) = 40.50793 45.13353 42.82073
# Shear Modulus (GPa) = 29.13161 31.10956 30.12059
#
# Velocity S-wave (km/s) = 3.41043 3.52430 3.46783
# Velocity P-wave (km/s) = 5.62859 5.88055 5.75595
#
# Compressibility (1/GPa) = 0.02468653
#
# Stress axis : x y z
#
# Youngs Moduli (GPa) = 87.34855 80.43794 62.38504
#
# Poissons Ratio (x) = 0.38749 0.06167
# Poissons Ratio (y) = 0.42078 0.11266
# Poissons Ratio (z) = 0.08634 0.14526
#
# Static dielectric constant tensor:
#      x y z
#    x 1.994660 0.000000 0.000000 
#    y 0.000000 2.077910 0.000000 
#    z 0.000000 0.000000 1.987710 
# 
# From -- ./inp_files/1173.got.cif
#   From: 2010.05.17/outbox.cif.g08.bks.cpg/sg62_1_cif.got.tgz:1173.got - 2010.06.03 15:25:27.
