data_PCOD9465907
_publ_section_title
;
Structure prediction by ZEFSAII (Michael W. Deem and Ramdas Pophale) SiO2 
 PCOD9465907
Probable space group: P N M A
;
_chemical_formula_sum "Si O2"
_cell_formula_units_Z 64
_cell_length_a 10.749902
_cell_length_b 8.659599
_cell_length_c 33.430743
_cell_angle_alpha 90.000000
_cell_angle_beta 90.000000
_cell_angle_gamma 90.000000
_cell_volume 3112.062537
_symmetry_space_group_name_H-M "P N M A"
_symmetry_group_IT_number 62
_symmetry_cell_setting 'orthorhombic'
loop_
_space_group_symop_operation_xyz
x,y,z
1/2-x,-y,1/2+z
1/2+x,1/2-y,1/2-z
-x,1/2+y,-z
-x,-y,-z
1/2+x,y,1/2-z
1/2-x,1/2+y,1/2+z
x,1/2-y,z
loop_
_atom_site_type_symbol
_atom_site_label
_atom_site_fract_x
_atom_site_fract_y
_atom_site_fract_z
Si Si1 0.858503 0.063684 0.504708
Si Si2 0.470097 0.424684 0.695120
Si Si3 0.466788 0.571810 0.780641
Si Si4 0.640569 0.931418 0.094402
Si Si5 0.864780 0.933859 0.884655
Si Si6 0.746319 0.923453 0.174764
Si Si7 0.895753 0.065725 0.969243
Si Si8 0.093087 0.935777 0.640964
O O1 0.861193 0.250000 0.499551
O O2 0.824730 0.019086 0.550315
O O3 0.744177 0.997686 0.478745
O O4 0.000000 0.000000 0.500000
O O5 0.422572 0.250000 0.690016
O O6 0.443765 0.485862 0.739285
O O7 0.425457 0.526389 0.657981
O O8 0.618718 0.423110 0.692593
O O9 0.494685 0.750000 0.771975
O O10 0.340054 0.550454 0.805412
O O11 0.568330 0.510785 0.813072
O O12 0.610312 0.750000 0.091620
O O13 0.747837 0.949911 0.127247
O O14 0.520374 0.013012 0.113027
O O15 0.867145 0.750000 0.891337
O O16 0.721859 0.986761 0.878299
O O17 0.922460 0.015442 0.923427
O O18 0.690716 0.750000 0.180791
O O19 0.895822 0.250000 0.972464
O O20 0.000000 0.000000 0.000000
O O21 0.094054 0.750000 0.642954
#
# Coordination Sequence:
#
# PCOD9465907 Si02
#       8
#     8   8   8   8   8   8   8   8
#     4  11  23  40  66  99 133 171 217 273 330 392
#     4  11  24  39  60  89 121 161 207 256 307 371
#     4  10  21  38  60  88 121 160 202 254 311 365
#     4   9  19  36  61  89 120 158 200 249 307 364
#     4  11  24  43  65  93 126 166 211 259 315 382
#     4   9  20  39  59  84 117 154 201 252 301 361
#     4  12  27  47  69  97 133 176 222 275 336 400
#     4   9  20  38  61  90 126 163 204 254 308 367
#
# _framework density 20.565138999999999
#
# number of rings (size 3 to 8) (size 9 to 14) (size 15 to 20)
#    0.000    1.750    0.000    3.375    3.500    5.500 
#    0.000    0.000    0.000    0.000    0.000    0.000 
#    0.000    0.000    0.000    0.000    0.000    0.000 
#
# Total GULP energy -357148.459346 kJ/mol
# GULP energy per Si atom -5580.444677 kJ/mol
# Density = 2.051833 g / cm^3
# Si number density = 20.565139 Si / 1000 Ang^3
#
#
#
# Elastic Constant Matrix: (Units=GPa)
#
#
# Indices 1 2 3 4 5 6 
#
# 1 36.1180 12.5309 12.3452 0.0000 0.0000 0.0000
# 2 12.5309 57.3050 22.9761 0.0000 0.0000 0.0000
# 3 12.3452 22.9761 122.7127 0.0000 0.0000 0.0000
# 4 0.0000 0.0000 0.0000 33.4489 0.0000 0.0000
# 5 0.0000 0.0000 0.0000 0.0000 23.7719 0.0000
# 6 0.0000 0.0000 0.0000 0.0000 0.0000 23.9980
#
#
#
# Elastic Compliance Matrix: (Units=1/GPa)
#
#
# Indices 1 2 3 4 5 6 
#
# 1 0.030390 -0.005859 -0.001960 0.000000 0.000000 0.000000
# 2 -0.005859 0.019997 -0.003155 0.000000 0.000000 0.000000
# 3 -0.001960 -0.003155 0.008937 0.000000 0.000000 0.000000
# 4 0.000000 0.000000 0.000000 0.029896 0.000000 0.000000
# 5 0.000000 0.000000 0.000000 0.000000 0.042066 0.000000
# 6 0.000000 0.000000 0.000000 0.000000 0.000000 0.041670
#
#
# Mechanical properties :
#
#
# Convention : Reuss Voigt Hill
#
# Bulk Modulus (GPa) = 26.75585 34.64891 30.70238
# Shear Modulus (GPa) = 24.11229 27.46267 25.78748
#
# Velocity S-wave (km/s) = 3.42787 3.65828 3.54494
# Velocity P-wave (km/s) = 5.35776 5.89312 5.63181
#
# Compressibility (1/GPa) = 0.03737500
#
# Stress axis : x y z
#
# Youngs Moduli (GPa) = 32.90569 50.00858 111.89484
#
# Poissons Ratio (x) = 0.29302 0.21934
# Poissons Ratio (y) = 0.19281 0.35298
# Poissons Ratio (z) = 0.06450 0.15776
#
# Static dielectric constant tensor:
#      x y z
#    x 1.741830 0.000000 0.000000 
#    y 0.000000 1.769450 0.000000 
#    z 0.000000 0.000000 1.747650 
# 
# From -- ./inp_files/32531.got.cif
#   From: 2010.05.17/outbox.cif.g08.bks.cpg/sg62_17_cif.got.tgz:32531.got - 2010.06.03 15:25:27.
