data_PCOD9465505
_publ_section_title
;
Structure prediction by ZEFSAII (Michael W. Deem and Ramdas Pophale) SiO2 
 PCOD9465505
Probable space group: P N M A
;
_chemical_formula_sum "Si O2"
_cell_formula_units_Z 56
_cell_length_a 23.630084
_cell_length_b 8.596223
_cell_length_c 14.152254
_cell_angle_alpha 90.000000
_cell_angle_beta 90.000000
_cell_angle_gamma 90.000000
_cell_volume 2874.739877
_symmetry_space_group_name_H-M "P N M A"
_symmetry_group_IT_number 62
_symmetry_cell_setting 'orthorhombic'
loop_
_space_group_symop_operation_xyz
x,y,z
1/2-x,-y,1/2+z
1/2+x,1/2-y,1/2-z
-x,1/2+y,-z
-x,-y,-z
1/2+x,y,1/2-z
1/2-x,1/2+y,1/2+z
x,1/2-y,z
loop_
_atom_site_type_symbol
_atom_site_label
_atom_site_fract_x
_atom_site_fract_y
_atom_site_fract_z
Si Si1 0.825223 0.564870 0.432752
Si Si2 0.876253 0.437779 0.713286
Si Si3 0.663219 0.564800 0.727650
Si Si4 0.238139 0.935583 0.393771
Si Si5 0.559121 0.435982 0.038160
Si Si6 0.431135 0.062840 0.598454
Si Si7 0.056047 0.938181 0.885947
O O1 0.819566 0.750000 0.443094
O O2 0.819631 0.516735 0.324609
O O3 0.780023 0.483619 0.501079
O O4 0.887911 0.519201 0.470643
O O5 0.878441 0.250000 0.710630
O O6 0.815334 0.483959 0.672002
O O7 0.923546 0.500935 0.641243
O O8 0.888551 0.491009 0.819940
O O9 0.663137 0.750000 0.741217
O O10 0.706845 0.519717 0.645568
O O11 0.600843 0.515287 0.693298
O O12 0.245033 0.750000 0.387320
O O13 0.556311 0.250000 0.041476
O O14 0.500000 0.500000 0.000000
O O15 0.429642 0.250000 0.597812
O O16 0.422009 0.011955 0.490270
O O17 0.494061 0.008429 0.626101
O O18 0.051827 0.750000 0.885738
#
# Coordination Sequence:
#
# PCOD9465505 Si02
#       7
#     8   8   8   8   8   8   8
#     4  10  22  40  59  82 114 151 194 241 290 344
#     4   9  19  35  56  81 109 146 187 232 286 344
#     4  11  23  38  59  86 118 155 195 240 292 348
#     4  10  21  39  60  84 115 149 192 241 293 348
#     4  10  21  35  54  81 113 148 185 232 287 346
#     4   9  18  35  57  79 109 146 186 232 283 341
#     4   9  20  36  53  80 114 148 186 233 285 336
#
# _framework density 19.480022999999999
#
# number of rings (size 3 to 8) (size 9 to 14) (size 15 to 20)
#    0.000    2.286    0.000    1.714    2.000    5.143 
#    0.000    2.857    0.000    0.000    0.000    0.000 
#    0.000    0.000    0.000    0.000    0.000    0.000 
#
# Total GULP energy -312673.335581 kJ/mol
# GULP energy per Si atom -5583.452421 kJ/mol
# Density = 1.943569 g / cm^3
# Si number density = 19.480023 Si / 1000 Ang^3
#
#
#
# Elastic Constant Matrix: (Units=GPa)
#
#
# Indices 1 2 3 4 5 6 
#
# 1 12.7275 -5.0240 0.0726 0.0000 0.0000 0.0000
# 2 -5.0240 9.4355 -3.8742 0.0000 0.0000 0.0000
# 3 0.0726 -3.8742 57.2400 0.0000 0.0000 0.0000
# 4 0.0000 0.0000 0.0000 27.8171 0.0000 0.0000
# 5 0.0000 0.0000 0.0000 0.0000 19.2151 0.0000
# 6 0.0000 0.0000 0.0000 0.0000 0.0000 26.5951
#
#
#
# Elastic Compliance Matrix: (Units=1/GPa)
#
#
# Indices 1 2 3 4 5 6 
#
# 1 0.100188 0.054817 0.003583 0.000000 0.000000 0.000000
# 2 0.054817 0.139005 0.009339 0.000000 0.000000 0.000000
# 3 0.003583 0.009339 0.018098 0.000000 0.000000 0.000000
# 4 0.000000 0.000000 0.000000 0.035949 0.000000 0.000000
# 5 0.000000 0.000000 0.000000 0.000000 0.052042 0.000000
# 6 0.000000 0.000000 0.000000 0.000000 0.000000 0.037601
#
#
# Mechanical properties :
#
#
# Convention : Reuss Voigt Hill
#
# Bulk Modulus (GPa) = 2.54603 6.86131 4.70367
# Shear Modulus (GPa) = 13.21603 20.60737 16.91170
#
# Velocity S-wave (km/s) = 2.60751 3.25602 2.94965
# Velocity P-wave (km/s) = 3.22108 4.20303 3.74438
#
# Compressibility (1/GPa) = 0.39276855
#
# Stress axis : x y z
#
# Youngs Moduli (GPa) = 9.98123 7.19399 55.25523
#
# Poissons Ratio (x) = -0.39435 -0.19798
# Poissons Ratio (y) = -0.54714 -0.51602
# Poissons Ratio (z) = -0.03576 -0.06718
#
# Static dielectric constant tensor:
#      x y z
#    x 1.664010 0.000000 0.000000 
#    y 0.000000 1.654870 0.000000 
#    z 0.000000 0.000000 1.688790 
# 
# From -- ./inp_files/20426.got.cif
#   From: 2010.05.17/outbox.cif.g08.bks.cpg/sg62_11_cif.got.tgz:20426.got - 2010.06.03 15:25:27.
