data_PCOD9465550
_publ_section_title
;
Structure prediction by ZEFSAII (Michael W. Deem and Ramdas Pophale) SiO2 
 PCOD9465550
Probable space group: P N M A
;
_chemical_formula_sum "Si O2"
_cell_formula_units_Z 44
_cell_length_a 5.129277
_cell_length_b 15.789402
_cell_length_c 30.118726
_cell_angle_alpha 90.000000
_cell_angle_beta 90.000000
_cell_angle_gamma 90.000000
_cell_volume 2439.261903
_symmetry_space_group_name_H-M "P N M A"
_symmetry_group_IT_number 62
_symmetry_cell_setting 'orthorhombic'
loop_
_space_group_symop_operation_xyz
x,y,z
1/2-x,-y,1/2+z
1/2+x,1/2-y,1/2-z
-x,1/2+y,-z
-x,-y,-z
1/2+x,y,1/2-z
1/2-x,1/2+y,1/2+z
x,1/2-y,z
loop_
_atom_site_type_symbol
_atom_site_label
_atom_site_fract_x
_atom_site_fract_y
_atom_site_fract_z
Si Si1 0.621727 0.604333 0.150947
Si Si2 0.370421 0.156363 0.600320
Si Si3 0.275309 0.850421 0.569254
Si Si4 0.654330 0.074383 0.523256
Si Si5 0.475097 0.250000 0.778467
Si Si6 0.292263 0.547464 0.901241
O O1 0.342809 0.602876 0.126230
O O2 0.577006 0.663184 0.193960
O O3 0.714527 0.506454 0.144597
O O4 0.854965 0.652741 0.125681
O O5 0.258802 0.250000 0.599982
O O6 0.444995 0.127528 0.551305
O O7 0.309557 0.750000 0.574607
O O8 0.227473 0.871287 0.516718
O O9 0.527492 0.902709 0.586517
O O10 0.028107 0.887562 0.595196
O O11 0.500000 0.000000 0.500000
O O12 0.827364 0.025005 0.559892
O O13 0.772661 0.250000 0.762209
#
# Coordination Sequence:
#
# PCOD9465550 Si02
#       6
#     8   8   8   8   4   8
#     4  11  21  38  54  78 108 141 179 209 262 333
#     4  11  19  32  51  71  99 141 187 221 249 310
#     4  11  21  35  51  77 107 142 192 245 285 310
#     4   9  19  32  47  71 101 142 186 235 279 305
#     4  12  24  38  60  88 118 140 168 218 270 334
#     4  10  21  36  54  71 106 148 184 232 276 332
#
# _framework density 18.038245
#
# number of rings (size 3 to 8) (size 9 to 14) (size 15 to 20)
#    0.000    1.455    1.818    6.000    0.000    4.364 
#    0.000    9.091    0.000    0.000    0.000    0.000 
#    0.000   14.545    0.000    0.000    0.000    0.000 
#
# Total GULP energy -245095.715320 kJ/mol
# GULP energy per Si atom -5570.357166 kJ/mol
# Density = 1.799719 g / cm^3
# Si number density = 18.038245 Si / 1000 Ang^3
#
#
#
# Elastic Constant Matrix: (Units=GPa)
#
#
# Indices 1 2 3 4 5 6 
#
# 1 74.8372 12.5600 1.0286 0.0000 0.0000 0.0000
# 2 12.5600 98.0366 12.3371 0.0000 0.0000 0.0000
# 3 1.0286 12.3371 30.7863 0.0000 0.0000 0.0000
# 4 0.0000 0.0000 0.0000 35.0817 0.0000 0.0000
# 5 0.0000 0.0000 0.0000 0.0000 18.7192 0.0000
# 6 0.0000 0.0000 0.0000 0.0000 0.0000 25.0451
#
#
#
# Elastic Compliance Matrix: (Units=1/GPa)
#
#
# Indices 1 2 3 4 5 6 
#
# 1 0.013658 -0.001782 0.000258 0.000000 0.000000 0.000000
# 2 -0.001782 0.010975 -0.004338 0.000000 0.000000 0.000000
# 3 0.000258 -0.004338 0.034212 0.000000 0.000000 0.000000
# 4 0.000000 0.000000 0.000000 0.028505 0.000000 0.000000
# 5 0.000000 0.000000 0.000000 0.000000 0.053421 0.000000
# 6 0.000000 0.000000 0.000000 0.000000 0.000000 0.039928
#
#
# Mechanical properties :
#
#
# Convention : Reuss Voigt Hill
#
# Bulk Modulus (GPa) = 21.22286 28.39016 24.80651
# Shear Modulus (GPa) = 24.02344 27.61817 25.82081
#
# Velocity S-wave (km/s) = 3.65335 3.91716 3.78755
# Velocity P-wave (km/s) = 5.43939 6.01929 5.73667
#
# Compressibility (1/GPa) = 0.04711899
#
# Stress axis : x y z
#
# Youngs Moduli (GPa) = 73.21765 91.11991 29.22958
#
# Poissons Ratio (x) = 0.16240 -0.00754
# Poissons Ratio (y) = 0.13049 0.12681
# Poissons Ratio (z) = -0.01888 0.39531
#
# Static dielectric constant tensor:
#      x y z
#    x 1.590250 0.000000 0.000000 
#    y 0.000000 1.640690 0.000000 
#    z 0.000000 0.000000 1.652420 
# 
# From -- ./inp_files/31565.got.cif
#   From: 2010.05.17/outbox.cif.g08.bks.cpg/sg62_16_cif.got.tgz:31565.got - 2010.06.03 15:25:27.
