data_PCOD9465260
_publ_section_title
;
Structure prediction by ZEFSAII (Michael W. Deem and Ramdas Pophale) SiO2 
 PCOD9465260
Probable space group: P N M A
;
_chemical_formula_sum "Si O2"
_cell_formula_units_Z 64
_cell_length_a 9.062647
_cell_length_b 22.963954
_cell_length_c 12.304497
_cell_angle_alpha 90.000000
_cell_angle_beta 90.000000
_cell_angle_gamma 90.000000
_cell_volume 2560.740658
_symmetry_space_group_name_H-M "P N M A"
_symmetry_group_IT_number 62
_symmetry_cell_setting 'orthorhombic'
loop_
_space_group_symop_operation_xyz
x,y,z
1/2-x,-y,1/2+z
1/2+x,1/2-y,1/2-z
-x,1/2+y,-z
-x,-y,-z
1/2+x,y,1/2-z
1/2-x,1/2+y,1/2+z
x,1/2-y,z
loop_
_atom_site_type_symbol
_atom_site_label
_atom_site_fract_x
_atom_site_fract_y
_atom_site_fract_z
Si Si1 0.403660 0.099163 0.053809
Si Si2 0.229135 0.155146 0.242431
Si Si3 0.595859 0.315818 0.905547
Si Si4 0.335752 0.540484 0.874591
Si Si5 0.036106 0.812375 0.905386
Si Si6 0.662405 0.683517 0.256422
Si Si7 0.429329 0.435831 0.523978
Si Si8 0.692696 0.423971 0.638578
O O1 0.348696 0.139539 0.150694
O O2 0.492780 0.042872 0.095212
O O3 0.517526 0.137558 0.982230
O O4 0.264127 0.080597 0.982322
O O5 0.180010 0.093384 0.291194
O O6 0.309569 0.187021 0.341063
O O7 0.094619 0.185924 0.183511
O O8 0.578308 0.250000 0.948426
O O9 0.769033 0.325434 0.877573
O O10 0.502676 0.317940 0.791808
O O11 0.266775 0.483289 0.820334
O O12 0.236236 0.554090 0.981651
O O13 0.020172 0.750000 0.966518
O O14 0.025506 0.875849 0.961711
O O15 0.710468 0.750000 0.230715
O O16 0.744269 0.632704 0.193494
O O17 0.500000 0.500000 0.500000
O O18 0.514867 0.425374 0.637965
#
# Coordination Sequence:
#
# PCOD9465260 Si02
#       8
#     8   8   8   8   8   8   8   8
#     4  11  21  39  63  89 125 162 212 258 308 373
#     4  11  22  41  60  89 130 169 206 262 316 381
#     4   9  20  38  61  87 117 155 198 249 310 370
#     4  10  22  40  58  84 125 164 209 258 311 371
#     4  11  22  38  62  91 125 169 213 257 317 384
#     4   9  19  38  60  86 120 150 191 253 317 375
#     4   9  20  39  60  84 123 163 207 264 311 367
#     4  10  20  39  61  91 115 157 213 259 319 375
#
# _framework density 24.992768999999999
#
# number of rings (size 3 to 8) (size 9 to 14) (size 15 to 20)
#    0.000    2.000    2.500    0.750    0.000    2.500 
#    6.750    0.625    0.000    0.000    0.000    0.000 
#    0.000    0.000    0.000    0.000    0.000    0.000 
#
# Total GULP energy -357020.075553 kJ/mol
# GULP energy per Si atom -5578.438681 kJ/mol
# Density = 2.493588 g / cm^3
# Si number density = 24.992769 Si / 1000 Ang^3
#
#
#
# Elastic Constant Matrix: (Units=GPa)
#
#
# Indices 1 2 3 4 5 6 
#
# 1 102.8031 35.8012 15.0590 0.0000 0.0000 0.0000
# 2 35.8012 156.5432 34.6833 0.0000 0.0000 0.0000
# 3 15.0590 34.6833 35.2180 0.0000 0.0000 0.0000
# 4 0.0000 0.0000 0.0000 8.2222 0.0000 0.0000
# 5 0.0000 0.0000 0.0000 0.0000 40.6122 0.0000
# 6 0.0000 0.0000 0.0000 0.0000 0.0000 10.4248
#
#
#
# Elastic Compliance Matrix: (Units=1/GPa)
#
#
# Indices 1 2 3 4 5 6 
#
# 1 0.010779 -0.001847 -0.002790 0.000000 0.000000 0.000000
# 2 -0.001847 0.008487 -0.007569 0.000000 0.000000 0.000000
# 3 -0.002790 -0.007569 0.037041 0.000000 0.000000 0.000000
# 4 0.000000 0.000000 0.000000 0.121622 0.000000 0.000000
# 5 0.000000 0.000000 0.000000 0.000000 0.024623 0.000000
# 6 0.000000 0.000000 0.000000 0.000000 0.000000 0.095925
#
#
# Mechanical properties :
#
#
# Convention : Reuss Voigt Hill
#
# Bulk Modulus (GPa) = 31.35164 51.73903 41.54533
# Shear Modulus (GPa) = 14.99151 25.78657 20.38904
#
# Velocity S-wave (km/s) = 2.45181 3.21559 2.85932
# Velocity P-wave (km/s) = 4.53725 5.87650 5.24976
#
# Compressibility (1/GPa) = 0.03189625
#
# Stress axis : x y z
#
# Youngs Moduli (GPa) = 92.77069 117.82278 26.99681
#
# Poissons Ratio (x) = 0.21762 0.07533
# Poissons Ratio (y) = 0.17135 0.20433
# Poissons Ratio (z) = 0.25884 0.89176
#
# Static dielectric constant tensor:
#      x y z
#    x 2.053340 0.000000 0.000000 
#    y 0.000000 1.981520 0.000000 
#    z 0.000000 0.000000 2.061290 
# 
# From -- ./inp_files/17348.got.cif
#   From: 2010.05.17/outbox.cif.g08.bks.cpg/sg62_9_cif.got.tgz:17348.got - 2010.06.03 15:25:27.
