data_PCOD9465229
_publ_section_title
;
Structure prediction by ZEFSAII (Michael W. Deem and Ramdas Pophale) SiO2 
 PCOD9465229
Probable space group: P N M A
;
_chemical_formula_sum "Si O2"
_cell_formula_units_Z 56
_cell_length_a 15.123843
_cell_length_b 15.323159
_cell_length_c 11.813143
_cell_angle_alpha 90.000000
_cell_angle_beta 90.000000
_cell_angle_gamma 90.000000
_cell_volume 2737.637427
_symmetry_space_group_name_H-M "P N M A"
_symmetry_group_IT_number 62
_symmetry_cell_setting 'orthorhombic'
loop_
_space_group_symop_operation_xyz
x,y,z
1/2-x,-y,1/2+z
1/2+x,1/2-y,1/2-z
-x,1/2+y,-z
-x,-y,-z
1/2+x,y,1/2-z
1/2-x,1/2+y,1/2+z
x,1/2-y,z
loop_
_atom_site_type_symbol
_atom_site_label
_atom_site_fract_x
_atom_site_fract_y
_atom_site_fract_z
Si Si1 0.479151 0.648654 0.306314
Si Si2 0.261364 0.026448 0.161314
Si Si3 0.679138 0.651378 0.382003
Si Si4 0.468864 0.000666 0.127921
Si Si5 0.202824 0.847268 0.853948
Si Si6 0.496316 0.846466 0.713590
Si Si7 0.856126 0.647870 0.988417
O O1 0.465741 0.750000 0.277244
O O2 0.573056 0.642844 0.371578
O O3 0.483410 0.588307 0.197051
O O4 0.400811 0.622098 0.392393
O O5 0.250631 0.082716 0.275272
O O6 0.214492 0.079688 0.059577
O O7 0.222285 0.930367 0.179537
O O8 0.364477 0.019494 0.133337
O O9 0.701774 0.750000 0.342696
O O10 0.710238 0.642666 0.511938
O O11 0.517530 0.076953 0.197733
O O12 0.500000 0.000000 0.000000
O O13 0.233816 0.750000 0.821871
O O14 0.097968 0.851691 0.827335
O O15 0.482604 0.750000 0.763666
O O16 0.434050 0.854661 0.605027
O O17 0.826158 0.750000 0.995023
#
# Coordination Sequence:
#
# PCOD9465229 Si02
#       7
#     8   8   8   8   8   8   8
#     4  10  22  43  70  95 125 168 217 271 327 387
#     4  11  24  35  60  93 134 167 209 262 323 376
#     4  10  21  39  66  95 126 165 215 268 325 380
#     4  11  26  44  59  88 133 180 218 252 312 395
#     4   9  18  37  60  88 125 162 204 259 320 379
#     4   9  18  36  65  90 116 156 205 260 317 374
#     4  10  20  38  67 102 125 153 211 274 329 379
#
# _framework density 20.455594000000001
#
# number of rings (size 3 to 8) (size 9 to 14) (size 15 to 20)
#    0.000    2.000    1.429    1.286    4.000    5.143 
#    0.000    1.429    0.000    0.000    0.000    0.000 
#    0.000    0.000    0.000    0.000    0.000    0.000 
#
# Total GULP energy -312940.515623 kJ/mol
# GULP energy per Si atom -5588.223493 kJ/mol
# Density = 2.040904 g / cm^3
# Si number density = 20.455594 Si / 1000 Ang^3
#
#
#
# Elastic Constant Matrix: (Units=GPa)
#
#
# Indices 1 2 3 4 5 6 
#
# 1 48.7773 40.7312 13.2732 0.0000 0.0000 0.0000
# 2 40.7312 136.0898 74.4105 0.0000 0.0000 0.0000
# 3 13.2732 74.4105 96.3853 0.0000 0.0000 0.0000
# 4 0.0000 0.0000 0.0000 28.4714 0.0000 0.0000
# 5 0.0000 0.0000 0.0000 0.0000 -2.1040 0.0000
# 6 0.0000 0.0000 0.0000 0.0000 0.0000 25.1455
#
#
#
# Elastic Compliance Matrix: (Units=1/GPa)
#
#
# Indices 1 2 3 4 5 6 
#
# 1 0.028463 -0.011033 0.004598 0.000000 0.000000 0.000000
# 2 -0.011033 0.016992 -0.011599 0.000000 0.000000 0.000000
# 3 0.004598 -0.011599 0.018696 0.000000 0.000000 0.000000
# 4 0.000000 0.000000 0.000000 0.035123 0.000000 0.000000
# 5 0.000000 0.000000 0.000000 0.000000 -0.475289 0.000000
# 6 0.000000 0.000000 0.000000 0.000000 0.000000 0.039769
#
#
# Mechanical properties :
#
#
# Convention : Reuss Voigt Hill
#
# Bulk Modulus (GPa) = 35.60757 59.78692 47.69724
# Shear Modulus (GPa) = -17.19296 20.49175 1.64939
#
# Velocity S-wave (km/s) = -2.90229 3.16850 0.89893
# Velocity P-wave (km/s) = 2.49279 6.53276 4.94424
#
# Compressibility (1/GPa) = 0.02808392
#
# Stress axis : x y z
#
# Youngs Moduli (GPa) = 35.13307 58.85072 53.48674
#
# Poissons Ratio (x) = 0.64930 -0.24593
# Poissons Ratio (y) = 0.38762 0.62038
# Poissons Ratio (z) = -0.16154 0.68260
#
# Static dielectric constant tensor:
#      x y z
#    x 1.730920 0.000000 0.000000 
#    y 0.000000 1.743010 0.000000 
#    z 0.000000 0.000000 1.696170 
# 
# From -- ./inp_files/13365.got.cif
#   From: 2010.05.17/outbox.cif.g08.bks.cpg/sg62_7_cif.got.tgz:13365.got - 2010.06.03 15:25:27.
