data_PCOD9465136
_publ_section_title
;
Structure prediction by ZEFSAII (Michael W. Deem and Ramdas Pophale) SiO2 
 PCOD9465136
Probable space group: P N M A
;
_chemical_formula_sum "Si O2"
_cell_formula_units_Z 48
_cell_length_a 9.926673
_cell_length_b 7.882847
_cell_length_c 27.086291
_cell_angle_alpha 90.000000
_cell_angle_beta 90.000000
_cell_angle_gamma 90.000000
_cell_volume 2119.514310
_symmetry_space_group_name_H-M "P N M A"
_symmetry_group_IT_number 62
_symmetry_cell_setting 'orthorhombic'
loop_
_space_group_symop_operation_xyz
x,y,z
1/2-x,-y,1/2+z
1/2+x,1/2-y,1/2-z
-x,1/2+y,-z
-x,-y,-z
1/2+x,y,1/2-z
1/2-x,1/2+y,1/2+z
x,1/2-y,z
loop_
_atom_site_type_symbol
_atom_site_label
_atom_site_fract_x
_atom_site_fract_y
_atom_site_fract_z
Si Si1 0.844072 0.951835 0.271199
Si Si2 0.057587 0.958408 0.194664
Si Si3 0.979564 0.044181 0.373996
Si Si4 0.239043 0.445947 0.427675
Si Si5 0.800959 0.054198 0.466809
Si Si6 0.960222 0.052908 0.917999
O O1 0.831818 0.750000 0.264240
O O2 0.693657 0.018250 0.278785
O O3 0.928388 0.018794 0.225007
O O4 0.925968 0.981366 0.321747
O O5 0.056553 0.750000 0.194460
O O6 0.059688 0.011127 0.137880
O O7 0.978263 0.250000 0.373198
O O8 0.130227 0.987832 0.388417
O O9 0.881123 0.989692 0.418774
O O10 0.266767 0.250000 0.416552
O O11 0.174131 0.459220 0.482074
O O12 0.382009 0.537441 0.428900
O O13 0.837874 0.250000 0.474401
O O14 0.642400 0.041786 0.453752
O O15 0.921056 0.250000 0.920583
#
# Coordination Sequence:
#
# PCOD9465136 Si02
#       6
#     8   8   8   8   8   8
#     4  10  20  38  62  88 118 153 195 243 291 345
#     4   9  20  36  60  90 117 149 193 243 290 342
#     4  10  23  41  60  87 122 156 196 244 297 352
#     4  11  24  40  59  87 121 157 198 245 293 349
#     4  11  22  40  63  87 117 156 199 246 297 350
#     4  11  22  39  61  89 121 157 199 241 294 351
#
# _framework density 22.646697
#
# number of rings (size 3 to 8) (size 9 to 14) (size 15 to 20)
#    0.000    1.667    1.667    2.500    2.333    2.000 
#    0.000    2.500    0.000    0.000    0.000    0.000 
#    0.000    0.000    0.000    0.000    0.000    0.000 
#
# Total GULP energy -268479.786314 kJ/mol
# GULP energy per Si atom -5593.328882 kJ/mol
# Density = 2.259515 g / cm^3
# Si number density = 22.646697 Si / 1000 Ang^3
#
#
#
# Elastic Constant Matrix: (Units=GPa)
#
#
# Indices 1 2 3 4 5 6 
#
# 1 63.2517 2.4689 1.4325 0.0000 0.0000 0.0000
# 2 2.4689 32.1953 -5.9696 0.0000 0.0000 0.0000
# 3 1.4325 -5.9696 30.4086 0.0000 0.0000 0.0000
# 4 0.0000 0.0000 0.0000 22.3681 0.0000 0.0000
# 5 0.0000 0.0000 0.0000 0.0000 43.4116 0.0000
# 6 0.0000 0.0000 0.0000 0.0000 0.0000 7.8463
#
#
#
# Elastic Compliance Matrix: (Units=1/GPa)
#
#
# Indices 1 2 3 4 5 6 
#
# 1 0.015888 -0.001408 -0.001025 0.000000 0.000000 0.000000
# 2 -0.001408 0.032359 0.006419 0.000000 0.000000 0.000000
# 3 -0.001025 0.006419 0.034194 0.000000 0.000000 0.000000
# 4 0.000000 0.000000 0.000000 0.044706 0.000000 0.000000
# 5 0.000000 0.000000 0.000000 0.000000 0.023035 0.000000
# 6 0.000000 0.000000 0.000000 0.000000 0.000000 0.127449
#
#
# Mechanical properties :
#
#
# Convention : Reuss Voigt Hill
#
# Bulk Modulus (GPa) = 11.06057 13.52435 12.29246
# Shear Modulus (GPa) = 16.67793 23.25346 19.96569
#
# Velocity S-wave (km/s) = 2.71669 3.20784 2.97242
# Velocity P-wave (km/s) = 3.83863 4.43905 4.14971
#
# Compressibility (1/GPa) = 0.09041125
#
# Stress axis : x y z
#
# Youngs Moduli (GPa) = 62.94046 30.90372 29.24509
#
# Poissons Ratio (x) = 0.04352 0.02997
# Poissons Ratio (y) = 0.08865 -0.18772
# Poissons Ratio (z) = 0.06451 -0.19836
#
# Static dielectric constant tensor:
#      x y z
#    x 1.845050 0.000000 0.000000 
#    y 0.000000 1.815390 0.000000 
#    z 0.000000 0.000000 1.796680 
# 
# From -- ./inp_files/31941.got.cif
#   From: 2010.05.17/outbox.cif.g08.bks.cpg/sg62_16_cif.got.tgz:31941.got - 2010.06.03 15:25:27.
