data_PCOD9465950
_publ_section_title
;
Structure prediction by ZEFSAII (Michael W. Deem and Ramdas Pophale) SiO2 
 PCOD9465950
Probable space group: P N M A
;
_chemical_formula_sum "Si O2"
_cell_formula_units_Z 64
_cell_length_a 9.844716
_cell_length_b 24.961101
_cell_length_c 13.642036
_cell_angle_alpha 90.000000
_cell_angle_beta 90.000000
_cell_angle_gamma 90.000000
_cell_volume 3352.325040
_symmetry_space_group_name_H-M "P N M A"
_symmetry_group_IT_number 62
_symmetry_cell_setting 'orthorhombic'
loop_
_space_group_symop_operation_xyz
x,y,z
1/2-x,-y,1/2+z
1/2+x,1/2-y,1/2-z
-x,1/2+y,-z
-x,-y,-z
1/2+x,y,1/2-z
1/2-x,1/2+y,1/2+z
x,1/2-y,z
loop_
_atom_site_type_symbol
_atom_site_label
_atom_site_fract_x
_atom_site_fract_y
_atom_site_fract_z
Si Si1 0.387137 0.934897 0.685478
Si Si2 0.538994 0.906855 0.087189
Si Si3 0.267816 0.418614 0.531016
Si Si4 0.186024 0.034782 0.963131
Si Si5 0.637895 0.632972 0.757228
Si Si6 0.037502 0.554084 0.199259
Si Si7 0.443241 0.189431 0.043358
Si Si8 0.767832 0.308988 0.072167
O O1 0.364325 0.943359 0.568877
O O2 0.247413 0.914427 0.732569
O O3 0.499915 0.891514 0.714005
O O4 0.432992 0.992314 0.726623
O O5 0.395426 0.920638 0.036328
O O6 0.661265 0.945384 0.054654
O O7 0.517542 0.912663 0.202774
O O8 0.578212 0.847469 0.051400
O O9 0.317715 0.470175 0.470078
O O10 0.332679 0.425994 0.637884
O O11 0.312857 0.361490 0.488125
O O12 0.088736 0.054200 0.875891
O O13 0.617616 0.658590 0.863657
O O14 0.692344 0.677799 0.683203
O O15 0.391754 0.250000 0.034455
O O16 0.605135 0.192032 0.061699
O O17 0.819437 0.250000 0.042518
#
# Coordination Sequence:
#
# PCOD9465950 Si02
#       8
#     8   8   8   8   8   8   8   8
#     4  11  25  36  63  92 129 163 196 249 309 374
#     4  11  23  37  64  88 116 165 210 250 300 374
#     4  10  22  40  59  89 123 163 204 253 306 363
#     4  11  22  41  59  92 130 160 198 253 312 362
#     4  12  21  40  60  94 121 162 201 244 311 378
#     4  11  24  39  59  90 129 161 198 254 307 365
#     4  10  22  41  60  86 120 158 208 261 302 358
#     4  10  21  38  62  87 118 161 206 252 303 364
#
# _framework density 19.091225999999999
#
# number of rings (size 3 to 8) (size 9 to 14) (size 15 to 20)
#    0.000    1.250    2.500    4.500    7.000    0.000 
#    0.000    0.625    0.000    2.250    0.000    0.000 
#    0.000    0.000    0.000    0.000    0.000    0.000 
#
# Total GULP energy -357657.498341 kJ/mol
# GULP energy per Si atom -5588.398412 kJ/mol
# Density = 1.904777 g / cm^3
# Si number density = 19.091226 Si / 1000 Ang^3
#
#
#
# Elastic Constant Matrix: (Units=GPa)
#
#
# Indices 1 2 3 4 5 6 
#
# 1 60.0693 25.6775 26.2521 0.0000 0.0000 0.0000
# 2 25.6775 112.1998 57.3096 0.0000 0.0000 0.0000
# 3 26.2521 57.3096 91.1468 0.0000 0.0000 0.0000
# 4 0.0000 0.0000 0.0000 18.1542 0.0000 0.0000
# 5 0.0000 0.0000 0.0000 0.0000 15.4157 0.0000
# 6 0.0000 0.0000 0.0000 0.0000 0.0000 10.5710
#
#
#
# Elastic Compliance Matrix: (Units=1/GPa)
#
#
# Indices 1 2 3 4 5 6 
#
# 1 0.019454 -0.002342 -0.004130 0.000000 0.000000 0.000000
# 2 -0.002342 0.013411 -0.007758 0.000000 0.000000 0.000000
# 3 -0.004130 -0.007758 0.017039 0.000000 0.000000 0.000000
# 4 0.000000 0.000000 0.000000 0.055084 0.000000 0.000000
# 5 0.000000 0.000000 0.000000 0.000000 0.064869 0.000000
# 6 0.000000 0.000000 0.000000 0.000000 0.000000 0.094599
#
#
# Mechanical properties :
#
#
# Convention : Reuss Voigt Hill
#
# Bulk Modulus (GPa) = 46.63574 53.54380 50.08977
# Shear Modulus (GPa) = 16.66311 19.10661 17.88486
#
# Velocity S-wave (km/s) = 2.95755 3.16698 3.06406
# Velocity P-wave (km/s) = 6.01196 6.44051 6.22992
#
# Compressibility (1/GPa) = 0.02144278
#
# Stress axis : x y z
#
# Youngs Moduli (GPa) = 51.40383 74.56388 58.68978
#
# Poissons Ratio (x) = 0.17466 0.24240
# Poissons Ratio (y) = 0.12041 0.45531
# Poissons Ratio (z) = 0.21231 0.57846
#
# Static dielectric constant tensor:
#      x y z
#    x 1.669440 0.000000 0.000000 
#    y 0.000000 1.667500 0.000000 
#    z 0.000000 0.000000 1.660710 
# 
# From -- ./inp_files/17370.got.cif
#   From: 2010.05.17/outbox.cif.g08.bks.cpg/sg62_9_cif.got.tgz:17370.got - 2010.06.03 15:25:27.
