data_PCOD9465848
_publ_section_title
;
Structure prediction by ZEFSAII (Michael W. Deem and Ramdas Pophale) SiO2 
 PCOD9465848
Probable space group: P N M A
;
_chemical_formula_sum "Si O2"
_cell_formula_units_Z 40
_cell_length_a 9.177184
_cell_length_b 25.201866
_cell_length_c 7.586387
_cell_angle_alpha 90.000000
_cell_angle_beta 90.000000
_cell_angle_gamma 90.000000
_cell_volume 1754.595983
_symmetry_space_group_name_H-M "P N M A"
_symmetry_group_IT_number 62
_symmetry_cell_setting 'orthorhombic'
loop_
_space_group_symop_operation_xyz
x,y,z
1/2-x,-y,1/2+z
1/2+x,1/2-y,1/2-z
-x,1/2+y,-z
-x,-y,-z
1/2+x,y,1/2-z
1/2-x,1/2+y,1/2+z
x,1/2-y,z
loop_
_atom_site_type_symbol
_atom_site_label
_atom_site_fract_x
_atom_site_fract_y
_atom_site_fract_z
Si Si1 0.827742 0.850471 0.002933
Si Si2 0.463403 0.527642 0.789177
Si Si3 0.219372 0.750000 0.284176
Si Si4 0.067265 0.250000 0.502899
Si Si5 0.294634 0.965206 0.419046
Si Si6 0.039242 0.647010 0.707731
O O1 0.709820 0.850829 0.841968
O O2 0.985892 0.849636 0.910593
O O3 0.789906 0.800677 0.120984
O O4 0.799380 0.902773 0.119039
O O5 0.603998 0.498231 0.712107
O O6 0.364834 0.490652 0.912304
O O7 0.365496 0.532416 0.611335
O O8 0.489373 0.587942 0.851278
O O9 0.271185 0.750000 0.082834
O O10 0.049477 0.750000 0.335495
O O11 0.032545 0.197038 0.391967
#
# Coordination Sequence:
#
# PCOD9465848 Si02
#       6
#     8   8   4   4   8   8
#     4  10  22  39  60  86 116 152 197 242 289 349
#     4  10  21  38  58  85 118 153 195 239 288 344
#     4  10  23  40  58  90 120 146 193 244 296 346
#     4  10  23  40  62  88 118 154 191 240 294 346
#     4  10  22  37  58  86 117 154 194 239 288 345
#     4  10  21  40  62  85 116 157 197 235 288 352
#
# _framework density 22.797270999999999
#
# number of rings (size 3 to 8) (size 9 to 14) (size 15 to 20)
#    0.000    2.000    0.000    3.000    0.000    9.600 
#    0.000    0.000    0.000    0.000    0.000    0.000 
#    0.000    0.000    0.000    0.000    0.000    0.000 
#
# Total GULP energy -223554.607313 kJ/mol
# GULP energy per Si atom -5588.865183 kJ/mol
# Density = 2.274538 g / cm^3
# Si number density = 22.797271 Si / 1000 Ang^3
#
#
#
# Elastic Constant Matrix: (Units=GPa)
#
#
# Indices 1 2 3 4 5 6 
#
# 1 84.8843 51.8199 7.6953 0.0000 0.0000 0.0000
# 2 51.8199 189.4162 32.5730 0.0000 0.0000 0.0000
# 3 7.6953 32.5730 34.0399 0.0000 0.0000 0.0000
# 4 0.0000 0.0000 0.0000 14.8328 0.0000 0.0000
# 5 0.0000 0.0000 0.0000 0.0000 45.6545 0.0000
# 6 0.0000 0.0000 0.0000 0.0000 0.0000 30.8469
#
#
#
# Elastic Compliance Matrix: (Units=1/GPa)
#
#
# Indices 1 2 3 4 5 6 
#
# 1 0.014153 -0.003976 0.000605 0.000000 0.000000 0.000000
# 2 -0.003976 0.007436 -0.006217 0.000000 0.000000 0.000000
# 3 0.000605 -0.006217 0.035189 0.000000 0.000000 0.000000
# 4 0.000000 0.000000 0.000000 0.067418 0.000000 0.000000
# 5 0.000000 0.000000 0.000000 0.000000 0.021904 0.000000
# 6 0.000000 0.000000 0.000000 0.000000 0.000000 0.032418
#
#
# Mechanical properties :
#
#
# Convention : Reuss Voigt Hill
#
# Bulk Modulus (GPa) = 26.59346 54.72408 40.65877
# Shear Modulus (GPa) = 23.78359 32.68365 28.23362
#
# Velocity S-wave (km/s) = 3.23347 3.79048 3.52300
# Velocity P-wave (km/s) = 5.06270 6.57372 5.86706
#
# Compressibility (1/GPa) = 0.03760323
#
# Stress axis : x y z
#
# Youngs Moduli (GPa) = 70.65558 134.47686 28.41758
#
# Poissons Ratio (x) = 0.53469 -0.01720
# Poissons Ratio (y) = 0.28093 0.17667
# Poissons Ratio (z) = -0.04276 0.83603
#
# Static dielectric constant tensor:
#      x y z
#    x 1.850330 0.000000 0.000000 
#    y 0.000000 1.826700 0.000000 
#    z 0.000000 0.000000 1.887190 
# 
# From -- ./inp_files/4421.got.cif
#   From: 2010.05.17/outbox.cif.g08.bks.cpg/sg62_3_cif.got.tgz:4421.got - 2010.06.03 15:25:27.
