data_PCOD9465374
_publ_section_title
;
Structure prediction by ZEFSAII (Michael W. Deem and Ramdas Pophale) SiO2 
 PCOD9465374
Probable space group: P N M A
;
_chemical_formula_sum "Si O2"
_cell_formula_units_Z 36
_cell_length_a 10.071036
_cell_length_b 18.911966
_cell_length_c 7.391972
_cell_angle_alpha 90.000000
_cell_angle_beta 90.000000
_cell_angle_gamma 90.000000
_cell_volume 1407.897831
_symmetry_space_group_name_H-M "P N M A"
_symmetry_group_IT_number 62
_symmetry_cell_setting 'orthorhombic'
loop_
_space_group_symop_operation_xyz
x,y,z
1/2-x,-y,1/2+z
1/2+x,1/2-y,1/2-z
-x,1/2+y,-z
-x,-y,-z
1/2+x,y,1/2-z
1/2-x,1/2+y,1/2+z
x,1/2-y,z
loop_
_atom_site_type_symbol
_atom_site_label
_atom_site_fract_x
_atom_site_fract_y
_atom_site_fract_z
Si Si1 0.641282 0.750000 0.045919
Si Si2 0.829048 0.873373 0.099937
Si Si3 0.233881 0.250000 0.354564
Si Si4 0.846252 0.905073 0.695844
Si Si5 0.973951 0.250000 0.877021
Si Si6 0.088560 0.514410 0.823032
O O1 0.709256 0.820006 0.132438
O O2 0.506823 0.750000 0.158429
O O3 0.677626 0.750000 0.834504
O O4 0.951515 0.820952 0.063677
O O5 0.863757 0.936007 0.236915
O O6 0.801009 0.908075 0.906785
O O7 0.150454 0.322332 0.352380
O O8 0.335395 0.250000 0.519390
O O9 0.717979 0.942813 0.613171
O O10 0.988836 0.943544 0.689673
O O11 0.000000 0.500000 0.000000
#
# Coordination Sequence:
#
# PCOD9465374 Si02
#       6
#     4   8   4   8   4   8
#     4   9  21  39  66  95 127 176 225 284 346 404
#     4   9  21  41  60  95 140 172 230 287 340 418
#     4  10  20  40  67  95 134 169 246 272 348 419
#     4  10  21  39  66  95 129 188 222 288 345 407
#     4  11  21  41  75  94 135 187 217 300 344 403
#     4  10  21  39  64  93 138 176 225 279 353 405
#
# _framework density 25.570039999999999
#
# number of rings (size 3 to 8) (size 9 to 14) (size 15 to 20)
#    0.000    2.222    0.000    3.333    3.111    0.889 
#    0.000   22.222    0.000    0.000    0.000    0.000 
#    0.000    0.000    0.000    0.000    0.000    0.000 
#
# Total GULP energy -201012.594534 kJ/mol
# GULP energy per Si atom -5583.683181 kJ/mol
# Density = 2.551184 g / cm^3
# Si number density = 25.570040 Si / 1000 Ang^3
#
#
#
# Elastic Constant Matrix: (Units=GPa)
#
#
# Indices 1 2 3 4 5 6 
#
# 1 61.1348 42.1670 29.3721 0.0000 0.0000 0.0000
# 2 42.1670 177.4586 17.3714 0.0000 0.0000 0.0000
# 3 29.3721 17.3714 97.5916 0.0000 0.0000 0.0000
# 4 0.0000 0.0000 0.0000 18.2864 0.0000 0.0000
# 5 0.0000 0.0000 0.0000 0.0000 31.0885 0.0000
# 6 0.0000 0.0000 0.0000 0.0000 0.0000 141.7807
#
#
#
# Elastic Compliance Matrix: (Units=1/GPa)
#
#
# Indices 1 2 3 4 5 6 
#
# 1 0.022487 -0.004764 -0.005920 0.000000 0.000000 0.000000
# 2 -0.004764 0.006744 0.000233 0.000000 0.000000 0.000000
# 3 -0.005920 0.000233 0.011987 0.000000 0.000000 0.000000
# 4 0.000000 0.000000 0.000000 0.054686 0.000000 0.000000
# 5 0.000000 0.000000 0.000000 0.000000 0.032166 0.000000
# 6 0.000000 0.000000 0.000000 0.000000 0.000000 0.007053
#
#
# Mechanical properties :
#
#
# Convention : Reuss Voigt Hill
#
# Bulk Modulus (GPa) = 49.21885 57.11180 53.16532
# Shear Modulus (GPa) = 30.71304 54.71608 42.71456
#
# Velocity S-wave (km/s) = 3.46950 4.63087 4.09160
# Velocity P-wave (km/s) = 5.94477 7.13983 6.56953
#
# Compressibility (1/GPa) = 0.02031742
#
# Stress axis : x y z
#
# Youngs Moduli (GPa) = 44.46940 148.27447 83.42367
#
# Poissons Ratio (x) = 0.70636 0.49387
# Poissons Ratio (y) = 0.21185 -0.01946
# Poissons Ratio (z) = 0.26326 -0.03459
#
# Static dielectric constant tensor:
#      x y z
#    x 2.030130 0.000000 0.000000 
#    y 0.000000 2.060640 0.000000 
#    z 0.000000 0.000000 2.003790 
# 
# From -- ./inp_files/4212.got.cif
#   From: 2010.05.17/outbox.cif.g08.bks.cpg/sg62_3_cif.got.tgz:4212.got - 2010.06.03 15:25:27.
