data_PCOD9465819
_publ_section_title
;
Structure prediction by ZEFSAII (Michael W. Deem and Ramdas Pophale) SiO2 
 PCOD9465819
Probable space group: P N M A
;
_chemical_formula_sum "Si O2"
_cell_formula_units_Z 32
_cell_length_a 8.454686
_cell_length_b 15.992963
_cell_length_c 9.657968
_cell_angle_alpha 90.000000
_cell_angle_beta 90.000000
_cell_angle_gamma 90.000000
_cell_volume 1305.906783
_symmetry_space_group_name_H-M "P N M A"
_symmetry_group_IT_number 62
_symmetry_cell_setting 'orthorhombic'
loop_
_space_group_symop_operation_xyz
x,y,z
1/2-x,-y,1/2+z
1/2+x,1/2-y,1/2-z
-x,1/2+y,-z
-x,-y,-z
1/2+x,y,1/2-z
1/2-x,1/2+y,1/2+z
x,1/2-y,z
loop_
_atom_site_type_symbol
_atom_site_label
_atom_site_fract_x
_atom_site_fract_y
_atom_site_fract_z
Si Si1 0.544568 0.658784 0.035503
Si Si2 0.020449 0.598107 0.957010
Si Si3 0.273784 0.379542 0.698234
Si Si4 0.288079 0.076929 0.193291
O O1 0.549576 0.750000 0.968403
O O2 0.383884 0.650105 0.122226
O O3 0.683105 0.651285 0.149926
O O4 0.570337 0.590153 0.916740
O O5 0.157862 0.606936 0.842978
O O6 0.860347 0.622131 0.878370
O O7 0.079476 0.640896 0.096527
O O8 0.000000 0.500000 0.000000
O O9 0.254334 0.479744 0.708408
#
# Coordination Sequence:
#
# PCOD9465819 Si02
#       4
#     8   8   8   8
#     4  12  25  41  63  97 135 173 218 281 344 399
#     4  10  21  37  64  96 122 160 214 268 315 373
#     4  11  21  40  66  93 127 170 219 266 328 405
#     4  11  21  40  65  94 127 169 221 269 322 395
#
# _framework density 24.504048000000001
#
# number of rings (size 3 to 8) (size 9 to 14) (size 15 to 20)
#    0.000    1.000    0.000   10.500    0.000    0.000 
#    0.000    7.500    0.000    0.000    0.000    0.000 
#    0.000    0.000    0.000    0.000    0.000    0.000 
#
# Total GULP energy -179112.666966 kJ/mol
# GULP energy per Si atom -5597.270843 kJ/mol
# Density = 2.444828 g / cm^3
# Si number density = 24.504048 Si / 1000 Ang^3
#
#
#
# Elastic Constant Matrix: (Units=GPa)
#
#
# Indices 1 2 3 4 5 6 
#
# 1 79.4032 -12.0699 9.3621 0.0000 0.0000 0.0000
# 2 -12.0699 37.3827 -1.0148 0.0000 0.0000 0.0000
# 3 9.3621 -1.0148 125.3743 0.0000 0.0000 0.0000
# 4 0.0000 0.0000 0.0000 12.0772 0.0000 0.0000
# 5 0.0000 0.0000 0.0000 0.0000 56.4032 0.0000
# 6 0.0000 0.0000 0.0000 0.0000 0.0000 -19.0116
#
#
#
# Elastic Compliance Matrix: (Units=1/GPa)
#
#
# Indices 1 2 3 4 5 6 
#
# 1 0.013359 0.004287 -0.000963 0.000000 0.000000 0.000000
# 2 0.004287 0.028132 -0.000092 0.000000 0.000000 0.000000
# 3 -0.000963 -0.000092 0.008047 0.000000 0.000000 0.000000
# 4 0.000000 0.000000 0.000000 0.082801 0.000000 0.000000
# 5 0.000000 0.000000 0.000000 0.000000 0.017730 0.000000
# 6 0.000000 0.000000 0.000000 0.000000 0.000000 -0.052599
#
#
# Mechanical properties :
#
#
# Convention : Reuss Voigt Hill
#
# Bulk Modulus (GPa) = 17.85642 26.07944 21.96793
# Shear Modulus (GPa) = 45.59015 26.28594 35.93805
#
# Velocity S-wave (km/s) = 4.31805 3.27879 3.83380
# Velocity P-wave (km/s) = 5.67130 5.00000 5.34620
#
# Compressibility (1/GPa) = 0.05600228
#
# Stress axis : x y z
#
# Youngs Moduli (GPa) = 74.85495 35.54664 124.26580
#
# Poissons Ratio (x) = -0.15240 0.11965
# Poissons Ratio (y) = -0.32092 0.01149
# Poissons Ratio (z) = 0.07208 0.00329
#
# Static dielectric constant tensor:
#      x y z
#    x 2.033630 0.000000 0.000000 
#    y 0.000000 1.749000 0.000000 
#    z 0.000000 0.000000 1.896410 
# 
# From -- ./inp_files/4107.got.cif
#   From: 2010.05.17/outbox.cif.g08.bks.cpg/sg62_3_cif.got.tgz:4107.got - 2010.06.03 15:25:27.
