data_PCOD9465226
_publ_section_title
;
Structure prediction by ZEFSAII (Michael W. Deem and Ramdas Pophale) SiO2 
 PCOD9465226
Probable space group: P N M A
;
_chemical_formula_sum "Si O2"
_cell_formula_units_Z 40
_cell_length_a 8.616899
_cell_length_b 22.299597
_cell_length_c 9.245460
_cell_angle_alpha 90.000000
_cell_angle_beta 90.000000
_cell_angle_gamma 90.000000
_cell_volume 1776.546343
_symmetry_space_group_name_H-M "P N M A"
_symmetry_group_IT_number 62
_symmetry_cell_setting 'orthorhombic'
loop_
_space_group_symop_operation_xyz
x,y,z
1/2-x,-y,1/2+z
1/2+x,1/2-y,1/2-z
-x,1/2+y,-z
-x,-y,-z
1/2+x,y,1/2-z
1/2-x,1/2+y,1/2+z
x,1/2-y,z
loop_
_atom_site_type_symbol
_atom_site_label
_atom_site_fract_x
_atom_site_fract_y
_atom_site_fract_z
Si Si1 0.847498 0.116329 0.333289
Si Si2 0.166582 0.052193 0.403726
Si Si3 0.805188 0.250000 0.275545
Si Si4 0.881996 0.624897 0.087591
Si Si5 0.507575 0.250000 0.472844
Si Si6 0.680132 0.563466 0.296658
O O1 0.793537 0.094467 0.175670
O O2 0.874846 0.187615 0.332729
O O3 0.702140 0.105640 0.439529
O O4 0.999625 0.082481 0.384876
O O5 0.210156 0.045672 0.570348
O O6 0.170062 0.990052 0.317670
O O7 0.630372 0.250000 0.337721
O O8 0.840009 0.250000 0.104097
O O9 0.751576 0.620286 0.211766
O O10 0.014303 0.579345 0.137229
O O11 0.954913 0.690146 0.061527
#
# Coordination Sequence:
#
# PCOD9465226 Si02
#       6
#     8   8   4   8   4   8
#     4  11  23  42  67  99 130 171 218 271 326 392
#     4  12  25  42  67  94 130 172 221 271 330 391
#     4  10  20  38  66  96 130 166 210 258 316 382
#     4  11  25  44  67  96 133 171 219 269 329 389
#     4  10  22  42  68 100 134 172 216 268 322 388
#     4  12  26  45  66  94 131 176 219 274 330 393
#
# _framework density 22.515595999999999
#
# number of rings (size 3 to 8) (size 9 to 14) (size 15 to 20)
#    0.000    0.800    0.000    8.400    0.000    5.600 
#    0.000    6.000    0.000    0.000    0.000    0.000 
#    0.000    0.000    0.000    0.000    0.000    0.000 
#
# Total GULP energy -224084.801597 kJ/mol
# GULP energy per Si atom -5602.120040 kJ/mol
# Density = 2.246435 g / cm^3
# Si number density = 22.515596 Si / 1000 Ang^3
#
#
#
# Elastic Constant Matrix: (Units=GPa)
#
#
# Indices 1 2 3 4 5 6 
#
# 1 61.5121 23.0703 9.3430 0.0000 0.0000 0.0000
# 2 23.0703 107.7304 35.9995 0.0000 0.0000 0.0000
# 3 9.3430 35.9995 106.7722 0.0000 0.0000 0.0000
# 4 0.0000 0.0000 0.0000 27.9412 0.0000 0.0000
# 5 0.0000 0.0000 0.0000 0.0000 51.4980 0.0000
# 6 0.0000 0.0000 0.0000 0.0000 0.0000 18.4352
#
#
#
# Elastic Compliance Matrix: (Units=1/GPa)
#
#
# Indices 1 2 3 4 5 6 
#
# 1 0.017686 -0.003685 -0.000305 0.000000 0.000000 0.000000
# 2 -0.003685 0.011229 -0.003464 0.000000 0.000000 0.000000
# 3 -0.000305 -0.003464 0.010560 0.000000 0.000000 0.000000
# 4 0.000000 0.000000 0.000000 0.035790 0.000000 0.000000
# 5 0.000000 0.000000 0.000000 0.000000 0.019418 0.000000
# 6 0.000000 0.000000 0.000000 0.000000 0.000000 0.054244
#
#
# Mechanical properties :
#
#
# Convention : Reuss Voigt Hill
#
# Bulk Modulus (GPa) = 40.70512 45.87114 43.28813
# Shear Modulus (GPa) = 29.06582 33.41499 31.24041
#
# Velocity S-wave (km/s) = 3.59683 3.85656 3.72896
# Velocity P-wave (km/s) = 5.94706 6.34413 6.14880
#
# Compressibility (1/GPa) = 0.02456693
#
# Stress axis : x y z
#
# Youngs Moduli (GPa) = 56.54342 89.05483 94.69539
#
# Poissons Ratio (x) = 0.32821 0.02888
# Poissons Ratio (y) = 0.20839 0.32798
# Poissons Ratio (z) = 0.01724 0.30844
#
# Static dielectric constant tensor:
#      x y z
#    x 1.852270 0.000000 0.000000 
#    y 0.000000 1.815060 0.000000 
#    z 0.000000 0.000000 1.813890 
# 
# From -- ./inp_files/4310.got.cif
#   From: 2010.05.17/outbox.cif.g08.bks.cpg/sg62_3_cif.got.tgz:4310.got - 2010.06.03 15:25:27.
