data_PCOD9465494
_publ_section_title
;
Structure prediction by ZEFSAII (Michael W. Deem and Ramdas Pophale) SiO2 
 PCOD9465494
Probable space group: P N M A
;
_chemical_formula_sum "Si O2"
_cell_formula_units_Z 64
_cell_length_a 14.475563
_cell_length_b 18.323351
_cell_length_c 13.715629
_cell_angle_alpha 90.000000
_cell_angle_beta 90.000000
_cell_angle_gamma 90.000000
_cell_volume 3637.944707
_symmetry_space_group_name_H-M "P N M A"
_symmetry_group_IT_number 62
_symmetry_cell_setting 'orthorhombic'
loop_
_space_group_symop_operation_xyz
x,y,z
1/2-x,-y,1/2+z
1/2+x,1/2-y,1/2-z
-x,1/2+y,-z
-x,-y,-z
1/2+x,y,1/2-z
1/2-x,1/2+y,1/2+z
x,1/2-y,z
loop_
_atom_site_type_symbol
_atom_site_label
_atom_site_fract_x
_atom_site_fract_y
_atom_site_fract_z
Si Si1 0.089385 0.166981 0.364116
Si Si2 0.573699 0.894924 0.977064
Si Si3 0.564822 0.049498 0.634789
Si Si4 0.223560 0.414603 0.505661
Si Si5 0.073699 0.605076 0.977064
Si Si6 0.064822 0.049498 0.634789
Si Si7 0.276440 0.585397 0.494339
Si Si8 0.910614 0.666981 0.864116
O O1 0.123840 0.250000 0.374368
O O2 0.158801 0.111196 0.416812
O O3 0.079931 0.150256 0.250000
O O4 0.991173 0.160151 0.418245
O O5 0.678768 0.873818 0.999651
O O6 0.573269 0.967737 0.909143
O O7 0.521029 0.915490 0.076896
O O8 0.478970 0.084509 0.576896
O O9 0.554032 0.048733 0.750000
O O10 0.657615 0.091593 0.599848
O O11 0.573269 0.967737 0.590857
O O12 0.321232 0.373818 0.499650
O O13 0.157615 0.408407 0.599848
O O14 0.250000 0.500000 0.500000
O O15 0.008827 0.660151 0.918246
O O16 0.341198 0.611196 0.583188
O O17 0.876160 0.750000 0.874368
#
# Coordination Sequence:
#
# PCOD9465494 Si02
#       8
#     8   8   8   8   8   8   8   8
#     4  10  21  35  52  78 111 143 176 219 272 330
#     4   9  18  32  49  73 103 135 170 210 259 314
#     4   9  17  30  50  76 103 130 167 216 262 307
#     4   9  19  33  50  76 107 139 178 221 264 313
#     4   9  18  32  49  73 103 135 170 210 259 314
#     4   9  17  30  50  76 103 130 167 216 262 307
#     4   9  19  33  50  76 107 139 178 221 264 313
#     4  10  21  35  52  78 111 143 176 219 272 330
#
# _framework density 17.592351000000001
#
# number of rings (size 3 to 8) (size 9 to 14) (size 15 to 20)
#    0.000    2.750    0.000    2.250    0.000    7.000 
#    0.000    2.500    0.000   12.000    0.000   14.000 
#    0.000    0.000    0.000    0.000    0.000    0.000 
#
# Total GULP energy -356406.432343 kJ/mol
# GULP energy per Si atom -5568.850505 kJ/mol
# Density = 1.755231 g / cm^3
# Si number density = 17.592351 Si / 1000 Ang^3
#
#
#
# Elastic Constant Matrix: (Units=GPa)
#
#
# Indices 1 2 3 4 5 6 
#
# 1 126.5839 17.9008 54.3282 0.0000 0.0000 0.0000
# 2 17.9008 41.6702 27.3071 0.0000 0.0000 0.0000
# 3 54.3282 27.3071 165.0260 0.0000 0.0000 0.0000
# 4 0.0000 0.0000 0.0000 19.9867 0.0000 0.0000
# 5 0.0000 0.0000 0.0000 0.0000 9.0988 0.0000
# 6 0.0000 0.0000 0.0000 0.0000 0.0000 19.9493
#
#
#
# Elastic Compliance Matrix: (Units=1/GPa)
#
#
# Indices 1 2 3 4 5 6 
#
# 1 0.009384 -0.002251 -0.002717 0.000000 0.000000 0.000000
# 2 -0.002251 0.027457 -0.003802 0.000000 0.000000 0.000000
# 3 -0.002717 -0.003802 0.007583 0.000000 0.000000 0.000000
# 4 0.000000 0.000000 0.000000 0.050033 0.000000 0.000000
# 5 0.000000 0.000000 0.000000 0.000000 0.109905 0.000000
# 6 0.000000 0.000000 0.000000 0.000000 0.000000 0.050127
#
#
# Mechanical properties :
#
#
# Convention : Reuss Voigt Hill
#
# Bulk Modulus (GPa) = 37.19690 59.15026 48.17358
# Shear Modulus (GPa) = 17.79416 25.38988 21.59202
#
# Velocity S-wave (km/s) = 3.18381 3.80311 3.50716
# Velocity P-wave (km/s) = 5.89112 7.27878 6.62140
#
# Compressibility (1/GPa) = 0.02688396
#
# Stress axis : x y z
#
# Youngs Moduli (GPa) = 106.56117 36.42112 131.86931
#
# Poissons Ratio (x) = 0.08198 0.35828
# Poissons Ratio (y) = 0.23986 0.50140
# Poissons Ratio (z) = 0.28952 0.13848
#
# Static dielectric constant tensor:
#      x y z
#    x 1.641210 0.000000 0.000000 
#    y 0.000000 1.615690 0.000000 
#    z 0.000000 0.000000 1.564600 
# 
# From -- ./inp_files/19232.got.cif
#   From: 2010.05.17/outbox.cif.g08.bks.cpg/sg62_10_cif.got.tgz:19232.got - 2010.06.03 15:25:27.
