data_PCOD9465833
_publ_section_title
;
Structure prediction by ZEFSAII (Michael W. Deem and Ramdas Pophale) SiO2 
 PCOD9465833
Probable space group: P N M A
;
_chemical_formula_sum "Si O2"
_cell_formula_units_Z 40
_cell_length_a 16.445084
_cell_length_b 9.642205
_cell_length_c 11.951208
_cell_angle_alpha 90.000000
_cell_angle_beta 90.000000
_cell_angle_gamma 90.000000
_cell_volume 1895.065659
_symmetry_space_group_name_H-M "P N M A"
_symmetry_group_IT_number 62
_symmetry_cell_setting 'orthorhombic'
loop_
_space_group_symop_operation_xyz
x,y,z
1/2-x,-y,1/2+z
1/2+x,1/2-y,1/2-z
-x,1/2+y,-z
-x,-y,-z
1/2+x,y,1/2-z
1/2-x,1/2+y,1/2+z
x,1/2-y,z
loop_
_atom_site_type_symbol
_atom_site_label
_atom_site_fract_x
_atom_site_fract_y
_atom_site_fract_z
Si Si1 0.953264 0.750000 0.817654
Si Si2 0.357190 0.250000 0.322523
Si Si3 0.635159 0.750000 0.411231
Si Si4 0.593303 0.956582 0.238182
Si Si5 0.628630 0.250000 0.562391
Si Si6 0.754511 0.496488 0.119232
Si Si7 0.804379 0.750000 0.460360
Si Si8 0.041192 0.250000 0.693858
O O1 0.916282 0.616841 0.758724
O O2 0.049332 0.750000 0.788777
O O3 0.927808 0.750000 0.950193
O O4 0.366040 0.250000 0.457209
O O5 0.306808 0.108397 0.300265
O O6 0.594411 0.883708 0.359243
O O7 0.729117 0.750000 0.375195
O O8 0.517564 0.882700 0.179346
O O9 0.678899 0.930717 0.178899
O O10 0.685378 0.388717 0.566313
O O11 0.579209 0.250000 0.680286
O O12 0.712138 0.388601 0.032784
O O13 0.887878 0.750000 0.395957
#
# Coordination Sequence:
#
# PCOD9465833 Si02
#       8
#     4   4   4   8   4   8   4   4
#     4  12  22  35  60  94 120 141 191 256 299 324
#     4  10  21  38  57  82 117 154 190 242 298 346
#     4   9  19  36  58  78 112 156 188 228 296 361
#     4  11  22  38  59  86 119 155 191 239 291 345
#     4  12  23  37  63  94 116 148 194 241 295 350
#     4  10  22  40  60  83 118 159 195 233 288 352
#     4  10  21  41  61  82 114 158 200 239 282 340
#     4  11  24  39  61  86 117 159 197 234 286 351
#
# _framework density 21.107447000000001
#
# number of rings (size 3 to 8) (size 9 to 14) (size 15 to 20)
#    0.000    1.600    0.000    8.400    0.000    3.200 
#    0.000    3.000    0.000    0.000    0.000    0.000 
#    0.000    0.000    0.000    0.000    0.000    0.000 
#
# Total GULP energy -223205.026238 kJ/mol
# GULP energy per Si atom -5580.125656 kJ/mol
# Density = 2.105941 g / cm^3
# Si number density = 21.107447 Si / 1000 Ang^3
#
#
#
# Elastic Constant Matrix: (Units=GPa)
#
#
# Indices 1 2 3 4 5 6 
#
# 1 105.7364 19.3534 22.2398 0.0000 0.0000 0.0000
# 2 19.3534 129.4069 12.7392 0.0000 0.0000 0.0000
# 3 22.2398 12.7392 30.0943 0.0000 0.0000 0.0000
# 4 0.0000 0.0000 0.0000 46.3355 0.0000 0.0000
# 5 0.0000 0.0000 0.0000 0.0000 33.8237 0.0000
# 6 0.0000 0.0000 0.0000 0.0000 0.0000 24.3442
#
#
#
# Elastic Compliance Matrix: (Units=1/GPa)
#
#
# Indices 1 2 3 4 5 6 
#
# 1 0.011299 -0.000906 -0.007967 0.000000 0.000000 0.000000
# 2 -0.000906 0.008136 -0.002775 0.000000 0.000000 0.000000
# 3 -0.007967 -0.002775 0.040291 0.000000 0.000000 0.000000
# 4 0.000000 0.000000 0.000000 0.021582 0.000000 0.000000
# 5 0.000000 0.000000 0.000000 0.000000 0.029565 0.000000
# 6 0.000000 0.000000 0.000000 0.000000 0.000000 0.041078
#
#
# Mechanical properties :
#
#
# Convention : Reuss Voigt Hill
#
# Bulk Modulus (GPa) = 27.44852 41.54471 34.49661
# Shear Modulus (GPa) = 26.68257 34.96103 30.82180
#
# Velocity S-wave (km/s) = 3.55932 4.07423 3.82545
# Velocity P-wave (km/s) = 5.47029 6.46975 5.99090
#
# Compressibility (1/GPa) = 0.03643184
#
# Stress axis : x y z
#
# Youngs Moduli (GPa) = 88.50458 122.90803 24.81951
#
# Poissons Ratio (x) = 0.11130 0.19773
# Poissons Ratio (y) = 0.08014 0.06887
# Poissons Ratio (z) = 0.70508 0.34106
#
# Static dielectric constant tensor:
#      x y z
#    x 1.812490 0.000000 0.000000 
#    y 0.000000 1.769370 0.000000 
#    z 0.000000 0.000000 1.760460 
# 
# From -- ./inp_files/18707.got.cif
#   From: 2010.05.17/outbox.cif.g08.bks.cpg/sg62_10_cif.got.tgz:18707.got - 2010.06.03 15:25:27.
