data_PCOD9465527
_publ_section_title
;
Structure prediction by ZEFSAII (Michael W. Deem and Ramdas Pophale) SiO2 
 PCOD9465527
Probable space group: P N M A
;
_chemical_formula_sum "Si O2"
_cell_formula_units_Z 48
_cell_length_a 9.214117
_cell_length_b 20.740151
_cell_length_c 12.527643
_cell_angle_alpha 90.000000
_cell_angle_beta 90.000000
_cell_angle_gamma 90.000000
_cell_volume 2394.059861
_symmetry_space_group_name_H-M "P N M A"
_symmetry_group_IT_number 62
_symmetry_cell_setting 'orthorhombic'
loop_
_space_group_symop_operation_xyz
x,y,z
1/2-x,-y,1/2+z
1/2+x,1/2-y,1/2-z
-x,1/2+y,-z
-x,-y,-z
1/2+x,y,1/2-z
1/2-x,1/2+y,1/2+z
x,1/2-y,z
loop_
_atom_site_type_symbol
_atom_site_label
_atom_site_fract_x
_atom_site_fract_y
_atom_site_fract_z
Si Si1 0.379066 0.086824 0.895689
Si Si2 0.241809 0.827076 0.801849
Si Si3 0.271184 0.510218 0.558253
Si Si4 0.554520 0.672741 0.900426
Si Si5 0.374452 0.541185 0.261827
Si Si6 0.950267 0.424843 0.078964
O O1 0.504017 0.075955 0.808710
O O2 0.230334 0.089426 0.826698
O O3 0.350672 0.023859 0.970025
O O4 0.420783 0.139697 0.984802
O O5 0.236511 0.750000 0.813699
O O6 0.186970 0.841311 0.681538
O O7 0.402613 0.848337 0.841654
O O8 0.119766 0.861611 0.873281
O O9 0.216853 0.499331 0.675792
O O10 0.381671 0.570396 0.551104
O O11 0.356543 0.446495 0.522361
O O12 0.546499 0.750000 0.912888
O O13 0.432492 0.485386 0.339923
#
# Coordination Sequence:
#
# PCOD9465527 Si02
#       6
#     8   8   8   8   8   8
#     4  11  23  39  62  89 124 161 206 256 303 367
#     4  10  22  39  63  90 121 157 199 252 308 370
#     4  10  21  36  56  91 122 162 198 247 311 359
#     4  10  23  43  63  90 121 160 206 255 308 363
#     4  11  21  38  59  90 123 162 203 249 309 367
#     4  10  21  35  58  88 124 156 202 250 306 371
#
# _framework density 20.049624000000001
#
# number of rings (size 3 to 8) (size 9 to 14) (size 15 to 20)
#    0.000    1.667    1.667    2.500    4.667    1.333 
#    0.000    0.833    0.000    1.000    0.000    0.000 
#    0.000    0.000    0.000    0.000    0.000    0.000 
#
# Total GULP energy -267737.581228 kJ/mol
# GULP energy per Si atom -5577.866276 kJ/mol
# Density = 2.000399 g / cm^3
# Si number density = 20.049624 Si / 1000 Ang^3
#
#
#
# Elastic Constant Matrix: (Units=GPa)
#
#
# Indices 1 2 3 4 5 6 
#
# 1 118.8300 34.0924 69.8489 0.0000 0.0000 0.0000
# 2 34.0924 40.9190 28.2323 0.0000 0.0000 0.0000
# 3 69.8489 28.2323 115.8966 0.0000 0.0000 0.0000
# 4 0.0000 0.0000 0.0000 23.5064 0.0000 0.0000
# 5 0.0000 0.0000 0.0000 0.0000 42.9913 0.0000
# 6 0.0000 0.0000 0.0000 0.0000 0.0000 26.3418
#
#
#
# Elastic Compliance Matrix: (Units=1/GPa)
#
#
# Indices 1 2 3 4 5 6 
#
# 1 0.014670 -0.007359 -0.007049 0.000000 0.000000 0.000000
# 2 -0.007359 0.033068 -0.003620 0.000000 0.000000 0.000000
# 3 -0.007049 -0.003620 0.013758 0.000000 0.000000 0.000000
# 4 0.000000 0.000000 0.000000 0.042542 0.000000 0.000000
# 5 0.000000 0.000000 0.000000 0.000000 0.023260 0.000000
# 6 0.000000 0.000000 0.000000 0.000000 0.000000 0.037962
#
#
# Mechanical properties :
#
#
# Convention : Reuss Voigt Hill
#
# Bulk Modulus (GPa) = 39.30784 59.99921 49.65353
# Shear Modulus (GPa) = 23.83262 28.13270 25.98266
#
# Velocity S-wave (km/s) = 3.45147 3.74993 3.60379
# Velocity P-wave (km/s) = 5.96082 6.98138 6.49119
#
# Compressibility (1/GPa) = 0.02544022
#
# Stress axis : x y z
#
# Youngs Moduli (GPa) = 68.16624 30.24097 72.68344
#
# Poissons Ratio (x) = 0.22255 0.51232
# Poissons Ratio (y) = 0.50166 0.26311
# Poissons Ratio (z) = 0.48048 0.10947
#
# Static dielectric constant tensor:
#      x y z
#    x 1.808510 0.000000 0.000000 
#    y 0.000000 1.686190 0.000000 
#    z 0.000000 0.000000 1.725210 
# 
# From -- ./inp_files/11316.got.cif
#   From: 2010.05.17/outbox.cif.g08.bks.cpg/sg62_6_cif.got.tgz:11316.got - 2010.06.03 15:25:27.
