data_PCOD9465086
_publ_section_title
;
Structure prediction by ZEFSAII (Michael W. Deem and Ramdas Pophale) SiO2 
 PCOD9465086
Probable space group: P N M A
;
_chemical_formula_sum "Si O2"
_cell_formula_units_Z 32
_cell_length_a 15.266646
_cell_length_b 8.813313
_cell_length_c 13.544403
_cell_angle_alpha 90.000000
_cell_angle_beta 90.000000
_cell_angle_gamma 90.000000
_cell_volume 1822.395762
_symmetry_space_group_name_H-M "P N M A"
_symmetry_group_IT_number 62
_symmetry_cell_setting 'orthorhombic'
loop_
_space_group_symop_operation_xyz
x,y,z
1/2-x,-y,1/2+z
1/2+x,1/2-y,1/2-z
-x,1/2+y,-z
-x,-y,-z
1/2+x,y,1/2-z
1/2-x,1/2+y,1/2+z
x,1/2-y,z
loop_
_atom_site_type_symbol
_atom_site_label
_atom_site_fract_x
_atom_site_fract_y
_atom_site_fract_z
Si Si1 0.064284 0.927754 0.420791
Si Si2 0.859729 0.569051 0.763534
Si Si3 0.241303 0.428040 0.889905
Si Si4 0.905764 0.431166 0.974696
O O1 0.044928 0.750000 0.406395
O O2 0.167115 0.939311 0.451627
O O3 0.066467 0.013895 0.315454
O O4 0.000000 0.000000 0.500000
O O5 0.857850 0.750000 0.769416
O O6 0.771105 0.504167 0.713024
O O7 0.876260 0.495628 0.868868
O O8 0.221752 0.250000 0.877153
O O9 0.163978 0.512917 0.944375
O O10 0.909775 0.250000 0.972208
O O11 0.000000 0.500000 0.000000
#
# Coordination Sequence:
#
# PCOD9465086 Si02
#       4
#     8   8   8   8
#     4   9  18  34  58  86 120 154 196 246 297 354
#     4  10  20  38  60  85 119 155 197 245 296 355
#     4   9  20  39  60  87 120 156 200 248 295 354
#     4  12  24  41  63  89 123 162 202 251 305 363
#
# _framework density 17.559304000000001
#
# number of rings (size 3 to 8) (size 9 to 14) (size 15 to 20)
#    1.500    0.500    0.000    5.250    0.000    0.000 
#    4.500    0.000    0.000    0.000    0.000    0.000 
#    0.000    0.000    0.000    0.000    0.000    0.000 
#
# Total GULP energy -178226.887330 kJ/mol
# GULP energy per Si atom -5569.590229 kJ/mol
# Density = 1.751934 g / cm^3
# Si number density = 17.559304 Si / 1000 Ang^3
#
#
#
# Elastic Constant Matrix: (Units=GPa)
#
#
# Indices 1 2 3 4 5 6 
#
# 1 93.5756 74.7643 71.8388 0.0000 0.0000 0.0000
# 2 74.7643 210.4172 80.5440 0.0000 0.0000 0.0000
# 3 71.8388 80.5440 133.6612 0.0000 0.0000 0.0000
# 4 0.0000 0.0000 0.0000 35.2896 0.0000 0.0000
# 5 0.0000 0.0000 0.0000 0.0000 30.5100 0.0000
# 6 0.0000 0.0000 0.0000 0.0000 0.0000 31.8210
#
#
#
# Elastic Compliance Matrix: (Units=1/GPa)
#
#
# Indices 1 2 3 4 5 6 
#
# 1 0.020473 -0.003981 -0.008605 0.000000 0.000000 0.000000
# 2 -0.003981 0.006951 -0.002049 0.000000 0.000000 0.000000
# 3 -0.008605 -0.002049 0.013341 0.000000 0.000000 0.000000
# 4 0.000000 0.000000 0.000000 0.028337 0.000000 0.000000
# 5 0.000000 0.000000 0.000000 0.000000 0.032776 0.000000
# 6 0.000000 0.000000 0.000000 0.000000 0.000000 0.031426
#
#
# Mechanical properties :
#
#
# Convention : Reuss Voigt Hill
#
# Bulk Modulus (GPa) = 86.98714 99.10538 93.04626
# Shear Modulus (GPa) = 30.04692 33.55789 31.80240
#
# Velocity S-wave (km/s) = 4.14111 4.37638 4.26037
# Velocity P-wave (km/s) = 8.51538 9.06089 8.79237
#
# Compressibility (1/GPa) = 0.01149595
#
# Stress axis : x y z
#
# Youngs Moduli (GPa) = 48.84494 143.85831 74.95424
#
# Poissons Ratio (x) = 0.57263 0.64498
# Poissons Ratio (y) = 0.19443 0.15361
# Poissons Ratio (z) = 0.42031 0.29483
#
# Static dielectric constant tensor:
#      x y z
#    x 1.597710 0.000000 0.000000 
#    y 0.000000 1.578400 0.000000 
#    z 0.000000 0.000000 1.582510 
# 
# From -- ./inp_files/12770.got.cif
#   From: 2010.05.17/outbox.cif.g08.bks.cpg/sg62_7_cif.got.tgz:12770.got - 2010.06.03 15:25:27.
