data_PCOD9465616
_publ_section_title
;
Structure prediction by ZEFSAII (Michael W. Deem and Ramdas Pophale) SiO2 
 PCOD9465616
Probable space group: P N M A
;
_chemical_formula_sum "Si O2"
_cell_formula_units_Z 64
_cell_length_a 9.759720
_cell_length_b 28.406155
_cell_length_c 11.674439
_cell_angle_alpha 90.000000
_cell_angle_beta 90.000000
_cell_angle_gamma 90.000000
_cell_volume 3236.576161
_symmetry_space_group_name_H-M "P N M A"
_symmetry_group_IT_number 62
_symmetry_cell_setting 'orthorhombic'
loop_
_space_group_symop_operation_xyz
x,y,z
1/2-x,-y,1/2+z
1/2+x,1/2-y,1/2-z
-x,1/2+y,-z
-x,-y,-z
1/2+x,y,1/2-z
1/2-x,1/2+y,1/2+z
x,1/2-y,z
loop_
_atom_site_type_symbol
_atom_site_label
_atom_site_fract_x
_atom_site_fract_y
_atom_site_fract_z
Si Si1 0.891578 0.305867 0.863022
Si Si2 0.695546 0.152425 0.664377
Si Si3 0.950751 0.547567 0.933092
Si Si4 0.560691 0.976752 0.166757
Si Si5 0.077162 0.075443 0.332806
Si Si6 0.209495 0.061473 0.689905
Si Si7 0.666892 0.594678 0.988222
Si Si8 0.300729 0.383435 0.473069
O O1 0.883570 0.250000 0.871773
O O2 0.799180 0.323403 0.755074
O O3 0.049974 0.321832 0.846236
O O4 0.832909 0.332118 0.976073
O O5 0.668153 0.100083 0.715169
O O6 0.772965 0.142358 0.544184
O O7 0.945848 0.555774 0.795098
O O8 0.796568 0.561059 0.967068
O O9 0.057498 0.588465 0.966631
O O10 0.000000 0.500000 0.000000
O O11 0.400787 0.979486 0.190876
O O12 0.647244 0.961596 0.276820
O O13 0.610048 0.024629 0.108667
O O14 0.580321 0.932109 0.085093
O O15 0.205196 0.109221 0.361476
O O16 0.937846 0.097689 0.382671
O O17 0.219287 0.089992 0.573814
#
# Coordination Sequence:
#
# PCOD9465616 Si02
#       8
#     8   8   8   8   8   8   8   8
#     4  11  23  42  71 102 132 163 209 272 347 418
#     4  10  21  39  64 100 132 169 208 267 336 408
#     4  12  26  40  63  91 129 178 232 275 324 390
#     4  11  23  34  56  87 126 177 224 259 304 375
#     4  12  26  39  57  88 130 175 230 274 314 389
#     4  10  21  36  58  86 129 175 214 263 314 379
#     4  11  23  40  59  88 129 179 215 269 329 380
#     4  11  23  42  60  90 128 174 211 272 334 394
#
# _framework density 19.773980999999999
#
# number of rings (size 3 to 8) (size 9 to 14) (size 15 to 20)
#    0.000    1.000    2.500    5.250   12.250    0.000 
#    0.000    0.000    0.000    0.750    0.000    0.000 
#    0.000    0.000    0.000    0.000    0.000    0.000 
#
# Total GULP energy -357139.501834 kJ/mol
# GULP energy per Si atom -5580.304716 kJ/mol
# Density = 1.972897 g / cm^3
# Si number density = 19.773981 Si / 1000 Ang^3
#
#
#
# Elastic Constant Matrix: (Units=GPa)
#
#
# Indices 1 2 3 4 5 6 
#
# 1 113.1367 38.7506 34.4914 0.0000 0.0000 0.0000
# 2 38.7506 110.2575 36.0738 0.0000 0.0000 0.0000
# 3 34.4914 36.0738 84.6213 0.0000 0.0000 0.0000
# 4 0.0000 0.0000 0.0000 12.7834 0.0000 0.0000
# 5 0.0000 0.0000 0.0000 0.0000 27.0643 0.0000
# 6 0.0000 0.0000 0.0000 0.0000 0.0000 24.8380
#
#
#
# Elastic Compliance Matrix: (Units=1/GPa)
#
#
# Indices 1 2 3 4 5 6 
#
# 1 0.010755 -0.002726 -0.003222 0.000000 0.000000 0.000000
# 2 -0.002726 0.011231 -0.003677 0.000000 0.000000 0.000000
# 3 -0.003222 -0.003677 0.014698 0.000000 0.000000 0.000000
# 4 0.000000 0.000000 0.000000 0.078226 0.000000 0.000000
# 5 0.000000 0.000000 0.000000 0.000000 0.036949 0.000000
# 6 0.000000 0.000000 0.000000 0.000000 0.000000 0.040261
#
#
# Mechanical properties :
#
#
# Convention : Reuss Voigt Hill
#
# Bulk Modulus (GPa) = 57.35525 58.51635 57.93580
# Shear Modulus (GPa) = 23.02254 26.18381 24.60318
#
# Velocity S-wave (km/s) = 3.41586 3.64284 3.53118
# Velocity P-wave (km/s) = 6.68026 6.88117 6.78146
#
# Compressibility (1/GPa) = 0.01743520
#
# Stress axis : x y z
#
# Youngs Moduli (GPa) = 92.98350 89.04297 68.03762
#
# Poissons Ratio (x) = 0.24271 0.21919
# Poissons Ratio (y) = 0.25345 0.25014
# Poissons Ratio (z) = 0.29955 0.32737
#
# Static dielectric constant tensor:
#      x y z
#    x 1.711680 0.000000 0.000000 
#    y 0.000000 1.670790 0.000000 
#    z 0.000000 0.000000 1.852630 
# 
# From -- ./inp_files/11560.got.cif
#   From: 2010.05.17/outbox.cif.g08.bks.cpg/sg62_6_cif.got.tgz:11560.got - 2010.06.03 15:25:27.
