data_PCOD9465352
_publ_section_title
;
Structure prediction by ZEFSAII (Michael W. Deem and Ramdas Pophale) SiO2 
 PCOD9465352
Probable space group: P N M A
;
_chemical_formula_sum "Si O2"
_cell_formula_units_Z 48
_cell_length_a 27.973690
_cell_length_b 8.663369
_cell_length_c 10.265108
_cell_angle_alpha 90.000000
_cell_angle_beta 90.000000
_cell_angle_gamma 90.000000
_cell_volume 2487.711957
_symmetry_space_group_name_H-M "P N M A"
_symmetry_group_IT_number 62
_symmetry_cell_setting 'orthorhombic'
loop_
_space_group_symop_operation_xyz
x,y,z
1/2-x,-y,1/2+z
1/2+x,1/2-y,1/2-z
-x,1/2+y,-z
-x,-y,-z
1/2+x,y,1/2-z
1/2-x,1/2+y,1/2+z
x,1/2-y,z
loop_
_atom_site_type_symbol
_atom_site_label
_atom_site_fract_x
_atom_site_fract_y
_atom_site_fract_z
Si Si1 0.458923 0.563237 0.715954
Si Si2 0.207435 0.436491 0.414105
Si Si3 0.401355 0.564272 0.973612
Si Si4 0.117087 0.935026 0.014050
Si Si5 0.783006 0.934962 0.882028
Si Si6 0.068316 0.935962 0.751890
O O1 0.455735 0.750000 0.703399
O O2 0.426629 0.487159 0.605347
O O3 0.514293 0.517014 0.711247
O O4 0.436546 0.519510 0.855988
O O5 0.209082 0.250000 0.418215
O O6 0.152640 0.484639 0.438943
O O7 0.242120 0.501090 0.524146
O O8 0.222573 0.485337 0.268497
O O9 0.401758 0.750000 0.980217
O O10 0.417456 0.499278 0.111700
O O11 0.121507 0.750000 0.017411
O O12 0.165653 0.008828 0.066548
O O13 0.104332 0.983494 0.866632
O O14 0.782099 0.750000 0.884111
O O15 0.068589 0.750000 0.745849
#
# Coordination Sequence:
#
# PCOD9465352 Si02
#       6
#     8   8   8   8   8   8
#     4  10  20  40  63  86 120 161 203 247 299 353
#     4  10  23  43  63  90 121 151 197 249 295 354
#     4  10  21  39  62  87 120 157 197 246 297 355
#     4  11  23  39  60  90 124 157 199 250 296 352
#     4  11  24  43  66  89 119 159 196 244 303 356
#     4  10  23  38  58  90 125 159 200 248 294 351
#
# _framework density 19.294839
#
# number of rings (size 3 to 8) (size 9 to 14) (size 15 to 20)
#    0.000    1.667    1.667    2.000    2.333    4.667 
#    0.000    0.000    0.000    0.000    0.000    0.000 
#    0.000    0.000    0.000    0.000    0.000    0.000 
#
# Total GULP energy -268301.743429 kJ/mol
# GULP energy per Si atom -5589.619655 kJ/mol
# Density = 1.925092 g / cm^3
# Si number density = 19.294839 Si / 1000 Ang^3
#
#
#
# Elastic Constant Matrix: (Units=GPa)
#
#
# Indices 1 2 3 4 5 6 
#
# 1 21.4845 -9.8286 -54.5088 0.0000 0.0000 0.0000
# 2 -9.8286 -2.8447 -20.0897 0.0000 0.0000 0.0000
# 3 -54.5088 -20.0897 -15.5395 0.0000 0.0000 0.0000
# 4 0.0000 0.0000 0.0000 29.2513 0.0000 0.0000
# 5 0.0000 0.0000 0.0000 0.0000 41.9973 0.0000
# 6 0.0000 0.0000 0.0000 0.0000 0.0000 33.8414
#
#
#
# Elastic Compliance Matrix: (Units=1/GPa)
#
#
# Indices 1 2 3 4 5 6 
#
# 1 0.018627 -0.048841 -0.002197 0.000000 0.000000 0.000000
# 2 -0.048841 0.171300 -0.050138 0.000000 0.000000 0.000000
# 3 -0.002197 -0.050138 0.008174 0.000000 0.000000 0.000000
# 4 0.000000 0.000000 0.000000 0.034187 0.000000 0.000000
# 5 0.000000 0.000000 0.000000 0.000000 0.023811 0.000000
# 6 0.000000 0.000000 0.000000 0.000000 0.000000 0.029550
#
#
# Mechanical properties :
#
#
# Convention : Reuss Voigt Hill
#
# Bulk Modulus (GPa) = -235.27473 -18.41709 -126.84591
# Shear Modulus (GPa) = 10.27574 26.85317 18.56445
#
# Velocity S-wave (km/s) = 2.31024 3.73463 3.10521
# Velocity P-wave (km/s) = 10.72777 3.00514 7.28197
#
# Compressibility (1/GPa) = -0.00425035
#
# Stress axis : x y z
#
# Youngs Moduli (GPa) = 53.68551 5.83772 122.33252
#
# Poissons Ratio (x) = 0.28512 0.26880
# Poissons Ratio (y) = 2.62203 6.13350
# Poissons Ratio (z) = 0.11796 0.29269
#
# Static dielectric constant tensor:
#      x y z
#    x 1.646970 0.000000 0.000000 
#    y 0.000000 1.662730 0.000000 
#    z 0.000000 0.000000 1.649320 
# 
# From -- ./inp_files/10163.got.cif
#   From: 2010.05.17/outbox.cif.g08.bks.cpg/sg62_6_cif.got.tgz:10163.got - 2010.06.03 15:25:27.
