data_PCOD9465393
_publ_section_title
;
Structure prediction by ZEFSAII (Michael W. Deem and Ramdas Pophale) SiO2 
 PCOD9465393
Probable space group: P N M A
;
_chemical_formula_sum "Si O2"
_cell_formula_units_Z 48
_cell_length_a 9.361292
_cell_length_b 25.804790
_cell_length_c 9.129933
_cell_angle_alpha 90.000000
_cell_angle_beta 90.000000
_cell_angle_gamma 90.000000
_cell_volume 2205.482985
_symmetry_space_group_name_H-M "P N M A"
_symmetry_group_IT_number 62
_symmetry_cell_setting 'orthorhombic'
loop_
_space_group_symop_operation_xyz
x,y,z
1/2-x,-y,1/2+z
1/2+x,1/2-y,1/2-z
-x,1/2+y,-z
-x,-y,-z
1/2+x,y,1/2-z
1/2-x,1/2+y,1/2+z
x,1/2-y,z
loop_
_atom_site_type_symbol
_atom_site_label
_atom_site_fract_x
_atom_site_fract_y
_atom_site_fract_z
Si Si1 0.174778 0.985323 0.357981
Si Si2 0.451898 0.929206 0.342953
Si Si3 0.375458 0.858161 0.087519
Si Si4 0.401994 0.250000 0.320480
Si Si5 0.546365 0.571473 0.876873
Si Si6 0.913145 0.750000 0.539108
Si Si7 0.083832 0.632905 0.909826
O O1 0.343022 0.977623 0.342181
O O2 0.093697 0.948888 0.239910
O O3 0.141198 0.967673 0.525795
O O4 0.097650 0.039941 0.336538
O O5 0.382467 0.883837 0.245252
O O6 0.475605 0.903338 0.499722
O O7 0.495713 0.886559 0.993618
O O8 0.408271 0.798500 0.068011
O O9 0.224517 0.867008 0.009463
O O10 0.454307 0.250000 0.151857
O O11 0.231689 0.250000 0.358927
O O12 0.455455 0.306270 0.382858
O O13 0.609404 0.603248 0.742447
#
# Coordination Sequence:
#
# PCOD9465393 Si02
#       7
#     8   8   8   4   8   4   8
#     4  10  24  41  61  93 127 163 212 256 302 381
#     4  11  23  43  61  89 128 165 207 254 315 366
#     4  10  22  41  62  90 125 161 207 256 312 368
#     4  10  22  39  62  98 120 154 213 258 306 378
#     4  10  23  39  64  91 126 163 210 254 312 365
#     4  10  20  41  64  90 124 158 201 260 312 370
#     4  11  23  39  67  91 124 165 206 259 313 371
#
# _framework density 21.763940999999999
#
# number of rings (size 3 to 8) (size 9 to 14) (size 15 to 20)
#    0.000    1.667    3.333    0.000    4.667    4.000 
#    0.000    0.000    0.000    1.000    0.000    0.000 
#    0.000    0.000    0.000    0.000    0.000    0.000 
#
# Total GULP energy -268019.676197 kJ/mol
# GULP energy per Si atom -5583.743254 kJ/mol
# Density = 2.171440 g / cm^3
# Si number density = 21.763941 Si / 1000 Ang^3
#
#
#
# Elastic Constant Matrix: (Units=GPa)
#
#
# Indices 1 2 3 4 5 6 
#
# 1 36.6527 -5.3489 -1.6656 0.0000 0.0000 0.0000
# 2 -5.3489 87.6987 9.4388 0.0000 0.0000 0.0000
# 3 -1.6656 9.4388 67.3386 0.0000 0.0000 0.0000
# 4 0.0000 0.0000 0.0000 28.9804 0.0000 0.0000
# 5 0.0000 0.0000 0.0000 0.0000 15.1114 0.0000
# 6 0.0000 0.0000 0.0000 0.0000 0.0000 24.6075
#
#
#
# Elastic Compliance Matrix: (Units=1/GPa)
#
#
# Indices 1 2 3 4 5 6 
#
# 1 0.027542 0.001631 0.000453 0.000000 0.000000 0.000000
# 2 0.001631 0.011674 -0.001596 0.000000 0.000000 0.000000
# 3 0.000453 -0.001596 0.015085 0.000000 0.000000 0.000000
# 4 0.000000 0.000000 0.000000 0.034506 0.000000 0.000000
# 5 0.000000 0.000000 0.000000 0.000000 0.066175 0.000000
# 6 0.000000 0.000000 0.000000 0.000000 0.000000 0.040638
#
#
# Mechanical properties :
#
#
# Convention : Reuss Voigt Hill
#
# Bulk Modulus (GPa) = 18.09093 21.83763 19.96428
# Shear Modulus (GPa) = 23.46645 26.35758 24.91201
#
# Velocity S-wave (km/s) = 3.28720 3.48381 3.38693
# Velocity P-wave (km/s) = 4.76843 5.12233 4.94854
#
# Compressibility (1/GPa) = 0.05527630
#
# Stress axis : x y z
#
# Youngs Moduli (GPa) = 36.30859 85.66093 66.28998
#
# Poissons Ratio (x) = -0.13972 -0.03000
# Poissons Ratio (y) = -0.05922 0.10580
# Poissons Ratio (z) = -0.01643 0.13671
#
# Static dielectric constant tensor:
#      x y z
#    x 1.824980 0.000000 0.000000 
#    y 0.000000 1.804270 0.000000 
#    z 0.000000 0.000000 1.767580 
# 
# From -- ./inp_files/4578.got.cif
#   From: 2010.05.17/outbox.cif.g08.bks.cpg/sg62_3_cif.got.tgz:4578.got - 2010.06.03 15:25:27.
