data_PCOD9465617
_publ_section_title
;
Structure prediction by ZEFSAII (Michael W. Deem and Ramdas Pophale) SiO2 
 PCOD9465617
Probable space group: P N M A
;
_chemical_formula_sum "Si O2"
_cell_formula_units_Z 56
_cell_length_a 20.834397
_cell_length_b 9.411396
_cell_length_c 14.196633
_cell_angle_alpha 90.000000
_cell_angle_beta 90.000000
_cell_angle_gamma 90.000000
_cell_volume 2783.686596
_symmetry_space_group_name_H-M "P N M A"
_symmetry_group_IT_number 62
_symmetry_cell_setting 'orthorhombic'
loop_
_space_group_symop_operation_xyz
x,y,z
1/2-x,-y,1/2+z
1/2+x,1/2-y,1/2-z
-x,1/2+y,-z
-x,-y,-z
1/2+x,y,1/2-z
1/2-x,1/2+y,1/2+z
x,1/2-y,z
loop_
_atom_site_type_symbol
_atom_site_label
_atom_site_fract_x
_atom_site_fract_y
_atom_site_fract_z
Si Si1 0.280539 0.913032 0.529265
Si Si2 0.902281 0.583934 0.280718
Si Si3 0.166272 0.587361 0.378867
Si Si4 0.566857 0.417225 0.999472
Si Si5 0.502741 0.912794 0.650221
Si Si6 0.741582 0.419376 0.788480
Si Si7 0.406471 0.087630 0.534319
O O1 0.298971 0.750000 0.547106
O O2 0.227117 0.914332 0.448872
O O3 0.250030 0.986073 0.620181
O O4 0.343090 0.003639 0.505664
O O5 0.916010 0.750000 0.259524
O O6 0.904131 0.566568 0.393947
O O7 0.955051 0.486729 0.230883
O O8 0.829564 0.552302 0.247114
O O9 0.141442 0.750000 0.374942
O O10 0.113259 0.484779 0.422223
O O11 0.198772 0.549956 0.279820
O O12 0.557685 0.250000 0.016263
O O13 0.500000 0.500000 0.000000
O O14 0.486139 0.750000 0.673864
O O15 0.546726 0.910283 0.555950
O O16 0.441665 0.005973 0.619549
O O17 0.742202 0.250000 0.809791
O O18 0.391999 0.250000 0.560968
#
# Coordination Sequence:
#
# PCOD9465617 Si02
#       7
#     8   8   8   8   8   8   8
#     4  11  22  37  60  89 120 154 195 249 300 351
#     4  10  21  39  62  87 119 162 204 245 304 371
#     4  10  22  40  63  90 123 160 201 253 310 364
#     4  11  24  42  65  89 120 161 206 254 306 366
#     4  10  21  36  58  87 117 153 199 249 297 352
#     4  10  21  39  62  88 120 160 202 246 303 370
#     4  10  21  37  57  84 120 159 196 241 300 361
#
# _framework density 20.117207000000001
#
# number of rings (size 3 to 8) (size 9 to 14) (size 15 to 20)
#    0.000    1.714    1.429    2.571    0.000    6.857 
#    0.000    1.429    0.000    0.000    0.000    0.000 
#    0.000    0.000    0.000    0.000    0.000    0.000 
#
# Total GULP energy -312957.547908 kJ/mol
# GULP energy per Si atom -5588.527641 kJ/mol
# Density = 2.007142 g / cm^3
# Si number density = 20.117207 Si / 1000 Ang^3
#
#
#
# Elastic Constant Matrix: (Units=GPa)
#
#
# Indices 1 2 3 4 5 6 
#
# 1 76.8225 39.4339 -12.1922 0.0000 0.0000 0.0000
# 2 39.4339 72.6642 9.2869 0.0000 0.0000 0.0000
# 3 -12.1922 9.2869 17.8687 0.0000 0.0000 0.0000
# 4 0.0000 0.0000 0.0000 26.5965 0.0000 0.0000
# 5 0.0000 0.0000 0.0000 0.0000 29.9845 0.0000
# 6 0.0000 0.0000 0.0000 0.0000 0.0000 33.5626
#
#
#
# Elastic Compliance Matrix: (Units=1/GPa)
#
#
# Indices 1 2 3 4 5 6 
#
# 1 0.026581 -0.017934 0.027458 0.000000 0.000000 0.000000
# 2 -0.017934 0.026841 -0.026187 0.000000 0.000000 0.000000
# 3 0.027458 -0.026187 0.088309 0.000000 0.000000 0.000000
# 4 0.000000 0.000000 0.000000 0.037599 0.000000 0.000000
# 5 0.000000 0.000000 0.000000 0.000000 0.033351 0.000000
# 6 0.000000 0.000000 0.000000 0.000000 0.000000 0.029795
#
#
# Mechanical properties :
#
#
# Convention : Reuss Voigt Hill
#
# Bulk Modulus (GPa) = 9.22481 26.71252 17.96866
# Shear Modulus (GPa) = 16.02881 26.75049 21.38965
#
# Velocity S-wave (km/s) = 2.82578 3.65051 3.26429
# Velocity P-wave (km/s) = 3.90412 5.57454 4.81236
#
# Compressibility (1/GPa) = 0.10840336
#
# Stress axis : x y z
#
# Youngs Moduli (GPa) = 37.62154 37.25577 11.32384
#
# Poissons Ratio (x) = 0.66815 -0.31092
# Poissons Ratio (y) = 0.67471 0.29654
# Poissons Ratio (z) = -1.03299 0.97563
#
# Static dielectric constant tensor:
#      x y z
#    x 1.707980 0.000000 0.000000 
#    y 0.000000 1.676650 0.000000 
#    z 0.000000 0.000000 1.739390 
# 
# From -- ./inp_files/20246.got.cif
#   From: 2010.05.17/outbox.cif.g08.bks.cpg/sg62_11_cif.got.tgz:20246.got - 2010.06.03 15:25:27.
