data_PCOD9465055
_publ_section_title
;
Structure prediction by ZEFSAII (Michael W. Deem and Ramdas Pophale) SiO2 
 PCOD9465055
Probable space group: P N M A
;
_chemical_formula_sum "Si O2"
_cell_formula_units_Z 32
_cell_length_a 15.149611
_cell_length_b 17.795870
_cell_length_c 5.140308
_cell_angle_alpha 90.000000
_cell_angle_beta 90.000000
_cell_angle_gamma 90.000000
_cell_volume 1385.829648
_symmetry_space_group_name_H-M "P N M A"
_symmetry_group_IT_number 62
_symmetry_cell_setting 'orthorhombic'
loop_
_space_group_symop_operation_xyz
x,y,z
1/2-x,-y,1/2+z
1/2+x,1/2-y,1/2-z
-x,1/2+y,-z
-x,-y,-z
1/2+x,y,1/2-z
1/2-x,1/2+y,1/2+z
x,1/2-y,z
loop_
_atom_site_type_symbol
_atom_site_label
_atom_site_fract_x
_atom_site_fract_y
_atom_site_fract_z
Si Si1 0.629438 0.017797 0.716106
Si Si2 0.781883 0.395443 0.487160
Si Si3 0.896895 0.603747 0.726865
Si Si4 0.135378 0.750000 0.319162
Si Si5 0.012985 0.750000 0.819963
O O1 0.731990 0.043448 0.668305
O O2 0.587146 0.037331 0.438759
O O3 0.591204 0.071981 0.938774
O O4 0.637659 0.934900 0.834581
O O5 0.705355 0.374012 0.282137
O O6 0.807793 0.325524 0.662528
O O7 0.954012 0.675668 0.795167
O O8 0.080214 0.750000 0.583278
O O9 0.068932 0.750000 0.081672
#
# Coordination Sequence:
#
# PCOD9465055 Si02
#       5
#     8   8   8   4   4
#     4  10  20  37  74  92 119 150 226 267 303 360
#     4  10  22  42  68 100 116 161 215 271 310 358
#     4  10  21  40  68  88 122 171 207 256 305 378
#     4  12  29  39  64  90 140 162 206 262 319 366
#     4  12  27  45  54  96 138 174 206 246 311 398
#
# _framework density 23.090861
#
# number of rings (size 3 to 8) (size 9 to 14) (size 15 to 20)
#    1.500    0.000    2.500    2.250    3.500    1.000 
#    0.000    7.500    0.000    0.000    0.000    0.000 
#    0.000    0.000    0.000    0.000    0.000    0.000 
#
# Total GULP energy -178831.355684 kJ/mol
# GULP energy per Si atom -5588.479865 kJ/mol
# Density = 2.303830 g / cm^3
# Si number density = 23.090861 Si / 1000 Ang^3
#
#
#
# Elastic Constant Matrix: (Units=GPa)
#
#
# Indices 1 2 3 4 5 6 
#
# 1 29.1883 6.8038 -3.6069 0.0000 0.0000 0.0000
# 2 6.8038 62.0605 -12.7754 0.0000 0.0000 0.0000
# 3 -3.6069 -12.7754 125.8734 0.0000 0.0000 0.0000
# 4 0.0000 0.0000 0.0000 34.8004 0.0000 0.0000
# 5 0.0000 0.0000 0.0000 0.0000 28.3542 0.0000
# 6 0.0000 0.0000 0.0000 0.0000 0.0000 41.2454
#
#
#
# Elastic Compliance Matrix: (Units=1/GPa)
#
#
# Indices 1 2 3 4 5 6 
#
# 1 0.035208 -0.003730 0.000630 0.000000 0.000000 0.000000
# 2 -0.003730 0.016852 0.001604 0.000000 0.000000 0.000000
# 3 0.000630 0.001604 0.008125 0.000000 0.000000 0.000000
# 4 0.000000 0.000000 0.000000 0.028735 0.000000 0.000000
# 5 0.000000 0.000000 0.000000 0.000000 0.035268 0.000000
# 6 0.000000 0.000000 0.000000 0.000000 0.000000 0.024245
#
#
# Mechanical properties :
#
#
# Convention : Reuss Voigt Hill
#
# Bulk Modulus (GPa) = 17.48477 21.99614 19.74045
# Shear Modulus (GPa) = 29.32712 35.99339 32.66025
#
# Velocity S-wave (km/s) = 3.56768 3.95241 3.76496
# Velocity P-wave (km/s) = 4.95577 5.51138 5.24095
#
# Compressibility (1/GPa) = 0.05719263
#
# Stress axis : x y z
#
# Youngs Moduli (GPa) = 28.40293 59.33894 123.07236
#
# Poissons Ratio (x) = 0.22134 -0.07757
# Poissons Ratio (y) = 0.10595 -0.19735
# Poissons Ratio (z) = -0.01790 -0.09515
#
# Static dielectric constant tensor:
#      x y z
#    x 1.912570 0.000000 0.000000 
#    y 0.000000 1.908270 0.000000 
#    z 0.000000 0.000000 1.812330 
# 
# From -- ./inp_files/897.got.cif
#   From: 2010.05.17/outbox.cif.g08.bks.cpg/sg62_1_cif.got.tgz:897.got - 2010.06.03 15:25:27.
