data_PCOD9465864
_publ_section_title
;
Structure prediction by ZEFSAII (Michael W. Deem and Ramdas Pophale) SiO2 
 PCOD9465864
Probable space group: P N M A
;
_chemical_formula_sum "Si O2"
_cell_formula_units_Z 48
_cell_length_a 15.910531
_cell_length_b 8.437264
_cell_length_c 18.385779
_cell_angle_alpha 90.000000
_cell_angle_beta 90.000000
_cell_angle_gamma 90.000000
_cell_volume 2468.131802
_symmetry_space_group_name_H-M "P N M A"
_symmetry_group_IT_number 62
_symmetry_cell_setting 'orthorhombic'
loop_
_space_group_symop_operation_xyz
x,y,z
1/2-x,-y,1/2+z
1/2+x,1/2-y,1/2-z
-x,1/2+y,-z
-x,-y,-z
1/2+x,y,1/2-z
1/2-x,1/2+y,1/2+z
x,1/2-y,z
loop_
_atom_site_type_symbol
_atom_site_label
_atom_site_fract_x
_atom_site_fract_y
_atom_site_fract_z
Si Si1 0.917919 0.558337 0.958093
Si Si2 0.417984 0.059809 0.041963
Si Si3 0.252035 0.441790 0.790269
Si Si4 0.081351 0.440085 0.209782
Si Si5 0.749914 0.056611 0.541789
Si Si6 0.416697 0.559854 0.206920
O O1 0.917983 0.750000 0.958498
O O2 0.918225 0.505453 0.874211
O O3 0.833635 0.504619 0.999478
O O4 0.000000 0.500000 0.000000
O O5 0.418465 0.250000 0.041974
O O6 0.417525 0.000629 0.124527
O O7 0.333949 0.005397 0.999960
O O8 0.500000 0.000000 0.000000
O O9 0.253495 0.250000 0.789996
O O10 0.335221 0.501666 0.750415
O O11 0.249914 0.494563 0.874290
O O12 0.168064 0.493770 0.748040
O O13 0.080603 0.250000 0.210369
O O14 0.998750 0.501211 0.250612
O O15 0.749680 0.250000 0.541778
O O16 0.417538 0.750000 0.206337
#
# Coordination Sequence:
#
# PCOD9465864 Si02
#       6
#     8   8   8   8   8   8
#     4  10  21  38  59  84 114 149 188 232 285 342
#     4  11  22  38  61  87 118 155 196 243 294 350
#     4  10  21  38  61  86 114 153 198 241 289 350
#     4  11  23  38  59  87 118 153 195 244 296 349
#     4   9  19  37  59  82 112 150 188 231 287 343
#     4  11  23  39  60  86 119 158 198 241 292 352
#
# _framework density 19.447908000000002
#
# number of rings (size 3 to 8) (size 9 to 14) (size 15 to 20)
#    0.000    1.667    0.000    4.500    0.000    6.667 
#    0.000    3.333    0.000    0.000    0.000    0.000 
#    0.000    0.000    0.000    0.000    0.000    0.000 
#
# Total GULP energy -268390.313947 kJ/mol
# GULP energy per Si atom -5591.464874 kJ/mol
# Density = 1.940364 g / cm^3
# Si number density = 19.447908 Si / 1000 Ang^3
#
#
#
# Elastic Constant Matrix: (Units=GPa)
#
#
# Indices 1 2 3 4 5 6 
#
# 1 241.2440 33.6991 146.7384 0.0000 0.0000 0.0000
# 2 33.6991 25.9610 35.0333 0.0000 0.0000 0.0000
# 3 146.7384 35.0333 241.9460 0.0000 0.0000 0.0000
# 4 0.0000 0.0000 0.0000 21.7163 0.0000 0.0000
# 5 0.0000 0.0000 0.0000 0.0000 47.2152 0.0000
# 6 0.0000 0.0000 0.0000 0.0000 0.0000 -6.4533
#
#
#
# Elastic Compliance Matrix: (Units=1/GPa)
#
#
# Indices 1 2 3 4 5 6 
#
# 1 0.006905 -0.004116 -0.003592 0.000000 0.000000 0.000000
# 2 -0.004116 0.050328 -0.004791 0.000000 0.000000 0.000000
# 3 -0.003592 -0.004791 0.007005 0.000000 0.000000 0.000000
# 4 0.000000 0.000000 0.000000 0.046048 0.000000 0.000000
# 5 0.000000 0.000000 0.000000 0.000000 0.021180 0.000000
# 6 0.000000 0.000000 0.000000 0.000000 0.000000 -0.154959
#
#
# Mechanical properties :
#
#
# Convention : Reuss Voigt Hill
#
# Bulk Modulus (GPa) = 25.48415 104.45474 64.96944
# Shear Modulus (GPa) = 342.84413 32.07432 187.45922
#
# Velocity S-wave (km/s) = 13.29177 4.06549 9.82851
# Velocity P-wave (km/s) = 15.77003 8.71001 12.73888
#
# Compressibility (1/GPa) = 0.03924008
#
# Stress axis : x y z
#
# Youngs Moduli (GPa) = 144.82575 19.86985 142.75034
#
# Poissons Ratio (x) = 0.08179 0.51272
# Poissons Ratio (y) = 0.59611 0.68391
# Poissons Ratio (z) = 0.52018 0.09520
#
# Static dielectric constant tensor:
#      x y z
#    x 1.638550 0.000000 0.000000 
#    y 0.000000 1.681460 0.000000 
#    z 0.000000 0.000000 1.647960 
# 
# From -- ./inp_files/23728.got.cif
#   From: 2010.05.17/outbox.cif.g08.bks.cpg/sg62_12_cif.got.tgz:23728.got - 2010.06.03 15:25:27.
