data_PCOD9465783
_publ_section_title
;
Structure prediction by ZEFSAII (Michael W. Deem and Ramdas Pophale) SiO2 
 PCOD9465783
Probable space group: P N M A
;
_chemical_formula_sum "Si O2"
_cell_formula_units_Z 32
_cell_length_a 5.286967
_cell_length_b 37.770105
_cell_length_c 6.974938
_cell_angle_alpha 90.000000
_cell_angle_beta 90.000000
_cell_angle_gamma 90.000000
_cell_volume 1392.820478
_symmetry_space_group_name_H-M "P N M A"
_symmetry_group_IT_number 62
_symmetry_cell_setting 'orthorhombic'
loop_
_space_group_symop_operation_xyz
x,y,z
1/2-x,-y,1/2+z
1/2+x,1/2-y,1/2-z
-x,1/2+y,-z
-x,-y,-z
1/2+x,y,1/2-z
1/2-x,1/2+y,1/2+z
x,1/2-y,z
loop_
_atom_site_type_symbol
_atom_site_label
_atom_site_fract_x
_atom_site_fract_y
_atom_site_fract_z
Si Si1 0.035504 0.210280 0.879236
Si Si2 0.894549 0.138496 0.038601
Si Si3 0.605673 0.609813 0.969436
Si Si4 0.031241 0.464559 0.622976
O O1 0.306111 0.207169 0.774336
O O2 0.019137 0.250000 0.962555
O O3 0.991733 0.178515 0.027425
O O4 0.616717 0.134626 0.949605
O O5 0.114647 0.114645 0.945695
O O6 0.856961 0.123110 0.251672
O O7 0.511608 0.569969 0.991514
O O8 0.807023 0.463751 0.780342
O O9 0.000000 0.500000 0.500000
#
# Coordination Sequence:
#
# PCOD9465783 Si02
#       4
#     8   8   8   8
#     4  10  21  37  60  94 133 172 218 272 330 390
#     4  10  21  39  65  89 131 177 215 276 321 393
#     4  10  23  40  63  93 128 165 222 272 322 397
#     4  12  28  46  73 101 134 177 219 280 345 404
#
# _framework density 22.974961
#
# number of rings (size 3 to 8) (size 9 to 14) (size 15 to 20)
#    0.000    1.500    0.000    3.750    7.000    6.000 
#    0.000    5.000    0.000    0.000    0.000    0.000 
#    0.000    0.000    0.000    0.000    0.000    0.000 
#
# Total GULP energy -178842.896664 kJ/mol
# GULP energy per Si atom -5588.840521 kJ/mol
# Density = 2.292267 g / cm^3
# Si number density = 22.974961 Si / 1000 Ang^3
#
#
#
# Elastic Constant Matrix: (Units=GPa)
#
#
# Indices 1 2 3 4 5 6 
#
# 1 155.1979 -11.7186 -19.3103 0.0000 0.0000 0.0000
# 2 -11.7186 162.3258 18.9855 0.0000 0.0000 0.0000
# 3 -19.3103 18.9855 80.9905 0.0000 0.0000 0.0000
# 4 0.0000 0.0000 0.0000 54.6262 0.0000 0.0000
# 5 0.0000 0.0000 0.0000 0.0000 26.4695 0.0000
# 6 0.0000 0.0000 0.0000 0.0000 0.0000 38.3717
#
#
#
# Elastic Compliance Matrix: (Units=1/GPa)
#
#
# Indices 1 2 3 4 5 6 
#
# 1 0.006655 0.000303 0.001516 0.000000 0.000000 0.000000
# 2 0.000303 0.006348 -0.001416 0.000000 0.000000 0.000000
# 3 0.001516 -0.001416 0.013040 0.000000 0.000000 0.000000
# 4 0.000000 0.000000 0.000000 0.018306 0.000000 0.000000
# 5 0.000000 0.000000 0.000000 0.000000 0.037779 0.000000
# 6 0.000000 0.000000 0.000000 0.000000 0.000000 0.026061
#
#
# Mechanical properties :
#
#
# Convention : Reuss Voigt Hill
#
# Bulk Modulus (GPa) = 37.24507 41.60304 39.42406
# Shear Modulus (GPa) = 42.97996 51.26398 47.12197
#
# Velocity S-wave (km/s) = 4.32989 4.72879 4.53373
# Velocity P-wave (km/s) = 6.42212 6.92550 6.67855
#
# Compressibility (1/GPa) = 0.02684919
#
# Stress axis : x y z
#
# Youngs Moduli (GPa) = 150.26614 157.53183 76.68485
#
# Poissons Ratio (x) = -0.04776 -0.11623
# Poissons Ratio (y) = -0.04555 0.10857
# Poissons Ratio (z) = -0.22775 0.22303
#
# Static dielectric constant tensor:
#      x y z
#    x 1.944380 0.000000 0.000000 
#    y 0.000000 1.833150 0.000000 
#    z 0.000000 0.000000 1.314790 
# 
# From -- ./inp_files/3815.got.cif
#   From: 2010.05.17/outbox.cif.g08.bks.cpg/sg62_2_cif.got.tgz:3815.got - 2010.06.03 15:25:27.
