data_PCOD9465984
_publ_section_title
;
Structure prediction by ZEFSAII (Michael W. Deem and Ramdas Pophale) SiO2 
 PCOD9465984
Probable space group: P N M A
;
_chemical_formula_sum "Si O2"
_cell_formula_units_Z 64
_cell_length_a 10.050518
_cell_length_b 31.617368
_cell_length_c 11.039939
_cell_angle_alpha 90.000000
_cell_angle_beta 90.000000
_cell_angle_gamma 90.000000
_cell_volume 3508.171641
_symmetry_space_group_name_H-M "P N M A"
_symmetry_group_IT_number 62
_symmetry_cell_setting 'orthorhombic'
loop_
_space_group_symop_operation_xyz
x,y,z
1/2-x,-y,1/2+z
1/2+x,1/2-y,1/2-z
-x,1/2+y,-z
-x,-y,-z
1/2+x,y,1/2-z
1/2-x,1/2+y,1/2+z
x,1/2-y,z
loop_
_atom_site_type_symbol
_atom_site_label
_atom_site_fract_x
_atom_site_fract_y
_atom_site_fract_z
Si Si1 0.880505 0.799203 0.348760
Si Si2 0.742600 0.590626 0.077133
Si Si3 0.219455 0.528991 0.636293
Si Si4 0.756530 0.928644 0.357134
Si Si5 0.530968 0.881365 0.510463
Si Si6 0.531684 0.123909 0.994044
Si Si7 0.425757 0.200632 0.626554
Si Si8 0.467067 0.923509 0.759826
O O1 0.905310 0.750000 0.376920
O O2 0.723972 0.804240 0.322735
O O3 0.917627 0.829946 0.458467
O O4 0.969533 0.810274 0.232170
O O5 0.728798 0.583753 0.219095
O O6 0.887520 0.608169 0.046387
O O7 0.726069 0.547557 0.999781
O O8 0.625664 0.620466 0.027502
O O9 0.235797 0.478992 0.634284
O O10 0.080364 0.544051 0.694485
O O11 0.338846 0.551326 0.710826
O O12 0.642302 0.908914 0.441706
O O13 0.894204 0.907862 0.401519
O O14 0.559679 0.832363 0.482537
O O15 0.523940 0.895675 0.649344
O O16 0.565377 0.106933 0.127319
O O17 0.444227 0.250000 0.593398
#
# Coordination Sequence:
#
# PCOD9465984 Si02
#       8
#     8   8   8   8   8   8   8   8
#     4  10  21  38  63  95 126 153 194 245 297 354
#     4  10  24  38  55  88 119 150 200 248 290 353
#     4  10  25  38  59  85 117 160 202 246 295 347
#     4  12  23  36  64  85 116 154 202 248 301 350
#     4  11  23  40  61  88 118 163 195 245 300 355
#     4  11  23  40  61  88 118 163 195 245 300 355
#     4  10  21  38  63  95 126 153 194 245 297 354
#     4  10  24  44  59  82 126 160 201 244 296 356
#
# _framework density 18.243122
#
# number of rings (size 3 to 8) (size 9 to 14) (size 15 to 20)
#    0.000    1.500    1.250    3.000    8.750    2.000 
#    0.000    0.625    0.000    0.000    0.000    0.000 
#    0.000    0.000    0.000    0.000    0.000    0.000 
#
# Total GULP energy -357623.510595 kJ/mol
# GULP energy per Si atom -5587.867353 kJ/mol
# Density = 1.820160 g / cm^3
# Si number density = 18.243122 Si / 1000 Ang^3
#
#
#
# Elastic Constant Matrix: (Units=GPa)
#
#
# Indices 1 2 3 4 5 6 
#
# 1 39.8264 -0.3917 -18.0676 0.0000 0.0000 0.0000
# 2 -0.3917 89.7905 23.8236 0.0000 0.0000 0.0000
# 3 -18.0676 23.8236 80.0924 0.0000 0.0000 0.0000
# 4 0.0000 0.0000 0.0000 7.1519 0.0000 0.0000
# 5 0.0000 0.0000 0.0000 0.0000 24.9005 0.0000
# 6 0.0000 0.0000 0.0000 0.0000 0.0000 -3.2440
#
#
#
# Elastic Compliance Matrix: (Units=1/GPa)
#
#
# Indices 1 2 3 4 5 6 
#
# 1 0.028208 -0.001699 0.006869 0.000000 0.000000 0.000000
# 2 -0.001699 0.012194 -0.004010 0.000000 0.000000 0.000000
# 3 0.006869 -0.004010 0.015228 0.000000 0.000000 0.000000
# 4 0.000000 0.000000 0.000000 0.139823 0.000000 0.000000
# 5 0.000000 0.000000 0.000000 0.000000 0.040160 0.000000
# 6 0.000000 0.000000 0.000000 0.000000 0.000000 -0.308266
#
#
# Mechanical properties :
#
#
# Convention : Reuss Voigt Hill
#
# Bulk Modulus (GPa) = 17.25679 24.49311 20.87495
# Shear Modulus (GPa) = -89.83855 19.38469 -35.22693
#
# Velocity S-wave (km/s) = -7.02510 3.26325 -4.39905
# Velocity P-wave (km/s) = 7.50486 5.25866 3.78612
#
# Compressibility (1/GPa) = 0.05794819
#
# Stress axis : x y z
#
# Youngs Moduli (GPa) = 35.45041 82.00974 65.66855
#
# Poissons Ratio (x) = 0.13937 -0.45107
# Poissons Ratio (y) = 0.06025 0.26336
# Poissons Ratio (z) = -0.24350 0.32889
#
# Static dielectric constant tensor:
#      x y z
#    x 1.634780 0.000000 0.000000 
#    y 0.000000 1.616320 0.000000 
#    z 0.000000 0.000000 1.603180 
# 
# From -- ./inp_files/11570.got.cif
#   From: 2010.05.17/outbox.cif.g08.bks.cpg/sg62_6_cif.got.tgz:11570.got - 2010.06.03 15:25:27.
