data_PCOD9465065
_publ_section_title
;
Structure prediction by ZEFSAII (Michael W. Deem and Ramdas Pophale) SiO2 
 PCOD9465065
Probable space group: P N M A
;
_chemical_formula_sum "Si O2"
_cell_formula_units_Z 64
_cell_length_a 23.061813
_cell_length_b 7.684548
_cell_length_c 15.154968
_cell_angle_alpha 90.000000
_cell_angle_beta 90.000000
_cell_angle_gamma 90.000000
_cell_volume 2685.757503
_symmetry_space_group_name_H-M "P N M A"
_symmetry_group_IT_number 62
_symmetry_cell_setting 'orthorhombic'
loop_
_space_group_symop_operation_xyz
x,y,z
1/2-x,-y,1/2+z
1/2+x,1/2-y,1/2-z
-x,1/2+y,-z
-x,-y,-z
1/2+x,y,1/2-z
1/2-x,1/2+y,1/2+z
x,1/2-y,z
loop_
_atom_site_type_symbol
_atom_site_label
_atom_site_fract_x
_atom_site_fract_y
_atom_site_fract_z
Si Si1 0.006193 0.956813 0.192187
Si Si2 0.126540 0.536976 0.129622
Si Si3 0.464763 0.961064 0.125861
Si Si4 0.255948 0.958341 0.124042
Si Si5 0.588230 0.548677 0.049039
Si Si6 0.909924 0.040523 0.067414
Si Si7 0.714816 0.452953 0.069929
Si Si8 0.311389 0.459370 0.299686
O O1 0.010222 0.750000 0.205647
O O2 0.967148 0.023320 0.273385
O O3 0.072133 0.023258 0.188342
O O4 0.973285 0.987531 0.100618
O O5 0.126474 0.750000 0.132514
O O6 0.191582 0.478101 0.151677
O O7 0.111055 0.484348 0.029010
O O8 0.460451 0.750000 0.122166
O O9 0.527830 0.018032 0.088457
O O10 0.417936 0.029045 0.056655
O O11 0.252121 0.750000 0.116650
O O12 0.270875 0.028468 0.026774
O O13 0.303651 0.992345 0.198263
O O14 0.591417 0.750000 0.072824
O O15 0.646543 0.465291 0.083912
O O16 0.908237 0.250000 0.065897
O O17 0.865362 0.976263 0.142595
O O18 0.730664 0.250000 0.065287
O O19 0.754366 0.525234 0.147790
O O20 0.313746 0.250000 0.301108
#
# Coordination Sequence:
#
# PCOD9465065 Si02
#       8
#     8   8   8   8   8   8   8   8
#     4  10  21  35  57  84 109 140 184 233 277 326
#     4   9  18  37  61  81 107 146 186 226 276 335
#     4   9  20  38  55  79 113 147 183 229 282 335
#     4  10  21  38  62  85 110 151 195 230 276 339
#     4  10  21  36  58  83 110 147 189 232 276 326
#     4  10  20  38  59  80 111 147 183 224 277 338
#     4  10  21  39  60  84 116 155 189 227 286 347
#     4  10  22  39  58  84 118 152 186 232 286 335
#
# _framework density 23.829404
#
# number of rings (size 3 to 8) (size 9 to 14) (size 15 to 20)
#    0.000    2.250    1.250    0.750    3.500    2.500 
#    0.000    1.250    0.000    0.000    0.000    0.000 
#    0.000    0.000    0.000    0.000    0.000    0.000 
#
# Total GULP energy -357597.554673 kJ/mol
# GULP energy per Si atom -5587.461792 kJ/mol
# Density = 2.377517 g / cm^3
# Si number density = 23.829404 Si / 1000 Ang^3
#
#
#
# Elastic Constant Matrix: (Units=GPa)
#
#
# Indices 1 2 3 4 5 6 
#
# 1 51.5540 -7.2928 -13.1481 0.0000 0.0000 0.0000
# 2 -7.2928 36.6025 -6.3971 0.0000 0.0000 0.0000
# 3 -13.1481 -6.3971 65.4281 0.0000 0.0000 0.0000
# 4 0.0000 0.0000 0.0000 0.3979 0.0000 0.0000
# 5 0.0000 0.0000 0.0000 0.0000 31.1150 0.0000
# 6 0.0000 0.0000 0.0000 0.0000 0.0000 -628.3812
#
#
#
# Elastic Compliance Matrix: (Units=1/GPa)
#
#
# Indices 1 2 3 4 5 6 
#
# 1 0.021337 0.005088 0.004785 0.000000 0.000000 0.000000
# 2 0.005088 0.029009 0.003859 0.000000 0.000000 0.000000
# 3 0.004785 0.003859 0.016623 0.000000 0.000000 0.000000
# 4 0.000000 0.000000 0.000000 2.513081 0.000000 0.000000
# 5 0.000000 0.000000 0.000000 0.000000 0.032139 0.000000
# 6 0.000000 0.000000 0.000000 0.000000 0.000000 -0.001591
#
#
# Mechanical properties :
#
#
# Convention : Reuss Voigt Hill
#
# Bulk Modulus (GPa) = 10.58967 11.10096 10.84532
# Shear Modulus (GPa) = 1.91233 -107.34548 -52.71658
#
# Velocity S-wave (km/s) = 0.89680 -6.71902 -4.70856
# Velocity P-wave (km/s) = 2.35073 7.45152 4.99996
#
# Compressibility (1/GPa) = 0.09443167
#
# Stress axis : x y z
#
# Youngs Moduli (GPa) = 46.86648 34.47254 60.15817
#
# Poissons Ratio (x) = -0.17538 -0.28787
# Poissons Ratio (y) = -0.23844 -0.23213
# Poissons Ratio (z) = -0.22427 -0.13302
#
# Static dielectric constant tensor:
#      x y z
#    x 1.893940 0.000000 0.000000 
#    y 0.000000 1.924570 0.000000 
#    z 0.000000 0.000000 1.925290 
# 
# From -- ./inp_files/20780.got.cif
#   From: 2010.05.17/outbox.cif.g08.bks.cpg/sg62_11_cif.got.tgz:20780.got - 2010.06.03 15:25:27.
