data_PCOD9465215
_publ_section_title
;
Structure prediction by ZEFSAII (Michael W. Deem and Ramdas Pophale) SiO2 
 PCOD9465215
Probable space group: P N M A
;
_chemical_formula_sum "Si O2"
_cell_formula_units_Z 56
_cell_length_a 12.353930
_cell_length_b 14.549930
_cell_length_c 14.480515
_cell_angle_alpha 90.000000
_cell_angle_beta 90.000000
_cell_angle_gamma 90.000000
_cell_volume 2602.855437
_symmetry_space_group_name_H-M "P N M A"
_symmetry_group_IT_number 62
_symmetry_cell_setting 'orthorhombic'
loop_
_space_group_symop_operation_xyz
x,y,z
1/2-x,-y,1/2+z
1/2+x,1/2-y,1/2-z
-x,1/2+y,-z
-x,-y,-z
1/2+x,y,1/2-z
1/2-x,1/2+y,1/2+z
x,1/2-y,z
loop_
_atom_site_type_symbol
_atom_site_label
_atom_site_fract_x
_atom_site_fract_y
_atom_site_fract_z
Si Si1 0.114336 0.949798 0.114838
Si Si2 0.790027 0.649433 0.083483
Si Si3 0.430480 0.351940 0.797172
Si Si4 0.724933 0.600197 0.878207
Si Si5 0.292960 0.646324 0.820729
Si Si6 0.907932 0.455371 0.097239
Si Si7 0.995429 0.528984 0.607743
O O1 0.097973 0.873435 0.191306
O O2 0.232156 0.994887 0.119069
O O3 0.089712 0.924152 0.009497
O O4 0.028953 0.033061 0.134253
O O5 0.839930 0.750000 0.102134
O O6 0.680581 0.642769 0.143590
O O7 0.861741 0.559881 0.102583
O O8 0.758136 0.643172 0.975751
O O9 0.476364 0.250000 0.808636
O O10 0.503389 0.434628 0.834574
O O11 0.782030 0.643643 0.789862
O O12 0.595822 0.595502 0.871294
O O13 0.313344 0.750000 0.852346
O O14 0.175946 0.609507 0.852500
O O15 0.384018 0.578636 0.862268
O O16 0.000000 0.500000 0.500000
#
# Coordination Sequence:
#
# PCOD9465215 Si02
#       7
#     8   8   8   8   8   8   8
#     4  10  21  41  67  92 131 177 220 271 344 402
#     4  10  20  38  65  95 128 173 221 267 334 408
#     4  11  22  39  65  98 131 168 221 273 337 414
#     4  11  22  42  68  94 134 176 220 279 339 404
#     4  12  26  42  66 101 134 176 231 283 340 404
#     4  10  21  42  65  92 134 177 220 280 334 407
#     4  12  23  45  70  96 138 180 226 289 347 408
#
# _framework density 21.514834
#
# number of rings (size 3 to 8) (size 9 to 14) (size 15 to 20)
#    0.000    1.143    4.286    2.143    0.000    2.857 
#    0.000    7.857    0.000    0.000    0.000    0.000 
#    0.000    0.000    0.000    0.000    0.000    0.000 
#
# Total GULP energy -312969.618126 kJ/mol
# GULP energy per Si atom -5588.743181 kJ/mol
# Density = 2.146586 g / cm^3
# Si number density = 21.514834 Si / 1000 Ang^3
#
#
#
# Elastic Constant Matrix: (Units=GPa)
#
#
# Indices 1 2 3 4 5 6 
#
# 1 71.4699 -2.9083 17.4114 0.0000 0.0000 0.0000
# 2 -2.9083 100.4118 28.7260 0.0000 0.0000 0.0000
# 3 17.4114 28.7260 107.1811 0.0000 0.0000 0.0000
# 4 0.0000 0.0000 0.0000 12.0142 0.0000 0.0000
# 5 0.0000 0.0000 0.0000 0.0000 32.4430 0.0000
# 6 0.0000 0.0000 0.0000 0.0000 0.0000 3.6546
#
#
#
# Elastic Compliance Matrix: (Units=1/GPa)
#
#
# Indices 1 2 3 4 5 6 
#
# 1 0.014701 0.001201 -0.002710 0.000000 0.000000 0.000000
# 2 0.001201 0.010884 -0.003112 0.000000 0.000000 0.000000
# 3 -0.002710 -0.003112 0.010604 0.000000 0.000000 0.000000
# 4 0.000000 0.000000 0.000000 0.083235 0.000000 0.000000
# 5 0.000000 0.000000 0.000000 0.000000 0.030823 0.000000
# 6 0.000000 0.000000 0.000000 0.000000 0.000000 0.273630
#
#
# Mechanical properties :
#
#
# Convention : Reuss Voigt Hill
#
# Bulk Modulus (GPa) = 37.10972 40.61347 38.86159
# Shear Modulus (GPa) = 11.30958 25.34458 18.32708
#
# Velocity S-wave (km/s) = 2.29522 3.43593 2.92179
# Velocity P-wave (km/s) = 4.93051 5.88717 5.42995
#
# Compressibility (1/GPa) = 0.02694712
#
# Stress axis : x y z
#
# Youngs Moduli (GPa) = 68.02260 91.87691 94.30078
#
# Poissons Ratio (x) = -0.11035 0.25556
# Poissons Ratio (y) = -0.08170 0.29348
# Poissons Ratio (z) = 0.18435 0.28594
#
# Static dielectric constant tensor:
#      x y z
#    x 1.796510 0.000000 0.000000 
#    y 0.000000 1.781440 0.000000 
#    z 0.000000 0.000000 1.799170 
# 
# From -- ./inp_files/18110.got.cif
#   From: 2010.05.17/outbox.cif.g08.bks.cpg/sg62_10_cif.got.tgz:18110.got - 2010.06.03 15:25:27.
