data_PCOD9465639
_publ_section_title
;
Structure prediction by ZEFSAII (Michael W. Deem and Ramdas Pophale) SiO2 
 PCOD9465639
Probable space group: P N M A
;
_chemical_formula_sum "Si O2"
_cell_formula_units_Z 32
_cell_length_a 5.020250
_cell_length_b 18.198597
_cell_length_c 16.855311
_cell_angle_alpha 90.000000
_cell_angle_beta 90.000000
_cell_angle_gamma 90.000000
_cell_volume 1539.926607
_symmetry_space_group_name_H-M "P N M A"
_symmetry_group_IT_number 62
_symmetry_cell_setting 'orthorhombic'
loop_
_space_group_symop_operation_xyz
x,y,z
1/2-x,-y,1/2+z
1/2+x,1/2-y,1/2-z
-x,1/2+y,-z
-x,-y,-z
1/2+x,y,1/2-z
1/2-x,1/2+y,1/2+z
x,1/2-y,z
loop_
_atom_site_type_symbol
_atom_site_label
_atom_site_fract_x
_atom_site_fract_y
_atom_site_fract_z
Si Si1 0.945448 0.166518 0.971046
Si Si2 0.264868 0.543565 0.700518
Si Si3 0.555820 0.917568 0.969924
Si Si4 0.764778 0.633485 0.299338
O O1 0.995424 0.250000 0.996374
O O2 0.830796 0.165803 0.881944
O O3 0.716770 0.127560 0.022913
O O4 0.216271 0.120034 0.976636
O O5 0.560025 0.562438 0.728974
O O6 0.170934 0.578716 0.618755
O O7 0.248124 0.455088 0.690436
O O8 0.500000 0.000000 0.000000
O O9 0.557905 0.653525 0.229805
#
# Coordination Sequence:
#
# PCOD9465639 Si02
#       4
#     8   8   8   8
#     4  12  26  42  63  95 134 173 211 264 324 381
#     4  10  21  37  63  96 124 156 209 270 315 366
#     4  12  24  42  69  94 126 170 220 266 315 375
#     4  10  21  36  60  92 131 168 205 247 310 388
#
# _framework density 20.78021
#
# number of rings (size 3 to 8) (size 9 to 14) (size 15 to 20)
#    0.000    1.000    2.500    4.500    7.000    1.000 
#    0.000    0.000    0.000   15.000    0.000    0.000 
#    0.000    0.000    0.000    0.000    0.000    0.000 
#
# Total GULP energy -179108.930560 kJ/mol
# GULP energy per Si atom -5597.154080 kJ/mol
# Density = 2.073291 g / cm^3
# Si number density = 20.780210 Si / 1000 Ang^3
#
#
#
# Elastic Constant Matrix: (Units=GPa)
#
#
# Indices 1 2 3 4 5 6 
#
# 1 99.9036 43.8459 -6.7143 0.0000 0.0000 0.0000
# 2 43.8459 106.5667 24.1537 0.0000 0.0000 0.0000
# 3 -6.7143 24.1537 62.3128 0.0000 0.0000 0.0000
# 4 0.0000 0.0000 0.0000 14.0997 0.0000 0.0000
# 5 0.0000 0.0000 0.0000 0.0000 38.6844 0.0000
# 6 0.0000 0.0000 0.0000 0.0000 0.0000 4.5240
#
#
#
# Elastic Compliance Matrix: (Units=1/GPa)
#
#
# Indices 1 2 3 4 5 6 
#
# 1 0.012990 -0.006207 0.003806 0.000000 0.000000 0.000000
# 2 -0.006207 0.013254 -0.005806 0.000000 0.000000 0.000000
# 3 0.003806 -0.005806 0.018709 0.000000 0.000000 0.000000
# 4 0.000000 0.000000 0.000000 0.070923 0.000000 0.000000
# 5 0.000000 0.000000 0.000000 0.000000 0.025850 0.000000
# 6 0.000000 0.000000 0.000000 0.000000 0.000000 0.221043
#
#
# Mechanical properties :
#
#
# Convention : Reuss Voigt Hill
#
# Bulk Modulus (GPa) = 35.04256 43.48374 39.26315
# Shear Modulus (GPa) = 12.86354 25.29483 19.07919
#
# Velocity S-wave (km/s) = 2.49073 3.49270 3.03337
# Velocity P-wave (km/s) = 5.01714 6.10215 5.58605
#
# Compressibility (1/GPa) = 0.02853673
#
# Stress axis : x y z
#
# Youngs Moduli (GPa) = 76.98506 75.45134 53.45106
#
# Poissons Ratio (x) = 0.46832 -0.20341
# Poissons Ratio (y) = 0.47784 0.31035
# Poissons Ratio (z) = -0.29297 0.43808
#
# Static dielectric constant tensor:
#      x y z
#    x 1.718870 0.000000 0.000000 
#    y 0.000000 1.737150 0.000000 
#    z 0.000000 0.000000 1.736010 
# 
# From -- ./inp_files/16081.got.cif
#   From: 2010.05.17/outbox.cif.g08.bks.cpg/sg62_9_cif.got.tgz:16081.got - 2010.06.03 15:25:27.
