data_PCOD9465902
_publ_section_title
;
Structure prediction by ZEFSAII (Michael W. Deem and Ramdas Pophale) SiO2 
 PCOD9465902
Probable space group: P N M A
;
_chemical_formula_sum "Si O2"
_cell_formula_units_Z 56
_cell_length_a 19.957411
_cell_length_b 8.272852
_cell_length_c 14.309878
_cell_angle_alpha 90.000000
_cell_angle_beta 90.000000
_cell_angle_gamma 90.000000
_cell_volume 2362.628222
_symmetry_space_group_name_H-M "P N M A"
_symmetry_group_IT_number 62
_symmetry_cell_setting 'orthorhombic'
loop_
_space_group_symop_operation_xyz
x,y,z
1/2-x,-y,1/2+z
1/2+x,1/2-y,1/2-z
-x,1/2+y,-z
-x,-y,-z
1/2+x,y,1/2-z
1/2-x,1/2+y,1/2+z
x,1/2-y,z
loop_
_atom_site_type_symbol
_atom_site_label
_atom_site_fract_x
_atom_site_fract_y
_atom_site_fract_z
Si Si1 0.358734 0.557604 0.764947
Si Si2 0.858058 0.058414 0.947007
Si Si3 0.216542 0.055960 0.782473
Si Si4 0.288454 0.552467 0.062395
Si Si5 0.069221 0.435410 0.539587
Si Si6 0.994006 0.060867 0.288524
Si Si7 0.921601 0.941195 0.120255
O O1 0.359522 0.750000 0.752218
O O2 0.361829 0.475993 0.662958
O O3 0.288880 0.511413 0.813141
O O4 0.429424 0.515289 0.812434
O O5 0.861563 0.250000 0.961658
O O6 0.783301 0.996946 0.975407
O O7 0.913971 0.978015 0.011148
O O8 0.219349 0.250000 0.788426
O O9 0.210728 0.011331 0.672762
O O10 0.149926 0.001883 0.835929
O O11 0.288668 0.750000 0.056881
O O12 0.357958 0.490444 0.019365
O O13 0.073244 0.250000 0.511762
O O14 0.056918 0.455017 0.650775
O O15 0.000000 0.500000 0.500000
O O16 0.983780 0.250000 0.309902
O O17 0.978308 0.029490 0.180111
O O18 0.929365 0.750000 0.134342
#
# Coordination Sequence:
#
# PCOD9465902 Si02
#       7
#     8   8   8   8   8   8   8
#     4  10  22  39  59  86 121 158 199 249 299 353
#     4  10  21  38  60  87 117 154 200 249 300 353
#     4   9  18  36  60  84 111 151 196 242 297 356
#     4   8  16  35  58  79 110 148 187 236 292 345
#     4  11  22  39  61  88 122 158 198 246 300 356
#     4  11  24  41  60  87 121 160 203 245 300 363
#     4  11  22  38  61  89 120 156 201 248 300 359
#
# _framework density 23.702417000000001
#
# number of rings (size 3 to 8) (size 9 to 14) (size 15 to 20)
#    0.000    2.000    1.429    3.000    0.000    5.143 
#    0.000    6.429    0.000    0.000    0.000    0.000 
#    0.000    0.000    0.000    0.000    0.000    0.000 
#
# Total GULP energy -313017.395737 kJ/mol
# GULP energy per Si atom -5589.596352 kJ/mol
# Density = 2.364847 g / cm^3
# Si number density = 23.702417 Si / 1000 Ang^3
#
#
#
# Elastic Constant Matrix: (Units=GPa)
#
#
# Indices 1 2 3 4 5 6 
#
# 1 115.7944 10.7982 2.5407 0.0000 0.0000 0.0000
# 2 10.7982 22.7815 -5.2495 0.0000 0.0000 0.0000
# 3 2.5407 -5.2495 46.1889 0.0000 0.0000 0.0000
# 4 0.0000 0.0000 0.0000 21.8154 0.0000 0.0000
# 5 0.0000 0.0000 0.0000 0.0000 36.5837 0.0000
# 6 0.0000 0.0000 0.0000 0.0000 0.0000 26.4283
#
#
#
# Elastic Compliance Matrix: (Units=1/GPa)
#
#
# Indices 1 2 3 4 5 6 
#
# 1 0.009082 -0.004539 -0.001015 0.000000 0.000000 0.000000
# 2 -0.004539 0.047344 0.005630 0.000000 0.000000 0.000000
# 3 -0.001015 0.005630 0.022346 0.000000 0.000000 0.000000
# 4 0.000000 0.000000 0.000000 0.045839 0.000000 0.000000
# 5 0.000000 0.000000 0.000000 0.000000 0.027335 0.000000
# 6 0.000000 0.000000 0.000000 0.000000 0.000000 0.037838
#
#
# Mechanical properties :
#
#
# Convention : Reuss Voigt Hill
#
# Bulk Modulus (GPa) = 12.67036 22.32708 17.49872
# Shear Modulus (GPa) = 23.15476 28.74384 25.94930
#
# Velocity S-wave (km/s) = 3.12892 3.48616 3.31236
# Velocity P-wave (km/s) = 4.29077 5.06405 4.69336
#
# Compressibility (1/GPa) = 0.07892435
#
# Stress axis : x y z
#
# Youngs Moduli (GPa) = 110.11394 21.12208 44.75077
#
# Poissons Ratio (x) = 0.09586 0.04544
# Poissons Ratio (y) = 0.49975 -0.25196
# Poissons Ratio (z) = 0.11181 -0.11893
#
# Static dielectric constant tensor:
#      x y z
#    x 1.931660 0.000000 0.000000 
#    y 0.000000 1.777910 0.000000 
#    z 0.000000 0.000000 1.962510 
# 
# From -- ./inp_files/20417.got.cif
#   From: 2010.05.17/outbox.cif.g08.bks.cpg/sg62_11_cif.got.tgz:20417.got - 2010.06.03 15:25:27.
