data_PCOD9465275
_publ_section_title
;
Structure prediction by ZEFSAII (Michael W. Deem and Ramdas Pophale) SiO2 
 PCOD9465275
Probable space group: P N M A
;
_chemical_formula_sum "Si O2"
_cell_formula_units_Z 48
_cell_length_a 5.176016
_cell_length_b 26.504307
_cell_length_c 13.884040
_cell_angle_alpha 90.000000
_cell_angle_beta 90.000000
_cell_angle_gamma 90.000000
_cell_volume 1904.705868
_symmetry_space_group_name_H-M "P N M A"
_symmetry_group_IT_number 62
_symmetry_cell_setting 'orthorhombic'
loop_
_space_group_symop_operation_xyz
x,y,z
1/2-x,-y,1/2+z
1/2+x,1/2-y,1/2-z
-x,1/2+y,-z
-x,-y,-z
1/2+x,y,1/2-z
1/2-x,1/2+y,1/2+z
x,1/2-y,z
loop_
_atom_site_type_symbol
_atom_site_label
_atom_site_fract_x
_atom_site_fract_y
_atom_site_fract_z
Si Si1 0.748013 0.523592 0.550667
Si Si2 0.552083 0.622886 0.465424
Si Si3 0.830970 0.643434 0.719041
Si Si4 0.333641 0.690656 0.186972
Si Si5 0.813881 0.307051 0.407537
Si Si6 0.254519 0.057517 0.807743
O O1 0.500000 0.500000 0.500000
O O2 0.710632 0.582513 0.529965
O O3 0.745025 0.500422 0.657052
O O4 0.000000 0.500000 0.500000
O O5 0.744359 0.656760 0.401603
O O6 0.357642 0.658112 0.525137
O O7 0.364270 0.591076 0.393496
O O8 0.075674 0.613232 0.758286
O O9 0.813012 0.687816 0.800756
O O10 0.906477 0.669438 0.619336
O O11 0.619284 0.681663 0.229116
O O12 0.315459 0.750000 0.161543
O O13 0.827716 0.250000 0.441247
O O14 0.550426 0.067008 0.778229
#
# Coordination Sequence:
#
# PCOD9465275 Si02
#       6
#     8   8   8   8   8   8
#     4  10  23  45  67  95 128 163 220 286 333 394
#     4  11  23  41  68 102 128 173 222 278 331 400
#     4   8  19  38  58  80 122 173 212 253 317 382
#     4  10  22  42  64  96 140 180 221 265 316 389
#     4  10  20  39  62  93 133 173 218 266 323 393
#     4  11  23  45  69  92 129 174 216 266 340 403
#
# _framework density 25.200744
#
# number of rings (size 3 to 8) (size 9 to 14) (size 15 to 20)
#    1.000    1.000    0.000    4.000    0.000    2.667 
#   15.000    0.000    0.000    0.000    0.000    0.000 
#    0.000    0.000    0.000    0.000    0.000    0.000 
#
# Total GULP energy -268344.021608 kJ/mol
# GULP energy per Si atom -5590.500450 kJ/mol
# Density = 2.514339 g / cm^3
# Si number density = 25.200744 Si / 1000 Ang^3
#
#
#
# Elastic Constant Matrix: (Units=GPa)
#
#
# Indices 1 2 3 4 5 6 
#
# 1 140.0582 13.5039 -0.2835 0.0000 0.0000 0.0000
# 2 13.5039 150.2790 41.3056 0.0000 0.0000 0.0000
# 3 -0.2835 41.3056 70.4925 0.0000 0.0000 0.0000
# 4 0.0000 0.0000 0.0000 39.1682 0.0000 0.0000
# 5 0.0000 0.0000 0.0000 0.0000 33.7364 0.0000
# 6 0.0000 0.0000 0.0000 0.0000 0.0000 29.5992
#
#
#
# Elastic Compliance Matrix: (Units=1/GPa)
#
#
# Indices 1 2 3 4 5 6 
#
# 1 0.007216 -0.000782 0.000487 0.000000 0.000000 0.000000
# 2 -0.000782 0.008017 -0.004701 0.000000 0.000000 0.000000
# 3 0.000487 -0.004701 0.016942 0.000000 0.000000 0.000000
# 4 0.000000 0.000000 0.000000 0.025531 0.000000 0.000000
# 5 0.000000 0.000000 0.000000 0.000000 0.029642 0.000000
# 6 0.000000 0.000000 0.000000 0.000000 0.000000 0.033785
#
#
# Mechanical properties :
#
#
# Convention : Reuss Voigt Hill
#
# Bulk Modulus (GPa) = 45.07726 52.20907 48.64317
# Shear Modulus (GPa) = 36.09644 40.92102 38.50873
#
# Velocity S-wave (km/s) = 3.78875 4.03401 3.91331
# Velocity P-wave (km/s) = 6.08816 6.51613 6.30577
#
# Compressibility (1/GPa) = 0.02218413
#
# Stress axis : x y z
#
# Youngs Moduli (GPa) = 138.57488 124.74152 59.02435
#
# Poissons Ratio (x) = 0.09760 -0.02877
# Poissons Ratio (y) = 0.10843 0.27744
# Poissons Ratio (z) = -0.06755 0.58635
#
# Static dielectric constant tensor:
#      x y z
#    x 2.116540 0.000000 0.000000 
#    y 0.000000 1.985940 0.000000 
#    z 0.000000 0.000000 2.040290 
# 
# From -- ./inp_files/16221.got.cif
#   From: 2010.05.17/outbox.cif.g08.bks.cpg/sg62_9_cif.got.tgz:16221.got - 2010.06.03 15:25:27.
