data_PCOD9465734
_publ_section_title
;
Structure prediction by ZEFSAII (Michael W. Deem and Ramdas Pophale) SiO2 
 PCOD9465734
Probable space group: P N M A
;
_chemical_formula_sum "Si O2"
_cell_formula_units_Z 56
_cell_length_a 11.911705
_cell_length_b 20.220742
_cell_length_c 12.719803
_cell_angle_alpha 90.000000
_cell_angle_beta 90.000000
_cell_angle_gamma 90.000000
_cell_volume 3063.736443
_symmetry_space_group_name_H-M "P N M A"
_symmetry_group_IT_number 62
_symmetry_cell_setting 'orthorhombic'
loop_
_space_group_symop_operation_xyz
x,y,z
1/2-x,-y,1/2+z
1/2+x,1/2-y,1/2-z
-x,1/2+y,-z
-x,-y,-z
1/2+x,y,1/2-z
1/2-x,1/2+y,1/2+z
x,1/2-y,z
loop_
_atom_site_type_symbol
_atom_site_label
_atom_site_fract_x
_atom_site_fract_y
_atom_site_fract_z
Si Si1 0.721201 0.902608 0.094580
Si Si2 0.667307 0.676498 0.896258
Si Si3 0.530776 0.443688 0.915917
Si Si4 0.754723 0.957159 0.298246
Si Si5 0.871611 0.476070 0.009765
Si Si6 0.238689 0.592574 0.801671
Si Si7 0.903213 0.674255 0.555801
O O1 0.590345 0.918093 0.116965
O O2 0.766657 0.898476 0.213220
O O3 0.790129 0.962012 0.038578
O O4 0.720407 0.845439 0.007658
O O5 0.705135 0.750000 0.868131
O O6 0.693820 0.626636 0.802976
O O7 0.533367 0.676255 0.911159
O O8 0.618154 0.473548 0.833951
O O9 0.500000 0.500000 0.000000
O O10 0.597115 0.380774 0.964046
O O11 0.676032 0.947823 0.399515
O O12 0.711240 0.022168 0.235995
O O13 0.850825 0.425708 0.106697
O O14 0.000000 0.500000 0.000000
O O15 0.328102 0.641752 0.853760
O O16 0.869415 0.750000 0.530406
#
# Coordination Sequence:
#
# PCOD9465734 Si02
#       7
#     8   8   8   8   8   8   8
#     4  10  22  36  56  84 115 152 190 245 299 354
#     4  10  21  38  60  83 112 156 204 245 294 363
#     4  11  18  38  60  86 118 153 208 251 302 363
#     4  11  21  35  57  87 114 154 190 247 309 359
#     4  11  23  36  54  89 123 150 191 247 313 367
#     4  11  21  35  58  84 119 152 195 247 310 361
#     4  10  21  37  58  86 116 156 204 253 304 365
#
# _framework density 18.278334000000001
#
# number of rings (size 3 to 8) (size 9 to 14) (size 15 to 20)
#    0.000    1.429    4.286    2.143    6.000    0.000 
#    0.000    0.714    0.000    0.857    0.000    0.000 
#    0.000    0.000    0.000    0.000    0.000    0.000 
#
# Total GULP energy -311922.703601 kJ/mol
# GULP energy per Si atom -5570.048279 kJ/mol
# Density = 1.823673 g / cm^3
# Si number density = 18.278334 Si / 1000 Ang^3
#
#
#
# Elastic Constant Matrix: (Units=GPa)
#
#
# Indices 1 2 3 4 5 6 
#
# 1 60.7516 10.5085 24.2152 0.0000 0.0000 0.0000
# 2 10.5085 83.4382 28.3464 0.0000 0.0000 0.0000
# 3 24.2152 28.3464 113.3589 0.0000 0.0000 0.0000
# 4 0.0000 0.0000 0.0000 24.6865 0.0000 0.0000
# 5 0.0000 0.0000 0.0000 0.0000 25.4217 0.0000
# 6 0.0000 0.0000 0.0000 0.0000 0.0000 21.2213
#
#
#
# Elastic Compliance Matrix: (Units=1/GPa)
#
#
# Indices 1 2 3 4 5 6 
#
# 1 0.018077 -0.001054 -0.003598 0.000000 0.000000 0.000000
# 2 -0.001054 0.013159 -0.003065 0.000000 0.000000 0.000000
# 3 -0.003598 -0.003065 0.010357 0.000000 0.000000 0.000000
# 4 0.000000 0.000000 0.000000 0.040508 0.000000 0.000000
# 5 0.000000 0.000000 0.000000 0.000000 0.039337 0.000000
# 6 0.000000 0.000000 0.000000 0.000000 0.000000 0.047123
#
#
# Mechanical properties :
#
#
# Convention : Reuss Voigt Hill
#
# Bulk Modulus (GPa) = 38.22991 42.63211 40.43101
# Shear Modulus (GPa) = 25.94521 27.23115 26.58818
#
# Velocity S-wave (km/s) = 3.77165 3.86399 3.81810
# Velocity P-wave (km/s) = 6.31886 6.57888 6.45018
#
# Compressibility (1/GPa) = 0.02615753
#
# Stress axis : x y z
#
# Youngs Moduli (GPa) = 55.31917 75.99313 96.55673
#
# Poissons Ratio (x) = 0.08012 0.34740
# Poissons Ratio (y) = 0.05833 0.29598
# Poissons Ratio (z) = 0.19903 0.23294
#
# Static dielectric constant tensor:
#      x y z
#    x 1.651580 0.000000 0.000000 
#    y 0.000000 1.671260 0.000000 
#    z 0.000000 0.000000 1.702950 
# 
# From -- ./inp_files/12400.got.cif
#   From: 2010.05.17/outbox.cif.g08.bks.cpg/sg62_7_cif.got.tgz:12400.got - 2010.06.03 15:25:27.
