data_PCOD9465102
_publ_section_title
;
Structure prediction by ZEFSAII (Michael W. Deem and Ramdas Pophale) SiO2 
 PCOD9465102
Probable space group: P N M A
;
_chemical_formula_sum "Si O2"
_cell_formula_units_Z 48
_cell_length_a 11.825652
_cell_length_b 12.317364
_cell_length_c 15.686653
_cell_angle_alpha 90.000000
_cell_angle_beta 90.000000
_cell_angle_gamma 90.000000
_cell_volume 2284.931370
_symmetry_space_group_name_H-M "P N M A"
_symmetry_group_IT_number 62
_symmetry_cell_setting 'orthorhombic'
loop_
_space_group_symop_operation_xyz
x,y,z
1/2-x,-y,1/2+z
1/2+x,1/2-y,1/2-z
-x,1/2+y,-z
-x,-y,-z
1/2+x,y,1/2-z
1/2-x,1/2+y,1/2+z
x,1/2-y,z
loop_
_atom_site_type_symbol
_atom_site_label
_atom_site_fract_x
_atom_site_fract_y
_atom_site_fract_z
Si Si1 0.422296 0.872399 0.906686
Si Si2 0.963512 0.520429 0.901661
Si Si3 0.588905 0.049397 0.906831
Si Si4 0.789935 0.494861 0.140798
Si Si5 0.789275 0.126681 0.802041
Si Si6 0.236154 0.370839 0.027816
O O1 0.451227 0.750000 0.879078
O O2 0.487458 0.977649 0.867954
O O3 0.289923 0.897299 0.891198
O O4 0.446287 0.886506 0.008022
O O5 0.888650 0.422836 0.861614
O O6 0.874496 0.617835 0.912778
O O7 0.078954 0.538228 0.850220
O O8 0.000000 0.500000 0.000000
O O9 0.667656 0.124259 0.849618
O O10 0.674033 0.954508 0.936067
O O11 0.734454 0.546676 0.223810
O O12 0.789362 0.587096 0.067268
O O13 0.816957 0.250000 0.777146
O O14 0.279613 0.250000 0.026818
#
# Coordination Sequence:
#
# PCOD9465102 Si02
#       6
#     8   8   8   8   8   8
#     4  10  20  38  61  85 120 165 200 245 305 362
#     4   9  21  39  58  86 123 160 209 254 295 379
#     4   9  20  36  59  89 118 149 205 252 285 373
#     4  10  22  37  57  91 127 153 202 258 303 375
#     4  11  23  39  63  90 123 160 197 260 327 363
#     4   9  17  35  61  86 115 159 202 247 302 355
#
# _framework density 21.007194999999999
#
# number of rings (size 3 to 8) (size 9 to 14) (size 15 to 20)
#    0.000    2.333    0.000    2.500    2.333    4.000 
#    0.000    5.833    0.000    0.000    0.000    0.000 
#    0.000    0.000    0.000    0.000    0.000    0.000 
#
# Total GULP energy -267506.215049 kJ/mol
# GULP energy per Si atom -5573.046147 kJ/mol
# Density = 2.095938 g / cm^3
# Si number density = 21.007195 Si / 1000 Ang^3
#
#
#
# Elastic Constant Matrix: (Units=GPa)
#
#
# Indices 1 2 3 4 5 6 
#
# 1 117.4592 10.7858 21.8800 0.0000 0.0000 0.0000
# 2 10.7858 71.4248 12.9358 0.0000 0.0000 0.0000
# 3 21.8800 12.9358 53.1818 0.0000 0.0000 0.0000
# 4 0.0000 0.0000 0.0000 12.6681 0.0000 0.0000
# 5 0.0000 0.0000 0.0000 0.0000 22.2116 0.0000
# 6 0.0000 0.0000 0.0000 0.0000 0.0000 10.1255
#
#
#
# Elastic Compliance Matrix: (Units=1/GPa)
#
#
# Indices 1 2 3 4 5 6 
#
# 1 0.009258 -0.000741 -0.003629 0.000000 0.000000 0.000000
# 2 -0.000741 0.014705 -0.003272 0.000000 0.000000 0.000000
# 3 -0.003629 -0.003272 0.021092 0.000000 0.000000 0.000000
# 4 0.000000 0.000000 0.000000 0.078939 0.000000 0.000000
# 5 0.000000 0.000000 0.000000 0.000000 0.045021 0.000000
# 6 0.000000 0.000000 0.000000 0.000000 0.000000 0.098761
#
#
# Mechanical properties :
#
#
# Convention : Reuss Voigt Hill
#
# Bulk Modulus (GPa) = 33.58851 37.02989 35.30920
# Shear Modulus (GPa) = 17.06587 22.09866 19.58227
#
# Velocity S-wave (km/s) = 2.85332 3.24691 3.05646
# Velocity P-wave (km/s) = 5.18450 5.63223 5.41300
#
# Compressibility (1/GPa) = 0.02977208
#
# Stress axis : x y z
#
# Youngs Moduli (GPa) = 108.02019 68.00308 47.41098
#
# Poissons Ratio (x) = 0.05038 0.17203
# Poissons Ratio (y) = 0.08002 0.15513
# Poissons Ratio (z) = 0.39195 0.22251
#
# Static dielectric constant tensor:
#      x y z
#    x 1.846610 0.000000 0.000000 
#    y 0.000000 1.704140 0.000000 
#    z 0.000000 0.000000 1.831920 
# 
# From -- ./inp_files/23032.got.cif
#   From: 2010.05.17/outbox.cif.g08.bks.cpg/sg62_12_cif.got.tgz:23032.got - 2010.06.03 15:25:27.
