data_PCOD9465959
_publ_section_title
;
Structure prediction by ZEFSAII (Michael W. Deem and Ramdas Pophale) SiO2 
 PCOD9465959
Probable space group: P N M A
;
_chemical_formula_sum "Si O2"
_cell_formula_units_Z 48
_cell_length_a 9.650633
_cell_length_b 8.629701
_cell_length_c 29.022988
_cell_angle_alpha 90.000000
_cell_angle_beta 90.000000
_cell_angle_gamma 90.000000
_cell_volume 2417.094729
_symmetry_space_group_name_H-M "P N M A"
_symmetry_group_IT_number 62
_symmetry_cell_setting 'orthorhombic'
loop_
_space_group_symop_operation_xyz
x,y,z
1/2-x,-y,1/2+z
1/2+x,1/2-y,1/2-z
-x,1/2+y,-z
-x,-y,-z
1/2+x,y,1/2-z
1/2-x,1/2+y,1/2+z
x,1/2-y,z
loop_
_atom_site_type_symbol
_atom_site_label
_atom_site_fract_x
_atom_site_fract_y
_atom_site_fract_z
Si Si1 0.308629 0.565552 0.721468
Si Si2 0.311512 0.063427 0.882483
Si Si3 0.503421 0.062144 0.641364
Si Si4 0.145115 0.435092 0.484283
Si Si5 0.997107 0.563852 0.300957
Si Si6 0.404524 0.435969 0.540222
O O1 0.305792 0.750000 0.727243
O O2 0.408090 0.517700 0.679135
O O3 0.384191 0.488093 0.765189
O O4 0.152191 0.506261 0.712151
O O5 0.312264 0.250000 0.886279
O O6 0.166507 0.021641 0.857520
O O7 0.443018 0.017601 0.851235
O O8 0.314212 0.996933 0.933880
O O9 0.491433 0.250000 0.646307
O O10 0.449727 0.014542 0.590798
O O11 0.143262 0.250000 0.482044
O O12 0.252542 0.482397 0.524059
O O13 0.000000 0.500000 0.500000
O O14 0.984501 0.750000 0.299752
O O15 0.500000 0.500000 0.500000
O O16 0.414418 0.250000 0.540057
#
# Coordination Sequence:
#
# PCOD9465959 Si02
#       6
#     8   8   8   8   8   8
#     4  12  26  43  66  99 131 162 206 264 319 370
#     4  10  22  41  66  92 120 162 212 259 310 372
#     4  10  21  40  65  92 125 167 212 257 312 383
#     4  11  24  39  59  90 127 167 210 259 315 371
#     4  11  24  44  69  94 125 167 212 255 312 386
#     4  10  21  38  62  90 122 164 212 259 309 370
#
# _framework density 19.858550999999999
#
# number of rings (size 3 to 8) (size 9 to 14) (size 15 to 20)
#    0.000    1.333    1.667    3.500    2.333    4.667 
#    0.000    0.000    0.000    0.000    0.000    0.000 
#    0.000    0.000    0.000    0.000    0.000    0.000 
#
# Total GULP energy -268253.202327 kJ/mol
# GULP energy per Si atom -5588.608382 kJ/mol
# Density = 1.981335 g / cm^3
# Si number density = 19.858551 Si / 1000 Ang^3
#
#
#
# Elastic Constant Matrix: (Units=GPa)
#
#
# Indices 1 2 3 4 5 6 
#
# 1 116.7736 17.7942 6.7780 0.0000 0.0000 0.0000
# 2 17.7942 19.4848 3.0335 0.0000 0.0000 0.0000
# 3 6.7780 3.0335 64.8679 0.0000 0.0000 0.0000
# 4 0.0000 0.0000 0.0000 31.6867 0.0000 0.0000
# 5 0.0000 0.0000 0.0000 0.0000 40.1682 0.0000
# 6 0.0000 0.0000 0.0000 0.0000 0.0000 27.0899
#
#
#
# Elastic Compliance Matrix: (Units=1/GPa)
#
#
# Indices 1 2 3 4 5 6 
#
# 1 0.009973 -0.009011 -0.000621 0.000000 0.000000 0.000000
# 2 -0.009011 0.059840 -0.001857 0.000000 0.000000 0.000000
# 3 -0.000621 -0.001857 0.015568 0.000000 0.000000 0.000000
# 4 0.000000 0.000000 0.000000 0.031559 0.000000 0.000000
# 5 0.000000 0.000000 0.000000 0.000000 0.024895 0.000000
# 6 0.000000 0.000000 0.000000 0.000000 0.000000 0.036914
#
#
# Mechanical properties :
#
#
# Convention : Reuss Voigt Hill
#
# Bulk Modulus (GPa) = 16.02464 28.48198 22.25331
# Shear Modulus (GPa) = 22.46919 31.35700 26.91309
#
# Velocity S-wave (km/s) = 3.36737 3.97800 3.68535
# Velocity P-wave (km/s) = 4.81724 5.95591 5.41658
#
# Compressibility (1/GPa) = 0.06240390
#
# Stress axis : x y z
#
# Youngs Moduli (GPa) = 100.27387 16.71116 64.23581
#
# Poissons Ratio (x) = 0.15058 0.03987
# Poissons Ratio (y) = 0.90355 0.11928
# Poissons Ratio (z) = 0.06224 0.03103
#
# Static dielectric constant tensor:
#      x y z
#    x 1.571340 0.000000 0.000000 
#    y 0.000000 1.670770 0.000000 
#    z 0.000000 0.000000 1.656570 
# 
# From -- ./inp_files/31905.got.cif
#   From: 2010.05.17/outbox.cif.g08.bks.cpg/sg62_16_cif.got.tgz:31905.got - 2010.06.03 15:25:27.
