data_PCOD9465650
_publ_section_title
;
Structure prediction by ZEFSAII (Michael W. Deem and Ramdas Pophale) SiO2 
 PCOD9465650
Probable space group: P N M A
;
_chemical_formula_sum "Si O2"
_cell_formula_units_Z 60
_cell_length_a 13.823871
_cell_length_b 9.726793
_cell_length_c 22.059185
_cell_angle_alpha 90.000000
_cell_angle_beta 90.000000
_cell_angle_gamma 90.000000
_cell_volume 2966.120626
_symmetry_space_group_name_H-M "P N M A"
_symmetry_group_IT_number 62
_symmetry_cell_setting 'orthorhombic'
loop_
_space_group_symop_operation_xyz
x,y,z
1/2-x,-y,1/2+z
1/2+x,1/2-y,1/2-z
-x,1/2+y,-z
-x,-y,-z
1/2+x,y,1/2-z
1/2-x,1/2+y,1/2+z
x,1/2-y,z
loop_
_atom_site_type_symbol
_atom_site_label
_atom_site_fract_x
_atom_site_fract_y
_atom_site_fract_z
Si Si1 0.289083 0.410178 0.227515
Si Si2 0.151706 0.412441 0.521540
Si Si3 0.054771 0.591289 0.419950
Si Si4 0.464957 0.250000 0.497349
Si Si5 0.365214 0.094512 0.785833
Si Si6 0.300895 0.591068 0.593480
Si Si7 0.524312 0.996182 0.582919
Si Si8 0.557617 0.091002 0.715117
O O1 0.304616 0.250000 0.239763
O O2 0.213805 0.480061 0.273451
O O3 0.245173 0.423491 0.160192
O O4 0.385529 0.497121 0.237488
O O5 0.168887 0.250000 0.514264
O O6 0.116576 0.486961 0.460464
O O7 0.243927 0.488033 0.549785
O O8 0.058883 0.430834 0.566363
O O9 0.075487 0.750000 0.438456
O O10 0.081879 0.577330 0.349962
O O11 0.424555 0.372581 0.452145
O O12 0.512258 0.370121 0.541441
O O13 0.324013 0.250000 0.784432
O O14 0.445115 0.086025 0.733188
O O15 0.289200 0.750000 0.573746
O O16 0.414626 0.559141 0.594612
O O17 0.570064 0.035577 0.647229
O O18 0.587636 0.250000 0.719618
#
# Coordination Sequence:
#
# PCOD9465650 Si02
#       8
#     8   8   8   4   8   8   8   8
#     4  11  25  40  61  96 127 162 209 257 319 383
#     4  10  21  36  62  91 120 159 210 256 307 376
#     4   9  19  39  59  86 125 162 198 255 320 372
#     4  10  24  42  66  94 120 166 216 256 316 372
#     4  10  21  40  64  90 122 162 206 256 313 373
#     4  11  23  41  63  92 126 164 209 264 316 382
#     4  11  22  44  66  92 126 167 212 268 319 382
#     4  11  23  42  68  94 126 170 210 266 325 381
#
# _framework density 20.228442000000001
#
# number of rings (size 3 to 8) (size 9 to 14) (size 15 to 20)
#    0.000    1.600    2.667    1.600    1.867    3.733 
#    4.800    0.000    0.000    0.000    0.000    0.000 
#    0.000    0.000    0.000    0.000    0.000    0.000 
#
# Total GULP energy -334228.638271 kJ/mol
# GULP energy per Si atom -5570.477305 kJ/mol
# Density = 2.018240 g / cm^3
# Si number density = 20.228442 Si / 1000 Ang^3
#
#
#
# Elastic Constant Matrix: (Units=GPa)
#
#
# Indices 1 2 3 4 5 6 
#
# 1 39.0741 20.5237 -3.6127 0.0000 0.0000 0.0000
# 2 20.5237 143.9689 38.5980 0.0000 0.0000 0.0000
# 3 -3.6127 38.5980 51.0564 0.0000 0.0000 0.0000
# 4 0.0000 0.0000 0.0000 31.5562 0.0000 0.0000
# 5 0.0000 0.0000 0.0000 0.0000 23.8867 0.0000
# 6 0.0000 0.0000 0.0000 0.0000 0.0000 15.7991
#
#
#
# Elastic Compliance Matrix: (Units=1/GPa)
#
#
# Indices 1 2 3 4 5 6 
#
# 1 0.029319 -0.005940 0.006565 0.000000 0.000000 0.000000
# 2 -0.005940 0.009915 -0.007916 0.000000 0.000000 0.000000
# 3 0.006565 -0.007916 0.026035 0.000000 0.000000 0.000000
# 4 0.000000 0.000000 0.000000 0.031689 0.000000 0.000000
# 5 0.000000 0.000000 0.000000 0.000000 0.041864 0.000000
# 6 0.000000 0.000000 0.000000 0.000000 0.000000 0.063295
#
#
# Mechanical properties :
#
#
# Convention : Reuss Voigt Hill
#
# Bulk Modulus (GPa) = 19.72857 38.34636 29.03747
# Shear Modulus (GPa) = 21.40460 26.15444 23.77952
#
# Velocity S-wave (km/s) = 3.25644 3.59967 3.43235
# Velocity P-wave (km/s) = 4.89012 6.02284 5.48579
#
# Compressibility (1/GPa) = 0.05068790
#
# Stress axis : x y z
#
# Youngs Moduli (GPa) = 34.10734 100.85812 38.40985
#
# Poissons Ratio (x) = 0.59907 -0.25216
# Poissons Ratio (y) = 0.20259 0.30405
# Poissons Ratio (z) = -0.22391 0.79838
#
# Static dielectric constant tensor:
#      x y z
#    x 1.746860 0.000000 0.000000 
#    y 0.000000 1.691440 0.000000 
#    z 0.000000 0.000000 1.712750 
# 
# From -- ./inp_files/29648.got.cif
#   From: 2010.05.17/outbox.cif.g08.bks.cpg/sg62_15_cif.got.tgz:29648.got - 2010.06.03 15:25:27.
