data_PCOD9465563
_publ_section_title
;
Structure prediction by ZEFSAII (Michael W. Deem and Ramdas Pophale) SiO2 
 PCOD9465563
Probable space group: P N M A
;
_chemical_formula_sum "Si O2"
_cell_formula_units_Z 56
_cell_length_a 9.287313
_cell_length_b 20.217265
_cell_length_c 14.274229
_cell_angle_alpha 90.000000
_cell_angle_beta 90.000000
_cell_angle_gamma 90.000000
_cell_volume 2680.187305
_symmetry_space_group_name_H-M "P N M A"
_symmetry_group_IT_number 62
_symmetry_cell_setting 'orthorhombic'
loop_
_space_group_symop_operation_xyz
x,y,z
1/2-x,-y,1/2+z
1/2+x,1/2-y,1/2-z
-x,1/2+y,-z
-x,-y,-z
1/2+x,y,1/2-z
1/2-x,1/2+y,1/2+z
x,1/2-y,z
loop_
_atom_site_type_symbol
_atom_site_label
_atom_site_fract_x
_atom_site_fract_y
_atom_site_fract_z
Si Si1 0.043248 0.174657 0.894419
Si Si2 0.362131 0.554929 0.264026
Si Si3 0.045707 0.379226 0.373880
Si Si4 0.740934 0.885971 0.963777
Si Si5 0.517932 0.420942 0.331570
Si Si6 0.582632 0.533514 0.125777
Si Si7 0.176300 0.825850 0.954918
O O1 0.049783 0.250000 0.859923
O O2 0.084953 0.119968 0.818686
O O3 0.157130 0.164523 0.979913
O O4 0.887228 0.161791 0.941307
O O5 0.438621 0.488741 0.304827
O O6 0.425937 0.557905 0.159393
O O7 0.194162 0.544524 0.286996
O O8 0.066679 0.382070 0.261902
O O9 0.069595 0.456632 0.398896
O O10 0.157047 0.337285 0.433983
O O11 0.883471 0.358049 0.397559
O O12 0.846509 0.930033 0.899956
O O13 0.657026 0.927540 0.042179
O O14 0.404847 0.375941 0.386523
O O15 0.137901 0.750000 0.933718
#
# Coordination Sequence:
#
# PCOD9465563 Si02
#       7
#     8   8   8   8   8   8   8
#     4   9  21  41  61  84 117 158 202 245 301 372
#     4  10  21  37  61  84 120 155 201 253 303 351
#     4  11  21  35  55  87 120 149 196 250 301 349
#     4  10  22  36  60  87 118 156 197 250 301 349
#     4  10  21  37  58  83 118 162 199 242 296 365
#     4  10  22  36  57  90 116 154 196 253 298 359
#     4  10  21  36  55  82 116 155 198 238 295 366
#
# _framework density 20.894062000000002
#
# number of rings (size 3 to 8) (size 9 to 14) (size 15 to 20)
#    0.000    2.000    1.429    1.286    8.000    4.000 
#    0.000    5.714    0.000    0.000    0.000    0.000 
#    0.000    0.000    0.000    0.000    0.000    0.000 
#
# Total GULP energy -312589.156182 kJ/mol
# GULP energy per Si atom -5581.949218 kJ/mol
# Density = 2.084651 g / cm^3
# Si number density = 20.894062 Si / 1000 Ang^3
#
#
#
# Elastic Constant Matrix: (Units=GPa)
#
#
# Indices 1 2 3 4 5 6 
#
# 1 70.2867 -7.1650 1.4663 0.0000 0.0000 0.0000
# 2 -7.1650 51.5713 -3.4645 0.0000 0.0000 0.0000
# 3 1.4663 -3.4645 33.6271 0.0000 0.0000 0.0000
# 4 0.0000 0.0000 0.0000 19.4212 0.0000 0.0000
# 5 0.0000 0.0000 0.0000 0.0000 31.2167 0.0000
# 6 0.0000 0.0000 0.0000 0.0000 0.0000 12.2288
#
#
#
# Elastic Compliance Matrix: (Units=1/GPa)
#
#
# Indices 1 2 3 4 5 6 
#
# 1 0.014438 0.001977 -0.000426 0.000000 0.000000 0.000000
# 2 0.001977 0.019797 0.001953 0.000000 0.000000 0.000000
# 3 -0.000426 0.001953 0.029958 0.000000 0.000000 0.000000
# 4 0.000000 0.000000 0.000000 0.051490 0.000000 0.000000
# 5 0.000000 0.000000 0.000000 0.000000 0.032034 0.000000
# 6 0.000000 0.000000 0.000000 0.000000 0.000000 0.081774
#
#
# Mechanical properties :
#
#
# Convention : Reuss Voigt Hill
#
# Bulk Modulus (GPa) = 14.04458 15.23985 14.64222
# Shear Modulus (GPa) = 20.30743 23.54989 21.92866
#
# Velocity S-wave (km/s) = 3.12095 3.36089 3.24314
# Velocity P-wave (km/s) = 4.44112 4.72974 4.58770
#
# Compressibility (1/GPa) = 0.07120184
#
# Stress axis : x y z
#
# Youngs Moduli (GPa) = 69.26222 50.51381 33.38038
#
# Poissons Ratio (x) = -0.09988 0.01421
# Poissons Ratio (y) = -0.13695 -0.06520
# Poissons Ratio (z) = 0.02949 -0.09867
#
# Static dielectric constant tensor:
#      x y z
#    x 1.770370 0.000000 0.000000 
#    y 0.000000 1.700230 0.000000 
#    z 0.000000 0.000000 1.807070 
# 
# From -- ./inp_files/17210.got.cif
#   From: 2010.05.17/outbox.cif.g08.bks.cpg/sg62_9_cif.got.tgz:17210.got - 2010.06.03 15:25:27.
