data_PCOD9465649
_publ_section_title
;
Structure prediction by ZEFSAII (Michael W. Deem and Ramdas Pophale) SiO2 
 PCOD9465649
Probable space group: P N M A
;
_chemical_formula_sum "Si O2"
_cell_formula_units_Z 48
_cell_length_a 15.391422
_cell_length_b 17.843681
_cell_length_c 7.376515
_cell_angle_alpha 90.000000
_cell_angle_beta 90.000000
_cell_angle_gamma 90.000000
_cell_volume 2025.883308
_symmetry_space_group_name_H-M "P N M A"
_symmetry_group_IT_number 62
_symmetry_cell_setting 'orthorhombic'
loop_
_space_group_symop_operation_xyz
x,y,z
1/2-x,-y,1/2+z
1/2+x,1/2-y,1/2-z
-x,1/2+y,-z
-x,-y,-z
1/2+x,y,1/2-z
1/2-x,1/2+y,1/2+z
x,1/2-y,z
loop_
_atom_site_type_symbol
_atom_site_label
_atom_site_fract_x
_atom_site_fract_y
_atom_site_fract_z
Si Si1 0.001345 0.104673 0.391195
Si Si2 0.008715 0.832978 0.985711
Si Si3 0.685032 0.100261 0.924707
Si Si4 0.921444 0.048441 0.736617
Si Si5 0.243091 0.957755 0.724860
Si Si6 0.800627 0.666956 0.049565
O O1 0.254447 0.085510 0.415485
O O2 0.017749 0.023828 0.297525
O O3 0.974881 0.157873 0.228060
O O4 0.171764 0.989152 0.238671
O O5 0.035672 0.750000 0.048111
O O6 0.904426 0.839107 0.014627
O O7 0.051379 0.899607 0.098187
O O8 0.671232 0.019101 0.826199
O O9 0.595088 0.124762 0.019262
O O10 0.712654 0.154416 0.763673
O O11 0.934682 0.097451 0.555535
O O12 0.257256 0.897865 0.567919
O O13 0.772434 0.750000 0.994691
#
# Coordination Sequence:
#
# PCOD9465649 Si02
#       6
#     8   8   8   8   8   8
#     4  10  21  36  62  91 118 155 212 261 300 358
#     4  11  22  37  61  91 125 161 200 253 315 369
#     4  11  21  39  63  94 118 166 211 258 304 369
#     4  10  21  37  59  91 119 159 205 254 307 366
#     4  11  23  39  66  90 124 164 210 258 308 370
#     4  11  23  38  60  94 125 156 203 261 311 363
#
# _framework density 23.693369000000001
#
# number of rings (size 3 to 8) (size 9 to 14) (size 15 to 20)
#    0.000    1.333    6.667    0.500    0.000    2.000 
#    0.000    0.833    0.000    2.000    0.000    0.000 
#    0.000    0.000    0.000    0.000    0.000    0.000 
#
# Total GULP energy -268652.439761 kJ/mol
# GULP energy per Si atom -5596.925828 kJ/mol
# Density = 2.363944 g / cm^3
# Si number density = 23.693369 Si / 1000 Ang^3
#
#
#
# Elastic Constant Matrix: (Units=GPa)
#
#
# Indices 1 2 3 4 5 6 
#
# 1 47.1080 -0.3938 8.7435 0.0000 0.0000 0.0000
# 2 -0.3938 68.4248 21.4294 0.0000 0.0000 0.0000
# 3 8.7435 21.4294 135.3709 0.0000 0.0000 0.0000
# 4 0.0000 0.0000 0.0000 19.5761 0.0000 0.0000
# 5 0.0000 0.0000 0.0000 0.0000 26.2287 0.0000
# 6 0.0000 0.0000 0.0000 0.0000 0.0000 12.0756
#
#
#
# Elastic Compliance Matrix: (Units=1/GPa)
#
#
# Indices 1 2 3 4 5 6 
#
# 1 0.021508 0.000588 -0.001482 0.000000 0.000000 0.000000
# 2 0.000588 0.015393 -0.002475 0.000000 0.000000 0.000000
# 3 -0.001482 -0.002475 0.007875 0.000000 0.000000 0.000000
# 4 0.000000 0.000000 0.000000 0.051083 0.000000 0.000000
# 5 0.000000 0.000000 0.000000 0.000000 0.038126 0.000000
# 6 0.000000 0.000000 0.000000 0.000000 0.000000 0.082811
#
#
# Mechanical properties :
#
#
# Convention : Reuss Voigt Hill
#
# Bulk Modulus (GPa) = 26.28983 34.49577 30.39280
# Shear Modulus (GPa) = 21.16735 26.31771 23.74253
#
# Velocity S-wave (km/s) = 2.99220 3.33643 3.16899
# Velocity P-wave (km/s) = 4.80184 5.42524 5.12303
#
# Compressibility (1/GPa) = 0.03803752
#
# Stress axis : x y z
#
# Youngs Moduli (GPa) = 46.49468 64.96454 126.99048
#
# Poissons Ratio (x) = -0.03820 0.18823
# Poissons Ratio (y) = -0.02734 0.31427
# Poissons Ratio (z) = 0.06892 0.16077
#
# Static dielectric constant tensor:
#      x y z
#    x 1.941780 0.000000 0.000000 
#    y 0.000000 1.856330 0.000000 
#    z 0.000000 0.000000 1.930530 
# 
# From -- ./inp_files/9386.got.cif
#   From: 2010.05.17/outbox.cif.g08.bks.cpg/sg62_5_cif.got.tgz:9386.got - 2010.06.03 15:25:27.
