data_PCOD9465823
_publ_section_title
;
Structure prediction by ZEFSAII (Michael W. Deem and Ramdas Pophale) SiO2 
 PCOD9465823
Probable space group: P N M A
;
_chemical_formula_sum "Si O2"
_cell_formula_units_Z 44
_cell_length_a 8.781577
_cell_length_b 16.845829
_cell_length_c 11.903848
_cell_angle_alpha 90.000000
_cell_angle_beta 90.000000
_cell_angle_gamma 90.000000
_cell_volume 1760.971285
_symmetry_space_group_name_H-M "P N M A"
_symmetry_group_IT_number 62
_symmetry_cell_setting 'orthorhombic'
loop_
_space_group_symop_operation_xyz
x,y,z
1/2-x,-y,1/2+z
1/2+x,1/2-y,1/2-z
-x,1/2+y,-z
-x,-y,-z
1/2+x,y,1/2-z
1/2-x,1/2+y,1/2+z
x,1/2-y,z
loop_
_atom_site_type_symbol
_atom_site_label
_atom_site_fract_x
_atom_site_fract_y
_atom_site_fract_z
Si Si1 0.317363 0.421740 0.909431
Si Si2 0.637280 0.250000 0.039469
Si Si3 0.608988 0.750000 0.359462
Si Si4 0.263360 0.557040 0.643809
Si Si5 0.996209 0.578337 0.200647
Si Si6 0.002605 0.160768 0.259547
Si Si7 0.342359 0.250000 0.896782
O O1 0.314691 0.464877 0.025860
O O2 0.467651 0.419022 0.833749
O O3 0.284142 0.331241 0.946083
O O4 0.172139 0.446501 0.835171
O O5 0.794846 0.250000 0.973566
O O6 0.518109 0.250000 0.935827
O O7 0.598497 0.323361 0.124011
O O8 0.523474 0.833718 0.348233
O O9 0.693440 0.750000 0.236390
O O10 0.374433 0.481978 0.661130
O O11 0.124596 0.594918 0.715683
O O12 0.387563 0.627979 0.663170
O O13 0.940704 0.250000 0.235282
#
# Coordination Sequence:
#
# PCOD9465823 Si02
#       7
#     8   4   4   8   8   8   4
#     4  11  24  43  69  97 140 185 229 295 350 413
#     4  10  22  43  66 103 132 181 236 284 349 422
#     4  10  25  40  68  96 140 180 234 280 337 425
#     4  12  24  46  70 102 144 181 235 297 348 422
#     4  11  26  43  67 104 139 186 239 281 358 418
#     4  10  24  43  71 100 137 178 232 283 355 416
#     4  10  21  37  68  91 132 175 236 270 348 407
#
# _framework density 24.986208999999999
#
# number of rings (size 3 to 8) (size 9 to 14) (size 15 to 20)
#    0.545    0.727    1.818    2.727   11.455    2.909 
#    0.000    2.727    0.000    0.000    0.000    0.000 
#    0.000    0.000    0.000    0.000    0.000    0.000 
#
# Total GULP energy -245359.409283 kJ/mol
# GULP energy per Si atom -5576.350211 kJ/mol
# Density = 2.492934 g / cm^3
# Si number density = 24.986209 Si / 1000 Ang^3
#
#
#
# Elastic Constant Matrix: (Units=GPa)
#
#
# Indices 1 2 3 4 5 6 
#
# 1 76.0192 2.1640 39.6524 0.0000 0.0000 0.0000
# 2 2.1640 83.3066 24.9671 0.0000 0.0000 0.0000
# 3 39.6524 24.9671 60.9356 0.0000 0.0000 0.0000
# 4 0.0000 0.0000 0.0000 19.6084 0.0000 0.0000
# 5 0.0000 0.0000 0.0000 0.0000 36.3836 0.0000
# 6 0.0000 0.0000 0.0000 0.0000 0.0000 10.8405
#
#
#
# Elastic Compliance Matrix: (Units=1/GPa)
#
#
# Indices 1 2 3 4 5 6 
#
# 1 0.021052 0.004057 -0.015361 0.000000 0.000000 0.000000
# 2 0.004057 0.014466 -0.008567 0.000000 0.000000 0.000000
# 3 -0.015361 -0.008567 0.029917 0.000000 0.000000 0.000000
# 4 0.000000 0.000000 0.000000 0.050999 0.000000 0.000000
# 5 0.000000 0.000000 0.000000 0.000000 0.027485 0.000000
# 6 0.000000 0.000000 0.000000 0.000000 0.000000 0.092247
#
#
# Mechanical properties :
#
#
# Convention : Reuss Voigt Hill
#
# Bulk Modulus (GPa) = 38.92275 39.31426 39.11850
# Shear Modulus (GPa) = 17.57649 23.59835 20.58742
#
# Velocity S-wave (km/s) = 2.65514 3.07653 2.87357
# Velocity P-wave (km/s) = 5.00112 5.32810 5.16719
#
# Compressibility (1/GPa) = 0.02569192
#
# Stress axis : x y z
#
# Youngs Moduli (GPa) = 47.50246 69.12749 33.42606
#
# Poissons Ratio (x) = -0.28044 0.51346
# Poissons Ratio (y) = -0.19271 0.28636
# Poissons Ratio (z) = 0.72969 0.59222
#
# Static dielectric constant tensor:
#      x y z
#    x 1.974340 0.000000 0.000000 
#    y 0.000000 2.074840 0.000000 
#    z 0.000000 0.000000 2.025230 
# 
# From -- ./inp_files/16887.got.cif
#   From: 2010.05.17/outbox.cif.g08.bks.cpg/sg62_9_cif.got.tgz:16887.got - 2010.06.03 15:25:27.
