data_PCOD9465287
_publ_section_title
;
Structure prediction by ZEFSAII (Michael W. Deem and Ramdas Pophale) SiO2 
 PCOD9465287
Probable space group: P N M A
;
_chemical_formula_sum "Si O2"
_cell_formula_units_Z 56
_cell_length_a 21.795759
_cell_length_b 8.217454
_cell_length_c 15.019316
_cell_angle_alpha 90.000000
_cell_angle_beta 90.000000
_cell_angle_gamma 90.000000
_cell_volume 2690.044309
_symmetry_space_group_name_H-M "P N M A"
_symmetry_group_IT_number 62
_symmetry_cell_setting 'orthorhombic'
loop_
_space_group_symop_operation_xyz
x,y,z
1/2-x,-y,1/2+z
1/2+x,1/2-y,1/2-z
-x,1/2+y,-z
-x,-y,-z
1/2+x,y,1/2-z
1/2-x,1/2+y,1/2+z
x,1/2-y,z
loop_
_atom_site_type_symbol
_atom_site_label
_atom_site_fract_x
_atom_site_fract_y
_atom_site_fract_z
Si Si1 0.764459 0.946970 0.389345
Si Si2 0.963864 0.444011 0.586816
Si Si3 0.410974 0.445620 0.410515
Si Si4 0.015774 0.443760 0.221647
Si Si5 0.711310 0.052661 0.689646
Si Si6 0.377695 0.053495 0.604037
Si Si7 0.325239 0.054712 0.928448
O O1 0.765875 0.750000 0.393869
O O2 0.789829 0.996927 0.292913
O O3 0.693140 0.998416 0.394855
O O4 0.801590 0.013931 0.472891
O O5 0.961077 0.250000 0.585105
O O6 0.995193 0.495832 0.678816
O O7 0.893892 0.509335 0.586045
O O8 0.000000 0.500000 0.500000
O O9 0.416374 0.250000 0.414803
O O10 0.466045 0.509481 0.349217
O O11 0.346671 0.487871 0.364320
O O12 0.408831 0.505980 0.512160
O O13 0.011952 0.250000 0.221764
O O14 0.082570 0.495799 0.187044
O O15 0.710197 0.250000 0.686744
O O16 0.774060 0.996392 0.641811
O O17 0.377804 0.250000 0.604776
O O18 0.327590 0.250000 0.918882
#
# Coordination Sequence:
#
# PCOD9465287 Si02
#       7
#     8   8   8   8   8   8   8
#     4  10  21  37  61  90 121 157 200 247 301 366
#     4  11  25  45  66  89 123 164 208 257 310 365
#     4  10  22  39  60  88 123 160 201 252 305 360
#     4  11  24  40  61  91 124 161 208 255 304 365
#     4  10  21  37  59  89 121 156 200 247 302 365
#     4  10  20  39  63  89 124 163 200 247 307 364
#     4  10  22  41  63  88 120 157 198 250 302 356
#
# _framework density 20.817499999999999
#
# number of rings (size 3 to 8) (size 9 to 14) (size 15 to 20)
#    0.000    1.714    1.429    2.143    2.000    6.286 
#    0.000    1.429    0.000    0.000    0.000    0.000 
#    0.000    0.000    0.000    0.000    0.000    0.000 
#
# Total GULP energy -313062.556672 kJ/mol
# GULP energy per Si atom -5590.402798 kJ/mol
# Density = 2.077012 g / cm^3
# Si number density = 20.817500 Si / 1000 Ang^3
#
#
#
# Elastic Constant Matrix: (Units=GPa)
#
#
# Indices 1 2 3 4 5 6 
#
# 1 49.3829 -2.4790 -7.5786 0.0000 0.0000 0.0000
# 2 -2.4790 6.8932 -0.5210 0.0000 0.0000 0.0000
# 3 -7.5786 -0.5210 98.8191 0.0000 0.0000 0.0000
# 4 0.0000 0.0000 0.0000 31.9474 0.0000 0.0000
# 5 0.0000 0.0000 0.0000 0.0000 31.6052 0.0000
# 6 0.0000 0.0000 0.0000 0.0000 0.0000 27.7323
#
#
#
# Elastic Compliance Matrix: (Units=1/GPa)
#
#
# Indices 1 2 3 4 5 6 
#
# 1 0.020885 0.007635 0.001642 0.000000 0.000000 0.000000
# 2 0.007635 0.147920 0.001365 0.000000 0.000000 0.000000
# 3 0.001642 0.001365 0.010253 0.000000 0.000000 0.000000
# 4 0.000000 0.000000 0.000000 0.031301 0.000000 0.000000
# 5 0.000000 0.000000 0.000000 0.000000 0.031640 0.000000
# 6 0.000000 0.000000 0.000000 0.000000 0.000000 0.036059
#
#
# Mechanical properties :
#
#
# Convention : Reuss Voigt Hill
#
# Bulk Modulus (GPa) = 4.99145 14.88199 9.93672
# Shear Modulus (GPa) = 15.45336 29.30191 22.37764
#
# Velocity S-wave (km/s) = 2.72752 3.75582 3.28219
# Velocity P-wave (km/s) = 3.51028 5.09633 4.37576
#
# Compressibility (1/GPa) = 0.20034262
#
# Stress axis : x y z
#
# Youngs Moduli (GPa) = 47.88076 6.76043 97.53600
#
# Poissons Ratio (x) = -0.05162 -0.16015
# Poissons Ratio (y) = -0.36558 -0.13318
# Poissons Ratio (z) = -0.07862 -0.00923
#
# Static dielectric constant tensor:
#      x y z
#    x 1.737670 0.000000 0.000000 
#    y 0.000000 1.724740 0.000000 
#    z 0.000000 0.000000 1.714040 
# 
# From -- ./inp_files/20299.got.cif
#   From: 2010.05.17/outbox.cif.g08.bks.cpg/sg62_11_cif.got.tgz:20299.got - 2010.06.03 15:25:27.
