data_PCOD9465255
_publ_section_title
;
Structure prediction by ZEFSAII (Michael W. Deem and Ramdas Pophale) SiO2 
 PCOD9465255
Probable space group: P N M A
;
_chemical_formula_sum "Si O2"
_cell_formula_units_Z 56
_cell_length_a 14.207990
_cell_length_b 31.570518
_cell_length_c 6.655479
_cell_angle_alpha 90.000000
_cell_angle_beta 90.000000
_cell_angle_gamma 90.000000
_cell_volume 2985.339092
_symmetry_space_group_name_H-M "P N M A"
_symmetry_group_IT_number 62
_symmetry_cell_setting 'orthorhombic'
loop_
_space_group_symop_operation_xyz
x,y,z
1/2-x,-y,1/2+z
1/2+x,1/2-y,1/2-z
-x,1/2+y,-z
-x,-y,-z
1/2+x,y,1/2-z
1/2-x,1/2+y,1/2+z
x,1/2-y,z
loop_
_atom_site_type_symbol
_atom_site_label
_atom_site_fract_x
_atom_site_fract_y
_atom_site_fract_z
Si Si1 0.092389 0.299644 0.306596
Si Si2 0.754169 0.650589 0.440139
Si Si3 0.117654 0.798692 0.787488
Si Si4 0.973549 0.471046 0.192109
Si Si5 0.642158 0.003272 0.076857
Si Si6 0.684470 0.942934 0.439092
Si Si7 0.775753 0.796661 0.054469
O O1 0.103360 0.250000 0.372550
O O2 0.156864 0.330764 0.437074
O O3 0.983461 0.311197 0.298001
O O4 0.131394 0.301110 0.079695
O O5 0.662538 0.671723 0.543697
O O6 0.740914 0.600595 0.432108
O O7 0.764848 0.667841 0.217301
O O8 0.109949 0.750000 0.862320
O O9 0.191572 0.798455 0.605434
O O10 0.910026 0.492361 0.367556
O O11 0.073394 0.464121 0.302885
O O12 0.905488 0.437131 0.086190
O O13 0.000000 0.500000 0.000000
O O14 0.652801 0.962330 0.223448
O O15 0.744123 0.022448 0.032394
O O16 0.775248 0.750000 0.151476
#
# Coordination Sequence:
#
# PCOD9465255 Si02
#       7
#     8   8   8   8   8   8   8
#     4   9  19  37  58  82 116 155 189 225 277 338
#     4  11  22  34  54  87 116 146 189 240 281 334
#     4   9  19  37  59  81 114 156 190 229 283 338
#     4   9  20  39  62  84 105 141 192 238 283 347
#     4  10  20  39  61  83 110 147 194 233 294 358
#     4  11  22  37  60  83 113 152 190 240 295 344
#     4   9  18  35  56  80 111 145 184 229 280 335
#
# _framework density 18.758337999999998
#
# number of rings (size 3 to 8) (size 9 to 14) (size 15 to 20)
#    0.000    2.286    1.429    2.143    0.000    4.571 
#    0.000   11.429    0.000    0.000    0.000    0.000 
#    0.000    0.000    0.000    0.000    0.000    0.000 
#
# Total GULP energy -311993.238216 kJ/mol
# GULP energy per Si atom -5571.307825 kJ/mol
# Density = 1.871564 g / cm^3
# Si number density = 18.758338 Si / 1000 Ang^3
#
#
#
# Elastic Constant Matrix: (Units=GPa)
#
#
# Indices 1 2 3 4 5 6 
#
# 1 52.3405 -7.3566 6.0392 0.0000 0.0000 0.0000
# 2 -7.3566 40.9606 14.8226 0.0000 0.0000 0.0000
# 3 6.0392 14.8226 72.8689 0.0000 0.0000 0.0000
# 4 0.0000 0.0000 0.0000 38.7576 0.0000 0.0000
# 5 0.0000 0.0000 0.0000 0.0000 18.9880 0.0000
# 6 0.0000 0.0000 0.0000 0.0000 0.0000 14.1280
#
#
#
# Elastic Compliance Matrix: (Units=1/GPa)
#
#
# Indices 1 2 3 4 5 6 
#
# 1 0.020041 0.004534 -0.002583 0.000000 0.000000 0.000000
# 2 0.004534 0.027379 -0.005945 0.000000 0.000000 0.000000
# 3 -0.002583 -0.005945 0.015147 0.000000 0.000000 0.000000
# 4 0.000000 0.000000 0.000000 0.025801 0.000000 0.000000
# 5 0.000000 0.000000 0.000000 0.000000 0.052665 0.000000
# 6 0.000000 0.000000 0.000000 0.000000 0.000000 0.070781
#
#
# Mechanical properties :
#
#
# Convention : Reuss Voigt Hill
#
# Bulk Modulus (GPa) = 18.32214 21.46449 19.89331
# Shear Modulus (GPa) = 21.00872 24.55236 22.78054
#
# Velocity S-wave (km/s) = 3.35022 3.62177 3.48864
# Velocity P-wave (km/s) = 4.97534 5.38118 5.18223
#
# Compressibility (1/GPa) = 0.05457879
#
# Stress axis : x y z
#
# Youngs Moduli (GPa) = 49.89757 36.52369 66.02088
#
# Poissons Ratio (x) = -0.16561 0.17055
# Poissons Ratio (y) = -0.22625 0.39251
# Poissons Ratio (z) = 0.12890 0.21714
#
# Static dielectric constant tensor:
#      x y z
#    x 1.669190 0.000000 0.000000 
#    y 0.000000 1.655050 0.000000 
#    z 0.000000 0.000000 1.641770 
# 
# From -- ./inp_files/1284.got.cif
#   From: 2010.05.17/outbox.cif.g08.bks.cpg/sg62_1_cif.got.tgz:1284.got - 2010.06.03 15:25:27.
