data_PCOD9465580
_publ_section_title
;
Structure prediction by ZEFSAII (Michael W. Deem and Ramdas Pophale) SiO2 
 PCOD9465580
Probable space group: P N M A
;
_chemical_formula_sum "Si O2"
_cell_formula_units_Z 56
_cell_length_a 20.484979
_cell_length_b 8.612107
_cell_length_c 16.352625
_cell_angle_alpha 90.000000
_cell_angle_beta 90.000000
_cell_angle_gamma 90.000000
_cell_volume 2884.910987
_symmetry_space_group_name_H-M "P N M A"
_symmetry_group_IT_number 62
_symmetry_cell_setting 'orthorhombic'
loop_
_space_group_symop_operation_xyz
x,y,z
1/2-x,-y,1/2+z
1/2+x,1/2-y,1/2-z
-x,1/2+y,-z
-x,-y,-z
1/2+x,y,1/2-z
1/2-x,1/2+y,1/2+z
x,1/2-y,z
loop_
_atom_site_type_symbol
_atom_site_label
_atom_site_fract_x
_atom_site_fract_y
_atom_site_fract_z
Si Si1 0.826191 0.063005 0.492935
Si Si2 0.334638 0.937436 0.332310
Si Si3 0.186188 0.563280 0.315903
Si Si4 0.322655 0.939012 0.518999
Si Si5 0.036721 0.935645 0.751095
Si Si6 0.957604 0.933667 0.425774
Si Si7 0.595614 0.062831 0.326873
O O1 0.832881 0.250000 0.484059
O O2 0.831830 0.026965 0.589873
O O3 0.752976 0.017811 0.466357
O O4 0.882779 0.979851 0.443398
O O5 0.336593 0.750000 0.330380
O O6 0.261935 0.983908 0.303927
O O7 0.341334 0.987688 0.427226
O O8 0.393453 0.002231 0.279521
O O9 0.182466 0.750000 0.307966
O O10 0.139356 0.486729 0.250128
O O11 0.323588 0.750000 0.518703
O O12 0.370482 0.995028 0.590018
O O13 0.038241 0.750000 0.750935
O O14 0.978410 0.989694 0.810801
O O15 0.021473 0.994019 0.660208
O O16 0.965282 0.750000 0.422317
O O17 0.000000 0.000000 0.500000
O O18 0.594952 0.250000 0.330555
#
# Coordination Sequence:
#
# PCOD9465580 Si02
#       7
#     8   8   8   8   8   8   8
#     4   9  18  36  60  84 112 148 189 233 291 351
#     4   9  19  38  60  83 114 151 192 236 287 346
#     4   9  19  35  57  84 115 148 186 236 288 346
#     4   8  17  36  60  84 112 149 190 236 290 343
#     4  11  24  39  56  84 120 155 195 240 289 346
#     4  12  25  40  59  84 117 153 194 240 291 351
#     4  10  21  36  56  83 113 150 195 239 286 342
#
# _framework density 19.411345000000001
#
# number of rings (size 3 to 8) (size 9 to 14) (size 15 to 20)
#    0.000    2.286    0.000    4.286    2.000    5.143 
#    0.000    2.857    0.000    0.000    0.000    0.000 
#    0.000    0.000    0.000    0.000    0.000    0.000 
#
# Total GULP energy -312758.338770 kJ/mol
# GULP energy per Si atom -5584.970335 kJ/mol
# Density = 1.936716 g / cm^3
# Si number density = 19.411345 Si / 1000 Ang^3
#
#
#
# Elastic Constant Matrix: (Units=GPa)
#
#
# Indices 1 2 3 4 5 6 
#
# 1 55.1773 10.2654 10.9449 0.0000 0.0000 0.0000
# 2 10.2654 17.2386 0.0894 0.0000 0.0000 0.0000
# 3 10.9449 0.0894 24.8209 0.0000 0.0000 0.0000
# 4 0.0000 0.0000 0.0000 22.4542 0.0000 0.0000
# 5 0.0000 0.0000 0.0000 0.0000 34.5065 0.0000
# 6 0.0000 0.0000 0.0000 0.0000 0.0000 27.5587
#
#
#
# Elastic Compliance Matrix: (Units=1/GPa)
#
#
# Indices 1 2 3 4 5 6 
#
# 1 0.022581 -0.013395 -0.009909 0.000000 0.000000 0.000000
# 2 -0.013395 0.065957 0.005669 0.000000 0.000000 0.000000
# 3 -0.009909 0.005669 0.044638 0.000000 0.000000 0.000000
# 4 0.000000 0.000000 0.000000 0.044535 0.000000 0.000000
# 5 0.000000 0.000000 0.000000 0.000000 0.028980 0.000000
# 6 0.000000 0.000000 0.000000 0.000000 0.000000 0.036286
#
#
# Mechanical properties :
#
#
# Convention : Reuss Voigt Hill
#
# Bulk Modulus (GPa) = 10.21394 15.53733 12.87564
# Shear Modulus (GPa) = 16.08326 21.96635 19.02480
#
# Velocity S-wave (km/s) = 2.88158 3.36761 3.13403
# Velocity P-wave (km/s) = 4.04284 4.81069 4.44338
#
# Compressibility (1/GPa) = 0.09790540
#
# Stress axis : x y z
#
# Youngs Moduli (GPa) = 44.28498 15.16142 22.40260
#
# Poissons Ratio (x) = 0.20309 0.22199
# Poissons Ratio (y) = 0.59321 -0.12701
# Poissons Ratio (z) = 0.43882 -0.08595
#
# Static dielectric constant tensor:
#      x y z
#    x 1.676810 0.000000 0.000000 
#    y 0.000000 1.644910 0.000000 
#    z 0.000000 0.000000 1.663960 
# 
# From -- ./inp_files/20409.got.cif
#   From: 2010.05.17/outbox.cif.g08.bks.cpg/sg62_11_cif.got.tgz:20409.got - 2010.06.03 15:25:27.
