data_PCOD9465003
_publ_section_title
;
Structure prediction by ZEFSAII (Michael W. Deem and Ramdas Pophale) SiO2 
 PCOD9465003
Probable space group: P N M A
;
_chemical_formula_sum "Si O2"
_cell_formula_units_Z 48
_cell_length_a 18.317610
_cell_length_b 14.325375
_cell_length_c 9.766796
_cell_angle_alpha 90.000000
_cell_angle_beta 90.000000
_cell_angle_gamma 90.000000
_cell_volume 2562.872047
_symmetry_space_group_name_H-M "P N M A"
_symmetry_group_IT_number 62
_symmetry_cell_setting 'orthorhombic'
loop_
_space_group_symop_operation_xyz
x,y,z
1/2-x,-y,1/2+z
1/2+x,1/2-y,1/2-z
-x,1/2+y,-z
-x,-y,-z
1/2+x,y,1/2-z
1/2-x,1/2+y,1/2+z
x,1/2-y,z
loop_
_atom_site_type_symbol
_atom_site_label
_atom_site_fract_x
_atom_site_fract_y
_atom_site_fract_z
Si Si1 0.523698 0.552066 0.137902
Si Si2 0.209139 0.954183 0.020808
Si Si3 0.671212 0.050044 0.214698
Si Si4 0.475993 0.250000 0.997313
Si Si5 0.631952 0.250000 0.146335
Si Si6 0.554006 0.539211 0.616474
Si Si7 0.215331 0.750000 0.998306
Si Si8 0.917734 0.250000 0.203919
O O1 0.600817 0.514317 0.192736
O O2 0.530419 0.659335 0.096768
O O3 0.464508 0.521642 0.250292
O O4 0.500000 0.500000 0.000000
O O5 0.276954 0.956769 0.917638
O O6 0.135901 0.976050 0.936690
O O7 0.199730 0.847093 0.071844
O O8 0.214751 0.019985 0.150991
O O9 0.641394 0.155021 0.229497
O O10 0.555990 0.250000 0.067152
O O11 0.422795 0.250000 0.130738
O O12 0.700163 0.250000 0.042522
O O13 0.500000 0.500000 0.500000
O O14 0.547405 0.651089 0.651477
O O15 0.163886 0.750000 0.861752
#
# Coordination Sequence:
#
# PCOD9465003 Si02
#       8
#     8   8   8   4   4   8   4   4
#     4  12  24  40  65  94 125 168 215 265 317 380
#     4  10  23  40  65  92 127 169 210 267 317 387
#     4  11  23  41  63  92 127 168 213 262 324 380
#     4  12  24  38  66  96 128 166 217 270 314 385
#     4  10  20  38  61  88 121 166 211 253 317 385
#     4  11  22  41  63  93 129 167 214 263 321 377
#     4   8  20  37  61  86 124 164 209 249 327 372
#     4  10  20  37  62  86 125 174 205 256 324 378
#
# _framework density 18.728988999999999
#
# number of rings (size 3 to 8) (size 9 to 14) (size 15 to 20)
#    0.000    1.333    5.000    0.000    2.333    2.667 
#    0.000    1.667    0.000    0.000    0.000    0.000 
#    0.000    0.000    0.000    0.000    0.000    0.000 
#
# Total GULP energy -267843.755556 kJ/mol
# GULP energy per Si atom -5580.078241 kJ/mol
# Density = 1.868636 g / cm^3
# Si number density = 18.728989 Si / 1000 Ang^3
#
#
#
# Elastic Constant Matrix: (Units=GPa)
#
#
# Indices 1 2 3 4 5 6 
#
# 1 44.9073 5.7469 -12.1156 0.0000 0.0000 0.0000
# 2 5.7469 146.0422 42.3765 0.0000 0.0000 0.0000
# 3 -12.1156 42.3765 77.7316 0.0000 0.0000 0.0000
# 4 0.0000 0.0000 0.0000 26.0983 0.0000 0.0000
# 5 0.0000 0.0000 0.0000 0.0000 26.7929 0.0000
# 6 0.0000 0.0000 0.0000 0.0000 0.0000 23.1781
#
#
#
# Elastic Compliance Matrix: (Units=1/GPa)
#
#
# Indices 1 2 3 4 5 6 
#
# 1 0.023936 -0.002405 0.005042 0.000000 0.000000 0.000000
# 2 -0.002405 0.008376 -0.004941 0.000000 0.000000 0.000000
# 3 0.005042 -0.004941 0.016344 0.000000 0.000000 0.000000
# 4 0.000000 0.000000 0.000000 0.038317 0.000000 0.000000
# 5 0.000000 0.000000 0.000000 0.000000 0.037323 0.000000
# 6 0.000000 0.000000 0.000000 0.000000 0.000000 0.043144
#
#
# Mechanical properties :
#
#
# Convention : Reuss Voigt Hill
#
# Bulk Modulus (GPa) = 22.70250 37.85520 30.27885
# Shear Modulus (GPa) = 26.77653 30.72543 28.75098
#
# Velocity S-wave (km/s) = 3.78522 4.05474 3.92229
# Velocity P-wave (km/s) = 5.59032 6.49439 6.05924
#
# Compressibility (1/GPa) = 0.04404802
#
# Stress axis : x y z
#
# Youngs Moduli (GPa) = 41.77792 119.39341 61.18358
#
# Poissons Ratio (x) = 0.28713 -0.30848
# Poissons Ratio (y) = 0.10047 0.30231
# Poissons Ratio (z) = -0.21064 0.58992
#
# Static dielectric constant tensor:
#      x y z
#    x 1.645310 0.000000 0.000000 
#    y 0.000000 1.741150 0.000000 
#    z 0.000000 0.000000 1.636540 
# 
# From -- ./inp_files/7700.got.cif
#   From: 2010.05.17/outbox.cif.g08.bks.cpg/sg62_4_cif.got.tgz:7700.got - 2010.06.03 15:25:27.
