data_PCOD9465668
_publ_section_title
;
Structure prediction by ZEFSAII (Michael W. Deem and Ramdas Pophale) SiO2 
 PCOD9465668
Probable space group: P N M A
;
_chemical_formula_sum "Si O2"
_cell_formula_units_Z 56
_cell_length_a 20.324967
_cell_length_b 7.870672
_cell_length_c 15.851200
_cell_angle_alpha 90.000000
_cell_angle_beta 90.000000
_cell_angle_gamma 90.000000
_cell_volume 2535.734672
_symmetry_space_group_name_H-M "P N M A"
_symmetry_group_IT_number 62
_symmetry_cell_setting 'orthorhombic'
loop_
_space_group_symop_operation_xyz
x,y,z
1/2-x,-y,1/2+z
1/2+x,1/2-y,1/2-z
-x,1/2+y,-z
-x,-y,-z
1/2+x,y,1/2-z
1/2-x,1/2+y,1/2+z
x,1/2-y,z
loop_
_atom_site_type_symbol
_atom_site_label
_atom_site_fract_x
_atom_site_fract_y
_atom_site_fract_z
Si Si1 0.683518 0.052071 0.819440
Si Si2 0.084321 0.459472 0.338974
Si Si3 0.824980 0.551849 0.812670
Si Si4 0.544123 0.047092 0.579772
Si Si5 0.672836 0.452155 0.009304
Si Si6 0.453288 0.446875 0.238505
Si Si7 0.681183 0.455820 0.505169
O O1 0.700988 0.250000 0.826790
O O2 0.748849 0.963779 0.785106
O O3 0.616838 0.036267 0.767638
O O4 0.668741 0.981324 0.913556
O O5 0.084779 0.250000 0.338664
O O6 0.127329 0.519102 0.258748
O O7 0.120080 0.518543 0.423938
O O8 0.009198 0.513276 0.324686
O O9 0.841975 0.750000 0.820458
O O10 0.828153 0.481650 0.908180
O O11 0.543608 0.250000 0.589954
O O12 0.618655 0.990159 0.559440
O O13 0.500000 0.000000 0.500000
O O14 0.520144 0.965471 0.666503
O O15 0.662673 0.250000 0.004615
O O16 0.747912 0.484845 0.037264
O O17 0.441738 0.250000 0.219999
O O18 0.682372 0.250000 0.503751
#
# Coordination Sequence:
#
# PCOD9465668 Si02
#       7
#     8   8   8   8   8   8   8
#     4  10  21  37  55  82 118 149 186 239 293 343
#     4   9  19  36  58  83 109 144 195 243 286 342
#     4   9  17  34  59  82 108 145 187 230 282 343
#     4  11  23  39  59  86 121 154 190 236 288 348
#     4   9  19  36  58  83 111 146 190 241 291 340
#     4  11  23  39  59  83 114 155 197 238 288 347
#     4   9  19  35  55  81 113 146 184 233 282 338
#
# _framework density 22.084329
#
# number of rings (size 3 to 8) (size 9 to 14) (size 15 to 20)
#    0.000    2.286    0.000    2.143    2.000    4.571 
#    0.000    5.714    0.000    0.000    0.000    0.000 
#    0.000    0.000    0.000    0.000    0.000    0.000 
#
# Total GULP energy -312811.346868 kJ/mol
# GULP energy per Si atom -5585.916908 kJ/mol
# Density = 2.203406 g / cm^3
# Si number density = 22.084329 Si / 1000 Ang^3
#
#
#
# Elastic Constant Matrix: (Units=GPa)
#
#
# Indices 1 2 3 4 5 6 
#
# 1 55.8705 -8.7149 7.5005 0.0000 0.0000 0.0000
# 2 -8.7149 27.1870 -3.3342 0.0000 0.0000 0.0000
# 3 7.5005 -3.3342 32.7425 0.0000 0.0000 0.0000
# 4 0.0000 0.0000 0.0000 14.0838 0.0000 0.0000
# 5 0.0000 0.0000 0.0000 0.0000 35.5566 0.0000
# 6 0.0000 0.0000 0.0000 0.0000 0.0000 19.1795
#
#
#
# Elastic Compliance Matrix: (Units=1/GPa)
#
#
# Indices 1 2 3 4 5 6 
#
# 1 0.019306 0.005718 -0.003840 0.000000 0.000000 0.000000
# 2 0.005718 0.038941 0.002656 0.000000 0.000000 0.000000
# 3 -0.003840 0.002656 0.031692 0.000000 0.000000 0.000000
# 4 0.000000 0.000000 0.000000 0.071004 0.000000 0.000000
# 5 0.000000 0.000000 0.000000 0.000000 0.028124 0.000000
# 6 0.000000 0.000000 0.000000 0.000000 0.000000 0.052139
#
#
# Mechanical properties :
#
#
# Convention : Reuss Voigt Hill
#
# Bulk Modulus (GPa) = 10.10062 11.85589 10.97825
# Shear Modulus (GPa) = 18.85793 21.78721 20.32257
#
# Velocity S-wave (km/s) = 2.92534 3.14434 3.03681
# Velocity P-wave (km/s) = 3.99921 4.30844 4.15670
#
# Compressibility (1/GPa) = 0.09900386
#
# Stress axis : x y z
#
# Youngs Moduli (GPa) = 51.79751 25.68008 31.55418
#
# Poissons Ratio (x) = -0.14683 0.12118
# Poissons Ratio (y) = -0.29616 -0.08379
# Poissons Ratio (z) = 0.19892 -0.06820
#
# Static dielectric constant tensor:
#      x y z
#    x 1.799430 0.000000 0.000000 
#    y 0.000000 1.784540 0.000000 
#    z 0.000000 0.000000 1.834600 
# 
# From -- ./inp_files/20341.got.cif
#   From: 2010.05.17/outbox.cif.g08.bks.cpg/sg62_11_cif.got.tgz:20341.got - 2010.06.03 15:25:27.
