data_PCOD9465156
_publ_section_title
;
Structure prediction by ZEFSAII (Michael W. Deem and Ramdas Pophale) SiO2 
 PCOD9465156
Probable space group: P N M A
;
_chemical_formula_sum "Si O2"
_cell_formula_units_Z 56
_cell_length_a 21.606234
_cell_length_b 7.903209
_cell_length_c 14.765682
_cell_angle_alpha 90.000000
_cell_angle_beta 90.000000
_cell_angle_gamma 90.000000
_cell_volume 2521.366935
_symmetry_space_group_name_H-M "P N M A"
_symmetry_group_IT_number 62
_symmetry_cell_setting 'orthorhombic'
loop_
_space_group_symop_operation_xyz
x,y,z
1/2-x,-y,1/2+z
1/2+x,1/2-y,1/2-z
-x,1/2+y,-z
-x,-y,-z
1/2+x,y,1/2-z
1/2-x,1/2+y,1/2+z
x,1/2-y,z
loop_
_atom_site_type_symbol
_atom_site_label
_atom_site_fract_x
_atom_site_fract_y
_atom_site_fract_z
Si Si1 0.771515 0.051653 0.414567
Si Si2 0.959417 0.555303 0.584415
Si Si3 0.410486 0.454278 0.401963
Si Si4 0.022013 0.551083 0.224875
Si Si5 0.707627 0.542750 0.716171
Si Si6 0.370394 0.044363 0.600297
Si Si7 0.323185 0.947380 0.895420
O O1 0.785737 0.250000 0.426480
O O2 0.800953 0.990256 0.320116
O O3 0.698130 0.028682 0.401342
O O4 0.793675 0.958590 0.504512
O O5 0.946822 0.750000 0.566658
O O6 0.993649 0.534162 0.680045
O O7 0.891491 0.472952 0.598208
O O8 0.000000 0.500000 0.500000
O O9 0.413065 0.250000 0.399261
O O10 0.469989 0.522323 0.350378
O O11 0.348773 0.508569 0.348108
O O12 0.403902 0.504774 0.506422
O O13 0.027461 0.750000 0.241669
O O14 0.087115 0.487896 0.183759
O O15 0.709155 0.750000 0.715753
O O16 0.772563 0.479699 0.674205
O O17 0.366183 0.250000 0.601949
O O18 0.329255 0.750000 0.869551
#
# Coordination Sequence:
#
# PCOD9465156 Si02
#       7
#     8   8   8   8   8   8   8
#     4  11  22  35  60  94 122 153 198 253 304 364
#     4  11  25  44  67  91 123 167 210 256 306 366
#     4  10  20  38  63  87 119 164 206 251 309 368
#     4  11  24  40  61  92 126 160 205 259 309 365
#     4   9  19  37  60  86 119 157 199 244 301 367
#     4  10  21  40  63  88 123 166 204 250 309 369
#     4  10  21  42  65  86 118 161 202 245 302 364
#
# _framework density 22.210173999999999
#
# number of rings (size 3 to 8) (size 9 to 14) (size 15 to 20)
#    0.000    1.714    1.429    2.571    2.000    4.000 
#    0.000    2.143    0.000    0.000    0.000    0.000 
#    0.000    0.000    0.000    0.000    0.000    0.000 
#
# Total GULP energy -313072.189147 kJ/mol
# GULP energy per Si atom -5590.574806 kJ/mol
# Density = 2.215962 g / cm^3
# Si number density = 22.210174 Si / 1000 Ang^3
#
#
#
# Elastic Constant Matrix: (Units=GPa)
#
#
# Indices 1 2 3 4 5 6 
#
# 1 50.1704 -0.1631 -6.6105 0.0000 0.0000 0.0000
# 2 -0.1631 16.8612 -15.0068 0.0000 0.0000 0.0000
# 3 -6.6105 -15.0068 81.2832 0.0000 0.0000 0.0000
# 4 0.0000 0.0000 0.0000 7.9259 0.0000 0.0000
# 5 0.0000 0.0000 0.0000 0.0000 33.6012 0.0000
# 6 0.0000 0.0000 0.0000 0.0000 0.0000 18.5407
#
#
#
# Elastic Compliance Matrix: (Units=1/GPa)
#
#
# Indices 1 2 3 4 5 6 
#
# 1 0.020203 0.001984 0.002009 0.000000 0.000000 0.000000
# 2 0.001984 0.071164 0.013300 0.000000 0.000000 0.000000
# 3 0.002009 0.013300 0.014922 0.000000 0.000000 0.000000
# 4 0.000000 0.000000 0.000000 0.126169 0.000000 0.000000
# 5 0.000000 0.000000 0.000000 0.000000 0.029761 0.000000
# 6 0.000000 0.000000 0.000000 0.000000 0.000000 0.053935
#
#
# Mechanical properties :
#
#
# Convention : Reuss Voigt Hill
#
# Bulk Modulus (GPa) = 7.09851 11.63935 9.36893
# Shear Modulus (GPa) = 15.21948 23.35323 19.28635
#
# Velocity S-wave (km/s) = 2.62056 3.24615 2.94999
# Velocity P-wave (km/s) = 3.51560 4.39339 3.97878
#
# Compressibility (1/GPa) = 0.14087465
#
# Stress axis : x y z
#
# Youngs Moduli (GPa) = 49.49697 14.05204 67.01720
#
# Poissons Ratio (x) = -0.02788 -0.13466
# Poissons Ratio (y) = -0.09819 -0.89132
# Poissons Ratio (z) = -0.09945 -0.18689
#
# Static dielectric constant tensor:
#      x y z
#    x 1.837320 0.000000 0.000000 
#    y 0.000000 1.812090 0.000000 
#    z 0.000000 0.000000 1.793900 
# 
# From -- ./inp_files/20307.got.cif
#   From: 2010.05.17/outbox.cif.g08.bks.cpg/sg62_11_cif.got.tgz:20307.got - 2010.06.03 15:25:27.
