data_PCOD9465697
_publ_section_title
;
Structure prediction by ZEFSAII (Michael W. Deem and Ramdas Pophale) SiO2 
 PCOD9465697
Probable space group: P N M A
;
_chemical_formula_sum "Si O2"
_cell_formula_units_Z 56
_cell_length_a 14.782960
_cell_length_b 7.924129
_cell_length_c 21.972392
_cell_angle_alpha 90.000000
_cell_angle_beta 90.000000
_cell_angle_gamma 90.000000
_cell_volume 2573.891746
_symmetry_space_group_name_H-M "P N M A"
_symmetry_group_IT_number 62
_symmetry_cell_setting 'orthorhombic'
loop_
_space_group_symop_operation_xyz
x,y,z
1/2-x,-y,1/2+z
1/2+x,1/2-y,1/2-z
-x,1/2+y,-z
-x,-y,-z
1/2+x,y,1/2-z
1/2-x,1/2+y,1/2+z
x,1/2-y,z
loop_
_atom_site_type_symbol
_atom_site_label
_atom_site_fract_x
_atom_site_fract_y
_atom_site_fract_z
Si Si1 0.782103 0.555350 0.522451
Si Si2 0.842576 0.952975 0.652000
Si Si3 0.047325 0.049477 0.133617
Si Si4 0.415546 0.556521 0.458884
Si Si5 0.792454 0.552474 0.259777
Si Si6 0.256197 0.047993 0.606640
Si Si7 0.498704 0.452667 0.234005
O O1 0.812528 0.750000 0.519197
O O2 0.822653 0.478389 0.584332
O O3 0.674089 0.551072 0.533584
O O4 0.793067 0.480786 0.454299
O O5 0.847998 0.750000 0.647264
O O6 0.938406 0.014056 0.679034
O O7 0.763596 0.984429 0.701983
O O8 0.038795 0.250000 0.124571
O O9 0.055430 0.014017 0.204817
O O10 0.136933 0.985449 0.100616
O O11 0.957472 0.963576 0.108055
O O12 0.500000 0.500000 0.500000
O O13 0.392646 0.750000 0.471923
O O14 0.770302 0.750000 0.261581
O O15 0.768670 0.477801 0.326789
O O16 0.900133 0.528583 0.256407
O O17 0.241533 0.250000 0.607495
O O18 0.487343 0.250000 0.228948
#
# Coordination Sequence:
#
# PCOD9465697 Si02
#       7
#     8   8   8   8   8   8   8
#     4  10  21  38  59  82 114 153 194 243 298 349
#     4  10  21  40  63  87 116 154 199 245 295 354
#     4  11  21  35  57  83 112 148 191 239 291 348
#     4  12  23  34  51  80 117 151 190 232 287 353
#     4  11  23  38  60  89 120 155 196 245 300 351
#     4  10  21  37  57  83 115 152 190 235 292 348
#     4  10  22  39  60  86 116 153 198 244 292 351
#
# _framework density 21.756936
#
# number of rings (size 3 to 8) (size 9 to 14) (size 15 to 20)
#    0.000    1.429    2.857    3.000    0.000    6.286 
#    0.000    0.714    0.000    0.000    0.000    0.000 
#    0.000    0.000    0.000    0.000    0.000    0.000 
#
# Total GULP energy -312586.912158 kJ/mol
# GULP energy per Si atom -5581.909146 kJ/mol
# Density = 2.170742 g / cm^3
# Si number density = 21.756936 Si / 1000 Ang^3
#
#
#
# Elastic Constant Matrix: (Units=GPa)
#
#
# Indices 1 2 3 4 5 6 
#
# 1 26.9361 -16.1690 0.6520 0.0000 0.0000 0.0000
# 2 -16.1690 29.1656 6.9670 0.0000 0.0000 0.0000
# 3 0.6520 6.9670 113.3021 0.0000 0.0000 0.0000
# 4 0.0000 0.0000 0.0000 17.4345 0.0000 0.0000
# 5 0.0000 0.0000 0.0000 0.0000 36.3425 0.0000
# 6 0.0000 0.0000 0.0000 0.0000 0.0000 13.2532
#
#
#
# Elastic Compliance Matrix: (Units=1/GPa)
#
#
# Indices 1 2 3 4 5 6 
#
# 1 0.056212 0.031706 -0.002273 0.000000 0.000000 0.000000
# 2 0.031706 0.052682 -0.003422 0.000000 0.000000 0.000000
# 3 -0.002273 -0.003422 0.009049 0.000000 0.000000 0.000000
# 4 0.000000 0.000000 0.000000 0.057358 0.000000 0.000000
# 5 0.000000 0.000000 0.000000 0.000000 0.027516 0.000000
# 6 0.000000 0.000000 0.000000 0.000000 0.000000 0.075454
#
#
# Mechanical properties :
#
#
# Convention : Reuss Voigt Hill
#
# Bulk Modulus (GPa) = 5.88351 16.92264 11.40307
# Shear Modulus (GPa) = 17.67386 25.26962 21.47174
#
# Velocity S-wave (km/s) = 2.85324 3.41170 3.14489
# Velocity P-wave (km/s) = 3.68303 4.82852 4.29414
#
# Compressibility (1/GPa) = 0.16996659
#
# Stress axis : x y z
#
# Youngs Moduli (GPa) = 17.78967 18.98181 110.50382
#
# Poissons Ratio (x) = -0.60184 0.25119
# Poissons Ratio (y) = -0.56405 0.37813
# Poissons Ratio (z) = 0.04044 0.06495
#
# Static dielectric constant tensor:
#      x y z
#    x 1.768190 0.000000 0.000000 
#    y 0.000000 1.783490 0.000000 
#    z 0.000000 0.000000 1.921940 
# 
# From -- ./inp_files/27117.got.cif
#   From: 2010.05.17/outbox.cif.g08.bks.cpg/sg62_14_cif.got.tgz:27117.got - 2010.06.03 15:25:27.
