data_PCOD9465965
_publ_section_title
;
Structure prediction by ZEFSAII (Michael W. Deem and Ramdas Pophale) SiO2 
 PCOD9465965
Probable space group: P N M A
;
_chemical_formula_sum "Si O2"
_cell_formula_units_Z 64
_cell_length_a 19.081905
_cell_length_b 8.505357
_cell_length_c 20.432917
_cell_angle_alpha 90.000000
_cell_angle_beta 90.000000
_cell_angle_gamma 90.000000
_cell_volume 3316.230028
_symmetry_space_group_name_H-M "P N M A"
_symmetry_group_IT_number 62
_symmetry_cell_setting 'orthorhombic'
loop_
_space_group_symop_operation_xyz
x,y,z
1/2-x,-y,1/2+z
1/2+x,1/2-y,1/2-z
-x,1/2+y,-z
-x,-y,-z
1/2+x,y,1/2-z
1/2-x,1/2+y,1/2+z
x,1/2-y,z
loop_
_atom_site_type_symbol
_atom_site_label
_atom_site_fract_x
_atom_site_fract_y
_atom_site_fract_z
Si Si1 0.449835 0.436937 0.680576
Si Si2 0.698301 0.941642 0.593814
Si Si3 0.033309 0.938796 0.701171
Si Si4 0.457701 0.061753 0.437807
Si Si5 0.210165 0.440202 0.524714
Si Si6 0.948550 0.938864 0.443956
Si Si7 0.203818 0.061104 0.147509
Si Si8 0.684716 0.941446 0.742642
O O1 0.452350 0.250000 0.678701
O O2 0.472699 0.497539 0.751811
O O3 0.504861 0.504781 0.628120
O O4 0.373088 0.494865 0.660240
O O5 0.699047 0.750000 0.595370
O O6 0.623396 0.989386 0.563425
O O7 0.760785 0.991480 0.546059
O O8 0.700446 0.995561 0.668945
O O9 0.031492 0.750000 0.701645
O O10 0.108097 0.990990 0.732074
O O11 0.029737 0.998428 0.627172
O O12 0.458799 0.250000 0.438864
O O13 0.500000 0.000000 0.500000
O O14 0.211221 0.250000 0.526414
O O15 0.131189 0.491772 0.540565
O O16 0.262593 0.501876 0.580135
O O17 0.949484 0.750000 0.443217
O O18 0.000000 0.000000 0.500000
O O19 0.200732 0.250000 0.146795
O O20 0.256266 0.010284 0.205731
O O21 0.683805 0.750000 0.741638
#
# Coordination Sequence:
#
# PCOD9465965 Si02
#       8
#     8   8   8   8   8   8   8   8
#     4  12  25  40  59  90 129 166 210 264 316 378
#     4   9  18  35  59  86 116 152 199 250 306 368
#     4  11  21  41  68  92 121 164 214 270 326 382
#     4  11  21  36  59  87 123 164 206 255 310 373
#     4  10  21  38  62  91 126 165 205 261 323 381
#     4  11  24  41  64  96 131 171 217 265 320 384
#     4  11  22  38  63  92 121 162 211 260 316 383
#     4   9  18  35  62  90 115 154 206 257 312 374
#
# _framework density 19.299022000000001
#
# number of rings (size 3 to 8) (size 9 to 14) (size 15 to 20)
#    0.000    1.500    2.500    3.375    0.000    2.500 
#    0.000    3.125    0.000    0.000    0.000    0.000 
#    0.000    0.000    0.000    0.000    0.000    0.000 
#
# Total GULP energy -357722.777838 kJ/mol
# GULP energy per Si atom -5589.418404 kJ/mol
# Density = 1.925510 g / cm^3
# Si number density = 19.299022 Si / 1000 Ang^3
#
#
#
# Elastic Constant Matrix: (Units=GPa)
#
#
# Indices 1 2 3 4 5 6 
#
# 1 88.2684 19.5451 38.6095 0.0000 0.0000 0.0000
# 2 19.5451 43.7785 18.0164 0.0000 0.0000 0.0000
# 3 38.6095 18.0164 147.0242 0.0000 0.0000 0.0000
# 4 0.0000 0.0000 0.0000 31.8232 0.0000 0.0000
# 5 0.0000 0.0000 0.0000 0.0000 42.3506 0.0000
# 6 0.0000 0.0000 0.0000 0.0000 0.0000 18.0907
#
#
#
# Elastic Compliance Matrix: (Units=1/GPa)
#
#
# Indices 1 2 3 4 5 6 
#
# 1 0.013727 -0.004892 -0.003005 0.000000 0.000000 0.000000
# 2 -0.004892 0.025798 -0.001877 0.000000 0.000000 0.000000
# 3 -0.003005 -0.001877 0.007821 0.000000 0.000000 0.000000
# 4 0.000000 0.000000 0.000000 0.031424 0.000000 0.000000
# 5 0.000000 0.000000 0.000000 0.000000 0.023612 0.000000
# 6 0.000000 0.000000 0.000000 0.000000 0.000000 0.055277
#
#
# Mechanical properties :
#
#
# Convention : Reuss Voigt Hill
#
# Bulk Modulus (GPa) = 35.97296 47.93480 41.95388
# Shear Modulus (GPa) = 26.81354 31.97956 29.39655
#
# Velocity S-wave (km/s) = 3.73147 4.07511 3.90707
# Velocity P-wave (km/s) = 6.10290 6.85813 6.49151
#
# Compressibility (1/GPa) = 0.02779866
#
# Stress axis : x y z
#
# Youngs Moduli (GPa) = 72.85025 38.76195 127.86410
#
# Poissons Ratio (x) = 0.18961 0.38427
# Poissons Ratio (y) = 0.35635 0.23997
# Poissons Ratio (z) = 0.21894 0.07275
#
# Static dielectric constant tensor:
#      x y z
#    x 1.656310 0.000000 0.000000 
#    y 0.000000 1.664610 0.000000 
#    z 0.000000 0.000000 1.655440 
# 
# From -- ./inp_files/27726.got.cif
#   From: 2010.05.17/outbox.cif.g08.bks.cpg/sg62_14_cif.got.tgz:27726.got - 2010.06.03 15:25:27.
