data_PCOD9465677
_publ_section_title
;
Structure prediction by ZEFSAII (Michael W. Deem and Ramdas Pophale) SiO2 
 PCOD9465677
Probable space group: P N M A
;
_chemical_formula_sum "Si O2"
_cell_formula_units_Z 56
_cell_length_a 16.874100
_cell_length_b 7.878648
_cell_length_c 20.523273
_cell_angle_alpha 90.000000
_cell_angle_beta 90.000000
_cell_angle_gamma 90.000000
_cell_volume 2728.468463
_symmetry_space_group_name_H-M "P N M A"
_symmetry_group_IT_number 62
_symmetry_cell_setting 'orthorhombic'
loop_
_space_group_symop_operation_xyz
x,y,z
1/2-x,-y,1/2+z
1/2+x,1/2-y,1/2-z
-x,1/2+y,-z
-x,-y,-z
1/2+x,y,1/2-z
1/2-x,1/2+y,1/2+z
x,1/2-y,z
loop_
_atom_site_type_symbol
_atom_site_label
_atom_site_fract_x
_atom_site_fract_y
_atom_site_fract_z
Si Si1 0.686219 0.544914 0.785818
Si Si2 0.261589 0.448820 0.983339
Si Si3 0.320197 0.955847 0.614466
Si Si4 0.162527 0.948480 0.860747
Si Si5 0.510889 0.548584 0.333223
Si Si6 0.065481 0.955448 0.446536
Si Si7 0.509358 0.453020 0.813038
O O1 0.686124 0.750000 0.784219
O O2 0.760931 0.488292 0.827937
O O3 0.686610 0.484307 0.710957
O O4 0.602955 0.491117 0.817670
O O5 0.274120 0.250000 0.997912
O O6 0.207609 0.464255 0.919605
O O7 0.348451 0.521398 0.968215
O O8 0.216267 0.519116 0.046338
O O9 0.321454 0.750000 0.614092
O O10 0.408922 0.014073 0.628434
O O11 0.182611 0.750000 0.863601
O O12 0.067756 0.968962 0.864187
O O13 0.496928 0.750000 0.330490
O O14 0.517447 0.483517 0.258327
O O15 0.069813 0.750000 0.442342
O O16 0.037912 0.019815 0.375474
O O17 0.000000 0.000000 0.500000
O O18 0.499339 0.250000 0.812555
#
# Coordination Sequence:
#
# PCOD9465677 Si02
#       7
#     8   8   8   8   8   8   8
#     4   9  19  36  58  83 112 146 185 229 280 332
#     4  10  22  38  57  81 114 153 188 229 282 337
#     4  10  21  37  56  81 112 147 188 230 278 334
#     4  10  21  38  59  84 113 146 187 236 283 334
#     4  10  21  37  58  84 110 144 187 233 284 333
#     4  10  21  37  57  83 116 152 188 228 278 337
#     4   9  19  35  55  82 112 142 183 229 276 332
#
# _framework density 20.524335000000001
#
# number of rings (size 3 to 8) (size 9 to 14) (size 15 to 20)
#    0.000    2.286    0.000    1.714    2.000    5.143 
#    0.000    0.000    0.000    0.000    0.000    0.000 
#    0.000    0.000    0.000    0.000    0.000    0.000 
#
# Total GULP energy -312740.809037 kJ/mol
# GULP energy per Si atom -5584.657304 kJ/mol
# Density = 2.047762 g / cm^3
# Si number density = 20.524335 Si / 1000 Ang^3
#
#
#
# Elastic Constant Matrix: (Units=GPa)
#
#
# Indices 1 2 3 4 5 6 
#
# 1 121.1018 -13.9808 80.8554 0.0000 0.0000 0.0000
# 2 -13.9808 18.8869 -9.8195 0.0000 0.0000 0.0000
# 3 80.8554 -9.8195 88.3545 0.0000 0.0000 0.0000
# 4 0.0000 0.0000 0.0000 17.4807 0.0000 0.0000
# 5 0.0000 0.0000 0.0000 0.0000 31.4686 0.0000
# 6 0.0000 0.0000 0.0000 0.0000 0.0000 17.3596
#
#
#
# Elastic Compliance Matrix: (Units=1/GPa)
#
#
# Indices 1 2 3 4 5 6 
#
# 1 0.021878 0.006141 -0.019339 0.000000 0.000000 0.000000
# 2 0.006141 0.057917 0.000817 0.000000 0.000000 0.000000
# 3 -0.019339 0.000817 0.029107 0.000000 0.000000 0.000000
# 4 0.000000 0.000000 0.000000 0.057206 0.000000 0.000000
# 5 0.000000 0.000000 0.000000 0.000000 0.031778 0.000000
# 6 0.000000 0.000000 0.000000 0.000000 0.000000 0.057605
#
#
# Mechanical properties :
#
#
# Convention : Reuss Voigt Hill
#
# Bulk Modulus (GPa) = 11.88498 38.05037 24.96767
# Shear Modulus (GPa) = 16.21799 24.68098 20.44949
#
# Velocity S-wave (km/s) = 2.81407 3.47150 3.15993
# Velocity P-wave (km/s) = 4.04498 5.88624 5.05023
#
# Compressibility (1/GPa) = 0.08413982
#
# Stress axis : x y z
#
# Youngs Moduli (GPa) = 45.70709 17.26606 34.35657
#
# Poissons Ratio (x) = -0.10603 0.66442
# Poissons Ratio (y) = -0.28068 -0.02808
# Poissons Ratio (z) = 0.88393 -0.01411
#
# Static dielectric constant tensor:
#      x y z
#    x 1.690580 0.000000 0.000000 
#    y 0.000000 1.744740 0.000000 
#    z 0.000000 0.000000 1.733350 
# 
# From -- ./inp_files/27119.got.cif
#   From: 2010.05.17/outbox.cif.g08.bks.cpg/sg62_14_cif.got.tgz:27119.got - 2010.06.03 15:25:27.
