data_PCOD9465843
_publ_section_title
;
Structure prediction by ZEFSAII (Michael W. Deem and Ramdas Pophale) SiO2 
 PCOD9465843
Probable space group: P N M A
;
_chemical_formula_sum "Si O2"
_cell_formula_units_Z 56
_cell_length_a 5.049501
_cell_length_b 26.825692
_cell_length_c 18.796355
_cell_angle_alpha 90.000000
_cell_angle_beta 90.000000
_cell_angle_gamma 90.000000
_cell_volume 2546.085803
_symmetry_space_group_name_H-M "P N M A"
_symmetry_group_IT_number 62
_symmetry_cell_setting 'orthorhombic'
loop_
_space_group_symop_operation_xyz
x,y,z
1/2-x,-y,1/2+z
1/2+x,1/2-y,1/2-z
-x,1/2+y,-z
-x,-y,-z
1/2+x,y,1/2-z
1/2-x,1/2+y,1/2+z
x,1/2-y,z
loop_
_atom_site_type_symbol
_atom_site_label
_atom_site_fract_x
_atom_site_fract_y
_atom_site_fract_z
Si Si1 0.495030 0.348400 0.198272
Si Si2 0.392955 0.434985 0.924580
Si Si3 0.975890 0.807431 0.548033
Si Si4 0.799334 0.033356 0.046894
Si Si5 0.517053 0.129732 0.487898
Si Si6 0.722542 0.945512 0.794123
Si Si7 0.720382 0.063137 0.795175
O O1 0.227271 0.342137 0.243910
O O2 0.564660 0.313160 0.132814
O O3 0.427533 0.402848 0.161064
O O4 0.291236 0.490049 0.899986
O O5 0.591934 0.413952 0.865800
O O6 0.561314 0.447641 0.996019
O O7 0.151159 0.399155 0.945431
O O8 0.964684 0.750000 0.527058
O O9 0.754948 0.839833 0.507100
O O10 0.262548 0.831366 0.535748
O O11 0.954399 0.083559 0.065925
O O12 0.000000 0.000000 0.000000
O O13 0.029559 0.937797 0.774990
O O14 0.714176 0.003662 0.810518
O O15 0.014402 0.074749 0.768719
#
# Coordination Sequence:
#
# PCOD9465843 Si02
#       7
#     8   8   8   8   8   8   8
#     4  10  21  38  58  82 111 157 206 255 313 367
#     4  10  21  39  61  92 126 162 209 245 307 367
#     4  12  26  42  63  88 118 155 207 272 326 361
#     4   9  20  36  61  91 117 162 207 253 289 357
#     4  11  23  42  61  88 119 160 203 261 308 363
#     4   8  16  31  44  70 106 149 192 223 271 333
#     4  10  22  34  53  85 126 167 193 238 294 364
#
# _framework density 21.994544999999999
#
# number of rings (size 3 to 8) (size 9 to 14) (size 15 to 20)
#    0.000    2.000    1.429    1.286    6.000    0.571 
#    5.143    0.000    0.000    0.000    0.000    0.000 
#    0.000   11.429    0.000    0.000    0.000    0.000 
#
# Total GULP energy -312297.035870 kJ/mol
# GULP energy per Si atom -5576.732783 kJ/mol
# Density = 2.194448 g / cm^3
# Si number density = 21.994545 Si / 1000 Ang^3
#
#
#
# Elastic Constant Matrix: (Units=GPa)
#
#
# Indices 1 2 3 4 5 6 
#
# 1 125.2884 29.6373 10.9387 0.0000 0.0000 0.0000
# 2 29.6373 109.7682 11.5393 0.0000 0.0000 0.0000
# 3 10.9387 11.5393 46.8050 0.0000 0.0000 0.0000
# 4 0.0000 0.0000 0.0000 17.7521 0.0000 0.0000
# 5 0.0000 0.0000 0.0000 0.0000 36.1857 0.0000
# 6 0.0000 0.0000 0.0000 0.0000 0.0000 25.7127
#
#
#
# Elastic Compliance Matrix: (Units=1/GPa)
#
#
# Indices 1 2 3 4 5 6 
#
# 1 0.008625 -0.002173 -0.001480 0.000000 0.000000 0.000000
# 2 -0.002173 0.009900 -0.001933 0.000000 0.000000 0.000000
# 3 -0.001480 -0.001933 0.022188 0.000000 0.000000 0.000000
# 4 0.000000 0.000000 0.000000 0.056331 0.000000 0.000000
# 5 0.000000 0.000000 0.000000 0.000000 0.027635 0.000000
# 6 0.000000 0.000000 0.000000 0.000000 0.000000 0.038891
#
#
# Mechanical properties :
#
#
# Convention : Reuss Voigt Hill
#
# Bulk Modulus (GPa) = 33.85161 42.89912 38.37537
# Shear Modulus (GPa) = 27.08718 31.24653 29.16685
#
# Velocity S-wave (km/s) = 3.51314 3.77324 3.64551
# Velocity P-wave (km/s) = 5.64628 6.20724 5.93340
#
# Compressibility (1/GPa) = 0.02954069
#
# Stress axis : x y z
#
# Youngs Moduli (GPa) = 115.94399 101.00972 45.07009
#
# Poissons Ratio (x) = 0.21951 0.06670
# Poissons Ratio (y) = 0.25196 0.08711
# Poissons Ratio (z) = 0.17159 0.19524
#
# Static dielectric constant tensor:
#      x y z
#    x 1.877980 0.000000 0.000000 
#    y 0.000000 1.861290 0.000000 
#    z 0.000000 0.000000 1.932300 
# 
# From -- ./inp_files/28433.got.cif
#   From: 2010.05.17/outbox.cif.g08.bks.cpg/sg62_15_cif.got.tgz:28433.got - 2010.06.03 15:25:27.
