data_PCOD9465377
_publ_section_title
;
Structure prediction by ZEFSAII (Michael W. Deem and Ramdas Pophale) SiO2 
 PCOD9465377
Probable space group: P N M A
;
_chemical_formula_sum "Si O2"
_cell_formula_units_Z 56
_cell_length_a 5.603428
_cell_length_b 15.500375
_cell_length_c 27.773041
_cell_angle_alpha 90.000000
_cell_angle_beta 90.000000
_cell_angle_gamma 90.000000
_cell_volume 2412.234011
_symmetry_space_group_name_H-M "P N M A"
_symmetry_group_IT_number 62
_symmetry_cell_setting 'orthorhombic'
loop_
_space_group_symop_operation_xyz
x,y,z
1/2-x,-y,1/2+z
1/2+x,1/2-y,1/2-z
-x,1/2+y,-z
-x,-y,-z
1/2+x,y,1/2-z
1/2-x,1/2+y,1/2+z
x,1/2-y,z
loop_
_atom_site_type_symbol
_atom_site_label
_atom_site_fract_x
_atom_site_fract_y
_atom_site_fract_z
Si Si1 0.247842 0.492801 0.939457
Si Si2 0.754802 0.928568 0.455100
Si Si3 0.764334 0.750000 0.507333
Si Si4 0.741007 0.250000 0.435124
Si Si5 0.018977 0.391125 0.127874
Si Si6 0.662759 0.966666 0.803701
Si Si7 0.977102 0.655647 0.279649
Si Si8 0.784510 0.653805 0.711834
O O1 0.507495 0.456380 0.926434
O O2 0.182386 0.577540 0.909097
O O3 0.008194 0.436219 0.932332
O O4 0.252020 0.511883 0.996669
O O5 0.789147 0.833533 0.474574
O O6 0.496977 0.750000 0.530464
O O7 0.996823 0.750000 0.542026
O O8 0.699993 0.164737 0.403335
O O9 0.925575 0.338875 0.173754
O O10 0.129517 0.471115 0.157232
O O11 0.489918 0.889720 0.819676
O O12 0.743136 0.920471 0.752715
O O13 0.541670 0.059802 0.801705
O O14 0.731924 0.655807 0.247965
O O15 0.970579 0.750000 0.305804
O O16 0.847776 0.750000 0.729956
#
# Coordination Sequence:
#
# PCOD9465377 Si02
#       8
#     8   8   4   4   8   8   8   8
#     4  10  23  41  66  98 129 174 222 275 340 413
#     4  10  22  42  70  98 130 168 217 276 348 419
#     4  12  24  46  72 103 140 174 226 285 348 428
#     4  12  28  40  64 109 140 186 234 283 336 412
#     4  12  27  42  63  96 143 187 239 294 340 416
#     4  12  25  41  65  94 139 192 250 294 363 411
#     4  10  20  40  68  96 119 158 227 303 358 410
#     4  12  25  41  61  95 142 197 245 289 350 419
#
# _framework density 23.214994999999998
#
# number of rings (size 3 to 8) (size 9 to 14) (size 15 to 20)
#    0.000    0.857    5.000    1.286   10.000    0.000 
#    0.000    0.000    3.143    0.000    0.000    0.000 
#    0.000    0.000    0.000    0.000    0.000    0.000 
#
# Total GULP energy -311967.517895 kJ/mol
# GULP energy per Si atom -5570.848534 kJ/mol
# Density = 2.316216 g / cm^3
# Si number density = 23.214995 Si / 1000 Ang^3
#
#
#
# Elastic Constant Matrix: (Units=GPa)
#
#
# Indices 1 2 3 4 5 6 
#
# 1 139.2752 44.4817 30.9661 0.0000 0.0000 0.0000
# 2 44.4817 119.9278 22.8394 0.0000 0.0000 0.0000
# 3 30.9661 22.8394 57.4160 0.0000 0.0000 0.0000
# 4 0.0000 0.0000 0.0000 13.4468 0.0000 0.0000
# 5 0.0000 0.0000 0.0000 0.0000 35.5856 0.0000
# 6 0.0000 0.0000 0.0000 0.0000 0.0000 44.9589
#
#
#
# Elastic Compliance Matrix: (Units=1/GPa)
#
#
# Indices 1 2 3 4 5 6 
#
# 1 0.008831 -0.002562 -0.003743 0.000000 0.000000 0.000000
# 2 -0.002562 0.009765 -0.002503 0.000000 0.000000 0.000000
# 3 -0.003743 -0.002503 0.020431 0.000000 0.000000 0.000000
# 4 0.000000 0.000000 0.000000 0.074367 0.000000 0.000000
# 5 0.000000 0.000000 0.000000 0.000000 0.028101 0.000000
# 6 0.000000 0.000000 0.000000 0.000000 0.000000 0.022243
#
#
# Mechanical properties :
#
#
# Convention : Reuss Voigt Hill
#
# Bulk Modulus (GPa) = 46.70600 57.02151 51.86376
# Shear Modulus (GPa) = 26.52635 33.35370 29.94002
#
# Velocity S-wave (km/s) = 3.38396 3.79454 3.59511
# Velocity P-wave (km/s) = 5.95238 6.61919 6.29462
#
# Compressibility (1/GPa) = 0.02141052
#
# Stress axis : x y z
#
# Youngs Moduli (GPa) = 113.24116 102.40274 48.94489
#
# Poissons Ratio (x) = 0.26240 0.18322
# Poissons Ratio (y) = 0.29017 0.12249
# Poissons Ratio (z) = 0.42390 0.25627
#
# Static dielectric constant tensor:
#      x y z
#    x 2.123170 0.000000 0.000000 
#    y 0.000000 1.929780 0.000000 
#    z 0.000000 0.000000 1.901050 
# 
# From -- ./inp_files/31631.got.cif
#   From: 2010.05.17/outbox.cif.g08.bks.cpg/sg62_16_cif.got.tgz:31631.got - 2010.06.03 15:25:27.
