data_PCOD9465323
_publ_section_title
;
Structure prediction by ZEFSAII (Michael W. Deem and Ramdas Pophale) SiO2 
 PCOD9465323
Probable space group: P N M A
;
_chemical_formula_sum "Si O2"
_cell_formula_units_Z 56
_cell_length_a 19.581286
_cell_length_b 14.281549
_cell_length_c 8.314279
_cell_angle_alpha 90.000000
_cell_angle_beta 90.000000
_cell_angle_gamma 90.000000
_cell_volume 2325.097231
_symmetry_space_group_name_H-M "P N M A"
_symmetry_group_IT_number 62
_symmetry_cell_setting 'orthorhombic'
loop_
_space_group_symop_operation_xyz
x,y,z
1/2-x,-y,1/2+z
1/2+x,1/2-y,1/2-z
-x,1/2+y,-z
-x,-y,-z
1/2+x,y,1/2-z
1/2-x,1/2+y,1/2+z
x,1/2-y,z
loop_
_atom_site_type_symbol
_atom_site_label
_atom_site_fract_x
_atom_site_fract_y
_atom_site_fract_z
Si Si1 0.525270 0.397124 0.545541
Si Si2 0.621548 0.936809 0.927852
Si Si3 0.833268 0.528601 0.000814
Si Si4 0.508649 0.348998 0.184875
Si Si5 0.648069 0.148886 0.987469
Si Si6 0.392155 0.358332 0.713119
Si Si7 0.758575 0.403079 0.220846
O O1 0.500000 0.500000 0.500000
O O2 0.605260 0.410996 0.574288
O O3 0.515519 0.346259 0.375913
O O4 0.474313 0.360453 0.681158
O O5 0.544014 0.928239 0.866771
O O6 0.670542 0.877361 0.808458
O O7 0.645419 0.044489 0.915933
O O8 0.623677 0.899179 0.110264
O O9 0.777691 0.499518 0.131000
O O10 0.861188 0.431290 0.918758
O O11 0.796109 0.583889 0.860666
O O12 0.478802 0.250000 0.125558
O O13 0.583129 0.357535 0.108485
O O14 0.640536 0.250000 0.900087
O O15 0.719182 0.153089 0.084497
O O16 0.369582 0.250000 0.695896
#
# Coordination Sequence:
#
# PCOD9465323 Si02
#       7
#     8   8   8   8   8   8   8
#     4  10  20  39  65  96 136 178 228 283 354 413
#     4  12  24  44  72 101 140 187 235 295 356 423
#     4  11  22  42  67  99 132 190 230 289 360 422
#     4  11  23  41  68 102 138 182 236 288 351 422
#     4  11  24  42  68 100 138 180 231 290 352 420
#     4  11  23  41  67 103 143 180 236 296 352 418
#     4  12  23  45  69  98 136 184 240 286 357 432
#
# _framework density 24.085014000000001
#
# number of rings (size 3 to 8) (size 9 to 14) (size 15 to 20)
#    0.000    0.857    4.286    3.857    0.000    2.857 
#    0.000    0.000    0.000    5.143    0.000    0.000 
#    0.000    0.000    0.000    0.000    0.000    0.000 
#
# Total GULP energy -312796.557595 kJ/mol
# GULP energy per Si atom -5585.652814 kJ/mol
# Density = 2.403020 g / cm^3
# Si number density = 24.085014 Si / 1000 Ang^3
#
#
#
# Elastic Constant Matrix: (Units=GPa)
#
#
# Indices 1 2 3 4 5 6 
#
# 1 106.4666 9.3128 13.6151 0.0000 0.0000 0.0000
# 2 9.3128 94.2901 14.8344 0.0000 0.0000 0.0000
# 3 13.6151 14.8344 65.6317 0.0000 0.0000 0.0000
# 4 0.0000 0.0000 0.0000 10.6462 0.0000 0.0000
# 5 0.0000 0.0000 0.0000 0.0000 44.6751 0.0000
# 6 0.0000 0.0000 0.0000 0.0000 0.0000 -42.8809
#
#
#
# Elastic Compliance Matrix: (Units=1/GPa)
#
#
# Indices 1 2 3 4 5 6 
#
# 1 0.009689 -0.000664 -0.001860 0.000000 0.000000 0.000000
# 2 -0.000664 0.011042 -0.002358 0.000000 0.000000 0.000000
# 3 -0.001860 -0.002358 0.016155 0.000000 0.000000 0.000000
# 4 0.000000 0.000000 0.000000 0.093930 0.000000 0.000000
# 5 0.000000 0.000000 0.000000 0.000000 0.022384 0.000000
# 6 0.000000 0.000000 0.000000 0.000000 0.000000 -0.023320
#
#
# Mechanical properties :
#
#
# Convention : Reuss Voigt Hill
#
# Bulk Modulus (GPa) = 36.87051 37.99033 37.43042
# Shear Modulus (GPa) = 33.62832 17.72983 25.67908
#
# Velocity S-wave (km/s) = 3.74068 2.71613 3.26879
# Velocity P-wave (km/s) = 5.83083 5.06400 5.46089
#
# Compressibility (1/GPa) = 0.02712195
#
# Stress axis : x y z
#
# Youngs Moduli (GPa) = 103.21467 90.56207 61.89927
#
# Poissons Ratio (x) = 0.06016 0.11511
# Poissons Ratio (y) = 0.06857 0.14596
# Poissons Ratio (z) = 0.19195 0.21354
#
# Static dielectric constant tensor:
#      x y z
#    x 1.938290 0.000000 0.000000 
#    y 0.000000 1.805630 0.000000 
#    z 0.000000 0.000000 1.955590 
# 
# From -- ./inp_files/8713.got.cif
#   From: 2010.05.17/outbox.cif.g08.bks.cpg/sg62_5_cif.got.tgz:8713.got - 2010.06.03 15:25:27.
