data_PCOD9465934
_publ_section_title
;
Structure prediction by ZEFSAII (Michael W. Deem and Ramdas Pophale) SiO2 
 PCOD9465934
Probable space group: P N M A
;
_chemical_formula_sum "Si O2"
_cell_formula_units_Z 48
_cell_length_a 8.141453
_cell_length_b 15.903213
_cell_length_c 17.717962
_cell_angle_alpha 90.000000
_cell_angle_beta 90.000000
_cell_angle_gamma 90.000000
_cell_volume 2294.037758
_symmetry_space_group_name_H-M "P N M A"
_symmetry_group_IT_number 62
_symmetry_cell_setting 'orthorhombic'
loop_
_space_group_symop_operation_xyz
x,y,z
1/2-x,-y,1/2+z
1/2+x,1/2-y,1/2-z
-x,1/2+y,-z
-x,-y,-z
1/2+x,y,1/2-z
1/2-x,1/2+y,1/2+z
x,1/2-y,z
loop_
_atom_site_type_symbol
_atom_site_label
_atom_site_fract_x
_atom_site_fract_y
_atom_site_fract_z
Si Si1 0.140636 0.007831 0.292273
Si Si2 0.770328 0.345750 0.108174
Si Si3 0.279463 0.005002 0.135730
Si Si4 0.625402 0.155837 0.950382
Si Si5 0.263693 0.155867 0.878336
Si Si6 0.577602 0.091064 0.480961
O O1 0.239853 0.085282 0.328362
O O2 0.147583 0.011432 0.202381
O O3 0.957571 0.013643 0.325933
O O4 0.222728 0.919848 0.318803
O O5 0.751669 0.250000 0.134850
O O6 0.945479 0.358389 0.067779
O O7 0.643385 0.362053 0.039163
O O8 0.235320 0.071801 0.071296
O O9 0.278423 0.914290 0.095952
O O10 0.691017 0.250000 0.938252
O O11 0.438992 0.154156 0.921625
O O12 0.240249 0.250000 0.846725
O O13 0.129759 0.135391 0.941971
O O14 0.500000 0.000000 0.500000
#
# Coordination Sequence:
#
# PCOD9465934 Si02
#       6
#     8   8   8   8   8   8
#     4  11  23  40  61  87 124 161 201 249 309 367
#     4  11  22  39  62  89 119 158 203 253 299 354
#     4  11  23  39  62  87 122 164 200 251 309 360
#     4   9  19  37  61  89 119 154 202 249 299 360
#     4  10  21  38  61  90 123 159 199 245 301 361
#     4  12  21  37  63  91 122 158 205 249 298 357
#
# _framework density 20.923807
#
# number of rings (size 3 to 8) (size 9 to 14) (size 15 to 20)
#    0.000    1.333    3.333    2.500    0.000    3.333 
#    0.000    5.000    0.000    0.000    0.000    0.000 
#    0.000    0.000    0.000    0.000    0.000    0.000 
#
# Total GULP energy -268337.918054 kJ/mol
# GULP energy per Si atom -5590.373293 kJ/mol
# Density = 2.087618 g / cm^3
# Si number density = 20.923807 Si / 1000 Ang^3
#
#
#
# Elastic Constant Matrix: (Units=GPa)
#
#
# Indices 1 2 3 4 5 6 
#
# 1 51.0618 7.9683 -6.3441 0.0000 0.0000 0.0000
# 2 7.9683 99.4810 29.3851 0.0000 0.0000 0.0000
# 3 -6.3441 29.3851 39.1144 0.0000 0.0000 0.0000
# 4 0.0000 0.0000 0.0000 4.0384 0.0000 0.0000
# 5 0.0000 0.0000 0.0000 0.0000 35.3676 0.0000
# 6 0.0000 0.0000 0.0000 0.0000 0.0000 27.1861
#
#
#
# Elastic Compliance Matrix: (Units=1/GPa)
#
#
# Indices 1 2 3 4 5 6 
#
# 1 0.020860 -0.003432 0.005962 0.000000 0.000000 0.000000
# 2 -0.003432 0.013484 -0.010686 0.000000 0.000000 0.000000
# 3 0.005962 -0.010686 0.034561 0.000000 0.000000 0.000000
# 4 0.000000 0.000000 0.000000 0.247623 0.000000 0.000000
# 5 0.000000 0.000000 0.000000 0.000000 0.028274 0.000000
# 6 0.000000 0.000000 0.000000 0.000000 0.000000 0.036784
#
#
# Mechanical properties :
#
#
# Convention : Reuss Voigt Hill
#
# Bulk Modulus (GPa) = 19.01431 27.96399 23.48915
# Shear Modulus (GPa) = 12.03573 23.89494 17.96533
#
# Velocity S-wave (km/s) = 2.40097 3.38301 2.93338
# Velocity P-wave (km/s) = 4.09797 5.35288 4.76690
#
# Compressibility (1/GPa) = 0.05259197
#
# Stress axis : x y z
#
# Youngs Moduli (GPa) = 47.93787 74.16394 28.93421
#
# Poissons Ratio (x) = 0.25452 -0.17249
# Poissons Ratio (y) = 0.16452 0.30920
# Poissons Ratio (z) = -0.28579 0.79254
#
# Static dielectric constant tensor:
#      x y z
#    x 1.786180 0.000000 0.000000 
#    y 0.000000 1.753400 0.000000 
#    z 0.000000 0.000000 1.706950 
# 
# From -- ./inp_files/22180.got.cif
#   From: 2010.05.17/outbox.cif.g08.bks.cpg/sg62_12_cif.got.tgz:22180.got - 2010.06.03 15:25:27.
