data_PCOD9465170
_publ_section_title
;
Structure prediction by ZEFSAII (Michael W. Deem and Ramdas Pophale) SiO2 
 PCOD9465170
Probable space group: P N M A
;
_chemical_formula_sum "Si O2"
_cell_formula_units_Z 48
_cell_length_a 9.840052
_cell_length_b 8.903920
_cell_length_c 28.195976
_cell_angle_alpha 90.000000
_cell_angle_beta 90.000000
_cell_angle_gamma 90.000000
_cell_volume 2470.391447
_symmetry_space_group_name_H-M "P N M A"
_symmetry_group_IT_number 62
_symmetry_cell_setting 'orthorhombic'
loop_
_space_group_symop_operation_xyz
x,y,z
1/2-x,-y,1/2+z
1/2+x,1/2-y,1/2-z
-x,1/2+y,-z
-x,-y,-z
1/2+x,y,1/2-z
1/2-x,1/2+y,1/2+z
x,1/2-y,z
loop_
_atom_site_type_symbol
_atom_site_label
_atom_site_fract_x
_atom_site_fract_y
_atom_site_fract_z
Si Si1 0.541641 0.071141 0.550090
Si Si2 0.804326 0.572065 0.894285
Si Si3 0.839213 0.067510 0.296283
Si Si4 0.804441 0.429799 0.607876
Si Si5 0.344352 0.568073 0.793369
Si Si6 0.962960 0.073081 0.450318
O O1 0.538622 0.250000 0.544937
O O2 0.690205 0.027243 0.569335
O O3 0.500000 0.000000 0.500000
O O4 0.435813 0.018211 0.590128
O O5 0.836375 0.750000 0.889950
O O6 0.732016 0.521975 0.845592
O O7 0.693531 0.555220 0.936009
O O8 0.842941 0.250000 0.297228
O O9 0.743771 0.023097 0.252354
O O10 0.996676 0.019776 0.291076
O O11 0.808569 0.250000 0.610799
O O12 0.779221 0.499978 0.659269
O O13 0.946158 0.495056 0.589527
O O14 0.342487 0.750000 0.796358
O O15 0.992677 0.250000 0.451037
O O16 0.000000 0.000000 0.500000
#
# Coordination Sequence:
#
# PCOD9465170 Si02
#       6
#     8   8   8   8   8   8
#     4  11  25  42  60  87 121 159 205 249 298 358
#     4  10  21  39  61  88 121 155 195 248 300 356
#     4   9  19  36  61  92 119 149 197 248 297 355
#     4  11  24  41  59  86 124 161 201 248 297 359
#     4  10  20  38  63  91 120 155 200 249 300 357
#     4  11  22  38  62  90 120 154 199 248 302 363
#
# _framework density 19.430119000000001
#
# number of rings (size 3 to 8) (size 9 to 14) (size 15 to 20)
#    0.000    1.667    1.667    2.500    2.333    8.000 
#    0.000    1.667    0.000    0.000    0.000    0.000 
#    0.000    0.000    0.000    0.000    0.000    0.000 
#
# Total GULP energy -268157.503403 kJ/mol
# GULP energy per Si atom -5586.614654 kJ/mol
# Density = 1.938590 g / cm^3
# Si number density = 19.430119 Si / 1000 Ang^3
#
#
#
# Elastic Constant Matrix: (Units=GPa)
#
#
# Indices 1 2 3 4 5 6 
#
# 1 67.4206 16.9137 1.4420 0.0000 0.0000 0.0000
# 2 16.9137 17.2147 3.7290 0.0000 0.0000 0.0000
# 3 1.4420 3.7290 77.6422 0.0000 0.0000 0.0000
# 4 0.0000 0.0000 0.0000 28.1135 0.0000 0.0000
# 5 0.0000 0.0000 0.0000 0.0000 33.4050 0.0000
# 6 0.0000 0.0000 0.0000 0.0000 0.0000 24.1955
#
#
#
# Elastic Compliance Matrix: (Units=1/GPa)
#
#
# Indices 1 2 3 4 5 6 
#
# 1 0.019709 -0.019488 0.000570 0.000000 0.000000 0.000000
# 2 -0.019488 0.077970 -0.003383 0.000000 0.000000 0.000000
# 3 0.000570 -0.003383 0.013031 0.000000 0.000000 0.000000
# 4 0.000000 0.000000 0.000000 0.035570 0.000000 0.000000
# 5 0.000000 0.000000 0.000000 0.000000 0.029936 0.000000
# 6 0.000000 0.000000 0.000000 0.000000 0.000000 0.041330
#
#
# Mechanical properties :
#
#
# Convention : Reuss Voigt Hill
#
# Bulk Modulus (GPa) = 15.12654 22.93855 19.03254
# Shear Modulus (GPa) = 17.59424 26.48900 22.04162
#
# Velocity S-wave (km/s) = 3.01244 3.69629 3.37175
# Velocity P-wave (km/s) = 4.46113 5.48161 4.99749
#
# Compressibility (1/GPa) = 0.06610897
#
# Stress axis : x y z
#
# Youngs Moduli (GPa) = 50.73830 12.82544 76.73732
#
# Poissons Ratio (x) = 0.24994 -0.04373
# Poissons Ratio (y) = 0.98878 0.25958
# Poissons Ratio (z) = -0.02892 0.04339
#
# Static dielectric constant tensor:
#      x y z
#    x 1.675130 0.000000 0.000000 
#    y 0.000000 1.650170 0.000000 
#    z 0.000000 0.000000 1.676720 
# 
# From -- ./inp_files/32011.got.cif
#   From: 2010.05.17/outbox.cif.g08.bks.cpg/sg62_17_cif.got.tgz:32011.got - 2010.06.03 15:25:27.
