data_PCOD9465051
_publ_section_title
;
Structure prediction by ZEFSAII (Michael W. Deem and Ramdas Pophale) SiO2 
 PCOD9465051
Probable space group: P N M A
;
_chemical_formula_sum "Si O2"
_cell_formula_units_Z 64
_cell_length_a 15.816892
_cell_length_b 17.669763
_cell_length_c 12.330002
_cell_angle_alpha 90.000000
_cell_angle_beta 90.000000
_cell_angle_gamma 90.000000
_cell_volume 3445.997997
_symmetry_space_group_name_H-M "P N M A"
_symmetry_group_IT_number 62
_symmetry_cell_setting 'orthorhombic'
loop_
_space_group_symop_operation_xyz
x,y,z
1/2-x,-y,1/2+z
1/2+x,1/2-y,1/2-z
-x,1/2+y,-z
-x,-y,-z
1/2+x,y,1/2-z
1/2-x,1/2+y,1/2+z
x,1/2-y,z
loop_
_atom_site_type_symbol
_atom_site_label
_atom_site_fract_x
_atom_site_fract_y
_atom_site_fract_z
Si Si1 0.597493 0.020880 0.497877
Si Si2 0.201082 0.336045 0.965419
Si Si3 0.705691 0.580883 0.659051
Si Si4 0.528076 0.071582 0.068919
Si Si5 0.812011 0.661145 0.480413
Si Si6 0.206917 0.663508 0.236846
Si Si7 0.858088 0.159083 0.376193
Si Si8 0.365053 0.008524 0.750436
O O1 0.623867 0.106701 0.523701
O O2 0.629307 0.007772 0.376179
O O3 0.500000 0.000000 0.500000
O O4 0.643364 0.967408 0.584565
O O5 0.178607 0.250000 0.996142
O O6 0.233966 0.336330 0.842460
O O7 0.280931 0.359834 0.041052
O O8 0.750810 0.641297 0.580610
O O9 0.663644 0.622197 0.760598
O O10 0.776952 0.523409 0.703136
O O11 0.447430 0.125208 0.085879
O O12 0.564622 0.036946 0.181457
O O13 0.603419 0.114078 0.005225
O O14 0.500000 0.000000 0.000000
O O15 0.831458 0.750000 0.476970
O O16 0.762362 0.642061 0.369088
O O17 0.175263 0.750000 0.221675
O O18 0.136646 0.599652 0.259608
O O19 0.862614 0.250000 0.369788
#
# Coordination Sequence:
#
# PCOD9465051 Si02
#       8
#     8   8   8   8   8   8   8   8
#     4  12  24  40  62  95 129 164 210 266 318 373
#     4  10  22  41  65  92 125 170 210 255 320 386
#     4  11  22  38  69  90 126 167 213 255 315 388
#     4  11  25  38  64  98 126 161 210 264 320 370
#     4  10  22  40  61  91 125 164 207 259 312 372
#     4  10  20  37  65  91 121 167 212 253 310 378
#     4  11  23  42  66  94 129 167 213 263 319 386
#     4  11  22  40  63  93 127 164 209 262 316 377
#
# _framework density 18.572268000000001
#
# number of rings (size 3 to 8) (size 9 to 14) (size 15 to 20)
#    0.000    1.250    3.750    2.250    3.500    1.000 
#    0.000    4.375    0.000    0.000    0.000    0.000 
#    0.000    0.000    0.000    0.000    0.000    0.000 
#
# Total GULP energy -357389.744612 kJ/mol
# GULP energy per Si atom -5584.214760 kJ/mol
# Density = 1.853000 g / cm^3
# Si number density = 18.572268 Si / 1000 Ang^3
#
#
#
# Elastic Constant Matrix: (Units=GPa)
#
#
# Indices 1 2 3 4 5 6 
#
# 1 70.3347 25.2958 21.7418 0.0000 0.0000 0.0000
# 2 25.2958 89.1662 19.0270 0.0000 0.0000 0.0000
# 3 21.7418 19.0270 111.3417 0.0000 0.0000 0.0000
# 4 0.0000 0.0000 0.0000 34.6329 0.0000 0.0000
# 5 0.0000 0.0000 0.0000 0.0000 19.3991 0.0000
# 6 0.0000 0.0000 0.0000 0.0000 0.0000 30.2465
#
#
#
# Elastic Compliance Matrix: (Units=1/GPa)
#
#
# Indices 1 2 3 4 5 6 
#
# 1 0.016483 -0.004140 -0.002511 0.000000 0.000000 0.000000
# 2 -0.004140 0.012679 -0.001358 0.000000 0.000000 0.000000
# 3 -0.002511 -0.001358 0.009704 0.000000 0.000000 0.000000
# 4 0.000000 0.000000 0.000000 0.028874 0.000000 0.000000
# 5 0.000000 0.000000 0.000000 0.000000 0.051549 0.000000
# 6 0.000000 0.000000 0.000000 0.000000 0.000000 0.033062
#
#
# Mechanical properties :
#
#
# Convention : Reuss Voigt Hill
#
# Bulk Modulus (GPa) = 43.76965 44.77465 44.27215
# Shear Modulus (GPa) = 28.41138 30.50759 29.45949
#
# Velocity S-wave (km/s) = 3.91548 4.05735 3.98704
# Velocity P-wave (km/s) = 6.63774 6.79044 6.71453
#
# Compressibility (1/GPa) = 0.02284688
#
# Stress axis : x y z
#
# Youngs Moduli (GPa) = 60.66856 78.86800 103.05207
#
# Poissons Ratio (x) = 0.32653 0.25878
# Poissons Ratio (y) = 0.25118 0.13998
# Poissons Ratio (z) = 0.15235 0.10713
#
# Static dielectric constant tensor:
#      x y z
#    x 1.598510 0.000000 0.000000 
#    y 0.000000 1.652970 0.000000 
#    z 0.000000 0.000000 1.629570 
# 
# From -- ./inp_files/13608.got.cif
#   From: 2010.05.17/outbox.cif.g08.bks.cpg/sg62_7_cif.got.tgz:13608.got - 2010.06.03 15:25:27.
