data_PCOD9465881
_publ_section_title
;
Structure prediction by ZEFSAII (Michael W. Deem and Ramdas Pophale) SiO2 
 PCOD9465881
Probable space group: P N M A
;
_chemical_formula_sum "Si O2"
_cell_formula_units_Z 56
_cell_length_a 14.202470
_cell_length_b 29.620720
_cell_length_c 6.497319
_cell_angle_alpha 90.000000
_cell_angle_beta 90.000000
_cell_angle_gamma 90.000000
_cell_volume 2733.340154
_symmetry_space_group_name_H-M "P N M A"
_symmetry_group_IT_number 62
_symmetry_cell_setting 'orthorhombic'
loop_
_space_group_symop_operation_xyz
x,y,z
1/2-x,-y,1/2+z
1/2+x,1/2-y,1/2-z
-x,1/2+y,-z
-x,-y,-z
1/2+x,y,1/2-z
1/2-x,1/2+y,1/2+z
x,1/2-y,z
loop_
_atom_site_type_symbol
_atom_site_label
_atom_site_fract_x
_atom_site_fract_y
_atom_site_fract_z
Si Si1 0.286326 0.156858 0.326351
Si Si2 0.945024 0.138288 0.496329
Si Si3 0.563194 0.801407 0.385722
Si Si4 0.348983 0.498033 0.877898
Si Si5 0.528308 0.953237 0.789059
Si Si6 0.586133 0.302557 0.267353
Si Si7 0.187333 0.935715 0.023025
O O1 0.348183 0.141378 0.131419
O O2 0.351251 0.191690 0.453606
O O3 0.189262 0.176908 0.248134
O O4 0.272173 0.113509 0.473720
O O5 0.930765 0.158296 0.721849
O O6 0.983364 0.088334 0.448640
O O7 0.019403 0.171723 0.391041
O O8 0.567357 0.750000 0.300709
O O9 0.466325 0.806666 0.513218
O O10 0.427295 0.524974 0.745160
O O11 0.323182 0.452319 0.756885
O O12 0.403452 0.487569 0.089433
O O13 0.258105 0.528180 0.919698
O O14 0.585472 0.937507 0.588848
O O15 0.590038 0.250000 0.215868
#
# Coordination Sequence:
#
# PCOD9465881 Si02
#       7
#     8   8   8   8   8   8   8
#     4  10  22  38  60  86 122 157 198 250 300 359
#     4  10  21  39  59  86 119 157 200 247 299 352
#     4  10  21  38  61  88 119 158 201 247 299 360
#     4  11  21  37  59  85 115 153 196 244 292 350
#     4  10  22  38  58  84 116 155 198 240 296 352
#     4  10  21  38  59  87 121 157 198 245 300 358
#     4  11  21  38  59  85 119 152 199 244 297 351
#
# _framework density 20.487753000000001
#
# number of rings (size 3 to 8) (size 9 to 14) (size 15 to 20)
#    0.000    1.714    1.429    3.000    0.000    2.857 
#    0.000    7.143    0.000    0.000    0.000    0.000 
#    0.000    0.000    0.000    0.000    0.000    0.000 
#
# Total GULP energy -312723.513709 kJ/mol
# GULP energy per Si atom -5584.348459 kJ/mol
# Density = 2.044112 g / cm^3
# Si number density = 20.487753 Si / 1000 Ang^3
#
#
#
# Elastic Constant Matrix: (Units=GPa)
#
#
# Indices 1 2 3 4 5 6 
#
# 1 -9.4122 -25.2218 155.7664 0.0000 0.0000 0.0000
# 2 -25.2218 67.5045 78.4837 0.0000 0.0000 0.0000
# 3 155.7664 78.4837 -176.1930 0.0000 0.0000 0.0000
# 4 0.0000 0.0000 0.0000 37.4990 0.0000 0.0000
# 5 0.0000 0.0000 0.0000 0.0000 12.5898 0.0000
# 6 0.0000 0.0000 0.0000 0.0000 0.0000 31.2448
#
#
#
# Elastic Compliance Matrix: (Units=1/GPa)
#
#
# Indices 1 2 3 4 5 6 
#
# 1 0.009152 -0.003945 0.006334 0.000000 0.000000 0.000000
# 2 -0.003945 0.011460 0.001617 0.000000 0.000000 0.000000
# 3 0.006334 0.001617 0.000645 0.000000 0.000000 0.000000
# 4 0.000000 0.000000 0.000000 0.026667 0.000000 0.000000
# 5 0.000000 0.000000 0.000000 0.000000 0.079429 0.000000
# 6 0.000000 0.000000 0.000000 0.000000 0.000000 0.032005
#
#
# Mechanical properties :
#
#
# Convention : Reuss Voigt Hill
#
# Bulk Modulus (GPa) = 34.16476 33.32842 33.74659
# Shear Modulus (GPa) = 31.03624 -5.54188 12.74718
#
# Velocity S-wave (km/s) = 3.89635 -1.64646 2.49707
# Velocity P-wave (km/s) = 6.07898 3.56207 4.98208
#
# Compressibility (1/GPa) = 0.02926993
#
# Stress axis : x y z
#
# Youngs Moduli (GPa) = 109.26110 87.26221 1551.34478
#
# Poissons Ratio (x) = 0.34423 -9.82647
# Poissons Ratio (y) = 0.43101 -2.50884
# Poissons Ratio (z) = -0.69208 -0.14112
#
# Static dielectric constant tensor:
#      x y z
#    x 1.694010 0.000000 0.000000 
#    y 0.000000 1.753770 0.000000 
#    z 0.000000 0.000000 1.760510 
# 
# From -- ./inp_files/1269.got.cif
#   From: 2010.05.17/outbox.cif.g08.bks.cpg/sg62_1_cif.got.tgz:1269.got - 2010.06.03 15:25:27.
