data_PCOD9465140
_publ_section_title
;
Structure prediction by ZEFSAII (Michael W. Deem and Ramdas Pophale) SiO2 
 PCOD9465140
Probable space group: P N M A
;
_chemical_formula_sum "Si O2"
_cell_formula_units_Z 48
_cell_length_a 12.884926
_cell_length_b 8.862887
_cell_length_c 22.123560
_cell_angle_alpha 90.000000
_cell_angle_beta 90.000000
_cell_angle_gamma 90.000000
_cell_volume 2526.458410
_symmetry_space_group_name_H-M "P N M A"
_symmetry_group_IT_number 62
_symmetry_cell_setting 'orthorhombic'
loop_
_space_group_symop_operation_xyz
x,y,z
1/2-x,-y,1/2+z
1/2+x,1/2-y,1/2-z
-x,1/2+y,-z
-x,-y,-z
1/2+x,y,1/2-z
1/2-x,1/2+y,1/2+z
x,1/2-y,z
loop_
_atom_site_type_symbol
_atom_site_label
_atom_site_fract_x
_atom_site_fract_y
_atom_site_fract_z
Si Si1 0.613105 0.428510 0.396733
Si Si2 0.828361 0.570120 0.431997
Si Si3 0.983009 0.074373 0.786659
Si Si4 0.402368 0.924711 0.404405
Si Si5 0.182714 0.069232 0.432508
Si Si6 0.996929 0.069132 0.344150
O O1 0.625081 0.250000 0.401520
O O2 0.710511 0.514434 0.424200
O O3 0.600086 0.481343 0.326685
O O4 0.503927 0.483056 0.425484
O O5 0.834266 0.750000 0.423561
O O6 0.860081 0.532908 0.500791
O O7 0.900487 0.488343 0.383568
O O8 0.952565 0.250000 0.782472
O O9 0.083271 0.067855 0.831170
O O10 0.001746 0.004391 0.721776
O O11 0.411589 0.750000 0.422521
O O12 0.293562 0.991801 0.423691
O O13 0.197198 0.250000 0.429905
O O14 0.100623 0.025742 0.381226
O O15 0.993484 0.250000 0.339119
#
# Coordination Sequence:
#
# PCOD9465140 Si02
#       6
#     8   8   8   8   8   8
#     4  10  20  38  62  89 118 151 194 244 295 350
#     4  11  23  40  60  85 119 158 198 243 292 350
#     4   9  20  39  60  89 120 152 193 240 295 352
#     4   9  20  38  61  89 118 151 194 239 295 355
#     4  10  23  40  60  86 118 156 199 243 292 348
#     4  11  23  39  60  88 119 156 199 243 291 346
#
# _framework density 18.998926999999998
#
# number of rings (size 3 to 8) (size 9 to 14) (size 15 to 20)
#    1.000    1.000    0.000    3.500    0.000    4.667 
#    0.000    3.333    0.000    0.000    0.000    0.000 
#    0.000    0.000    0.000    0.000    0.000    0.000 
#
# Total GULP energy -267753.090112 kJ/mol
# GULP energy per Si atom -5578.189377 kJ/mol
# Density = 1.895568 g / cm^3
# Si number density = 18.998927 Si / 1000 Ang^3
#
#
#
# Elastic Constant Matrix: (Units=GPa)
#
#
# Indices 1 2 3 4 5 6 
#
# 1 61.6502 4.4741 6.2323 0.0000 0.0000 0.0000
# 2 4.4741 44.4667 24.7423 0.0000 0.0000 0.0000
# 3 6.2323 24.7423 91.8581 0.0000 0.0000 0.0000
# 4 0.0000 0.0000 0.0000 -3.9544 0.0000 0.0000
# 5 0.0000 0.0000 0.0000 0.0000 28.3874 0.0000
# 6 0.0000 0.0000 0.0000 0.0000 0.0000 55.8818
#
#
#
# Elastic Compliance Matrix: (Units=1/GPa)
#
#
# Indices 1 2 3 4 5 6 
#
# 1 0.016388 -0.001212 -0.000785 0.000000 0.000000 0.000000
# 2 -0.001212 0.026543 -0.007067 0.000000 0.000000 0.000000
# 3 -0.000785 -0.007067 0.012843 0.000000 0.000000 0.000000
# 4 0.000000 0.000000 0.000000 -0.252883 0.000000 0.000000
# 5 0.000000 0.000000 0.000000 0.000000 0.035227 0.000000
# 6 0.000000 0.000000 0.000000 0.000000 0.000000 0.017895
#
#
# Mechanical properties :
#
#
# Convention : Reuss Voigt Hill
#
# Bulk Modulus (GPa) = 26.56391 29.87471 28.21931
# Shear Modulus (GPa) = -44.12692 26.89805 -8.61443
#
# Velocity S-wave (km/s) = -4.82457 3.76675 -2.13167
# Velocity P-wave (km/s) = 4.12590 5.88867 2.97097
#
# Compressibility (1/GPa) = 0.03764506
#
# Stress axis : x y z
#
# Youngs Moduli (GPa) = 61.02064 37.67461 77.86194
#
# Poissons Ratio (x) = 0.04566 0.06116
# Poissons Ratio (y) = 0.07395 0.55027
# Poissons Ratio (z) = 0.04793 0.26626
#
# Static dielectric constant tensor:
#      x y z
#    x 1.629090 0.000000 0.000000 
#    y 0.000000 1.630390 0.000000 
#    z 0.000000 0.000000 1.667180 
# 
# From -- ./inp_files/29243.got.cif
#   From: 2010.05.17/outbox.cif.g08.bks.cpg/sg62_15_cif.got.tgz:29243.got - 2010.06.03 15:25:27.
