data_PCOD9465808
_publ_section_title
;
Structure prediction by ZEFSAII (Michael W. Deem and Ramdas Pophale) SiO2 
 PCOD9465808
Probable space group: P N M A
;
_chemical_formula_sum "Si O2"
_cell_formula_units_Z 64
_cell_length_a 10.580457
_cell_length_b 8.843770
_cell_length_c 32.702865
_cell_angle_alpha 90.000000
_cell_angle_beta 90.000000
_cell_angle_gamma 90.000000
_cell_volume 3060.043974
_symmetry_space_group_name_H-M "P N M A"
_symmetry_group_IT_number 62
_symmetry_cell_setting 'orthorhombic'
loop_
_space_group_symop_operation_xyz
x,y,z
1/2-x,-y,1/2+z
1/2+x,1/2-y,1/2-z
-x,1/2+y,-z
-x,-y,-z
1/2+x,y,1/2-z
1/2-x,1/2+y,1/2+z
x,1/2-y,z
loop_
_atom_site_type_symbol
_atom_site_label
_atom_site_fract_x
_atom_site_fract_y
_atom_site_fract_z
Si Si1 0.860119 0.073736 0.502472
Si Si2 0.471063 0.424106 0.696352
Si Si3 0.467148 0.578470 0.781771
Si Si4 0.670565 0.923512 0.098500
Si Si5 0.862141 0.928254 0.884615
Si Si6 0.794029 0.080422 0.168710
Si Si7 0.896220 0.069634 0.969037
Si Si8 0.075585 0.930799 0.636036
O O1 0.867544 0.250000 0.489241
O O2 0.821153 0.068941 0.550063
O O3 0.745270 0.991091 0.479381
O O4 0.000000 0.000000 0.500000
O O5 0.438541 0.250000 0.691413
O O6 0.443962 0.480791 0.741891
O O7 0.409792 0.518866 0.659621
O O8 0.618792 0.458066 0.689989
O O9 0.499532 0.750000 0.768726
O O10 0.339384 0.582353 0.808202
O O11 0.569774 0.527281 0.815617
O O12 0.689828 0.750000 0.111655
O O13 0.767071 0.030803 0.122417
O O14 0.531465 0.978293 0.112130
O O15 0.883873 0.750000 0.890222
O O16 0.922046 0.017875 0.922431
O O17 0.711630 0.955692 0.883191
O O18 0.847526 0.250000 0.170883
O O19 0.100495 0.750000 0.027696
O O20 0.000000 0.000000 0.000000
O O21 0.047336 0.750000 0.634298
#
# Coordination Sequence:
#
# PCOD9465808 Si02
#       8
#     8   8   8   8   8   8   8   8
#     4  11  24  42  67 100 135 173 220 276 331 393
#     4  12  26  40  60  92 128 164 206 261 318 377
#     4   9  20  40  63  90 121 163 211 259 310 370
#     4  10  21  37  62  94 129 162 202 259 318 369
#     4  11  24  44  68  94 126 170 217 262 317 387
#     4  10  22  41  64  87 119 163 211 256 305 372
#     4  12  27  47  70  98 135 178 223 278 339 403
#     4   9  20  39  65  94 127 168 213 258 311 378
#
# _framework density 20.914732000000001
#
# number of rings (size 3 to 8) (size 9 to 14) (size 15 to 20)
#    0.000    1.500    0.000    5.250    3.500    7.500 
#    0.000    0.000    0.000    0.000    0.000    0.000 
#    0.000    0.000    0.000    0.000    0.000    0.000 
#
# Total GULP energy -357708.218677 kJ/mol
# GULP energy per Si atom -5589.190917 kJ/mol
# Density = 2.086713 g / cm^3
# Si number density = 20.914732 Si / 1000 Ang^3
#
#
#
# Elastic Constant Matrix: (Units=GPa)
#
#
# Indices 1 2 3 4 5 6 
#
# 1 52.2493 18.8172 18.6136 0.0000 0.0000 0.0000
# 2 18.8172 101.1482 39.0201 0.0000 0.0000 0.0000
# 3 18.6136 39.0201 101.2369 0.0000 0.0000 0.0000
# 4 0.0000 0.0000 0.0000 36.3952 0.0000 0.0000
# 5 0.0000 0.0000 0.0000 0.0000 22.9043 0.0000
# 6 0.0000 0.0000 0.0000 0.0000 0.0000 30.0141
#
#
#
# Elastic Compliance Matrix: (Units=1/GPa)
#
#
# Indices 1 2 3 4 5 6 
#
# 1 0.021163 -0.002861 -0.002788 0.000000 0.000000 0.000000
# 2 -0.002861 0.012000 -0.004099 0.000000 0.000000 0.000000
# 3 -0.002788 -0.004099 0.011970 0.000000 0.000000 0.000000
# 4 0.000000 0.000000 0.000000 0.027476 0.000000 0.000000
# 5 0.000000 0.000000 0.000000 0.000000 0.043660 0.000000
# 6 0.000000 0.000000 0.000000 0.000000 0.000000 0.033318
#
#
# Mechanical properties :
#
#
# Convention : Reuss Voigt Hill
#
# Bulk Modulus (GPa) = 39.00783 45.28179 42.14481
# Shear Modulus (GPa) = 28.14844 29.74163 28.94503
#
# Velocity S-wave (km/s) = 3.67259 3.77509 3.72419
# Velocity P-wave (km/s) = 6.05601 6.37961 6.21991
#
# Compressibility (1/GPa) = 0.02563588
#
# Stress axis : x y z
#
# Youngs Moduli (GPa) = 47.25274 83.33226 83.53934
#
# Poissons Ratio (x) = 0.23845 0.23292
# Poissons Ratio (y) = 0.13521 0.34244
# Poissons Ratio (z) = 0.13175 0.34159
#
# Static dielectric constant tensor:
#      x y z
#    x 1.782250 0.000000 0.000000 
#    y 0.000000 1.722310 0.000000 
#    z 0.000000 0.000000 1.761580 
# 
# From -- ./inp_files/32530.got.cif
#   From: 2010.05.17/outbox.cif.g08.bks.cpg/sg62_17_cif.got.tgz:32530.got - 2010.06.03 15:25:27.
