data_PCOD9465899
_publ_section_title
;
Structure prediction by ZEFSAII (Michael W. Deem and Ramdas Pophale) SiO2 
 PCOD9465899
Probable space group: P N M A
;
_chemical_formula_sum "Si O2"
_cell_formula_units_Z 56
_cell_length_a 33.203586
_cell_length_b 14.535103
_cell_length_c 5.280370
_cell_angle_alpha 90.000000
_cell_angle_beta 90.000000
_cell_angle_gamma 90.000000
_cell_volume 2548.399193
_symmetry_space_group_name_H-M "P N M A"
_symmetry_group_IT_number 62
_symmetry_cell_setting 'orthorhombic'
loop_
_space_group_symop_operation_xyz
x,y,z
1/2-x,-y,1/2+z
1/2+x,1/2-y,1/2-z
-x,1/2+y,-z
-x,-y,-z
1/2+x,y,1/2-z
1/2-x,1/2+y,1/2+z
x,1/2-y,z
loop_
_atom_site_type_symbol
_atom_site_label
_atom_site_fract_x
_atom_site_fract_y
_atom_site_fract_z
Si Si1 0.299392 0.491995 0.120691
Si Si2 0.254061 0.647040 0.865054
Si Si3 0.826665 0.652100 0.020983
Si Si4 0.385650 0.021770 0.925603
Si Si5 0.954720 0.140322 0.421889
Si Si6 0.499838 0.138855 0.576743
Si Si7 0.908761 0.577398 0.065041
O O1 0.262649 0.559816 0.044304
O O2 0.337233 0.477100 0.934607
O O3 0.281306 0.393338 0.190823
O O4 0.318045 0.556349 0.339502
O O5 0.244855 0.750000 0.961209
O O6 0.296303 0.653262 0.713751
O O7 0.818238 0.750000 0.161363
O O8 0.874180 0.648571 0.974779
O O9 0.400854 0.001842 0.642997
O O10 0.408980 0.110882 0.027102
O O11 0.400098 0.947978 0.140482
O O12 0.957249 0.250000 0.415262
O O13 0.981643 0.106165 0.656959
O O14 0.973179 0.104486 0.159247
O O15 0.497451 0.250000 0.578664
O O16 0.546098 0.112427 0.543361
#
# Coordination Sequence:
#
# PCOD9465899 Si02
#       7
#     8   8   8   8   8   8   8
#     4  11  22  41  62  91 129 158 212 268 312 385
#     4  11  22  39  65  90 120 165 207 256 325 384
#     4  10  21  38  61  88 123 165 202 252 320 378
#     4  11  24  38  62  87 123 161 202 256 316 363
#     4  10  22  40  59  83 119 163 206 253 307 368
#     4  10  21  38  60  86 122 161 204 255 304 362
#     4  11  22  38  59  93 122 159 205 257 307 376
#
# _framework density 21.974578000000001
#
# number of rings (size 3 to 8) (size 9 to 14) (size 15 to 20)
#    0.000    1.429    2.857    2.571    0.000    4.000 
#    0.000    1.429    0.000    0.857    0.000    0.000 
#    0.000    0.000    0.000    0.000    0.000    0.000 
#
# Total GULP energy -312278.054089 kJ/mol
# GULP energy per Si atom -5576.393823 kJ/mol
# Density = 2.192456 g / cm^3
# Si number density = 21.974578 Si / 1000 Ang^3
#
#
#
# Elastic Constant Matrix: (Units=GPa)
#
#
# Indices 1 2 3 4 5 6 
#
# 1 92.0041 33.9636 17.2994 0.0000 0.0000 0.0000
# 2 33.9636 69.7298 16.3776 0.0000 0.0000 0.0000
# 3 17.2994 16.3776 74.8988 0.0000 0.0000 0.0000
# 4 0.0000 0.0000 0.0000 4.2784 0.0000 0.0000
# 5 0.0000 0.0000 0.0000 0.0000 29.0048 0.0000
# 6 0.0000 0.0000 0.0000 0.0000 0.0000 1.6736
#
#
#
# Elastic Compliance Matrix: (Units=1/GPa)
#
#
# Indices 1 2 3 4 5 6 
#
# 1 0.013470 -0.006146 -0.001767 0.000000 0.000000 0.000000
# 2 -0.006146 0.017922 -0.002499 0.000000 0.000000 0.000000
# 3 -0.001767 -0.002499 0.014306 0.000000 0.000000 0.000000
# 4 0.000000 0.000000 0.000000 0.233731 0.000000 0.000000
# 5 0.000000 0.000000 0.000000 0.000000 0.034477 0.000000
# 6 0.000000 0.000000 0.000000 0.000000 0.000000 0.597514
#
#
# Mechanical properties :
#
#
# Convention : Reuss Voigt Hill
#
# Bulk Modulus (GPa) = 40.20450 41.32375 40.76412
# Shear Modulus (GPa) = 5.31612 18.25751 11.78682
#
# Velocity S-wave (km/s) = 1.55707 2.88557 2.31851
# Velocity P-wave (km/s) = 4.64416 5.47248 5.07525
#
# Compressibility (1/GPa) = 0.02487284
#
# Stress axis : x y z
#
# Youngs Moduli (GPa) = 74.23813 55.79864 69.90055
#
# Poissons Ratio (x) = 0.34293 0.12354
# Poissons Ratio (y) = 0.45626 0.17470
# Poissons Ratio (z) = 0.13120 0.13946
#
# Static dielectric constant tensor:
#      x y z
#    x 1.807260 0.000000 0.000000 
#    y 0.000000 1.845860 0.000000 
#    z 0.000000 0.000000 1.880960 
# 
# From -- ./inp_files/3585.got.cif
#   From: 2010.05.17/outbox.cif.g08.bks.cpg/sg62_2_cif.got.tgz:3585.got - 2010.06.03 15:25:27.
