data_PCOD9465194
_publ_section_title
;
Structure prediction by ZEFSAII (Michael W. Deem and Ramdas Pophale) SiO2 
 PCOD9465194
Probable space group: P N M A
;
_chemical_formula_sum "Si O2"
_cell_formula_units_Z 48
_cell_length_a 16.335833
_cell_length_b 13.840458
_cell_length_c 9.616979
_cell_angle_alpha 90.000000
_cell_angle_beta 90.000000
_cell_angle_gamma 90.000000
_cell_volume 2174.354815
_symmetry_space_group_name_H-M "P N M A"
_symmetry_group_IT_number 62
_symmetry_cell_setting 'orthorhombic'
loop_
_space_group_symop_operation_xyz
x,y,z
1/2-x,-y,1/2+z
1/2+x,1/2-y,1/2-z
-x,1/2+y,-z
-x,-y,-z
1/2+x,y,1/2-z
1/2-x,1/2+y,1/2+z
x,1/2-y,z
loop_
_atom_site_type_symbol
_atom_site_label
_atom_site_fract_x
_atom_site_fract_y
_atom_site_fract_z
Si Si1 0.526839 0.250000 0.946966
Si Si2 0.277296 0.454253 0.444307
Si Si3 0.203848 0.750000 0.865545
Si Si4 0.514710 0.459629 0.846122
Si Si5 0.891324 0.750000 0.754438
Si Si6 0.648073 0.750000 0.919221
Si Si7 0.179070 0.956075 0.645542
Si Si8 0.927298 0.542062 0.897814
O O1 0.540554 0.348130 0.860734
O O2 0.570725 0.250000 0.097910
O O3 0.431103 0.250000 0.987515
O O4 0.305011 0.344564 0.454417
O O5 0.265748 0.470093 0.280676
O O6 0.194695 0.465548 0.529139
O O7 0.344172 0.521029 0.517634
O O8 0.292376 0.750000 0.782940
O O9 0.134003 0.750000 0.747638
O O10 0.588653 0.528102 0.794947
O O11 0.440544 0.478254 0.741606
O O12 0.500000 0.500000 0.000000
O O13 0.919768 0.653384 0.839982
O O14 0.690421 0.646203 0.931142
O O15 0.000000 0.500000 0.000000
#
# Coordination Sequence:
#
# PCOD9465194 Si02
#       8
#     4   8   4   8   4   4   8   8
#     4  12  24  38  74  99 135 182 240 298 348 437
#     4  11  25  43  69  97 140 179 236 297 359 435
#     4  10  24  43  68  98 132 190 237 288 364 448
#     4  12  24  43  69 103 136 185 245 292 354 434
#     4  12  24  45  74 102 143 205 241 286 394 447
#     4  10  20  38  64  93 120 177 228 272 348 424
#     4  11  23  43  65  96 133 177 231 291 351 429
#     4  12  26  46  69 108 146 191 238 314 371 442
#
# _framework density 22.075514999999999
#
# number of rings (size 3 to 8) (size 9 to 14) (size 15 to 20)
#    0.000    0.667    5.000    3.000    4.667    1.333 
#    0.000    2.500    0.000    0.000    0.000    0.000 
#    0.000    0.000    0.000    0.000    0.000    0.000 
#
# Total GULP energy -267633.439008 kJ/mol
# GULP energy per Si atom -5575.696646 kJ/mol
# Density = 2.202527 g / cm^3
# Si number density = 22.075515 Si / 1000 Ang^3
#
#
#
# Elastic Constant Matrix: (Units=GPa)
#
#
# Indices 1 2 3 4 5 6 
#
# 1 59.9463 6.7536 16.5121 0.0000 0.0000 0.0000
# 2 6.7536 160.2930 30.9206 0.0000 0.0000 0.0000
# 3 16.5121 30.9206 83.2974 0.0000 0.0000 0.0000
# 4 0.0000 0.0000 0.0000 41.2320 0.0000 0.0000
# 5 0.0000 0.0000 0.0000 0.0000 43.9806 0.0000
# 6 0.0000 0.0000 0.0000 0.0000 0.0000 22.7158
#
#
#
# Elastic Compliance Matrix: (Units=1/GPa)
#
#
# Indices 1 2 3 4 5 6 
#
# 1 0.017646 -0.000074 -0.003470 0.000000 0.000000 0.000000
# 2 -0.000074 0.006720 -0.002480 0.000000 0.000000 0.000000
# 3 -0.003470 -0.002480 0.013614 0.000000 0.000000 0.000000
# 4 0.000000 0.000000 0.000000 0.024253 0.000000 0.000000
# 5 0.000000 0.000000 0.000000 0.000000 0.022737 0.000000
# 6 0.000000 0.000000 0.000000 0.000000 0.000000 0.044022
#
#
# Mechanical properties :
#
#
# Convention : Reuss Voigt Hill
#
# Bulk Modulus (GPa) = 38.56404 45.76770 42.16587
# Shear Modulus (GPa) = 33.40360 38.20905 35.80633
#
# Velocity S-wave (km/s) = 3.89415 4.16484 4.03177
# Velocity P-wave (km/s) = 6.14217 6.62610 6.38872
#
# Compressibility (1/GPa) = 0.02593089
#
# Stress axis : x y z
#
# Youngs Moduli (GPa) = 56.67050 148.80820 73.45559
#
# Poissons Ratio (x) = 0.01101 0.25493
# Poissons Ratio (y) = 0.00419 0.18216
# Poissons Ratio (z) = 0.19667 0.36902
#
# Static dielectric constant tensor:
#      x y z
#    x 1.879620 0.000000 0.000000 
#    y 0.000000 2.094840 0.000000 
#    z 0.000000 0.000000 1.831600 
# 
# From -- ./inp_files/7735.got.cif
#   From: 2010.05.17/outbox.cif.g08.bks.cpg/sg62_4_cif.got.tgz:7735.got - 2010.06.03 15:25:27.
