data_PCOD9465004
_publ_section_title
;
Structure prediction by ZEFSAII (Michael W. Deem and Ramdas Pophale) SiO2 
 PCOD9465004
Probable space group: P N M A
;
_chemical_formula_sum "Si O2"
_cell_formula_units_Z 56
_cell_length_a 14.161865
_cell_length_b 26.927806
_cell_length_c 5.679767
_cell_angle_alpha 90.000000
_cell_angle_beta 90.000000
_cell_angle_gamma 90.000000
_cell_volume 2165.967521
_symmetry_space_group_name_H-M "P N M A"
_symmetry_group_IT_number 62
_symmetry_cell_setting 'orthorhombic'
loop_
_space_group_symop_operation_xyz
x,y,z
1/2-x,-y,1/2+z
1/2+x,1/2-y,1/2-z
-x,1/2+y,-z
-x,-y,-z
1/2+x,y,1/2-z
1/2-x,1/2+y,1/2+z
x,1/2-y,z
loop_
_atom_site_type_symbol
_atom_site_label
_atom_site_fract_x
_atom_site_fract_y
_atom_site_fract_z
Si Si1 0.456079 0.452183 0.813371
Si Si2 0.204583 0.019364 0.442284
Si Si3 0.781740 0.397989 0.805002
Si Si4 0.537379 0.862476 0.824020
Si Si5 0.602233 0.195575 0.909667
Si Si6 0.390407 0.898199 0.439475
Si Si7 0.694282 0.693295 0.544301
O O1 0.375627 0.429017 0.643064
O O2 0.553043 0.445047 0.673468
O O3 0.404987 0.502570 0.897599
O O4 0.448082 0.410448 0.014871
O O5 0.214165 0.078257 0.492496
O O6 0.258590 0.003390 0.197641
O O7 0.721365 0.408906 0.569517
O O8 0.808684 0.340304 0.808205
O O9 0.493613 0.815198 0.956968
O O10 0.453866 0.880538 0.652381
O O11 0.631674 0.840949 0.709891
O O12 0.604618 0.250000 0.796105
O O13 0.692919 0.194075 0.083652
O O14 0.607449 0.149799 0.731868
O O15 0.661630 0.750000 0.526831
#
# Coordination Sequence:
#
# PCOD9465004 Si02
#       7
#     8   8   8   8   8   8   8
#     4  10  22  40  63  91 128 162 212 269 320 398
#     4  10  22  41  69 100 132 180 219 270 335 392
#     4  10  21  42  64  91 128 168 211 266 329 389
#     4  11  21  37  61  88 123 164 208 266 325 386
#     4   9  21  38  55  86 122 159 213 264 318 391
#     4  10  22  39  61  90 121 167 214 264 329 387
#     4  10  20  37  62  87 121 164 205 259 320 388
#
# _framework density 25.854496000000001
#
# number of rings (size 3 to 8) (size 9 to 14) (size 15 to 20)
#    0.000    2.000    1.429    1.286    4.000    1.714 
#    7.714    1.429    0.000    0.000    0.000    0.000 
#    0.000    0.000    0.000    0.000    0.000    0.000 
#
# Total GULP energy -312251.875828 kJ/mol
# GULP energy per Si atom -5575.926354 kJ/mol
# Density = 2.579565 g / cm^3
# Si number density = 25.854496 Si / 1000 Ang^3
#
#
#
# Elastic Constant Matrix: (Units=GPa)
#
#
# Indices 1 2 3 4 5 6 
#
# 1 64.4674 -2.5775 12.4317 0.0000 0.0000 0.0000
# 2 -2.5775 148.6676 34.3009 0.0000 0.0000 0.0000
# 3 12.4317 34.3009 64.9507 0.0000 0.0000 0.0000
# 4 0.0000 0.0000 0.0000 10.3224 0.0000 0.0000
# 5 0.0000 0.0000 0.0000 0.0000 25.0883 0.0000
# 6 0.0000 0.0000 0.0000 0.0000 0.0000 37.1788
#
#
#
# Elastic Compliance Matrix: (Units=1/GPa)
#
#
# Indices 1 2 3 4 5 6 
#
# 1 0.016274 0.001140 -0.003717 0.000000 0.000000 0.000000
# 2 0.001140 0.007740 -0.004305 0.000000 0.000000 0.000000
# 3 -0.003717 -0.004305 0.018381 0.000000 0.000000 0.000000
# 4 0.000000 0.000000 0.000000 0.096876 0.000000 0.000000
# 5 0.000000 0.000000 0.000000 0.000000 0.039859 0.000000
# 6 0.000000 0.000000 0.000000 0.000000 0.000000 0.026897
#
#
# Mechanical properties :
#
#
# Convention : Reuss Voigt Hill
#
# Bulk Modulus (GPa) = 34.92847 40.71066 37.81956
# Shear Modulus (GPa) = 21.80206 30.11327 25.95766
#
# Velocity S-wave (km/s) = 2.90704 3.41650 3.17202
# Velocity P-wave (km/s) = 4.98065 5.59853 5.29860
#
# Compressibility (1/GPa) = 0.02862994
#
# Stress axis : x y z
#
# Youngs Moduli (GPa) = 61.44766 129.20674 54.40272
#
# Poissons Ratio (x) = -0.14726 0.20220
# Poissons Ratio (y) = -0.07003 0.23423
# Poissons Ratio (z) = 0.22839 0.55629
#
# Static dielectric constant tensor:
#      x y z
#    x 2.135420 0.000000 0.000000 
#    y 0.000000 2.060430 0.000000 
#    z 0.000000 0.000000 2.099620 
# 
# From -- ./inp_files/1274.got.cif
#   From: 2010.05.17/outbox.cif.g08.bks.cpg/sg62_1_cif.got.tgz:1274.got - 2010.06.03 15:25:27.
