data_PCOD9465718
_publ_section_title
;
Structure prediction by ZEFSAII (Michael W. Deem and Ramdas Pophale) SiO2 
 PCOD9465718
Probable space group: P N M A
;
_chemical_formula_sum "Si O2"
_cell_formula_units_Z 56
_cell_length_a 14.179049
_cell_length_b 9.152713
_cell_length_c 19.775582
_cell_angle_alpha 90.000000
_cell_angle_beta 90.000000
_cell_angle_gamma 90.000000
_cell_volume 2566.411080
_symmetry_space_group_name_H-M "P N M A"
_symmetry_group_IT_number 62
_symmetry_cell_setting 'orthorhombic'
loop_
_space_group_symop_operation_xyz
x,y,z
1/2-x,-y,1/2+z
1/2+x,1/2-y,1/2-z
-x,1/2+y,-z
-x,-y,-z
1/2+x,y,1/2-z
1/2-x,1/2+y,1/2+z
x,1/2-y,z
loop_
_atom_site_type_symbol
_atom_site_label
_atom_site_fract_x
_atom_site_fract_y
_atom_site_fract_z
Si Si1 0.785915 0.424502 0.790264
Si Si2 0.262004 0.581730 0.995260
Si Si3 0.386223 0.923576 0.583166
Si Si4 0.277987 0.079855 0.862603
Si Si5 0.449404 0.578424 0.358053
Si Si6 0.043187 0.080188 0.563457
Si Si7 0.560608 0.425680 0.791214
O O1 0.802073 0.250000 0.800529
O O2 0.835970 0.514737 0.848800
O O3 0.813600 0.459103 0.712476
O O4 0.673305 0.449450 0.792888
O O5 0.234295 0.750000 0.986272
O O6 0.304987 0.518415 0.925991
O O7 0.174769 0.487297 0.021586
O O8 0.344057 0.575422 0.051523
O O9 0.385825 0.750000 0.580982
O O10 0.491649 0.986645 0.588558
O O11 0.301943 0.250000 0.874320
O O12 0.163468 0.069168 0.861749
O O13 0.474196 0.750000 0.364610
O O14 0.474860 0.524862 0.281864
O O15 0.015345 0.250000 0.561139
O O16 0.020314 0.018788 0.637788
O O17 0.000000 0.000000 0.500000
O O18 0.547329 0.250000 0.791377
#
# Coordination Sequence:
#
# PCOD9465718 Si02
#       7
#     8   8   8   8   8   8   8
#     4   9  17  36  62  82 108 149 194 239 290 349
#     4  11  23  40  61  83 118 161 197 238 294 356
#     4  12  24  36  56  87 120 153 198 247 290 347
#     4   9  20  38  62  89 117 150 196 247 294 351
#     4   9  19  37  61  85 110 149 195 243 294 344
#     4  10  21  37  58  84 114 150 191 235 285 345
#     4   8  15  34  60  80 103 141 191 232 274 339
#
# _framework density 21.820354999999999
#
# number of rings (size 3 to 8) (size 9 to 14) (size 15 to 20)
#    0.000    2.286    1.429    3.429    0.000    4.000 
#    0.000    7.143    0.000    0.000    0.000    0.000 
#    0.000    0.000    0.000    0.000    0.000    0.000 
#
# Total GULP energy -312952.513014 kJ/mol
# GULP energy per Si atom -5588.437732 kJ/mol
# Density = 2.177069 g / cm^3
# Si number density = 21.820355 Si / 1000 Ang^3
#
#
#
# Elastic Constant Matrix: (Units=GPa)
#
#
# Indices 1 2 3 4 5 6 
#
# 1 56.7312 11.4892 9.3860 0.0000 0.0000 0.0000
# 2 11.4892 72.5825 32.9855 0.0000 0.0000 0.0000
# 3 9.3860 32.9855 114.4416 0.0000 0.0000 0.0000
# 4 0.0000 0.0000 0.0000 30.7654 0.0000 0.0000
# 5 0.0000 0.0000 0.0000 0.0000 39.3175 0.0000
# 6 0.0000 0.0000 0.0000 0.0000 0.0000 20.7108
#
#
#
# Elastic Compliance Matrix: (Units=1/GPa)
#
#
# Indices 1 2 3 4 5 6 
#
# 1 0.018269 -0.002544 -0.000765 0.000000 0.000000 0.000000
# 2 -0.002544 0.016208 -0.004463 0.000000 0.000000 0.000000
# 3 -0.000765 -0.004463 0.010087 0.000000 0.000000 0.000000
# 4 0.000000 0.000000 0.000000 0.032504 0.000000 0.000000
# 5 0.000000 0.000000 0.000000 0.000000 0.025434 0.000000
# 6 0.000000 0.000000 0.000000 0.000000 0.000000 0.048284
#
#
# Mechanical properties :
#
#
# Convention : Reuss Voigt Hill
#
# Bulk Modulus (GPa) = 34.45908 39.05297 36.75602
# Shear Modulus (GPa) = 28.40840 30.81838 29.61339
#
# Velocity S-wave (km/s) = 3.61213 3.76223 3.68794
# Velocity P-wave (km/s) = 5.76395 6.06703 5.91743
#
# Compressibility (1/GPa) = 0.02901993
#
# Stress axis : x y z
#
# Youngs Moduli (GPa) = 54.73814 61.69633 99.13532
#
# Poissons Ratio (x) = 0.15696 0.07584
# Poissons Ratio (y) = 0.13926 0.44245
# Poissons Ratio (z) = 0.04188 0.27536
#
# Static dielectric constant tensor:
#      x y z
#    x 1.865760 0.000000 0.000000 
#    y 0.000000 1.718590 0.000000 
#    z 0.000000 0.000000 1.823540 
# 
# From -- ./inp_files/27241.got.cif
#   From: 2010.05.17/outbox.cif.g08.bks.cpg/sg62_14_cif.got.tgz:27241.got - 2010.06.03 15:25:27.
