data_PCOD9465812
_publ_section_title
;
Structure prediction by ZEFSAII (Michael W. Deem and Ramdas Pophale) SiO2 
 PCOD9465812
Probable space group: P N M A
;
_chemical_formula_sum "Si O2"
_cell_formula_units_Z 36
_cell_length_a 8.240670
_cell_length_b 9.816743
_cell_length_c 21.385250
_cell_angle_alpha 90.000000
_cell_angle_beta 90.000000
_cell_angle_gamma 90.000000
_cell_volume 1729.992722
_symmetry_space_group_name_H-M "P N M A"
_symmetry_group_IT_number 62
_symmetry_cell_setting 'orthorhombic'
loop_
_space_group_symop_operation_xyz
x,y,z
1/2-x,-y,1/2+z
1/2+x,1/2-y,1/2-z
-x,1/2+y,-z
-x,-y,-z
1/2+x,y,1/2-z
1/2-x,1/2+y,1/2+z
x,1/2-y,z
loop_
_atom_site_type_symbol
_atom_site_label
_atom_site_fract_x
_atom_site_fract_y
_atom_site_fract_z
Si Si1 0.910117 0.750000 0.273945
Si Si2 0.677266 0.250000 0.151191
Si Si3 0.998537 0.750000 0.128801
Si Si4 0.144022 0.750000 0.376031
Si Si5 0.966051 0.750000 0.784926
Si Si6 0.509959 0.025145 0.073601
Si Si7 0.719093 0.992235 0.343900
O O1 0.941743 0.750000 0.201052
O O2 0.818458 0.887506 0.298067
O O3 0.092646 0.750000 0.303210
O O4 0.548902 0.250000 0.209295
O O5 0.852749 0.250000 0.185338
O O6 0.642698 0.124243 0.104755
O O7 0.824516 0.750000 0.097309
O O8 0.100739 0.613107 0.120099
O O9 0.053418 0.620858 0.400922
O O10 0.876442 0.611356 0.807851
O O11 0.339248 0.061018 0.106125
O O12 0.500000 0.000000 0.000000
#
# Coordination Sequence:
#
# PCOD9465812 Si02
#       7
#     4   4   4   4   4   8   8
#     4   9  21  36  62  90 131 166 205 252 316 390
#     4  12  27  43  68  98 137 180 212 282 340 404
#     4  11  21  37  61  96 129 158 213 264 317 379
#     4  10  21  37  63  91 118 170 213 256 312 374
#     4  12  26  43  66 107 145 168 217 274 359 413
#     4  11  24  46  66  90 127 181 229 268 327 395
#     4  10  23  40  63  96 133 172 214 271 324 394
#
# _framework density 20.809336999999999
#
# number of rings (size 3 to 8) (size 9 to 14) (size 15 to 20)
#    0.000    1.333    0.000    6.000   12.444    0.000 
#    0.000    6.667    0.000    0.000    0.000    0.000 
#    0.000    0.000    0.000    0.000    0.000    0.000 
#
# Total GULP energy -200819.366276 kJ/mol
# GULP energy per Si atom -5578.315730 kJ/mol
# Density = 2.076197 g / cm^3
# Si number density = 20.809337 Si / 1000 Ang^3
#
#
#
# Elastic Constant Matrix: (Units=GPa)
#
#
# Indices 1 2 3 4 5 6 
#
# 1 99.5706 16.9296 26.9327 0.0000 0.0000 0.0000
# 2 16.9296 121.1886 27.5267 0.0000 0.0000 0.0000
# 3 26.9327 27.5267 111.7313 0.0000 0.0000 0.0000
# 4 0.0000 0.0000 0.0000 8.9821 0.0000 0.0000
# 5 0.0000 0.0000 0.0000 0.0000 14.4004 0.0000
# 6 0.0000 0.0000 0.0000 0.0000 0.0000 24.5424
#
#
#
# Elastic Compliance Matrix: (Units=1/GPa)
#
#
# Indices 1 2 3 4 5 6 
#
# 1 0.010852 -0.000976 -0.002375 0.000000 0.000000 0.000000
# 2 -0.000976 0.008829 -0.001940 0.000000 0.000000 0.000000
# 3 -0.002375 -0.001940 0.010000 0.000000 0.000000 0.000000
# 4 0.000000 0.000000 0.000000 0.111332 0.000000 0.000000
# 5 0.000000 0.000000 0.000000 0.000000 0.069443 0.000000
# 6 0.000000 0.000000 0.000000 0.000000 0.000000 0.040746
#
#
# Mechanical properties :
#
#
# Convention : Reuss Voigt Hill
#
# Bulk Modulus (GPa) = 52.36150 52.80761 52.58456
# Shear Modulus (GPa) = 18.64630 26.99175 22.81903
#
# Velocity S-wave (km/s) = 2.99666 3.60543 3.31505
# Velocity P-wave (km/s) = 6.09840 6.53943 6.32276
#
# Compressibility (1/GPa) = 0.01909800
#
# Stress axis : x y z
#
# Youngs Moduli (GPa) = 92.15218 113.26849 99.99540
#
# Poissons Ratio (x) = 0.11060 0.23751
# Poissons Ratio (y) = 0.08998 0.19396
# Poissons Ratio (z) = 0.21888 0.21971
#
# Static dielectric constant tensor:
#      x y z
#    x 2.072240 0.000000 0.000000 
#    y 0.000000 1.715710 0.000000 
#    z 0.000000 0.000000 0.218090 
# 
# From -- ./inp_files/25663.got.cif
#   From: 2010.05.17/outbox.cif.g08.bks.cpg/sg62_13_cif.got.tgz:25663.got - 2010.06.03 15:25:27.
