data_PCOD9465089
_publ_section_title
;
Structure prediction by ZEFSAII (Michael W. Deem and Ramdas Pophale) SiO2 
 PCOD9465089
Probable space group: P N M A
;
_chemical_formula_sum "Si O2"
_cell_formula_units_Z 64
_cell_length_a 8.725820
_cell_length_b 15.988134
_cell_length_c 21.057489
_cell_angle_alpha 90.000000
_cell_angle_beta 90.000000
_cell_angle_gamma 90.000000
_cell_volume 2937.721434
_symmetry_space_group_name_H-M "P N M A"
_symmetry_group_IT_number 62
_symmetry_cell_setting 'orthorhombic'
loop_
_space_group_symop_operation_xyz
x,y,z
1/2-x,-y,1/2+z
1/2+x,1/2-y,1/2-z
-x,1/2+y,-z
-x,-y,-z
1/2+x,y,1/2-z
1/2-x,1/2+y,1/2+z
x,1/2-y,z
loop_
_atom_site_type_symbol
_atom_site_label
_atom_site_fract_x
_atom_site_fract_y
_atom_site_fract_z
Si Si1 0.877766 0.904727 0.897016
Si Si2 0.755468 0.047640 0.202109
Si Si3 0.646816 0.483241 0.956766
Si Si4 0.886423 0.568988 0.313310
Si Si5 0.096734 0.656886 0.227632
Si Si6 0.461531 0.655340 0.729031
Si Si7 0.929973 0.931856 0.121178
Si Si8 0.090706 0.651055 0.006423
O O1 0.849074 0.854708 0.832330
O O2 0.738648 0.930280 0.942751
O O3 0.938652 0.996444 0.874996
O O4 0.010585 0.861967 0.938476
O O5 0.596002 0.092146 0.216612
O O6 0.877497 0.123865 0.201107
O O7 0.811419 0.997380 0.264694
O O8 0.784595 0.987808 0.141368
O O9 0.600658 0.454575 0.886023
O O10 0.763784 0.411906 0.984755
O O11 0.500000 0.500000 0.000000
O O12 0.759947 0.642231 0.305053
O O13 0.048713 0.596097 0.284395
O O14 0.085871 0.750000 0.250946
O O15 0.967617 0.635169 0.175366
O O16 0.466913 0.750000 0.750674
O O17 0.963037 0.885196 0.055851
O O18 0.122952 0.750000 0.017551
#
# Coordination Sequence:
#
# PCOD9465089 Si02
#       8
#     8   8   8   8   8   8   8   8
#     4  10  20  42  63  92 121 170 224 266 309 386
#     4  10  20  38  60  88 122 162 205 253 319 390
#     4  11  23  44  69  94 126 180 224 265 327 397
#     4  11  21  41  62  91 128 172 210 259 319 391
#     4  11  21  36  63  97 132 166 209 263 324 382
#     4  11  21  38  62  90 124 161 209 270 325 370
#     4   9  18  34  63  87 118 164 210 251 307 391
#     4  11  22  41  69  96 128 170 219 275 325 377
#
# _framework density 21.785592999999999
#
# number of rings (size 3 to 8) (size 9 to 14) (size 15 to 20)
#    0.000    1.500    3.750    4.500    0.000    0.500 
#   18.000    1.250    0.000    0.000    0.000    0.000 
#    0.000    0.000    0.000    0.000    0.000    0.000 
#
# Total GULP energy -357029.301458 kJ/mol
# GULP energy per Si atom -5578.582835 kJ/mol
# Density = 2.173601 g / cm^3
# Si number density = 21.785593 Si / 1000 Ang^3
#
#
#
# Elastic Constant Matrix: (Units=GPa)
#
#
# Indices 1 2 3 4 5 6 
#
# 1 76.1063 14.2315 24.4434 0.0000 0.0000 0.0000
# 2 14.2315 91.2853 16.3597 0.0000 0.0000 0.0000
# 3 24.4434 16.3597 95.9108 0.0000 0.0000 0.0000
# 4 0.0000 0.0000 0.0000 22.8897 0.0000 0.0000
# 5 0.0000 0.0000 0.0000 0.0000 41.9449 0.0000
# 6 0.0000 0.0000 0.0000 0.0000 0.0000 20.1207
#
#
#
# Elastic Compliance Matrix: (Units=1/GPa)
#
#
# Indices 1 2 3 4 5 6 
#
# 1 0.014549 -0.001654 -0.003426 0.000000 0.000000 0.000000
# 2 -0.001654 0.011488 -0.001538 0.000000 0.000000 0.000000
# 3 -0.003426 -0.001538 0.011562 0.000000 0.000000 0.000000
# 4 0.000000 0.000000 0.000000 0.043688 0.000000 0.000000
# 5 0.000000 0.000000 0.000000 0.000000 0.023841 0.000000
# 6 0.000000 0.000000 0.000000 0.000000 0.000000 0.049700
#
#
# Mechanical properties :
#
#
# Convention : Reuss Voigt Hill
#
# Bulk Modulus (GPa) = 41.04572 41.48576 41.26574
# Shear Modulus (GPa) = 28.37931 30.87558 29.62745
#
# Velocity S-wave (km/s) = 3.61316 3.76872 3.69176
# Velocity P-wave (km/s) = 6.02397 6.16618 6.09549
#
# Compressibility (1/GPa) = 0.02436308
#
# Stress axis : x y z
#
# Youngs Moduli (GPa) = 68.73267 87.04590 86.49203
#
# Poissons Ratio (x) = 0.14400 0.29630
# Poissons Ratio (y) = 0.11370 0.13302
# Poissons Ratio (z) = 0.23546 0.13387
#
# Static dielectric constant tensor:
#      x y z
#    x 1.904430 0.000000 0.000000 
#    y 0.000000 1.805910 0.000000 
#    z 0.000000 0.000000 1.822280 
# 
# From -- ./inp_files/26178.got.cif
#   From: 2010.05.17/outbox.cif.g08.bks.cpg/sg62_14_cif.got.tgz:26178.got - 2010.06.03 15:25:27.
