data_PCOD9465916
_publ_section_title
;
Structure prediction by ZEFSAII (Michael W. Deem and Ramdas Pophale) SiO2 
 PCOD9465916
Probable space group: P N M A
;
_chemical_formula_sum "Si O2"
_cell_formula_units_Z 48
_cell_length_a 7.186203
_cell_length_b 13.274499
_cell_length_c 22.802781
_cell_angle_alpha 90.000000
_cell_angle_beta 90.000000
_cell_angle_gamma 90.000000
_cell_volume 2175.231264
_symmetry_space_group_name_H-M "P N M A"
_symmetry_group_IT_number 62
_symmetry_cell_setting 'orthorhombic'
loop_
_space_group_symop_operation_xyz
x,y,z
1/2-x,-y,1/2+z
1/2+x,1/2-y,1/2-z
-x,1/2+y,-z
-x,-y,-z
1/2+x,y,1/2-z
1/2-x,1/2+y,1/2+z
x,1/2-y,z
loop_
_atom_site_type_symbol
_atom_site_label
_atom_site_fract_x
_atom_site_fract_y
_atom_site_fract_z
Si Si1 0.443055 0.970154 0.831212
Si Si2 0.069961 0.861718 0.106854
Si Si3 0.524393 0.750000 0.696846
Si Si4 0.167684 0.362247 0.493186
Si Si5 0.167248 0.925926 0.434030
Si Si6 0.958506 0.750000 0.666160
Si Si7 0.004743 0.531519 0.805308
O O1 0.508259 0.861454 0.856392
O O2 0.508634 0.985719 0.764658
O O3 0.219388 0.966647 0.824070
O O4 0.466362 0.059403 0.877418
O O5 0.095348 0.750000 0.132261
O O6 0.200200 0.870445 0.050084
O O7 0.857610 0.872562 0.083193
O O8 0.095195 0.947408 0.156039
O O9 0.733773 0.750000 0.672651
O O10 0.536106 0.750000 0.767292
O O11 0.429720 0.855924 0.681949
O O12 0.193828 0.250000 0.467176
O O13 0.211711 0.459441 0.454163
O O14 0.955623 0.374489 0.515836
#
# Coordination Sequence:
#
# PCOD9465916 Si02
#       7
#     8   8   4   8   8   4   8
#     4   9  18  30  53  78 110 149 181 236 282 344
#     4  10  21  39  60  84 117 156 193 240 286 344
#     4   8  14  28  46  70 106 142 172 228 273 334
#     4  10  22  39  62  86 113 153 195 242 294 344
#     4  10  21  38  61  84 117 148 196 246 286 340
#     4   8  14  26  44  72 102 138 178 214 285 326
#     4   9  18  32  52  80 114 146 189 229 292 345
#
# _framework density 22.066618999999999
#
# number of rings (size 3 to 8) (size 9 to 14) (size 15 to 20)
#    0.000    2.667    0.000    1.000    3.500    0.000 
#    1.500    4.167    9.167    0.000    0.000    0.000 
#    0.000    0.000    0.000    0.000    0.000    0.000 
#
# Total GULP energy -267838.036510 kJ/mol
# GULP energy per Si atom -5579.959094 kJ/mol
# Density = 2.201639 g / cm^3
# Si number density = 22.066619 Si / 1000 Ang^3
#
#
#
# Elastic Constant Matrix: (Units=GPa)
#
#
# Indices 1 2 3 4 5 6 
#
# 1 52.0560 -0.0276 5.5139 0.0000 0.0000 0.0000
# 2 -0.0276 108.4185 38.8923 0.0000 0.0000 0.0000
# 3 5.5139 38.8923 62.3097 0.0000 0.0000 0.0000
# 4 0.0000 0.0000 0.0000 28.5349 0.0000 0.0000
# 5 0.0000 0.0000 0.0000 0.0000 29.9662 0.0000
# 6 0.0000 0.0000 0.0000 0.0000 0.0000 1.9947
#
#
#
# Elastic Compliance Matrix: (Units=1/GPa)
#
#
# Indices 1 2 3 4 5 6 
#
# 1 0.019446 0.000802 -0.002221 0.000000 0.000000 0.000000
# 2 0.000802 0.011918 -0.007510 0.000000 0.000000 0.000000
# 3 -0.002221 -0.007510 0.020933 0.000000 0.000000 0.000000
# 4 0.000000 0.000000 0.000000 0.035045 0.000000 0.000000
# 5 0.000000 0.000000 0.000000 0.000000 0.033371 0.000000
# 6 0.000000 0.000000 0.000000 0.000000 0.000000 0.501338
#
#
# Mechanical properties :
#
#
# Convention : Reuss Voigt Hill
#
# Bulk Modulus (GPa) = 29.03776 34.61573 31.82674
# Shear Modulus (GPa) = 7.67592 23.99284 15.83438
#
# Velocity S-wave (km/s) = 1.86710 3.30099 2.68166
# Velocity P-wave (km/s) = 4.22325 5.49997 4.90334
#
# Compressibility (1/GPa) = 0.03443792
#
# Stress axis : x y z
#
# Youngs Moduli (GPa) = 51.42506 83.90942 47.77193
#
# Poissons Ratio (x) = -0.06727 0.10611
# Poissons Ratio (y) = -0.04123 0.35875
# Poissons Ratio (z) = 0.11423 0.63013
#
# Static dielectric constant tensor:
#      x y z
#    x 1.814150 0.000000 0.000000 
#    y 0.000000 1.855800 0.000000 
#    z 0.000000 0.000000 1.606420 
# 
# From -- ./inp_files/28845.got.cif
#   From: 2010.05.17/outbox.cif.g08.bks.cpg/sg62_15_cif.got.tgz:28845.got - 2010.06.03 15:25:27.
