data_PCOD9465475
_publ_section_title
;
Structure prediction by ZEFSAII (Michael W. Deem and Ramdas Pophale) SiO2 
 PCOD9465475
Probable space group: P N M A
;
_chemical_formula_sum "Si O2"
_cell_formula_units_Z 52
_cell_length_a 5.337188
_cell_length_b 16.805745
_cell_length_c 27.288564
_cell_angle_alpha 90.000000
_cell_angle_beta 90.000000
_cell_angle_gamma 90.000000
_cell_volume 2447.659224
_symmetry_space_group_name_H-M "P N M A"
_symmetry_group_IT_number 62
_symmetry_cell_setting 'orthorhombic'
loop_
_space_group_symop_operation_xyz
x,y,z
1/2-x,-y,1/2+z
1/2+x,1/2-y,1/2-z
-x,1/2+y,-z
-x,-y,-z
1/2+x,y,1/2-z
1/2-x,1/2+y,1/2+z
x,1/2-y,z
loop_
_atom_site_type_symbol
_atom_site_label
_atom_site_fract_x
_atom_site_fract_y
_atom_site_fract_z
Si Si1 0.693400 0.541658 0.962131
Si Si2 0.156449 0.156920 0.772623
Si Si3 0.846141 0.750000 0.719724
Si Si4 0.332050 0.336284 0.634902
Si Si5 0.411998 0.599496 0.450600
Si Si6 0.726945 0.426779 0.216801
Si Si7 0.542117 0.976912 0.126381
O O1 0.570676 0.547220 0.908568
O O2 0.915163 0.478738 0.953904
O O3 0.500000 0.500000 0.000000
O O4 0.804117 0.613388 0.995035
O O5 0.922350 0.121895 0.742515
O O6 0.183086 0.250000 0.758814
O O7 0.067935 0.156847 0.828472
O O8 0.636977 0.750000 0.763525
O O9 0.792230 0.664131 0.696331
O O10 0.209553 0.250000 0.645308
O O11 0.421586 0.338076 0.578739
O O12 0.168631 0.414647 0.643850
O O13 0.197264 0.575459 0.412445
O O14 0.489529 0.435625 0.254078
O O15 0.694277 0.485896 0.171123
#
# Coordination Sequence:
#
# PCOD9465475 Si02
#       7
#     8   8   4   8   8   8   8
#     4   8  16  34  57  81 103 138 185 243 299 357
#     4   9  19  34  49  66  96 145 198 240 283 331
#     4   8  16  36  58  84 116 156 188 226 296 364
#     4  10  22  35  51  77 113 159 204 250 297 346
#     4   9  18  34  56  80 104 142 196 244 299 355
#     4  10  22  37  61  91 125 158 195 246 299 368
#     4  10  21  34  56  85 113 151 200 244 295 357
#
# _framework density 21.244789000000001
#
# number of rings (size 3 to 8) (size 9 to 14) (size 15 to 20)
#    0.000    2.769    0.000    0.000    6.462    1.846 
#    0.000    0.000    1.692    0.000   42.000    0.000 
#    0.000    0.000    0.000    0.000    0.000    0.000 
#
# Total GULP energy -289637.304003 kJ/mol
# GULP energy per Si atom -5569.948154 kJ/mol
# Density = 2.119643 g / cm^3
# Si number density = 21.244789 Si / 1000 Ang^3
#
#
#
# Elastic Constant Matrix: (Units=GPa)
#
#
# Indices 1 2 3 4 5 6 
#
# 1 59.5966 -4.3053 5.7796 0.0000 0.0000 0.0000
# 2 -4.3053 83.7533 18.5055 0.0000 0.0000 0.0000
# 3 5.7796 18.5055 71.9687 0.0000 0.0000 0.0000
# 4 0.0000 0.0000 0.0000 22.4889 0.0000 0.0000
# 5 0.0000 0.0000 0.0000 0.0000 35.6104 0.0000
# 6 0.0000 0.0000 0.0000 0.0000 0.0000 18.9242
#
#
#
# Elastic Compliance Matrix: (Units=1/GPa)
#
#
# Indices 1 2 3 4 5 6 
#
# 1 0.017034 0.001249 -0.001689 0.000000 0.000000 0.000000
# 2 0.001249 0.012751 -0.003379 0.000000 0.000000 0.000000
# 3 -0.001689 -0.003379 0.014899 0.000000 0.000000 0.000000
# 4 0.000000 0.000000 0.000000 0.044466 0.000000 0.000000
# 5 0.000000 0.000000 0.000000 0.000000 0.028082 0.000000
# 6 0.000000 0.000000 0.000000 0.000000 0.000000 0.052842
#
#
# Mechanical properties :
#
#
# Convention : Reuss Voigt Hill
#
# Bulk Modulus (GPa) = 26.99399 28.36424 27.67911
# Shear Modulus (GPa) = 26.30740 28.42728 27.36734
#
# Velocity S-wave (km/s) = 3.52276 3.66195 3.59303
# Velocity P-wave (km/s) = 5.41112 5.59106 5.50183
#
# Compressibility (1/GPa) = 0.03704529
#
# Stress axis : x y z
#
# Youngs Moduli (GPa) = 58.70782 78.42770 67.11688
#
# Poissons Ratio (x) = -0.09794 0.11336
# Poissons Ratio (y) = -0.07331 0.22678
# Poissons Ratio (z) = 0.09916 0.26500
#
# Static dielectric constant tensor:
#      x y z
#    x 2.023740 0.000000 0.000000 
#    y 0.000000 1.803100 0.000000 
#    z 0.000000 0.000000 1.997640 
# 
# From -- ./inp_files/30490.got.cif
#   From: 2010.05.17/outbox.cif.g08.bks.cpg/sg62_16_cif.got.tgz:30490.got - 2010.06.03 15:25:27.
