data_PCOD9465248
_publ_section_title
;
Structure prediction by ZEFSAII (Michael W. Deem and Ramdas Pophale) SiO2 
 PCOD9465248
Probable space group: P N M A
;
_chemical_formula_sum "Si O2"
_cell_formula_units_Z 64
_cell_length_a 12.954441
_cell_length_b 14.342658
_cell_length_c 16.399038
_cell_angle_alpha 90.000000
_cell_angle_beta 90.000000
_cell_angle_gamma 90.000000
_cell_volume 3046.959576
_symmetry_space_group_name_H-M "P N M A"
_symmetry_group_IT_number 62
_symmetry_cell_setting 'orthorhombic'
loop_
_space_group_symop_operation_xyz
x,y,z
1/2-x,-y,1/2+z
1/2+x,1/2-y,1/2-z
-x,1/2+y,-z
-x,-y,-z
1/2+x,y,1/2-z
1/2-x,1/2+y,1/2+z
x,1/2-y,z
loop_
_atom_site_type_symbol
_atom_site_label
_atom_site_fract_x
_atom_site_fract_y
_atom_site_fract_z
Si Si1 0.971765 0.353508 0.293531
Si Si2 0.137070 0.645229 0.328277
Si Si3 0.349569 0.096482 0.362805
Si Si4 0.929177 0.349918 0.960464
Si Si5 0.161704 0.099156 0.928139
Si Si6 0.326518 0.944704 0.757611
Si Si7 0.768183 0.497124 0.910816
Si Si8 0.540025 0.032786 0.912882
O O1 0.968720 0.250000 0.330728
O O2 0.078966 0.375857 0.248629
O O3 0.893143 0.359204 0.218631
O O4 0.963351 0.440430 0.355309
O O5 0.121068 0.750000 0.295117
O O6 0.245661 0.646942 0.378398
O O7 0.148715 0.554698 0.270219
O O8 0.037172 0.612743 0.380756
O O9 0.389786 0.141575 0.445723
O O10 0.228650 0.088692 0.341325
O O11 0.377203 0.987603 0.372732
O O12 0.896509 0.250000 0.927416
O O13 0.868988 0.431688 0.914613
O O14 0.053289 0.355533 0.954328
O O15 0.217140 0.060512 0.009383
O O16 0.266161 0.944783 0.672497
O O17 0.660923 0.441108 0.916986
O O18 0.500000 0.000000 0.000000
#
# Coordination Sequence:
#
# PCOD9465248 Si02
#       8
#     8   8   8   8   8   8   8   8
#     4  11  23  39  63  92 123 162 205 254 314 373
#     4  10  22  40  65  88 119 167 210 259 312 365
#     4  10  20  39  60  86 122 160 195 250 316 370
#     4  11  23  36  60  95 125 155 201 260 316 374
#     4  10  20  39  66  89 121 161 208 257 316 373
#     4  10  22  40  61  87 124 158 205 254 304 368
#     4  11  21  41  65  87 122 170 204 248 315 368
#     4  11  23  43  61  89 128 165 213 259 304 367
#
# _framework density 21.004543999999999
#
# number of rings (size 3 to 8) (size 9 to 14) (size 15 to 20)
#    0.000    1.500    2.500    3.750    1.750    2.500 
#    0.000    0.625    0.000    0.000    0.000    0.000 
#    0.000    0.000    0.000    0.000    0.000    0.000 
#
# Total GULP energy -356513.534402 kJ/mol
# GULP energy per Si atom -5570.523975 kJ/mol
# Density = 2.095674 g / cm^3
# Si number density = 21.004544 Si / 1000 Ang^3
#
#
#
# Elastic Constant Matrix: (Units=GPa)
#
#
# Indices 1 2 3 4 5 6 
#
# 1 95.5861 15.0592 11.3594 0.0000 0.0000 0.0000
# 2 15.0592 90.0410 3.2654 0.0000 0.0000 0.0000
# 3 11.3594 3.2654 65.7095 0.0000 0.0000 0.0000
# 4 0.0000 0.0000 0.0000 -0.0501 0.0000 0.0000
# 5 0.0000 0.0000 0.0000 0.0000 21.6674 0.0000
# 6 0.0000 0.0000 0.0000 0.0000 0.0000 -10.1441
#
#
#
# Elastic Compliance Matrix: (Units=1/GPa)
#
#
# Indices 1 2 3 4 5 6 
#
# 1 0.010955 -0.001767 -0.001806 0.000000 0.000000 0.000000
# 2 -0.001767 0.011411 -0.000262 0.000000 0.000000 0.000000
# 3 -0.001806 -0.000262 0.015544 0.000000 0.000000 0.000000
# 4 0.000000 0.000000 0.000000-19.949178 0.000000 0.000000
# 5 0.000000 0.000000 0.000000 0.000000 0.046152 0.000000
# 6 0.000000 0.000000 0.000000 0.000000 0.000000 -0.098579
#
#
# Mechanical properties :
#
#
# Convention : Reuss Voigt Hill
#
# Bulk Modulus (GPa) = 33.06785 34.52272 33.79528
# Shear Modulus (GPa) = -0.25068 17.07146 8.41039
#
# Velocity S-wave (km/s) = -0.34584 2.85397 2.00319
# Velocity P-wave (km/s) = 3.95195 5.22797 4.63409
#
# Compressibility (1/GPa) = 0.03024086
#
# Stress axis : x y z
#
# Youngs Moduli (GPa) = 91.28482 87.63465 64.33472
#
# Poissons Ratio (x) = 0.15482 0.11619
# Poissons Ratio (y) = 0.16127 0.01683
# Poissons Ratio (z) = 0.16486 0.02293
#
# Static dielectric constant tensor:
#      x y z
#    x 1.816900 0.000000 0.000000 
#    y 0.000000 1.746700 0.000000 
#    z 0.000000 0.000000 1.754600 
# 
# From -- ./inp_files/23243.got.cif
#   From: 2010.05.17/outbox.cif.g08.bks.cpg/sg62_12_cif.got.tgz:23243.got - 2010.06.03 15:25:27.
