data_PCOD9465538
_publ_section_title
;
Structure prediction by ZEFSAII (Michael W. Deem and Ramdas Pophale) SiO2 
 PCOD9465538
Probable space group: P N M A
;
_chemical_formula_sum "Si O2"
_cell_formula_units_Z 56
_cell_length_a 8.725540
_cell_length_b 20.691255
_cell_length_c 15.497803
_cell_angle_alpha 90.000000
_cell_angle_beta 90.000000
_cell_angle_gamma 90.000000
_cell_volume 2798.010132
_symmetry_space_group_name_H-M "P N M A"
_symmetry_group_IT_number 62
_symmetry_cell_setting 'orthorhombic'
loop_
_space_group_symop_operation_xyz
x,y,z
1/2-x,-y,1/2+z
1/2+x,1/2-y,1/2-z
-x,1/2+y,-z
-x,-y,-z
1/2+x,y,1/2-z
1/2-x,1/2+y,1/2+z
x,1/2-y,z
loop_
_atom_site_type_symbol
_atom_site_label
_atom_site_fract_x
_atom_site_fract_y
_atom_site_fract_z
Si Si1 0.344396 0.903001 0.218055
Si Si2 0.377988 0.326191 0.847329
Si Si3 0.694497 0.401489 0.164293
Si Si4 0.319401 0.676413 0.515813
Si Si5 0.094998 0.504530 0.204587
Si Si6 0.880782 0.174103 0.311719
Si Si7 0.960366 0.434241 0.050278
O O1 0.457488 0.859710 0.161938
O O2 0.236106 0.859674 0.278648
O O3 0.454574 0.948208 0.275725
O O4 0.232679 0.952018 0.167999
O O5 0.389527 0.250000 0.829670
O O6 0.304861 0.335283 0.941263
O O7 0.651662 0.469848 0.208453
O O8 0.538493 0.360370 0.159814
O O9 0.806101 0.362503 0.230144
O O10 0.787015 0.416733 0.076717
O O11 0.375414 0.750000 0.506578
O O12 0.237169 0.670553 0.608373
O O13 0.455888 0.625809 0.506857
O O14 0.042890 0.448468 0.141567
O O15 0.907746 0.250000 0.291805
O O16 0.000000 0.500000 0.000000
#
# Coordination Sequence:
#
# PCOD9465538 Si02
#       7
#     8   8   8   8   8   8   8
#     4  10  21  35  64  85 118 159 204 255 314 365
#     4  10  21  40  62  89 120 160 211 259 311 378
#     4  12  22  40  62  91 128 162 211 259 301 374
#     4  10  23  42  61  88 131 168 205 264 322 371
#     4  11  20  38  57  89 120 155 200 251 303 363
#     4  11  22  39  65  94 125 172 213 255 316 378
#     4  12  25  40  63  94 128 165 211 256 320 378
#
# _framework density 20.014223000000001
#
# number of rings (size 3 to 8) (size 9 to 14) (size 15 to 20)
#    0.000    1.143    4.286    1.714    2.000    3.429 
#    0.000    1.429    0.000    7.714    0.000    0.000 
#    0.000    0.000    0.000    0.000    0.000    0.000 
#
# Total GULP energy -312819.059650 kJ/mol
# GULP energy per Si atom -5586.054637 kJ/mol
# Density = 1.996867 g / cm^3
# Si number density = 20.014223 Si / 1000 Ang^3
#
#
#
# Elastic Constant Matrix: (Units=GPa)
#
#
# Indices 1 2 3 4 5 6 
#
# 1 65.0316 20.6993 -21.4763 0.0000 0.0000 0.0000
# 2 20.6993 71.9427 -3.3655 0.0000 0.0000 0.0000
# 3 -21.4763 -3.3655 14.2618 0.0000 0.0000 0.0000
# 4 0.0000 0.0000 0.0000 32.2965 0.0000 0.0000
# 5 0.0000 0.0000 0.0000 0.0000 18.5233 0.0000
# 6 0.0000 0.0000 0.0000 0.0000 0.0000 48.1141
#
#
#
# Elastic Compliance Matrix: (Units=1/GPa)
#
#
# Indices 1 2 3 4 5 6 
#
# 1 0.034180 -0.007509 0.049698 0.000000 0.000000 0.000000
# 2 -0.007509 0.015705 -0.007602 0.000000 0.000000 0.000000
# 3 0.049698 -0.007602 0.143162 0.000000 0.000000 0.000000
# 4 0.000000 0.000000 0.000000 0.030963 0.000000 0.000000
# 5 0.000000 0.000000 0.000000 0.000000 0.053986 0.000000
# 6 0.000000 0.000000 0.000000 0.000000 0.000000 0.020784
#
#
# Mechanical properties :
#
#
# Convention : Reuss Voigt Hill
#
# Bulk Modulus (GPa) = 3.81358 15.88345 9.84852
# Shear Modulus (GPa) = 15.77222 30.14535 22.95879
#
# Velocity S-wave (km/s) = 2.81027 3.88518 3.39060
# Velocity P-wave (km/s) = 3.52700 5.29901 4.50107
#
# Compressibility (1/GPa) = 0.26222057
#
# Stress axis : x y z
#
# Youngs Moduli (GPa) = 29.25708 63.67444 6.98509
#
# Poissons Ratio (x) = 0.47815 -0.34714
# Poissons Ratio (y) = 0.21970 0.05310
# Poissons Ratio (z) = -1.45402 0.48404
#
# Static dielectric constant tensor:
#      x y z
#    x 1.714240 0.000000 0.000000 
#    y 0.000000 1.697650 0.000000 
#    z 0.000000 0.000000 1.724710 
# 
# From -- ./inp_files/17185.got.cif
#   From: 2010.05.17/outbox.cif.g08.bks.cpg/sg62_9_cif.got.tgz:17185.got - 2010.06.03 15:25:27.
