data_PCOD9465555
_publ_section_title
;
Structure prediction by ZEFSAII (Michael W. Deem and Ramdas Pophale) SiO2 
 PCOD9465555
Probable space group: P N M A
;
_chemical_formula_sum "Si O2"
_cell_formula_units_Z 32
_cell_length_a 32.874236
_cell_length_b 5.332748
_cell_length_c 7.603926
_cell_angle_alpha 90.000000
_cell_angle_beta 90.000000
_cell_angle_gamma 90.000000
_cell_volume 1333.044391
_symmetry_space_group_name_H-M "P N M A"
_symmetry_group_IT_number 62
_symmetry_cell_setting 'orthorhombic'
loop_
_space_group_symop_operation_xyz
x,y,z
1/2-x,-y,1/2+z
1/2+x,1/2-y,1/2-z
-x,1/2+y,-z
-x,-y,-z
1/2+x,y,1/2-z
1/2-x,1/2+y,1/2+z
x,1/2-y,z
loop_
_atom_site_type_symbol
_atom_site_label
_atom_site_fract_x
_atom_site_fract_y
_atom_site_fract_z
Si Si1 0.877949 0.250000 0.734988
Si Si2 0.254874 0.750000 0.771293
Si Si3 0.503897 0.750000 0.734362
Si Si4 0.628561 0.250000 0.764163
Si Si5 0.169959 0.750000 0.635943
Si Si6 0.793928 0.250000 0.862138
Si Si7 0.579940 0.250000 0.133529
Si Si8 0.954694 0.750000 0.133018
O O1 0.852247 0.250000 0.552192
O O2 0.842708 0.250000 0.880147
O O3 0.905434 0.497278 0.730591
O O4 0.218371 0.750000 0.629987
O O5 0.281344 0.502639 0.740210
O O6 0.231590 0.750000 0.957218
O O7 0.468715 0.750000 0.878954
O O8 0.531213 0.502724 0.730862
O O9 0.477871 0.750000 0.552803
O O10 0.655707 0.497309 0.767517
O O11 0.593815 0.250000 0.618140
O O12 0.602537 0.250000 0.945984
#
# Coordination Sequence:
#
# PCOD9465555 Si02
#       8
#     4   4   4   4   4   4   4   4
#     4  10  21  38  58  84 117 151 191 240 293 349
#     4  12  25  42  65  93 124 162 205 250 303 361
#     4  10  21  36  54  78 109 145 185 232 285 341
#     4  10  21  36  57  83 112 148 189 236 289 345
#     4  10  21  38  58  84 117 151 191 240 293 349
#     4  12  25  42  65  93 124 162 205 250 303 361
#     4  10  21  36  57  83 112 148 189 236 289 345
#     4  10  21  36  54  78 109 145 185 232 285 341
#
# _framework density 24.005201
#
# number of rings (size 3 to 8) (size 9 to 14) (size 15 to 20)
#    0.000    1.500    0.000    5.250    0.000    5.000 
#    0.000    0.000    0.000    0.000    0.000    0.000 
#    0.000    0.000    0.000    0.000    0.000    0.000 
#
# Total GULP energy -179319.070910 kJ/mol
# GULP energy per Si atom -5603.720966 kJ/mol
# Density = 2.395056 g / cm^3
# Si number density = 24.005201 Si / 1000 Ang^3
#
#
#
# Elastic Constant Matrix: (Units=GPa)
#
#
# Indices 1 2 3 4 5 6 
#
# 1 62.2489 33.1712 -23.5368 0.0000 0.0000 0.0000
# 2 33.1712 205.0852 21.6008 0.0000 0.0000 0.0000
# 3 -23.5368 21.6008 65.2562 0.0000 0.0000 0.0000
# 4 0.0000 0.0000 0.0000 12.1455 0.0000 0.0000
# 5 0.0000 0.0000 0.0000 0.0000 35.9400 0.0000
# 6 0.0000 0.0000 0.0000 0.0000 0.0000 49.3767
#
#
#
# Elastic Compliance Matrix: (Units=1/GPa)
#
#
# Indices 1 2 3 4 5 6 
#
# 1 0.022084 -0.004570 0.009478 0.000000 0.000000 0.000000
# 2 -0.004570 0.005998 -0.003634 0.000000 0.000000 0.000000
# 3 0.009478 -0.003634 0.019946 0.000000 0.000000 0.000000
# 4 0.000000 0.000000 0.000000 0.082335 0.000000 0.000000
# 5 0.000000 0.000000 0.000000 0.000000 0.027824 0.000000
# 6 0.000000 0.000000 0.000000 0.000000 0.000000 0.020252
#
#
# Mechanical properties :
#
#
# Convention : Reuss Voigt Hill
#
# Bulk Modulus (GPa) = 19.77254 43.89564 31.83409
# Shear Modulus (GPa) = 25.94050 39.58280 32.76165
#
# Velocity S-wave (km/s) = 3.29084 4.06510 3.69829
# Velocity P-wave (km/s) = 4.76384 6.35287 5.61485
#
# Compressibility (1/GPa) = 0.05057518
#
# Stress axis : x y z
#
# Youngs Moduli (GPa) = 45.28248 166.72364 50.13640
#
# Poissons Ratio (x) = 0.76195 -0.47519
# Poissons Ratio (y) = 0.20695 0.18219
# Poissons Ratio (z) = -0.42919 0.60584
#
# Static dielectric constant tensor:
#      x y z
#    x 1.843300 0.000000 0.000000 
#    y 0.000000 1.835590 0.000000 
#    z 0.000000 0.000000 1.984870 
# 
# From -- ./inp_files/9639.got.cif
#   From: 2010.05.17/outbox.cif.g08.bks.cpg/sg62_5_cif.got.tgz:9639.got - 2010.06.03 15:25:27.
