data_PCOD9465240
_publ_section_title
;
Structure prediction by ZEFSAII (Michael W. Deem and Ramdas Pophale) SiO2 
 PCOD9465240
Probable space group: P N M A
;
_chemical_formula_sum "Si O2"
_cell_formula_units_Z 64
_cell_length_a 11.709927
_cell_length_b 14.712063
_cell_length_c 16.762004
_cell_angle_alpha 90.000000
_cell_angle_beta 90.000000
_cell_angle_gamma 90.000000
_cell_volume 2887.710843
_symmetry_space_group_name_H-M "P N M A"
_symmetry_group_IT_number 62
_symmetry_cell_setting 'orthorhombic'
loop_
_space_group_symop_operation_xyz
x,y,z
1/2-x,-y,1/2+z
1/2+x,1/2-y,1/2-z
-x,1/2+y,-z
-x,-y,-z
1/2+x,y,1/2-z
1/2-x,1/2+y,1/2+z
x,1/2-y,z
loop_
_atom_site_type_symbol
_atom_site_label
_atom_site_fract_x
_atom_site_fract_y
_atom_site_fract_z
Si Si1 0.925024 0.116967 0.428956
Si Si2 0.238990 0.603230 0.988883
Si Si3 0.307462 0.581662 0.409553
Si Si4 0.129171 0.940447 0.282773
Si Si5 0.666887 0.154398 0.425946
Si Si6 0.432912 0.042316 0.609051
Si Si7 0.043346 0.099117 0.586802
Si Si8 0.648804 0.152609 0.168463
O O1 0.799977 0.145439 0.401911
O O2 0.954884 0.138127 0.521207
O O3 0.025731 0.154922 0.374526
O O4 0.940263 0.008970 0.422533
O O5 0.118440 0.597675 0.033855
O O6 0.333831 0.633108 0.054085
O O7 0.257197 0.498849 0.958772
O O8 0.259903 0.651249 0.904702
O O9 0.233347 0.601778 0.332402
O O10 0.328210 0.654130 0.477878
O O11 0.431845 0.547038 0.385059
O O12 0.123212 0.921482 0.189819
O O13 0.146798 0.051864 0.290997
O O14 0.016200 0.899575 0.326804
O O15 0.617544 0.250000 0.397705
O O16 0.602979 0.062857 0.401288
O O17 0.664733 0.250000 0.212087
#
# Coordination Sequence:
#
# PCOD9465240 Si02
#       8
#     8   8   8   8   8   8   8   8
#     4   9  14  27  51  81 105 134 177 231 263 309
#     4   9  17  33  56  76 105 145 188 231 258 314
#     4  10  20  39  54  78 109 145 197 230 268 330
#     4  10  21  33  56  80 109 149 180 232 280 332
#     4  11  20  34  56  81 112 146 189 234 280 331
#     4  11  23  35  54  83 113 145 188 232 283 344
#     4   9  14  29  54  79 104 133 183 228 266 310
#     4   9  18  31  52  83 115 143 178 222 278 331
#
# _framework density 22.162883999999998
#
# number of rings (size 3 to 8) (size 9 to 14) (size 15 to 20)
#    0.000    2.250    3.750    3.375    1.750    0.500 
#    0.000    5.625    0.000    1.500    0.000    0.000 
#    0.000    0.000    0.000    0.000    0.000    0.000 
#
# Total GULP energy -356453.883367 kJ/mol
# GULP energy per Si atom -5569.591928 kJ/mol
# Density = 2.211244 g / cm^3
# Si number density = 22.162884 Si / 1000 Ang^3
#
#
#
# Elastic Constant Matrix: (Units=GPa)
#
#
# Indices 1 2 3 4 5 6 
#
# 1 89.7316 -4.9004 17.1025 0.0000 0.0000 0.0000
# 2 -4.9004 34.8231 -9.3163 0.0000 0.0000 0.0000
# 3 17.1025 -9.3163 84.8446 0.0000 0.0000 0.0000
# 4 0.0000 0.0000 0.0000 -3.0482 0.0000 0.0000
# 5 0.0000 0.0000 0.0000 0.0000 15.6566 0.0000
# 6 0.0000 0.0000 0.0000 0.0000 0.0000 -14.2856
#
#
#
# Elastic Compliance Matrix: (Units=1/GPa)
#
#
# Indices 1 2 3 4 5 6 
#
# 1 0.011626 0.001040 -0.002229 0.000000 0.000000 0.000000
# 2 0.001040 0.029679 0.003049 0.000000 0.000000 0.000000
# 3 -0.002229 0.003049 0.012570 0.000000 0.000000 0.000000
# 4 0.000000 0.000000 0.000000 -0.328064 0.000000 0.000000
# 5 0.000000 0.000000 0.000000 0.000000 0.063871 0.000000
# 6 0.000000 0.000000 0.000000 0.000000 0.000000 -0.070000
#
#
# Mechanical properties :
#
#
# Convention : Reuss Voigt Hill
#
# Bulk Modulus (GPa) = 17.36286 23.90789 20.63538
# Shear Modulus (GPa) = -18.87938 13.43210 -2.72364
#
# Velocity S-wave (km/s) = -2.92181 2.46451 -1.10977
# Velocity P-wave (km/s) = 1.87920 4.34847 2.77288
#
# Compressibility (1/GPa) = 0.05759420
#
# Stress axis : x y z
#
# Youngs Moduli (GPa) = 86.01387 33.69423 79.55157
#
# Poissons Ratio (x) = -0.03503 0.17735
# Poissons Ratio (y) = -0.08942 -0.24257
# Poissons Ratio (z) = 0.19176 -0.10274
#
# Static dielectric constant tensor:
#      x y z
#    x 1.834670 0.000000 0.000000 
#    y 0.000000 1.836510 0.000000 
#    z 0.000000 0.000000 1.820620 
# 
# From -- ./inp_files/23303.got.cif
#   From: 2010.05.17/outbox.cif.g08.bks.cpg/sg62_12_cif.got.tgz:23303.got - 2010.06.03 15:25:27.
