data_PCOD9465276
_publ_section_title
;
Structure prediction by ZEFSAII (Michael W. Deem and Ramdas Pophale) SiO2 
 PCOD9465276
Probable space group: P N M A
;
_chemical_formula_sum "Si O2"
_cell_formula_units_Z 36
_cell_length_a 7.998390
_cell_length_b 19.940788
_cell_length_c 8.901657
_cell_angle_alpha 90.000000
_cell_angle_beta 90.000000
_cell_angle_gamma 90.000000
_cell_volume 1419.762656
_symmetry_space_group_name_H-M "P N M A"
_symmetry_group_IT_number 62
_symmetry_cell_setting 'orthorhombic'
loop_
_space_group_symop_operation_xyz
x,y,z
1/2-x,-y,1/2+z
1/2+x,1/2-y,1/2-z
-x,1/2+y,-z
-x,-y,-z
1/2+x,y,1/2-z
1/2-x,1/2+y,1/2+z
x,1/2-y,z
loop_
_atom_site_type_symbol
_atom_site_label
_atom_site_fract_x
_atom_site_fract_y
_atom_site_fract_z
Si Si1 0.094475 0.387588 0.215071
Si Si2 0.218524 0.750000 0.257247
Si Si3 0.482668 0.042964 0.700357
Si Si4 0.701144 0.638993 0.507146
Si Si5 0.302442 0.114361 0.941257
O O1 0.035103 0.464535 0.221840
O O2 0.144619 0.361993 0.378808
O O3 0.962290 0.347823 0.111968
O O4 0.266772 0.387925 0.117256
O O5 0.214012 0.809843 0.383288
O O6 0.218250 0.807521 0.124289
O O7 0.345130 0.070131 0.580319
O O8 0.459585 0.081477 0.858007
O O9 0.653749 0.068393 0.628008
#
# Coordination Sequence:
#
# PCOD9465276 Si02
#       5
#     8   4   8   8   8
#     4  11  21  39  64  94 120 159 202 255 316 358
#     4  10  24  44  56  82 118 162 206 240 300 358
#     4  10  20  39  62  94 124 156 201 255 312 365
#     4  10  23  39  61  87 126 157 197 256 299 365
#     4  10  22  38  64  85 122 166 202 252 300 370
#
# _framework density 25.356352999999999
#
# number of rings (size 3 to 8) (size 9 to 14) (size 15 to 20)
#    0.000    1.778    0.000    5.333    0.000   13.333 
#    0.000    7.778    0.000    0.000    0.000    0.000 
#    0.000    0.000    0.000    0.000    0.000    0.000 
#
# Total GULP energy -200589.946959 kJ/mol
# GULP energy per Si atom -5571.942971 kJ/mol
# Density = 2.529864 g / cm^3
# Si number density = 25.356353 Si / 1000 Ang^3
#
#
#
# Elastic Constant Matrix: (Units=GPa)
#
#
# Indices 1 2 3 4 5 6 
#
# 1 55.4017 1.6497 -0.2279 0.0000 0.0000 0.0000
# 2 1.6497 149.7770 35.7288 0.0000 0.0000 0.0000
# 3 -0.2279 35.7288 145.2064 0.0000 0.0000 0.0000
# 4 0.0000 0.0000 0.0000 13.3626 0.0000 0.0000
# 5 0.0000 0.0000 0.0000 0.0000 17.6636 0.0000
# 6 0.0000 0.0000 0.0000 0.0000 0.0000 -62.2410
#
#
#
# Elastic Compliance Matrix: (Units=1/GPa)
#
#
# Indices 1 2 3 4 5 6 
#
# 1 0.018057 -0.000218 0.000082 0.000000 0.000000 0.000000
# 2 -0.000218 0.007096 -0.001746 0.000000 0.000000 0.000000
# 3 0.000082 -0.001746 0.007317 0.000000 0.000000 0.000000
# 4 0.000000 0.000000 0.000000 0.074836 0.000000 0.000000
# 5 0.000000 0.000000 0.000000 0.000000 0.056613 0.000000
# 6 0.000000 0.000000 0.000000 0.000000 0.000000 -0.016067
#
#
# Mechanical properties :
#
#
# Convention : Reuss Voigt Hill
#
# Bulk Modulus (GPa) = 34.83871 47.18736 41.01304
# Shear Modulus (GPa) = 31.02036 14.63936 22.82986
#
# Velocity S-wave (km/s) = 3.50147 2.40541 3.00386
# Velocity P-wave (km/s) = 5.48786 5.13466 5.31419
#
# Compressibility (1/GPa) = 0.02870370
#
# Stress axis : x y z
#
# Youngs Moduli (GPa) = 55.38073 140.93321 136.67644
#
# Poissons Ratio (x) = 0.03079 -0.01122
# Poissons Ratio (y) = 0.01210 0.23867
# Poissons Ratio (z) = -0.00455 0.24610
#
# Static dielectric constant tensor:
#      x y z
#    x 2.213080 0.000000 0.000000 
#    y 0.000000 1.895200 0.000000 
#    z 0.000000 0.000000 2.002470 
# 
# From -- ./inp_files/5142.got.cif
#   From: 2010.05.17/outbox.cif.g08.bks.cpg/sg62_3_cif.got.tgz:5142.got - 2010.06.03 15:25:27.
