data_PCOD9465007
_publ_section_title
;
Structure prediction by ZEFSAII (Michael W. Deem and Ramdas Pophale) SiO2 
 PCOD9465007
Probable space group: P N M A
;
_chemical_formula_sum "Si O2"
_cell_formula_units_Z 64
_cell_length_a 34.811002
_cell_length_b 8.778242
_cell_length_c 11.049865
_cell_angle_alpha 90.000000
_cell_angle_beta 90.000000
_cell_angle_gamma 90.000000
_cell_volume 3376.611115
_symmetry_space_group_name_H-M "P N M A"
_symmetry_group_IT_number 62
_symmetry_cell_setting 'orthorhombic'
loop_
_space_group_symop_operation_xyz
x,y,z
1/2-x,-y,1/2+z
1/2+x,1/2-y,1/2-z
-x,1/2+y,-z
-x,-y,-z
1/2+x,y,1/2-z
1/2-x,1/2+y,1/2+z
x,1/2-y,z
loop_
_atom_site_type_symbol
_atom_site_label
_atom_site_fract_x
_atom_site_fract_y
_atom_site_fract_z
Si Si1 0.843669 0.573578 0.646869
Si Si2 0.282589 0.067664 0.186254
Si Si3 0.015004 0.430106 0.375992
Si Si4 0.737154 0.931416 0.086754
Si Si5 0.864523 0.571755 0.370191
Si Si6 0.414882 0.069802 0.739632
Si Si7 0.443781 0.926928 0.245791
Si Si8 0.041721 0.073726 0.018860
O O1 0.834003 0.750000 0.671315
O O2 0.805172 0.476507 0.634076
O O3 0.863680 0.565220 0.515285
O O4 0.873957 0.509050 0.741544
O O5 0.279899 0.250000 0.189751
O O6 0.265033 0.002244 0.311020
O O7 0.327012 0.016722 0.175218
O O8 0.262596 0.017857 0.056627
O O9 0.019953 0.250000 0.383737
O O10 0.054741 0.506702 0.337329
O O11 0.000000 0.500000 0.500000
O O12 0.981365 0.475125 0.282729
O O13 0.742378 0.750000 0.086490
O O14 0.860689 0.750000 0.334769
O O15 0.905468 0.517306 0.320611
O O16 0.411291 0.250000 0.750746
O O17 0.434000 0.021525 0.613849
O O18 0.451244 0.750000 0.208274
O O19 0.437920 0.926773 0.388989
O O20 0.037941 0.250000 0.059744
O O21 0.000000 0.000000 0.000000
#
# Coordination Sequence:
#
# PCOD9465007 Si02
#       8
#     8   8   8   8   8   8   8   8
#     4  10  20  37  62  89 118 152 193 241 295 350
#     4  10  21  38  62  92 123 159 199 242 294 357
#     4  12  24  37  57  83 113 147 189 240 293 347
#     4  10  21  39  63  91 124 160 199 244 297 358
#     4   9  19  37  61  87 116 151 188 236 293 348
#     4  12  24  39  58  82 115 153 198 243 290 348
#     4  10  21  38  59  83 113 149 193 239 291 351
#     4  11  22  38  59  81 112 156 199 243 293 350
#
# _framework density 18.953916
#
# number of rings (size 3 to 8) (size 9 to 14) (size 15 to 20)
#    0.000    1.500    1.250    4.500    0.000    4.000 
#    2.250    0.000    0.000    0.000    0.000    0.000 
#    0.000    0.000    0.000    0.000    0.000    0.000 
#
# Total GULP energy -357390.497001 kJ/mol
# GULP energy per Si atom -5584.226516 kJ/mol
# Density = 1.891078 g / cm^3
# Si number density = 18.953916 Si / 1000 Ang^3
#
#
#
# Elastic Constant Matrix: (Units=GPa)
#
#
# Indices 1 2 3 4 5 6 
#
# 1 38.6706 -0.5806 -5.8412 0.0000 0.0000 0.0000
# 2 -0.5806 58.5933 6.3479 0.0000 0.0000 0.0000
# 3 -5.8412 6.3479 34.0725 0.0000 0.0000 0.0000
# 4 0.0000 0.0000 0.0000 30.0249 0.0000 0.0000
# 5 0.0000 0.0000 0.0000 0.0000 39.0000 0.0000
# 6 0.0000 0.0000 0.0000 0.0000 0.0000 30.0449
#
#
#
# Elastic Compliance Matrix: (Units=1/GPa)
#
#
# Indices 1 2 3 4 5 6 
#
# 1 0.026550 -0.000235 0.004595 0.000000 0.000000 0.000000
# 2 -0.000235 0.017420 -0.003286 0.000000 0.000000 0.000000
# 3 0.004595 -0.003286 0.030749 0.000000 0.000000 0.000000
# 4 0.000000 0.000000 0.000000 0.033306 0.000000 0.000000
# 5 0.000000 0.000000 0.000000 0.000000 0.025641 0.000000
# 6 0.000000 0.000000 0.000000 0.000000 0.000000 0.033284
#
#
# Mechanical properties :
#
#
# Convention : Reuss Voigt Hill
#
# Bulk Modulus (GPa) = 13.00911 14.57650 13.79280
# Shear Modulus (GPa) = 26.25730 28.57465 27.41597
#
# Velocity S-wave (km/s) = 3.72603 3.88698 3.80735
# Velocity P-wave (km/s) = 5.03880 5.27750 5.15953
#
# Compressibility (1/GPa) = 0.07686924
#
# Stress axis : x y z
#
# Youngs Moduli (GPa) = 37.66477 57.40377 32.52125
#
# Poissons Ratio (x) = 0.01348 -0.14945
# Poissons Ratio (y) = 0.00884 0.10686
# Poissons Ratio (z) = -0.17308 0.18862
#
# Static dielectric constant tensor:
#      x y z
#    x 1.624900 0.000000 0.000000 
#    y 0.000000 1.648140 0.000000 
#    z 0.000000 0.000000 1.649830 
# 
# From -- ./inp_files/15867.got.cif
#   From: 2010.05.17/outbox.cif.g08.bks.cpg/sg62_8_cif.got.tgz:15867.got - 2010.06.03 15:25:27.
