data_PCOD9465723
_publ_section_title
;
Structure prediction by ZEFSAII (Michael W. Deem and Ramdas Pophale) SiO2 
 PCOD9465723
Probable space group: P N M A
;
_chemical_formula_sum "Si O2"
_cell_formula_units_Z 56
_cell_length_a 15.006269
_cell_length_b 9.325243
_cell_length_c 20.432894
_cell_angle_alpha 90.000000
_cell_angle_beta 90.000000
_cell_angle_gamma 90.000000
_cell_volume 2859.320032
_symmetry_space_group_name_H-M "P N M A"
_symmetry_group_IT_number 62
_symmetry_cell_setting 'orthorhombic'
loop_
_space_group_symop_operation_xyz
x,y,z
1/2-x,-y,1/2+z
1/2+x,1/2-y,1/2-z
-x,1/2+y,-z
-x,-y,-z
1/2+x,y,1/2-z
1/2-x,1/2+y,1/2+z
x,1/2-y,z
loop_
_atom_site_type_symbol
_atom_site_label
_atom_site_fract_x
_atom_site_fract_y
_atom_site_fract_z
Si Si1 0.023671 0.916679 0.323065
Si Si2 0.691172 0.082178 0.814650
Si Si3 0.678891 0.080139 0.411957
Si Si4 0.772767 0.417881 0.036599
Si Si5 0.032420 0.414290 0.194712
Si Si6 0.066869 0.082506 0.452719
Si Si7 0.180645 0.917041 0.816880
O O1 0.046770 0.750000 0.330767
O O2 0.915613 0.929229 0.324730
O O3 0.054388 0.978651 0.253499
O O4 0.061545 0.011112 0.381629
O O5 0.714827 0.250000 0.816466
O O6 0.743414 0.996064 0.870194
O O7 0.711690 0.012160 0.744043
O O8 0.695201 0.250000 0.416388
O O9 0.589408 0.056676 0.369859
O O10 0.675714 0.010433 0.483374
O O11 0.798835 0.250000 0.032474
O O12 0.667705 0.428285 0.021706
O O13 0.786289 0.463289 0.111796
O O14 0.051897 0.250000 0.215493
O O15 0.926961 0.423509 0.181867
O O16 0.043180 0.250000 0.448932
O O17 0.000000 0.000000 0.500000
O O18 0.206715 0.750000 0.806457
#
# Coordination Sequence:
#
# PCOD9465723 Si02
#       7
#     8   8   8   8   8   8   8
#     4  10  21  37  58  85 114 147 189 236 289 343
#     4  10  21  37  58  85 117 150 189 238 286 339
#     4  11  23  37  57  85 116 151 193 235 283 344
#     4  10  23  40  58  83 115 151 191 238 290 342
#     4   9  20  38  59  84 113 148 191 235 283 342
#     4  11  23  38  57  83 117 153 192 238 287 346
#     4   9  19  39  62  83 112 151 191 236 291 344
#
# _framework density 19.585076000000001
#
# number of rings (size 3 to 8) (size 9 to 14) (size 15 to 20)
#    0.000    2.000    0.000    2.571    2.000    8.571 
#    0.000    0.000    0.000    0.000    0.000    0.000 
#    0.000    0.000    0.000    0.000    0.000    0.000 
#
# Total GULP energy -313005.654412 kJ/mol
# GULP energy per Si atom -5589.386686 kJ/mol
# Density = 1.954050 g / cm^3
# Si number density = 19.585076 Si / 1000 Ang^3
#
#
#
# Elastic Constant Matrix: (Units=GPa)
#
#
# Indices 1 2 3 4 5 6 
#
# 1 18.0320 18.1293 6.4375 0.0000 0.0000 0.0000
# 2 18.1293 77.3004 38.1811 0.0000 0.0000 0.0000
# 3 6.4375 38.1811 91.3663 0.0000 0.0000 0.0000
# 4 0.0000 0.0000 0.0000 43.0978 0.0000 0.0000
# 5 0.0000 0.0000 0.0000 0.0000 25.4155 0.0000
# 6 0.0000 0.0000 0.0000 0.0000 0.0000 19.6166
#
#
#
# Elastic Compliance Matrix: (Units=1/GPa)
#
#
# Indices 1 2 3 4 5 6 
#
# 1 0.073032 -0.018380 0.002535 0.000000 0.000000 0.000000
# 2 -0.018380 0.020927 -0.007450 0.000000 0.000000 0.000000
# 3 0.002535 -0.007450 0.013880 0.000000 0.000000 0.000000
# 4 0.000000 0.000000 0.000000 0.023203 0.000000 0.000000
# 5 0.000000 0.000000 0.000000 0.000000 0.039346 0.000000
# 6 0.000000 0.000000 0.000000 0.000000 0.000000 0.050977
#
#
# Mechanical properties :
#
#
# Convention : Reuss Voigt Hill
#
# Bulk Modulus (GPa) = 16.32710 34.68828 25.50769
# Shear Modulus (GPa) = 17.33876 25.88938 21.61407
#
# Velocity S-wave (km/s) = 2.97864 3.63973 3.32565
# Velocity P-wave (km/s) = 4.49269 5.95093 5.27247
#
# Compressibility (1/GPa) = 0.06124786
#
# Stress axis : x y z
#
# Youngs Moduli (GPa) = 13.69271 47.78466 72.04773
#
# Poissons Ratio (x) = 0.87830 -0.18267
# Poissons Ratio (y) = 0.25168 0.53677
# Poissons Ratio (z) = -0.03472 0.35601
#
# Static dielectric constant tensor:
#      x y z
#    x 1.695010 0.000000 0.000000 
#    y 0.000000 1.657510 0.000000 
#    z 0.000000 0.000000 1.665270 
# 
# From -- ./inp_files/27248.got.cif
#   From: 2010.05.17/outbox.cif.g08.bks.cpg/sg62_14_cif.got.tgz:27248.got - 2010.06.03 15:25:27.
