data_PCOD9465281
_publ_section_title
;
Structure prediction by ZEFSAII (Michael W. Deem and Ramdas Pophale) SiO2 
 PCOD9465281
Probable space group: P N M A
;
_chemical_formula_sum "Si O2"
_cell_formula_units_Z 56
_cell_length_a 21.607721
_cell_length_b 8.429443
_cell_length_c 15.046177
_cell_angle_alpha 90.000000
_cell_angle_beta 90.000000
_cell_angle_gamma 90.000000
_cell_volume 2740.526515
_symmetry_space_group_name_H-M "P N M A"
_symmetry_group_IT_number 62
_symmetry_cell_setting 'orthorhombic'
loop_
_space_group_symop_operation_xyz
x,y,z
1/2-x,-y,1/2+z
1/2+x,1/2-y,1/2-z
-x,1/2+y,-z
-x,-y,-z
1/2+x,y,1/2-z
1/2-x,1/2+y,1/2+z
x,1/2-y,z
loop_
_atom_site_type_symbol
_atom_site_label
_atom_site_fract_x
_atom_site_fract_y
_atom_site_fract_z
Si Si1 0.471331 0.065129 0.252678
Si Si2 0.149493 0.567271 0.439795
Si Si3 0.346705 0.937981 0.324858
Si Si4 0.100908 0.938221 0.250829
Si Si5 0.445474 0.935426 0.061581
Si Si6 0.772902 0.066397 0.016276
Si Si7 0.737886 0.556612 0.312322
O O1 0.470575 0.250000 0.229768
O O2 0.412337 0.023400 0.312561
O O3 0.539923 0.021276 0.287078
O O4 0.460552 0.963844 0.163549
O O5 0.170447 0.750000 0.433298
O O6 0.103605 0.539265 0.357514
O O7 0.114329 0.532522 0.530704
O O8 0.207740 0.453794 0.433942
O O9 0.354993 0.750000 0.311344
O O10 0.294652 0.993957 0.251918
O O11 0.320603 0.971416 0.423092
O O12 0.095974 0.750000 0.233166
O O13 0.169090 0.991211 0.219690
O O14 0.435145 0.750000 0.044523
O O15 0.500000 0.000000 0.000000
O O16 0.791764 0.250000 0.011796
O O17 0.759757 0.008919 0.915821
O O18 0.739713 0.750000 0.309054
#
# Coordination Sequence:
#
# PCOD9465281 Si02
#       7
#     8   8   8   8   8   8   8
#     4  12  25  40  59  90 126 162 207 259 315 377
#     4  11  21  36  60  87 120 161 206 253 308 373
#     4  11  22  42  66  91 126 169 210 256 316 379
#     4  10  20  39  63  86 117 162 208 252 306 370
#     4  12  23  36  55  84 121 161 200 246 308 376
#     4  11  22  38  63  94 125 159 207 265 316 370
#     4   9  20  40  65  90 120 162 209 255 309 370
#
# _framework density 20.43403
#
# number of rings (size 3 to 8) (size 9 to 14) (size 15 to 20)
#    0.000    1.143    2.857    4.714    0.000    1.714 
#    0.000    4.286    0.000    0.000    0.000    0.000 
#    0.000    0.000    0.000    0.000    0.000    0.000 
#
# Total GULP energy -312743.291593 kJ/mol
# GULP energy per Si atom -5584.701636 kJ/mol
# Density = 2.038752 g / cm^3
# Si number density = 20.434030 Si / 1000 Ang^3
#
#
#
# Elastic Constant Matrix: (Units=GPa)
#
#
# Indices 1 2 3 4 5 6 
#
# 1 108.4425 14.8500 12.1326 0.0000 0.0000 0.0000
# 2 14.8500 37.9179 13.2505 0.0000 0.0000 0.0000
# 3 12.1326 13.2505 49.3015 0.0000 0.0000 0.0000
# 4 0.0000 0.0000 0.0000 23.9899 0.0000 0.0000
# 5 0.0000 0.0000 0.0000 0.0000 30.4599 0.0000
# 6 0.0000 0.0000 0.0000 0.0000 0.0000 27.7694
#
#
#
# Elastic Compliance Matrix: (Units=1/GPa)
#
#
# Indices 1 2 3 4 5 6 
#
# 1 0.009848 -0.003322 -0.001531 0.000000 0.000000 0.000000
# 2 -0.003322 0.030227 -0.007306 0.000000 0.000000 0.000000
# 3 -0.001531 -0.007306 0.022624 0.000000 0.000000 0.000000
# 4 0.000000 0.000000 0.000000 0.041684 0.000000 0.000000
# 5 0.000000 0.000000 0.000000 0.000000 0.032830 0.000000
# 6 0.000000 0.000000 0.000000 0.000000 0.000000 0.036011
#
#
# Mechanical properties :
#
#
# Convention : Reuss Voigt Hill
#
# Bulk Modulus (GPa) = 26.05487 30.68090 28.36788
# Shear Modulus (GPa) = 23.77164 26.80577 25.28870
#
# Velocity S-wave (km/s) = 3.41447 3.62583 3.52174
# Velocity P-wave (km/s) = 5.32196 5.70755 5.51812
#
# Compressibility (1/GPa) = 0.03838055
#
# Stress axis : x y z
#
# Youngs Moduli (GPa) = 101.54755 33.08304 44.20132
#
# Poissons Ratio (x) = 0.10989 0.06766
# Poissons Ratio (y) = 0.33732 0.32296
# Poissons Ratio (z) = 0.15543 0.24172
#
# Static dielectric constant tensor:
#      x y z
#    x 1.761190 0.000000 0.000000 
#    y 0.000000 2.547170 0.000000 
#    z 0.000000 0.000000 1.737830 
# 
# From -- ./inp_files/20346.got.cif
#   From: 2010.05.17/outbox.cif.g08.bks.cpg/sg62_11_cif.got.tgz:20346.got - 2010.06.03 15:25:27.
