data_PCOD9465200
_publ_section_title
;
Structure prediction by ZEFSAII (Michael W. Deem and Ramdas Pophale) SiO2 
 PCOD9465200
Probable space group: P N M A
;
_chemical_formula_sum "Si O2"
_cell_formula_units_Z 64
_cell_length_a 22.538616
_cell_length_b 11.935719
_cell_length_c 11.447765
_cell_angle_alpha 90.000000
_cell_angle_beta 90.000000
_cell_angle_gamma 90.000000
_cell_volume 3079.615776
_symmetry_space_group_name_H-M "P N M A"
_symmetry_group_IT_number 62
_symmetry_cell_setting 'orthorhombic'
loop_
_space_group_symop_operation_xyz
x,y,z
1/2-x,-y,1/2+z
1/2+x,1/2-y,1/2-z
-x,1/2+y,-z
-x,-y,-z
1/2+x,y,1/2-z
1/2-x,1/2+y,1/2+z
x,1/2-y,z
loop_
_atom_site_type_symbol
_atom_site_label
_atom_site_fract_x
_atom_site_fract_y
_atom_site_fract_z
Si Si1 0.745934 0.131462 0.893423
Si Si2 0.843049 0.876149 0.005283
Si Si3 0.410532 0.376413 0.909321
Si Si4 0.287251 0.425374 0.362915
Si Si5 0.828125 0.992130 0.755173
Si Si6 0.982264 0.878388 0.055892
Si Si7 0.465893 0.877442 0.179343
Si Si8 0.357430 0.454819 0.144460
O O1 0.715526 0.250000 0.875520
O O2 0.783406 0.133514 0.012803
O O3 0.792203 0.103309 0.792304
O O4 0.698483 0.031418 0.895070
O O5 0.820002 0.750000 0.998446
O O6 0.911069 0.874833 0.045577
O O7 0.805917 0.949177 0.097093
O O8 0.842956 0.931367 0.876617
O O9 0.402754 0.250000 0.862460
O O10 0.381141 0.470350 0.827198
O O11 0.481235 0.395755 0.912639
O O12 0.379156 0.383510 0.034939
O O13 0.221080 0.419657 0.312078
O O14 0.333432 0.393716 0.261245
O O15 0.002444 0.750000 0.015168
O O16 0.996414 0.885318 0.193152
O O17 0.000000 0.000000 0.000000
O O18 0.443527 0.750000 0.166641
O O19 0.412450 0.964084 0.173007
#
# Coordination Sequence:
#
# PCOD9465200 Si02
#       8
#     8   8   8   8   8   8   8   8
#     4  10  21  37  60  86 115 155 201 250 303 357
#     4  10  21  38  64  90 119 158 205 256 310 373
#     4  11  23  39  59  88 124 164 203 249 311 370
#     4  10  21  38  57  86 119 150 199 248 303 361
#     4  10  21  39  56  89 121 153 197 251 306 365
#     4  10  20  38  64  94 123 162 210 261 318 376
#     4  10  21  38  63  88 119 161 206 255 306 370
#     4  11  21  39  61  86 121 160 205 250 296 369
#
# _framework density 20.781813
#
# number of rings (size 3 to 8) (size 9 to 14) (size 15 to 20)
#    0.000    1.750    2.500    1.875    0.000    3.500 
#    0.000    3.125    0.000    4.500    0.000    0.000 
#    0.000    0.000    0.000    0.000    0.000    0.000 
#
# Total GULP energy -356770.130047 kJ/mol
# GULP energy per Si atom -5574.533282 kJ/mol
# Density = 2.073451 g / cm^3
# Si number density = 20.781813 Si / 1000 Ang^3
#
#
#
# Elastic Constant Matrix: (Units=GPa)
#
#
# Indices 1 2 3 4 5 6 
#
# 1 53.2929 13.0556 -3.9194 0.0000 0.0000 0.0000
# 2 13.0556 84.8439 5.8107 0.0000 0.0000 0.0000
# 3 -3.9194 5.8107 62.1761 0.0000 0.0000 0.0000
# 4 0.0000 0.0000 0.0000 11.4643 0.0000 0.0000
# 5 0.0000 0.0000 0.0000 0.0000 35.4650 0.0000
# 6 0.0000 0.0000 0.0000 0.0000 0.0000 29.6893
#
#
#
# Elastic Compliance Matrix: (Units=1/GPa)
#
#
# Indices 1 2 3 4 5 6 
#
# 1 0.019643 -0.003127 0.001530 0.000000 0.000000 0.000000
# 2 -0.003127 0.012360 -0.001352 0.000000 0.000000 0.000000
# 3 0.001530 -0.001352 0.016306 0.000000 0.000000 0.000000
# 4 0.000000 0.000000 0.000000 0.087227 0.000000 0.000000
# 5 0.000000 0.000000 0.000000 0.000000 0.028197 0.000000
# 6 0.000000 0.000000 0.000000 0.000000 0.000000 0.033682
#
#
# Mechanical properties :
#
#
# Convention : Reuss Voigt Hill
#
# Bulk Modulus (GPa) = 23.57882 25.57853 24.57868
# Shear Modulus (GPa) = 22.99370 27.68146 25.33758
#
# Velocity S-wave (km/s) = 3.32992 3.65362 3.49552
# Velocity P-wave (km/s) = 5.11420 5.48940 5.30511
#
# Compressibility (1/GPa) = 0.04241094
#
# Stress axis : x y z
#
# Youngs Moduli (GPa) = 50.90887 80.90479 61.32637
#
# Poissons Ratio (x) = 0.25302 -0.09386
# Poissons Ratio (y) = 0.15921 0.08293
# Poissons Ratio (z) = -0.07792 0.10940
#
# Static dielectric constant tensor:
#      x y z
#    x 1.722610 0.000000 0.000000 
#    y 0.000000 1.783440 0.000000 
#    z 0.000000 0.000000 1.765630 
# 
# From -- ./inp_files/15331.got.cif
#   From: 2010.05.17/outbox.cif.g08.bks.cpg/sg62_8_cif.got.tgz:15331.got - 2010.06.03 15:25:27.
