data_PCOD9465831
_publ_section_title
;
Structure prediction by ZEFSAII (Michael W. Deem and Ramdas Pophale) SiO2 
 PCOD9465831
Probable space group: P N M A
;
_chemical_formula_sum "Si O2"
_cell_formula_units_Z 48
_cell_length_a 22.220244
_cell_length_b 7.544502
_cell_length_c 12.782802
_cell_angle_alpha 90.000000
_cell_angle_beta 90.000000
_cell_angle_gamma 90.000000
_cell_volume 2142.917559
_symmetry_space_group_name_H-M "P N M A"
_symmetry_group_IT_number 62
_symmetry_cell_setting 'orthorhombic'
loop_
_space_group_symop_operation_xyz
x,y,z
1/2-x,-y,1/2+z
1/2+x,1/2-y,1/2-z
-x,1/2+y,-z
-x,-y,-z
1/2+x,y,1/2-z
1/2-x,1/2+y,1/2+z
x,1/2-y,z
loop_
_atom_site_type_symbol
_atom_site_label
_atom_site_fract_x
_atom_site_fract_y
_atom_site_fract_z
Si Si1 0.325541 0.036191 0.131411
Si Si2 0.692775 0.960196 0.427216
Si Si3 0.996618 0.460756 0.123056
Si Si4 0.888592 0.452651 0.745180
Si Si5 0.429979 0.036807 0.979123
Si Si6 0.139022 0.533391 0.854374
O O1 0.327868 0.250000 0.133301
O O2 0.325595 0.974572 0.251596
O O3 0.263924 0.984435 0.075731
O O4 0.384717 0.973799 0.069616
O O5 0.679308 0.750000 0.426470
O O6 0.661541 0.034751 0.322050
O O7 0.664418 0.030898 0.534772
O O8 0.002005 0.250000 0.138864
O O9 0.050707 0.547472 0.185948
O O10 0.930535 0.517800 0.159057
O O11 0.000000 0.500000 0.000000
O O12 0.869382 0.250000 0.723787
O O13 0.905961 0.532284 0.632960
O O14 0.425745 0.250000 0.976211
O O15 0.500000 0.000000 0.000000
O O16 0.140510 0.750000 0.857363
#
# Coordination Sequence:
#
# PCOD9465831 Si02
#       6
#     8   8   8   8   8   8
#     4  10  22  39  59  84 112 149 195 240 284 342
#     4  10  21  38  57  81 115 154 189 234 292 344
#     4  11  20  35  59  87 117 152 190 236 290 345
#     4  10  21  38  58  83 119 155 191 240 295 348
#     4  10  22  40  62  87 119 154 194 246 298 352
#     4   9  19  37  58  79 112 149 183 229 285 340
#
# _framework density 22.399367999999999
#
# number of rings (size 3 to 8) (size 9 to 14) (size 15 to 20)
#    0.000    2.000    1.667    1.500    2.333    3.333 
#    0.000    1.667    0.000    0.000    0.000    0.000 
#    0.000    0.000    0.000    0.000    0.000    0.000 
#
# Total GULP energy -268202.442274 kJ/mol
# GULP energy per Si atom -5587.550881 kJ/mol
# Density = 2.234839 g / cm^3
# Si number density = 22.399368 Si / 1000 Ang^3
#
#
#
# Elastic Constant Matrix: (Units=GPa)
#
#
# Indices 1 2 3 4 5 6 
#
# 1 125.1491 -5.0927 43.6569 0.0000 0.0000 0.0000
# 2 -5.0927 59.2000 5.5656 0.0000 0.0000 0.0000
# 3 43.6569 5.5656 136.9209 0.0000 0.0000 0.0000
# 4 0.0000 0.0000 0.0000 -3.2556 0.0000 0.0000
# 5 0.0000 0.0000 0.0000 0.0000 23.4475 0.0000
# 6 0.0000 0.0000 0.0000 0.0000 0.0000 26.3005
#
#
#
# Elastic Compliance Matrix: (Units=1/GPa)
#
#
# Indices 1 2 3 4 5 6 
#
# 1 0.009056 0.001054 -0.002930 0.000000 0.000000 0.000000
# 2 0.001054 0.017079 -0.001030 0.000000 0.000000 0.000000
# 3 -0.002930 -0.001030 0.008280 0.000000 0.000000 0.000000
# 4 0.000000 0.000000 0.000000 -0.307163 0.000000 0.000000
# 5 0.000000 0.000000 0.000000 0.000000 0.042648 0.000000
# 6 0.000000 0.000000 0.000000 0.000000 0.000000 0.038022
#
#
# Mechanical properties :
#
#
# Convention : Reuss Voigt Hill
#
# Bulk Modulus (GPa) = 34.96219 45.50327 40.23273
# Shear Modulus (GPa) = -28.29147 27.77450 -0.25849
#
# Velocity S-wave (km/s) = -3.55779 3.52514 -0.34007
# Velocity P-wave (km/s) = 1.11119 6.07679 4.22449
#
# Compressibility (1/GPa) = 0.02860233
#
# Stress axis : x y z
#
# Youngs Moduli (GPa) = 110.42954 58.54978 120.77793
#
# Poissons Ratio (x) = -0.06174 0.35390
# Poissons Ratio (y) = -0.11645 0.12446
# Poissons Ratio (z) = 0.32358 0.06033
#
# Static dielectric constant tensor:
#      x y z
#    x 1.777260 0.000000 0.000000 
#    y 0.000000 1.865180 0.000000 
#    z 0.000000 0.000000 1.796290 
# 
# From -- ./inp_files/15132.got.cif
#   From: 2010.05.17/outbox.cif.g08.bks.cpg/sg62_8_cif.got.tgz:15132.got - 2010.06.03 15:25:27.
