data_PCOD9465206
_publ_section_title
;
Structure prediction by ZEFSAII (Michael W. Deem and Ramdas Pophale) SiO2 
 PCOD9465206
Probable space group: P N M A
;
_chemical_formula_sum "Si O2"
_cell_formula_units_Z 48
_cell_length_a 17.034851
_cell_length_b 18.104844
_cell_length_c 8.436184
_cell_angle_alpha 90.000000
_cell_angle_beta 90.000000
_cell_angle_gamma 90.000000
_cell_volume 2601.831515
_symmetry_space_group_name_H-M "P N M A"
_symmetry_group_IT_number 62
_symmetry_cell_setting 'orthorhombic'
loop_
_space_group_symop_operation_xyz
x,y,z
1/2-x,-y,1/2+z
1/2+x,1/2-y,1/2-z
-x,1/2+y,-z
-x,-y,-z
1/2+x,y,1/2-z
1/2-x,1/2+y,1/2+z
x,1/2-y,z
loop_
_atom_site_type_symbol
_atom_site_label
_atom_site_fract_x
_atom_site_fract_y
_atom_site_fract_z
Si Si1 0.024239 0.940783 0.731959
Si Si2 0.109112 0.542157 0.405152
Si Si3 0.142304 0.042486 0.904654
Si Si4 0.761231 0.546843 0.421258
Si Si5 0.975875 0.834756 0.984082
Si Si6 0.646361 0.663854 0.347295
O O1 0.070440 0.929443 0.568578
O O2 0.989374 0.867864 0.809344
O O3 0.082063 0.977450 0.859872
O O4 0.957512 0.000887 0.695181
O O5 0.171963 0.480002 0.457126
O O6 0.141813 0.611254 0.307252
O O7 0.197030 0.050196 0.749430
O O8 0.090112 0.114106 0.936209
O O9 0.194655 0.016142 0.053003
O O10 0.714801 0.623390 0.448896
O O11 0.951616 0.750000 0.982609
O O12 0.060163 0.839359 0.072925
O O13 0.663958 0.750000 0.317094
#
# Coordination Sequence:
#
# PCOD9465206 Si02
#       6
#     8   8   8   8   8   8
#     4  10  20  38  65  87 113 154 209 250 284 359
#     4  10  21  38  63  90 115 157 206 250 298 352
#     4  11  21  37  62  87 117 155 208 248 289 357
#     4  11  22  37  62  89 117 157 203 251 298 358
#     4  11  23  38  60  88 123 160 195 244 307 366
#     4  11  22  39  60  88 123 159 199 252 310 360
#
# _framework density 18.448544999999999
#
# number of rings (size 3 to 8) (size 9 to 14) (size 15 to 20)
#    0.000    1.333    5.000    1.500    0.000    1.333 
#    0.000    0.833    0.000    0.000    0.000    0.000 
#    0.000    0.000    0.000    0.000    0.000    0.000 
#
# Total GULP energy -267731.790319 kJ/mol
# GULP energy per Si atom -5577.745632 kJ/mol
# Density = 1.840655 g / cm^3
# Si number density = 18.448545 Si / 1000 Ang^3
#
#
#
# Elastic Constant Matrix: (Units=GPa)
#
#
# Indices 1 2 3 4 5 6 
#
# 1 93.0315 45.8069 35.4014 0.0000 0.0000 0.0000
# 2 45.8069 134.0841 40.5782 0.0000 0.0000 0.0000
# 3 35.4014 40.5782 62.5972 0.0000 0.0000 0.0000
# 4 0.0000 0.0000 0.0000 13.5761 0.0000 0.0000
# 5 0.0000 0.0000 0.0000 0.0000 27.0321 0.0000
# 6 0.0000 0.0000 0.0000 0.0000 0.0000 25.1027
#
#
#
# Elastic Compliance Matrix: (Units=1/GPa)
#
#
# Indices 1 2 3 4 5 6 
#
# 1 0.014671 -0.003111 -0.006280 0.000000 0.000000 0.000000
# 2 -0.003111 0.009938 -0.004683 0.000000 0.000000 0.000000
# 3 -0.006280 -0.004683 0.022562 0.000000 0.000000 0.000000
# 4 0.000000 0.000000 0.000000 0.073659 0.000000 0.000000
# 5 0.000000 0.000000 0.000000 0.000000 0.036993 0.000000
# 6 0.000000 0.000000 0.000000 0.000000 0.000000 0.039836
#
#
# Mechanical properties :
#
#
# Convention : Reuss Voigt Hill
#
# Bulk Modulus (GPa) = 52.56796 59.25396 55.91096
# Shear Modulus (GPa) = 21.53794 24.33727 22.93760
#
# Velocity S-wave (km/s) = 3.42052 3.63602 3.52991
# Velocity P-wave (km/s) = 6.64501 7.05802 6.85463
#
# Compressibility (1/GPa) = 0.01902299
#
# Stress axis : x y z
#
# Youngs Moduli (GPa) = 68.16262 100.62313 44.32180
#
# Poissons Ratio (x) = 0.31308 0.27834
# Poissons Ratio (y) = 0.21208 0.20754
# Poissons Ratio (z) = 0.42806 0.47118
#
# Static dielectric constant tensor:
#      x y z
#    x 1.684650 0.000000 0.000000 
#    y 0.000000 1.594030 0.000000 
#    z 0.000000 0.000000 1.653190 
# 
# From -- ./inp_files/7805.got.cif
#   From: 2010.05.17/outbox.cif.g08.bks.cpg/sg62_4_cif.got.tgz:7805.got - 2010.06.03 15:25:27.
