data_PCOD9465117
_publ_section_title
;
Structure prediction by ZEFSAII (Michael W. Deem and Ramdas Pophale) SiO2 
 PCOD9465117
Probable space group: P N M A
;
_chemical_formula_sum "Si O2"
_cell_formula_units_Z 36
_cell_length_a 13.221845
_cell_length_b 11.190180
_cell_length_c 13.375446
_cell_angle_alpha 90.000000
_cell_angle_beta 90.000000
_cell_angle_gamma 90.000000
_cell_volume 1978.961779
_symmetry_space_group_name_H-M "P N M A"
_symmetry_group_IT_number 62
_symmetry_cell_setting 'orthorhombic'
loop_
_space_group_symop_operation_xyz
x,y,z
1/2-x,-y,1/2+z
1/2+x,1/2-y,1/2-z
-x,1/2+y,-z
-x,-y,-z
1/2+x,y,1/2-z
1/2-x,1/2+y,1/2+z
x,1/2-y,z
loop_
_atom_site_type_symbol
_atom_site_label
_atom_site_fract_x
_atom_site_fract_y
_atom_site_fract_z
Si Si1 0.164658 0.250000 0.182516
Si Si2 0.913347 0.891448 0.372964
Si Si3 0.786244 0.040535 0.212539
Si Si4 0.143807 0.750000 0.569165
Si Si5 0.878804 0.476597 0.566191
Si Si6 0.071125 0.750000 0.798092
O O1 0.204204 0.367610 0.240265
O O2 0.235274 0.250000 0.085004
O O3 0.045395 0.250000 0.174113
O O4 0.922176 0.750000 0.352768
O O5 0.021649 0.959812 0.365702
O O6 0.836165 0.956397 0.296834
O O7 0.881390 0.912461 0.489240
O O8 0.871522 0.129519 0.168415
O O9 0.723204 0.972034 0.129070
O O10 0.114325 0.865163 0.508210
O O11 0.090718 0.750000 0.677531
#
# Coordination Sequence:
#
# PCOD9465117 Si02
#       6
#     4   8   8   4   8   4
#     4  10  20  38  62  81 119 148 193 247 278 345
#     4  11  23  36  60  91 116 150 200 241 290 347
#     4  10  22  36  58  88 118 151 193 239 295 338
#     4  10  20  40  60  90 110 155 194 241 293 334
#     4  11  22  39  61  86 117 153 196 248 283 346
#     4  10  20  40  60  85 111 157 199 236 285 347
#
# _framework density 18.191355999999999
#
# number of rings (size 3 to 8) (size 9 to 14) (size 15 to 20)
#    0.000    1.778    5.556    1.333    7.778    0.000 
#    0.000    1.111    0.000    0.000    0.000    0.000 
#    0.000    0.000    0.000    0.000    0.000    0.000 
#
# Total GULP energy -200677.846813 kJ/mol
# GULP energy per Si atom -5574.384634 kJ/mol
# Density = 1.814995 g / cm^3
# Si number density = 18.191356 Si / 1000 Ang^3
#
#
#
# Elastic Constant Matrix: (Units=GPa)
#
#
# Indices 1 2 3 4 5 6 
#
# 1 132.8997 17.1535 32.4248 0.0000 0.0000 0.0000
# 2 17.1535 78.3716 11.0917 0.0000 0.0000 0.0000
# 3 32.4248 11.0917 41.9906 0.0000 0.0000 0.0000
# 4 0.0000 0.0000 0.0000 22.9833 0.0000 0.0000
# 5 0.0000 0.0000 0.0000 0.0000 32.9278 0.0000
# 6 0.0000 0.0000 0.0000 0.0000 0.0000 16.7392
#
#
#
# Elastic Compliance Matrix: (Units=1/GPa)
#
#
# Indices 1 2 3 4 5 6 
#
# 1 0.009356 -0.001065 -0.006943 0.000000 0.000000 0.000000
# 2 -0.001065 0.013377 -0.002711 0.000000 0.000000 0.000000
# 3 -0.006943 -0.002711 0.029892 0.000000 0.000000 0.000000
# 4 0.000000 0.000000 0.000000 0.043510 0.000000 0.000000
# 5 0.000000 0.000000 0.000000 0.000000 0.030370 0.000000
# 6 0.000000 0.000000 0.000000 0.000000 0.000000 0.059740
#
#
# Mechanical properties :
#
#
# Convention : Reuss Voigt Hill
#
# Bulk Modulus (GPa) = 32.06529 41.62245 36.84387
# Shear Modulus (GPa) = 22.92755 27.36951 25.14853
#
# Velocity S-wave (km/s) = 3.55400 3.88304 3.72216
# Velocity P-wave (km/s) = 5.87419 6.56003 6.22656
#
# Compressibility (1/GPa) = 0.03118637
#
# Stress axis : x y z
#
# Youngs Moduli (GPa) = 106.88379 74.75787 33.45330
#
# Poissons Ratio (x) = 0.07963 0.23227
# Poissons Ratio (y) = 0.11384 0.09069
# Poissons Ratio (z) = 0.74212 0.20266
#
# Static dielectric constant tensor:
#      x y z
#    x 1.643700 0.000000 0.000000 
#    y 0.000000 1.677920 0.000000 
#    z 0.000000 0.000000 1.632620 
# 
# From -- ./inp_files/11888.got.cif
#   From: 2010.05.17/outbox.cif.g08.bks.cpg/sg62_6_cif.got.tgz:11888.got - 2010.06.03 15:25:27.
