data_PCOD9465407
_publ_section_title
;
Structure prediction by ZEFSAII (Michael W. Deem and Ramdas Pophale) SiO2 
 PCOD9465407
Probable space group: P N M A
;
_chemical_formula_sum "Si O2"
_cell_formula_units_Z 48
_cell_length_a 11.378246
_cell_length_b 22.359719
_cell_length_c 8.149264
_cell_angle_alpha 90.000000
_cell_angle_beta 90.000000
_cell_angle_gamma 90.000000
_cell_volume 2073.289975
_symmetry_space_group_name_H-M "P N M A"
_symmetry_group_IT_number 62
_symmetry_cell_setting 'orthorhombic'
loop_
_space_group_symop_operation_xyz
x,y,z
1/2-x,-y,1/2+z
1/2+x,1/2-y,1/2-z
-x,1/2+y,-z
-x,-y,-z
1/2+x,y,1/2-z
1/2-x,1/2+y,1/2+z
x,1/2-y,z
loop_
_atom_site_type_symbol
_atom_site_label
_atom_site_fract_x
_atom_site_fract_y
_atom_site_fract_z
Si Si1 0.766728 0.014572 0.418244
Si Si2 0.055051 0.409398 0.951754
Si Si3 0.229488 0.183120 0.826688
Si Si4 0.557263 0.903349 0.106973
Si Si5 0.696401 0.910153 0.598259
Si Si6 0.125389 0.318100 0.458303
O O1 0.640269 0.040690 0.474108
O O2 0.870795 0.042449 0.527789
O O3 0.789259 0.041249 0.240416
O O4 0.755926 0.943846 0.442014
O O5 0.133676 0.350063 0.937669
O O6 0.015539 0.424305 0.765497
O O7 0.938371 0.399192 0.056516
O O8 0.254712 0.250000 0.883141
O O9 0.346933 0.144233 0.828386
O O10 0.176098 0.186106 0.644112
O O11 0.480929 0.865515 0.975725
O O12 0.770402 0.851170 0.639849
O O13 0.097002 0.250000 0.406139
#
# Coordination Sequence:
#
# PCOD9465407 Si02
#       6
#     8   8   8   8   8   8
#     4  11  27  42  68  97 132 177 225 277 343 408
#     4  10  22  42  63  96 135 171 218 280 333 397
#     4   9  18  36  67 100 126 170 225 272 323 395
#     4  10  20  41  69  94 133 170 223 277 338 402
#     4  12  25  44  66  97 137 177 226 281 342 401
#     4  10  22  39  65  97 132 174 220 273 336 398
#
# _framework density 23.151609000000001
#
# number of rings (size 3 to 8) (size 9 to 14) (size 15 to 20)
#    0.000    1.667    1.667    2.000    7.000    2.000 
#    0.000    4.167    0.000    0.000    0.000    0.000 
#    0.000    0.000    0.000    0.000    0.000    0.000 
#
# Total GULP energy -268697.531539 kJ/mol
# GULP energy per Si atom -5597.865240 kJ/mol
# Density = 2.309892 g / cm^3
# Si number density = 23.151609 Si / 1000 Ang^3
#
#
#
# Elastic Constant Matrix: (Units=GPa)
#
#
# Indices 1 2 3 4 5 6 
#
# 1 116.1979 22.8066 22.5189 0.0000 0.0000 0.0000
# 2 22.8066 97.6066 4.9293 0.0000 0.0000 0.0000
# 3 22.5189 4.9293 49.9490 0.0000 0.0000 0.0000
# 4 0.0000 0.0000 0.0000 19.1558 0.0000 0.0000
# 5 0.0000 0.0000 0.0000 0.0000 28.4913 0.0000
# 6 0.0000 0.0000 0.0000 0.0000 0.0000 19.8894
#
#
#
# Elastic Compliance Matrix: (Units=1/GPa)
#
#
# Indices 1 2 3 4 5 6 
#
# 1 0.009835 -0.002084 -0.004228 0.000000 0.000000 0.000000
# 2 -0.002084 0.010738 -0.000120 0.000000 0.000000 0.000000
# 3 -0.004228 -0.000120 0.021938 0.000000 0.000000 0.000000
# 4 0.000000 0.000000 0.000000 0.052203 0.000000 0.000000
# 5 0.000000 0.000000 0.000000 0.000000 0.035098 0.000000
# 6 0.000000 0.000000 0.000000 0.000000 0.000000 0.050278
#
#
# Mechanical properties :
#
#
# Convention : Reuss Voigt Hill
#
# Bulk Modulus (GPa) = 33.73101 40.47369 37.10235
# Shear Modulus (GPa) = 24.65018 27.74054 26.19536
#
# Velocity S-wave (km/s) = 3.26656 3.46528 3.36738
# Velocity P-wave (km/s) = 5.36921 5.79058 5.58387
#
# Compressibility (1/GPa) = 0.02964631
#
# Stress axis : x y z
#
# Youngs Moduli (GPa) = 101.68274 93.12457 45.58208
#
# Poissons Ratio (x) = 0.19411 0.19272
# Poissons Ratio (y) = 0.21195 0.00547
# Poissons Ratio (z) = 0.42992 0.01118
#
# Static dielectric constant tensor:
#      x y z
#    x 1.859280 0.000000 0.000000 
#    y 0.000000 1.844040 0.000000 
#    z 0.000000 0.000000 1.940240 
# 
# From -- ./inp_files/5326.got.cif
#   From: 2010.05.17/outbox.cif.g08.bks.cpg/sg62_3_cif.got.tgz:5326.got - 2010.06.03 15:25:27.
