data_PCOD9465572
_publ_section_title
;
Structure prediction by ZEFSAII (Michael W. Deem and Ramdas Pophale) SiO2 
 PCOD9465572
Probable space group: P N M A
;
_chemical_formula_sum "Si O2"
_cell_formula_units_Z 56
_cell_length_a 9.177089
_cell_length_b 13.682612
_cell_length_c 20.343752
_cell_angle_alpha 90.000000
_cell_angle_beta 90.000000
_cell_angle_gamma 90.000000
_cell_volume 2554.494714
_symmetry_space_group_name_H-M "P N M A"
_symmetry_group_IT_number 62
_symmetry_cell_setting 'orthorhombic'
loop_
_space_group_symop_operation_xyz
x,y,z
1/2-x,-y,1/2+z
1/2+x,1/2-y,1/2-z
-x,1/2+y,-z
-x,-y,-z
1/2+x,y,1/2-z
1/2-x,1/2+y,1/2+z
x,1/2-y,z
loop_
_atom_site_type_symbol
_atom_site_label
_atom_site_fract_x
_atom_site_fract_y
_atom_site_fract_z
Si Si1 0.934871 0.863041 0.023237
Si Si2 0.352841 0.511099 0.738860
Si Si3 0.198800 0.643212 0.579327
Si Si4 0.901594 0.955520 0.341308
Si Si5 0.553395 0.141342 0.978664
Si Si6 0.388149 0.363258 0.314824
Si Si7 0.805534 0.057097 0.049226
O O1 0.927131 0.750000 0.044103
O O2 0.855376 0.946809 0.065339
O O3 0.858703 0.870731 0.951032
O O4 0.097023 0.901728 0.010794
O O5 0.248399 0.436285 0.699067
O O6 0.459174 0.463971 0.793558
O O7 0.237329 0.585352 0.771626
O O8 0.464016 0.574766 0.694930
O O9 0.188966 0.750000 0.611151
O O10 0.136975 0.560654 0.626049
O O11 0.103232 0.645721 0.512617
O O12 0.937156 0.886581 0.402719
O O13 0.618053 0.250000 0.987831
O O14 0.643554 0.065313 0.022623
O O15 0.410242 0.250000 0.298112
O O16 0.331017 0.375139 0.388736
#
# Coordination Sequence:
#
# PCOD9465572 Si02
#       7
#     8   8   8   8   8   8   8
#     4  10  21  36  55  91 128 157 189 230 303 373
#     4  10  25  39  59  84 117 168 212 240 300 351
#     4  10  21  37  63  93 122 154 191 243 314 372
#     4  11  22  42  60  85 123 160 200 255 292 360
#     4  11  23  39  63  94 119 153 199 254 312 364
#     4  11  22  39  60  88 124 158 201 251 298 366
#     4  11  22  36  62  92 124 158 193 249 307 362
#
# _framework density 21.922143999999999
#
# number of rings (size 3 to 8) (size 9 to 14) (size 15 to 20)
#    0.000    1.429    1.429    3.857    4.000    5.714 
#    0.000    0.714    0.000    3.429    0.000    0.000 
#    0.000    0.000    0.000    0.000    0.000    0.000 
#
# Total GULP energy -312908.227142 kJ/mol
# GULP energy per Si atom -5587.646913 kJ/mol
# Density = 2.187225 g / cm^3
# Si number density = 21.922144 Si / 1000 Ang^3
#
#
#
# Elastic Constant Matrix: (Units=GPa)
#
#
# Indices 1 2 3 4 5 6 
#
# 1 95.1228 -3.7521 16.7829 0.0000 0.0000 0.0000
# 2 -3.7521 72.4124 -14.2036 0.0000 0.0000 0.0000
# 3 16.7829 -14.2036 58.3948 0.0000 0.0000 0.0000
# 4 0.0000 0.0000 0.0000 19.9529 0.0000 0.0000
# 5 0.0000 0.0000 0.0000 0.0000 29.4297 0.0000
# 6 0.0000 0.0000 0.0000 0.0000 0.0000 15.8676
#
#
#
# Elastic Compliance Matrix: (Units=1/GPa)
#
#
# Indices 1 2 3 4 5 6 
#
# 1 0.011074 -0.000053 -0.003196 0.000000 0.000000 0.000000
# 2 -0.000053 0.014502 0.003543 0.000000 0.000000 0.000000
# 3 -0.003196 0.003543 0.018905 0.000000 0.000000 0.000000
# 4 0.000000 0.000000 0.000000 0.050118 0.000000 0.000000
# 5 0.000000 0.000000 0.000000 0.000000 0.033979 0.000000
# 6 0.000000 0.000000 0.000000 0.000000 0.000000 0.063021
#
#
# Mechanical properties :
#
#
# Convention : Reuss Voigt Hill
#
# Bulk Modulus (GPa) = 22.18820 24.84273 23.51546
# Shear Modulus (GPa) = 24.26770 28.19024 26.22897
#
# Velocity S-wave (km/s) = 3.33076 3.58987 3.46274
# Velocity P-wave (km/s) = 4.99353 5.34226 5.17083
#
# Compressibility (1/GPa) = 0.04506900
#
# Stress axis : x y z
#
# Youngs Moduli (GPa) = 90.29778 68.95642 52.89620
#
# Poissons Ratio (x) = 0.00366 0.16904
# Poissons Ratio (y) = 0.00479 -0.18739
# Poissons Ratio (z) = 0.28857 -0.24428
#
# Static dielectric constant tensor:
#      x y z
#    x 1.813470 0.000000 0.000000 
#    y 0.000000 1.791430 0.000000 
#    z 0.000000 0.000000 1.819470 
# 
# From -- ./inp_files/25961.got.cif
#   From: 2010.05.17/outbox.cif.g08.bks.cpg/sg62_13_cif.got.tgz:25961.got - 2010.06.03 15:25:27.
