data_PCOD9465097
_publ_section_title
;
Structure prediction by ZEFSAII (Michael W. Deem and Ramdas Pophale) SiO2 
 PCOD9465097
Probable space group: P N M A
;
_chemical_formula_sum "Si O2"
_cell_formula_units_Z 40
_cell_length_a 13.565887
_cell_length_b 15.490007
_cell_length_c 9.523577
_cell_angle_alpha 90.000000
_cell_angle_beta 90.000000
_cell_angle_gamma 90.000000
_cell_volume 2001.243373
_symmetry_space_group_name_H-M "P N M A"
_symmetry_group_IT_number 62
_symmetry_cell_setting 'orthorhombic'
loop_
_space_group_symop_operation_xyz
x,y,z
1/2-x,-y,1/2+z
1/2+x,1/2-y,1/2-z
-x,1/2+y,-z
-x,-y,-z
1/2+x,y,1/2-z
1/2-x,1/2+y,1/2+z
x,1/2-y,z
loop_
_atom_site_type_symbol
_atom_site_label
_atom_site_fract_x
_atom_site_fract_y
_atom_site_fract_z
Si Si1 0.426257 0.650463 0.949785
Si Si2 0.703865 0.506028 0.939499
Si Si3 0.371177 0.156615 0.878016
Si Si4 0.592678 0.920555 0.404332
Si Si5 0.450643 0.437242 0.292137
O O1 0.393059 0.750000 0.938420
O O2 0.472386 0.614545 0.804691
O O3 0.346596 0.582542 0.006346
O O4 0.519465 0.648100 0.056234
O O5 0.816823 0.487611 0.909797
O O6 0.643144 0.540835 0.805052
O O7 0.690312 0.578013 0.059174
O O8 0.331439 0.250000 0.921042
O O9 0.378919 0.148969 0.711467
O O10 0.575184 0.889775 0.562756
O O11 0.499761 0.973266 0.343443
#
# Coordination Sequence:
#
# PCOD9465097 Si02
#       5
#     8   8   8   8   8
#     4  10  20  38  61  82 116 161 200 241 293 357
#     4  11  20  39  62  88 118 162 202 239 292 360
#     4  10  20  38  61  85 116 158 199 242 299 353
#     4  11  21  35  62  90 118 155 191 254 297 346
#     4  10  21  37  58  89 120 152 196 243 304 347
#
# _framework density 19.987575
#
# number of rings (size 3 to 8) (size 9 to 14) (size 15 to 20)
#    0.000    1.600    4.000    2.400    0.000    1.600 
#    0.000    1.000    0.000    0.000    0.000    0.000 
#    0.000    0.000    0.000    0.000    0.000    0.000 
#
# Total GULP energy -223352.481274 kJ/mol
# GULP energy per Si atom -5583.812032 kJ/mol
# Density = 1.994208 g / cm^3
# Si number density = 19.987575 Si / 1000 Ang^3
#
#
#
# Elastic Constant Matrix: (Units=GPa)
#
#
# Indices 1 2 3 4 5 6 
#
# 1 30.5136 -11.0685 8.7532 0.0000 0.0000 0.0000
# 2 -11.0685 76.7109 22.1351 0.0000 0.0000 0.0000
# 3 8.7532 22.1351 142.8120 0.0000 0.0000 0.0000
# 4 0.0000 0.0000 0.0000 3.3999 0.0000 0.0000
# 5 0.0000 0.0000 0.0000 0.0000 10.3125 0.0000
# 6 0.0000 0.0000 0.0000 0.0000 0.0000 1.6158
#
#
#
# Elastic Compliance Matrix: (Units=1/GPa)
#
#
# Indices 1 2 3 4 5 6 
#
# 1 0.035881 0.006084 -0.003142 0.000000 0.000000 0.000000
# 2 0.006084 0.014678 -0.002648 0.000000 0.000000 0.000000
# 3 -0.003142 -0.002648 0.007605 0.000000 0.000000 0.000000
# 4 0.000000 0.000000 0.000000 0.294123 0.000000 0.000000
# 5 0.000000 0.000000 0.000000 0.000000 0.096970 0.000000
# 6 0.000000 0.000000 0.000000 0.000000 0.000000 0.618888
#
#
# Mechanical properties :
#
#
# Convention : Reuss Voigt Hill
#
# Bulk Modulus (GPa) = 17.02093 32.18622 24.60358
# Shear Modulus (GPa) = 4.59922 18.41342 11.50632
#
# Velocity S-wave (km/s) = 1.51856 3.03849 2.40192
# Velocity P-wave (km/s) = 3.40719 5.33367 4.47532
#
# Compressibility (1/GPa) = 0.05875119
#
# Stress axis : x y z
#
# Youngs Moduli (GPa) = 27.87028 68.12995 131.48882
#
# Poissons Ratio (x) = -0.41449 0.41316
# Poissons Ratio (y) = -0.16956 0.34817
# Poissons Ratio (z) = 0.08757 0.18040
#
# Static dielectric constant tensor:
#      x y z
#    x 1.683940 0.000000 0.000000 
#    y 0.000000 1.701150 0.000000 
#    z 0.000000 0.000000 1.739490 
# 
# From -- ./inp_files/6088.got.cif
#   From: 2010.05.17/outbox.cif.g08.bks.cpg/sg62_4_cif.got.tgz:6088.got - 2010.06.03 15:25:27.
