data_PCOD9465731
_publ_section_title
;
Structure prediction by ZEFSAII (Michael W. Deem and Ramdas Pophale) SiO2 
 PCOD9465731
Probable space group: P N M A
;
_chemical_formula_sum "Si O2"
_cell_formula_units_Z 48
_cell_length_a 31.235313
_cell_length_b 8.680028
_cell_length_c 9.408275
_cell_angle_alpha 90.000000
_cell_angle_beta 90.000000
_cell_angle_gamma 90.000000
_cell_volume 2550.803425
_symmetry_space_group_name_H-M "P N M A"
_symmetry_group_IT_number 62
_symmetry_cell_setting 'orthorhombic'
loop_
_space_group_symop_operation_xyz
x,y,z
1/2-x,-y,1/2+z
1/2+x,1/2-y,1/2-z
-x,1/2+y,-z
-x,-y,-z
1/2+x,y,1/2-z
1/2-x,1/2+y,1/2+z
x,1/2-y,z
loop_
_atom_site_type_symbol
_atom_site_label
_atom_site_fract_x
_atom_site_fract_y
_atom_site_fract_z
Si Si1 0.785102 0.568799 0.912955
Si Si2 0.382415 0.935739 0.590919
Si Si3 0.206487 0.070829 0.423482
Si Si4 0.883912 0.432504 0.590318
Si Si5 0.460777 0.565751 0.091956
Si Si6 0.460278 0.434549 0.410085
O O1 0.779353 0.750000 0.945559
O O2 0.833694 0.524939 0.954045
O O3 0.783185 0.549570 0.743080
O O4 0.747874 0.474802 0.987468
O O5 0.391185 0.250000 0.906826
O O6 0.417210 0.006572 0.486322
O O7 0.389092 0.999371 0.750529
O O8 0.195331 0.250000 0.444609
O O9 0.164594 0.970565 0.456381
O O10 0.885887 0.750000 0.905319
O O11 0.917514 0.512448 0.486096
O O12 0.463185 0.750000 0.097550
O O13 0.462543 0.497730 0.250222
O O14 0.500000 0.500000 0.000000
O O15 0.500000 0.500000 0.500000
O O16 0.461660 0.250000 0.409501
#
# Coordination Sequence:
#
# PCOD9465731 Si02
#       6
#     8   8   8   8   8   8
#     4   9  20  37  57  83 116 153 194 240 291 348
#     4  10  21  40  62  87 120 157 197 243 295 349
#     4  10  21  37  58  85 117 154 196 242 293 349
#     4  11  22  39  62  88 118 155 198 244 295 350
#     4  12  25  43  64  89 120 155 195 241 294 349
#     4  12  25  42  63  90 121 156 197 240 290 347
#
# _framework density 18.817602000000001
#
# number of rings (size 3 to 8) (size 9 to 14) (size 15 to 20)
#    0.000    1.333    0.000    7.500    0.000    5.333 
#    0.000    3.333    0.000    0.000    0.000    0.000 
#    0.000    0.000    0.000    0.000    0.000    0.000 
#
# Total GULP energy -268440.782303 kJ/mol
# GULP energy per Si atom -5592.516298 kJ/mol
# Density = 1.877477 g / cm^3
# Si number density = 18.817602 Si / 1000 Ang^3
#
#
#
# Elastic Constant Matrix: (Units=GPa)
#
#
# Indices 1 2 3 4 5 6 
#
# 1 119.5898 61.5092 75.5347 0.0000 0.0000 0.0000
# 2 61.5092 144.5068 56.2312 0.0000 0.0000 0.0000
# 3 75.5347 56.2312 101.9116 0.0000 0.0000 0.0000
# 4 0.0000 0.0000 0.0000 35.9920 0.0000 0.0000
# 5 0.0000 0.0000 0.0000 0.0000 31.1378 0.0000
# 6 0.0000 0.0000 0.0000 0.0000 0.0000 37.7752
#
#
#
# Elastic Compliance Matrix: (Units=1/GPa)
#
#
# Indices 1 2 3 4 5 6 
#
# 1 0.016628 -0.002906 -0.010721 0.000000 0.000000 0.000000
# 2 -0.002906 0.009320 -0.002989 0.000000 0.000000 0.000000
# 3 -0.010721 -0.002989 0.019408 0.000000 0.000000 0.000000
# 4 0.000000 0.000000 0.000000 0.027784 0.000000 0.000000
# 5 0.000000 0.000000 0.000000 0.000000 0.032115 0.000000
# 6 0.000000 0.000000 0.000000 0.000000 0.000000 0.026472
#
#
# Mechanical properties :
#
#
# Convention : Reuss Voigt Hill
#
# Bulk Modulus (GPa) = 82.47706 83.61757 83.04731
# Shear Modulus (GPa) = 29.58585 32.49655 31.04120
#
# Velocity S-wave (km/s) = 3.96945 4.16013 4.06591
# Velocity P-wave (km/s) = 8.05814 8.22240 8.14069
#
# Compressibility (1/GPa) = 0.01212458
#
# Stress axis : x y z
#
# Youngs Moduli (GPa) = 60.13933 107.29692 51.52626
#
# Poissons Ratio (x) = 0.31180 0.55241
# Poissons Ratio (y) = 0.17476 0.15399
# Poissons Ratio (z) = 0.64475 0.32067
#
# Static dielectric constant tensor:
#      x y z
#    x 1.637780 0.000000 0.000000 
#    y 0.000000 1.653810 0.000000 
#    z 0.000000 0.000000 1.614020 
# 
# From -- ./inp_files/10234.got.cif
#   From: 2010.05.17/outbox.cif.g08.bks.cpg/sg62_6_cif.got.tgz:10234.got - 2010.06.03 15:25:27.
