data_PCOD9465327
_publ_section_title
;
Structure prediction by ZEFSAII (Michael W. Deem and Ramdas Pophale) SiO2 
 PCOD9465327
Probable space group: P N M A
;
_chemical_formula_sum "Si O2"
_cell_formula_units_Z 64
_cell_length_a 9.061609
_cell_length_b 17.324420
_cell_length_c 17.920751
_cell_angle_alpha 90.000000
_cell_angle_beta 90.000000
_cell_angle_gamma 90.000000
_cell_volume 2813.327091
_symmetry_space_group_name_H-M "P N M A"
_symmetry_group_IT_number 62
_symmetry_cell_setting 'orthorhombic'
loop_
_space_group_symop_operation_xyz
x,y,z
1/2-x,-y,1/2+z
1/2+x,1/2-y,1/2-z
-x,1/2+y,-z
-x,-y,-z
1/2+x,y,1/2-z
1/2-x,1/2+y,1/2+z
x,1/2-y,z
loop_
_atom_site_type_symbol
_atom_site_label
_atom_site_fract_x
_atom_site_fract_y
_atom_site_fract_z
Si Si1 0.992186 0.837809 0.917579
Si Si2 0.078721 0.047767 0.711552
Si Si3 0.979138 0.659730 0.504365
Si Si4 0.138140 0.052623 0.200000
Si Si5 0.337632 0.342282 0.560669
Si Si6 0.081529 0.340320 0.831221
Si Si7 0.323886 0.442459 0.911194
Si Si8 0.295961 0.612867 0.863564
O O1 0.936123 0.750000 0.924396
O O2 0.147610 0.838677 0.873004
O O3 0.887449 0.892886 0.870356
O O4 0.044828 0.869263 0.997996
O O5 0.104508 0.130892 0.747388
O O6 0.956298 0.054517 0.648898
O O7 0.224484 0.003781 0.687304
O O8 0.007089 0.996824 0.778900
O O9 0.015642 0.750000 0.487927
O O10 0.830571 0.636164 0.457220
O O11 0.927918 0.651903 0.590025
O O12 0.105683 0.598640 0.483263
O O13 0.168993 0.098447 0.277266
O O14 0.334565 0.250000 0.549869
O O15 0.415959 0.356900 0.639053
O O16 0.107929 0.250000 0.839150
O O17 0.197294 0.387642 0.880084
O O18 0.271941 0.530969 0.907211
#
# Coordination Sequence:
#
# PCOD9465327 Si02
#       8
#     8   8   8   8   8   8   8   8
#     4  10  20  39  66  92 120 159 206 253 305 363
#     4  11  23  42  59  85 123 159 200 253 302 359
#     4  10  21  39  62  90 121 159 208 257 304 366
#     4  11  21  42  62  85 124 158 202 251 297 367
#     4   8  19  38  59  87 119 153 201 255 299 356
#     4  11  22  40  63  88 121 159 203 256 306 356
#     4  11  23  40  61  89 125 161 204 251 312 366
#     4  10  20  40  62  85 126 162 199 249 311 367
#
# _framework density 22.748866
#
# number of rings (size 3 to 8) (size 9 to 14) (size 15 to 20)
#    0.000    1.750    3.750    1.875    1.750    2.000 
#    6.750    1.875    0.000    0.000    0.000    0.000 
#    0.000    0.000    0.000    0.000    0.000    0.000 
#
# Total GULP energy -357598.295868 kJ/mol
# GULP energy per Si atom -5587.473373 kJ/mol
# Density = 2.269709 g / cm^3
# Si number density = 22.748866 Si / 1000 Ang^3
#
#
#
# Elastic Constant Matrix: (Units=GPa)
#
#
# Indices 1 2 3 4 5 6 
#
# 1 64.0152 24.4872 9.2726 0.0000 0.0000 0.0000
# 2 24.4872 92.5980 15.1008 0.0000 0.0000 0.0000
# 3 9.2726 15.1008 34.4104 0.0000 0.0000 0.0000
# 4 0.0000 0.0000 0.0000 26.6903 0.0000 0.0000
# 5 0.0000 0.0000 0.0000 0.0000 34.9017 0.0000
# 6 0.0000 0.0000 0.0000 0.0000 0.0000 27.8006
#
#
#
# Elastic Compliance Matrix: (Units=1/GPa)
#
#
# Indices 1 2 3 4 5 6 
#
# 1 0.017647 -0.004191 -0.002916 0.000000 0.000000 0.000000
# 2 -0.004191 0.012627 -0.004412 0.000000 0.000000 0.000000
# 3 -0.002916 -0.004412 0.031783 0.000000 0.000000 0.000000
# 4 0.000000 0.000000 0.000000 0.037467 0.000000 0.000000
# 5 0.000000 0.000000 0.000000 0.000000 0.028652 0.000000
# 6 0.000000 0.000000 0.000000 0.000000 0.000000 0.035970
#
#
# Mechanical properties :
#
#
# Convention : Reuss Voigt Hill
#
# Bulk Modulus (GPa) = 25.62871 32.08274 28.85572
# Shear Modulus (GPa) = 24.97617 27.35605 26.16611
#
# Velocity S-wave (km/s) = 3.31706 3.47150 3.39516
# Velocity P-wave (km/s) = 5.09519 5.49564 5.29920
#
# Compressibility (1/GPa) = 0.03901874
#
# Stress axis : x y z
#
# Youngs Moduli (GPa) = 56.66726 79.19413 31.46338
#
# Poissons Ratio (x) = 0.33191 0.09175
# Poissons Ratio (y) = 0.23750 0.13882
# Poissons Ratio (z) = 0.16525 0.34940
#
# Static dielectric constant tensor:
#      x y z
#    x 1.838600 0.000000 0.000000 
#    y 0.000000 1.850290 0.000000 
#    z 0.000000 0.000000 1.871130 
# 
# From -- ./inp_files/26185.got.cif
#   From: 2010.05.17/outbox.cif.g08.bks.cpg/sg62_14_cif.got.tgz:26185.got - 2010.06.03 15:25:27.
