data_PCOD9465261
_publ_section_title
;
Structure prediction by ZEFSAII (Michael W. Deem and Ramdas Pophale) SiO2 
 PCOD9465261
Probable space group: P N M A
;
_chemical_formula_sum "Si O2"
_cell_formula_units_Z 48
_cell_length_a 13.669533
_cell_length_b 19.247531
_cell_length_c 9.733200
_cell_angle_alpha 90.000000
_cell_angle_beta 90.000000
_cell_angle_gamma 90.000000
_cell_volume 2560.851252
_symmetry_space_group_name_H-M "P N M A"
_symmetry_group_IT_number 62
_symmetry_cell_setting 'orthorhombic'
loop_
_space_group_symop_operation_xyz
x,y,z
1/2-x,-y,1/2+z
1/2+x,1/2-y,1/2-z
-x,1/2+y,-z
-x,-y,-z
1/2+x,y,1/2-z
1/2-x,1/2+y,1/2+z
x,1/2-y,z
loop_
_atom_site_type_symbol
_atom_site_label
_atom_site_fract_x
_atom_site_fract_y
_atom_site_fract_z
Si Si1 0.561178 0.668655 0.917504
Si Si2 0.625807 0.442266 0.521749
Si Si3 0.880835 0.921110 0.693127
Si Si4 0.085175 0.902444 0.055689
Si Si5 0.160743 0.921411 0.352908
Si Si6 0.301097 0.172609 0.342054
O O1 0.535962 0.750000 0.936862
O O2 0.472393 0.623790 0.856311
O O3 0.648102 0.665441 0.805596
O O4 0.600089 0.631611 0.054029
O O5 0.625167 0.423722 0.359409
O O6 0.608185 0.525341 0.524462
O O7 0.530334 0.406109 0.586792
O O8 0.727355 0.423877 0.594566
O O9 0.783526 0.883339 0.641050
O O10 0.881873 0.000087 0.639063
O O11 0.148217 0.901245 0.193914
O O12 0.116126 0.841165 0.955388
O O13 0.260285 0.250000 0.354646
#
# Coordination Sequence:
#
# PCOD9465261 Si02
#       6
#     8   8   8   8   8   8
#     4  11  24  41  61  92 128 163 209 257 309 375
#     4  10  20  39  61  91 125 159 209 255 311 371
#     4  11  21  39  66  90 125 165 212 256 309 370
#     4  10  22  39  61  89 126 164 201 262 310 371
#     4  11  23  38  67  94 124 163 206 269 311 362
#     4  11  22  38  62  89 125 167 210 253 307 376
#
# _framework density 18.743766999999998
#
# number of rings (size 3 to 8) (size 9 to 14) (size 15 to 20)
#    0.000    1.333    5.000    1.000    0.000    2.000 
#    0.000    0.833    0.000    0.000    0.000    0.000 
#    0.000    0.000    0.000    0.000    0.000    0.000 
#
# Total GULP energy -268038.841834 kJ/mol
# GULP energy per Si atom -5584.142538 kJ/mol
# Density = 1.870111 g / cm^3
# Si number density = 18.743767 Si / 1000 Ang^3
#
#
#
# Elastic Constant Matrix: (Units=GPa)
#
#
# Indices 1 2 3 4 5 6 
#
# 1 62.5914 2.1930 6.8046 0.0000 0.0000 0.0000
# 2 2.1930 71.8881 21.1048 0.0000 0.0000 0.0000
# 3 6.8046 21.1048 55.4711 0.0000 0.0000 0.0000
# 4 0.0000 0.0000 0.0000 22.1273 0.0000 0.0000
# 5 0.0000 0.0000 0.0000 0.0000 28.3627 0.0000
# 6 0.0000 0.0000 0.0000 0.0000 0.0000 15.7933
#
#
#
# Elastic Compliance Matrix: (Units=1/GPa)
#
#
# Indices 1 2 3 4 5 6 
#
# 1 0.016193 0.000100 -0.002025 0.000000 0.000000 0.000000
# 2 0.000100 0.015660 -0.005970 0.000000 0.000000 0.000000
# 3 -0.002025 -0.005970 0.020547 0.000000 0.000000 0.000000
# 4 0.000000 0.000000 0.000000 0.045193 0.000000 0.000000
# 5 0.000000 0.000000 0.000000 0.000000 0.035258 0.000000
# 6 0.000000 0.000000 0.000000 0.000000 0.000000 0.063318
#
#
# Mechanical properties :
#
#
# Convention : Reuss Voigt Hill
#
# Bulk Modulus (GPa) = 27.31388 27.79502 27.55445
# Shear Modulus (GPa) = 22.30524 23.91321 23.10922
#
# Velocity S-wave (km/s) = 3.45339 3.57570 3.51508
# Velocity P-wave (km/s) = 5.52314 5.64878 5.58631
#
# Compressibility (1/GPa) = 0.03661142
#
# Stress axis : x y z
#
# Youngs Moduli (GPa) = 61.75418 63.85591 48.66812
#
# Poissons Ratio (x) = -0.00641 0.09853
# Poissons Ratio (y) = -0.00620 0.29057
# Poissons Ratio (z) = 0.12503 0.38125
#
# Static dielectric constant tensor:
#      x y z
#    x 1.648860 0.000000 0.000000 
#    y 0.000000 1.640580 0.000000 
#    z 0.000000 0.000000 1.627110 
# 
# From -- ./inp_files/6433.got.cif
#   From: 2010.05.17/outbox.cif.g08.bks.cpg/sg62_4_cif.got.tgz:6433.got - 2010.06.03 15:25:27.
