data_PCOD9465882
_publ_section_title
;
Structure prediction by ZEFSAII (Michael W. Deem and Ramdas Pophale) SiO2 
 PCOD9465882
Probable space group: P N M A
;
_chemical_formula_sum "Si O2"
_cell_formula_units_Z 64
_cell_length_a 14.623628
_cell_length_b 9.313072
_cell_length_c 22.626797
_cell_angle_alpha 90.000000
_cell_angle_beta 90.000000
_cell_angle_gamma 90.000000
_cell_volume 3081.563858
_symmetry_space_group_name_H-M "P N M A"
_symmetry_group_IT_number 62
_symmetry_cell_setting 'orthorhombic'
loop_
_space_group_symop_operation_xyz
x,y,z
1/2-x,-y,1/2+z
1/2+x,1/2-y,1/2-z
-x,1/2+y,-z
-x,-y,-z
1/2+x,y,1/2-z
1/2-x,1/2+y,1/2+z
x,1/2-y,z
loop_
_atom_site_type_symbol
_atom_site_label
_atom_site_fract_x
_atom_site_fract_y
_atom_site_fract_z
Si Si1 0.189557 0.579051 0.504063
Si Si2 0.133608 0.586047 0.964944
Si Si3 0.974603 0.414188 0.911137
Si Si4 0.917675 0.081074 0.784826
Si Si5 0.290058 0.918976 0.806221
Si Si6 0.425479 0.581911 0.915710
Si Si7 0.871184 0.420949 0.367561
Si Si8 0.631124 0.419256 0.745981
O O1 0.191094 0.750000 0.498706
O O2 0.276786 0.508245 0.473323
O O3 0.101368 0.515820 0.470858
O O4 0.186131 0.543305 0.573687
O O5 0.156490 0.750000 0.949086
O O6 0.060313 0.517647 0.920687
O O7 0.083630 0.585009 0.028902
O O8 0.007295 0.250000 0.901131
O O9 0.914688 0.453142 0.854367
O O10 0.895098 0.250000 0.775885
O O11 0.023682 0.060069 0.766731
O O12 0.852970 0.982938 0.745856
O O13 0.274745 0.750000 0.798201
O O14 0.347806 0.939835 0.865908
O O15 0.195045 0.003280 0.801857
O O16 0.425615 0.750000 0.933099
O O17 0.523339 0.551231 0.886277
O O18 0.862470 0.250000 0.355481
O O19 0.847827 0.510612 0.309649
O O20 0.649830 0.250000 0.746614
#
# Coordination Sequence:
#
# PCOD9465882 Si02
#       8
#     8   8   8   8   8   8   8   8
#     4  11  24  38  61  90 119 155 200 252 302 358
#     4  10  21  38  59  87 121 157 198 246 298 360
#     4   9  20  39  61  85 120 158 198 247 299 355
#     4  10  22  41  64  93 123 159 206 254 307 363
#     4  11  24  41  64  92 126 165 204 253 305 365
#     4  10  22  42  64  88 121 157 199 250 304 362
#     4  10  22  43  64  88 121 157 202 252 303 363
#     4  11  24  40  63  93 127 165 206 255 305 365
#
# _framework density 20.768675000000002
#
# number of rings (size 3 to 8) (size 9 to 14) (size 15 to 20)
#    0.000    1.750    1.250    1.875    3.500    4.000 
#    0.000    0.000    0.000    0.000    0.000    0.000 
#    0.000    0.000    0.000    0.000    0.000    0.000 
#
# Total GULP energy -357961.235847 kJ/mol
# GULP energy per Si atom -5593.144310 kJ/mol
# Density = 2.072140 g / cm^3
# Si number density = 20.768675 Si / 1000 Ang^3
#
#
#
# Elastic Constant Matrix: (Units=GPa)
#
#
# Indices 1 2 3 4 5 6 
#
# 1 60.7711 22.4721 -3.3797 0.0000 0.0000 0.0000
# 2 22.4721 64.3218 26.6774 0.0000 0.0000 0.0000
# 3 -3.3797 26.6774 51.5831 0.0000 0.0000 0.0000
# 4 0.0000 0.0000 0.0000 25.5693 0.0000 0.0000
# 5 0.0000 0.0000 0.0000 0.0000 -19.4836 0.0000
# 6 0.0000 0.0000 0.0000 0.0000 0.0000 33.4533
#
#
#
# Elastic Compliance Matrix: (Units=1/GPa)
#
#
# Indices 1 2 3 4 5 6 
#
# 1 0.020433 -0.009795 0.006405 0.000000 0.000000 0.000000
# 2 -0.009795 0.024488 -0.013306 0.000000 0.000000 0.000000
# 3 0.006405 -0.013306 0.026687 0.000000 0.000000 0.000000
# 4 0.000000 0.000000 0.000000 0.039109 0.000000 0.000000
# 5 0.000000 0.000000 0.000000 0.000000 -0.051325 0.000000
# 6 0.000000 0.000000 0.000000 0.000000 0.000000 0.029892
#
#
# Mechanical properties :
#
#
# Convention : Reuss Voigt Hill
#
# Bulk Modulus (GPa) = 26.16767 29.80173 27.98470
# Shear Modulus (GPa) = 36.92309 16.63488 26.77899
#
# Velocity S-wave (km/s) = 4.22100 2.83319 3.59471
# Velocity P-wave (km/s) = 6.03181 5.00831 5.54373
#
# Compressibility (1/GPa) = 0.03821509
#
# Stress axis : x y z
#
# Youngs Moduli (GPa) = 48.93944 40.83696 37.47092
#
# Poissons Ratio (x) = 0.40000 -0.23998
# Poissons Ratio (y) = 0.47937 0.49859
# Poissons Ratio (z) = -0.31343 0.54338
#
# Static dielectric constant tensor:
#      x y z
#    x 1.744770 0.000000 0.000000 
#    y 0.000000 1.693890 0.000000 
#    z 0.000000 0.000000 1.745650 
# 
# From -- ./inp_files/29941.got.cif
#   From: 2010.05.17/outbox.cif.g08.bks.cpg/sg62_15_cif.got.tgz:29941.got - 2010.06.03 15:25:27.
