data_PCOD9465237
_publ_section_title
;
Structure prediction by ZEFSAII (Michael W. Deem and Ramdas Pophale) SiO2 
 PCOD9465237
Probable space group: P N M A
;
_chemical_formula_sum "Si O2"
_cell_formula_units_Z 32
_cell_length_a 5.166989
_cell_length_b 8.290595
_cell_length_c 28.145519
_cell_angle_alpha 90.000000
_cell_angle_beta 90.000000
_cell_angle_gamma 90.000000
_cell_volume 1205.681226
_symmetry_space_group_name_H-M "P N M A"
_symmetry_group_IT_number 62
_symmetry_cell_setting 'orthorhombic'
loop_
_space_group_symop_operation_xyz
x,y,z
1/2-x,-y,1/2+z
1/2+x,1/2-y,1/2-z
-x,1/2+y,-z
-x,-y,-z
1/2+x,y,1/2-z
1/2-x,1/2+y,1/2+z
x,1/2-y,z
loop_
_atom_site_type_symbol
_atom_site_label
_atom_site_fract_x
_atom_site_fract_y
_atom_site_fract_z
Si Si1 0.893477 0.425277 0.647988
Si Si2 0.025579 0.750000 0.934102
Si Si3 0.464432 0.250000 0.130184
Si Si4 0.782571 0.064236 0.536153
Si Si5 0.465512 0.444830 0.281413
O O1 0.985185 0.250000 0.663867
O O2 0.053559 0.586648 0.659794
O O3 0.610447 0.460838 0.670310
O O4 0.888484 0.424827 0.590553
O O5 0.254092 0.750000 0.894363
O O6 0.073630 0.579431 0.959804
O O7 0.749928 0.750000 0.909855
O O8 0.711806 0.250000 0.524987
O O9 0.000000 0.000000 0.500000
O O10 0.218414 0.487134 0.248183
O O11 0.461891 0.250000 0.289523
#
# Coordination Sequence:
#
# PCOD9465237 Si02
#       5
#     8   4   4   8   8
#     4  10  22  41  67  98 134 176 224 276 336 402
#     4  10  22  40  64  91 130 174 212 273 326 384
#     4  10  22  42  64  93 130 170 214 265 334 386
#     4  10  20  38  68  99 136 177 231 278 338 404
#     4  10  22  41  66  97 131 172 219 272 334 402
#
# _framework density 26.541011000000001
#
# number of rings (size 3 to 8) (size 9 to 14) (size 15 to 20)
#    0.000    2.000    2.500    0.000    0.000    6.000 
#    0.000   10.000    0.000    0.000    0.000    0.000 
#    0.000    0.000    0.000    0.000    0.000    0.000 
#
# Total GULP energy -179208.173158 kJ/mol
# GULP energy per Si atom -5600.255411 kJ/mol
# Density = 2.648060 g / cm^3
# Si number density = 26.541011 Si / 1000 Ang^3
#
#
#
# Elastic Constant Matrix: (Units=GPa)
#
#
# Indices 1 2 3 4 5 6 
#
# 1 84.5743 29.6509 30.5986 0.0000 0.0000 0.0000
# 2 29.6509 251.6240 21.5747 0.0000 0.0000 0.0000
# 3 30.5986 21.5747 120.0717 0.0000 0.0000 0.0000
# 4 0.0000 0.0000 0.0000 31.1908 0.0000 0.0000
# 5 0.0000 0.0000 0.0000 0.0000 47.3167 0.0000
# 6 0.0000 0.0000 0.0000 0.0000 0.0000 29.0229
#
#
#
# Elastic Compliance Matrix: (Units=1/GPa)
#
#
# Indices 1 2 3 4 5 6 
#
# 1 0.013437 -0.001310 -0.003189 0.000000 0.000000 0.000000
# 2 -0.001310 0.004164 -0.000414 0.000000 0.000000 0.000000
# 3 -0.003189 -0.000414 0.009215 0.000000 0.000000 0.000000
# 4 0.000000 0.000000 0.000000 0.032061 0.000000 0.000000
# 5 0.000000 0.000000 0.000000 0.000000 0.021134 0.000000
# 6 0.000000 0.000000 0.000000 0.000000 0.000000 0.034456
#
#
# Mechanical properties :
#
#
# Convention : Reuss Voigt Hill
#
# Bulk Modulus (GPa) = 58.85792 68.87980 63.86886
# Shear Modulus (GPa) = 38.47439 46.46913 42.47176
#
# Velocity S-wave (km/s) = 3.81152 4.18885 4.00463
# Velocity P-wave (km/s) = 6.44939 7.02878 6.74531
#
# Compressibility (1/GPa) = 0.01699007
#
# Stress axis : x y z
#
# Youngs Moduli (GPa) = 74.42200 240.14923 108.51352
#
# Poissons Ratio (x) = 0.31459 0.34603
# Poissons Ratio (y) = 0.09749 0.04497
# Poissons Ratio (z) = 0.23732 0.09951
#
# Static dielectric constant tensor:
#      x y z
#    x 2.090650 0.000000 0.000000 
#    y 0.000000 2.108270 0.000000 
#    z 0.000000 0.000000 2.190990 
# 
# From -- ./inp_files/31422.got.cif
#   From: 2010.05.17/outbox.cif.g08.bks.cpg/sg62_16_cif.got.tgz:31422.got - 2010.06.03 15:25:27.
