data_PCOD9465191
_publ_section_title
;
Structure prediction by ZEFSAII (Michael W. Deem and Ramdas Pophale) SiO2 
 PCOD9465191
Probable space group: P N M A
;
_chemical_formula_sum "Si O2"
_cell_formula_units_Z 32
_cell_length_a 4.863663
_cell_length_b 7.837570
_cell_length_c 33.582617
_cell_angle_alpha 90.000000
_cell_angle_beta 90.000000
_cell_angle_gamma 90.000000
_cell_volume 1280.145826
_symmetry_space_group_name_H-M "P N M A"
_symmetry_group_IT_number 62
_symmetry_cell_setting 'orthorhombic'
loop_
_space_group_symop_operation_xyz
x,y,z
1/2-x,-y,1/2+z
1/2+x,1/2-y,1/2-z
-x,1/2+y,-z
-x,-y,-z
1/2+x,y,1/2-z
1/2-x,1/2+y,1/2+z
x,1/2-y,z
loop_
_atom_site_type_symbol
_atom_site_label
_atom_site_fract_x
_atom_site_fract_y
_atom_site_fract_z
Si Si1 0.346928 0.750000 0.720292
Si Si2 0.107888 0.446249 0.669376
Si Si3 0.769425 0.750000 0.222352
Si Si4 0.353133 0.445803 0.912563
Si Si5 0.152163 0.056752 0.039994
O O1 0.136718 0.750000 0.757634
O O2 0.285456 0.584389 0.692859
O O3 0.222886 0.250000 0.662403
O O4 0.839552 0.407621 0.696543
O O5 0.001974 0.512464 0.627006
O O6 0.573849 0.750000 0.261325
O O7 0.274533 0.250000 0.904811
O O8 0.580800 0.452234 0.947288
O O9 0.080016 0.540697 0.925999
O O10 0.245284 0.250000 0.035702
O O11 0.000000 0.000000 0.000000
#
# Coordination Sequence:
#
# PCOD9465191 Si02
#       5
#     4   8   4   8   8
#     4  12  26  42  66  98 131 174 227 280 332 396
#     4   9  24  44  67  97 133 179 219 277 335 400
#     4  10  20  38  64  90 125 170 219 266 324 386
#     4  11  24  46  70 101 136 180 226 277 340 408
#     4  12  26  44  71 101 138 178 223 279 335 405
#
# _framework density 24.997150000000001
#
# number of rings (size 3 to 8) (size 9 to 14) (size 15 to 20)
#    0.750    0.500    0.000    5.250    3.500    4.000 
#    0.000    0.000    0.000    0.000    0.000    0.000 
#    0.000    0.000    0.000    0.000    0.000    0.000 
#
# Total GULP energy -179212.836126 kJ/mol
# GULP energy per Si atom -5600.401129 kJ/mol
# Density = 2.494026 g / cm^3
# Si number density = 24.997150 Si / 1000 Ang^3
#
#
#
# Elastic Constant Matrix: (Units=GPa)
#
#
# Indices 1 2 3 4 5 6 
#
# 1 82.6179 8.9389 1.5270 0.0000 0.0000 0.0000
# 2 8.9389 108.3651 4.7963 0.0000 0.0000 0.0000
# 3 1.5270 4.7963 76.7781 0.0000 0.0000 0.0000
# 4 0.0000 0.0000 0.0000 42.3993 0.0000 0.0000
# 5 0.0000 0.0000 0.0000 0.0000 22.3273 0.0000
# 6 0.0000 0.0000 0.0000 0.0000 0.0000 23.2283
#
#
#
# Elastic Compliance Matrix: (Units=1/GPa)
#
#
# Indices 1 2 3 4 5 6 
#
# 1 0.012215 -0.001000 -0.000180 0.000000 0.000000 0.000000
# 2 -0.001000 0.009335 -0.000563 0.000000 0.000000 0.000000
# 3 -0.000180 -0.000563 0.013063 0.000000 0.000000 0.000000
# 4 0.000000 0.000000 0.000000 0.023585 0.000000 0.000000
# 5 0.000000 0.000000 0.000000 0.000000 0.044788 0.000000
# 6 0.000000 0.000000 0.000000 0.000000 0.000000 0.043051
#
#
# Mechanical properties :
#
#
# Convention : Reuss Voigt Hill
#
# Bulk Modulus (GPa) = 32.12615 33.14285 32.63450
# Shear Modulus (GPa) = 31.26929 34.42424 32.84676
#
# Velocity S-wave (km/s) = 3.54066 3.71499 3.62887
# Velocity P-wave (km/s) = 5.44012 5.62930 5.53552
#
# Compressibility (1/GPa) = 0.03112729
#
# Stress axis : x y z
#
# Youngs Moduli (GPa) = 81.86385 107.11854 76.55020
#
# Poissons Ratio (x) = 0.10708 0.01382
# Poissons Ratio (y) = 0.08183 0.04312
# Poissons Ratio (z) = 0.01478 0.06034
#
# Static dielectric constant tensor:
#      x y z
#    x 1.972620 0.000000 0.000000 
#    y 0.000000 2.344570 0.000000 
#    z 0.000000 0.000000 2.015960 
# 
# From -- ./inp_files/31431.got.cif
#   From: 2010.05.17/outbox.cif.g08.bks.cpg/sg62_16_cif.got.tgz:31431.got - 2010.06.03 15:25:27.
