data_PCOD9465958
_publ_section_title
;
Structure prediction by ZEFSAII (Michael W. Deem and Ramdas Pophale) SiO2 
 PCOD9465958
Probable space group: P N M A
;
_chemical_formula_sum "Si O2"
_cell_formula_units_Z 64
_cell_length_a 18.282910
_cell_length_b 8.793285
_cell_length_c 20.716584
_cell_angle_alpha 90.000000
_cell_angle_beta 90.000000
_cell_angle_gamma 90.000000
_cell_volume 3330.539709
_symmetry_space_group_name_H-M "P N M A"
_symmetry_group_IT_number 62
_symmetry_cell_setting 'orthorhombic'
loop_
_space_group_symop_operation_xyz
x,y,z
1/2-x,-y,1/2+z
1/2+x,1/2-y,1/2-z
-x,1/2+y,-z
-x,-y,-z
1/2+x,y,1/2-z
1/2-x,1/2+y,1/2+z
x,1/2-y,z
loop_
_atom_site_type_symbol
_atom_site_label
_atom_site_fract_x
_atom_site_fract_y
_atom_site_fract_z
Si Si1 0.969234 0.430532 0.824978
Si Si2 0.955593 0.569093 0.686427
Si Si3 0.782435 0.930758 0.698443
Si Si4 0.303317 0.431069 0.051983
Si Si5 0.448245 0.431084 0.444875
Si Si6 0.204153 0.930498 0.162617
Si Si7 0.962809 0.568828 0.436436
Si Si8 0.290354 0.931781 0.426911
O O1 0.983162 0.250000 0.828351
O O2 0.981150 0.492109 0.752946
O O3 0.883309 0.456339 0.840707
O O4 0.018181 0.517705 0.876540
O O5 0.967866 0.750000 0.689083
O O6 0.868125 0.543380 0.681610
O O7 0.996543 0.497578 0.625967
O O8 0.770576 0.750000 0.703642
O O9 0.769900 0.008658 0.767685
O O10 0.734043 0.999818 0.641448
O O11 0.315380 0.250000 0.056193
O O12 0.245268 0.482952 0.105686
O O13 0.378668 0.517853 0.063559
O O14 0.270259 0.465638 0.981443
O O15 0.500000 0.500000 0.500000
O O16 0.446682 0.250000 0.450618
O O17 0.366850 0.497418 0.449332
O O18 0.217088 0.750000 0.157773
O O19 0.968920 0.750000 0.437234
O O20 0.000000 0.500000 0.500000
O O21 0.297630 0.750000 0.421877
#
# Coordination Sequence:
#
# PCOD9465958 Si02
#       8
#     8   8   8   8   8   8   8   8
#     4  10  21  39  63  91 123 158 198 243 294 352
#     4  10  21  39  63  91 123 158 198 243 294 352
#     4  10  21  38  62  90 121 157 196 241 292 349
#     4  11  24  41  62  88 119 155 197 245 296 352
#     4  12  25  41  62  88 120 157 199 246 297 353
#     4  10  21  38  62  90 121 157 196 241 292 349
#     4  12  25  41  62  88 120 157 199 246 297 353
#     4  11  24  41  62  88 119 155 197 245 296 352
#
# _framework density 19.216106
#
# number of rings (size 3 to 8) (size 9 to 14) (size 15 to 20)
#    0.000    1.250    0.000    6.000    0.000   10.000 
#    0.000    5.000    0.000    0.000    0.000    0.000 
#    0.000    0.000    0.000    0.000    0.000    0.000 
#
# Total GULP energy -358128.387985 kJ/mol
# GULP energy per Si atom -5595.756062 kJ/mol
# Density = 1.917237 g / cm^3
# Si number density = 19.216106 Si / 1000 Ang^3
#
#
#
# Elastic Constant Matrix: (Units=GPa)
#
#
# Indices 1 2 3 4 5 6 
#
# 1 18.5508 10.4002 -3.7754 0.0000 0.0000 0.0000
# 2 10.4002 58.6969 0.2601 0.0000 0.0000 0.0000
# 3 -3.7754 0.2601 51.3364 0.0000 0.0000 0.0000
# 4 0.0000 0.0000 0.0000 37.8192 0.0000 0.0000
# 5 0.0000 0.0000 0.0000 0.0000 36.9425 0.0000
# 6 0.0000 0.0000 0.0000 0.0000 0.0000 33.6173
#
#
#
# Elastic Compliance Matrix: (Units=1/GPa)
#
#
# Indices 1 2 3 4 5 6 
#
# 1 0.060888 -0.010809 0.004533 0.000000 0.000000 0.000000
# 2 -0.010809 0.018956 -0.000891 0.000000 0.000000 0.000000
# 3 0.004533 -0.000891 0.019817 0.000000 0.000000 0.000000
# 4 0.000000 0.000000 0.000000 0.026442 0.000000 0.000000
# 5 0.000000 0.000000 0.000000 0.000000 0.027069 0.000000
# 6 0.000000 0.000000 0.000000 0.000000 0.000000 0.029747
#
#
# Mechanical properties :
#
#
# Convention : Reuss Voigt Hill
#
# Bulk Modulus (GPa) = 11.71957 15.81710 13.76834
# Shear Modulus (GPa) = 22.15382 29.78907 25.97145
#
# Velocity S-wave (km/s) = 3.39909 3.94155 3.68033
# Velocity P-wave (km/s) = 4.63866 5.38177 5.02397
#
# Compressibility (1/GPa) = 0.08532735
#
# Stress axis : x y z
#
# Youngs Moduli (GPa) = 16.42355 52.75445 50.46117
#
# Poissons Ratio (x) = 0.57020 -0.22872
# Poissons Ratio (y) = 0.17751 0.04496
# Poissons Ratio (z) = -0.07444 0.04700
#
# Static dielectric constant tensor:
#      x y z
#    x 1.649330 0.000000 0.000000 
#    y 0.000000 1.635040 0.000000 
#    z 0.000000 0.000000 1.642620 
# 
# From -- ./inp_files/27678.got.cif
#   From: 2010.05.17/outbox.cif.g08.bks.cpg/sg62_14_cif.got.tgz:27678.got - 2010.06.03 15:25:27.
