data_PCOD9465623
_publ_section_title
;
Structure prediction by ZEFSAII (Michael W. Deem and Ramdas Pophale) SiO2 
 PCOD9465623
Probable space group: P N M A
;
_chemical_formula_sum "Si O2"
_cell_formula_units_Z 48
_cell_length_a 18.876385
_cell_length_b 13.423924
_cell_length_c 8.821331
_cell_angle_alpha 90.000000
_cell_angle_beta 90.000000
_cell_angle_gamma 90.000000
_cell_volume 2235.282559
_symmetry_space_group_name_H-M "P N M A"
_symmetry_group_IT_number 62
_symmetry_cell_setting 'orthorhombic'
loop_
_space_group_symop_operation_xyz
x,y,z
1/2-x,-y,1/2+z
1/2+x,1/2-y,1/2-z
-x,1/2+y,-z
-x,-y,-z
1/2+x,y,1/2-z
1/2-x,1/2+y,1/2+z
x,1/2-y,z
loop_
_atom_site_type_symbol
_atom_site_label
_atom_site_fract_x
_atom_site_fract_y
_atom_site_fract_z
Si Si1 0.201947 0.629996 0.215665
Si Si2 0.143494 0.861977 0.698271
Si Si3 0.467154 0.995673 0.280633
Si Si4 0.276032 0.557441 0.525257
Si Si5 0.055767 0.637849 0.385441
Si Si6 0.065722 0.366640 0.061421
O O1 0.213306 0.750000 0.197839
O O2 0.247387 0.587761 0.358707
O O3 0.220374 0.559619 0.072473
O O4 0.119646 0.615524 0.266128
O O5 0.141161 0.750000 0.762507
O O6 0.220678 0.890941 0.640928
O O7 0.093785 0.864568 0.547990
O O8 0.107744 0.949041 0.794724
O O9 0.489088 0.933590 0.134383
O O10 0.470704 0.914850 0.414002
O O11 0.525867 0.080461 0.301048
O O12 0.352404 0.604769 0.553748
O O13 0.031840 0.750000 0.357759
O O14 0.055919 0.250000 0.065950
#
# Coordination Sequence:
#
# PCOD9465623 Si02
#       6
#     8   8   8   8   8   8
#     4  10  21  39  63  90 123 164 209 254 310 371
#     4  10  21  36  59  85 116 158 198 243 301 358
#     4  11  21  37  58  87 116 151 198 252 296 356
#     4  11  21  41  64  88 125 166 206 253 305 367
#     4   9  18  36  60  84 114 153 191 241 306 361
#     4  11  23  37  57  85 118 156 198 246 302 357
#
# _framework density 21.473794999999999
#
# number of rings (size 3 to 8) (size 9 to 14) (size 15 to 20)
#    0.000    1.667    1.667    5.000    0.000    0.000 
#    0.000    5.833    0.000    0.000    0.000    0.000 
#    0.000    0.000    0.000    0.000    0.000    0.000 
#
# Total GULP energy -268064.420983 kJ/mol
# GULP energy per Si atom -5584.675437 kJ/mol
# Density = 2.142492 g / cm^3
# Si number density = 21.473795 Si / 1000 Ang^3
#
#
#
# Elastic Constant Matrix: (Units=GPa)
#
#
# Indices 1 2 3 4 5 6 
#
# 1 82.5982 29.3033 1.3167 0.0000 0.0000 0.0000
# 2 29.3033 170.8182 29.9932 0.0000 0.0000 0.0000
# 3 1.3167 29.9932 29.6119 0.0000 0.0000 0.0000
# 4 0.0000 0.0000 0.0000 31.1312 0.0000 0.0000
# 5 0.0000 0.0000 0.0000 0.0000 22.0320 0.0000
# 6 0.0000 0.0000 0.0000 0.0000 0.0000 30.4249
#
#
#
# Elastic Compliance Matrix: (Units=1/GPa)
#
#
# Indices 1 2 3 4 5 6 
#
# 1 0.012992 -0.002588 0.002043 0.000000 0.000000 0.000000
# 2 -0.002588 0.007636 -0.007619 0.000000 0.000000 0.000000
# 3 0.002043 -0.007619 0.041397 0.000000 0.000000 0.000000
# 4 0.000000 0.000000 0.000000 0.032122 0.000000 0.000000
# 5 0.000000 0.000000 0.000000 0.000000 0.045389 0.000000
# 6 0.000000 0.000000 0.000000 0.000000 0.000000 0.032868
#
#
# Mechanical properties :
#
#
# Convention : Reuss Voigt Hill
#
# Bulk Modulus (GPa) = 21.88298 44.91720 33.40009
# Shear Modulus (GPa) = 24.51428 31.54529 28.02978
#
# Velocity S-wave (km/s) = 3.38241 3.83693 3.61682
# Velocity P-wave (km/s) = 5.04648 6.37118 5.74713
#
# Compressibility (1/GPa) = 0.04569762
#
# Stress axis : x y z
#
# Youngs Moduli (GPa) = 76.96927 130.96086 24.15658
#
# Poissons Ratio (x) = 0.33886 -0.04936
# Poissons Ratio (y) = 0.19916 0.18405
# Poissons Ratio (z) = -0.15726 0.99781
#
# Static dielectric constant tensor:
#      x y z
#    x 1.755750 0.000000 0.000000 
#    y 0.000000 1.782520 0.000000 
#    z 0.000000 0.000000 1.844270 
# 
# From -- ./inp_files/14115.got.cif
#   From: 2010.05.17/outbox.cif.g08.bks.cpg/sg62_8_cif.got.tgz:14115.got - 2010.06.03 15:25:27.
