data_PCOD9465663
_publ_section_title
;
Structure prediction by ZEFSAII (Michael W. Deem and Ramdas Pophale) SiO2 
 PCOD9465663
Probable space group: P N M A
;
_chemical_formula_sum "Si O2"
_cell_formula_units_Z 48
_cell_length_a 30.274699
_cell_length_b 8.625567
_cell_length_c 10.490089
_cell_angle_alpha 90.000000
_cell_angle_beta 90.000000
_cell_angle_gamma 90.000000
_cell_volume 2739.344545
_symmetry_space_group_name_H-M "P N M A"
_symmetry_group_IT_number 62
_symmetry_cell_setting 'orthorhombic'
loop_
_space_group_symop_operation_xyz
x,y,z
1/2-x,-y,1/2+z
1/2+x,1/2-y,1/2-z
-x,1/2+y,-z
-x,-y,-z
1/2+x,y,1/2-z
1/2-x,1/2+y,1/2+z
x,1/2-y,z
loop_
_atom_site_type_symbol
_atom_site_label
_atom_site_fract_x
_atom_site_fract_y
_atom_site_fract_z
Si Si1 0.115268 0.936754 0.523174
Si Si2 0.215290 0.562536 0.224025
Si Si3 0.615377 0.561704 0.272490
Si Si4 0.026953 0.064861 0.620059
Si Si5 0.976311 0.437436 0.875723
Si Si6 0.283693 0.062953 0.018240
O O1 0.112378 0.750000 0.531334
O O2 0.106670 0.980098 0.375190
O O3 0.165777 0.982526 0.551264
O O4 0.077345 0.009612 0.608756
O O5 0.215926 0.750000 0.221954
O O6 0.164936 0.510856 0.193889
O O7 0.225075 0.514934 0.370928
O O8 0.249470 0.501197 0.120490
O O9 0.615907 0.750000 0.275641
O O10 0.574467 0.509324 0.358030
O O11 0.025096 0.250000 0.615022
O O12 0.003387 0.013938 0.750111
O O13 0.000000 0.000000 0.500000
O O14 0.976116 0.250000 0.879546
O O15 0.000000 0.500000 0.000000
O O16 0.282182 0.250000 0.020183
#
# Coordination Sequence:
#
# PCOD9465663 Si02
#       6
#     8   8   8   8   8   8
#     4   9  17  34  57  78 103 136 177 220 260 308
#     4   9  18  34  57  78 102 138 176 215 259 312
#     4   8  15  33  56  74  99 139 177 209 255 309
#     4  11  21  34  56  82 107 136 173 218 262 308
#     4  10  21  37  54  75 107 141 174 214 259 310
#     4   9  19  35  55  79 107 138 173 217 265 311
#
# _framework density 17.52244
#
# number of rings (size 3 to 8) (size 9 to 14) (size 15 to 20)
#    0.000    2.667    1.667    2.500    0.000    2.667 
#    3.000    3.333    0.000    0.000    0.000    0.000 
#    0.000    0.000    0.000    0.000    0.000    0.000 
#
# Total GULP energy -267591.657011 kJ/mol
# GULP energy per Si atom -5574.826188 kJ/mol
# Density = 1.748256 g / cm^3
# Si number density = 17.522440 Si / 1000 Ang^3
#
#
#
# Elastic Constant Matrix: (Units=GPa)
#
#
# Indices 1 2 3 4 5 6 
#
# 1 167.3973 29.6723 103.2133 0.0000 0.0000 0.0000
# 2 29.6723 11.2214 27.2968 0.0000 0.0000 0.0000
# 3 103.2133 27.2968 126.4890 0.0000 0.0000 0.0000
# 4 0.0000 0.0000 0.0000 30.0706 0.0000 0.0000
# 5 0.0000 0.0000 0.0000 0.0000 37.2664 0.0000
# 6 0.0000 0.0000 0.0000 0.0000 0.0000 31.6930
#
#
#
# Elastic Compliance Matrix: (Units=1/GPa)
#
#
# Indices 1 2 3 4 5 6 
#
# 1 0.013716 -0.019036 -0.007084 0.000000 0.000000 0.000000
# 2 -0.019036 0.214013 -0.030651 0.000000 0.000000 0.000000
# 3 -0.007084 -0.030651 0.020301 0.000000 0.000000 0.000000
# 4 0.000000 0.000000 0.000000 0.033255 0.000000 0.000000
# 5 0.000000 0.000000 0.000000 0.000000 0.026834 0.000000
# 6 0.000000 0.000000 0.000000 0.000000 0.000000 0.031553
#
#
# Mechanical properties :
#
#
# Convention : Reuss Voigt Hill
#
# Bulk Modulus (GPa) = 7.43567 69.49695 38.46631
# Shear Modulus (GPa) = 10.03927 29.46771 19.75349
#
# Velocity S-wave (km/s) = 2.39621 4.10532 3.36121
# Velocity P-wave (km/s) = 3.45087 7.88792 6.08801
#
# Compressibility (1/GPa) = 0.13448688
#
# Stress axis : x y z
#
# Youngs Moduli (GPa) = 72.90815 4.67260 49.25910
#
# Poissons Ratio (x) = 0.08895 0.34894
# Poissons Ratio (y) = 1.38791 1.50986
# Poissons Ratio (z) = 0.51647 0.14322
#
# Static dielectric constant tensor:
#      x y z
#    x 1.610160 0.000000 0.000000 
#    y 0.000000 1.601820 0.000000 
#    z 0.000000 0.000000 1.570100 
# 
# From -- ./inp_files/10248.got.cif
#   From: 2010.05.17/outbox.cif.g08.bks.cpg/sg62_6_cif.got.tgz:10248.got - 2010.06.03 15:25:27.
