data_PCOD9465428
_publ_section_title
;
Structure prediction by ZEFSAII (Michael W. Deem and Ramdas Pophale) SiO2 
 PCOD9465428
Probable space group: P N M A
;
_chemical_formula_sum "Si O2"
_cell_formula_units_Z 60
_cell_length_a 17.205602
_cell_length_b 24.913912
_cell_length_c 6.492882
_cell_angle_alpha 90.000000
_cell_angle_beta 90.000000
_cell_angle_gamma 90.000000
_cell_volume 2783.231358
_symmetry_space_group_name_H-M "P N M A"
_symmetry_group_IT_number 62
_symmetry_cell_setting 'orthorhombic'
loop_
_space_group_symop_operation_xyz
x,y,z
1/2-x,-y,1/2+z
1/2+x,1/2-y,1/2-z
-x,1/2+y,-z
-x,-y,-z
1/2+x,y,1/2-z
1/2-x,1/2+y,1/2+z
x,1/2-y,z
loop_
_atom_site_type_symbol
_atom_site_label
_atom_site_fract_x
_atom_site_fract_y
_atom_site_fract_z
Si Si1 0.772692 0.650181 0.928854
Si Si2 0.450844 0.115738 0.510704
Si Si3 0.389950 0.904085 0.278905
Si Si4 0.689481 0.057473 0.113805
Si Si5 0.157552 0.250000 0.307796
Si Si6 0.872021 0.311628 0.680538
Si Si7 0.502749 0.192498 0.158650
Si Si8 0.649259 0.511053 0.470656
O O1 0.775756 0.598600 0.781581
O O2 0.789219 0.702804 0.796236
O O3 0.839349 0.640663 0.101227
O O4 0.692710 0.657382 0.050257
O O5 0.520938 0.107018 0.670831
O O6 0.390003 0.157178 0.610486
O O7 0.486582 0.143083 0.308022
O O8 0.408012 0.059639 0.479323
O O9 0.368544 0.961141 0.382332
O O10 0.364858 0.911114 0.044550
O O11 0.642908 0.012017 0.239345
O O12 0.762445 0.030999 0.998524
O O13 0.093080 0.296254 0.383485
O O14 0.847343 0.250000 0.716803
O O15 0.949805 0.310719 0.541949
O O16 0.480223 0.250000 0.267949
#
# Coordination Sequence:
#
# PCOD9465428 Si02
#       8
#     8   8   8   8   4   8   8   8
#     4  11  23  43  66  95 130 170 216 265 314 388
#     4  12  24  39  65  95 127 170 214 264 324 388
#     4  11  24  42  66  95 125 170 216 262 324 380
#     4  11  24  41  66  89 124 169 210 265 324 376
#     4  10  20  42  68  90 134 172 208 268 322 366
#     4  11  24  38  65  95 131 171 220 259 321 382
#     4   9  21  41  61  89 131 171 203 266 320 369
#     4  11  24  42  64  90 128 165 212 271 319 376
#
# _framework density 21.557673999999999
#
# number of rings (size 3 to 8) (size 9 to 14) (size 15 to 20)
#    0.400    0.800    3.333    2.400    3.733    1.600 
#    0.000    0.667    0.000    0.000    0.000    0.000 
#    0.000    0.000    0.000    0.000    0.000    0.000 
#
# Total GULP energy -334334.204721 kJ/mol
# GULP energy per Si atom -5572.236745 kJ/mol
# Density = 2.150861 g / cm^3
# Si number density = 21.557674 Si / 1000 Ang^3
#
#
#
# Elastic Constant Matrix: (Units=GPa)
#
#
# Indices 1 2 3 4 5 6 
#
# 1 12.5427 7.3240 3.4800 0.0000 0.0000 0.0000
# 2 7.3240 90.6510 7.0806 0.0000 0.0000 0.0000
# 3 3.4800 7.0806 25.9557 0.0000 0.0000 0.0000
# 4 0.0000 0.0000 0.0000 27.8912 0.0000 0.0000
# 5 0.0000 0.0000 0.0000 0.0000 10.2896 0.0000
# 6 0.0000 0.0000 0.0000 0.0000 0.0000 40.3576
#
#
#
# Elastic Compliance Matrix: (Units=1/GPa)
#
#
# Indices 1 2 3 4 5 6 
#
# 1 0.086073 -0.006184 -0.009853 0.000000 0.000000 0.000000
# 2 -0.006184 0.011716 -0.002367 0.000000 0.000000 0.000000
# 3 -0.009853 -0.002367 0.040494 0.000000 0.000000 0.000000
# 4 0.000000 0.000000 0.000000 0.035854 0.000000 0.000000
# 5 0.000000 0.000000 0.000000 0.000000 0.097185 0.000000
# 6 0.000000 0.000000 0.000000 0.000000 0.000000 0.024778
#
#
# Mechanical properties :
#
#
# Convention : Reuss Voigt Hill
#
# Bulk Modulus (GPa) = 9.85476 18.32428 14.08952
# Shear Modulus (GPa) = 13.63390 23.12534 18.37962
#
# Velocity S-wave (km/s) = 2.51756 3.27879 2.92306
# Velocity P-wave (km/s) = 3.61000 4.78043 4.23584
#
# Compressibility (1/GPa) = 0.10147377
#
# Stress axis : x y z
#
# Youngs Moduli (GPa) = 11.61809 85.35444 24.69510
#
# Poissons Ratio (x) = 0.52787 0.24332
# Poissons Ratio (y) = 0.07185 0.05845
# Poissons Ratio (z) = 0.11447 0.20202
#
# Static dielectric constant tensor:
#      x y z
#    x 1.781060 0.000000 0.000000 
#    y 0.000000 1.763350 0.000000 
#    z 0.000000 0.000000 1.806470 
# 
# From -- ./inp_files/1824.got.cif
#   From: 2010.05.17/outbox.cif.g08.bks.cpg/sg62_1_cif.got.tgz:1824.got - 2010.06.03 15:25:27.
