data_PCOD9466913
_publ_section_title
;
Structure prediction by ZEFSAII (Michael W. Deem and Ramdas Pophale) SiO2 
 PCOD9466913
Probable space group: P N M A
;
_chemical_formula_sum "Si O2"
_cell_formula_units_Z 64
_cell_length_a 8.149925
_cell_length_b 23.775992
_cell_length_c 15.525930
_cell_angle_alpha 90.000000
_cell_angle_beta 90.000000
_cell_angle_gamma 90.000000
_cell_volume 3008.499072
_symmetry_space_group_name_H-M "P N M A"
_symmetry_group_IT_number 62
_symmetry_cell_setting 'orthorhombic'
loop_
_space_group_symop_operation_xyz
x,y,z
1/2-x,-y,1/2+z
1/2+x,1/2-y,1/2-z
-x,1/2+y,-z
-x,-y,-z
1/2+x,y,1/2-z
1/2-x,1/2+y,1/2+z
x,1/2-y,z
loop_
_atom_site_type_symbol
_atom_site_label
_atom_site_fract_x
_atom_site_fract_y
_atom_site_fract_z
Si Si1 0.295006 0.816182 0.997904
Si Si2 0.144381 0.015862 0.936844
Si Si3 0.190304 0.815414 0.514633
Si Si4 0.771041 0.892952 0.828526
Si Si5 0.652486 0.898895 0.641172
Si Si6 0.129467 0.985602 0.574836
Si Si7 0.255690 0.115246 0.845062
Si Si8 0.350333 0.605698 0.154024
O O1 0.254608 0.750000 0.000887
O O2 0.189503 0.850767 0.928533
O O3 0.491481 0.821577 0.981481
O O4 0.279142 0.849342 0.087219
O O5 0.217088 0.958460 0.897320
O O6 0.137151 0.061752 0.863645
O O7 0.252707 0.046902 0.008556
O O8 0.000000 0.000000 0.000000
O O9 0.230425 0.750000 0.514075
O O10 0.250836 0.843374 0.602837
O O11 0.258747 0.841288 0.424487
O O12 0.739954 0.880220 0.728831
O O13 0.631071 0.940321 0.849603
O O14 0.960444 0.911391 0.840672
O O15 0.195301 0.043263 0.617708
O O16 0.000000 0.000000 0.500000
O O17 0.450622 0.101414 0.845749
O O18 0.209800 0.127011 0.746698
#
# Coordination Sequence:
#
# PCOD9466913 Si02
#       8
#     8   8   8   8   8   8   8   8
#     4  10  23  45  69  91 123 170 220 274 331 386
#     4  12  23  40  65  94 131 169 212 261 318 383
#     4  10  22  45  69  90 123 168 217 274 330 385
#     4  12  26  42  65  99 131 172 216 266 327 390
#     4  12  26  41  65  96 132 169 217 268 323 393
#     4  12  22  40  67  92 131 173 210 258 322 380
#     4  11  24  40  62  97 131 169 215 264 323 387
#     4  11  24  39  64  95 131 170 214 266 323 388
#
# _framework density 21.273067000000001
#
# number of rings (size 3 to 8) (size 9 to 14) (size 15 to 20)
#    0.000    0.750    5.000    2.250    3.500    4.500 
#    0.000    0.000    0.000    0.000    0.000    0.000 
#    0.000    0.000    0.000    0.000    0.000    0.000 
#
# Total GULP energy -356451.999754 kJ/mol
# GULP energy per Si atom -5569.562496 kJ/mol
# Density = 2.122465 g / cm^3
# Si number density = 21.273067 Si / 1000 Ang^3
#
#
#
# Elastic Constant Matrix: (Units=GPa)
#
#
# Indices 1 2 3 4 5 6 
#
# 1 41.2516 14.4659 34.2200 0.0000 0.0000 0.0000
# 2 14.4659 127.8407 70.4768 0.0000 0.0000 0.0000
# 3 34.2200 70.4768 181.5365 0.0000 0.0000 0.0000
# 4 0.0000 0.0000 0.0000 15.1445 0.0000 0.0000
# 5 0.0000 0.0000 0.0000 0.0000 42.9216 0.0000
# 6 0.0000 0.0000 0.0000 0.0000 0.0000 18.4300
#
#
#
# Elastic Compliance Matrix: (Units=1/GPa)
#
#
# Indices 1 2 3 4 5 6 
#
# 1 0.028746 -0.000338 -0.005288 0.000000 0.000000 0.000000
# 2 -0.000338 0.009956 -0.003802 0.000000 0.000000 0.000000
# 3 -0.005288 -0.003802 0.007981 0.000000 0.000000 0.000000
# 4 0.000000 0.000000 0.000000 0.066030 0.000000 0.000000
# 5 0.000000 0.000000 0.000000 0.000000 0.023298 0.000000
# 6 0.000000 0.000000 0.000000 0.000000 0.000000 0.054259
#
#
# Mechanical properties :
#
#
# Convention : Reuss Voigt Hill
#
# Bulk Modulus (GPa) = 35.93292 65.43935 50.68614
# Shear Modulus (GPa) = 22.89354 30.73029 26.81191
#
# Velocity S-wave (km/s) = 3.28407 3.80486 3.55402
# Velocity P-wave (km/s) = 5.59536 7.08033 6.38119
#
# Compressibility (1/GPa) = 0.02782963
#
# Stress axis : x y z
#
# Youngs Moduli (GPa) = 34.78716 100.43984 125.29588
#
# Poissons Ratio (x) = 0.03393 0.66251
# Poissons Ratio (y) = 0.01175 0.47632
# Poissons Ratio (z) = 0.18394 0.38183
#
# Static dielectric constant tensor:
#      x y z
#    x 1.934380 0.000000 0.000000 
#    y 0.000000 1.749810 0.000000 
#    z 0.000000 0.000000 1.863180 
# 
# From -- ./inp_files/17356.got.cif
#   From: 2010.05.17/outbox.cif.g08.bks.cpg/sg62_9_cif.got.tgz:17356.got - 2010.06.03 15:25:27.
