data_PCOD9466875
_publ_section_title
;
Structure prediction by ZEFSAII (Michael W. Deem and Ramdas Pophale) SiO2 
 PCOD9466875
Probable space group: P N M A
;
_chemical_formula_sum "Si O2"
_cell_formula_units_Z 40
_cell_length_a 9.986063
_cell_length_b 22.773482
_cell_length_c 7.807393
_cell_angle_alpha 90.000000
_cell_angle_beta 90.000000
_cell_angle_gamma 90.000000
_cell_volume 1775.537220
_symmetry_space_group_name_H-M "P N M A"
_symmetry_group_IT_number 62
_symmetry_cell_setting 'orthorhombic'
loop_
_space_group_symop_operation_xyz
x,y,z
1/2-x,-y,1/2+z
1/2+x,1/2-y,1/2-z
-x,1/2+y,-z
-x,-y,-z
1/2+x,y,1/2-z
1/2-x,1/2+y,1/2+z
x,1/2-y,z
loop_
_atom_site_type_symbol
_atom_site_label
_atom_site_fract_x
_atom_site_fract_y
_atom_site_fract_z
Si Si1 0.378162 0.392612 0.259561
Si Si2 0.248944 0.905818 0.197527
Si Si3 0.989072 0.863601 0.072400
Si Si4 0.843481 0.490123 0.501966
Si Si5 0.886594 0.683356 0.733021
O O1 0.467832 0.411549 0.425093
O O2 0.317586 0.445544 0.154311
O O3 0.492343 0.355705 0.155301
O O4 0.257312 0.346890 0.293007
O O5 0.381122 0.880544 0.287117
O O6 0.194287 0.953505 0.332190
O O7 0.134085 0.857645 0.161276
O O8 0.282302 0.946152 0.033474
O O9 0.926037 0.817727 0.937392
O O10 0.000000 0.500000 0.500000
O O11 0.886149 0.750000 0.671271
#
# Coordination Sequence:
#
# PCOD9466875 Si02
#       5
#     8   8   8   8   8
#     4  10  23  41  65  97 125 164 219 271 316 390
#     4  12  24  42  60  95 137 176 213 265 318 404
#     4  10  25  41  64  93 133 167 219 264 326 379
#     4  12  25  36  64  95 132 175 210 257 332 387
#     4  10  22  43  69  93 122 165 221 275 322 371
#
# _framework density 22.528392
#
# number of rings (size 3 to 8) (size 9 to 14) (size 15 to 20)
#    1.200    0.000    4.000    1.800    8.400    1.600 
#    0.000    1.000    0.000    0.000    0.000    0.000 
#    0.000    0.000    0.000    0.000    0.000    0.000 
#
# Total GULP energy -222713.406573 kJ/mol
# GULP energy per Si atom -5567.835164 kJ/mol
# Density = 2.247712 g / cm^3
# Si number density = 22.528392 Si / 1000 Ang^3
#
#
#
# Elastic Constant Matrix: (Units=GPa)
#
#
# Indices 1 2 3 4 5 6 
#
# 1 138.8596 20.0126 10.4653 0.0000 0.0000 0.0000
# 2 20.0126 59.0077 3.0095 0.0000 0.0000 0.0000
# 3 10.4653 3.0095 65.7066 0.0000 0.0000 0.0000
# 4 0.0000 0.0000 0.0000 16.8238 0.0000 0.0000
# 5 0.0000 0.0000 0.0000 0.0000 45.0310 0.0000
# 6 0.0000 0.0000 0.0000 0.0000 0.0000 23.8688
#
#
#
# Elastic Compliance Matrix: (Units=1/GPa)
#
#
# Indices 1 2 3 4 5 6 
#
# 1 0.007650 -0.002538 -0.001102 0.000000 0.000000 0.000000
# 2 -0.002538 0.017829 -0.000412 0.000000 0.000000 0.000000
# 3 -0.001102 -0.000412 0.015414 0.000000 0.000000 0.000000
# 4 0.000000 0.000000 0.000000 0.059439 0.000000 0.000000
# 5 0.000000 0.000000 0.000000 0.000000 0.022207 0.000000
# 6 0.000000 0.000000 0.000000 0.000000 0.000000 0.041896
#
#
# Mechanical properties :
#
#
# Convention : Reuss Voigt Hill
#
# Bulk Modulus (GPa) = 30.49994 36.72764 33.61379
# Shear Modulus (GPa) = 27.25242 32.48383 29.86812
#
# Velocity S-wave (km/s) = 3.48184 3.80136 3.64510
# Velocity P-wave (km/s) = 5.45271 5.96702 5.71566
#
# Compressibility (1/GPa) = 0.03278694
#
# Stress axis : x y z
#
# Youngs Moduli (GPa) = 130.71154 56.08878 64.87773
#
# Poissons Ratio (x) = 0.14238 0.07151
# Poissons Ratio (y) = 0.33180 0.02675
# Poissons Ratio (z) = 0.14408 0.02313
#
# Static dielectric constant tensor:
#      x y z
#    x 1.833900 0.000000 0.000000 
#    y 0.000000 1.800420 0.000000 
#    z 0.000000 0.000000 2.186890 
# 
# From -- ./inp_files/4404.got.cif
#   From: 2010.05.17/outbox.cif.g08.bks.cpg/sg62_3_cif.got.tgz:4404.got - 2010.06.03 15:25:27.
