data_PCOD9466244
_publ_section_title
;
Structure prediction by ZEFSAII (Michael W. Deem and Ramdas Pophale) SiO2 
 PCOD9466244
Probable space group: P N M A
;
_chemical_formula_sum "Si O2"
_cell_formula_units_Z 56
_cell_length_a 14.895997
_cell_length_b 8.898824
_cell_length_c 21.951396
_cell_angle_alpha 90.000000
_cell_angle_beta 90.000000
_cell_angle_gamma 90.000000
_cell_volume 2909.808030
_symmetry_space_group_name_H-M "P N M A"
_symmetry_group_IT_number 62
_symmetry_cell_setting 'orthorhombic'
loop_
_space_group_symop_operation_xyz
x,y,z
1/2-x,-y,1/2+z
1/2+x,1/2-y,1/2-z
-x,1/2+y,-z
-x,-y,-z
1/2+x,y,1/2-z
1/2-x,1/2+y,1/2+z
x,1/2-y,z
loop_
_atom_site_type_symbol
_atom_site_label
_atom_site_fract_x
_atom_site_fract_y
_atom_site_fract_z
Si Si1 0.418414 0.568952 0.037361
Si Si2 0.806507 0.429343 0.219401
Si Si3 0.403014 0.070904 0.624615
Si Si4 0.892764 0.571391 0.099374
Si Si5 0.398221 0.571338 0.757344
Si Si6 0.282383 0.431142 0.510982
Si Si7 0.428836 0.569848 0.179409
O O1 0.423690 0.750000 0.034357
O O2 0.422349 0.526743 0.108611
O O3 0.500000 0.500000 0.000000
O O4 0.321667 0.523570 0.010686
O O5 0.818502 0.250000 0.220346
O O6 0.857080 0.498108 0.161560
O O7 0.700450 0.461681 0.216158
O O8 0.849946 0.498767 0.280066
O O9 0.396465 0.250000 0.637623
O O10 0.500685 0.042893 0.595207
O O11 0.326835 0.030557 0.575997
O O12 0.397373 0.981768 0.687387
O O13 0.879632 0.750000 0.102433
O O14 0.838942 0.504352 0.042833
O O15 0.413938 0.750000 0.760610
O O16 0.477499 0.486987 0.792466
O O17 0.287302 0.250000 0.504934
O O18 0.423433 0.750000 0.184025
#
# Coordination Sequence:
#
# PCOD9466244 Si02
#       7
#     8   8   8   8   8   8   8
#     4  10  24  43  64  90 122 163 210 259 310 365
#     4  11  24  41  62  92 128 166 207 257 314 370
#     4  10  21  40  64  92 125 162 204 253 311 371
#     4  11  23  38  61  94 125 161 207 254 310 372
#     4  11  24  39  62  93 125 163 206 253 310 370
#     4  10  22  41  63  88 123 165 206 254 311 368
#     4  11  23  42  66  93 124 163 209 257 311 368
#
# _framework density 19.245256999999999
#
# number of rings (size 3 to 8) (size 9 to 14) (size 15 to 20)
#    0.000    1.429    1.429    3.000    2.000    6.286 
#    0.000    0.000    0.000    0.000    0.000    0.000 
#    0.000    0.000    0.000    0.000    0.000    0.000 
#
# Total GULP energy -313180.782819 kJ/mol
# GULP energy per Si atom -5592.513979 kJ/mol
# Density = 1.920145 g / cm^3
# Si number density = 19.245257 Si / 1000 Ang^3
#
#
#
# Elastic Constant Matrix: (Units=GPa)
#
#
# Indices 1 2 3 4 5 6 
#
# 1 74.6526 25.1556 -10.9425 0.0000 0.0000 0.0000
# 2 25.1556 30.0396 5.8557 0.0000 0.0000 0.0000
# 3 -10.9425 5.8557 29.5398 0.0000 0.0000 0.0000
# 4 0.0000 0.0000 0.0000 26.9289 0.0000 0.0000
# 5 0.0000 0.0000 0.0000 0.0000 24.6746 0.0000
# 6 0.0000 0.0000 0.0000 0.0000 0.0000 14.6328
#
#
#
# Elastic Compliance Matrix: (Units=1/GPa)
#
#
# Indices 1 2 3 4 5 6 
#
# 1 0.022349 -0.021146 0.012471 0.000000 0.000000 0.000000
# 2 -0.021146 0.054636 -0.018664 0.000000 0.000000 0.000000
# 3 0.012471 -0.018664 0.042172 0.000000 0.000000 0.000000
# 4 0.000000 0.000000 0.000000 0.037135 0.000000 0.000000
# 5 0.000000 0.000000 0.000000 0.000000 0.040527 0.000000
# 6 0.000000 0.000000 0.000000 0.000000 0.000000 0.068340
#
#
# Mechanical properties :
#
#
# Convention : Reuss Voigt Hill
#
# Bulk Modulus (GPa) = 15.50924 19.37441 17.44182
# Shear Modulus (GPa) = 14.64856 20.85812 17.75334
#
# Velocity S-wave (km/s) = 2.76189 3.29569 3.04053
# Velocity P-wave (km/s) = 4.27164 4.95692 4.62699
#
# Compressibility (1/GPa) = 0.06447771
#
# Stress axis : x y z
#
# Youngs Moduli (GPa) = 44.74475 18.30300 23.71249
#
# Poissons Ratio (x) = 0.38704 -0.29571
# Poissons Ratio (y) = 0.94619 0.44257
# Poissons Ratio (z) = -0.55800 0.34160
#
# Static dielectric constant tensor:
#      x y z
#    x 1.661410 0.000000 0.000000 
#    y 0.000000 1.645490 0.000000 
#    z 0.000000 0.000000 1.632640 
# 
# From -- ./inp_files/27108.got.cif
#   From: 2010.05.17/outbox.cif.g08.bks.cpg/sg62_14_cif.got.tgz:27108.got - 2010.06.03 15:25:27.
