data_PCOD9466306
_publ_section_title
;
Structure prediction by ZEFSAII (Michael W. Deem and Ramdas Pophale) SiO2 
 PCOD9466306
Probable space group: P N M A
;
_chemical_formula_sum "Si O2"
_cell_formula_units_Z 40
_cell_length_a 15.250643
_cell_length_b 9.996378
_cell_length_c 10.216685
_cell_angle_alpha 90.000000
_cell_angle_beta 90.000000
_cell_angle_gamma 90.000000
_cell_volume 1557.545808
_symmetry_space_group_name_H-M "P N M A"
_symmetry_group_IT_number 62
_symmetry_cell_setting 'orthorhombic'
loop_
_space_group_symop_operation_xyz
x,y,z
1/2-x,-y,1/2+z
1/2+x,1/2-y,1/2-z
-x,1/2+y,-z
-x,-y,-z
1/2+x,y,1/2-z
1/2-x,1/2+y,1/2+z
x,1/2-y,z
loop_
_atom_site_type_symbol
_atom_site_label
_atom_site_fract_x
_atom_site_fract_y
_atom_site_fract_z
Si Si1 0.748178 0.750000 0.019055
Si Si2 0.055418 0.250000 0.020872
Si Si3 0.087735 0.750000 0.313381
Si Si4 0.473351 0.750000 0.937072
Si Si5 0.580330 0.037830 0.259462
Si Si6 0.194971 0.250000 0.618910
Si Si7 0.642681 0.750000 0.578265
Si Si8 0.715936 0.545320 0.783817
O O1 0.851670 0.750000 0.055297
O O2 0.723784 0.625295 0.922604
O O3 0.690353 0.750000 0.150169
O O4 0.067739 0.384824 0.106675
O O5 0.950759 0.250000 0.008241
O O6 0.057214 0.616129 0.244119
O O7 0.048189 0.750000 0.457947
O O8 0.474475 0.619885 0.846559
O O9 0.382762 0.750000 0.013600
O O10 0.684154 0.049126 0.229406
O O11 0.285674 0.250000 0.536679
O O12 0.187360 0.105610 0.688780
O O13 0.658429 0.624338 0.676590
#
# Coordination Sequence:
#
# PCOD9466306 Si02
#       8
#     4   4   4   4   8   4   4   8
#     4   9  21  40  60  92 125 172 211 263 323 400
#     4   9  22  42  66  81 133 171 221 256 326 395
#     4  12  23  33  68  94 128 158 217 274 345 374
#     4  11  22  36  58  97 132 161 215 268 328 396
#     4  10  21  41  58  95 129 166 209 277 319 398
#     4  12  23  41  69  99 133 172 227 266 336 400
#     4  11  23  44  69  95 129 186 217 271 342 383
#     4  10  22  41  66  90 135 175 213 273 330 396
#
# _framework density 25.681425999999998
#
# number of rings (size 3 to 8) (size 9 to 14) (size 15 to 20)
#    0.000    1.600    2.000    3.600    8.400    0.000 
#    0.000    4.000    0.000    0.000    0.000    0.000 
#    0.000    0.000    0.000    0.000    0.000    0.000 
#
# Total GULP energy -224113.279896 kJ/mol
# GULP energy per Si atom -5602.831997 kJ/mol
# Density = 2.562297 g / cm^3
# Si number density = 25.681426 Si / 1000 Ang^3
#
#
#
# Elastic Constant Matrix: (Units=GPa)
#
#
# Indices 1 2 3 4 5 6 
#
# 1 112.7843 27.1127 18.2221 0.0000 0.0000 0.0000
# 2 27.1127 238.4829 67.0536 0.0000 0.0000 0.0000
# 3 18.2221 67.0536 72.6252 0.0000 0.0000 0.0000
# 4 0.0000 0.0000 0.0000 -94.4578 0.0000 0.0000
# 5 0.0000 0.0000 0.0000 0.0000 1.7585 0.0000
# 6 0.0000 0.0000 0.0000 0.0000 0.0000 0.4468
#
#
#
# Elastic Compliance Matrix: (Units=1/GPa)
#
#
# Indices 1 2 3 4 5 6 
#
# 1 0.009293 -0.000541 -0.001832 0.000000 0.000000 0.000000
# 2 -0.000541 0.005695 -0.005122 0.000000 0.000000 0.000000
# 3 -0.001832 -0.005122 0.018958 0.000000 0.000000 0.000000
# 4 0.000000 0.000000 0.000000 -0.010587 0.000000 0.000000
# 5 0.000000 0.000000 0.000000 0.000000 0.568655 0.000000
# 6 0.000000 0.000000 0.000000 0.000000 0.000000 2.237946
#
#
# Mechanical properties :
#
#
# Convention : Reuss Voigt Hill
#
# Bulk Modulus (GPa) = 52.75634 72.07435 62.41535
# Shear Modulus (GPa) = 1.75361 2.31645 2.03503
#
# Velocity S-wave (km/s) = 0.82723 0.95076 0.89114
# Velocity P-wave (km/s) = 4.63677 5.41581 5.04136
#
# Compressibility (1/GPa) = 0.01895507
#
# Stress axis : x y z
#
# Youngs Moduli (GPa) = 107.61274 175.59539 52.74797
#
# Poissons Ratio (x) = 0.09508 0.09662
# Poissons Ratio (y) = 0.05827 0.27018
# Poissons Ratio (z) = 0.19711 0.89943
#
# Static dielectric constant tensor:
#      x y z
#    x 2.066940 0.000000 0.000000 
#    y 0.000000 1.965950 0.000000 
#    z 0.000000 0.000000 1.985130 
# 
# From -- ./inp_files/18717.got.cif
#   From: 2010.05.17/outbox.cif.g08.bks.cpg/sg62_10_cif.got.tgz:18717.got - 2010.06.03 15:25:27.
