data_PCOD9466262
_publ_section_title
;
Structure prediction by ZEFSAII (Michael W. Deem and Ramdas Pophale) SiO2 
 PCOD9466262
Probable space group: P N M A
;
_chemical_formula_sum "Si O2"
_cell_formula_units_Z 32
_cell_length_a 21.628466
_cell_length_b 10.694025
_cell_length_c 5.026700
_cell_angle_alpha 90.000000
_cell_angle_beta 90.000000
_cell_angle_gamma 90.000000
_cell_volume 1162.652367
_symmetry_space_group_name_H-M "P N M A"
_symmetry_group_IT_number 62
_symmetry_cell_setting 'orthorhombic'
loop_
_space_group_symop_operation_xyz
x,y,z
1/2-x,-y,1/2+z
1/2+x,1/2-y,1/2-z
-x,1/2+y,-z
-x,-y,-z
1/2+x,y,1/2-z
1/2-x,1/2+y,1/2+z
x,1/2-y,z
loop_
_atom_site_type_symbol
_atom_site_label
_atom_site_fract_x
_atom_site_fract_y
_atom_site_fract_z
Si Si1 0.986570 0.250000 0.139119
Si Si2 0.760006 0.750000 0.121284
Si Si3 0.126194 0.750000 0.263570
Si Si4 0.775078 0.456133 0.174478
Si Si5 0.408697 0.466772 0.159271
Si Si6 0.403723 0.750000 0.247014
O O1 0.931300 0.250000 0.927340
O O2 0.053053 0.250000 0.008083
O O3 0.969692 0.114589 0.268728
O O4 0.697643 0.750000 0.305240
O O5 0.750382 0.639593 0.897916
O O6 0.832080 0.750000 0.189339
O O7 0.117513 0.622217 0.429641
O O8 0.762869 0.565387 0.400995
O O9 0.849504 0.456520 0.136932
O O10 0.418218 0.614444 0.113944
#
# Coordination Sequence:
#
# PCOD9466262 Si02
#       6
#     4   4   4   8   8   4
#     4  11  23  42  74  93 138 194 241 296 365 445
#     4  10  21  40  65  94 141 175 239 293 363 430
#     4  11  21  42  70 100 133 185 239 293 372 440
#     4  11  22  38  65  99 140 177 232 294 359 426
#     4  10  23  41  68  99 139 181 242 294 360 447
#     4  10  23  44  65 101 142 184 237 310 368 435
#
# _framework density 27.523277
#
# number of rings (size 3 to 8) (size 9 to 14) (size 15 to 20)
#    0.000    1.500    2.500    2.250    0.000    3.000 
#    0.000    1.250   11.000    0.000    0.000    0.000 
#    0.000    0.000    0.000    0.000    0.000    0.000 
#
# Total GULP energy -178207.920794 kJ/mol
# GULP energy per Si atom -5568.997525 kJ/mol
# Density = 2.746063 g / cm^3
# Si number density = 27.523277 Si / 1000 Ang^3
#
#
#
# Elastic Constant Matrix: (Units=GPa)
#
#
# Indices 1 2 3 4 5 6 
#
# 1 203.3365 66.4536 55.5214 0.0000 0.0000 0.0000
# 2 66.4536 185.7945 12.9440 0.0000 0.0000 0.0000
# 3 55.5214 12.9440 95.5114 0.0000 0.0000 0.0000
# 4 0.0000 0.0000 0.0000 43.0610 0.0000 0.0000
# 5 0.0000 0.0000 0.0000 0.0000 48.0056 0.0000
# 6 0.0000 0.0000 0.0000 0.0000 0.0000 -14.5279
#
#
#
# Elastic Compliance Matrix: (Units=1/GPa)
#
#
# Indices 1 2 3 4 5 6 
#
# 1 0.006571 -0.002104 -0.003534 0.000000 0.000000 0.000000
# 2 -0.002104 0.006107 0.000395 0.000000 0.000000 0.000000
# 3 -0.003534 0.000395 0.012471 0.000000 0.000000 0.000000
# 4 0.000000 0.000000 0.000000 0.023223 0.000000 0.000000
# 5 0.000000 0.000000 0.000000 0.000000 0.020831 0.000000
# 6 0.000000 0.000000 0.000000 0.000000 0.000000 -0.068833
#
#
# Mechanical properties :
#
#
# Convention : Reuss Voigt Hill
#
# Bulk Modulus (GPa) = 68.19946 83.83115 76.01530
# Shear Modulus (GPa) = 317.60147 38.62264 178.11205
#
# Velocity S-wave (km/s) = 10.75380 3.75009 8.05318
# Velocity P-wave (km/s) = 13.38002 7.01964 10.68411
#
# Compressibility (1/GPa) = 0.01466287
#
# Stress axis : x y z
#
# Youngs Moduli (GPa) = 152.19264 163.73978 80.18629
#
# Poissons Ratio (x) = 0.34449 0.28341
# Poissons Ratio (y) = 0.32020 -0.03170
# Poissons Ratio (z) = 0.53791 -0.06473
#
# Static dielectric constant tensor:
#      x y z
#    x 2.307320 0.000000 0.000000 
#    y 0.000000 2.264120 0.000000 
#    z 0.000000 0.000000 2.229160 
# 
# From -- ./inp_files/2534.got.cif
#   From: 2010.05.17/outbox.cif.g08.bks.cpg/sg62_2_cif.got.tgz:2534.got - 2010.06.03 15:25:27.
