data_PCOD9466026
_publ_section_title
;
Structure prediction by ZEFSAII (Michael W. Deem and Ramdas Pophale) SiO2 
 PCOD9466026
Probable space group: P N M A
;
_chemical_formula_sum "Si O2"
_cell_formula_units_Z 32
_cell_length_a 24.894151
_cell_length_b 10.441519
_cell_length_c 5.145562
_cell_angle_alpha 90.000000
_cell_angle_beta 90.000000
_cell_angle_gamma 90.000000
_cell_volume 1337.500084
_symmetry_space_group_name_H-M "P N M A"
_symmetry_group_IT_number 62
_symmetry_cell_setting 'orthorhombic'
loop_
_space_group_symop_operation_xyz
x,y,z
1/2-x,-y,1/2+z
1/2+x,1/2-y,1/2-z
-x,1/2+y,-z
-x,-y,-z
1/2+x,y,1/2-z
1/2-x,1/2+y,1/2+z
x,1/2-y,z
loop_
_atom_site_type_symbol
_atom_site_label
_atom_site_fract_x
_atom_site_fract_y
_atom_site_fract_z
Si Si1 0.475117 0.104590 0.695370
Si Si2 0.301646 0.388246 0.757655
Si Si3 0.180451 0.461246 0.758457
Si Si4 0.420707 0.613104 0.949029
O O1 0.463515 0.250000 0.598824
O O2 0.521742 0.119858 0.909505
O O3 0.500000 0.000000 0.500000
O O4 0.424898 0.024521 0.807407
O O5 0.323486 0.250000 0.686612
O O6 0.236785 0.388412 0.725231
O O7 0.321599 0.494558 0.555201
O O8 0.313032 0.421177 0.056395
O O9 0.127102 0.393237 0.657663
O O10 0.414648 0.750000 0.800370
#
# Coordination Sequence:
#
# PCOD9466026 Si02
#       4
#     8   8   8   8
#     4  10  22  40  62  90 123 159 205 264 319 381
#     4  10  21  39  59  88 128 162 207 262 313 370
#     4  10  22  38  61  91 120 166 210 255 313 378
#     4  10  22  41  62  88 120 163 212 258 316 381
#
# _framework density 23.925229999999999
#
# number of rings (size 3 to 8) (size 9 to 14) (size 15 to 20)
#    0.000    2.000    0.000    2.250    3.500    3.000 
#    0.000    2.500    0.000    0.000    0.000    0.000 
#    0.000    0.000    0.000    0.000    0.000    0.000 
#
# Total GULP energy -178511.247355 kJ/mol
# GULP energy per Si atom -5578.476480 kJ/mol
# Density = 2.387077 g / cm^3
# Si number density = 23.925230 Si / 1000 Ang^3
#
#
#
# Elastic Constant Matrix: (Units=GPa)
#
#
# Indices 1 2 3 4 5 6 
#
# 1 110.3747 14.1487 4.7605 0.0000 0.0000 0.0000
# 2 14.1487 184.6209 10.8303 0.0000 0.0000 0.0000
# 3 4.7605 10.8303 46.1478 0.0000 0.0000 0.0000
# 4 0.0000 0.0000 0.0000 7.9103 0.0000 0.0000
# 5 0.0000 0.0000 0.0000 0.0000 42.1398 0.0000
# 6 0.0000 0.0000 0.0000 0.0000 0.0000 0.3497
#
#
#
# Elastic Compliance Matrix: (Units=1/GPa)
#
#
# Indices 1 2 3 4 5 6 
#
# 1 0.009178 -0.000657 -0.000793 0.000000 0.000000 0.000000
# 2 -0.000657 0.005539 -0.001232 0.000000 0.000000 0.000000
# 3 -0.000793 -0.001232 0.022040 0.000000 0.000000 0.000000
# 4 0.000000 0.000000 0.000000 0.126417 0.000000 0.000000
# 5 0.000000 0.000000 0.000000 0.000000 0.023731 0.000000
# 6 0.000000 0.000000 0.000000 0.000000 0.000000 2.859288
#
#
# Mechanical properties :
#
#
# Convention : Reuss Voigt Hill
#
# Bulk Modulus (GPa) = 31.85269 44.51360 38.18315
# Shear Modulus (GPa) = 1.63291 30.84022 16.23657
#
# Velocity S-wave (km/s) = 0.82703 3.59419 2.60789
# Velocity P-wave (km/s) = 3.77549 5.98916 5.00621
#
# Compressibility (1/GPa) = 0.03139452
#
# Stress axis : x y z
#
# Youngs Moduli (GPa) = 108.95095 180.53372 45.37106
#
# Poissons Ratio (x) = 0.11859 0.03596
# Poissons Ratio (y) = 0.07157 0.05591
# Poissons Ratio (z) = 0.08636 0.22245
#
# Static dielectric constant tensor:
#      x y z
#    x 1.928820 0.000000 0.000000 
#    y 0.000000 2.053000 0.000000 
#    z 0.000000 0.000000 1.895690 
# 
# From -- ./inp_files/2514.got.cif
#   From: 2010.05.17/outbox.cif.g08.bks.cpg/sg62_2_cif.got.tgz:2514.got - 2010.06.03 15:25:27.
