data_PCOD9466589
_publ_section_title
;
Structure prediction by ZEFSAII (Michael W. Deem and Ramdas Pophale) SiO2 
 PCOD9466589
Probable space group: P N M A
;
_chemical_formula_sum "Si O2"
_cell_formula_units_Z 40
_cell_length_a 13.693533
_cell_length_b 8.842124
_cell_length_c 18.438549
_cell_angle_alpha 90.000000
_cell_angle_beta 90.000000
_cell_angle_gamma 90.000000
_cell_volume 2232.537979
_symmetry_space_group_name_H-M "P N M A"
_symmetry_group_IT_number 62
_symmetry_cell_setting 'orthorhombic'
loop_
_space_group_symop_operation_xyz
x,y,z
1/2-x,-y,1/2+z
1/2+x,1/2-y,1/2-z
-x,1/2+y,-z
-x,-y,-z
1/2+x,y,1/2-z
1/2-x,1/2+y,1/2+z
x,1/2-y,z
loop_
_atom_site_type_symbol
_atom_site_label
_atom_site_fract_x
_atom_site_fract_y
_atom_site_fract_z
Si Si1 0.409753 0.569541 0.327846
Si Si2 0.671837 0.569482 0.819186
Si Si3 0.901819 0.569640 0.467431
Si Si4 0.294583 0.931682 0.474114
Si Si5 0.112686 0.069702 0.126831
O O1 0.405569 0.750000 0.318659
O O2 0.367607 0.489728 0.256813
O O3 0.346106 0.529234 0.398886
O O4 0.520177 0.518084 0.343148
O O5 0.659553 0.750000 0.825289
O O6 0.616586 0.491049 0.886114
O O7 0.787124 0.536906 0.830101
O O8 0.906838 0.750000 0.467582
O O9 0.808053 0.513393 0.513099
O O10 0.000000 0.500000 0.500000
O O11 0.278405 0.750000 0.476843
O O12 0.363520 0.968882 0.542949
O O13 0.094292 0.250000 0.131033
#
# Coordination Sequence:
#
# PCOD9466589 Si02
#       5
#     8   8   8   8   8
#     4  11  22  35  57  87 116 147 184 230 280 331
#     4  10  22  40  58  80 113 149 187 231 278 329
#     4  11  22  38  61  85 112 148 188 231 280 332
#     4   9  20  38  57  82 115 149 188 229 272 330
#     4   9  19  37  58  78 108 149 187 229 279 330
#
# _framework density 17.916829
#
# number of rings (size 3 to 8) (size 9 to 14) (size 15 to 20)
#    0.000    2.000    0.000    4.800    0.000    7.200 
#    0.000    4.000    0.000    0.000    0.000    0.000 
#    0.000    0.000    0.000    0.000    0.000    0.000 
#
# Total GULP energy -223463.382834 kJ/mol
# GULP energy per Si atom -5586.584571 kJ/mol
# Density = 1.787605 g / cm^3
# Si number density = 17.916829 Si / 1000 Ang^3
#
#
#
# Elastic Constant Matrix: (Units=GPa)
#
#
# Indices 1 2 3 4 5 6 
#
# 1 124.9797 75.1080 108.1197 0.0000 0.0000 0.0000
# 2 75.1080 86.2012 77.2730 0.0000 0.0000 0.0000
# 3 108.1197 77.2730 145.5622 0.0000 0.0000 0.0000
# 4 0.0000 0.0000 0.0000 30.1470 0.0000 0.0000
# 5 0.0000 0.0000 0.0000 0.0000 21.0105 0.0000
# 6 0.0000 0.0000 0.0000 0.0000 0.0000 35.1646
#
#
#
# Elastic Compliance Matrix: (Units=1/GPa)
#
#
# Indices 1 2 3 4 5 6 
#
# 1 0.026506 -0.010391 -0.014172 0.000000 0.000000 0.000000
# 2 -0.010391 0.026207 -0.006194 0.000000 0.000000 0.000000
# 3 -0.014172 -0.006194 0.020684 0.000000 0.000000 0.000000
# 4 0.000000 0.000000 0.000000 0.033171 0.000000 0.000000
# 5 0.000000 0.000000 0.000000 0.000000 0.047595 0.000000
# 6 0.000000 0.000000 0.000000 0.000000 0.000000 0.028438
#
#
# Mechanical properties :
#
#
# Convention : Reuss Voigt Hill
#
# Bulk Modulus (GPa) = 84.14791 97.52716 90.83754
# Shear Modulus (GPa) = 20.15515 23.68057 21.91786
#
# Velocity S-wave (km/s) = 3.35763 3.63946 3.50138
# Velocity P-wave (km/s) = 7.88032 8.49778 8.19487
#
# Compressibility (1/GPa) = 0.01188384
#
# Stress axis : x y z
#
# Youngs Moduli (GPa) = 37.72780 38.15762 48.34544
#
# Poissons Ratio (x) = 0.39649 0.68513
# Poissons Ratio (y) = 0.39202 0.29946
# Poissons Ratio (z) = 0.53466 0.23636
#
# Static dielectric constant tensor:
#      x y z
#    x 1.582350 0.000000 0.000000 
#    y 0.000000 1.598650 0.000000 
#    z 0.000000 0.000000 1.591480 
# 
# From -- ./inp_files/18624.got.cif
#   From: 2010.05.17/outbox.cif.g08.bks.cpg/sg62_10_cif.got.tgz:18624.got - 2010.06.03 15:25:27.
