data_PCOD9466356
_publ_section_title
;
Structure prediction by ZEFSAII (Michael W. Deem and Ramdas Pophale) SiO2 
 PCOD9466356
Probable space group: P N M A
;
_chemical_formula_sum "Si O2"
_cell_formula_units_Z 48
_cell_length_a 11.928576
_cell_length_b 8.729528
_cell_length_c 22.879193
_cell_angle_alpha 90.000000
_cell_angle_beta 90.000000
_cell_angle_gamma 90.000000
_cell_volume 2382.429544
_symmetry_space_group_name_H-M "P N M A"
_symmetry_group_IT_number 62
_symmetry_cell_setting 'orthorhombic'
loop_
_space_group_symop_operation_xyz
x,y,z
1/2-x,-y,1/2+z
1/2+x,1/2-y,1/2-z
-x,1/2+y,-z
-x,-y,-z
1/2+x,y,1/2-z
1/2-x,1/2+y,1/2+z
x,1/2-y,z
loop_
_atom_site_type_symbol
_atom_site_label
_atom_site_fract_x
_atom_site_fract_y
_atom_site_fract_z
Si Si1 0.979264 0.932175 0.364172
Si Si2 0.920564 0.430299 0.858098
Si Si3 0.226077 0.568079 0.575218
Si Si4 0.141407 0.065827 0.266257
Si Si5 0.661352 0.928368 0.648190
Si Si6 0.652339 0.071008 0.047806
O O1 0.974099 0.750000 0.357674
O O2 0.043880 0.007145 0.309651
O O3 0.053227 0.977669 0.421025
O O4 0.857509 0.002481 0.375383
O O5 0.903195 0.250000 0.863950
O O6 0.850832 0.516577 0.908058
O O7 0.874394 0.489877 0.796124
O O8 0.051483 0.471621 0.859129
O O9 0.217137 0.750000 0.572824
O O10 0.187136 0.495216 0.514266
O O11 0.135222 0.250000 0.262120
O O12 0.259580 0.026829 0.297280
O O13 0.628178 0.750000 0.655897
O O14 0.742333 0.937977 0.592016
O O15 0.619575 0.250000 0.043172
#
# Coordination Sequence:
#
# PCOD9466356 Si02
#       6
#     8   8   8   8   8   8
#     4  11  22  39  64  95 127 162 207 257 311 365
#     4  12  26  41  61  91 126 163 207 258 309 366
#     4  12  25  41  62  90 126 166 209 256 309 368
#     4  10  22  42  66  90 122 163 207 253 308 369
#     4   9  21  42  66  89 119 161 205 250 307 370
#     4  10  21  41  66  93 125 162 207 256 309 368
#
# _framework density 20.147500000000001
#
# number of rings (size 3 to 8) (size 9 to 14) (size 15 to 20)
#    0.000    1.333    0.000    7.000    2.333    4.667 
#    0.000    0.000    0.000    0.000    0.000    0.000 
#    0.000    0.000    0.000    0.000    0.000    0.000 
#
# Total GULP energy -268627.385305 kJ/mol
# GULP energy per Si atom -5596.403861 kJ/mol
# Density = 2.010164 g / cm^3
# Si number density = 20.147500 Si / 1000 Ang^3
#
#
#
# Elastic Constant Matrix: (Units=GPa)
#
#
# Indices 1 2 3 4 5 6 
#
# 1 64.3049 12.4087 -2.8721 0.0000 0.0000 0.0000
# 2 12.4087 71.8980 0.8585 0.0000 0.0000 0.0000
# 3 -2.8721 0.8585 38.8097 0.0000 0.0000 0.0000
# 4 0.0000 0.0000 0.0000 33.6654 0.0000 0.0000
# 5 0.0000 0.0000 0.0000 0.0000 2.8953 0.0000
# 6 0.0000 0.0000 0.0000 0.0000 0.0000 29.8048
#
#
#
# Elastic Compliance Matrix: (Units=1/GPa)
#
#
# Indices 1 2 3 4 5 6 
#
# 1 0.016148 -0.002802 0.001257 0.000000 0.000000 0.000000
# 2 -0.002802 0.014398 -0.000526 0.000000 0.000000 0.000000
# 3 0.001257 -0.000526 0.025871 0.000000 0.000000 0.000000
# 4 0.000000 0.000000 0.000000 0.029704 0.000000 0.000000
# 5 0.000000 0.000000 0.000000 0.000000 0.345383 0.000000
# 6 0.000000 0.000000 0.000000 0.000000 0.000000 0.033552
#
#
# Mechanical properties :
#
#
# Convention : Reuss Voigt Hill
#
# Bulk Modulus (GPa) = 19.12922 21.75586 20.44254
# Shear Modulus (GPa) = 10.27490 24.24763 17.26126
#
# Velocity S-wave (km/s) = 2.26073 3.47292 2.93020
# Velocity P-wave (km/s) = 4.04101 5.18684 4.64936
#
# Compressibility (1/GPa) = 0.05227603
#
# Stress axis : x y z
#
# Youngs Moduli (GPa) = 61.92819 69.45199 38.65274
#
# Poissons Ratio (x) = 0.19460 -0.04859
# Poissons Ratio (y) = 0.17352 0.02033
# Poissons Ratio (z) = -0.07784 0.03652
#
# Static dielectric constant tensor:
#      x y z
#    x 1.713360 0.000000 0.000000 
#    y 0.000000 1.649270 0.000000 
#    z 0.000000 0.000000 1.705480 
# 
# From -- ./inp_files/29265.got.cif
#   From: 2010.05.17/outbox.cif.g08.bks.cpg/sg62_15_cif.got.tgz:29265.got - 2010.06.03 15:25:27.
