data_PCOD9466773
_publ_section_title
;
Structure prediction by ZEFSAII (Michael W. Deem and Ramdas Pophale) SiO2 
 PCOD9466773
Probable space group: P N M A
;
_chemical_formula_sum "Si O2"
_cell_formula_units_Z 40
_cell_length_a 5.023181
_cell_length_b 18.199025
_cell_length_c 15.116953
_cell_angle_alpha 90.000000
_cell_angle_beta 90.000000
_cell_angle_gamma 90.000000
_cell_volume 1381.946441
_symmetry_space_group_name_H-M "P N M A"
_symmetry_group_IT_number 62
_symmetry_cell_setting 'orthorhombic'
loop_
_space_group_symop_operation_xyz
x,y,z
1/2-x,-y,1/2+z
1/2+x,1/2-y,1/2-z
-x,1/2+y,-z
-x,-y,-z
1/2+x,y,1/2-z
1/2-x,1/2+y,1/2+z
x,1/2-y,z
loop_
_atom_site_type_symbol
_atom_site_label
_atom_site_fract_x
_atom_site_fract_y
_atom_site_fract_z
Si Si1 0.931439 0.666929 0.447833
Si Si2 0.930616 0.533342 0.697853
Si Si3 0.661051 0.667724 0.639918
Si Si4 0.211283 0.442533 0.039931
Si Si5 0.486098 0.338548 0.698048
O O1 0.014422 0.750000 0.421292
O O2 0.170229 0.611314 0.465946
O O3 0.695346 0.638580 0.384760
O O4 0.807454 0.674710 0.545302
O O5 0.144863 0.505617 0.768879
O O6 0.051803 0.521838 0.599942
O O7 0.868666 0.621591 0.699084
O O8 0.588568 0.750000 0.669085
O O9 0.428708 0.611756 0.610945
O O10 0.000000 0.500000 0.000000
O O11 0.291187 0.357635 0.780840
O O12 0.484774 0.250000 0.691827
#
# Coordination Sequence:
#
# PCOD9466773 Si02
#       5
#     8   8   8   8   8
#     4   9  20  37  61  93 130 172 232 294 347 420
#     4  11  23  46  69 103 141 182 231 298 359 428
#     4  10  22  41  70 103 137 183 240 297 363 434
#     4  11  24  43  71 100 143 190 239 283 365 439
#     4   9  18  32  54  85 121 160 204 262 326 379
#
# _framework density 28.944683999999999
#
# number of rings (size 3 to 8) (size 9 to 14) (size 15 to 20)
#    0.000    2.000    2.000    0.600    2.800    4.800 
#    0.000    2.000    0.000    0.000    0.000    0.000 
#    0.000    0.000    0.000    0.000    0.000    0.000 
#
# Total GULP energy -224075.284776 kJ/mol
# GULP energy per Si atom -5601.882119 kJ/mol
# Density = 2.887880 g / cm^3
# Si number density = 28.944684 Si / 1000 Ang^3
#
#
#
# Elastic Constant Matrix: (Units=GPa)
#
#
# Indices 1 2 3 4 5 6 
#
# 1 200.0547 16.1107 25.4725 0.0000 0.0000 0.0000
# 2 16.1107 133.3316 -6.3418 0.0000 0.0000 0.0000
# 3 25.4725 -6.3418 101.2072 0.0000 0.0000 0.0000
# 4 0.0000 0.0000 0.0000 31.7095 0.0000 0.0000
# 5 0.0000 0.0000 0.0000 0.0000 64.4713 0.0000
# 6 0.0000 0.0000 0.0000 0.0000 0.0000 36.2859
#
#
#
# Elastic Compliance Matrix: (Units=1/GPa)
#
#
# Indices 1 2 3 4 5 6 
#
# 1 0.005228 -0.000696 -0.001359 0.000000 0.000000 0.000000
# 2 -0.000696 0.007615 0.000652 0.000000 0.000000 0.000000
# 3 -0.001359 0.000652 0.010264 0.000000 0.000000 0.000000
# 4 0.000000 0.000000 0.000000 0.031536 0.000000 0.000000
# 5 0.000000 0.000000 0.000000 0.000000 0.015511 0.000000
# 6 0.000000 0.000000 0.000000 0.000000 0.000000 0.027559
#
#
# Mechanical properties :
#
#
# Convention : Reuss Voigt Hill
#
# Bulk Modulus (GPa) = 49.26057 56.11959 52.69008
# Shear Modulus (GPa) = 46.60435 53.11680 49.86058
#
# Velocity S-wave (km/s) = 4.01698 4.28847 4.15494
# Velocity P-wave (km/s) = 6.21053 6.62963 6.42350
#
# Compressibility (1/GPa) = 0.02030021
#
# Stress axis : x y z
#
# Youngs Moduli (GPa) = 191.28501 131.31510 97.43034
#
# Poissons Ratio (x) = 0.09144 0.13245
# Poissons Ratio (y) = 0.13320 -0.06357
# Poissons Ratio (z) = 0.26003 -0.08568
#
# Static dielectric constant tensor:
#      x y z
#    x 2.270950 0.000000 0.000000 
#    y 0.000000 2.292910 0.000000 
#    z 0.000000 0.000000 2.276550 
# 
# From -- ./inp_files/21479.got.cif
#   From: 2010.05.17/outbox.cif.g08.bks.cpg/sg62_11_cif.got.tgz:21479.got - 2010.06.03 15:25:27.
