data_PCOD9466328
_publ_section_title
;
Structure prediction by ZEFSAII (Michael W. Deem and Ramdas Pophale) SiO2 
 PCOD9466328
Probable space group: P N M A
;
_chemical_formula_sum "Si O2"
_cell_formula_units_Z 44
_cell_length_a 5.109314
_cell_length_b 18.598024
_cell_length_c 17.701223
_cell_angle_alpha 90.000000
_cell_angle_beta 90.000000
_cell_angle_gamma 90.000000
_cell_volume 1682.025869
_symmetry_space_group_name_H-M "P N M A"
_symmetry_group_IT_number 62
_symmetry_cell_setting 'orthorhombic'
loop_
_space_group_symop_operation_xyz
x,y,z
1/2-x,-y,1/2+z
1/2+x,1/2-y,1/2-z
-x,1/2+y,-z
-x,-y,-z
1/2+x,y,1/2-z
1/2-x,1/2+y,1/2+z
x,1/2-y,z
loop_
_atom_site_type_symbol
_atom_site_label
_atom_site_fract_x
_atom_site_fract_y
_atom_site_fract_z
Si Si1 0.195161 0.250000 0.197517
Si Si2 0.453068 0.250000 0.525690
Si Si3 0.399535 0.750000 0.198455
Si Si4 0.531297 0.008735 0.615101
Si Si5 0.194537 0.599321 0.698329
Si Si6 0.675359 0.867152 0.104248
Si Si7 0.265454 0.600638 0.988918
O O1 0.904921 0.250000 0.232834
O O2 0.253940 0.324762 0.155120
O O3 0.612767 0.189101 0.575431
O O4 0.303084 0.315559 0.480829
O O5 0.619264 0.750000 0.263156
O O6 0.454079 0.819546 0.146319
O O7 0.287997 0.970442 0.654189
O O8 0.718459 0.944838 0.586180
O O9 0.703819 0.070016 0.656047
O O10 0.413687 0.056475 0.547779
O O11 0.909262 0.600889 0.734046
O O12 0.546197 0.901423 0.029308
#
# Coordination Sequence:
#
# PCOD9466328 Si02
#       7
#     4   4   4   8   8   8   8
#     4   8  16  35  58  77 112 154 194 245 300 358
#     4   9  19  37  61  90 114 164 204 266 316 379
#     4  11  27  42  67  99 130 182 234 275 330 399
#     4  10  23  38  63  94 125 169 214 269 335 397
#     4  10  22  40  63  90 126 168 213 263 321 389
#     4  10  22  39  64  85 133 168 214 275 329 384
#     4  10  21  41  64  90 129 164 217 271 338 387
#
# _framework density 26.158930999999999
#
# number of rings (size 3 to 8) (size 9 to 14) (size 15 to 20)
#    0.000    2.182    0.000    1.636   10.182    2.182 
#    0.000    0.000    8.000    0.000    0.000    0.000 
#    0.000    0.000    0.000    0.000    0.000    0.000 
#
# Total GULP energy -245179.188912 kJ/mol
# GULP energy per Si atom -5572.254293 kJ/mol
# Density = 2.609939 g / cm^3
# Si number density = 26.158931 Si / 1000 Ang^3
#
#
#
# Elastic Constant Matrix: (Units=GPa)
#
#
# Indices 1 2 3 4 5 6 
#
# 1 94.8766 26.0900 28.5579 0.0000 0.0000 0.0000
# 2 26.0900 206.9170 23.5423 0.0000 0.0000 0.0000
# 3 28.5579 23.5423 30.9160 0.0000 0.0000 0.0000
# 4 0.0000 0.0000 0.0000 0.8081 0.0000 0.0000
# 5 0.0000 0.0000 0.0000 0.0000 38.6416 0.0000
# 6 0.0000 0.0000 0.0000 0.0000 0.0000 9.7071
#
#
#
# Elastic Compliance Matrix: (Units=1/GPa)
#
#
# Indices 1 2 3 4 5 6 
#
# 1 0.014621 -0.000336 -0.013250 0.000000 0.000000 0.000000
# 2 -0.000336 0.005299 -0.003725 0.000000 0.000000 0.000000
# 3 -0.013250 -0.003725 0.047421 0.000000 0.000000 0.000000
# 4 0.000000 0.000000 0.000000 1.237527 0.000000 0.000000
# 5 0.000000 0.000000 0.000000 0.000000 0.025879 0.000000
# 6 0.000000 0.000000 0.000000 0.000000 0.000000 0.103017
#
#
# Mechanical properties :
#
#
# Convention : Reuss Voigt Hill
#
# Bulk Modulus (GPa) = 30.56234 54.34334 42.45284
# Shear Modulus (GPa) = 3.38000 26.79931 15.08965
#
# Velocity S-wave (km/s) = 1.13794 3.20422 2.40437
# Velocity P-wave (km/s) = 3.66541 5.87442 4.89612
#
# Compressibility (1/GPa) = 0.03272001
#
# Stress axis : x y z
#
# Youngs Moduli (GPa) = 68.39705 188.71426 21.08767
#
# Poissons Ratio (x) = 0.06341 0.27940
# Poissons Ratio (y) = 0.02298 0.07855
# Poissons Ratio (z) = 0.90623 0.70292
#
# Static dielectric constant tensor:
#      x y z
#    x 2.124070 0.000000 0.000000 
#    y 0.000000 2.109780 0.000000 
#    z 0.000000 0.000000 2.116130 
# 
# From -- ./inp_files/28303.got.cif
#   From: 2010.05.17/outbox.cif.g08.bks.cpg/sg62_15_cif.got.tgz:28303.got - 2010.06.03 15:25:27.
