data_PCOD9466428
_publ_section_title
;
Structure prediction by ZEFSAII (Michael W. Deem and Ramdas Pophale) SiO2 
 PCOD9466428
Probable space group: P N M A
;
_chemical_formula_sum "Si O2"
_cell_formula_units_Z 48
_cell_length_a 8.641482
_cell_length_b 16.289651
_cell_length_c 16.154913
_cell_angle_alpha 90.000000
_cell_angle_beta 90.000000
_cell_angle_gamma 90.000000
_cell_volume 2274.074210
_symmetry_space_group_name_H-M "P N M A"
_symmetry_group_IT_number 62
_symmetry_cell_setting 'orthorhombic'
loop_
_space_group_symop_operation_xyz
x,y,z
1/2-x,-y,1/2+z
1/2+x,1/2-y,1/2-z
-x,1/2+y,-z
-x,-y,-z
1/2+x,y,1/2-z
1/2-x,1/2+y,1/2+z
x,1/2-y,z
loop_
_atom_site_type_symbol
_atom_site_label
_atom_site_fract_x
_atom_site_fract_y
_atom_site_fract_z
Si Si1 0.670791 0.390753 0.015046
Si Si2 0.767308 0.847881 0.165924
Si Si3 0.083108 0.411780 0.665434
Si Si4 0.348048 0.946084 0.489374
Si Si5 0.129163 0.899482 0.621749
Si Si6 0.517558 0.750000 0.775026
Si Si7 0.803184 0.250000 0.122420
O O1 0.717705 0.484926 0.029917
O O2 0.499466 0.379284 0.051770
O O3 0.781147 0.329370 0.064589
O O4 0.668431 0.377894 0.916778
O O5 0.767713 0.750000 0.164577
O O6 0.841892 0.880439 0.250407
O O7 0.592503 0.881245 0.161825
O O8 0.856238 0.884069 0.086472
O O9 0.095325 0.510538 0.658749
O O10 0.291701 0.903375 0.573889
O O11 0.500000 0.000000 0.500000
O O12 0.104519 0.830288 0.689764
O O13 0.542773 0.750000 0.676971
O O14 0.344931 0.750000 0.813787
#
# Coordination Sequence:
#
# PCOD9466428 Si02
#       7
#     8   8   8   8   8   4   4
#     4  10  21  45  68  93 126 185 221 261 348 411
#     4  12  27  43  70  99 137 176 231 284 329 399
#     4  11  24  43  68  97 137 176 230 280 339 404
#     4  11  24  43  66  97 131 173 225 276 337 394
#     4  10  21  44  71  93 131 182 219 272 344 410
#     4  10  24  38  68 107 127 165 231 268 338 404
#     4  10  24  40  70  95 131 171 217 284 330 404
#
# _framework density 21.107491
#
# number of rings (size 3 to 8) (size 9 to 14) (size 15 to 20)
#    0.000    1.333    3.333    1.500   10.500    1.333 
#    1.500    0.000    0.000    0.000    0.000    0.000 
#    0.000    0.000    0.000    0.000    0.000    0.000 
#
# Total GULP energy -268451.287901 kJ/mol
# GULP energy per Si atom -5592.735165 kJ/mol
# Density = 2.105945 g / cm^3
# Si number density = 21.107491 Si / 1000 Ang^3
#
#
#
# Elastic Constant Matrix: (Units=GPa)
#
#
# Indices 1 2 3 4 5 6 
#
# 1 35.4023 7.3342 29.7406 0.0000 0.0000 0.0000
# 2 7.3342 113.2338 72.5209 0.0000 0.0000 0.0000
# 3 29.7406 72.5209 95.5244 0.0000 0.0000 0.0000
# 4 0.0000 0.0000 0.0000 37.4542 0.0000 0.0000
# 5 0.0000 0.0000 0.0000 0.0000 39.8017 0.0000
# 6 0.0000 0.0000 0.0000 0.0000 0.0000 17.0872
#
#
#
# Elastic Compliance Matrix: (Units=1/GPa)
#
#
# Indices 1 2 3 4 5 6 
#
# 1 0.045150 0.011831 -0.023039 0.000000 0.000000 0.000000
# 2 0.011831 0.020289 -0.019087 0.000000 0.000000 0.000000
# 3 -0.023039 -0.019087 0.032132 0.000000 0.000000 0.000000
# 4 0.000000 0.000000 0.000000 0.026699 0.000000 0.000000
# 5 0.000000 0.000000 0.000000 0.000000 0.025125 0.000000
# 6 0.000000 0.000000 0.000000 0.000000 0.000000 0.058523
#
#
# Mechanical properties :
#
#
# Convention : Reuss Voigt Hill
#
# Bulk Modulus (GPa) = 27.04028 51.48353 39.26190
# Shear Modulus (GPa) = 17.80400 27.83958 22.82179
#
# Velocity S-wave (km/s) = 2.90744 3.63567 3.29175
# Velocity P-wave (km/s) = 4.91015 6.48600 5.75229
#
# Compressibility (1/GPa) = 0.03698186
#
# Stress axis : x y z
#
# Youngs Moduli (GPa) = 22.14820 49.28747 31.12169
#
# Poissons Ratio (x) = -0.58312 0.71702
# Poissons Ratio (y) = -0.26204 0.59401
# Poissons Ratio (z) = 0.51028 0.94074
#
# Static dielectric constant tensor:
#      x y z
#    x 1.794060 0.000000 0.000000 
#    y 0.000000 1.729500 0.000000 
#    z 0.000000 0.000000 1.741870 
# 
# From -- ./inp_files/17020.got.cif
#   From: 2010.05.17/outbox.cif.g08.bks.cpg/sg62_9_cif.got.tgz:17020.got - 2010.06.03 15:25:27.
