data_PCOD9466996
_publ_section_title
;
Structure prediction by ZEFSAII (Michael W. Deem and Ramdas Pophale) SiO2 
 PCOD9466996
Probable space group: P N M A
;
_chemical_formula_sum "Si O2"
_cell_formula_units_Z 32
_cell_length_a 12.099111
_cell_length_b 17.880943
_cell_length_c 7.991268
_cell_angle_alpha 90.000000
_cell_angle_beta 90.000000
_cell_angle_gamma 90.000000
_cell_volume 1728.859002
_symmetry_space_group_name_H-M "P N M A"
_symmetry_group_IT_number 62
_symmetry_cell_setting 'orthorhombic'
loop_
_space_group_symop_operation_xyz
x,y,z
1/2-x,-y,1/2+z
1/2+x,1/2-y,1/2-z
-x,1/2+y,-z
-x,-y,-z
1/2+x,y,1/2-z
1/2-x,1/2+y,1/2+z
x,1/2-y,z
loop_
_atom_site_type_symbol
_atom_site_label
_atom_site_fract_x
_atom_site_fract_y
_atom_site_fract_z
Si Si1 0.922942 0.426605 0.490613
Si Si2 0.332811 0.952971 0.538774
Si Si3 0.517271 0.336428 0.316623
Si Si4 0.466298 0.095392 0.652662
O O1 0.795752 0.451299 0.492000
O O2 0.949989 0.378813 0.326688
O O3 0.948688 0.379549 0.658952
O O4 0.000000 0.500000 0.500000
O O5 0.370113 0.884073 0.657519
O O6 0.410627 0.939808 0.375271
O O7 0.379404 0.028984 0.617663
O O8 0.534606 0.250000 0.280119
O O9 0.459180 0.347204 0.498605
#
# Coordination Sequence:
#
# PCOD9466996 Si02
#       4
#     8   8   8   8
#     4  12  22  36  69  94 118 165 214 255 306 375
#     4   9  21  40  59  92 125 156 210 257 304 366
#     4  10  23  42  59  90 129 161 203 260 317 372
#     4   9  21  40  60  87 125 165 203 259 302 369
#
# _framework density 18.509319000000001
#
# number of rings (size 3 to 8) (size 9 to 14) (size 15 to 20)
#    1.500    0.500    2.500    0.000    7.000    2.000 
#    0.000    0.000    0.000    0.000    0.000    0.000 
#    0.000    0.000    0.000    0.000    0.000    0.000 
#
# Total GULP energy -178178.320754 kJ/mol
# GULP energy per Si atom -5568.072524 kJ/mol
# Density = 1.846719 g / cm^3
# Si number density = 18.509319 Si / 1000 Ang^3
#
#
#
# Elastic Constant Matrix: (Units=GPa)
#
#
# Indices 1 2 3 4 5 6 
#
# 1 138.9163 15.7709 35.5482 0.0000 0.0000 0.0000
# 2 15.7709 65.6978 -0.3686 0.0000 0.0000 0.0000
# 3 35.5482 -0.3686 103.1949 0.0000 0.0000 0.0000
# 4 0.0000 0.0000 0.0000 9.2095 0.0000 0.0000
# 5 0.0000 0.0000 0.0000 0.0000 10.9693 0.0000
# 6 0.0000 0.0000 0.0000 0.0000 0.0000 5.3765
#
#
#
# Elastic Compliance Matrix: (Units=1/GPa)
#
#
# Indices 1 2 3 4 5 6 
#
# 1 0.008142 -0.001970 -0.002812 0.000000 0.000000 0.000000
# 2 -0.001970 0.015698 0.000735 0.000000 0.000000 0.000000
# 3 -0.002812 0.000735 0.010662 0.000000 0.000000 0.000000
# 4 0.000000 0.000000 0.000000 0.108583 0.000000 0.000000
# 5 0.000000 0.000000 0.000000 0.000000 0.091163 0.000000
# 6 0.000000 0.000000 0.000000 0.000000 0.000000 0.185995
#
#
# Mechanical properties :
#
#
# Convention : Reuss Voigt Hill
#
# Bulk Modulus (GPa) = 37.86822 45.52333 41.69577
# Shear Modulus (GPa) = 11.43801 22.23498 16.83649
#
# Velocity S-wave (km/s) = 2.48858 3.46972 3.01927
# Velocity P-wave (km/s) = 5.36291 6.37966 5.89325
#
# Compressibility (1/GPa) = 0.02640737
#
# Stress axis : x y z
#
# Youngs Moduli (GPa) = 122.82358 63.70120 93.79468
#
# Poissons Ratio (x) = 0.12551 0.26372
# Poissons Ratio (y) = 0.24199 -0.06892
# Poissons Ratio (z) = 0.34534 -0.04681
#
# Static dielectric constant tensor:
#      x y z
#    x 1.619290 0.000000 0.000000 
#    y 0.000000 1.617420 0.000000 
#    z 0.000000 0.000000 1.704900 
# 
# From -- ./inp_files/4901.got.cif
#   From: 2010.05.17/outbox.cif.g08.bks.cpg/sg62_3_cif.got.tgz:4901.got - 2010.06.03 15:25:27.
