data_PCOD9466650
_publ_section_title
;
Structure prediction by ZEFSAII (Michael W. Deem and Ramdas Pophale) SiO2 
 PCOD9466650
Probable space group: P N M A
;
_chemical_formula_sum "Si O2"
_cell_formula_units_Z 64
_cell_length_a 11.250707
_cell_length_b 14.954143
_cell_length_c 17.783321
_cell_angle_alpha 90.000000
_cell_angle_beta 90.000000
_cell_angle_gamma 90.000000
_cell_volume 2991.949175
_symmetry_space_group_name_H-M "P N M A"
_symmetry_group_IT_number 62
_symmetry_cell_setting 'orthorhombic'
loop_
_space_group_symop_operation_xyz
x,y,z
1/2-x,-y,1/2+z
1/2+x,1/2-y,1/2-z
-x,1/2+y,-z
-x,-y,-z
1/2+x,y,1/2-z
1/2-x,1/2+y,1/2+z
x,1/2-y,z
loop_
_atom_site_type_symbol
_atom_site_label
_atom_site_fract_x
_atom_site_fract_y
_atom_site_fract_z
Si Si1 0.868690 0.975389 0.529109
Si Si2 0.242605 0.651899 0.426555
Si Si3 0.391829 0.502599 0.219374
Si Si4 0.183032 0.539475 0.107190
Si Si5 0.044119 0.149269 0.355547
Si Si6 0.843858 0.845756 0.904331
Si Si7 0.731148 0.844248 0.744881
Si Si8 0.018588 0.351582 0.827498
O O1 0.768895 0.962070 0.465091
O O2 0.882466 0.882417 0.572563
O O3 0.831564 0.060872 0.580024
O O4 0.000000 0.000000 0.500000
O O5 0.186166 0.750000 0.410445
O O6 0.280923 0.654593 0.514523
O O7 0.359667 0.644832 0.375362
O O8 0.276009 0.540141 0.176774
O O9 0.462628 0.436062 0.163787
O O10 0.341932 0.430252 0.279200
O O11 0.467634 0.578787 0.258958
O O12 0.107112 0.446232 0.104577
O O13 0.089601 0.617776 0.119453
O O14 0.994674 0.250000 0.365352
O O15 0.137459 0.153102 0.287809
O O16 0.910787 0.750000 0.899176
O O17 0.751462 0.844404 0.834772
O O18 0.674020 0.750000 0.722865
O O19 0.001402 0.250000 0.801441
#
# Coordination Sequence:
#
# PCOD9466650 Si02
#       8
#     8   8   8   8   8   8   8   8
#     4  11  22  41  63  97 131 170 215 264 327 388
#     4   9  20  39  64  93 127 171 220 263 316 387
#     4  11  20  39  63  87 122 167 211 262 321 385
#     4  10  22  40  64  89 128 164 212 270 328 387
#     4  11  23  38  61  93 126 160 205 261 319 386
#     4   8  15  31  58  90 122 160 202 247 305 377
#     4   9  18  33  56  91 126 159 201 252 314 376
#     4  11  25  43  64  92 126 172 224 277 332 392
#
# _framework density 21.390737000000001
#
# number of rings (size 3 to 8) (size 9 to 14) (size 15 to 20)
#    0.000    2.000    1.250    2.625    0.000    4.000 
#    0.000    3.750    0.000    8.250    0.000    0.000 
#    0.000    0.000    0.000    0.000    0.000    0.000 
#
# Total GULP energy -356510.921571 kJ/mol
# GULP energy per Si atom -5570.483150 kJ/mol
# Density = 2.134205 g / cm^3
# Si number density = 21.390737 Si / 1000 Ang^3
#
#
#
# Elastic Constant Matrix: (Units=GPa)
#
#
# Indices 1 2 3 4 5 6 
#
# 1 40.8724 26.9283 2.9775 0.0000 0.0000 0.0000
# 2 26.9283 130.4533 19.4409 0.0000 0.0000 0.0000
# 3 2.9775 19.4409 47.8207 0.0000 0.0000 0.0000
# 4 0.0000 0.0000 0.0000 21.5755 0.0000 0.0000
# 5 0.0000 0.0000 0.0000 0.0000 4.8376 0.0000
# 6 0.0000 0.0000 0.0000 0.0000 0.0000 30.1914
#
#
#
# Elastic Compliance Matrix: (Units=1/GPa)
#
#
# Indices 1 2 3 4 5 6 
#
# 1 0.028337 -0.005947 0.000653 0.000000 0.000000 0.000000
# 2 -0.005947 0.009408 -0.003454 0.000000 0.000000 0.000000
# 3 0.000653 -0.003454 0.022275 0.000000 0.000000 0.000000
# 4 0.000000 0.000000 0.000000 0.046349 0.000000 0.000000
# 5 0.000000 0.000000 0.000000 0.000000 0.206714 0.000000
# 6 0.000000 0.000000 0.000000 0.000000 0.000000 0.033122
#
#
# Mechanical properties :
#
#
# Convention : Reuss Voigt Hill
#
# Bulk Modulus (GPa) = 23.51612 35.31553 29.41583
# Shear Modulus (GPa) = 13.23188 22.64088 17.93638
#
# Velocity S-wave (km/s) = 2.48982 3.25690 2.89885
# Velocity P-wave (km/s) = 4.39125 5.53975 4.99859
#
# Compressibility (1/GPa) = 0.04252402
#
# Stress axis : x y z
#
# Youngs Moduli (GPa) = 35.28994 106.29379 44.89315
#
# Poissons Ratio (x) = 0.63209 -0.02932
# Poissons Ratio (y) = 0.20986 0.15508
# Poissons Ratio (z) = -0.02305 0.36718
#
# Static dielectric constant tensor:
#      x y z
#    x 1.790300 0.000000 0.000000 
#    y 0.000000 1.834370 0.000000 
#    z 0.000000 0.000000 1.814160 
# 
# From -- ./inp_files/23230.got.cif
#   From: 2010.05.17/outbox.cif.g08.bks.cpg/sg62_12_cif.got.tgz:23230.got - 2010.06.03 15:25:27.
