data_PCOD9466478
_publ_section_title
;
Structure prediction by ZEFSAII (Michael W. Deem and Ramdas Pophale) SiO2 
 PCOD9466478
Probable space group: P N M A
;
_chemical_formula_sum "Si O2"
_cell_formula_units_Z 64
_cell_length_a 10.854044
_cell_length_b 8.696835
_cell_length_c 33.715580
_cell_angle_alpha 90.000000
_cell_angle_beta 90.000000
_cell_angle_gamma 90.000000
_cell_volume 3182.610150
_symmetry_space_group_name_H-M "P N M A"
_symmetry_group_IT_number 62
_symmetry_cell_setting 'orthorhombic'
loop_
_space_group_symop_operation_xyz
x,y,z
1/2-x,-y,1/2+z
1/2+x,1/2-y,1/2-z
-x,1/2+y,-z
-x,-y,-z
1/2+x,y,1/2-z
1/2-x,1/2+y,1/2+z
x,1/2-y,z
loop_
_atom_site_type_symbol
_atom_site_label
_atom_site_fract_x
_atom_site_fract_y
_atom_site_fract_z
Si Si1 0.138236 0.936317 0.006502
Si Si2 0.963641 0.926760 0.694619
Si Si3 0.601494 0.065300 0.031115
Si Si4 0.644703 0.566834 0.115047
Si Si5 0.467523 0.935739 0.715805
Si Si6 0.412921 0.564498 0.357972
Si Si7 0.343656 0.432717 0.595320
Si Si8 0.235620 0.575774 0.664152
O O1 0.130602 0.750000 0.004380
O O2 0.171715 0.988317 0.051031
O O3 0.257007 0.982884 0.980256
O O4 0.000000 0.000000 0.000000
O O5 0.915428 0.750000 0.693767
O O6 0.953160 0.990497 0.739114
O O7 0.108710 0.921663 0.686621
O O8 0.909101 0.018506 0.657700
O O9 0.595674 0.250000 0.028918
O O10 0.583675 0.011341 0.076610
O O11 0.500000 0.000000 0.000000
O O12 0.636444 0.750000 0.110122
O O13 0.788561 0.521163 0.119444
O O14 0.478939 0.750000 0.717480
O O15 0.342577 0.980334 0.693122
O O16 0.573697 0.998808 0.686651
O O17 0.416692 0.750000 0.355169
O O18 0.530395 0.510429 0.383801
O O19 0.353610 0.250000 0.593440
O O20 0.234295 0.477306 0.624531
O O21 0.267520 0.750000 0.652306
#
# Coordination Sequence:
#
# PCOD9466478 Si02
#       8
#     8   8   8   8   8   8   8   8
#     4  10  22  39  63  93 122 156 201 251 305 363
#     4  10  22  37  57  84 115 152 196 244 294 353
#     4  11  25  44  65  93 128 166 209 257 311 374
#     4  11  24  41  61  86 118 159 203 247 300 360
#     4   9  19  35  58  84 114 152 191 239 295 349
#     4   9  19  36  58  85 119 154 193 240 292 349
#     4   9  18  35  58  83 113 148 184 232 289 343
#     4   9  19  35  53  81 113 145 189 233 283 345
#
# _framework density 20.109280999999999
#
# number of rings (size 3 to 8) (size 9 to 14) (size 15 to 20)
#    0.000    2.250    0.000    1.500    3.500    4.500 
#    0.000    2.500    0.000    0.000    0.000    0.000 
#    0.000    0.000    0.000    0.000    0.000    0.000 
#
# Total GULP energy -356844.992055 kJ/mol
# GULP energy per Si atom -5575.703001 kJ/mol
# Density = 2.006351 g / cm^3
# Si number density = 20.109281 Si / 1000 Ang^3
#
#
#
# Elastic Constant Matrix: (Units=GPa)
#
#
# Indices 1 2 3 4 5 6 
#
# 1 46.1049 14.4478 15.5307 0.0000 0.0000 0.0000
# 2 14.4478 19.4173 20.8187 0.0000 0.0000 0.0000
# 3 15.5307 20.8187 133.0493 0.0000 0.0000 0.0000
# 4 0.0000 0.0000 0.0000 27.0089 0.0000 0.0000
# 5 0.0000 0.0000 0.0000 0.0000 25.8982 0.0000
# 6 0.0000 0.0000 0.0000 0.0000 0.0000 25.1825
#
#
#
# Elastic Compliance Matrix: (Units=1/GPa)
#
#
# Indices 1 2 3 4 5 6 
#
# 1 0.028285 -0.021035 -0.000010 0.000000 0.000000 0.000000
# 2 -0.021035 0.077526 -0.009675 0.000000 0.000000 0.000000
# 3 -0.000010 -0.009675 0.009031 0.000000 0.000000 0.000000
# 4 0.000000 0.000000 0.000000 0.037025 0.000000 0.000000
# 5 0.000000 0.000000 0.000000 0.000000 0.038613 0.000000
# 6 0.000000 0.000000 0.000000 0.000000 0.000000 0.039710
#
#
# Mechanical properties :
#
#
# Convention : Reuss Voigt Hill
#
# Bulk Modulus (GPa) = 18.72638 33.35177 26.03908
# Shear Modulus (GPa) = 16.15873 25.46954 20.81413
#
# Velocity S-wave (km/s) = 2.83776 3.56273 3.22071
# Velocity P-wave (km/s) = 4.47992 5.79183 5.17760
#
# Compressibility (1/GPa) = 0.05340059
#
# Stress axis : x y z
#
# Youngs Moduli (GPa) = 35.35470 12.89896 110.72798
#
# Poissons Ratio (x) = 0.27133 0.00113
# Poissons Ratio (y) = 0.74368 1.07133
# Poissons Ratio (z) = 0.00036 0.12480
#
# Static dielectric constant tensor:
#      x y z
#    x 1.745170 0.000000 0.000000 
#    y 0.000000 1.714650 0.000000 
#    z 0.000000 0.000000 1.717710 
# 
# From -- ./inp_files/32499.got.cif
#   From: 2010.05.17/outbox.cif.g08.bks.cpg/sg62_17_cif.got.tgz:32499.got - 2010.06.03 15:25:27.
