data_PCOD9466997
_publ_section_title
;
Structure prediction by ZEFSAII (Michael W. Deem and Ramdas Pophale) SiO2 
 PCOD9466997
Probable space group: P N M A
;
_chemical_formula_sum "Si O2"
_cell_formula_units_Z 48
_cell_length_a 13.294587
_cell_length_b 30.986707
_cell_length_c 5.542897
_cell_angle_alpha 90.000000
_cell_angle_beta 90.000000
_cell_angle_gamma 90.000000
_cell_volume 2283.426750
_symmetry_space_group_name_H-M "P N M A"
_symmetry_group_IT_number 62
_symmetry_cell_setting 'orthorhombic'
loop_
_space_group_symop_operation_xyz
x,y,z
1/2-x,-y,1/2+z
1/2+x,1/2-y,1/2-z
-x,1/2+y,-z
-x,-y,-z
1/2+x,y,1/2-z
1/2-x,1/2+y,1/2+z
x,1/2-y,z
loop_
_atom_site_type_symbol
_atom_site_label
_atom_site_fract_x
_atom_site_fract_y
_atom_site_fract_z
Si Si1 0.984283 0.171573 0.528578
Si Si2 0.262020 0.357288 0.911490
Si Si3 0.267604 0.448747 0.148781
Si Si4 0.097519 0.012644 0.854667
Si Si5 0.368845 0.903695 0.050124
Si Si6 0.917938 0.700725 0.959614
O O1 0.034538 0.124460 0.480726
O O2 0.013493 0.196042 0.280530
O O3 0.865429 0.168219 0.573477
O O4 0.028920 0.189635 0.782822
O O5 0.208579 0.367994 0.657569
O O6 0.284949 0.405427 0.000637
O O7 0.175457 0.332451 0.059755
O O8 0.372784 0.472649 0.187292
O O9 0.196758 0.483436 0.018760
O O10 0.197227 0.430840 0.363411
O O11 0.092042 0.059846 0.736430
O O12 0.000000 0.000000 0.000000
O O13 0.881971 0.750000 0.973146
#
# Coordination Sequence:
#
# PCOD9466997 Si02
#       6
#     8   8   8   8   8   8
#     4  11  25  44  72  99 133 179 221 269 342 408
#     4  10  25  42  69  93 131 180 216 276 340 405
#     4  11  22  41  58  92 128 171 229 279 326 396
#     4  11  25  37  61  90 132 180 228 282 335 379
#     4  10  23  42  59  94 133 173 228 279 326 390
#     4  11  25  46  69 104 136 164 219 279 334 413
#
# _framework density 21.021035999999999
#
# number of rings (size 3 to 8) (size 9 to 14) (size 15 to 20)
#    0.000    1.333    3.333    0.500    7.000    2.000 
#    0.000    0.000    0.000    0.000    0.000    0.000 
#    0.000    0.000    0.000    0.000    0.000    0.000 
#
# Total GULP energy -267633.686529 kJ/mol
# GULP energy per Si atom -5575.701803 kJ/mol
# Density = 2.097319 g / cm^3
# Si number density = 21.021036 Si / 1000 Ang^3
#
#
#
# Elastic Constant Matrix: (Units=GPa)
#
#
# Indices 1 2 3 4 5 6 
#
# 1 72.0753 14.5558 6.3164 0.0000 0.0000 0.0000
# 2 14.5558 53.8592 5.8236 0.0000 0.0000 0.0000
# 3 6.3164 5.8236 60.1374 0.0000 0.0000 0.0000
# 4 0.0000 0.0000 0.0000 15.4557 0.0000 0.0000
# 5 0.0000 0.0000 0.0000 0.0000 8.0790 0.0000
# 6 0.0000 0.0000 0.0000 0.0000 0.0000 20.6869
#
#
#
# Elastic Compliance Matrix: (Units=1/GPa)
#
#
# Indices 1 2 3 4 5 6 
#
# 1 0.014757 -0.003861 -0.001176 0.000000 0.000000 0.000000
# 2 -0.003861 0.019774 -0.001509 0.000000 0.000000 0.000000
# 3 -0.001176 -0.001509 0.016898 0.000000 0.000000 0.000000
# 4 0.000000 0.000000 0.000000 0.064701 0.000000 0.000000
# 5 0.000000 0.000000 0.000000 0.000000 0.123778 0.000000
# 6 0.000000 0.000000 0.000000 0.000000 0.000000 0.048340
#
#
# Mechanical properties :
#
#
# Convention : Reuss Voigt Hill
#
# Bulk Modulus (GPa) = 26.08503 26.60706 26.34605
# Shear Modulus (GPa) = 15.91751 19.46939 17.69345
#
# Velocity S-wave (km/s) = 2.75475 3.04663 2.90436
# Velocity P-wave (km/s) = 4.74912 5.00607 4.87929
#
# Compressibility (1/GPa) = 0.03833616
#
# Stress axis : x y z
#
# Youngs Moduli (GPa) = 67.76357 50.57252 59.17766
#
# Poissons Ratio (x) = 0.19526 0.06960
# Poissons Ratio (y) = 0.26164 0.08932
# Poissons Ratio (z) = 0.07970 0.07633
#
# Static dielectric constant tensor:
#      x y z
#    x 1.749990 0.000000 0.000000 
#    y 0.000000 1.825960 0.000000 
#    z 0.000000 0.000000 1.857710 
# 
# From -- ./inp_files/1170.got.cif
#   From: 2010.05.17/outbox.cif.g08.bks.cpg/sg62_1_cif.got.tgz:1170.got - 2010.06.03 15:25:27.
