data_PCOD9466413
_publ_section_title
;
Structure prediction by ZEFSAII (Michael W. Deem and Ramdas Pophale) SiO2 
 PCOD9466413
Probable space group: P N M A
;
_chemical_formula_sum "Si O2"
_cell_formula_units_Z 56
_cell_length_a 12.817369
_cell_length_b 13.261352
_cell_length_c 12.909549
_cell_angle_alpha 90.000000
_cell_angle_beta 90.000000
_cell_angle_gamma 90.000000
_cell_volume 2194.308880
_symmetry_space_group_name_H-M "P N M A"
_symmetry_group_IT_number 62
_symmetry_cell_setting 'orthorhombic'
loop_
_space_group_symop_operation_xyz
x,y,z
1/2-x,-y,1/2+z
1/2+x,1/2-y,1/2-z
-x,1/2+y,-z
-x,-y,-z
1/2+x,y,1/2-z
1/2-x,1/2+y,1/2+z
x,1/2-y,z
loop_
_atom_site_type_symbol
_atom_site_label
_atom_site_fract_x
_atom_site_fract_y
_atom_site_fract_z
Si Si1 0.352992 0.130416 0.236358
Si Si2 0.074685 0.638191 0.498991
Si Si3 0.989953 0.637497 0.985388
Si Si4 0.316803 0.015842 0.830327
Si Si5 0.321425 0.492473 0.504790
Si Si6 0.489730 0.936117 0.281862
Si Si7 0.641083 0.359670 0.911235
O O1 0.361520 0.250000 0.264799
O O2 0.243076 0.081656 0.279252
O O3 0.445358 0.051286 0.269499
O O4 0.370377 0.129775 0.110546
O O5 0.106267 0.750000 0.455895
O O6 0.278080 0.551239 0.403733
O O7 0.114066 0.566047 0.241936
O O8 0.948794 0.642838 0.499409
O O9 0.972935 0.750000 0.954329
O O10 0.979654 0.618242 0.108414
O O11 0.900617 0.566522 0.938857
O O12 0.272292 0.558226 0.065247
O O13 0.401416 0.045613 0.921885
O O14 0.606326 0.598992 0.534604
O O15 0.420211 0.620600 0.195354
O O16 0.691664 0.250000 0.907872
#
# Coordination Sequence:
#
# PCOD9466413 Si02
#       7
#     8   8   8   8   8   8   8
#     4  11  24  44  69 101 144 192 245 300 371 445
#     4   9  21  43  72 109 146 187 240 308 375 440
#     4  11  26  47  70 104 151 195 240 299 373 451
#     4  11  24  43  73 103 144 187 245 302 365 439
#     4  11  24  44  68 106 141 195 241 301 366 445
#     4  11  24  45  71 106 144 185 242 312 367 442
#     4  10  21  42  76 108 140 182 239 308 374 434
#
# _framework density 25.520564
#
# number of rings (size 3 to 8) (size 9 to 14) (size 15 to 20)
#    0.000    1.429    1.429    2.571    4.000    5.143 
#    0.000    0.714    0.000    0.857    0.000    0.000 
#    0.000    0.000    0.000    0.000    0.000    0.000 
#
# Total GULP energy -311811.662087 kJ/mol
# GULP energy per Si atom -5568.065394 kJ/mol
# Density = 2.546248 g / cm^3
# Si number density = 25.520564 Si / 1000 Ang^3
#
#
#
# Elastic Constant Matrix: (Units=GPa)
#
#
# Indices 1 2 3 4 5 6 
#
# 1 121.4866 24.3759 28.5416 0.0000 0.0000 0.0000
# 2 24.3759 117.1513 20.5236 0.0000 0.0000 0.0000
# 3 28.5416 20.5236 95.5726 0.0000 0.0000 0.0000
# 4 0.0000 0.0000 0.0000 20.7748 0.0000 0.0000
# 5 0.0000 0.0000 0.0000 0.0000 39.5243 0.0000
# 6 0.0000 0.0000 0.0000 0.0000 0.0000 24.6909
#
#
#
# Elastic Compliance Matrix: (Units=1/GPa)
#
#
# Indices 1 2 3 4 5 6 
#
# 1 0.009090 -0.001471 -0.002399 0.000000 0.000000 0.000000
# 2 -0.001471 0.009108 -0.001516 0.000000 0.000000 0.000000
# 3 -0.002399 -0.001516 0.011505 0.000000 0.000000 0.000000
# 4 0.000000 0.000000 0.000000 0.048135 0.000000 0.000000
# 5 0.000000 0.000000 0.000000 0.000000 0.025301 0.000000
# 6 0.000000 0.000000 0.000000 0.000000 0.000000 0.040501
#
#
# Mechanical properties :
#
#
# Convention : Reuss Voigt Hill
#
# Bulk Modulus (GPa) = 52.82521 53.45474 53.13998
# Shear Modulus (GPa) = 31.10945 34.38262 32.74604
#
# Velocity S-wave (km/s) = 3.49520 3.67447 3.58596
# Velocity P-wave (km/s) = 6.08544 6.24448 6.16547
#
# Compressibility (1/GPa) = 0.01893035
#
# Stress axis : x y z
#
# Youngs Moduli (GPa) = 110.00987 109.79658 86.91679
#
# Poissons Ratio (x) = 0.16153 0.20849
# Poissons Ratio (y) = 0.16184 0.13181
# Poissons Ratio (z) = 0.26388 0.16651
#
# Static dielectric constant tensor:
#      x y z
#    x 2.084590 0.000000 0.000000 
#    y 0.000000 2.023420 0.000000 
#    z 0.000000 0.000000 2.188800 
# 
# From -- ./inp_files/19017.got.cif
#   From: 2010.05.17/outbox.cif.g08.bks.cpg/sg62_10_cif.got.tgz:19017.got - 2010.06.03 15:25:27.
