data_PCOD9466706
_publ_section_title
;
Structure prediction by ZEFSAII (Michael W. Deem and Ramdas Pophale) SiO2 
 PCOD9466706
Probable space group: P N M A
;
_chemical_formula_sum "Si O2"
_cell_formula_units_Z 48
_cell_length_a 19.242410
_cell_length_b 8.426692
_cell_length_c 15.239585
_cell_angle_alpha 90.000000
_cell_angle_beta 90.000000
_cell_angle_gamma 90.000000
_cell_volume 2471.096611
_symmetry_space_group_name_H-M "P N M A"
_symmetry_group_IT_number 62
_symmetry_cell_setting 'orthorhombic'
loop_
_space_group_symop_operation_xyz
x,y,z
1/2-x,-y,1/2+z
1/2+x,1/2-y,1/2-z
-x,1/2+y,-z
-x,-y,-z
1/2+x,y,1/2-z
1/2-x,1/2+y,1/2+z
x,1/2-y,z
loop_
_atom_site_type_symbol
_atom_site_label
_atom_site_fract_x
_atom_site_fract_y
_atom_site_fract_z
Si Si1 0.025789 0.940903 0.094296
Si Si2 0.258865 0.561103 0.287186
Si Si3 0.818497 0.937047 0.881617
Si Si4 0.435187 0.941643 0.056346
Si Si5 0.581735 0.056720 0.743980
Si Si6 0.212291 0.438974 0.474309
O O1 0.026555 0.750000 0.094409
O O2 0.972659 0.995914 0.170296
O O3 0.102838 0.003240 0.112365
O O4 0.000000 0.000000 0.000000
O O5 0.255965 0.750000 0.271034
O O6 0.213655 0.476245 0.213017
O O7 0.339383 0.509812 0.278622
O O8 0.230731 0.522590 0.383367
O O9 0.816362 0.750000 0.898493
O O10 0.770823 0.022369 0.953990
O O11 0.435736 0.750000 0.057414
O O12 0.437246 0.996122 0.157650
O O13 0.362199 0.991391 0.012817
O O14 0.500000 0.000000 0.000000
O O15 0.580726 0.250000 0.743975
O O16 0.209764 0.250000 0.460011
#
# Coordination Sequence:
#
# PCOD9466706 Si02
#       6
#     8   8   8   8   8   8
#     4  11  23  41  66  95 128 168 212 264 324 385
#     4  11  22  41  67  94 126 165 208 262 322 381
#     4  12  25  42  63  94 130 169 217 262 313 383
#     4  10  22  41  62  89 124 163 208 258 312 374
#     4   9  20  41  65  89 122 165 207 252 312 378
#     4  11  23  42  66  94 127 163 209 268 325 379
#
# _framework density 19.424574
#
# number of rings (size 3 to 8) (size 9 to 14) (size 15 to 20)
#    0.000    1.333    1.667    4.000    2.333    2.667 
#    0.000    3.333    0.000    0.000    0.000    0.000 
#    0.000    0.000    0.000    0.000    0.000    0.000 
#
# Total GULP energy -268448.731611 kJ/mol
# GULP energy per Si atom -5592.681909 kJ/mol
# Density = 1.938036 g / cm^3
# Si number density = 19.424574 Si / 1000 Ang^3
#
#
#
# Elastic Constant Matrix: (Units=GPa)
#
#
# Indices 1 2 3 4 5 6 
#
# 1 167.0722 0.7278 50.2672 0.0000 0.0000 0.0000
# 2 0.7278 19.6848 -27.7851 0.0000 0.0000 0.0000
# 3 50.2672 -27.7851 86.4576 0.0000 0.0000 0.0000
# 4 0.0000 0.0000 0.0000 35.7376 0.0000 0.0000
# 5 0.0000 0.0000 0.0000 0.0000 41.0374 0.0000
# 6 0.0000 0.0000 0.0000 0.0000 0.0000 -43.6572
#
#
#
# Elastic Compliance Matrix: (Units=1/GPa)
#
#
# Indices 1 2 3 4 5 6 
#
# 1 0.008981 -0.014097 -0.009752 0.000000 0.000000 0.000000
# 2 -0.014097 0.115103 0.045187 0.000000 0.000000 0.000000
# 3 -0.009752 0.045187 0.031758 0.000000 0.000000 0.000000
# 4 0.000000 0.000000 0.000000 0.027982 0.000000 0.000000
# 5 0.000000 0.000000 0.000000 0.000000 0.024368 0.000000
# 6 0.000000 0.000000 0.000000 0.000000 0.000000 -0.022906
#
#
# Mechanical properties :
#
#
# Convention : Reuss Voigt Hill
#
# Bulk Modulus (GPa) = 5.03730 35.51492 20.27611
# Shear Modulus (GPa) = 23.94833 23.29053 23.61943
#
# Velocity S-wave (km/s) = 3.51506 3.46645 3.49084
# Velocity P-wave (km/s) = 4.36727 5.86045 5.16807
#
# Compressibility (1/GPa) = 0.19851893
#
# Stress axis : x y z
#
# Youngs Moduli (GPa) = 111.34719 8.68784 31.48803
#
# Poissons Ratio (x) = 0.12247 0.30707
# Poissons Ratio (y) = 1.56965 -1.42285
# Poissons Ratio (z) = 1.08585 -0.39258
#
# Static dielectric constant tensor:
#      x y z
#    x 1.643290 0.000000 0.000000 
#    y 0.000000 1.669820 0.000000 
#    z 0.000000 0.000000 1.644760 
# 
# From -- ./inp_files/19653.got.cif
#   From: 2010.05.17/outbox.cif.g08.bks.cpg/sg62_10_cif.got.tgz:19653.got - 2010.06.03 15:25:27.
