data_PCOD9466719
_publ_section_title
;
Structure prediction by ZEFSAII (Michael W. Deem and Ramdas Pophale) SiO2 
 PCOD9466719
Probable space group: P N M A
;
_chemical_formula_sum "Si O2"
_cell_formula_units_Z 48
_cell_length_a 20.146114
_cell_length_b 13.480103
_cell_length_c 6.841107
_cell_angle_alpha 90.000000
_cell_angle_beta 90.000000
_cell_angle_gamma 90.000000
_cell_volume 1857.851002
_symmetry_space_group_name_H-M "P N M A"
_symmetry_group_IT_number 62
_symmetry_cell_setting 'orthorhombic'
loop_
_space_group_symop_operation_xyz
x,y,z
1/2-x,-y,1/2+z
1/2+x,1/2-y,1/2-z
-x,1/2+y,-z
-x,-y,-z
1/2+x,y,1/2-z
1/2-x,1/2+y,1/2+z
x,1/2-y,z
loop_
_atom_site_type_symbol
_atom_site_label
_atom_site_fract_x
_atom_site_fract_y
_atom_site_fract_z
Si Si1 0.820207 0.429381 0.269808
Si Si2 0.277704 0.857038 0.248037
Si Si3 0.861394 0.072417 0.813870
Si Si4 0.493732 0.638148 0.425462
Si Si5 0.038497 0.542142 0.686524
Si Si6 0.824685 0.644297 0.819597
O O1 0.798405 0.538676 0.345759
O O2 0.837885 0.427656 0.040287
O O3 0.891322 0.407937 0.368109
O O4 0.753832 0.365217 0.275370
O O5 0.285731 0.750000 0.148536
O O6 0.320071 0.853831 0.445574
O O7 0.199151 0.871819 0.292933
O O8 0.933542 0.121307 0.826702
O O9 0.860692 0.956360 0.754403
O O10 0.472082 0.750000 0.396697
O O11 0.449309 0.555736 0.320439
O O12 0.501735 0.612648 0.655836
O O13 0.000000 0.500000 0.500000
O O14 0.852378 0.750000 0.751971
#
# Coordination Sequence:
#
# PCOD9466719 Si02
#       6
#     8   8   8   8   8   8
#     4   9  19  34  52  78 112 152 189 243 304 356
#     4   9  17  30  51  78 107 144 188 234 295 364
#     4   9  18  34  54  81 116 149 192 249 305 359
#     4  10  22  41  64  89 120 166 214 257 313 375
#     4  10  23  41  61  89 125 161 210 267 309 359
#     4   9  18  32  54  84 114 150 194 240 304 371
#
# _framework density 25.836302
#
# number of rings (size 3 to 8) (size 9 to 14) (size 15 to 20)
#    0.000    2.667    0.000    0.500    2.333    4.667 
#    0.000    8.333    0.000    0.000    0.000    0.000 
#    0.000    0.000    0.000    0.000    0.000    0.000 
#
# Total GULP energy -268278.450432 kJ/mol
# GULP energy per Si atom -5589.134384 kJ/mol
# Density = 2.577750 g / cm^3
# Si number density = 25.836302 Si / 1000 Ang^3
#
#
#
# Elastic Constant Matrix: (Units=GPa)
#
#
# Indices 1 2 3 4 5 6 
#
# 1 94.6315 -16.9009 11.2785 0.0000 0.0000 0.0000
# 2 -16.9009 128.2584 -7.3867 0.0000 0.0000 0.0000
# 3 11.2785 -7.3867 64.7870 0.0000 0.0000 0.0000
# 4 0.0000 0.0000 0.0000 10.7307 0.0000 0.0000
# 5 0.0000 0.0000 0.0000 0.0000 31.6689 0.0000
# 6 0.0000 0.0000 0.0000 0.0000 0.0000 6.7726
#
#
#
# Elastic Compliance Matrix: (Units=1/GPa)
#
#
# Indices 1 2 3 4 5 6 
#
# 1 0.011019 0.001350 -0.001764 0.000000 0.000000 0.000000
# 2 0.001350 0.008014 0.000679 0.000000 0.000000 0.000000
# 3 -0.001764 0.000679 0.015820 0.000000 0.000000 0.000000
# 4 0.000000 0.000000 0.000000 0.093190 0.000000 0.000000
# 5 0.000000 0.000000 0.000000 0.000000 0.031577 0.000000
# 6 0.000000 0.000000 0.000000 0.000000 0.000000 0.147654
#
#
# Mechanical properties :
#
#
# Convention : Reuss Voigt Hill
#
# Bulk Modulus (GPa) = 28.26324 29.07321 28.66823
# Shear Modulus (GPa) = 15.69672 29.88017 22.78844
#
# Velocity S-wave (km/s) = 2.46752 3.40445 2.97312
# Velocity P-wave (km/s) = 4.36821 5.17020 4.78604
#
# Compressibility (1/GPa) = 0.03538165
#
# Stress axis : x y z
#
# Youngs Moduli (GPa) = 90.75444 124.78506 63.21236
#
# Poissons Ratio (x) = -0.16850 0.11152
# Poissons Ratio (y) = -0.12255 -0.04290
# Poissons Ratio (z) = 0.16011 -0.08468
#
# Static dielectric constant tensor:
#      x y z
#    x 2.068000 0.000000 0.000000 
#    y 0.000000 1.989980 0.000000 
#    z 0.000000 0.000000 2.167850 
# 
# From -- ./inp_files/15216.got.cif
#   From: 2010.05.17/outbox.cif.g08.bks.cpg/sg62_8_cif.got.tgz:15216.got - 2010.06.03 15:25:27.
