data_PCOD9466377
_publ_section_title
;
Structure prediction by ZEFSAII (Michael W. Deem and Ramdas Pophale) SiO2 
 PCOD9466377
Probable space group: P N M A
;
_chemical_formula_sum "Si O2"
_cell_formula_units_Z 48
_cell_length_a 6.856302
_cell_length_b 19.183751
_cell_length_c 13.703728
_cell_angle_alpha 90.000000
_cell_angle_beta 90.000000
_cell_angle_gamma 90.000000
_cell_volume 1802.445730
_symmetry_space_group_name_H-M "P N M A"
_symmetry_group_IT_number 62
_symmetry_cell_setting 'orthorhombic'
loop_
_space_group_symop_operation_xyz
x,y,z
1/2-x,-y,1/2+z
1/2+x,1/2-y,1/2-z
-x,1/2+y,-z
-x,-y,-z
1/2+x,y,1/2-z
1/2-x,1/2+y,1/2+z
x,1/2-y,z
loop_
_atom_site_type_symbol
_atom_site_label
_atom_site_fract_x
_atom_site_fract_y
_atom_site_fract_z
Si Si1 0.182831 0.630557 0.959685
Si Si2 0.135750 0.094106 0.835500
Si Si3 0.210615 0.040920 0.618740
Si Si4 0.721545 0.901385 0.967019
Si Si5 0.312221 0.250000 0.104359
Si Si6 0.368057 0.250000 0.327847
Si Si7 0.709614 0.250000 0.892413
Si Si8 0.236951 0.750000 0.328982
O O1 0.315413 0.570402 0.007584
O O2 0.215258 0.685441 0.046643
O O3 0.228454 0.677647 0.864828
O O4 0.958370 0.606512 0.951433
O O5 0.144936 0.077637 0.719882
O O6 0.151967 0.177825 0.848238
O O7 0.943509 0.053594 0.868078
O O8 0.296152 0.074824 0.918749
O O9 0.162164 0.959598 0.611200
O O10 0.641259 0.823535 0.947333
O O11 0.394245 0.250000 0.213225
O O12 0.077937 0.250000 0.119071
O O13 0.476741 0.250000 0.876846
O O14 0.795992 0.250000 0.785754
#
# Coordination Sequence:
#
# PCOD9466377 Si02
#       8
#     8   8   8   8   4   4   4   4
#     4   9  19  38  60  88 123 166 214 245 322 389
#     4  11  23  41  64  96 132 173 213 268 326 389
#     4  11  23  40  67  93 132 173 218 267 327 397
#     4  10  23  42  67  90 125 179 218 262 335 401
#     4  10  21  42  61  89 120 165 220 265 321 388
#     4   9  20  38  63  85 120 164 208 263 303 384
#     4  11  22  34  60  96 131 167 217 266 319 388
#     4  12  23  36  64  98 137 170 211 270 329 382
#
# _framework density 26.630481
#
# number of rings (size 3 to 8) (size 9 to 14) (size 15 to 20)
#    0.000    1.667    1.667    4.000    2.333    6.000 
#    6.000    0.833    3.667    0.000    0.000    0.000 
#    0.000    0.000    0.000    0.000    0.000    0.000 
#
# Total GULP energy -268137.829554 kJ/mol
# GULP energy per Si atom -5586.204782 kJ/mol
# Density = 2.656987 g / cm^3
# Si number density = 26.630481 Si / 1000 Ang^3
#
#
#
# Elastic Constant Matrix: (Units=GPa)
#
#
# Indices 1 2 3 4 5 6 
#
# 1 79.7475 11.5590 20.3727 0.0000 0.0000 0.0000
# 2 11.5590 177.5973 63.1779 0.0000 0.0000 0.0000
# 3 20.3727 63.1779 160.8225 0.0000 0.0000 0.0000
# 4 0.0000 0.0000 0.0000 9.1343 0.0000 0.0000
# 5 0.0000 0.0000 0.0000 0.0000 34.3812 0.0000
# 6 0.0000 0.0000 0.0000 0.0000 0.0000 23.7115
#
#
#
# Elastic Compliance Matrix: (Units=1/GPa)
#
#
# Indices 1 2 3 4 5 6 
#
# 1 0.012973 -0.000302 -0.001525 0.000000 0.000000 0.000000
# 2 -0.000302 0.006552 -0.002536 0.000000 0.000000 0.000000
# 3 -0.001525 -0.002536 0.007407 0.000000 0.000000 0.000000
# 4 0.000000 0.000000 0.000000 0.109477 0.000000 0.000000
# 5 0.000000 0.000000 0.000000 0.000000 0.029086 0.000000
# 6 0.000000 0.000000 0.000000 0.000000 0.000000 0.042174
#
#
# Mechanical properties :
#
#
# Convention : Reuss Voigt Hill
#
# Bulk Modulus (GPa) = 54.92202 67.59850 61.26026
# Shear Modulus (GPa) = 22.47561 34.98260 28.72911
#
# Velocity S-wave (km/s) = 2.90829 3.62834 3.28808
# Velocity P-wave (km/s) = 5.65208 6.55683 6.12120
#
# Compressibility (1/GPa) = 0.01820763
#
# Stress axis : x y z
#
# Youngs Moduli (GPa) = 77.08400 152.61447 135.00062
#
# Poissons Ratio (x) = 0.04608 0.20584
# Poissons Ratio (y) = 0.02327 0.34234
# Poissons Ratio (z) = 0.11754 0.38701
#
# Static dielectric constant tensor:
#      x y z
#    x 2.189810 0.000000 0.000000 
#    y 0.000000 2.212310 0.000000 
#    z 0.000000 0.000000 2.051480 
# 
# From -- ./inp_files/17024.got.cif
#   From: 2010.05.17/outbox.cif.g08.bks.cpg/sg62_9_cif.got.tgz:17024.got - 2010.06.03 15:25:27.
