data_PCOD9466808
_publ_section_title
;
Structure prediction by ZEFSAII (Michael W. Deem and Ramdas Pophale) SiO2 
 PCOD9466808
Probable space group: P N M A
;
_chemical_formula_sum "Si O2"
_cell_formula_units_Z 48
_cell_length_a 9.981675
_cell_length_b 22.358475
_cell_length_c 10.763173
_cell_angle_alpha 90.000000
_cell_angle_beta 90.000000
_cell_angle_gamma 90.000000
_cell_volume 2402.071467
_symmetry_space_group_name_H-M "P N M A"
_symmetry_group_IT_number 62
_symmetry_cell_setting 'orthorhombic'
loop_
_space_group_symop_operation_xyz
x,y,z
1/2-x,-y,1/2+z
1/2+x,1/2-y,1/2-z
-x,1/2+y,-z
-x,-y,-z
1/2+x,y,1/2-z
1/2-x,1/2+y,1/2+z
x,1/2-y,z
loop_
_atom_site_type_symbol
_atom_site_label
_atom_site_fract_x
_atom_site_fract_y
_atom_site_fract_z
Si Si1 0.678995 0.998296 0.223866
Si Si2 0.715368 0.385687 0.873828
Si Si3 0.429051 0.408633 0.979290
Si Si4 0.207497 0.319943 0.880864
Si Si5 0.562280 0.679586 0.538419
Si Si6 0.428675 0.076009 0.270342
O O1 0.725571 0.947933 0.321749
O O2 0.612581 0.964346 0.107278
O O3 0.568966 0.041556 0.284079
O O4 0.807482 0.035541 0.179323
O O5 0.585238 0.396270 0.957034
O O6 0.671552 0.349484 0.750862
O O7 0.827275 0.348113 0.945938
O O8 0.337060 0.354255 0.931846
O O9 0.403142 0.418338 0.123691
O O10 0.234555 0.250000 0.864870
O O11 0.082461 0.327266 0.973509
O O12 0.586197 0.750000 0.559917
O O13 0.567112 0.639403 0.661645
#
# Coordination Sequence:
#
# PCOD9466808 Si02
#       6
#     8   8   8   8   8   8
#     4  11  24  41  66 101 131 172 221 274 333 395
#     4  11  23  42  68  99 132 169 222 281 332 387
#     4  11  24  43  63  99 134 173 221 269 336 403
#     4  10  22  42  67  96 130 174 228 279 325 380
#     4  11  26  45  67  98 134 179 227 267 328 401
#     4  12  25  43  67  95 138 178 213 275 333 401
#
# _framework density 19.982752000000001
#
# number of rings (size 3 to 8) (size 9 to 14) (size 15 to 20)
#    0.000    1.000    1.667    5.000    4.667    4.000 
#    0.000    4.167    0.000    0.000    0.000    0.000 
#    0.000    0.000    0.000    0.000    0.000    0.000 
#
# Total GULP energy -268689.677218 kJ/mol
# GULP energy per Si atom -5597.701609 kJ/mol
# Density = 1.993727 g / cm^3
# Si number density = 19.982752 Si / 1000 Ang^3
#
#
#
# Elastic Constant Matrix: (Units=GPa)
#
#
# Indices 1 2 3 4 5 6 
#
# 1 69.5343 35.8063 23.1376 0.0000 0.0000 0.0000
# 2 35.8063 130.2293 45.3884 0.0000 0.0000 0.0000
# 3 23.1376 45.3884 55.8386 0.0000 0.0000 0.0000
# 4 0.0000 0.0000 0.0000 27.6537 0.0000 0.0000
# 5 0.0000 0.0000 0.0000 0.0000 18.0946 0.0000
# 6 0.0000 0.0000 0.0000 0.0000 0.0000 32.3466
#
#
#
# Elastic Compliance Matrix: (Units=1/GPa)
#
#
# Indices 1 2 3 4 5 6 
#
# 1 0.017590 -0.003204 -0.004685 0.000000 0.000000 0.000000
# 2 -0.003204 0.011298 -0.007856 0.000000 0.000000 0.000000
# 3 -0.004685 -0.007856 0.026235 0.000000 0.000000 0.000000
# 4 0.000000 0.000000 0.000000 0.036162 0.000000 0.000000
# 5 0.000000 0.000000 0.000000 0.000000 0.055265 0.000000
# 6 0.000000 0.000000 0.000000 0.000000 0.000000 0.030915
#
#
# Mechanical properties :
#
#
# Convention : Reuss Voigt Hill
#
# Bulk Modulus (GPa) = 42.31015 51.58519 46.94767
# Shear Modulus (GPa) = 23.05944 25.70363 24.38153
#
# Velocity S-wave (km/s) = 3.40069 3.59038 3.49682
# Velocity P-wave (km/s) = 6.05301 6.56191 6.31259
#
# Compressibility (1/GPa) = 0.02363499
#
# Stress axis : x y z
#
# Youngs Moduli (GPa) = 56.85090 88.51504 38.11639
#
# Poissons Ratio (x) = 0.28357 0.17856
# Poissons Ratio (y) = 0.18213 0.29943
# Poissons Ratio (z) = 0.26632 0.69535
#
# Static dielectric constant tensor:
#      x y z
#    x 1.676640 0.000000 0.000000 
#    y 0.000000 1.682450 0.000000 
#    z 0.000000 0.000000 1.692660 
# 
# From -- ./inp_files/11291.got.cif
#   From: 2010.05.17/outbox.cif.g08.bks.cpg/sg62_6_cif.got.tgz:11291.got - 2010.06.03 15:25:27.
