data_PCOD9466540
_publ_section_title
;
Structure prediction by ZEFSAII (Michael W. Deem and Ramdas Pophale) SiO2 
 PCOD9466540
Probable space group: P N M A
;
_chemical_formula_sum "Si O2"
_cell_formula_units_Z 48
_cell_length_a 28.848009
_cell_length_b 7.940830
_cell_length_c 9.761550
_cell_angle_alpha 90.000000
_cell_angle_beta 90.000000
_cell_angle_gamma 90.000000
_cell_volume 2236.147910
_symmetry_space_group_name_H-M "P N M A"
_symmetry_group_IT_number 62
_symmetry_cell_setting 'orthorhombic'
loop_
_space_group_symop_operation_xyz
x,y,z
1/2-x,-y,1/2+z
1/2+x,1/2-y,1/2-z
-x,1/2+y,-z
-x,-y,-z
1/2+x,y,1/2-z
1/2-x,1/2+y,1/2+z
x,1/2-y,z
loop_
_atom_site_type_symbol
_atom_site_label
_atom_site_fract_x
_atom_site_fract_y
_atom_site_fract_z
Si Si1 0.642870 0.554132 0.991285
Si Si2 0.512881 0.952307 0.652424
Si Si3 0.697730 0.951885 0.504461
Si Si4 0.543496 0.452035 0.094043
Si Si5 0.882419 0.456050 0.193070
Si Si6 0.220444 0.055345 0.303785
O O1 0.656703 0.750000 0.991306
O O2 0.590188 0.537080 0.042668
O O3 0.676521 0.461113 0.095710
O O4 0.642447 0.491694 0.834415
O O5 0.514642 0.750000 0.665215
O O6 0.473008 0.009640 0.756107
O O7 0.564451 0.015776 0.689354
O O8 0.500000 0.000000 0.500000
O O9 0.697876 0.750000 0.516809
O O10 0.647885 0.009573 0.562313
O O11 0.736804 0.019887 0.609236
O O12 0.709204 0.986832 0.346681
O O13 0.550255 0.250000 0.091333
O O14 0.500000 0.500000 0.000000
O O15 0.883887 0.250000 0.196225
O O16 0.231487 0.250000 0.280485
#
# Coordination Sequence:
#
# PCOD9466540 Si02
#       6
#     8   8   8   8   8   8
#     4  11  22  40  65  89 120 164 206 250 306 363
#     4  10  22  39  58  85 122 159 202 249 297 355
#     4  10  22  41  65  89 120 160 200 243 301 366
#     4  11  22  39  61  90 124 160 205 255 303 360
#     4   9  19  39  62  86 116 158 205 247 296 359
#     4  11  24  41  62  94 127 155 198 254 301 360
#
# _framework density 21.465485000000001
#
# number of rings (size 3 to 8) (size 9 to 14) (size 15 to 20)
#    0.000    1.667    1.667    2.500    2.333    4.000 
#    0.000    1.667    0.000    0.000    0.000    0.000 
#    0.000    0.000    0.000    0.000    0.000    0.000 
#
# Total GULP energy -268188.471996 kJ/mol
# GULP energy per Si atom -5587.259833 kJ/mol
# Density = 2.141663 g / cm^3
# Si number density = 21.465485 Si / 1000 Ang^3
#
#
#
# Elastic Constant Matrix: (Units=GPa)
#
#
# Indices 1 2 3 4 5 6 
#
# 1 58.7067 -7.8517 11.1975 0.0000 0.0000 0.0000
# 2 -7.8517 24.8252 -1.4922 0.0000 0.0000 0.0000
# 3 11.1975 -1.4922 130.9288 0.0000 0.0000 0.0000
# 4 0.0000 0.0000 0.0000 29.5325 0.0000 0.0000
# 5 0.0000 0.0000 0.0000 0.0000 38.0770 0.0000
# 6 0.0000 0.0000 0.0000 0.0000 0.0000 17.4600
#
#
#
# Elastic Compliance Matrix: (Units=1/GPa)
#
#
# Indices 1 2 3 4 5 6 
#
# 1 0.018069 0.005626 -0.001481 0.000000 0.000000 0.000000
# 2 0.005626 0.042061 -0.000002 0.000000 0.000000 0.000000
# 3 -0.001481 -0.000002 0.007764 0.000000 0.000000 0.000000
# 4 0.000000 0.000000 0.000000 0.033861 0.000000 0.000000
# 5 0.000000 0.000000 0.000000 0.000000 0.026263 0.000000
# 6 0.000000 0.000000 0.000000 0.000000 0.000000 0.057274
#
#
# Mechanical properties :
#
#
# Convention : Reuss Voigt Hill
#
# Bulk Modulus (GPa) = 13.12687 24.24088 18.68387
# Shear Modulus (GPa) = 24.70366 31.18768 27.94567
#
# Velocity S-wave (km/s) = 3.39611 3.81586 3.61208
# Velocity P-wave (km/s) = 4.63753 5.54363 5.11070
#
# Compressibility (1/GPa) = 0.07617962
#
# Stress axis : x y z
#
# Youngs Moduli (GPa) = 55.34412 23.77505 128.79299
#
# Poissons Ratio (x) = -0.13375 0.19077
# Poissons Ratio (y) = -0.31135 0.00023
# Poissons Ratio (z) = 0.08198 0.00004
#
# Static dielectric constant tensor:
#      x y z
#    x 1.772770 0.000000 0.000000 
#    y 0.000000 1.705440 0.000000 
#    z 0.000000 0.000000 1.777210 
# 
# From -- ./inp_files/10140.got.cif
#   From: 2010.05.17/outbox.cif.g08.bks.cpg/sg62_6_cif.got.tgz:10140.got - 2010.06.03 15:25:27.
