data_PCOD9466166
_publ_section_title
;
Structure prediction by ZEFSAII (Michael W. Deem and Ramdas Pophale) SiO2 
 PCOD9466166
Probable space group: P N M A
;
_chemical_formula_sum "Si O2"
_cell_formula_units_Z 48
_cell_length_a 9.525982
_cell_length_b 16.322655
_cell_length_c 13.616890
_cell_angle_alpha 90.000000
_cell_angle_beta 90.000000
_cell_angle_gamma 90.000000
_cell_volume 2117.280936
_symmetry_space_group_name_H-M "P N M A"
_symmetry_group_IT_number 62
_symmetry_cell_setting 'orthorhombic'
loop_
_space_group_symop_operation_xyz
x,y,z
1/2-x,-y,1/2+z
1/2+x,1/2-y,1/2-z
-x,1/2+y,-z
-x,-y,-z
1/2+x,y,1/2-z
1/2-x,1/2+y,1/2+z
x,1/2-y,z
loop_
_atom_site_type_symbol
_atom_site_label
_atom_site_fract_x
_atom_site_fract_y
_atom_site_fract_z
Si Si1 0.221610 0.983307 0.059264
Si Si2 0.626768 0.150381 0.824094
Si Si3 0.409231 0.117641 0.981940
Si Si4 0.887600 0.658346 0.100569
Si Si5 0.645631 0.750000 0.691449
Si Si6 0.464272 0.088641 0.416633
Si Si7 0.465769 0.750000 0.880329
O O1 0.101757 0.037300 0.114683
O O2 0.257225 0.901192 0.117513
O O3 0.361709 0.036942 0.040990
O O4 0.168396 0.966444 0.947061
O O5 0.640543 0.250000 0.832793
O O6 0.485208 0.119585 0.876857
O O7 0.628880 0.125716 0.710178
O O8 0.259621 0.158763 0.957304
O O9 0.510750 0.171519 0.050477
O O10 0.940495 0.750000 0.114428
O O11 0.991686 0.616012 0.026039
O O12 0.578399 0.667708 0.644487
O O13 0.593779 0.750000 0.803160
O O14 0.812896 0.750000 0.670767
#
# Coordination Sequence:
#
# PCOD9466166 Si02
#       7
#     8   8   8   8   4   8   4
#     4  10  24  43  71 102 151 195 235 309 367 423
#     4  11  23  40  70 110 142 193 244 293 372 455
#     4  11  23  48  68 104 156 184 248 303 376 426
#     4  10  21  39  75 104 143 191 237 307 365 441
#     4  12  28  48  83 105 144 196 261 297 361 452
#     4  10  23  47  70 104 146 193 248 300 372 431
#     4  12  28  48  79 115 136 206 247 307 369 436
#
# _framework density 22.670586
#
# number of rings (size 3 to 8) (size 9 to 14) (size 15 to 20)
#    0.000    1.333    2.500    1.500    8.167    0.000 
#    9.000    3.333    0.000    0.000    0.000    0.000 
#    0.000    0.000    0.000    0.000    0.000    0.000 
#
# Total GULP energy -267917.000781 kJ/mol
# GULP energy per Si atom -5581.604183 kJ/mol
# Density = 2.261899 g / cm^3
# Si number density = 22.670586 Si / 1000 Ang^3
#
#
#
# Elastic Constant Matrix: (Units=GPa)
#
#
# Indices 1 2 3 4 5 6 
#
# 1 87.9001 9.7132 6.0988 0.0000 0.0000 0.0000
# 2 9.7132 64.8656 12.6565 0.0000 0.0000 0.0000
# 3 6.0988 12.6565 80.5665 0.0000 0.0000 0.0000
# 4 0.0000 0.0000 0.0000 2.3657 0.0000 0.0000
# 5 0.0000 0.0000 0.0000 0.0000 30.7684 0.0000
# 6 0.0000 0.0000 0.0000 0.0000 0.0000 21.6559
#
#
#
# Elastic Compliance Matrix: (Units=1/GPa)
#
#
# Indices 1 2 3 4 5 6 
#
# 1 0.011598 -0.001615 -0.000624 0.000000 0.000000 0.000000
# 2 -0.001615 0.016129 -0.002411 0.000000 0.000000 0.000000
# 3 -0.000624 -0.002411 0.012838 0.000000 0.000000 0.000000
# 4 0.000000 0.000000 0.000000 0.422707 0.000000 0.000000
# 5 0.000000 0.000000 0.000000 0.000000 0.032501 0.000000
# 6 0.000000 0.000000 0.000000 0.000000 0.000000 0.046177
#
#
# Mechanical properties :
#
#
# Convention : Reuss Voigt Hill
#
# Bulk Modulus (GPa) = 31.98577 32.25213 32.11895
# Shear Modulus (GPa) = 8.90198 24.61557 16.75878
#
# Velocity S-wave (km/s) = 1.98373 3.29871 2.72183
# Velocity P-wave (km/s) = 4.40301 5.36339 4.90675
#
# Compressibility (1/GPa) = 0.03126390
#
# Stress axis : x y z
#
# Youngs Moduli (GPa) = 86.21935 62.00066 77.89257
#
# Poissons Ratio (x) = 0.10013 0.04863
# Poissons Ratio (y) = 0.13924 0.18784
# Poissons Ratio (z) = 0.05383 0.14951
#
# Static dielectric constant tensor:
#      x y z
#    x 1.934990 0.000000 0.000000 
#    y 0.000000 1.997480 0.000000 
#    z 0.000000 0.000000 1.783910 
# 
# From -- ./inp_files/17015.got.cif
#   From: 2010.05.17/outbox.cif.g08.bks.cpg/sg62_9_cif.got.tgz:17015.got - 2010.06.03 15:25:27.
