data_PCOD9466199
_publ_section_title
;
Structure prediction by ZEFSAII (Michael W. Deem and Ramdas Pophale) SiO2 
 PCOD9466199
Probable space group: P N M A
;
_chemical_formula_sum "Si O2"
_cell_formula_units_Z 40
_cell_length_a 9.549923
_cell_length_b 29.669934
_cell_length_c 5.542531
_cell_angle_alpha 90.000000
_cell_angle_beta 90.000000
_cell_angle_gamma 90.000000
_cell_volume 1570.451689
_symmetry_space_group_name_H-M "P N M A"
_symmetry_group_IT_number 62
_symmetry_cell_setting 'orthorhombic'
loop_
_space_group_symop_operation_xyz
x,y,z
1/2-x,-y,1/2+z
1/2+x,1/2-y,1/2-z
-x,1/2+y,-z
-x,-y,-z
1/2+x,y,1/2-z
1/2-x,1/2+y,1/2+z
x,1/2-y,z
loop_
_atom_site_type_symbol
_atom_site_label
_atom_site_fract_x
_atom_site_fract_y
_atom_site_fract_z
Si Si1 0.690126 0.338448 0.443825
Si Si2 0.439488 0.750000 0.794002
Si Si3 0.814724 0.250000 0.992957
Si Si4 0.790931 0.415171 0.132017
Si Si5 0.964314 0.973810 0.743127
Si Si6 0.081218 0.845736 0.220475
O O1 0.629103 0.293372 0.331680
O O2 0.694726 0.376817 0.246766
O O3 0.853290 0.338811 0.518162
O O4 0.582521 0.349676 0.661247
O O5 0.603385 0.750000 0.752464
O O6 0.354155 0.750000 0.043544
O O7 0.866970 0.297884 0.892576
O O8 0.936000 0.430180 0.251191
O O9 0.694884 0.458835 0.187127
O O10 0.844178 0.390845 0.885941
O O11 0.000000 0.000000 0.500000
O O12 0.000000 0.000000 0.000000
#
# Coordination Sequence:
#
# PCOD9466199 Si02
#       6
#     8   4   4   8   8   8
#     4  11  25  42  69 104 145 191 242 295 357 436
#     4  10  21  40  62  99 145 191 237 289 357 422
#     4  10  21  40  62  99 145 191 237 289 357 422
#     4  12  26  45  76 106 140 184 244 299 372 446
#     4  12  30  52  76 107 148 191 242 312 390 460
#     4  11  25  42  69 104 145 191 242 295 357 436
#
# _framework density 25.470382000000001
#
# number of rings (size 3 to 8) (size 9 to 14) (size 15 to 20)
#    0.000    0.800    4.000    1.800    8.400    1.600 
#    0.000    0.000    0.000    0.000    0.000    0.000 
#    0.000    0.000    0.000    0.000    0.000    0.000 
#
# Total GULP energy -222877.274281 kJ/mol
# GULP energy per Si atom -5571.931857 kJ/mol
# Density = 2.541241 g / cm^3
# Si number density = 25.470382 Si / 1000 Ang^3
#
#
#
# Elastic Constant Matrix: (Units=GPa)
#
#
# Indices 1 2 3 4 5 6 
#
# 1 100.7166 11.6349 5.2845 0.0000 0.0000 0.0000
# 2 11.6349 85.1350 42.0753 0.0000 0.0000 0.0000
# 3 5.2845 42.0753 66.3641 0.0000 0.0000 0.0000
# 4 0.0000 0.0000 0.0000 36.0864 0.0000 0.0000
# 5 0.0000 0.0000 0.0000 0.0000 31.5535 0.0000
# 6 0.0000 0.0000 0.0000 0.0000 0.0000 42.7957
#
#
#
# Elastic Compliance Matrix: (Units=1/GPa)
#
#
# Indices 1 2 3 4 5 6 
#
# 1 0.010089 -0.001430 0.000103 0.000000 0.000000 0.000000
# 2 -0.001430 0.017309 -0.010860 0.000000 0.000000 0.000000
# 3 0.000103 -0.010860 0.021945 0.000000 0.000000 0.000000
# 4 0.000000 0.000000 0.000000 0.027711 0.000000 0.000000
# 5 0.000000 0.000000 0.000000 0.000000 0.031692 0.000000
# 6 0.000000 0.000000 0.000000 0.000000 0.000000 0.023367
#
#
# Mechanical properties :
#
#
# Convention : Reuss Voigt Hill
#
# Bulk Modulus (GPa) = 40.04872 41.13391 40.59131
# Shear Modulus (GPa) = 30.33809 34.96852 32.65331
#
# Velocity S-wave (km/s) = 3.45499 3.70930 3.58440
# Velocity P-wave (km/s) = 5.62794 5.87622 5.75342
#
# Compressibility (1/GPa) = 0.02496959
#
# Stress axis : x y z
#
# Youngs Moduli (GPa) = 99.12175 57.77464 45.56748
#
# Poissons Ratio (x) = 0.08260 -0.00470
# Poissons Ratio (y) = 0.14172 0.49486
# Poissons Ratio (z) = -0.01022 0.62743
#
# Static dielectric constant tensor:
#      x y z
#    x 2.101660 0.000000 0.000000 
#    y 0.000000 2.260700 0.000000 
#    z 0.000000 0.000000 2.212380 
# 
# From -- ./inp_files/625.got.cif
#   From: 2010.05.17/outbox.cif.g08.bks.cpg/sg62_1_cif.got.tgz:625.got - 2010.06.03 15:25:27.
