data_PCOD9466280
_publ_section_title
;
Structure prediction by ZEFSAII (Michael W. Deem and Ramdas Pophale) SiO2 
 PCOD9466280
Probable space group: P N M A
;
_chemical_formula_sum "Si O2"
_cell_formula_units_Z 60
_cell_length_a 26.766210
_cell_length_b 18.229766
_cell_length_c 5.312836
_cell_angle_alpha 90.000000
_cell_angle_beta 90.000000
_cell_angle_gamma 90.000000
_cell_volume 2592.354469
_symmetry_space_group_name_H-M "P N M A"
_symmetry_group_IT_number 62
_symmetry_cell_setting 'orthorhombic'
loop_
_space_group_symop_operation_xyz
x,y,z
1/2-x,-y,1/2+z
1/2+x,1/2-y,1/2-z
-x,1/2+y,-z
-x,-y,-z
1/2+x,y,1/2-z
1/2-x,1/2+y,1/2+z
x,1/2-y,z
loop_
_atom_site_type_symbol
_atom_site_label
_atom_site_fract_x
_atom_site_fract_y
_atom_site_fract_z
Si Si1 0.897811 0.602440 0.256017
Si Si2 0.234197 0.672394 0.849600
Si Si3 0.298154 0.590118 0.513486
Si Si4 0.968131 0.115606 0.492018
Si Si5 0.538155 0.250000 0.812812
Si Si6 0.636395 0.669415 0.997158
Si Si7 0.444867 0.533714 0.743496
Si Si8 0.799760 0.057061 0.764676
O O1 0.838385 0.604528 0.201728
O O2 0.920849 0.684034 0.250394
O O3 0.912008 0.564844 0.520846
O O4 0.922232 0.555649 0.025788
O O5 0.238392 0.750000 0.991309
O O6 0.282009 0.660842 0.671191
O O7 0.182801 0.674323 0.692722
O O8 0.228221 0.601351 0.016976
O O9 0.318896 0.522848 0.674940
O O10 0.243798 0.557422 0.440773
O O11 0.915672 0.143793 0.382659
O O12 0.997423 0.184598 0.609212
O O13 0.003378 0.078457 0.283554
O O14 0.956640 0.051124 0.694471
O O15 0.630159 0.750000 0.113591
O O16 0.654379 0.608483 0.191465
#
# Coordination Sequence:
#
# PCOD9466280 Si02
#       8
#     8   8   8   8   4   8   8   8
#     4  11  26  46  70 105 139 188 232 297 344 435
#     4  10  23  41  60  98 132 174 224 285 348 434
#     4  11  24  40  70  93 140 180 232 284 355 409
#     4  10  21  44  70  97 138 186 226 300 348 417
#     4  10  24  46  68 102 138 176 244 276 350 416
#     4  10  21  40  66  95 137 171 228 281 364 413
#     4  10  25  45  70 103 141 178 244 284 356 416
#     4  11  22  40  64 101 131 178 233 285 344 437
#
# _framework density 23.144983
#
# number of rings (size 3 to 8) (size 9 to 14) (size 15 to 20)
#    0.000    1.600    2.000    1.200    4.667    7.467 
#    4.800    0.000    0.000    0.000    0.000    0.000 
#    0.000    0.000    0.000    0.000    0.000    0.000 
#
# Total GULP energy -334093.081477 kJ/mol
# GULP energy per Si atom -5568.218025 kJ/mol
# Density = 2.309230 g / cm^3
# Si number density = 23.144983 Si / 1000 Ang^3
#
#
#
# Elastic Constant Matrix: (Units=GPa)
#
#
# Indices 1 2 3 4 5 6 
#
# 1 110.4273 40.7526 11.2333 0.0000 0.0000 0.0000
# 2 40.7526 155.1976 13.1493 0.0000 0.0000 0.0000
# 3 11.2333 13.1493 58.2639 0.0000 0.0000 0.0000
# 4 0.0000 0.0000 0.0000 11.0911 0.0000 0.0000
# 5 0.0000 0.0000 0.0000 0.0000 23.8377 0.0000
# 6 0.0000 0.0000 0.0000 0.0000 0.0000 18.1544
#
#
#
# Elastic Compliance Matrix: (Units=1/GPa)
#
#
# Indices 1 2 3 4 5 6 
#
# 1 0.010135 -0.002544 -0.001380 0.000000 0.000000 0.000000
# 2 -0.002544 0.007208 -0.001136 0.000000 0.000000 0.000000
# 3 -0.001380 -0.001136 0.017686 0.000000 0.000000 0.000000
# 4 0.000000 0.000000 0.000000 0.090163 0.000000 0.000000
# 5 0.000000 0.000000 0.000000 0.000000 0.041950 0.000000
# 6 0.000000 0.000000 0.000000 0.000000 0.000000 0.055083
#
#
# Mechanical properties :
#
#
# Convention : Reuss Voigt Hill
#
# Bulk Modulus (GPa) = 40.14791 50.46213 45.30502
# Shear Modulus (GPa) = 20.77723 27.86687 24.32205
#
# Velocity S-wave (km/s) = 2.99941 3.47365 3.24521
# Velocity P-wave (km/s) = 5.42026 6.15941 5.80162
#
# Compressibility (1/GPa) = 0.02490789
#
# Stress axis : x y z
#
# Youngs Moduli (GPa) = 98.66704 138.73890 56.54279
#
# Poissons Ratio (x) = 0.35301 0.07802
# Poissons Ratio (y) = 0.25105 0.06424
# Poissons Ratio (z) = 0.13614 0.15762
#
# Static dielectric constant tensor:
#      x y z
#    x 1.917080 0.000000 0.000000 
#    y 0.000000 1.893630 0.000000 
#    z 0.000000 0.000000 1.974390 
# 
# From -- ./inp_files/3283.got.cif
#   From: 2010.05.17/outbox.cif.g08.bks.cpg/sg62_2_cif.got.tgz:3283.got - 2010.06.03 15:25:27.
