data_PCOD9466845
_publ_section_title
;
Structure prediction by ZEFSAII (Michael W. Deem and Ramdas Pophale) SiO2 
 PCOD9466845
Probable space group: P N M A
;
_chemical_formula_sum "Si O2"
_cell_formula_units_Z 32
_cell_length_a 13.888942
_cell_length_b 18.801870
_cell_length_c 5.206679
_cell_angle_alpha 90.000000
_cell_angle_beta 90.000000
_cell_angle_gamma 90.000000
_cell_volume 1359.662167
_symmetry_space_group_name_H-M "P N M A"
_symmetry_group_IT_number 62
_symmetry_cell_setting 'orthorhombic'
loop_
_space_group_symop_operation_xyz
x,y,z
1/2-x,-y,1/2+z
1/2+x,1/2-y,1/2-z
-x,1/2+y,-z
-x,-y,-z
1/2+x,y,1/2-z
1/2-x,1/2+y,1/2+z
x,1/2-y,z
loop_
_atom_site_type_symbol
_atom_site_label
_atom_site_fract_x
_atom_site_fract_y
_atom_site_fract_z
Si Si1 0.358460 0.447918 0.906904
Si Si2 0.198212 0.673148 0.059417
Si Si3 0.192287 0.133254 0.043046
Si Si4 0.517544 0.435711 0.302014
O O1 0.363340 0.395123 0.659341
O O2 0.401288 0.526298 0.881064
O O3 0.247359 0.442973 0.992406
O O4 0.427973 0.415306 0.126322
O O5 0.147638 0.750000 0.052915
O O6 0.275972 0.674310 0.290119
O O7 0.254949 0.662294 0.795067
O O8 0.079060 0.126131 0.070841
O O9 0.500000 0.500000 0.500000
#
# Coordination Sequence:
#
# PCOD9466845 Si02
#       4
#     8   8   8   8
#     4   9  24  36  67  95 129 170 205 268 322 385
#     4  10  22  43  64  90 126 174 218 259 311 381
#     4  10  24  39  69  90 128 169 210 268 323 380
#     4  11  23  40  64 102 131 162 214 270 334 392
#
# _framework density 23.535257000000001
#
# number of rings (size 3 to 8) (size 9 to 14) (size 15 to 20)
#    1.500    0.500    0.000    2.250   14.000    0.000 
#    0.000    2.500    0.000    0.000    0.000    0.000 
#    0.000    0.000    0.000    0.000    0.000    0.000 
#
# Total GULP energy -178290.213918 kJ/mol
# GULP energy per Si atom -5571.569185 kJ/mol
# Density = 2.348169 g / cm^3
# Si number density = 23.535257 Si / 1000 Ang^3
#
#
#
# Elastic Constant Matrix: (Units=GPa)
#
#
# Indices 1 2 3 4 5 6 
#
# 1 52.2326 -5.5194 -13.1077 0.0000 0.0000 0.0000
# 2 -5.5194 56.9090 -2.3223 0.0000 0.0000 0.0000
# 3 -13.1077 -2.3223 109.7346 0.0000 0.0000 0.0000
# 4 0.0000 0.0000 0.0000 132.3940 0.0000 0.0000
# 5 0.0000 0.0000 0.0000 0.0000 26.1575 0.0000
# 6 0.0000 0.0000 0.0000 0.0000 0.0000 25.5552
#
#
#
# Elastic Compliance Matrix: (Units=1/GPa)
#
#
# Indices 1 2 3 4 5 6 
#
# 1 0.019970 0.002036 0.002428 0.000000 0.000000 0.000000
# 2 0.002036 0.017795 0.000620 0.000000 0.000000 0.000000
# 3 0.002428 0.000620 0.009416 0.000000 0.000000 0.000000
# 4 0.000000 0.000000 0.000000 0.007553 0.000000 0.000000
# 5 0.000000 0.000000 0.000000 0.000000 0.038230 0.000000
# 6 0.000000 0.000000 0.000000 0.000000 0.000000 0.039131
#
#
# Mechanical properties :
#
#
# Convention : Reuss Voigt Hill
#
# Bulk Modulus (GPa) = 17.43722 19.66416 18.55069
# Shear Modulus (GPa) = 35.45028 52.80972 44.13000
#
# Velocity S-wave (km/s) = 3.88527 4.74207 4.33489
# Velocity P-wave (km/s) = 5.24902 6.19325 5.74058
#
# Compressibility (1/GPa) = 0.05734858
#
# Stress axis : x y z
#
# Youngs Moduli (GPa) = 50.07597 56.19666 106.20124
#
# Poissons Ratio (x) = -0.11441 -0.25790
# Poissons Ratio (y) = -0.10195 -0.06582
# Poissons Ratio (z) = -0.12161 -0.03483
#
# Static dielectric constant tensor:
#      x y z
#    x 1.965280 0.000000 0.000000 
#    y 0.000000 1.968550 0.000000 
#    z 0.000000 0.000000 1.981340 
# 
# From -- ./inp_files/436.got.cif
#   From: 2010.05.17/outbox.cif.g08.bks.cpg/sg62_1_cif.got.tgz:436.got - 2010.06.03 15:25:27.
