data_PCOD9466972
_publ_section_title
;
Structure prediction by ZEFSAII (Michael W. Deem and Ramdas Pophale) SiO2 
 PCOD9466972
Probable space group: P N M A
;
_chemical_formula_sum "Si O2"
_cell_formula_units_Z 56
_cell_length_a 21.073520
_cell_length_b 8.178429
_cell_length_c 16.082301
_cell_angle_alpha 90.000000
_cell_angle_beta 90.000000
_cell_angle_gamma 90.000000
_cell_volume 2771.757030
_symmetry_space_group_name_H-M "P N M A"
_symmetry_group_IT_number 62
_symmetry_cell_setting 'orthorhombic'
loop_
_space_group_symop_operation_xyz
x,y,z
1/2-x,-y,1/2+z
1/2+x,1/2-y,1/2-z
-x,1/2+y,-z
-x,-y,-z
1/2+x,y,1/2-z
1/2-x,1/2+y,1/2+z
x,1/2-y,z
loop_
_atom_site_type_symbol
_atom_site_label
_atom_site_fract_x
_atom_site_fract_y
_atom_site_fract_z
Si Si1 0.170869 0.552399 0.747033
Si Si2 0.339523 0.070121 0.861743
Si Si3 0.779090 0.052756 0.889896
Si Si4 0.454925 0.937576 0.929858
Si Si5 0.719679 0.933252 0.579012
Si Si6 0.095151 0.445342 0.195744
Si Si7 0.474519 0.944628 0.231399
O O1 0.172386 0.750000 0.748807
O O2 0.225560 0.502400 0.678862
O O3 0.182791 0.490189 0.842343
O O4 0.099319 0.492774 0.729808
O O5 0.310465 0.250000 0.861040
O O6 0.393998 0.052787 0.929220
O O7 0.289002 0.933171 0.880419
O O8 0.374374 0.034048 0.775918
O O9 0.777162 0.250000 0.886814
O O10 0.850678 0.991787 0.870436
O O11 0.769614 0.996981 0.986242
O O12 0.435762 0.750000 0.940209
O O13 0.492956 0.959598 0.844452
O O14 0.500000 0.000000 0.000000
O O15 0.694122 0.750000 0.566773
O O16 0.094537 0.250000 0.205903
O O17 0.021928 0.506720 0.191943
O O18 0.479945 0.750000 0.219068
#
# Coordination Sequence:
#
# PCOD9466972 Si02
#       7
#     8   8   8   8   8   8   8
#     4  11  23  42  65  92 127 167 207 258 315 373
#     4  11  21  35  58  85 118 157 200 246 300 362
#     4  11  23  40  64  94 125 164 210 258 310 373
#     4  11  22  37  56  82 119 158 202 248 304 372
#     4  10  23  41  62  89 126 163 205 254 311 370
#     4  11  21  39  63  89 121 161 206 252 307 370
#     4  11  23  40  62  88 120 161 207 259 315 373
#
# _framework density 20.203790999999999
#
# number of rings (size 3 to 8) (size 9 to 14) (size 15 to 20)
#    0.000    1.143    1.429    7.714    2.000    1.714 
#    0.000    0.714    0.000    0.000    0.000    0.000 
#    0.000    0.000    0.000    0.000    0.000    0.000 
#
# Total GULP energy -311802.898182 kJ/mol
# GULP energy per Si atom -5567.908896 kJ/mol
# Density = 2.015781 g / cm^3
# Si number density = 20.203791 Si / 1000 Ang^3
#
#
#
# Elastic Constant Matrix: (Units=GPa)
#
#
# Indices 1 2 3 4 5 6 
#
# 1 70.6856 -2.2766 13.6443 0.0000 0.0000 0.0000
# 2 -2.2766 105.9174 3.1263 0.0000 0.0000 0.0000
# 3 13.6443 3.1263 68.0884 0.0000 0.0000 0.0000
# 4 0.0000 0.0000 0.0000 18.6802 0.0000 0.0000
# 5 0.0000 0.0000 0.0000 0.0000 21.2657 0.0000
# 6 0.0000 0.0000 0.0000 0.0000 0.0000 30.8279
#
#
#
# Elastic Compliance Matrix: (Units=1/GPa)
#
#
# Indices 1 2 3 4 5 6 
#
# 1 0.014734 0.000404 -0.002971 0.000000 0.000000 0.000000
# 2 0.000404 0.009465 -0.000516 0.000000 0.000000 0.000000
# 3 -0.002971 -0.000516 0.015306 0.000000 0.000000 0.000000
# 4 0.000000 0.000000 0.000000 0.053533 0.000000 0.000000
# 5 0.000000 0.000000 0.000000 0.000000 0.047024 0.000000
# 6 0.000000 0.000000 0.000000 0.000000 0.000000 0.032438
#
#
# Mechanical properties :
#
#
# Convention : Reuss Voigt Hill
#
# Bulk Modulus (GPa) = 29.99389 30.40882 30.20135
# Shear Modulus (GPa) = 26.34661 29.50123 27.92392
#
# Velocity S-wave (km/s) = 3.61507 3.82538 3.72171
# Velocity P-wave (km/s) = 5.68356 5.88176 5.78351
#
# Compressibility (1/GPa) = 0.03334012
#
# Stress axis : x y z
#
# Youngs Moduli (GPa) = 67.87168 105.64982 65.33453
#
# Poissons Ratio (x) = -0.04272 0.19411
# Poissons Ratio (y) = -0.02745 0.03369
# Poissons Ratio (z) = 0.20165 0.05448
#
# Static dielectric constant tensor:
#      x y z
#    x 1.782110 0.000000 0.000000 
#    y 0.000000 1.717810 0.000000 
#    z 0.000000 0.000000 1.783170 
# 
# From -- ./inp_files/20256.got.cif
#   From: 2010.05.17/outbox.cif.g08.bks.cpg/sg62_11_cif.got.tgz:20256.got - 2010.06.03 15:25:27.
