data_PCOD9466287
_publ_section_title
;
Structure prediction by ZEFSAII (Michael W. Deem and Ramdas Pophale) SiO2 
 PCOD9466287
Probable space group: P N M A
;
_chemical_formula_sum "Si O2"
_cell_formula_units_Z 40
_cell_length_a 13.579344
_cell_length_b 14.658954
_cell_length_c 9.465838
_cell_angle_alpha 90.000000
_cell_angle_beta 90.000000
_cell_angle_gamma 90.000000
_cell_volume 1884.260048
_symmetry_space_group_name_H-M "P N M A"
_symmetry_group_IT_number 62
_symmetry_cell_setting 'orthorhombic'
loop_
_space_group_symop_operation_xyz
x,y,z
1/2-x,-y,1/2+z
1/2+x,1/2-y,1/2-z
-x,1/2+y,-z
-x,-y,-z
1/2+x,y,1/2-z
1/2-x,1/2+y,1/2+z
x,1/2-y,z
loop_
_atom_site_type_symbol
_atom_site_label
_atom_site_fract_x
_atom_site_fract_y
_atom_site_fract_z
Si Si1 0.055179 0.415619 0.429901
Si Si2 0.169997 0.351369 0.691522
Si Si3 0.588367 0.358708 0.502421
Si Si4 0.721385 0.465709 0.287212
Si Si5 0.588223 0.645451 0.690354
O O1 0.102575 0.356799 0.553714
O O2 0.140947 0.457475 0.334244
O O3 0.000000 0.500000 0.500000
O O4 0.983613 0.361058 0.325923
O O5 0.212754 0.250000 0.706902
O O6 0.250061 0.430831 0.679142
O O7 0.104467 0.370480 0.831167
O O8 0.598179 0.250000 0.470379
O O9 0.673680 0.413299 0.420310
O O10 0.481480 0.385807 0.439950
O O11 0.818906 0.415977 0.228691
O O12 0.619277 0.750000 0.665800
#
# Coordination Sequence:
#
# PCOD9466287 Si02
#       5
#     8   8   8   8   8
#     4  11  23  44  65  95 130 170 214 266 325 384
#     4  11  23  41  63  93 130 165 210 273 327 378
#     4   9  21  41  63  92 128 165 212 266 321 383
#     4  11  22  41  67  91 128 171 220 258 317 398
#     4  10  21  40  67  92 122 170 216 262 322 385
#
# _framework density 21.228493
#
# number of rings (size 3 to 8) (size 9 to 14) (size 15 to 20)
#    0.000    1.600    2.000    2.400    0.000    3.200 
#    3.600    1.000    0.000    0.000    0.000    0.000 
#    0.000    0.000    0.000    0.000    0.000    0.000 
#
# Total GULP energy -223776.656962 kJ/mol
# GULP energy per Si atom -5594.416424 kJ/mol
# Density = 2.118018 g / cm^3
# Si number density = 21.228493 Si / 1000 Ang^3
#
#
#
# Elastic Constant Matrix: (Units=GPa)
#
#
# Indices 1 2 3 4 5 6 
#
# 1 82.3528 21.0616 0.0112 0.0000 0.0000 0.0000
# 2 21.0616 71.4059 -14.0449 0.0000 0.0000 0.0000
# 3 0.0112 -14.0449 66.6989 0.0000 0.0000 0.0000
# 4 0.0000 0.0000 0.0000 32.7520 0.0000 0.0000
# 5 0.0000 0.0000 0.0000 0.0000 7.8685 0.0000
# 6 0.0000 0.0000 0.0000 0.0000 0.0000 3.3545
#
#
#
# Elastic Compliance Matrix: (Units=1/GPa)
#
#
# Indices 1 2 3 4 5 6 
#
# 1 0.013180 -0.004056 -0.000856 0.000000 0.000000 0.000000
# 2 -0.004056 0.015858 0.003340 0.000000 0.000000 0.000000
# 3 -0.000856 0.003340 0.015696 0.000000 0.000000 0.000000
# 4 0.000000 0.000000 0.000000 0.030532 0.000000 0.000000
# 5 0.000000 0.000000 0.000000 0.000000 0.127089 0.000000
# 6 0.000000 0.000000 0.000000 0.000000 0.000000 0.298108
#
#
# Mechanical properties :
#
#
# Convention : Reuss Voigt Hill
#
# Bulk Modulus (GPa) = 24.04468 26.05705 25.05086
# Shear Modulus (GPa) = 9.66235 23.02364 16.34300
#
# Velocity S-wave (km/s) = 2.13576 3.29684 2.77765
# Velocity P-wave (km/s) = 4.17530 5.17624 4.70248
#
# Compressibility (1/GPa) = 0.04158925
#
# Stress axis : x y z
#
# Youngs Moduli (GPa) = 75.87070 63.06078 63.70981
#
# Poissons Ratio (x) = 0.25578 0.05455
# Poissons Ratio (y) = 0.30773 -0.21278
# Poissons Ratio (z) = 0.06497 -0.21061
#
# Static dielectric constant tensor:
#      x y z
#    x 1.711690 0.000000 0.000000 
#    y 0.000000 1.838480 0.000000 
#    z 0.000000 0.000000 1.768430 
# 
# From -- ./inp_files/6095.got.cif
#   From: 2010.05.17/outbox.cif.g08.bks.cpg/sg62_4_cif.got.tgz:6095.got - 2010.06.03 15:25:27.
