data_PCOD9466348
_publ_section_title
;
Structure prediction by ZEFSAII (Michael W. Deem and Ramdas Pophale) SiO2 
 PCOD9466348
Probable space group: P N M A
;
_chemical_formula_sum "Si O2"
_cell_formula_units_Z 32
_cell_length_a 8.977929
_cell_length_b 14.814871
_cell_length_c 11.712662
_cell_angle_alpha 90.000000
_cell_angle_beta 90.000000
_cell_angle_gamma 90.000000
_cell_volume 1557.864395
_symmetry_space_group_name_H-M "P N M A"
_symmetry_group_IT_number 62
_symmetry_cell_setting 'orthorhombic'
loop_
_space_group_symop_operation_xyz
x,y,z
1/2-x,-y,1/2+z
1/2+x,1/2-y,1/2-z
-x,1/2+y,-z
-x,-y,-z
1/2+x,y,1/2-z
1/2-x,1/2+y,1/2+z
x,1/2-y,z
loop_
_atom_site_type_symbol
_atom_site_label
_atom_site_fract_x
_atom_site_fract_y
_atom_site_fract_z
Si Si1 0.629592 0.750000 0.342757
Si Si2 0.530068 0.147324 0.122709
Si Si3 0.023460 0.250000 0.599628
Si Si4 0.778389 0.036172 0.243576
Si Si5 0.976586 0.057733 0.888141
O O1 0.582484 0.750000 0.209083
O O2 0.806716 0.750000 0.358004
O O3 0.560847 0.838214 0.401532
O O4 0.045365 0.250000 0.331541
O O5 0.680871 0.093553 0.152745
O O6 0.392329 0.098608 0.184711
O O7 0.504129 0.164632 0.987243
O O8 0.660190 0.988514 0.323813
O O9 0.876283 0.958635 0.185876
O O10 0.000000 0.000000 0.000000
#
# Coordination Sequence:
#
# PCOD9466348 Si02
#       5
#     4   8   4   8   8
#     4  12  24  46  60  92 130 170 218 260 322 384
#     4   9  20  39  66  99 130 172 212 267 320 368
#     4  10  24  38  66  92 128 174 210 256 322 378
#     4  10  21  41  65  97 130 165 225 262 312 387
#     4  11  25  43  67  95 128 174 211 272 318 383
#
# _framework density 20.540942000000001
#
# number of rings (size 3 to 8) (size 9 to 14) (size 15 to 20)
#    0.750    1.000    0.000    3.750    0.000    4.000 
#   11.250    6.250    0.000    0.000    0.000    0.000 
#    0.000    0.000    0.000    0.000    0.000    0.000 
#
# Total GULP energy -178774.095330 kJ/mol
# GULP energy per Si atom -5586.690479 kJ/mol
# Density = 2.049419 g / cm^3
# Si number density = 20.540942 Si / 1000 Ang^3
#
#
#
# Elastic Constant Matrix: (Units=GPa)
#
#
# Indices 1 2 3 4 5 6 
#
# 1 71.7376 0.0434 19.6134 0.0000 0.0000 0.0000
# 2 0.0434 90.3452 7.8569 0.0000 0.0000 0.0000
# 3 19.6134 7.8569 88.3807 0.0000 0.0000 0.0000
# 4 0.0000 0.0000 0.0000 3.3597 0.0000 0.0000
# 5 0.0000 0.0000 0.0000 0.0000 19.7236 0.0000
# 6 0.0000 0.0000 0.0000 0.0000 0.0000 2.9303
#
#
#
# Elastic Compliance Matrix: (Units=1/GPa)
#
#
# Indices 1 2 3 4 5 6 
#
# 1 0.014847 0.000282 -0.003320 0.000000 0.000000 0.000000
# 2 0.000282 0.011160 -0.001055 0.000000 0.000000 0.000000
# 3 -0.003320 -0.001055 0.012145 0.000000 0.000000 0.000000
# 4 0.000000 0.000000 0.000000 0.297648 0.000000 0.000000
# 5 0.000000 0.000000 0.000000 0.000000 0.050701 0.000000
# 6 0.000000 0.000000 0.000000 0.000000 0.000000 0.341266
#
#
# Mechanical properties :
#
#
# Convention : Reuss Voigt Hill
#
# Bulk Modulus (GPa) = 33.37032 33.94343 33.65687
# Shear Modulus (GPa) = 6.70293 20.06601 13.38447
#
# Velocity S-wave (km/s) = 1.80839 3.12890 2.55541
# Velocity P-wave (km/s) = 4.54328 5.44187 5.01275
#
# Compressibility (1/GPa) = 0.02996675
#
# Stress axis : x y z
#
# Youngs Moduli (GPa) = 67.35273 89.60380 82.33704
#
# Poissons Ratio (x) = -0.02523 0.27335
# Poissons Ratio (y) = -0.01897 0.08683
# Poissons Ratio (z) = 0.22361 0.09450
#
# Static dielectric constant tensor:
#      x y z
#    x 1.690720 0.000000 0.000000 
#    y 0.000000 1.722720 0.000000 
#    z 0.000000 0.000000 1.728670 
# 
# From -- ./inp_files/10957.got.cif
#   From: 2010.05.17/outbox.cif.g08.bks.cpg/sg62_6_cif.got.tgz:10957.got - 2010.06.03 15:25:27.
