data_PCOD9466056
_publ_section_title
;
Structure prediction by ZEFSAII (Michael W. Deem and Ramdas Pophale) SiO2 
 PCOD9466056
Probable space group: P N M A
;
_chemical_formula_sum "Si O2"
_cell_formula_units_Z 56
_cell_length_a 15.064744
_cell_length_b 7.843271
_cell_length_c 21.961847
_cell_angle_alpha 90.000000
_cell_angle_beta 90.000000
_cell_angle_gamma 90.000000
_cell_volume 2594.943095
_symmetry_space_group_name_H-M "P N M A"
_symmetry_group_IT_number 62
_symmetry_cell_setting 'orthorhombic'
loop_
_space_group_symop_operation_xyz
x,y,z
1/2-x,-y,1/2+z
1/2+x,1/2-y,1/2-z
-x,1/2+y,-z
-x,-y,-z
1/2+x,y,1/2-z
1/2-x,1/2+y,1/2+z
x,1/2-y,z
loop_
_atom_site_type_symbol
_atom_site_label
_atom_site_fract_x
_atom_site_fract_y
_atom_site_fract_z
Si Si1 0.201216 0.952842 0.282478
Si Si2 0.225916 0.551930 0.506936
Si Si3 0.893173 0.050212 0.251312
Si Si4 0.933641 0.544155 0.821058
Si Si5 0.904401 0.458999 0.597668
Si Si6 0.584285 0.456038 0.459507
Si Si7 0.896071 0.551629 0.389546
O O1 0.210299 0.750000 0.287608
O O2 0.140289 0.012181 0.338719
O O3 0.299610 0.028314 0.282413
O O4 0.149917 0.994606 0.220263
O O5 0.236286 0.750000 0.489664
O O6 0.157406 0.480048 0.457468
O O7 0.324152 0.476779 0.511418
O O8 0.180050 0.541191 0.572797
O O9 0.908375 0.250000 0.262780
O O10 0.976436 0.983554 0.212384
O O11 0.886925 0.963648 0.317119
O O12 0.937516 0.750000 0.823022
O O13 0.926084 0.481575 0.890157
O O14 0.908126 0.250000 0.597651
O O15 0.006128 0.516335 0.593232
O O16 0.500000 0.500000 0.500000
O O17 0.591290 0.250000 0.456506
O O18 0.890454 0.750000 0.406564
#
# Coordination Sequence:
#
# PCOD9466056 Si02
#       7
#     8   8   8   8   8   8   8
#     4  11  22  38  62  91 123 157 201 255 303 356
#     4  10  21  39  61  86 121 164 199 240 304 364
#     4  11  23  38  59  86 120 160 200 246 302 363
#     4  10  22  41  61  87 123 160 201 246 297 362
#     4   9  20  37  58  88 124 156 196 247 301 360
#     4  10  23  41  62  86 117 156 200 247 295 355
#     4  11  21  38  61  90 122 154 200 252 299 358
#
# _framework density 21.580435999999999
#
# number of rings (size 3 to 8) (size 9 to 14) (size 15 to 20)
#    0.000    1.714    1.429    2.571    2.000    2.857 
#    0.000    2.143    0.000    0.000    0.000    0.000 
#    0.000    0.000    0.000    0.000    0.000    0.000 
#
# Total GULP energy -313092.045281 kJ/mol
# GULP energy per Si atom -5590.929380 kJ/mol
# Density = 2.153132 g / cm^3
# Si number density = 21.580436 Si / 1000 Ang^3
#
#
#
# Elastic Constant Matrix: (Units=GPa)
#
#
# Indices 1 2 3 4 5 6 
#
# 1 119.4575 -0.4828 -7.1232 0.0000 0.0000 0.0000
# 2 -0.4828 23.4577 2.6300 0.0000 0.0000 0.0000
# 3 -7.1232 2.6300 31.4795 0.0000 0.0000 0.0000
# 4 0.0000 0.0000 0.0000 3.0522 0.0000 0.0000
# 5 0.0000 0.0000 0.0000 0.0000 25.9323 0.0000
# 6 0.0000 0.0000 0.0000 0.0000 0.0000 14.6797
#
#
#
# Elastic Compliance Matrix: (Units=1/GPa)
#
#
# Indices 1 2 3 4 5 6 
#
# 1 0.008486 -0.000041 0.001924 0.000000 0.000000 0.000000
# 2 -0.000041 0.043033 -0.003605 0.000000 0.000000 0.000000
# 3 0.001924 -0.003605 0.032503 0.000000 0.000000 0.000000
# 4 0.000000 0.000000 0.000000 0.327630 0.000000 0.000000
# 5 0.000000 0.000000 0.000000 0.000000 0.038562 0.000000
# 6 0.000000 0.000000 0.000000 0.000000 0.000000 0.068121
#
#
# Mechanical properties :
#
#
# Convention : Reuss Voigt Hill
#
# Bulk Modulus (GPa) = 12.41033 18.27141 15.34087
# Shear Modulus (GPa) = 9.11347 20.69089 14.90218
#
# Velocity S-wave (km/s) = 2.05723 3.09978 2.63067
# Velocity P-wave (km/s) = 3.37730 4.61482 4.04368
#
# Compressibility (1/GPa) = 0.08057804
#
# Stress axis : x y z
#
# Youngs Moduli (GPa) = 117.84512 23.23790 30.76626
#
# Poissons Ratio (x) = 0.00095 -0.05918
# Poissons Ratio (y) = 0.00483 0.11090
# Poissons Ratio (z) = -0.22668 0.08376
#
# Static dielectric constant tensor:
#      x y z
#    x 1.763580 0.000000 0.000000 
#    y 0.000000 1.790870 0.000000 
#    z 0.000000 0.000000 1.753570 
# 
# From -- ./inp_files/27208.got.cif
#   From: 2010.05.17/outbox.cif.g08.bks.cpg/sg62_14_cif.got.tgz:27208.got - 2010.06.03 15:25:27.
