data_PCOD9466275
_publ_section_title
;
Structure prediction by ZEFSAII (Michael W. Deem and Ramdas Pophale) SiO2 
 PCOD9466275
Probable space group: P N M A
;
_chemical_formula_sum "Si O2"
_cell_formula_units_Z 48
_cell_length_a 15.046517
_cell_length_b 13.791787
_cell_length_c 11.690679
_cell_angle_alpha 90.000000
_cell_angle_beta 90.000000
_cell_angle_gamma 90.000000
_cell_volume 2426.030505
_symmetry_space_group_name_H-M "P N M A"
_symmetry_group_IT_number 62
_symmetry_cell_setting 'orthorhombic'
loop_
_space_group_symop_operation_xyz
x,y,z
1/2-x,-y,1/2+z
1/2+x,1/2-y,1/2-z
-x,1/2+y,-z
-x,-y,-z
1/2+x,y,1/2-z
1/2-x,1/2+y,1/2+z
x,1/2-y,z
loop_
_atom_site_type_symbol
_atom_site_label
_atom_site_fract_x
_atom_site_fract_y
_atom_site_fract_z
Si Si1 0.682198 0.462434 0.969383
Si Si2 0.305342 0.638639 0.578469
Si Si3 0.521482 0.140464 0.581279
Si Si4 0.156933 0.860652 0.935246
Si Si5 0.076880 0.981939 0.747681
Si Si6 0.907395 0.634365 0.684786
O O1 0.728632 0.567649 0.964182
O O2 0.620956 0.462643 0.857984
O O3 0.766157 0.390045 0.976847
O O4 0.626586 0.431320 0.080357
O O5 0.275178 0.750000 0.579239
O O6 0.389261 0.630163 0.493277
O O7 0.345695 0.616454 0.703841
O O8 0.519073 0.250000 0.628227
O O9 0.437485 0.129714 0.498173
O O10 0.523208 0.059143 0.676837
O O11 0.169304 0.750000 0.897571
O O12 0.151734 0.932283 0.827504
O O13 0.007872 0.898419 0.711731
O O14 0.903345 0.750000 0.660051
#
# Coordination Sequence:
#
# PCOD9466275 Si02
#       6
#     8   8   8   8   8   8
#     4  12  25  38  61  98 130 163 203 264 329 374
#     4  10  21  41  66  91 123 164 212 260 307 372
#     4  10  21  40  66  94 124 165 211 262 314 369
#     4  11  22  41  67  93 121 165 222 263 306 377
#     4  12  23  41  66  92 129 169 214 263 322 381
#     4  11  24  44  67  92 127 172 218 260 311 382
#
# _framework density 19.785406999999999
#
# number of rings (size 3 to 8) (size 9 to 14) (size 15 to 20)
#    0.000    1.000    3.333    4.000    0.000    4.000 
#    0.000    0.833    0.000    0.000    0.000    0.000 
#    0.000    0.000    0.000    0.000    0.000    0.000 
#
# Total GULP energy -268290.941615 kJ/mol
# GULP energy per Si atom -5589.394617 kJ/mol
# Density = 1.974037 g / cm^3
# Si number density = 19.785407 Si / 1000 Ang^3
#
#
#
# Elastic Constant Matrix: (Units=GPa)
#
#
# Indices 1 2 3 4 5 6 
#
# 1 41.9873 15.0324 26.3113 0.0000 0.0000 0.0000
# 2 15.0324 83.6273 63.2813 0.0000 0.0000 0.0000
# 3 26.3113 63.2813 83.7205 0.0000 0.0000 0.0000
# 4 0.0000 0.0000 0.0000 19.9938 0.0000 0.0000
# 5 0.0000 0.0000 0.0000 0.0000 18.4329 0.0000
# 6 0.0000 0.0000 0.0000 0.0000 0.0000 22.2117
#
#
#
# Elastic Compliance Matrix: (Units=1/GPa)
#
#
# Indices 1 2 3 4 5 6 
#
# 1 0.030248 0.004103 -0.012608 0.000000 0.000000 0.000000
# 2 0.004103 0.028493 -0.022827 0.000000 0.000000 0.000000
# 3 -0.012608 -0.022827 0.033160 0.000000 0.000000 0.000000
# 4 0.000000 0.000000 0.000000 0.050016 0.000000 0.000000
# 5 0.000000 0.000000 0.000000 0.000000 0.054251 0.000000
# 6 0.000000 0.000000 0.000000 0.000000 0.000000 0.045021
#
#
# Mechanical properties :
#
#
# Convention : Reuss Voigt Hill
#
# Bulk Modulus (GPa) = 34.19994 46.50945 40.35470
# Shear Modulus (GPa) = 15.94396 19.10836 17.52616
#
# Velocity S-wave (km/s) = 2.84182 3.11107 2.97949
# Velocity P-wave (km/s) = 5.30008 6.03846 5.68128
#
# Compressibility (1/GPa) = 0.02923982
#
# Stress axis : x y z
#
# Youngs Moduli (GPa) = 33.05975 35.09601 30.15636
#
# Poissons Ratio (x) = -0.14400 0.38020
# Poissons Ratio (y) = -0.13564 0.68836
# Poissons Ratio (z) = 0.41680 0.80112
#
# Static dielectric constant tensor:
#      x y z
#    x 1.707670 0.000000 0.000000 
#    y 0.000000 1.698190 0.000000 
#    z 0.000000 0.000000 1.684190 
# 
# From -- ./inp_files/13302.got.cif
#   From: 2010.05.17/outbox.cif.g08.bks.cpg/sg62_7_cif.got.tgz:13302.got - 2010.06.03 15:25:27.
