data_PCOD9466121
_publ_section_title
;
Structure prediction by ZEFSAII (Michael W. Deem and Ramdas Pophale) SiO2 
 PCOD9466121
Probable space group: P N M A
;
_chemical_formula_sum "Si O2"
_cell_formula_units_Z 40
_cell_length_a 7.651513
_cell_length_b 8.578241
_cell_length_c 30.924203
_cell_angle_alpha 90.000000
_cell_angle_beta 90.000000
_cell_angle_gamma 90.000000
_cell_volume 2029.757147
_symmetry_space_group_name_H-M "P N M A"
_symmetry_group_IT_number 62
_symmetry_cell_setting 'orthorhombic'
loop_
_space_group_symop_operation_xyz
x,y,z
1/2-x,-y,1/2+z
1/2+x,1/2-y,1/2-z
-x,1/2+y,-z
-x,-y,-z
1/2+x,y,1/2-z
1/2-x,1/2+y,1/2+z
x,1/2-y,z
loop_
_atom_site_type_symbol
_atom_site_label
_atom_site_fract_x
_atom_site_fract_y
_atom_site_fract_z
Si Si1 0.196451 0.562174 0.389333
Si Si2 0.707097 0.572237 0.204507
Si Si3 0.304289 0.064193 0.111334
Si Si4 0.788803 0.572067 0.297621
Si Si5 0.992018 0.437197 0.048473
O O1 0.199614 0.750000 0.387920
O O2 0.261950 0.504028 0.341748
O O3 0.323221 0.500448 0.426230
O O4 0.996074 0.509128 0.395520
O O5 0.778159 0.750000 0.207302
O O6 0.745506 0.498465 0.251039
O O7 0.498299 0.580896 0.200942
O O8 0.322753 0.250000 0.109875
O O9 0.164085 0.013943 0.075533
O O10 0.236049 0.015240 0.158900
O O11 0.718728 0.750000 0.298900
O O12 0.986291 0.250000 0.048009
O O13 0.000000 0.500000 0.000000
#
# Coordination Sequence:
#
# PCOD9466121 Si02
#       5
#     8   8   8   8   8
#     4  10  21  39  64  90 119 157 200 248 299 352
#     4   8  16  29  50  81 112 148 195 240 283 336
#     4  10  22  40  59  85 123 159 194 243 300 360
#     4   9  17  31  52  80 113 153 200 242 283 340
#     4  11  25  43  64  90 119 155 202 251 305 363
#
# _framework density 19.706792
#
# number of rings (size 3 to 8) (size 9 to 14) (size 15 to 20)
#    0.000    2.400    0.000    3.000    2.800    4.000 
#    0.000    5.000    0.000    0.000    0.000    0.000 
#    0.000    0.000    0.000    0.000    0.000    0.000 
#
# Total GULP energy -223123.248164 kJ/mol
# GULP energy per Si atom -5578.081204 kJ/mol
# Density = 1.966194 g / cm^3
# Si number density = 19.706792 Si / 1000 Ang^3
#
#
#
# Elastic Constant Matrix: (Units=GPa)
#
#
# Indices 1 2 3 4 5 6 
#
# 1 96.4563 28.9789 86.8289 0.0000 0.0000 0.0000
# 2 28.9789 41.5665 44.3063 0.0000 0.0000 0.0000
# 3 86.8289 44.3063 227.8988 0.0000 0.0000 0.0000
# 4 0.0000 0.0000 0.0000 28.7992 0.0000 0.0000
# 5 0.0000 0.0000 0.0000 0.0000 38.3172 0.0000
# 6 0.0000 0.0000 0.0000 0.0000 0.0000 20.6840
#
#
#
# Elastic Compliance Matrix: (Units=1/GPa)
#
#
# Indices 1 2 3 4 5 6 
#
# 1 0.016968 -0.006230 -0.005254 0.000000 0.000000 0.000000
# 2 -0.006230 0.032634 -0.003971 0.000000 0.000000 0.000000
# 3 -0.005254 -0.003971 0.007162 0.000000 0.000000 0.000000
# 4 0.000000 0.000000 0.000000 0.034723 0.000000 0.000000
# 5 0.000000 0.000000 0.000000 0.000000 0.026098 0.000000
# 6 0.000000 0.000000 0.000000 0.000000 0.000000 0.048347
#
#
# Mechanical properties :
#
#
# Convention : Reuss Voigt Hill
#
# Bulk Modulus (GPa) = 38.67758 76.23889 57.45824
# Shear Modulus (GPa) = 24.33582 31.28057 27.80820
#
# Velocity S-wave (km/s) = 3.51792 3.98841 3.76053
# Velocity P-wave (km/s) = 6.01416 7.74471 6.93364
#
# Compressibility (1/GPa) = 0.02585477
#
# Stress axis : x y z
#
# Youngs Moduli (GPa) = 58.93292 30.64326 139.63422
#
# Poissons Ratio (x) = 0.19090 0.73361
# Poissons Ratio (y) = 0.36714 0.55446
# Poissons Ratio (z) = 0.30962 0.12168
#
# Static dielectric constant tensor:
#      x y z
#    x 1.682340 0.000000 0.000000 
#    y 0.000000 1.690570 0.000000 
#    z 0.000000 0.000000 1.718490 
# 
# From -- ./inp_files/30666.got.cif
#   From: 2010.05.17/outbox.cif.g08.bks.cpg/sg62_16_cif.got.tgz:30666.got - 2010.06.03 15:25:27.
