data_PCOD9466016
_publ_section_title
;
Structure prediction by ZEFSAII (Michael W. Deem and Ramdas Pophale) SiO2 
 PCOD9466016
Probable space group: P N M A
;
_chemical_formula_sum "Si O2"
_cell_formula_units_Z 40
_cell_length_a 9.141031
_cell_length_b 24.214389
_cell_length_c 7.027272
_cell_angle_alpha 90.000000
_cell_angle_beta 90.000000
_cell_angle_gamma 90.000000
_cell_volume 1555.447870
_symmetry_space_group_name_H-M "P N M A"
_symmetry_group_IT_number 62
_symmetry_cell_setting 'orthorhombic'
loop_
_space_group_symop_operation_xyz
x,y,z
1/2-x,-y,1/2+z
1/2+x,1/2-y,1/2-z
-x,1/2+y,-z
-x,-y,-z
1/2+x,y,1/2-z
1/2-x,1/2+y,1/2+z
x,1/2-y,z
loop_
_atom_site_type_symbol
_atom_site_label
_atom_site_fract_x
_atom_site_fract_y
_atom_site_fract_z
Si Si1 0.624132 0.639812 0.775017
Si Si2 0.554793 0.135840 0.881269
Si Si3 0.038438 0.511197 0.727064
Si Si4 0.598934 0.313992 0.479444
Si Si5 0.799763 0.438006 0.808844
O O1 0.584413 0.574753 0.755976
O O2 0.784329 0.650604 0.858094
O O3 0.564172 0.670450 0.589353
O O4 0.515878 0.664707 0.939044
O O5 0.608373 0.170567 0.701594
O O6 0.415526 0.100027 0.802556
O O7 0.697483 0.099801 0.943416
O O8 0.166712 0.469770 0.790402
O O9 0.000000 0.500000 0.500000
O O10 0.900130 0.490961 0.847437
O O11 0.629683 0.250000 0.450344
#
# Coordination Sequence:
#
# PCOD9466016 Si02
#       5
#     8   8   8   8   8
#     4  12  26  48  74 104 148 187 238 299 352 432
#     4  11  23  48  72 101 147 186 240 291 354 425
#     4  11  20  38  67 101 144 180 225 274 351 428
#     4  12  29  49  72 104 136 189 251 307 362 408
#     4  10  21  38  70 103 141 186 223 279 348 433
#
# _framework density 25.716068
#
# number of rings (size 3 to 8) (size 9 to 14) (size 15 to 20)
#    0.000    0.800    6.000    1.800    2.800    3.200 
#    0.000    5.000    0.000    0.000    0.000    0.000 
#    0.000    0.000    0.000    0.000    0.000    0.000 
#
# Total GULP energy -223394.456401 kJ/mol
# GULP energy per Si atom -5584.861410 kJ/mol
# Density = 2.565754 g / cm^3
# Si number density = 25.716068 Si / 1000 Ang^3
#
#
#
# Elastic Constant Matrix: (Units=GPa)
#
#
# Indices 1 2 3 4 5 6 
#
# 1 150.9719 9.2178 11.9831 0.0000 0.0000 0.0000
# 2 9.2178 98.1328 4.2725 0.0000 0.0000 0.0000
# 3 11.9831 4.2725 74.9400 0.0000 0.0000 0.0000
# 4 0.0000 0.0000 0.0000 16.6250 0.0000 0.0000
# 5 0.0000 0.0000 0.0000 0.0000 42.3816 0.0000
# 6 0.0000 0.0000 0.0000 0.0000 0.0000 26.9704
#
#
#
# Elastic Compliance Matrix: (Units=1/GPa)
#
#
# Indices 1 2 3 4 5 6 
#
# 1 0.006743 -0.000588 -0.001045 0.000000 0.000000 0.000000
# 2 -0.000588 0.010267 -0.000491 0.000000 0.000000 0.000000
# 3 -0.001045 -0.000491 0.013539 0.000000 0.000000 0.000000
# 4 0.000000 0.000000 0.000000 0.060150 0.000000 0.000000
# 5 0.000000 0.000000 0.000000 0.000000 0.023595 0.000000
# 6 0.000000 0.000000 0.000000 0.000000 0.000000 0.037078
#
#
# Mechanical properties :
#
#
# Convention : Reuss Voigt Hill
#
# Bulk Modulus (GPa) = 38.02160 41.66572 39.84366
# Shear Modulus (GPa) = 30.41614 37.10015 33.75814
#
# Velocity S-wave (km/s) = 3.44287 3.80239 3.62709
# Velocity P-wave (km/s) = 5.53369 5.95944 5.75051
#
# Compressibility (1/GPa) = 0.02630084
#
# Stress axis : x y z
#
# Youngs Moduli (GPa) = 148.31165 97.40058 73.86032
#
# Poissons Ratio (x) = 0.05726 0.07716
# Poissons Ratio (y) = 0.08719 0.03629
# Poissons Ratio (z) = 0.15493 0.04786
#
# Static dielectric constant tensor:
#      x y z
#    x 2.065860 0.000000 0.000000 
#    y 0.000000 2.058090 0.000000 
#    z 0.000000 0.000000 2.178700 
# 
# From -- ./inp_files/4263.got.cif
#   From: 2010.05.17/outbox.cif.g08.bks.cpg/sg62_3_cif.got.tgz:4263.got - 2010.06.03 15:25:27.
