data_PCOD9466193
_publ_section_title
;
Structure prediction by ZEFSAII (Michael W. Deem and Ramdas Pophale) SiO2 
 PCOD9466193
Probable space group: P N M A
;
_chemical_formula_sum "Si O2"
_cell_formula_units_Z 56
_cell_length_a 5.853832
_cell_length_b 18.204608
_cell_length_c 23.485776
_cell_angle_alpha 90.000000
_cell_angle_beta 90.000000
_cell_angle_gamma 90.000000
_cell_volume 2502.802041
_symmetry_space_group_name_H-M "P N M A"
_symmetry_group_IT_number 62
_symmetry_cell_setting 'orthorhombic'
loop_
_space_group_symop_operation_xyz
x,y,z
1/2-x,-y,1/2+z
1/2+x,1/2-y,1/2-z
-x,1/2+y,-z
-x,-y,-z
1/2+x,y,1/2-z
1/2-x,1/2+y,1/2+z
x,1/2-y,z
loop_
_atom_site_type_symbol
_atom_site_label
_atom_site_fract_x
_atom_site_fract_y
_atom_site_fract_z
Si Si1 0.761080 0.093874 0.222863
Si Si2 0.472650 0.559436 0.117684
Si Si3 0.232592 0.166845 0.524947
Si Si4 0.628753 0.838254 0.601484
Si Si5 0.776489 0.924639 0.260833
Si Si6 0.880145 0.578598 0.063583
Si Si7 0.736344 0.056588 0.438606
O O1 0.509044 0.116766 0.248328
O O2 0.779067 0.124184 0.158670
O O3 0.760920 0.005021 0.230491
O O4 0.396057 0.617265 0.070071
O O5 0.317274 0.562966 0.172221
O O6 0.737646 0.579674 0.121256
O O7 0.450185 0.477517 0.093310
O O8 0.157537 0.250000 0.528631
O O9 0.237568 0.145545 0.458189
O O10 0.490047 0.152875 0.547348
O O11 0.622848 0.750000 0.607494
O O12 0.377088 0.872332 0.589267
O O13 0.524213 0.889407 0.254698
O O14 0.050459 0.509523 0.067504
O O15 0.736356 0.563929 0.005873
#
# Coordination Sequence:
#
# PCOD9466193 Si02
#       7
#     8   8   8   8   8   8   8
#     4  10  22  41  64  89 124 177 226 277 322 377
#     4  11  21  35  65  92 123 166 218 277 341 405
#     4   9  21  41  61  94 133 167 210 270 342 414
#     4  10  21  40  62  87 130 178 224 273 333 400
#     4  10  23  39  62  94 127 165 217 276 333 387
#     4   9  19  32  57  89 120 161 203 258 331 397
#     4   9  18  34  53  86 125 156 209 269 323 388
#
# _framework density 22.374919999999999
#
# number of rings (size 3 to 8) (size 9 to 14) (size 15 to 20)
#    0.000    2.286    0.000    3.000    8.000    1.143 
#    5.143    0.000    0.000    0.857    0.000    0.000 
#    0.000    0.000    0.000    0.000    0.000    0.000 
#
# Total GULP energy -311985.396984 kJ/mol
# GULP energy per Si atom -5571.167803 kJ/mol
# Density = 2.232399 g / cm^3
# Si number density = 22.374920 Si / 1000 Ang^3
#
#
#
# Elastic Constant Matrix: (Units=GPa)
#
#
# Indices 1 2 3 4 5 6 
#
# 1 95.1380 14.2753 44.0300 0.0000 0.0000 0.0000
# 2 14.2753 51.8653 60.1927 0.0000 0.0000 0.0000
# 3 44.0300 60.1927 122.5061 0.0000 0.0000 0.0000
# 4 0.0000 0.0000 0.0000 27.2332 0.0000 0.0000
# 5 0.0000 0.0000 0.0000 0.0000 41.3435 0.0000
# 6 0.0000 0.0000 0.0000 0.0000 0.0000 13.3517
#
#
#
# Elastic Compliance Matrix: (Units=1/GPa)
#
#
# Indices 1 2 3 4 5 6 
#
# 1 0.013007 0.004294 -0.006785 0.000000 0.000000 0.000000
# 2 0.004294 0.046281 -0.024283 0.000000 0.000000 0.000000
# 3 -0.006785 -0.024283 0.022533 0.000000 0.000000 0.000000
# 4 0.000000 0.000000 0.000000 0.036720 0.000000 0.000000
# 5 0.000000 0.000000 0.000000 0.000000 0.024188 0.000000
# 6 0.000000 0.000000 0.000000 0.000000 0.000000 0.074897
#
#
# Mechanical properties :
#
#
# Convention : Reuss Voigt Hill
#
# Bulk Modulus (GPa) = 35.36982 56.27838 45.82410
# Shear Modulus (GPa) = 17.81920 26.45309 22.13615
#
# Velocity S-wave (km/s) = 2.82510 3.44214 3.14877
# Velocity P-wave (km/s) = 5.14623 6.40350 5.80898
#
# Compressibility (1/GPa) = 0.02827269
#
# Stress axis : x y z
#
# Youngs Moduli (GPa) = 76.88380 21.60723 44.38004
#
# Poissons Ratio (x) = -0.09278 0.30110
# Poissons Ratio (y) = -0.33013 1.07768
# Poissons Ratio (z) = 0.52162 0.52469
#
# Static dielectric constant tensor:
#      x y z
#    x 2.054390 0.000000 0.000000 
#    y 0.000000 1.770190 0.000000 
#    z 0.000000 0.000000 1.852580 
# 
# From -- ./inp_files/28379.got.cif
#   From: 2010.05.17/outbox.cif.g08.bks.cpg/sg62_15_cif.got.tgz:28379.got - 2010.06.03 15:25:27.
