data_PCOD9466064
_publ_section_title
;
Structure prediction by ZEFSAII (Michael W. Deem and Ramdas Pophale) SiO2 
 PCOD9466064
Probable space group: P N M A
;
_chemical_formula_sum "Si O2"
_cell_formula_units_Z 48
_cell_length_a 15.933836
_cell_length_b 12.729015
_cell_length_c 11.153612
_cell_angle_alpha 90.000000
_cell_angle_beta 90.000000
_cell_angle_gamma 90.000000
_cell_volume 2262.198311
_symmetry_space_group_name_H-M "P N M A"
_symmetry_group_IT_number 62
_symmetry_cell_setting 'orthorhombic'
loop_
_space_group_symop_operation_xyz
x,y,z
1/2-x,-y,1/2+z
1/2+x,1/2-y,1/2-z
-x,1/2+y,-z
-x,-y,-z
1/2+x,y,1/2-z
1/2-x,1/2+y,1/2+z
x,1/2-y,z
loop_
_atom_site_type_symbol
_atom_site_label
_atom_site_fract_x
_atom_site_fract_y
_atom_site_fract_z
Si Si1 0.904252 0.036930 0.981235
Si Si2 0.709945 0.927862 0.701840
Si Si3 0.860930 0.630403 0.316291
Si Si4 0.238566 0.134667 0.050453
Si Si5 0.047523 0.867459 0.259648
Si Si6 0.364275 0.519723 0.931467
O O1 0.842789 0.940135 0.947176
O O2 0.906392 0.112681 0.866054
O O3 0.861654 0.085698 0.101084
O O4 0.000000 0.000000 0.000000
O O5 0.699927 0.047555 0.752395
O O6 0.800437 0.909205 0.643519
O O7 0.712966 0.862582 0.822856
O O8 0.829691 0.750000 0.326553
O O9 0.884329 0.582929 0.447469
O O10 0.947251 0.631300 0.241921
O O11 0.214849 0.250000 0.009734
O O12 0.305270 0.077908 0.966882
O O13 0.067929 0.750000 0.307010
O O14 0.067047 0.964962 0.348263
#
# Coordination Sequence:
#
# PCOD9466064 Si02
#       6
#     8   8   8   8   8   8
#     4  11  22  40  63  89 125 162 202 259 305 367
#     4  10  21  39  61  87 124 157 200 255 302 361
#     4  10  22  39  64  90 120 161 201 249 308 367
#     4  10  22  40  62  88 120 162 202 250 313 364
#     4  11  22  39  63  91 121 159 204 249 307 369
#     4  10  21  40  60  89 120 157 202 254 297 359
#
# _framework density 21.218297
#
# number of rings (size 3 to 8) (size 9 to 14) (size 15 to 20)
#    0.000    1.667    3.333    1.000    0.000    5.333 
#    0.000    0.000    0.000    0.000    0.000    0.000 
#    0.000    0.000    0.000    0.000    0.000    0.000 
#
# Total GULP energy -267675.449160 kJ/mol
# GULP energy per Si atom -5576.571857 kJ/mol
# Density = 2.117000 g / cm^3
# Si number density = 21.218297 Si / 1000 Ang^3
#
#
#
# Elastic Constant Matrix: (Units=GPa)
#
#
# Indices 1 2 3 4 5 6 
#
# 1 58.0500 9.4661 -9.2243 0.0000 0.0000 0.0000
# 2 9.4661 74.8344 -1.2052 0.0000 0.0000 0.0000
# 3 -9.2243 -1.2052 72.5275 0.0000 0.0000 0.0000
# 4 0.0000 0.0000 0.0000 -0.4748 0.0000 0.0000
# 5 0.0000 0.0000 0.0000 0.0000 33.8542 0.0000
# 6 0.0000 0.0000 0.0000 0.0000 0.0000 15.9402
#
#
#
# Elastic Compliance Matrix: (Units=1/GPa)
#
#
# Indices 1 2 3 4 5 6 
#
# 1 0.017948 -0.002234 0.002246 0.000000 0.000000 0.000000
# 2 -0.002234 0.013645 -0.000057 0.000000 0.000000 0.000000
# 3 0.002246 -0.000057 0.014073 0.000000 0.000000 0.000000
# 4 0.000000 0.000000 0.000000 -2.106097 0.000000 0.000000
# 5 0.000000 0.000000 0.000000 0.000000 0.029538 0.000000
# 6 0.000000 0.000000 0.000000 0.000000 0.000000 0.062734
#
#
# Mechanical properties :
#
#
# Convention : Reuss Voigt Hill
#
# Bulk Modulus (GPa) = 21.94298 22.60947 22.27622
# Shear Modulus (GPa) = -2.56033 23.62226 10.53097
#
# Velocity S-wave (km/s) = -1.09967 3.34023 2.23023
# Velocity P-wave (km/s) = 2.95831 5.05519 4.14165
#
# Compressibility (1/GPa) = 0.04557267
#
# Stress axis : x y z
#
# Youngs Moduli (GPa) = 55.71760 73.28949 71.06056
#
# Poissons Ratio (x) = 0.16374 -0.15957
# Poissons Ratio (y) = 0.12448 0.00408
# Poissons Ratio (z) = -0.12511 0.00421
#
# Static dielectric constant tensor:
#      x y z
#    x 1.781640 0.000000 0.000000 
#    y 0.000000 1.806890 0.000000 
#    z 0.000000 0.000000 1.817750 
# 
# From -- ./inp_files/14102.got.cif
#   From: 2010.05.17/outbox.cif.g08.bks.cpg/sg62_8_cif.got.tgz:14102.got - 2010.06.03 15:25:27.
