data_PCOD9466332
_publ_section_title
;
Structure prediction by ZEFSAII (Michael W. Deem and Ramdas Pophale) SiO2 
 PCOD9466332
Probable space group: P N M A
;
_chemical_formula_sum "Si O2"
_cell_formula_units_Z 44
_cell_length_a 10.374106
_cell_length_b 12.121226
_cell_length_c 18.143155
_cell_angle_alpha 90.000000
_cell_angle_beta 90.000000
_cell_angle_gamma 90.000000
_cell_volume 2281.445196
_symmetry_space_group_name_H-M "P N M A"
_symmetry_group_IT_number 62
_symmetry_cell_setting 'orthorhombic'
loop_
_space_group_symop_operation_xyz
x,y,z
1/2-x,-y,1/2+z
1/2+x,1/2-y,1/2-z
-x,1/2+y,-z
-x,-y,-z
1/2+x,y,1/2-z
1/2-x,1/2+y,1/2+z
x,1/2-y,z
loop_
_atom_site_type_symbol
_atom_site_label
_atom_site_fract_x
_atom_site_fract_y
_atom_site_fract_z
Si Si1 0.921393 0.618844 0.697908
Si Si2 0.819901 0.750000 0.423972
Si Si3 0.968077 0.250000 0.871072
Si Si4 0.901080 0.535511 0.064472
Si Si5 0.387998 0.750000 0.233100
Si Si6 0.338689 0.002310 0.271781
Si Si7 0.868719 0.548751 0.530799
O O1 0.928686 0.750000 0.712847
O O2 0.798925 0.561547 0.737818
O O3 0.896007 0.597975 0.611442
O O4 0.051593 0.555626 0.720843
O O5 0.680264 0.750000 0.388129
O O6 0.913959 0.750000 0.353834
O O7 0.831211 0.644701 0.474945
O O8 0.040715 0.148646 0.907363
O O9 0.985554 0.250000 0.783570
O O10 0.886486 0.473208 0.143714
O O11 0.754133 0.533110 0.035284
O O12 0.000000 0.500000 0.000000
O O13 0.326033 0.630144 0.255314
O O14 0.000000 0.500000 0.500000
#
# Coordination Sequence:
#
# PCOD9466332 Si02
#       7
#     8   4   4   8   4   8   8
#     4  11  23  44  63  96 135 174 223 265 336 410
#     4  12  22  41  71  91 132 177 212 275 350 385
#     4  10  22  41  67  97 128 171 218 278 329 401
#     4  10  21  41  64  94 127 165 224 264 325 394
#     4  10  24  40  64 100 128 164 226 279 335 392
#     4  10  24  39  68  94 131 173 216 282 326 395
#     4  11  24  41  66  95 131 175 216 274 335 398
#
# _framework density 19.286020000000001
#
# number of rings (size 3 to 8) (size 9 to 14) (size 15 to 20)
#    0.000    1.455    2.727    1.636    5.091    2.182 
#    4.909    0.000    0.000    0.000    0.000    0.000 
#    0.000    0.000    0.000    0.000    0.000    0.000 
#
# Total GULP energy -245275.473645 kJ/mol
# GULP energy per Si atom -5574.442583 kJ/mol
# Density = 1.924212 g / cm^3
# Si number density = 19.286020 Si / 1000 Ang^3
#
#
#
# Elastic Constant Matrix: (Units=GPa)
#
#
# Indices 1 2 3 4 5 6 
#
# 1 124.7959 48.0826 38.4374 0.0000 0.0000 0.0000
# 2 48.0826 88.3575 15.0213 0.0000 0.0000 0.0000
# 3 38.4374 15.0213 101.5273 0.0000 0.0000 0.0000
# 4 0.0000 0.0000 0.0000 32.8264 0.0000 0.0000
# 5 0.0000 0.0000 0.0000 0.0000 39.4957 0.0000
# 6 0.0000 0.0000 0.0000 0.0000 0.0000 82.2743
#
#
#
# Elastic Compliance Matrix: (Units=1/GPa)
#
#
# Indices 1 2 3 4 5 6 
#
# 1 0.011189 -0.005507 -0.003421 0.000000 0.000000 0.000000
# 2 -0.005507 0.014320 -0.000034 0.000000 0.000000 0.000000
# 3 -0.003421 -0.000034 0.011150 0.000000 0.000000 0.000000
# 4 0.000000 0.000000 0.000000 0.030463 0.000000 0.000000
# 5 0.000000 0.000000 0.000000 0.000000 0.025319 0.000000
# 6 0.000000 0.000000 0.000000 0.000000 0.000000 0.012154
#
#
# Mechanical properties :
#
#
# Convention : Reuss Voigt Hill
#
# Bulk Modulus (GPa) = 53.37694 57.52925 55.45309
# Shear Modulus (GPa) = 38.83062 45.12859 41.97961
#
# Velocity S-wave (km/s) = 4.49197 4.84257 4.67056
# Velocity P-wave (km/s) = 7.39191 7.82058 7.60926
#
# Compressibility (1/GPa) = 0.01873468
#
# Stress axis : x y z
#
# Youngs Moduli (GPa) = 89.37666 69.83130 89.68780
#
# Poissons Ratio (x) = 0.38456 0.30683
# Poissons Ratio (y) = 0.49220 0.00303
# Poissons Ratio (z) = 0.30577 0.00236
#
# Static dielectric constant tensor:
#      x y z
#    x 1.653820 0.000000 0.000000 
#    y 0.000000 1.669560 0.000000 
#    z 0.000000 0.000000 1.703260 
# 
# From -- ./inp_files/22958.got.cif
#   From: 2010.05.17/outbox.cif.g08.bks.cpg/sg62_12_cif.got.tgz:22958.got - 2010.06.03 15:25:27.
