data_PCOD9466180
_publ_section_title
;
Structure prediction by ZEFSAII (Michael W. Deem and Ramdas Pophale) SiO2 
 PCOD9466180
Probable space group: P N M A
;
_chemical_formula_sum "Si O2"
_cell_formula_units_Z 56
_cell_length_a 32.665945
_cell_length_b 14.212854
_cell_length_c 5.204853
_cell_angle_alpha 90.000000
_cell_angle_beta 90.000000
_cell_angle_gamma 90.000000
_cell_volume 2416.489930
_symmetry_space_group_name_H-M "P N M A"
_symmetry_group_IT_number 62
_symmetry_cell_setting 'orthorhombic'
loop_
_space_group_symop_operation_xyz
x,y,z
1/2-x,-y,1/2+z
1/2+x,1/2-y,1/2-z
-x,1/2+y,-z
-x,-y,-z
1/2+x,y,1/2-z
1/2-x,1/2+y,1/2+z
x,1/2-y,z
loop_
_atom_site_type_symbol
_atom_site_label
_atom_site_fract_x
_atom_site_fract_y
_atom_site_fract_z
Si Si1 0.829415 0.643019 0.239174
Si Si2 0.405241 0.355789 0.176827
Si Si3 0.482182 0.750000 0.396141
Si Si4 0.164318 0.537217 0.441150
Si Si5 0.602242 0.071907 0.373319
Si Si6 0.249853 0.440200 0.978957
Si Si7 0.549077 0.592300 0.325688
Si Si8 0.928739 0.750000 0.599459
O O1 0.828860 0.750000 0.326426
O O2 0.872652 0.620148 0.102135
O O3 0.790134 0.623873 0.053857
O O4 0.823568 0.565836 0.458206
O O5 0.398591 0.250000 0.087790
O O6 0.363372 0.411981 0.151082
O O7 0.422862 0.356951 0.460838
O O8 0.436836 0.400095 0.970847
O O9 0.508204 0.654602 0.347513
O O10 0.464949 0.750000 0.685086
O O11 0.446423 0.750000 0.185047
O O12 0.133270 0.510623 0.215886
O O13 0.205289 0.595658 0.390600
O O14 0.595577 0.154573 0.166818
O O15 0.558860 0.016841 0.404685
O O16 0.255580 0.474672 0.271780
#
# Coordination Sequence:
#
# PCOD9466180 Si02
#       8
#     8   8   4   8   8   8   8   4
#     4  11  22  39  67  97 139 186 225 272 329 392
#     4  11  20  37  67  99 122 175 218 269 329 400
#     4  12  26  48  66  98 130 173 213 290 334 408
#     4  10  23  39  66  95 143 170 229 279 327 384
#     4  11  24  42  65 101 130 182 222 274 328 405
#     4  10  21  40  61  91 129 176 216 267 324 367
#     4  11  23  42  70  91 132 165 219 267 344 393
#     4  12  30  42  72  96 136 169 227 266 338 414
#
# _framework density 23.174108
#
# number of rings (size 3 to 8) (size 9 to 14) (size 15 to 20)
#    0.000    1.143    5.000    0.857    3.000    1.714 
#    0.000    0.000    0.000    2.571    0.000    0.000 
#    0.000    0.000    0.000    0.000    0.000    0.000 
#
# Total GULP energy -312354.680514 kJ/mol
# GULP energy per Si atom -5577.762152 kJ/mol
# Density = 2.312136 g / cm^3
# Si number density = 23.174108 Si / 1000 Ang^3
#
#
#
# Elastic Constant Matrix: (Units=GPa)
#
#
# Indices 1 2 3 4 5 6 
#
# 1 95.3620 32.3544 19.9438 0.0000 0.0000 0.0000
# 2 32.3544 85.6598 3.5135 0.0000 0.0000 0.0000
# 3 19.9438 3.5135 50.9675 0.0000 0.0000 0.0000
# 4 0.0000 0.0000 0.0000 24.1968 0.0000 0.0000
# 5 0.0000 0.0000 0.0000 0.0000 39.6681 0.0000
# 6 0.0000 0.0000 0.0000 0.0000 0.0000 26.4199
#
#
#
# Elastic Compliance Matrix: (Units=1/GPa)
#
#
# Indices 1 2 3 4 5 6 
#
# 1 0.013102 -0.004752 -0.004799 0.000000 0.000000 0.000000
# 2 -0.004752 0.013431 0.000934 0.000000 0.000000 0.000000
# 3 -0.004799 0.000934 0.021434 0.000000 0.000000 0.000000
# 4 0.000000 0.000000 0.000000 0.041328 0.000000 0.000000
# 5 0.000000 0.000000 0.000000 0.000000 0.025209 0.000000
# 6 0.000000 0.000000 0.000000 0.000000 0.000000 0.037850
#
#
# Mechanical properties :
#
#
# Convention : Reuss Voigt Hill
#
# Bulk Modulus (GPa) = 32.53995 38.17917 35.35956
# Shear Modulus (GPa) = 27.80348 29.80214 28.80281
#
# Velocity S-wave (km/s) = 3.46752 3.58999 3.52929
# Velocity P-wave (km/s) = 5.48667 5.80472 5.64793
#
# Compressibility (1/GPa) = 0.03073145
#
# Stress axis : x y z
#
# Youngs Moduli (GPa) = 76.32211 74.45641 46.65478
#
# Poissons Ratio (x) = 0.35382 0.22392
# Poissons Ratio (y) = 0.36268 -0.04356
# Poissons Ratio (z) = 0.36630 -0.06951
#
# Static dielectric constant tensor:
#      x y z
#    x 2.005250 0.000000 0.000000 
#    y 0.000000 1.855410 0.000000 
#    z 0.000000 0.000000 1.883430 
# 
# From -- ./inp_files/3641.got.cif
#   From: 2010.05.17/outbox.cif.g08.bks.cpg/sg62_2_cif.got.tgz:3641.got - 2010.06.03 15:25:27.
