data_PCOD9466304
_publ_section_title
;
Structure prediction by ZEFSAII (Michael W. Deem and Ramdas Pophale) SiO2 
 PCOD9466304
Probable space group: P N M A
;
_chemical_formula_sum "Si O2"
_cell_formula_units_Z 36
_cell_length_a 13.921808
_cell_length_b 14.389329
_cell_length_c 8.312244
_cell_angle_alpha 90.000000
_cell_angle_beta 90.000000
_cell_angle_gamma 90.000000
_cell_volume 1665.154232
_symmetry_space_group_name_H-M "P N M A"
_symmetry_group_IT_number 62
_symmetry_cell_setting 'orthorhombic'
loop_
_space_group_symop_operation_xyz
x,y,z
1/2-x,-y,1/2+z
1/2+x,1/2-y,1/2-z
-x,1/2+y,-z
-x,-y,-z
1/2+x,y,1/2-z
1/2-x,1/2+y,1/2+z
x,1/2-y,z
loop_
_atom_site_type_symbol
_atom_site_label
_atom_site_fract_x
_atom_site_fract_y
_atom_site_fract_z
Si Si1 0.547715 0.950893 0.157263
Si Si2 0.289648 0.559595 0.977132
Si Si3 0.365711 0.551606 0.338861
Si Si4 0.923335 0.250000 0.523197
Si Si5 0.306157 0.750000 0.492967
Si Si6 0.623489 0.250000 0.146211
O O1 0.478616 0.963762 0.308041
O O2 0.651811 0.995487 0.149409
O O3 0.557242 0.842268 0.124249
O O4 0.500000 0.000000 0.000000
O O5 0.181192 0.528028 0.948282
O O6 0.323896 0.661898 0.932230
O O7 0.322845 0.541703 0.158428
O O8 0.337564 0.654652 0.402737
O O9 0.810131 0.250000 0.478331
O O10 0.008951 0.250000 0.390475
O O11 0.357171 0.750000 0.665140
#
# Coordination Sequence:
#
# PCOD9466304 Si02
#       6
#     8   8   8   4   4   4
#     4  10  21  40  71  91 127 184 213 274 341 401
#     4  11  23  41  68 100 133 180 225 276 347 397
#     4  11  22  43  68 100 133 175 230 274 335 408
#     4  12  21  44  69  93 133 180 224 265 351 406
#     4  12  26  42  72  98 134 183 225 280 338 405
#     4  12  25  40  67 101 133 177 225 283 333 407
#
# _framework density 21.619619
#
# number of rings (size 3 to 8) (size 9 to 14) (size 15 to 20)
#    0.000    0.889    6.667    2.667    3.111    0.000 
#    0.000    6.667    0.000    0.000    0.000    0.000 
#    0.000    0.000    0.000    0.000    0.000    0.000 
#
# Total GULP energy -201058.311565 kJ/mol
# GULP energy per Si atom -5584.953099 kJ/mol
# Density = 2.157041 g / cm^3
# Si number density = 21.619619 Si / 1000 Ang^3
#
#
#
# Elastic Constant Matrix: (Units=GPa)
#
#
# Indices 1 2 3 4 5 6 
#
# 1 69.8941 -15.7778 8.2260 0.0000 0.0000 0.0000
# 2 -15.7778 80.4599 -12.9702 0.0000 0.0000 0.0000
# 3 8.2260 -12.9702 66.5659 0.0000 0.0000 0.0000
# 4 0.0000 0.0000 0.0000 35.4914 0.0000 0.0000
# 5 0.0000 0.0000 0.0000 0.0000 47.7804 0.0000
# 6 0.0000 0.0000 0.0000 0.0000 0.0000 -92.5295
#
#
#
# Elastic Compliance Matrix: (Units=1/GPa)
#
#
# Indices 1 2 3 4 5 6 
#
# 1 0.015083 0.002743 -0.001329 0.000000 0.000000 0.000000
# 2 0.002743 0.013331 0.002258 0.000000 0.000000 0.000000
# 3 -0.001329 0.002258 0.015627 0.000000 0.000000 0.000000
# 4 0.000000 0.000000 0.000000 0.028176 0.000000 0.000000
# 5 0.000000 0.000000 0.000000 0.000000 0.020929 0.000000
# 6 0.000000 0.000000 0.000000 0.000000 0.000000 -0.010807
#
#
# Mechanical properties :
#
#
# Convention : Reuss Voigt Hill
#
# Bulk Modulus (GPa) = 19.46068 19.54176 19.50122
# Shear Modulus (GPa) = 54.27593 13.97792 34.12692
#
# Velocity S-wave (km/s) = 5.01592 2.54547 3.97736
# Velocity P-wave (km/s) = 6.52433 4.20687 5.48929
#
# Compressibility (1/GPa) = 0.05138566
#
# Stress axis : x y z
#
# Youngs Moduli (GPa) = 66.29933 75.01547 63.99167
#
# Poissons Ratio (x) = -0.20580 0.08507
# Poissons Ratio (y) = -0.18189 -0.14452
# Poissons Ratio (z) = 0.08814 -0.16941
#
# Static dielectric constant tensor:
#      x y z
#    x 1.861120 0.000000 0.000000 
#    y 0.000000 1.755000 0.000000 
#    z 0.000000 0.000000 1.764690 
# 
# From -- ./inp_files/6052.got.cif
#   From: 2010.05.17/outbox.cif.g08.bks.cpg/sg62_4_cif.got.tgz:6052.got - 2010.06.03 15:25:27.
