data_PCOD9466962
_publ_section_title
;
Structure prediction by ZEFSAII (Michael W. Deem and Ramdas Pophale) SiO2 
 PCOD9466962
Probable space group: P N M A
;
_chemical_formula_sum "Si O2"
_cell_formula_units_Z 56
_cell_length_a 20.527818
_cell_length_b 8.929189
_cell_length_c 16.385104
_cell_angle_alpha 90.000000
_cell_angle_beta 90.000000
_cell_angle_gamma 90.000000
_cell_volume 3003.336585
_symmetry_space_group_name_H-M "P N M A"
_symmetry_group_IT_number 62
_symmetry_cell_setting 'orthorhombic'
loop_
_space_group_symop_operation_xyz
x,y,z
1/2-x,-y,1/2+z
1/2+x,1/2-y,1/2-z
-x,1/2+y,-z
-x,-y,-z
1/2+x,y,1/2-z
1/2-x,1/2+y,1/2+z
x,1/2-y,z
loop_
_atom_site_type_symbol
_atom_site_label
_atom_site_fract_x
_atom_site_fract_y
_atom_site_fract_z
Si Si1 0.819552 0.070631 0.993786
Si Si2 0.530600 0.430033 0.745954
Si Si3 0.197765 0.428608 0.182029
Si Si4 0.836494 0.570470 0.336093
Si Si5 0.893307 0.071175 0.679765
Si Si6 0.673260 0.071761 0.026968
Si Si7 0.543398 0.571314 0.570897
O O1 0.818616 0.250000 0.977792
O O2 0.824163 0.988512 0.906914
O O3 0.750052 0.032522 0.033903
O O4 0.881209 0.036438 0.049883
O O5 0.531031 0.250000 0.735754
O O6 0.598687 0.473212 0.787882
O O7 0.468213 0.468446 0.800995
O O8 0.524541 0.505326 0.658063
O O9 0.195769 0.250000 0.183986
O O10 0.271695 0.486814 0.193144
O O11 0.151801 0.496117 0.251469
O O12 0.826379 0.750000 0.327661
O O13 0.844567 0.540780 0.432793
O O14 0.886721 0.250000 0.685312
O O15 0.869431 0.015067 0.592118
O O16 0.666622 0.250000 0.040908
O O17 0.500000 0.500000 0.500000
O O18 0.535478 0.750000 0.570574
#
# Coordination Sequence:
#
# PCOD9466962 Si02
#       7
#     8   8   8   8   8   8   8
#     4   9  20  39  59  82 116 152 188 238 297 347
#     4  10  23  41  60  85 118 157 197 240 295 355
#     4  11  22  36  59  88 117 151 196 243 288 346
#     4   9  20  41  63  85 116 154 192 241 301 351
#     4  11  23  38  57  84 119 156 195 239 292 349
#     4   9  19  37  60  85 114 149 192 241 293 346
#     4  11  23  38  59  87 120 157 196 242 293 351
#
# _framework density 18.64593
#
# number of rings (size 3 to 8) (size 9 to 14) (size 15 to 20)
#    0.000    2.000    0.000    3.857    2.000    9.143 
#    0.000    0.000    0.000    0.000    0.000    0.000 
#    0.000    0.000    0.000    0.000    0.000    0.000 
#
# Total GULP energy -312910.039156 kJ/mol
# GULP energy per Si atom -5587.679271 kJ/mol
# Density = 1.860349 g / cm^3
# Si number density = 18.645930 Si / 1000 Ang^3
#
#
#
# Elastic Constant Matrix: (Units=GPa)
#
#
# Indices 1 2 3 4 5 6 
#
# 1 60.9395 20.4215 12.9981 0.0000 0.0000 0.0000
# 2 20.4215 28.6715 7.9510 0.0000 0.0000 0.0000
# 3 12.9981 7.9510 18.2142 0.0000 0.0000 0.0000
# 4 0.0000 0.0000 0.0000 32.0326 0.0000 0.0000
# 5 0.0000 0.0000 0.0000 0.0000 32.8492 0.0000
# 6 0.0000 0.0000 0.0000 0.0000 0.0000 18.3159
#
#
#
# Elastic Compliance Matrix: (Units=1/GPa)
#
#
# Indices 1 2 3 4 5 6 
#
# 1 0.023238 -0.013599 -0.010647 0.000000 0.000000 0.000000
# 2 -0.013599 0.047639 -0.011092 0.000000 0.000000 0.000000
# 3 -0.010647 -0.011092 0.067342 0.000000 0.000000 0.000000
# 4 0.000000 0.000000 0.000000 0.031218 0.000000 0.000000
# 5 0.000000 0.000000 0.000000 0.000000 0.030442 0.000000
# 6 0.000000 0.000000 0.000000 0.000000 0.000000 0.054597
#
#
# Mechanical properties :
#
#
# Convention : Reuss Voigt Hill
#
# Bulk Modulus (GPa) = 14.80502 21.17405 17.98954
# Shear Modulus (GPa) = 14.38165 21.06987 17.72576
#
# Velocity S-wave (km/s) = 2.78025 3.36519 3.08661
# Velocity P-wave (km/s) = 4.27360 5.14586 4.72988
#
# Compressibility (1/GPa) = 0.06754464
#
# Stress axis : x y z
#
# Youngs Moduli (GPa) = 43.03364 20.99102 14.84966
#
# Poissons Ratio (x) = 0.28545 0.15810
# Poissons Ratio (y) = 0.58520 0.16471
# Poissons Ratio (z) = 0.45816 0.23283
#
# Static dielectric constant tensor:
#      x y z
#    x 1.642030 0.000000 0.000000 
#    y 0.000000 1.621760 0.000000 
#    z 0.000000 0.000000 1.609180 
# 
# From -- ./inp_files/20234.got.cif
#   From: 2010.05.17/outbox.cif.g08.bks.cpg/sg62_11_cif.got.tgz:20234.got - 2010.06.03 15:25:27.
