data_PCOD9466325
_publ_section_title
;
Structure prediction by ZEFSAII (Michael W. Deem and Ramdas Pophale) SiO2 
 PCOD9466325
Probable space group: P N M A
;
_chemical_formula_sum "Si O2"
_cell_formula_units_Z 40
_cell_length_a 23.467943
_cell_length_b 9.893118
_cell_length_c 9.154270
_cell_angle_alpha 90.000000
_cell_angle_beta 90.000000
_cell_angle_gamma 90.000000
_cell_volume 2125.357204
_symmetry_space_group_name_H-M "P N M A"
_symmetry_group_IT_number 62
_symmetry_cell_setting 'orthorhombic'
loop_
_space_group_symop_operation_xyz
x,y,z
1/2-x,-y,1/2+z
1/2+x,1/2-y,1/2-z
-x,1/2+y,-z
-x,-y,-z
1/2+x,y,1/2-z
1/2-x,1/2+y,1/2+z
x,1/2-y,z
loop_
_atom_site_type_symbol
_atom_site_label
_atom_site_fract_x
_atom_site_fract_y
_atom_site_fract_z
Si Si1 0.907652 0.250000 0.891039
Si Si2 0.603577 0.040655 0.522360
Si Si3 0.123620 0.250000 0.551849
Si Si4 0.208417 0.750000 0.289514
Si Si5 0.967307 0.750000 0.207042
Si Si6 0.195474 0.457498 0.733803
Si Si7 0.862523 0.750000 0.791428
Si Si8 0.727950 0.750000 0.864535
O O1 0.852664 0.250000 0.786013
O O2 0.965186 0.250000 0.796488
O O3 0.907019 0.384404 0.990465
O O4 0.556372 0.119437 0.617984
O O5 0.661773 0.061365 0.614467
O O6 0.610758 0.119917 0.371037
O O7 0.063205 0.250000 0.635508
O O8 0.158097 0.379827 0.612771
O O9 0.124359 0.250000 0.378927
O O10 0.244336 0.618838 0.239150
O O11 0.212305 0.750000 0.464391
O O12 0.202586 0.613987 0.702936
O O13 0.795213 0.750000 0.827653
#
# Coordination Sequence:
#
# PCOD9466325 Si02
#       8
#     4   8   4   4   4   8   4   4
#     4  12  23  36  68  95 121 158 210 260 306 361
#     4  10  21  41  64  89 119 161 213 250 302 371
#     4   9  22  40  64  82 122 167 204 246 324 357
#     4  11  24  38  56  95 128 157 199 249 309 374
#     4   9  21  45  64  87 123 158 208 264 310 364
#     4  10  22  40  58  89 125 161 197 255 302 369
#     4  11  21  37  62  87 118 168 201 239 307 384
#     4  12  23  34  62  88 132 152 204 250 312 370
#
# _framework density 18.820364000000001
#
# number of rings (size 3 to 8) (size 9 to 14) (size 15 to 20)
#    0.000    1.600    2.000    3.600    5.600    1.600 
#    0.000    1.000    8.800    0.000    0.000    0.000 
#    0.000    0.000    0.000    0.000    0.000    0.000 
#
# Total GULP energy -223506.147322 kJ/mol
# GULP energy per Si atom -5587.653683 kJ/mol
# Density = 1.877753 g / cm^3
# Si number density = 18.820364 Si / 1000 Ang^3
#
#
#
# Elastic Constant Matrix: (Units=GPa)
#
#
# Indices 1 2 3 4 5 6 
#
# 1 108.6590 35.1196 26.5201 0.0000 0.0000 0.0000
# 2 35.1196 164.1566 46.2207 0.0000 0.0000 0.0000
# 3 26.5201 46.2207 133.5707 0.0000 0.0000 0.0000
# 4 0.0000 0.0000 0.0000 -1.5845 0.0000 0.0000
# 5 0.0000 0.0000 0.0000 0.0000 13.3252 0.0000
# 6 0.0000 0.0000 0.0000 0.0000 0.0000 -34.1763
#
#
#
# Elastic Compliance Matrix: (Units=1/GPa)
#
#
# Indices 1 2 3 4 5 6 
#
# 1 0.010116 -0.001771 -0.001396 0.000000 0.000000 0.000000
# 2 -0.001771 0.007059 -0.002091 0.000000 0.000000 0.000000
# 3 -0.001396 -0.002091 0.008487 0.000000 0.000000 0.000000
# 4 0.000000 0.000000 0.000000 -0.631133 0.000000 0.000000
# 5 0.000000 0.000000 0.000000 0.000000 0.075046 0.000000
# 6 0.000000 0.000000 0.000000 0.000000 0.000000 -0.029260
#
#
# Mechanical properties :
#
#
# Convention : Reuss Voigt Hill
#
# Bulk Modulus (GPa) = 66.01993 69.12301 67.57147
# Shear Modulus (GPa) = -9.18917 15.41463 3.11273
#
# Velocity S-wave (km/s) = -2.21205 2.86499 1.28744
# Velocity P-wave (km/s) = 5.35079 6.91026 6.17991
#
# Compressibility (1/GPa) = 0.01514694
#
# Stress axis : x y z
#
# Youngs Moduli (GPa) = 98.85110 141.65318 117.82184
#
# Poissons Ratio (x) = 0.25091 0.16443
# Poissons Ratio (y) = 0.17510 0.24639
# Poissons Ratio (z) = 0.13796 0.29622
#
# Static dielectric constant tensor:
#      x y z
#    x 1.645340 0.000000 0.000000 
#    y 0.000000 1.653800 0.000000 
#    z 0.000000 0.000000 1.633660 
# 
# From -- ./inp_files/9172.got.cif
#   From: 2010.05.17/outbox.cif.g08.bks.cpg/sg62_5_cif.got.tgz:9172.got - 2010.06.03 15:25:27.
