data_PCOD9466983
_publ_section_title
;
Structure prediction by ZEFSAII (Michael W. Deem and Ramdas Pophale) SiO2 
 PCOD9466983
Probable space group: P N M A
;
_chemical_formula_sum "Si O2"
_cell_formula_units_Z 52
_cell_length_a 7.045840
_cell_length_b 14.222880
_cell_length_c 16.888101
_cell_angle_alpha 90.000000
_cell_angle_beta 90.000000
_cell_angle_gamma 90.000000
_cell_volume 1692.392688
_symmetry_space_group_name_H-M "P N M A"
_symmetry_group_IT_number 62
_symmetry_cell_setting 'orthorhombic'
loop_
_space_group_symop_operation_xyz
x,y,z
1/2-x,-y,1/2+z
1/2+x,1/2-y,1/2-z
-x,1/2+y,-z
-x,-y,-z
1/2+x,y,1/2-z
1/2-x,1/2+y,1/2+z
x,1/2-y,z
loop_
_atom_site_type_symbol
_atom_site_label
_atom_site_fract_x
_atom_site_fract_y
_atom_site_fract_z
Si Si1 0.870382 0.750000 0.429422
Si Si2 0.040757 0.035716 0.592513
Si Si3 0.264491 0.853122 0.619352
Si Si4 0.104500 0.548223 0.246511
Si Si5 0.203298 0.250000 0.755375
Si Si6 0.675615 0.645869 0.707436
Si Si7 0.890350 0.543019 0.074143
Si Si8 0.447821 0.750000 0.424089
O O1 0.932396 0.640404 0.445222
O O2 0.867718 0.750000 0.334036
O O3 0.655912 0.750000 0.459490
O O4 0.067125 0.049979 0.687287
O O5 0.481284 0.046830 0.656378
O O6 0.175444 0.945344 0.578850
O O7 0.251135 0.750000 0.580525
O O8 0.137580 0.843041 0.698918
O O9 0.486313 0.862095 0.651434
O O10 0.191775 0.650162 0.268047
O O11 0.204677 0.451133 0.278405
O O12 0.176756 0.503801 0.421458
O O13 0.053546 0.250000 0.827924
O O14 0.754472 0.750000 0.684265
O O15 0.858129 0.652147 0.055514
O O16 0.000000 0.500000 0.000000
#
# Coordination Sequence:
#
# PCOD9466983 Si02
#       8
#     4   8   8   8   4   8   8   4
#     4  12  26  40  77 129 171 208 278 374 455 528
#     4  12  27  43  78 127 167 215 288 365 447 531
#     4  10  23  41  65 106 163 214 269 349 425 499
#     4  12  25  43  79 125 168 220 296 366 448 534
#     4  12  23  39  79 135 166 209 282 389 455 522
#     4  10  23  41  66 107 163 217 273 351 429 512
#     4  12  29  56  82 125 185 244 292 370 470 563
#     4  12  25  51  84 118 177 231 294 365 468 552
#
# _framework density 30.725733000000002
#
# number of rings (size 3 to 8) (size 9 to 14) (size 15 to 20)
#    0.000    0.615    3.077    3.692    8.615    1.846 
#    2.769    0.769    0.000    0.000    0.000    0.000 
#    0.000    0.000    0.000    0.000    0.000    0.000 
#
# Total GULP energy -290070.203063 kJ/mol
# GULP energy per Si atom -5578.273136 kJ/mol
# Density = 3.065580 g / cm^3
# Si number density = 30.725733 Si / 1000 Ang^3
#
#
#
# Elastic Constant Matrix: (Units=GPa)
#
#
# Indices 1 2 3 4 5 6 
#
# 1 198.6557 130.8048 31.9344 0.0000 0.0000 0.0000
# 2 130.8048 352.0911 77.2516 0.0000 0.0000 0.0000
# 3 31.9344 77.2516 155.2245 0.0000 0.0000 0.0000
# 4 0.0000 0.0000 0.0000 47.6177 0.0000 0.0000
# 5 0.0000 0.0000 0.0000 0.0000 34.2599 0.0000
# 6 0.0000 0.0000 0.0000 0.0000 0.0000 88.6914
#
#
#
# Elastic Compliance Matrix: (Units=1/GPa)
#
#
# Indices 1 2 3 4 5 6 
#
# 1 0.006667 -0.002443 -0.000156 0.000000 0.000000 0.000000
# 2 -0.002443 0.004083 -0.001530 0.000000 0.000000 0.000000
# 3 -0.000156 -0.001530 0.007236 0.000000 0.000000 0.000000
# 4 0.000000 0.000000 0.000000 0.021001 0.000000 0.000000
# 5 0.000000 0.000000 0.000000 0.000000 0.029189 0.000000
# 6 0.000000 0.000000 0.000000 0.000000 0.000000 0.011275
#
#
# Mechanical properties :
#
#
# Convention : Reuss Voigt Hill
#
# Bulk Modulus (GPa) = 102.77939 131.77254 117.27597
# Shear Modulus (GPa) = 54.97503 65.17917 60.07710
#
# Velocity S-wave (km/s) = 4.23450 4.61078 4.42664
# Velocity P-wave (km/s) = 7.57834 8.44544 8.02361
#
# Compressibility (1/GPa) = 0.00972958
#
# Stress axis : x y z
#
# Youngs Moduli (GPa) = 149.98500 244.90101 138.20512
#
# Poissons Ratio (x) = 0.59823 0.02156
# Poissons Ratio (y) = 0.36638 0.21140
# Poissons Ratio (z) = 0.02339 0.37460
#
# Static dielectric constant tensor:
#      x y z
#    x 2.848310 0.000000 0.000000 
#    y 0.000000 2.394450 0.000000 
#    z 0.000000 0.000000 2.578140 
# 
# From -- ./inp_files/26738.got.cif
#   From: 2010.05.17/outbox.cif.g08.bks.cpg/sg62_14_cif.got.tgz:26738.got - 2010.06.03 15:25:27.
