data_PCOD9466635
_publ_section_title
;
Structure prediction by ZEFSAII (Michael W. Deem and Ramdas Pophale) SiO2 
 PCOD9466635
Probable space group: P N M A
;
_chemical_formula_sum "Si O2"
_cell_formula_units_Z 40
_cell_length_a 5.079548
_cell_length_b 16.493650
_cell_length_c 18.415153
_cell_angle_alpha 90.000000
_cell_angle_beta 90.000000
_cell_angle_gamma 90.000000
_cell_volume 1542.826801
_symmetry_space_group_name_H-M "P N M A"
_symmetry_group_IT_number 62
_symmetry_cell_setting 'orthorhombic'
loop_
_space_group_symop_operation_xyz
x,y,z
1/2-x,-y,1/2+z
1/2+x,1/2-y,1/2-z
-x,1/2+y,-z
-x,-y,-z
1/2+x,y,1/2-z
1/2-x,1/2+y,1/2+z
x,1/2-y,z
loop_
_atom_site_type_symbol
_atom_site_label
_atom_site_fract_x
_atom_site_fract_y
_atom_site_fract_z
Si Si1 0.278522 0.750000 0.554097
Si Si2 0.047902 0.589290 0.085596
Si Si3 0.680103 0.652721 0.201474
Si Si4 0.198060 0.152757 0.299633
Si Si5 0.714777 0.250000 0.952219
Si Si6 0.059195 0.413553 0.086801
O O1 0.562677 0.750000 0.515137
O O2 0.267041 0.667196 0.599110
O O3 0.061653 0.750000 0.491912
O O4 0.783736 0.607169 0.130414
O O5 0.230161 0.668700 0.092709
O O6 0.161176 0.502119 0.107881
O O7 0.982275 0.584520 0.999997
O O8 0.905932 0.633106 0.260938
O O9 0.690214 0.750000 0.187551
O O10 0.433362 0.133485 0.242888
O O11 0.207701 0.250000 0.314579
O O12 0.287588 0.104351 0.371161
#
# Coordination Sequence:
#
# PCOD9466635 Si02
#       6
#     4   8   8   8   4   8
#     4  10  22  40  62  90 128 166 205 262 321 370
#     4  10  22  42  68  99 132 173 223 272 328 397
#     4  10  22  41  65  94 129 171 219 269 328 393
#     4  10  22  41  65  94 129 171 219 269 328 393
#     4  10  22  40  62  90 128 166 205 262 321 370
#     4  10  22  42  68  99 132 173 223 272 328 397
#
# _framework density 25.926434
#
# number of rings (size 3 to 8) (size 9 to 14) (size 15 to 20)
#    0.000    2.000    2.000    0.000    0.000    8.800 
#    0.000    8.000    0.000    0.000    0.000    0.000 
#    0.000    0.000    0.000    0.000    0.000    0.000 
#
# Total GULP energy -224138.817772 kJ/mol
# GULP energy per Si atom -5603.470444 kJ/mol
# Density = 2.586742 g / cm^3
# Si number density = 25.926434 Si / 1000 Ang^3
#
#
#
# Elastic Constant Matrix: (Units=GPa)
#
#
# Indices 1 2 3 4 5 6 
#
# 1 69.2288 12.6805 36.3400 0.0000 0.0000 0.0000
# 2 12.6805 196.4358 3.1010 0.0000 0.0000 0.0000
# 3 36.3400 3.1010 129.5365 0.0000 0.0000 0.0000
# 4 0.0000 0.0000 0.0000 -13.0172 0.0000 0.0000
# 5 0.0000 0.0000 0.0000 0.0000 38.6491 0.0000
# 6 0.0000 0.0000 0.0000 0.0000 0.0000 16.8039
#
#
#
# Elastic Compliance Matrix: (Units=1/GPa)
#
#
# Indices 1 2 3 4 5 6 
#
# 1 0.017146 -0.001031 -0.004785 0.000000 0.000000 0.000000
# 2 -0.001031 0.005155 0.000166 0.000000 0.000000 0.000000
# 3 -0.004785 0.000166 0.009058 0.000000 0.000000 0.000000
# 4 0.000000 0.000000 0.000000 -0.076821 0.000000 0.000000
# 5 0.000000 0.000000 0.000000 0.000000 0.025874 0.000000
# 6 0.000000 0.000000 0.000000 0.000000 0.000000 0.059510
#
#
# Mechanical properties :
#
#
# Convention : Reuss Voigt Hill
#
# Bulk Modulus (GPa) = 49.85712 55.49379 52.67546
# Shear Modulus (GPa) = 86.34347 31.35914 58.85131
#
# Velocity S-wave (km/s) = 5.77716 3.48162 4.76955
# Velocity P-wave (km/s) = 7.98578 6.13295 7.11989
#
# Compressibility (1/GPa) = 0.02005732
#
# Stress axis : x y z
#
# Youngs Moduli (GPa) = 58.32365 193.99866 110.39563
#
# Poissons Ratio (x) = 0.20006 0.52828
# Poissons Ratio (y) = 0.06015 -0.01832
# Poissons Ratio (z) = 0.27910 -0.03219
#
# Static dielectric constant tensor:
#      x y z
#    x 2.057010 0.000000 0.000000 
#    y 0.000000 2.063170 0.000000 
#    z 0.000000 0.000000 2.060680 
# 
# From -- ./inp_files/1591.got.cif
#   From: 2010.05.17/outbox.cif.g08.bks.cpg/sg62_1_cif.got.tgz:1591.got - 2010.06.03 15:25:27.
