data_PCOD9466621
_publ_section_title
;
Structure prediction by ZEFSAII (Michael W. Deem and Ramdas Pophale) SiO2 
 PCOD9466621
Probable space group: P N M A
;
_chemical_formula_sum "Si O2"
_cell_formula_units_Z 40
_cell_length_a 13.685554
_cell_length_b 11.344765
_cell_length_c 11.822449
_cell_angle_alpha 90.000000
_cell_angle_beta 90.000000
_cell_angle_gamma 90.000000
_cell_volume 1835.546268
_symmetry_space_group_name_H-M "P N M A"
_symmetry_group_IT_number 62
_symmetry_cell_setting 'orthorhombic'
loop_
_space_group_symop_operation_xyz
x,y,z
1/2-x,-y,1/2+z
1/2+x,1/2-y,1/2-z
-x,1/2+y,-z
-x,-y,-z
1/2+x,y,1/2-z
1/2-x,1/2+y,1/2+z
x,1/2-y,z
loop_
_atom_site_type_symbol
_atom_site_label
_atom_site_fract_x
_atom_site_fract_y
_atom_site_fract_z
Si Si1 0.074975 0.971669 0.100922
Si Si2 0.891274 0.380873 0.346430
Si Si3 0.397487 0.875755 0.288056
Si Si4 0.253125 0.536730 0.467655
Si Si5 0.887702 0.882430 0.682540
O O1 0.094468 0.078664 0.187867
O O2 0.988260 0.118066 0.823946
O O3 0.178731 0.948689 0.042387
O O4 0.000000 0.000000 0.000000
O O5 0.878499 0.250000 0.291914
O O6 0.876152 0.500523 0.274539
O O7 0.817863 0.392010 0.450180
O O8 0.006101 0.386699 0.377041
O O9 0.379332 0.750000 0.228916
O O10 0.328694 0.883258 0.398173
O O11 0.186289 0.467975 0.379230
O O12 0.850644 0.750000 0.679197
#
# Coordination Sequence:
#
# PCOD9466621 Si02
#       5
#     8   8   8   8   8
#     4   9  21  39  60  88 122 162 204 249 305 367
#     4  10  22  42  64  88 124 169 209 254 314 378
#     4  10  22  40  61  90 125 163 210 262 312 371
#     4  11  21  37  63  94 123 161 208 261 314 369
#     4  10  22  40  63  92 126 163 208 258 312 373
#
# _framework density 21.791878000000001
#
# number of rings (size 3 to 8) (size 9 to 14) (size 15 to 20)
#    0.000    2.000    0.000    2.400    0.000    8.000 
#    0.000   20.000    0.000    0.000    0.000    0.000 
#    0.000    0.000    0.000    0.000    0.000    0.000 
#
# Total GULP energy -222968.235687 kJ/mol
# GULP energy per Si atom -5574.205892 kJ/mol
# Density = 2.174228 g / cm^3
# Si number density = 21.791878 Si / 1000 Ang^3
#
#
#
# Elastic Constant Matrix: (Units=GPa)
#
#
# Indices 1 2 3 4 5 6 
#
# 1 118.3915 27.3020 26.5679 0.0000 0.0000 0.0000
# 2 27.3020 157.9398 42.3226 0.0000 0.0000 0.0000
# 3 26.5679 42.3226 37.9658 0.0000 0.0000 0.0000
# 4 0.0000 0.0000 0.0000 0.2654 0.0000 0.0000
# 5 0.0000 0.0000 0.0000 0.0000 40.5002 0.0000
# 6 0.0000 0.0000 0.0000 0.0000 0.0000 -11.4786
#
#
#
# Elastic Compliance Matrix: (Units=1/GPa)
#
#
# Indices 1 2 3 4 5 6 
#
# 1 0.010025 0.000210 -0.007249 0.000000 0.000000 0.000000
# 2 0.000210 0.009033 -0.010216 0.000000 0.000000 0.000000
# 3 -0.007249 -0.010216 0.042801 0.000000 0.000000 0.000000
# 4 0.000000 0.000000 0.000000 3.767906 0.000000 0.000000
# 5 0.000000 0.000000 0.000000 0.000000 0.024691 0.000000
# 6 0.000000 0.000000 0.000000 0.000000 0.000000 -0.087118
#
#
# Mechanical properties :
#
#
# Convention : Reuss Voigt Hill
#
# Bulk Modulus (GPa) = 36.56633 56.29802 46.43217
# Shear Modulus (GPa) = 1.31200 20.39770 10.85485
#
# Velocity S-wave (km/s) = 0.77677 3.06277 2.23427
# Velocity P-wave (km/s) = 4.19770 6.19660 5.29238
#
# Compressibility (1/GPa) = 0.02734757
#
# Stress axis : x y z
#
# Youngs Moduli (GPa) = 99.75140 110.70666 23.36417
#
# Poissons Ratio (x) = -0.02319 0.16936
# Poissons Ratio (y) = -0.02090 0.23869
# Poissons Ratio (z) = 0.72308 1.13099
#
# Static dielectric constant tensor:
#      x y z
#    x 1.801590 0.000000 0.000000 
#    y 0.000000 1.856720 0.000000 
#    z 0.000000 0.000000 1.819690 
# 
# From -- ./inp_files/12975.got.cif
#   From: 2010.05.17/outbox.cif.g08.bks.cpg/sg62_7_cif.got.tgz:12975.got - 2010.06.03 15:25:27.
