data_PCOD9466942
_publ_section_title
;
Structure prediction by ZEFSAII (Michael W. Deem and Ramdas Pophale) SiO2 
 PCOD9466942
Probable space group: P N M A
;
_chemical_formula_sum "Si O2"
_cell_formula_units_Z 48
_cell_length_a 31.585918
_cell_length_b 8.716625
_cell_length_c 9.133478
_cell_angle_alpha 90.000000
_cell_angle_beta 90.000000
_cell_angle_gamma 90.000000
_cell_volume 2514.652933
_symmetry_space_group_name_H-M "P N M A"
_symmetry_group_IT_number 62
_symmetry_cell_setting 'orthorhombic'
loop_
_space_group_symop_operation_xyz
x,y,z
1/2-x,-y,1/2+z
1/2+x,1/2-y,1/2-z
-x,1/2+y,-z
-x,-y,-z
1/2+x,y,1/2-z
1/2-x,1/2+y,1/2+z
x,1/2-y,z
loop_
_atom_site_type_symbol
_atom_site_label
_atom_site_fract_x
_atom_site_fract_y
_atom_site_fract_z
Si Si1 0.373848 0.934250 0.410955
Si Si2 0.040921 0.065116 0.081265
Si Si3 0.041527 0.065523 0.421604
Si Si4 0.292783 0.066417 0.577222
Si Si5 0.289531 0.434675 0.919521
Si Si6 0.623471 0.934041 0.915692
O O1 0.373345 0.750000 0.400351
O O2 0.416193 0.981775 0.498228
O O3 0.332703 0.990266 0.497914
O O4 0.374383 0.004756 0.249320
O O5 0.038854 0.250000 0.077439
O O6 0.041915 0.017925 0.251143
O O7 0.000000 0.000000 0.000000
O O8 0.040835 0.250000 0.428425
O O9 0.083159 0.004299 0.502360
O O10 0.000000 0.000000 0.500000
O O11 0.296807 0.250000 0.567505
O O12 0.291339 0.023275 0.748485
O O13 0.249904 0.013186 0.498662
O O14 0.284343 0.250000 0.928985
O O15 0.333398 0.475508 0.999168
O O16 0.619805 0.750000 0.914646
#
# Coordination Sequence:
#
# PCOD9466942 Si02
#       6
#     8   8   8   8   8   8
#     4  11  23  40  61  87 119 155 195 240 292 349
#     4  10  23  40  60  86 117 154 195 240 291 348
#     4  11  23  40  61  88 120 156 198 244 296 351
#     4  11  23  39  61  88 117 153 196 241 290 345
#     4  10  23  41  60  86 120 156 195 241 293 348
#     4  11  23  40  62  89 120 156 198 244 295 351
#
# _framework density 19.08812
#
# number of rings (size 3 to 8) (size 9 to 14) (size 15 to 20)
#    0.000    1.333    0.000    5.000    0.000   10.667 
#    0.000    0.000    0.000    0.000    0.000    0.000 
#    0.000    0.000    0.000    0.000    0.000    0.000 
#
# Total GULP energy -268555.576477 kJ/mol
# GULP energy per Si atom -5594.907843 kJ/mol
# Density = 1.904467 g / cm^3
# Si number density = 19.088120 Si / 1000 Ang^3
#
#
#
# Elastic Constant Matrix: (Units=GPa)
#
#
# Indices 1 2 3 4 5 6 
#
# 1 207.4166 62.6886 123.1913 0.0000 0.0000 0.0000
# 2 62.6886 49.2656 61.3783 0.0000 0.0000 0.0000
# 3 123.1913 61.3783 216.3073 0.0000 0.0000 0.0000
# 4 0.0000 0.0000 0.0000 33.4559 0.0000 0.0000
# 5 0.0000 0.0000 0.0000 0.0000 45.1709 0.0000
# 6 0.0000 0.0000 0.0000 0.0000 0.0000 40.0953
#
#
#
# Elastic Compliance Matrix: (Units=1/GPa)
#
#
# Indices 1 2 3 4 5 6 
#
# 1 0.008841 -0.007698 -0.002851 0.000000 0.000000 0.000000
# 2 -0.007698 0.038101 -0.006427 0.000000 0.000000 0.000000
# 3 -0.002851 -0.006427 0.008070 0.000000 0.000000 0.000000
# 4 0.000000 0.000000 0.000000 0.029890 0.000000 0.000000
# 5 0.000000 0.000000 0.000000 0.000000 0.022138 0.000000
# 6 0.000000 0.000000 0.000000 0.000000 0.000000 0.024941
#
#
# Mechanical properties :
#
#
# Convention : Reuss Voigt Hill
#
# Bulk Modulus (GPa) = 47.48248 107.50064 77.49156
# Shear Modulus (GPa) = 28.90947 38.79318 33.85132
#
# Velocity S-wave (km/s) = 3.89591 4.51302 4.21577
# Velocity P-wave (km/s) = 6.72064 9.14313 8.02383
#
# Compressibility (1/GPa) = 0.02106040
#
# Stress axis : x y z
#
# Youngs Moduli (GPa) = 113.10892 26.24587 123.91094
#
# Poissons Ratio (x) = 0.20205 0.35324
# Poissons Ratio (y) = 0.87074 0.79639
# Poissons Ratio (z) = 0.32244 0.16868
#
# Static dielectric constant tensor:
#      x y z
#    x 1.617050 0.000000 0.000000 
#    y 0.000000 1.645690 0.000000 
#    z 0.000000 0.000000 1.633930 
# 
# From -- ./inp_files/10222.got.cif
#   From: 2010.05.17/outbox.cif.g08.bks.cpg/sg62_6_cif.got.tgz:10222.got - 2010.06.03 15:25:27.
