data_PCOD9466755
_publ_section_title
;
Structure prediction by ZEFSAII (Michael W. Deem and Ramdas Pophale) SiO2 
 PCOD9466755
Probable space group: P N M A
;
_chemical_formula_sum "Si O2"
_cell_formula_units_Z 40
_cell_length_a 5.004745
_cell_length_b 11.915272
_cell_length_c 27.013443
_cell_angle_alpha 90.000000
_cell_angle_beta 90.000000
_cell_angle_gamma 90.000000
_cell_volume 1610.889890
_symmetry_space_group_name_H-M "P N M A"
_symmetry_group_IT_number 62
_symmetry_cell_setting 'orthorhombic'
loop_
_space_group_symop_operation_xyz
x,y,z
1/2-x,-y,1/2+z
1/2+x,1/2-y,1/2-z
-x,1/2+y,-z
-x,-y,-z
1/2+x,y,1/2-z
1/2-x,1/2+y,1/2+z
x,1/2-y,z
loop_
_atom_site_type_symbol
_atom_site_label
_atom_site_fract_x
_atom_site_fract_y
_atom_site_fract_z
Si Si1 0.887301 0.750000 0.400459
Si Si2 0.654787 0.379735 0.476532
Si Si3 0.584388 0.518853 0.283082
Si Si4 0.902873 0.750000 0.164940
Si Si5 0.636383 0.623261 0.631064
Si Si6 0.611820 0.523556 0.064147
O O1 0.094975 0.750000 0.353273
O O2 0.948825 0.862458 0.430278
O O3 0.582577 0.750000 0.384163
O O4 0.641109 0.250000 0.491109
O O5 0.510889 0.378411 0.422529
O O6 0.633250 0.443823 0.530092
O O7 0.950688 0.423863 0.462139
O O8 0.883357 0.508876 0.263210
O O9 0.499601 0.639036 0.306234
O O10 0.533007 0.421907 0.323387
O O11 0.735362 0.750000 0.639182
O O12 0.843970 0.524011 0.619144
#
# Coordination Sequence:
#
# PCOD9466755 Si02
#       6
#     4   8   8   4   8   8
#     4  12  24  41  76 106 150 186 232 287 362 419
#     4  10  22  41  66  99 141 186 240 287 354 425
#     4  12  27  47  74 104 138 182 236 298 359 423
#     4  12  24  47  74 108 142 184 226 297 360 433
#     4  11  25  44  68  96 137 187 239 296 354 423
#     4  11  22  41  65 104 140 188 234 290 349 432
#
# _framework density 24.830995999999999
#
# number of rings (size 3 to 8) (size 9 to 14) (size 15 to 20)
#    0.000    0.800    3.000    4.200    2.800    0.800 
#    0.000    0.000    0.000    0.000    0.000    0.000 
#    0.000    0.000    0.000    0.000    0.000    0.000 
#
# Total GULP energy -223412.654297 kJ/mol
# GULP energy per Si atom -5585.316357 kJ/mol
# Density = 2.477448 g / cm^3
# Si number density = 24.830996 Si / 1000 Ang^3
#
#
#
# Elastic Constant Matrix: (Units=GPa)
#
#
# Indices 1 2 3 4 5 6 
#
# 1 31.6287 -20.4484 -3.1111 0.0000 0.0000 0.0000
# 2 -20.4484 88.8363 38.1924 0.0000 0.0000 0.0000
# 3 -3.1111 38.1924 85.0373 0.0000 0.0000 0.0000
# 4 0.0000 0.0000 0.0000 54.2476 0.0000 0.0000
# 5 0.0000 0.0000 0.0000 0.0000 48.1664 0.0000
# 6 0.0000 0.0000 0.0000 0.0000 0.0000 -248.9053
#
#
#
# Elastic Compliance Matrix: (Units=1/GPa)
#
#
# Indices 1 2 3 4 5 6 
#
# 1 0.037805 0.010047 -0.003129 0.000000 0.000000 0.000000
# 2 0.010047 0.016621 -0.007097 0.000000 0.000000 0.000000
# 3 -0.003129 -0.007097 0.014833 0.000000 0.000000 0.000000
# 4 0.000000 0.000000 0.000000 0.018434 0.000000 0.000000
# 5 0.000000 0.000000 0.000000 0.000000 0.020761 0.000000
# 6 0.000000 0.000000 0.000000 0.000000 0.000000 -0.004018
#
#
# Mechanical properties :
#
#
# Convention : Reuss Voigt Hill
#
# Bulk Modulus (GPa) = 14.51390 26.08533 20.29961
# Shear Modulus (GPa) = 39.13574 -16.57363 11.28106
#
# Velocity S-wave (km/s) = 3.97430 -2.58632 2.13378
# Velocity P-wave (km/s) = 5.18824 1.26854 3.77671
#
# Compressibility (1/GPa) = 0.06889947
#
# Stress axis : x y z
#
# Youngs Moduli (GPa) = 26.45169 60.16659 67.41935
#
# Poissons Ratio (x) = -0.60451 0.21098
# Poissons Ratio (y) = -0.26577 0.47848
# Poissons Ratio (z) = 0.08278 0.42701
#
# Static dielectric constant tensor:
#      x y z
#    x 2.062830 0.000000 0.000000 
#    y 0.000000 2.597710 0.000000 
#    z 0.000000 0.000000 2.025000 
# 
# From -- ./inp_files/30276.got.cif
#   From: 2010.05.17/outbox.cif.g08.bks.cpg/sg62_16_cif.got.tgz:30276.got - 2010.06.03 15:25:27.
