data_PCOD9466786
_publ_section_title
;
Structure prediction by ZEFSAII (Michael W. Deem and Ramdas Pophale) SiO2 
 PCOD9466786
Probable space group: P N M A
;
_chemical_formula_sum "Si O2"
_cell_formula_units_Z 40
_cell_length_a 10.028847
_cell_length_b 21.330435
_cell_length_c 8.964998
_cell_angle_alpha 90.000000
_cell_angle_beta 90.000000
_cell_angle_gamma 90.000000
_cell_volume 1917.789405
_symmetry_space_group_name_H-M "P N M A"
_symmetry_group_IT_number 62
_symmetry_cell_setting 'orthorhombic'
loop_
_space_group_symop_operation_xyz
x,y,z
1/2-x,-y,1/2+z
1/2+x,1/2-y,1/2-z
-x,1/2+y,-z
-x,-y,-z
1/2+x,y,1/2-z
1/2-x,1/2+y,1/2+z
x,1/2-y,z
loop_
_atom_site_type_symbol
_atom_site_label
_atom_site_fract_x
_atom_site_fract_y
_atom_site_fract_z
Si Si1 0.689012 0.818373 0.543859
Si Si2 0.477856 0.677631 0.097444
Si Si3 0.370252 0.545704 0.660732
Si Si4 0.509823 0.585946 0.364378
Si Si5 0.104788 0.884349 0.672660
O O1 0.634956 0.750000 0.502260
O O2 0.842908 0.819723 0.499261
O O3 0.615149 0.872722 0.455718
O O4 0.660456 0.831211 0.716620
O O5 0.512434 0.750000 0.136568
O O6 0.455116 0.632069 0.237780
O O7 0.585693 0.644608 0.990386
O O8 0.405522 0.561041 0.487832
O O9 0.413704 0.475036 0.696175
O O10 0.465625 0.589491 0.762005
O O11 0.215674 0.561198 0.682018
#
# Coordination Sequence:
#
# PCOD9466786 Si02
#       5
#     8   8   8   8   8
#     4  10  22  42  63  90 130 168 213 267 317 385
#     4  11  24  40  65  97 128 170 217 265 324 382
#     4  10  24  42  68  92 131 169 216 260 329 378
#     4  10  24  42  63  96 129 166 213 269 322 384
#     4  11  22  44  65  95 125 175 214 267 314 391
#
# _framework density 20.857348000000002
#
# number of rings (size 3 to 8) (size 9 to 14) (size 15 to 20)
#    0.000    1.600    2.000    1.200    5.600    4.000 
#    0.000    2.000    0.000    0.000    0.000    0.000 
#    0.000    0.000    0.000    0.000    0.000    0.000 
#
# Total GULP energy -223414.428354 kJ/mol
# GULP energy per Si atom -5585.360709 kJ/mol
# Density = 2.080988 g / cm^3
# Si number density = 20.857348 Si / 1000 Ang^3
#
#
#
# Elastic Constant Matrix: (Units=GPa)
#
#
# Indices 1 2 3 4 5 6 
#
# 1 34.7075 -8.6409 -2.7873 0.0000 0.0000 0.0000
# 2 -8.6409 110.3057 26.7953 0.0000 0.0000 0.0000
# 3 -2.7873 26.7953 65.2663 0.0000 0.0000 0.0000
# 4 0.0000 0.0000 0.0000 39.9751 0.0000 0.0000
# 5 0.0000 0.0000 0.0000 0.0000 10.9913 0.0000
# 6 0.0000 0.0000 0.0000 0.0000 0.0000 26.1497
#
#
#
# Elastic Compliance Matrix: (Units=1/GPa)
#
#
# Indices 1 2 3 4 5 6 
#
# 1 0.029392 0.002219 0.000344 0.000000 0.000000 0.000000
# 2 0.002219 0.010238 -0.004108 0.000000 0.000000 0.000000
# 3 0.000344 -0.004108 0.017023 0.000000 0.000000 0.000000
# 4 0.000000 0.000000 0.000000 0.025016 0.000000 0.000000
# 5 0.000000 0.000000 0.000000 0.000000 0.090981 0.000000
# 6 0.000000 0.000000 0.000000 0.000000 0.000000 0.038241
#
#
# Mechanical properties :
#
#
# Convention : Reuss Voigt Hill
#
# Bulk Modulus (GPa) = 18.66969 26.77930 22.72450
# Shear Modulus (GPa) = 21.56701 28.41739 24.99220
#
# Velocity S-wave (km/s) = 3.21911 3.69516 3.46532
# Velocity P-wave (km/s) = 4.77362 5.57429 5.18942
#
# Compressibility (1/GPa) = 0.05356274
#
# Stress axis : x y z
#
# Youngs Moduli (GPa) = 34.02251 97.68007 58.74335
#
# Poissons Ratio (x) = -0.21674 -0.02023
# Poissons Ratio (y) = -0.07549 0.24133
# Poissons Ratio (z) = -0.01171 0.40130
#
# Static dielectric constant tensor:
#      x y z
#    x 1.723080 0.000000 0.000000 
#    y 0.000000 1.740320 0.000000 
#    z 0.000000 0.000000 1.766290 
# 
# From -- ./inp_files/4287.got.cif
#   From: 2010.05.17/outbox.cif.g08.bks.cpg/sg62_3_cif.got.tgz:4287.got - 2010.06.03 15:25:27.
