data_PCOD9466195
_publ_section_title
;
Structure prediction by ZEFSAII (Michael W. Deem and Ramdas Pophale) SiO2 
 PCOD9466195
Probable space group: P N M A
;
_chemical_formula_sum "Si O2"
_cell_formula_units_Z 60
_cell_length_a 12.531818
_cell_length_b 9.524457
_cell_length_c 24.113209
_cell_angle_alpha 90.000000
_cell_angle_beta 90.000000
_cell_angle_gamma 90.000000
_cell_volume 2878.122766
_symmetry_space_group_name_H-M "P N M A"
_symmetry_group_IT_number 62
_symmetry_cell_setting 'orthorhombic'
loop_
_space_group_symop_operation_xyz
x,y,z
1/2-x,-y,1/2+z
1/2+x,1/2-y,1/2-z
-x,1/2+y,-z
-x,-y,-z
1/2+x,y,1/2-z
1/2-x,1/2+y,1/2+z
x,1/2-y,z
loop_
_atom_site_type_symbol
_atom_site_label
_atom_site_fract_x
_atom_site_fract_y
_atom_site_fract_z
Si Si1 0.369970 0.411084 0.054535
Si Si2 0.422352 0.591714 0.669383
Si Si3 0.557147 0.595394 0.773594
Si Si4 0.753497 0.583894 0.270897
Si Si5 0.826454 0.911420 0.668015
Si Si6 0.500327 0.250000 0.519264
Si Si7 0.622866 0.026942 0.450820
Si Si8 0.924561 0.088072 0.576039
O O1 0.385239 0.250000 0.074547
O O2 0.247852 0.455702 0.063186
O O3 0.459741 0.513309 0.079357
O O4 0.391137 0.411911 0.988355
O O5 0.380019 0.750000 0.680135
O O6 0.524190 0.577558 0.709114
O O7 0.338704 0.475735 0.689505
O O8 0.441015 0.575942 0.604417
O O9 0.607109 0.750000 0.780771
O O10 0.633867 0.472500 0.792579
O O11 0.445324 0.594193 0.805547
O O12 0.748247 0.750000 0.264984
O O13 0.738131 0.502860 0.212476
O O14 0.789216 0.750000 0.661965
O O15 0.841531 0.995187 0.611104
O O16 0.587355 0.128522 0.500134
O O17 0.413392 0.372247 0.534980
O O18 0.927863 0.250000 0.595389
#
# Coordination Sequence:
#
# PCOD9466195 Si02
#       8
#     8   8   8   8   8   4   8   8
#     4  10  21  40  62  88 124 161 208 249 308 360
#     4  10  21  40  65  88 119 159 207 248 298 360
#     4   9  20  39  60  85 116 154 200 247 293 358
#     4  11  23  38  59  90 121 155 195 248 301 363
#     4  10  21  41  62  84 119 158 200 245 305 360
#     4  10  24  42  64  90 128 154 208 254 304 358
#     4  11  22  44  64  92 122 166 203 259 304 368
#     4  10  22  38  60  92 123 158 201 260 302 367
#
# _framework density 20.846921999999999
#
# number of rings (size 3 to 8) (size 9 to 14) (size 15 to 20)
#    0.000    1.867    1.333    2.800    3.733    3.200 
#    4.800    0.000    0.000    0.000    0.000    0.000 
#    0.000    0.000    0.000    0.000    0.000    0.000 
#
# Total GULP energy -334093.098898 kJ/mol
# GULP energy per Si atom -5568.218315 kJ/mol
# Density = 2.079947 g / cm^3
# Si number density = 20.846922 Si / 1000 Ang^3
#
#
#
# Elastic Constant Matrix: (Units=GPa)
#
#
# Indices 1 2 3 4 5 6 
#
# 1 35.7334 30.1436 6.7887 0.0000 0.0000 0.0000
# 2 30.1436 183.0384 20.1042 0.0000 0.0000 0.0000
# 3 6.7887 20.1042 40.0165 0.0000 0.0000 0.0000
# 4 0.0000 0.0000 0.0000 16.1688 0.0000 0.0000
# 5 0.0000 0.0000 0.0000 0.0000 12.5158 0.0000
# 6 0.0000 0.0000 0.0000 0.0000 0.0000 -1.4619
#
#
#
# Elastic Compliance Matrix: (Units=1/GPa)
#
#
# Indices 1 2 3 4 5 6 
#
# 1 0.032841 -0.005077 -0.003021 0.000000 0.000000 0.000000
# 2 -0.005077 0.006567 -0.002438 0.000000 0.000000 0.000000
# 3 -0.003021 -0.002438 0.026727 0.000000 0.000000 0.000000
# 4 0.000000 0.000000 0.000000 0.061848 0.000000 0.000000
# 5 0.000000 0.000000 0.000000 0.000000 0.079899 0.000000
# 6 0.000000 0.000000 0.000000 0.000000 0.000000 -0.684037
#
#
# Mechanical properties :
#
#
# Convention : Reuss Voigt Hill
#
# Bulk Modulus (GPa) = 22.19050 41.42903 31.80976
# Shear Modulus (GPa) = -11.36202 18.89467 3.76632
#
# Velocity S-wave (km/s) = -2.33710 3.01384 1.34558
# Velocity P-wave (km/s) = 1.83980 5.65925 4.20785
#
# Compressibility (1/GPa) = 0.04506434
#
# Stress axis : x y z
#
# Youngs Moduli (GPa) = 30.44930 152.27248 37.41524
#
# Poissons Ratio (x) = 0.77304 0.11303
# Poissons Ratio (y) = 0.15458 0.09122
# Poissons Ratio (z) = 0.09198 0.37126
#
# Static dielectric constant tensor:
#      x y z
#    x 1.757660 0.000000 0.000000 
#    y 0.000000 1.715660 0.000000 
#    z 0.000000 0.000000 1.802620 
# 
# From -- ./inp_files/31135.got.cif
#   From: 2010.05.17/outbox.cif.g08.bks.cpg/sg62_16_cif.got.tgz:31135.got - 2010.06.03 15:25:27.
