data_PCOD9466289
_publ_section_title
;
Structure prediction by ZEFSAII (Michael W. Deem and Ramdas Pophale) SiO2 
 PCOD9466289
Probable space group: P N M A
;
_chemical_formula_sum "Si O2"
_cell_formula_units_Z 48
_cell_length_a 10.976130
_cell_length_b 22.907751
_cell_length_c 7.466724
_cell_angle_alpha 90.000000
_cell_angle_beta 90.000000
_cell_angle_gamma 90.000000
_cell_volume 1877.421531
_symmetry_space_group_name_H-M "P N M A"
_symmetry_group_IT_number 62
_symmetry_cell_setting 'orthorhombic'
loop_
_space_group_symop_operation_xyz
x,y,z
1/2-x,-y,1/2+z
1/2+x,1/2-y,1/2-z
-x,1/2+y,-z
-x,-y,-z
1/2+x,y,1/2-z
1/2-x,1/2+y,1/2+z
x,1/2-y,z
loop_
_atom_site_type_symbol
_atom_site_label
_atom_site_fract_x
_atom_site_fract_y
_atom_site_fract_z
Si Si1 0.989750 0.428624 0.619410
Si Si2 0.092523 0.929267 0.771357
Si Si3 0.737366 0.460048 0.691361
Si Si4 0.940938 0.183775 0.814661
Si Si5 0.380722 0.876601 0.573767
Si Si6 0.228228 0.819371 0.861834
O O1 0.963783 0.446708 0.417497
O O2 0.879530 0.456853 0.736700
O O3 0.963429 0.360484 0.655292
O O4 0.128344 0.439704 0.678052
O O5 0.131281 0.861472 0.765258
O O6 0.982488 0.926413 0.908847
O O7 0.198096 0.972644 0.836232
O O8 0.723526 0.413884 0.526626
O O9 0.938968 0.250000 0.755183
O O10 0.816352 0.172863 0.931112
O O11 0.055537 0.171688 0.948054
O O12 0.345852 0.847387 0.763865
O O13 0.223047 0.750000 0.827870
#
# Coordination Sequence:
#
# PCOD9466289 Si02
#       6
#     8   8   8   8   8   8
#     4  11  25  44  67 105 138 183 229 290 347 414
#     4  11  24  40  68  98 135 178 232 282 349 418
#     4  11  25  44  67 102 142 180 231 287 354 410
#     4   9  21  41  64  95 138 183 232 290 348 413
#     4  10  21  41  67  97 135 181 230 291 350 411
#     4  10  21  40  67  97 133 179 232 284 345 415
#
# _framework density 25.566980000000001
#
# number of rings (size 3 to 8) (size 9 to 14) (size 15 to 20)
#    0.000    1.667    1.667    1.500    4.667    5.333 
#    0.000    0.833    0.000    0.000    0.000    0.000 
#    0.000    0.000    0.000    0.000    0.000    0.000 
#
# Total GULP energy -267957.501572 kJ/mol
# GULP energy per Si atom -5582.447949 kJ/mol
# Density = 2.550879 g / cm^3
# Si number density = 25.566980 Si / 1000 Ang^3
#
#
#
# Elastic Constant Matrix: (Units=GPa)
#
#
# Indices 1 2 3 4 5 6 
#
# 1 112.4707 25.6505 16.2275 0.0000 0.0000 0.0000
# 2 25.6505 139.4923 24.1797 0.0000 0.0000 0.0000
# 3 16.2275 24.1797 55.5070 0.0000 0.0000 0.0000
# 4 0.0000 0.0000 0.0000 35.5034 0.0000 0.0000
# 5 0.0000 0.0000 0.0000 0.0000 33.9482 0.0000
# 6 0.0000 0.0000 0.0000 0.0000 0.0000 36.4654
#
#
#
# Elastic Compliance Matrix: (Units=1/GPa)
#
#
# Indices 1 2 3 4 5 6 
#
# 1 0.009519 -0.001372 -0.002185 0.000000 0.000000 0.000000
# 2 -0.001372 0.007952 -0.003063 0.000000 0.000000 0.000000
# 3 -0.002185 -0.003063 0.019989 0.000000 0.000000 0.000000
# 4 0.000000 0.000000 0.000000 0.028166 0.000000 0.000000
# 5 0.000000 0.000000 0.000000 0.000000 0.029457 0.000000
# 6 0.000000 0.000000 0.000000 0.000000 0.000000 0.027423
#
#
# Mechanical properties :
#
#
# Convention : Reuss Voigt Hill
#
# Bulk Modulus (GPa) = 41.28807 48.84283 45.06545
# Shear Modulus (GPa) = 34.76562 37.27755 36.02159
#
# Velocity S-wave (km/s) = 3.69153 3.82256 3.75762
# Velocity P-wave (km/s) = 5.86122 6.21514 6.04077
#
# Compressibility (1/GPa) = 0.02422007
#
# Stress axis : x y z
#
# Youngs Moduli (GPa) = 105.04918 125.75411 50.02753
#
# Poissons Ratio (x) = 0.17249 0.10933
# Poissons Ratio (y) = 0.14409 0.15324
# Poissons Ratio (z) = 0.22958 0.38519
#
# Static dielectric constant tensor:
#      x y z
#    x 2.105440 0.000000 0.000000 
#    y 0.000000 1.995290 0.000000 
#    z 0.000000 0.000000 2.053690 
# 
# From -- ./inp_files/5322.got.cif
#   From: 2010.05.17/outbox.cif.g08.bks.cpg/sg62_3_cif.got.tgz:5322.got - 2010.06.03 15:25:27.
