data_PCOD9466769
_publ_section_title
;
Structure prediction by ZEFSAII (Michael W. Deem and Ramdas Pophale) SiO2 
 PCOD9466769
Probable space group: P N M A
;
_chemical_formula_sum "Si O2"
_cell_formula_units_Z 64
_cell_length_a 17.448063
_cell_length_b 14.661870
_cell_length_c 12.279181
_cell_angle_alpha 90.000000
_cell_angle_beta 90.000000
_cell_angle_gamma 90.000000
_cell_volume 3141.275205
_symmetry_space_group_name_H-M "P N M A"
_symmetry_group_IT_number 62
_symmetry_cell_setting 'orthorhombic'
loop_
_space_group_symop_operation_xyz
x,y,z
1/2-x,-y,1/2+z
1/2+x,1/2-y,1/2-z
-x,1/2+y,-z
-x,-y,-z
1/2+x,y,1/2-z
1/2-x,1/2+y,1/2+z
x,1/2-y,z
loop_
_atom_site_type_symbol
_atom_site_label
_atom_site_fract_x
_atom_site_fract_y
_atom_site_fract_z
Si Si1 0.451880 0.520627 0.107109
Si Si2 0.309030 0.647930 0.085049
Si Si3 0.196157 0.145784 0.033556
Si Si4 0.351439 0.351712 0.157779
Si Si5 0.732978 0.902168 0.186528
Si Si6 0.211078 0.595246 0.881633
Si Si7 0.414495 0.480760 0.539892
Si Si8 0.567168 0.857866 0.247143
O O1 0.378016 0.578608 0.074769
O O2 0.418499 0.426027 0.154343
O O3 0.501513 0.582380 0.189259
O O4 0.500000 0.500000 0.000000
O O5 0.338103 0.750000 0.100801
O O6 0.261422 0.620481 0.192344
O O7 0.257993 0.643106 0.976968
O O8 0.179017 0.250000 0.065772
O O9 0.210630 0.141123 0.903587
O O10 0.131814 0.073672 0.069780
O O11 0.279364 0.119636 0.082321
O O12 0.376369 0.250000 0.124547
O O13 0.315629 0.349199 0.277922
O O14 0.646086 0.867493 0.178445
O O15 0.739968 0.009669 0.163347
O O16 0.135206 0.557852 0.940457
O O17 0.500000 0.500000 0.500000
O O18 0.416887 0.408003 0.637797
O O19 0.549184 0.750000 0.258803
#
# Coordination Sequence:
#
# PCOD9466769 Si02
#       8
#     8   8   8   8   8   8   8   8
#     4  12  26  46  66 100 141 178 220 283 348 412
#     4  12  24  42  70 104 135 177 231 285 342 408
#     4  10  22  41  68  99 130 175 227 280 336 409
#     4  11  23  43  70  98 134 180 230 279 346 421
#     4  11  22  41  70  99 135 174 228 283 336 404
#     4  11  22  42  68  99 137 176 226 285 343 400
#     4  11  24  40  60  93 133 175 221 275 338 399
#     4  12  25  43  67  97 135 178 225 277 337 405
#
# _framework density 20.373892999999999
#
# number of rings (size 3 to 8) (size 9 to 14) (size 15 to 20)
#    0.000    0.750    2.500    6.375    1.750    3.000 
#    0.000    1.875    0.000    0.000    0.000    0.000 
#    0.000    0.000    0.000    0.000    0.000    0.000 
#
# Total GULP energy -357819.311337 kJ/mol
# GULP energy per Si atom -5590.926740 kJ/mol
# Density = 2.032752 g / cm^3
# Si number density = 20.373893 Si / 1000 Ang^3
#
#
#
# Elastic Constant Matrix: (Units=GPa)
#
#
# Indices 1 2 3 4 5 6 
#
# 1 109.4182 61.5405 26.0796 0.0000 0.0000 0.0000
# 2 61.5405 162.3713 37.3945 0.0000 0.0000 0.0000
# 3 26.0796 37.3945 98.2543 0.0000 0.0000 0.0000
# 4 0.0000 0.0000 0.0000 19.7597 0.0000 0.0000
# 5 0.0000 0.0000 0.0000 0.0000 31.4532 0.0000
# 6 0.0000 0.0000 0.0000 0.0000 0.0000 2.3142
#
#
#
# Elastic Compliance Matrix: (Units=1/GPa)
#
#
# Indices 1 2 3 4 5 6 
#
# 1 0.011833 -0.004123 -0.001572 0.000000 0.000000 0.000000
# 2 -0.004123 0.008187 -0.002022 0.000000 0.000000 0.000000
# 3 -0.001572 -0.002022 0.011364 0.000000 0.000000 0.000000
# 4 0.000000 0.000000 0.000000 0.050608 0.000000 0.000000
# 5 0.000000 0.000000 0.000000 0.000000 0.031793 0.000000
# 6 0.000000 0.000000 0.000000 0.000000 0.000000 0.432111
#
#
# Mechanical properties :
#
#
# Convention : Reuss Voigt Hill
#
# Bulk Modulus (GPa) = 62.68874 68.89700 65.79287
# Shear Modulus (GPa) = 8.82386 27.04071 17.93229
#
# Velocity S-wave (km/s) = 2.08335 3.64706 2.96997
# Velocity P-wave (km/s) = 6.05170 7.18502 6.64257
#
# Compressibility (1/GPa) = 0.01595183
#
# Stress axis : x y z
#
# Youngs Moduli (GPa) = 84.51217 122.14720 87.99560
#
# Poissons Ratio (x) = 0.50358 0.13830
# Poissons Ratio (y) = 0.34842 0.17789
# Poissons Ratio (z) = 0.13282 0.24692
#
# Static dielectric constant tensor:
#      x y z
#    x 1.702460 0.000000 0.000000 
#    y 0.000000 1.778090 0.000000 
#    z 0.000000 0.000000 1.724870 
# 
# From -- ./inp_files/14323.got.cif
#   From: 2010.05.17/outbox.cif.g08.bks.cpg/sg62_8_cif.got.tgz:14323.got - 2010.06.03 15:25:27.
