data_PCOD9466500
_publ_section_title
;
Structure prediction by ZEFSAII (Michael W. Deem and Ramdas Pophale) SiO2 
 PCOD9466500
Probable space group: P N M A
;
_chemical_formula_sum "Si O2"
_cell_formula_units_Z 20
_cell_length_a 4.419195
_cell_length_b 5.715691
_cell_length_c 28.675780
_cell_angle_alpha 90.000000
_cell_angle_beta 90.000000
_cell_angle_gamma 90.000000
_cell_volume 724.314447
_symmetry_space_group_name_H-M "P N M A"
_symmetry_group_IT_number 62
_symmetry_cell_setting 'orthorhombic'
loop_
_space_group_symop_operation_xyz
x,y,z
1/2-x,-y,1/2+z
1/2+x,1/2-y,1/2-z
-x,1/2+y,-z
-x,-y,-z
1/2+x,y,1/2-z
1/2-x,1/2+y,1/2+z
x,1/2-y,z
loop_
_atom_site_type_symbol
_atom_site_label
_atom_site_fract_x
_atom_site_fract_y
_atom_site_fract_z
Si Si1 0.698569 0.499303 0.140068
Si Si2 0.861820 0.250000 0.284257
Si Si3 0.203765 0.000320 0.546507
O O1 0.874584 0.250000 0.139132
O O2 0.471199 0.464832 0.183742
O O3 0.505727 0.501821 0.092400
O O4 0.856649 0.750000 0.144387
O O5 0.524084 0.250000 0.266123
O O6 0.374563 0.250000 0.547362
O O7 0.371615 0.750000 0.546490
O O8 0.000000 0.000000 0.500000
#
# Coordination Sequence:
#
# PCOD9466500 Si02
#       3
#     8   4   8
#     4   8  16  30  48  74 108 136 183 222 274 325
#     4  10  22  38  58  82 112 150 190 234 280 328
#     4   8  12  20  38  66 100 130 170 211 267 318
#
# _framework density 27.612317999999998
#
# number of rings (size 3 to 8) (size 9 to 14) (size 15 to 20)
#    1.200    2.400    0.000    0.000    0.000    1.600 
#    0.000    0.000    0.000    0.000    0.000    2.800 
#    0.000    0.000    0.000    0.000    0.000    0.000 
#
# Total GULP energy -111657.356535 kJ/mol
# GULP energy per Si atom -5582.867827 kJ/mol
# Density = 2.754947 g / cm^3
# Si number density = 27.612318 Si / 1000 Ang^3
#
#
#
# Elastic Constant Matrix: (Units=GPa)
#
#
# Indices 1 2 3 4 5 6 
#
# 1 59.5128 25.3343 46.6431 0.0000 0.0000 0.0000
# 2 25.3343 359.2019 -1.2430 0.0000 0.0000 0.0000
# 3 46.6431 -1.2430 237.3106 0.0000 0.0000 0.0000
# 4 0.0000 0.0000 0.0000 29.2522 0.0000 0.0000
# 5 0.0000 0.0000 0.0000 0.0000 66.7813 0.0000
# 6 0.0000 0.0000 0.0000 0.0000 0.0000 -10.9976
#
#
#
# Elastic Compliance Matrix: (Units=1/GPa)
#
#
# Indices 1 2 3 4 5 6 
#
# 1 0.020608 -0.001468 -0.004058 0.000000 0.000000 0.000000
# 2 -0.001468 0.002889 0.000304 0.000000 0.000000 0.000000
# 3 -0.004058 0.000304 0.005013 0.000000 0.000000 0.000000
# 4 0.000000 0.000000 0.000000 0.034185 0.000000 0.000000
# 5 0.000000 0.000000 0.000000 0.000000 0.014974 0.000000
# 6 0.000000 0.000000 0.000000 0.000000 0.000000 -0.090929
#
#
# Mechanical properties :
#
#
# Convention : Reuss Voigt Hill
#
# Bulk Modulus (GPa) = 55.35368 88.61045 71.98207
# Shear Modulus (GPa) = 1559.03245 56.02659 807.52952
#
# Velocity S-wave (km/s) = 23.78740 4.50938 17.11980
# Velocity P-wave (km/s) = 27.83064 7.69891 20.41834
#
# Compressibility (1/GPa) = 0.01806564
#
# Stress axis : x y z
#
# Youngs Moduli (GPa) = 48.52371 346.19985 199.47641
#
# Poissons Ratio (x) = 0.50806 0.80953
# Poissons Ratio (y) = 0.07121 -0.06056
# Poissons Ratio (z) = 0.19692 -0.10510
#
# Static dielectric constant tensor:
#      x y z
#    x 2.019740 0.000000 0.000000 
#    y 0.000000 2.205180 0.000000 
#    z 0.000000 0.000000 2.065150 
# 
# From -- ./inp_files/30133.got.cif
#   From: 2010.05.17/outbox.cif.g08.bks.cpg/sg62_16_cif.got.tgz:30133.got - 2010.06.03 15:25:27.
