data_PCOD9466355
_publ_section_title
;
Structure prediction by ZEFSAII (Michael W. Deem and Ramdas Pophale) SiO2 
 PCOD9466355
Probable space group: P N M A
;
_chemical_formula_sum "Si O2"
_cell_formula_units_Z 64
_cell_length_a 23.013550
_cell_length_b 15.234979
_cell_length_c 8.528149
_cell_angle_alpha 90.000000
_cell_angle_beta 90.000000
_cell_angle_gamma 90.000000
_cell_volume 2990.062431
_symmetry_space_group_name_H-M "P N M A"
_symmetry_group_IT_number 62
_symmetry_cell_setting 'orthorhombic'
loop_
_space_group_symop_operation_xyz
x,y,z
1/2-x,-y,1/2+z
1/2+x,1/2-y,1/2-z
-x,1/2+y,-z
-x,-y,-z
1/2+x,y,1/2-z
1/2-x,1/2+y,1/2+z
x,1/2-y,z
loop_
_atom_site_type_symbol
_atom_site_label
_atom_site_fract_x
_atom_site_fract_y
_atom_site_fract_z
Si Si1 0.084696 0.000452 0.049758
Si Si2 0.994668 0.855161 0.105575
Si Si3 0.903175 0.601925 0.642764
Si Si4 0.279897 0.656030 0.779729
Si Si5 0.628263 0.949455 0.945111
Si Si6 0.234177 0.649616 0.421620
Si Si7 0.517060 0.845874 0.023288
Si Si8 0.304365 0.012576 0.364843
O O1 0.152585 0.990228 0.012081
O O2 0.049097 0.909477 0.030360
O O3 0.058694 0.081632 0.947279
O O4 0.076803 0.031777 0.227659
O O5 0.990598 0.750000 0.063764
O O6 0.001637 0.859231 0.293950
O O7 0.849368 0.652836 0.716296
O O8 0.875439 0.548912 0.500027
O O9 0.958763 0.651221 0.578524
O O10 0.259715 0.750000 0.842132
O O11 0.259343 0.649439 0.599577
O O12 0.249624 0.578440 0.875504
O O13 0.655484 0.950282 0.773754
O O14 0.670276 0.892944 0.058827
O O15 0.563234 0.913928 0.957080
O O16 0.232673 0.750000 0.365546
O O17 0.276325 0.582455 0.331662
O O18 0.544860 0.750000 0.009979
#
# Coordination Sequence:
#
# PCOD9466355 Si02
#       8
#     8   8   8   8   8   8   8   8
#     4  11  24  41  67  97 128 176 213 266 335 384
#     4  10  24  44  64  94 133 170 219 270 321 388
#     4  12  22  40  68  90 133 169 217 264 327 393
#     4  10  22  41  65  95 129 169 215 266 323 384
#     4  11  23  40  67  93 129 169 215 269 327 386
#     4  10  21  41  66  92 126 173 218 263 319 385
#     4  11  24  42  64  96 130 172 220 270 325 386
#     4  11  23  41  66  96 131 167 216 273 323 392
#
# _framework density 21.404236000000001
#
# number of rings (size 3 to 8) (size 9 to 14) (size 15 to 20)
#    0.000    1.250    3.750    1.875    3.500    2.500 
#    0.000    1.250    0.000    0.000    0.000    0.000 
#    0.000    0.000    0.000    0.000    0.000    0.000 
#
# Total GULP energy -357288.357769 kJ/mol
# GULP energy per Si atom -5582.630590 kJ/mol
# Density = 2.135552 g / cm^3
# Si number density = 21.404236 Si / 1000 Ang^3
#
#
#
# Elastic Constant Matrix: (Units=GPa)
#
#
# Indices 1 2 3 4 5 6 
#
# 1 100.2192 30.6655 10.4466 0.0000 0.0000 0.0000
# 2 30.6655 120.6639 11.1136 0.0000 0.0000 0.0000
# 3 10.4466 11.1136 33.7956 0.0000 0.0000 0.0000
# 4 0.0000 0.0000 0.0000 20.7630 0.0000 0.0000
# 5 0.0000 0.0000 0.0000 0.0000 17.1241 0.0000
# 6 0.0000 0.0000 0.0000 0.0000 0.0000 16.1721
#
#
#
# Elastic Compliance Matrix: (Units=1/GPa)
#
#
# Indices 1 2 3 4 5 6 
#
# 1 0.011031 -0.002567 -0.002566 0.000000 0.000000 0.000000
# 2 -0.002567 0.009144 -0.002213 0.000000 0.000000 0.000000
# 3 -0.002566 -0.002213 0.031111 0.000000 0.000000 0.000000
# 4 0.000000 0.000000 0.000000 0.048163 0.000000 0.000000
# 5 0.000000 0.000000 0.000000 0.000000 0.058397 0.000000
# 6 0.000000 0.000000 0.000000 0.000000 0.000000 0.061835
#
#
# Mechanical properties :
#
#
# Convention : Reuss Voigt Hill
#
# Bulk Modulus (GPa) = 27.32754 39.90333 33.61544
# Shear Modulus (GPa) = 20.27821 24.30871 22.29346
#
# Velocity S-wave (km/s) = 3.08131 3.37366 3.23080
# Velocity P-wave (km/s) = 5.04523 5.81882 5.44578
#
# Compressibility (1/GPa) = 0.03659312
#
# Stress axis : x y z
#
# Youngs Moduli (GPa) = 90.65304 109.36436 32.14343
#
# Poissons Ratio (x) = 0.28075 0.08247
# Poissons Ratio (y) = 0.23272 0.07114
# Poissons Ratio (z) = 0.23258 0.24206
#
# Static dielectric constant tensor:
#      x y z
#    x 1.762480 0.000000 0.000000 
#    y 0.000000 1.819880 0.000000 
#    z 0.000000 0.000000 1.781120 
# 
# From -- ./inp_files/9510.got.cif
#   From: 2010.05.17/outbox.cif.g08.bks.cpg/sg62_5_cif.got.tgz:9510.got - 2010.06.03 15:25:27.
