data_PCOD9466649
_publ_section_title
;
Structure prediction by ZEFSAII (Michael W. Deem and Ramdas Pophale) SiO2 
 PCOD9466649
Probable space group: P N M A
;
_chemical_formula_sum "Si O2"
_cell_formula_units_Z 40
_cell_length_a 10.030172
_cell_length_b 23.632082
_cell_length_c 9.209365
_cell_angle_alpha 90.000000
_cell_angle_beta 90.000000
_cell_angle_gamma 90.000000
_cell_volume 2182.931216
_symmetry_space_group_name_H-M "P N M A"
_symmetry_group_IT_number 62
_symmetry_cell_setting 'orthorhombic'
loop_
_space_group_symop_operation_xyz
x,y,z
1/2-x,-y,1/2+z
1/2+x,1/2-y,1/2-z
-x,1/2+y,-z
-x,-y,-z
1/2+x,y,1/2-z
1/2-x,1/2+y,1/2+z
x,1/2-y,z
loop_
_atom_site_type_symbol
_atom_site_label
_atom_site_fract_x
_atom_site_fract_y
_atom_site_fract_z
Si Si1 0.010531 0.155238 0.352411
Si Si2 0.460641 0.750000 0.091713
Si Si3 0.885572 0.529931 0.591207
Si Si4 0.200040 0.150966 0.090305
Si Si5 0.362148 0.981962 0.572092
Si Si6 0.734656 0.250000 0.640270
O O1 0.044554 0.196966 0.483341
O O2 0.068951 0.094237 0.391989
O O3 0.087847 0.170818 0.204874
O O4 0.849435 0.153056 0.340278
O O5 0.606562 0.750000 0.165141
O O6 0.348032 0.750000 0.212558
O O7 0.868553 0.507632 0.755306
O O8 0.750959 0.518944 0.504191
O O9 0.000000 0.500000 0.500000
O O10 0.169681 0.085225 0.051610
O O11 0.202314 0.194198 0.955808
O O12 0.500000 0.000000 0.500000
#
# Coordination Sequence:
#
# PCOD9466649 Si02
#       6
#     8   4   8   8   8   4
#     4  10  22  40  64  87 121 160 203 247 301 364
#     4  10  23  42  60  92 122 156 199 256 306 354
#     4  11  22  41  61  90 127 160 205 254 299 367
#     4  10  22  41  63  89 119 160 205 245 300 369
#     4  11  24  39  63  92 124 166 208 250 309 362
#     4  10  23  42  62  90 124 154 201 254 304 358
#
# _framework density 18.323986999999999
#
# number of rings (size 3 to 8) (size 9 to 14) (size 15 to 20)
#    0.000    1.600    2.000    1.800    8.400    4.800 
#    0.000    0.000    0.000    0.000    0.000    0.000 
#    0.000    0.000    0.000    0.000    0.000    0.000 
#
# Total GULP energy -223357.018880 kJ/mol
# GULP energy per Si atom -5583.925472 kJ/mol
# Density = 1.828228 g / cm^3
# Si number density = 18.323987 Si / 1000 Ang^3
#
#
#
# Elastic Constant Matrix: (Units=GPa)
#
#
# Indices 1 2 3 4 5 6 
#
# 1 109.5095 3.8718 34.5879 0.0000 0.0000 0.0000
# 2 3.8718 18.0097 12.5311 0.0000 0.0000 0.0000
# 3 34.5879 12.5311 79.8846 0.0000 0.0000 0.0000
# 4 0.0000 0.0000 0.0000 18.8119 0.0000 0.0000
# 5 0.0000 0.0000 0.0000 0.0000 48.7448 0.0000
# 6 0.0000 0.0000 0.0000 0.0000 0.0000 27.6975
#
#
#
# Elastic Compliance Matrix: (Units=1/GPa)
#
#
# Indices 1 2 3 4 5 6 
#
# 1 0.010595 0.001026 -0.004748 0.000000 0.000000 0.000000
# 2 0.001026 0.062428 -0.010237 0.000000 0.000000 0.000000
# 3 -0.004748 -0.010237 0.016180 0.000000 0.000000 0.000000
# 4 0.000000 0.000000 0.000000 0.053158 0.000000 0.000000
# 5 0.000000 0.000000 0.000000 0.000000 0.020515 0.000000
# 6 0.000000 0.000000 0.000000 0.000000 0.000000 0.036104
#
#
# Mechanical properties :
#
#
# Convention : Reuss Voigt Hill
#
# Bulk Modulus (GPa) = 16.31739 34.37615 25.34677
# Shear Modulus (GPa) = 20.21616 29.47835 24.84725
#
# Velocity S-wave (km/s) = 3.32514 4.01525 3.68638
# Velocity P-wave (km/s) = 4.86481 6.34801 5.65524
#
# Compressibility (1/GPa) = 0.06128431
#
# Stress axis : x y z
#
# Youngs Moduli (GPa) = 94.38333 16.01845 61.80541
#
# Poissons Ratio (x) = -0.01644 0.29347
# Poissons Ratio (y) = -0.09685 0.63271
# Poissons Ratio (z) = 0.44817 0.16398
#
# Static dielectric constant tensor:
#      x y z
#    x 1.600880 0.000000 0.000000 
#    y 0.000000 1.608930 0.000000 
#    z 0.000000 0.000000 1.658600 
# 
# From -- ./inp_files/4321.got.cif
#   From: 2010.05.17/outbox.cif.g08.bks.cpg/sg62_3_cif.got.tgz:4321.got - 2010.06.03 15:25:27.
