data_PCOD9466458
_publ_section_title
;
Structure prediction by ZEFSAII (Michael W. Deem and Ramdas Pophale) SiO2 
 PCOD9466458
Probable space group: P N M A
;
_chemical_formula_sum "Si O2"
_cell_formula_units_Z 56
_cell_length_a 10.793431
_cell_length_b 22.779954
_cell_length_c 11.903594
_cell_angle_alpha 90.000000
_cell_angle_beta 90.000000
_cell_angle_gamma 90.000000
_cell_volume 2926.782625
_symmetry_space_group_name_H-M "P N M A"
_symmetry_group_IT_number 62
_symmetry_cell_setting 'orthorhombic'
loop_
_space_group_symop_operation_xyz
x,y,z
1/2-x,-y,1/2+z
1/2+x,1/2-y,1/2-z
-x,1/2+y,-z
-x,-y,-z
1/2+x,y,1/2-z
1/2-x,1/2+y,1/2+z
x,1/2-y,z
loop_
_atom_site_type_symbol
_atom_site_label
_atom_site_fract_x
_atom_site_fract_y
_atom_site_fract_z
Si Si1 0.617260 0.085196 0.684833
Si Si2 0.013327 0.183969 0.978597
Si Si3 0.836973 0.057780 0.511068
Si Si4 0.287841 0.369944 0.393598
Si Si5 0.989750 0.470970 0.124442
Si Si6 0.879894 0.928184 0.430547
Si Si7 0.693198 0.128566 0.346546
O O1 0.544982 0.136026 0.617483
O O2 0.731709 0.066387 0.605534
O O3 0.659141 0.098261 0.810691
O O4 0.531193 0.027688 0.699811
O O5 0.020369 0.250000 0.935823
O O6 0.114565 0.172860 0.076900
O O7 0.881805 0.171253 0.037745
O O8 0.810659 0.106357 0.416619
O O9 0.972676 0.066818 0.559918
O O10 0.828454 0.993712 0.454159
O O11 0.371441 0.428256 0.371617
O O12 0.174687 0.388158 0.471672
O O13 0.235425 0.349377 0.274253
O O14 0.104574 0.429748 0.158202
O O15 0.000000 0.500000 0.000000
#
# Coordination Sequence:
#
# PCOD9466458 Si02
#       7
#     8   8   8   8   8   8   8
#     4  11  22  39  62  86 128 164 203 254 309 368
#     4  10  24  45  66  86 113 167 222 257 306 359
#     4  10  22  36  54  94 130 159 195 241 309 382
#     4  11  22  37  63  93 125 157 199 255 312 377
#     4  11  18  35  57  90 123 162 194 238 311 380
#     4  11  24  33  58  93 130 161 194 244 307 380
#     4  10  22  37  63  90 126 157 202 255 313 369
#
# _framework density 19.133637
#
# number of rings (size 3 to 8) (size 9 to 14) (size 15 to 20)
#    0.000    1.429    5.714    0.857   10.000    0.571 
#    0.000    0.714    0.000    0.857    0.000    0.000 
#    0.000    0.000    0.000    0.000    0.000    0.000 
#
# Total GULP energy -312644.959393 kJ/mol
# GULP energy per Si atom -5582.945703 kJ/mol
# Density = 1.909009 g / cm^3
# Si number density = 19.133637 Si / 1000 Ang^3
#
#
#
# Elastic Constant Matrix: (Units=GPa)
#
#
# Indices 1 2 3 4 5 6 
#
# 1 64.9120 20.1223 23.3134 0.0000 0.0000 0.0000
# 2 20.1223 72.1058 1.5282 0.0000 0.0000 0.0000
# 3 23.3134 1.5282 107.9930 0.0000 0.0000 0.0000
# 4 0.0000 0.0000 0.0000 8.7203 0.0000 0.0000
# 5 0.0000 0.0000 0.0000 0.0000 15.9028 0.0000
# 6 0.0000 0.0000 0.0000 0.0000 0.0000 6.7890
#
#
#
# Elastic Compliance Matrix: (Units=1/GPa)
#
#
# Indices 1 2 3 4 5 6 
#
# 1 0.018367 -0.005043 -0.003894 0.000000 0.000000 0.000000
# 2 -0.005043 0.015257 0.000873 0.000000 0.000000 0.000000
# 3 -0.003894 0.000873 0.010088 0.000000 0.000000 0.000000
# 4 0.000000 0.000000 0.000000 0.114675 0.000000 0.000000
# 5 0.000000 0.000000 0.000000 0.000000 0.062882 0.000000
# 6 0.000000 0.000000 0.000000 0.000000 0.000000 0.147297
#
#
# Mechanical properties :
#
#
# Convention : Reuss Voigt Hill
#
# Bulk Modulus (GPa) = 36.25217 37.21539 36.73378
# Shear Modulus (GPa) = 12.69392 19.61888 16.15640
#
# Velocity S-wave (km/s) = 2.57852 3.20560 2.90900
# Velocity P-wave (km/s) = 5.27759 5.76139 5.52479
#
# Compressibility (1/GPa) = 0.02758456
#
# Stress axis : x y z
#
# Youngs Moduli (GPa) = 54.44464 65.54196 99.12682
#
# Poissons Ratio (x) = 0.33054 0.38597
# Poissons Ratio (y) = 0.27457 -0.08652
# Poissons Ratio (z) = 0.21199 -0.05721
#
# Static dielectric constant tensor:
#      x y z
#    x 1.688890 0.000000 0.000000 
#    y 0.000000 1.659320 0.000000 
#    z 0.000000 0.000000 1.708250 
# 
# From -- ./inp_files/12425.got.cif
#   From: 2010.05.17/outbox.cif.g08.bks.cpg/sg62_7_cif.got.tgz:12425.got - 2010.06.03 15:25:27.
