data_PCOD9466552
_publ_section_title
;
Structure prediction by ZEFSAII (Michael W. Deem and Ramdas Pophale) SiO2 
 PCOD9466552
Probable space group: P N M A
;
_chemical_formula_sum "Si O2"
_cell_formula_units_Z 64
_cell_length_a 10.146058
_cell_length_b 30.653082
_cell_length_c 9.012545
_cell_angle_alpha 90.000000
_cell_angle_beta 90.000000
_cell_angle_gamma 90.000000
_cell_volume 2802.973125
_symmetry_space_group_name_H-M "P N M A"
_symmetry_group_IT_number 62
_symmetry_cell_setting 'orthorhombic'
loop_
_space_group_symop_operation_xyz
x,y,z
1/2-x,-y,1/2+z
1/2+x,1/2-y,1/2-z
-x,1/2+y,-z
-x,-y,-z
1/2+x,y,1/2-z
1/2-x,1/2+y,1/2+z
x,1/2-y,z
loop_
_atom_site_type_symbol
_atom_site_label
_atom_site_fract_x
_atom_site_fract_y
_atom_site_fract_z
Si Si1 0.035242 0.635994 0.041894
Si Si2 0.243355 0.487486 0.611456
Si Si3 0.299062 0.800125 0.545980
Si Si4 0.968651 0.103788 0.362015
Si Si5 0.416885 0.982605 0.859897
Si Si6 0.138023 0.634046 0.358145
Si Si7 0.757900 0.851774 0.693470
Si Si8 0.349582 0.560450 0.388260
O O1 0.066394 0.646792 0.210233
O O2 0.976421 0.586365 0.046805
O O3 0.169848 0.643428 0.951961
O O4 0.926631 0.669370 0.979750
O O5 0.205890 0.461945 0.459324
O O6 0.365757 0.487772 0.726432
O O7 0.275149 0.533560 0.521426
O O8 0.140488 0.471072 0.742232
O O9 0.320426 0.750000 0.509056
O O10 0.188521 0.823300 0.444436
O O11 0.257939 0.806203 0.718204
O O12 0.000703 0.057041 0.297963
O O13 0.091645 0.133944 0.321495
O O14 0.959251 0.106190 0.538380
O O15 0.825910 0.117970 0.305738
O O16 0.500000 0.000000 0.000000
O O17 0.258859 0.600793 0.333114
#
# Coordination Sequence:
#
# PCOD9466552 Si02
#       8
#     8   8   8   8   8   8   8   8
#     4  11  23  43  72 102 140 186 239 285 362 422
#     4  10  22  39  60  91 130 178 237 288 356 390
#     4  10  24  47  71 105 145 177 227 292 355 433
#     4  11  23  42  69  95 135 180 238 287 349 417
#     4  11  24  39  60  87 132 178 232 298 349 410
#     4  10  24  42  72  98 141 184 231 290 355 429
#     4  11  24  43  71 106 128 187 232 289 345 431
#     4  10  22  43  63 100 139 191 238 300 346 415
#
# _framework density 22.832896999999999
#
# number of rings (size 3 to 8) (size 9 to 14) (size 15 to 20)
#    0.000    1.500    1.250    3.000   10.500    1.000 
#    0.000    1.875    0.000    0.000    0.000    0.000 
#    0.000    0.000    0.000    0.000    0.000    0.000 
#
# Total GULP energy -356483.100955 kJ/mol
# GULP energy per Si atom -5570.048452 kJ/mol
# Density = 2.278093 g / cm^3
# Si number density = 22.832897 Si / 1000 Ang^3
#
#
#
# Elastic Constant Matrix: (Units=GPa)
#
#
# Indices 1 2 3 4 5 6 
#
# 1 58.9630 7.3390 23.9602 0.0000 0.0000 0.0000
# 2 7.3390 80.6045 18.9244 0.0000 0.0000 0.0000
# 3 23.9602 18.9244 89.1380 0.0000 0.0000 0.0000
# 4 0.0000 0.0000 0.0000 22.3798 0.0000 0.0000
# 5 0.0000 0.0000 0.0000 0.0000 27.8171 0.0000
# 6 0.0000 0.0000 0.0000 0.0000 0.0000 15.2535
#
#
#
# Elastic Compliance Matrix: (Units=1/GPa)
#
#
# Indices 1 2 3 4 5 6 
#
# 1 0.019063 -0.000561 -0.005005 0.000000 0.000000 0.000000
# 2 -0.000561 0.013074 -0.002625 0.000000 0.000000 0.000000
# 3 -0.005005 -0.002625 0.013121 0.000000 0.000000 0.000000
# 4 0.000000 0.000000 0.000000 0.044683 0.000000 0.000000
# 5 0.000000 0.000000 0.000000 0.000000 0.035949 0.000000
# 6 0.000000 0.000000 0.000000 0.000000 0.000000 0.065559
#
#
# Mechanical properties :
#
#
# Convention : Reuss Voigt Hill
#
# Bulk Modulus (GPa) = 34.62977 36.57251 35.60114
# Shear Modulus (GPa) = 22.99311 24.98887 23.99099
#
# Velocity S-wave (km/s) = 3.17680 3.31180 3.24500
# Velocity P-wave (km/s) = 5.35309 5.53861 5.44664
#
# Compressibility (1/GPa) = 0.02887689
#
# Stress axis : x y z
#
# Youngs Moduli (GPa) = 52.45630 76.49020 76.21236
#
# Poissons Ratio (x) = 0.04288 0.38146
# Poissons Ratio (y) = 0.02941 0.20005
# Poissons Ratio (z) = 0.26256 0.20078
#
# Static dielectric constant tensor:
#      x y z
#    x 2.042130 0.000000 0.000000 
#    y 0.000000 1.849340 0.000000 
#    z 0.000000 0.000000 1.928310 
# 
# From -- ./inp_files/5526.got.cif
#   From: 2010.05.17/outbox.cif.g08.bks.cpg/sg62_3_cif.got.tgz:5526.got - 2010.06.03 15:25:27.
