data_PCOD9466669
_publ_section_title
;
Structure prediction by ZEFSAII (Michael W. Deem and Ramdas Pophale) SiO2 
 PCOD9466669
Probable space group: P N M A
;
_chemical_formula_sum "Si O2"
_cell_formula_units_Z 48
_cell_length_a 8.987816
_cell_length_b 26.359199
_cell_length_c 9.889046
_cell_angle_alpha 90.000000
_cell_angle_beta 90.000000
_cell_angle_gamma 90.000000
_cell_volume 2342.830012
_symmetry_space_group_name_H-M "P N M A"
_symmetry_group_IT_number 62
_symmetry_cell_setting 'orthorhombic'
loop_
_space_group_symop_operation_xyz
x,y,z
1/2-x,-y,1/2+z
1/2+x,1/2-y,1/2-z
-x,1/2+y,-z
-x,-y,-z
1/2+x,y,1/2-z
1/2-x,1/2+y,1/2+z
x,1/2-y,z
loop_
_atom_site_type_symbol
_atom_site_label
_atom_site_fract_x
_atom_site_fract_y
_atom_site_fract_z
Si Si1 0.310587 0.100669 0.467006
Si Si2 0.807767 0.037974 0.290498
Si Si3 0.957585 0.031974 0.815322
Si Si4 0.534784 0.909859 0.037749
Si Si5 0.039630 0.808096 0.096402
Si Si6 0.187876 0.690807 0.392762
O O1 0.307442 0.084489 0.312041
O O2 0.419286 0.064292 0.553589
O O3 0.143253 0.093817 0.522912
O O4 0.374642 0.155885 0.494170
O O5 0.899369 0.052851 0.423397
O O6 0.644796 0.017952 0.322095
O O7 0.880498 0.990560 0.210889
O O8 0.927260 0.067023 0.684404
O O9 0.606471 0.853863 0.025258
O O10 0.050280 0.750000 0.053300
O O11 0.864439 0.820332 0.110669
O O12 0.118634 0.812630 0.242311
O O13 0.167297 0.750000 0.436742
#
# Coordination Sequence:
#
# PCOD9466669 Si02
#       6
#     8   8   8   8   8   8
#     4  12  25  42  66  95 126 171 212 260 319 372
#     4  12  26  43  62  90 134 171 210 260 312 375
#     4  12  24  43  64  92 126 173 212 262 308 370
#     4  12  25  43  64  96 129 166 215 262 315 374
#     4  10  22  40  65  96 125 161 209 260 316 376
#     4  10  22  40  65  95 126 161 207 263 315 372
#
# _framework density 20.488040999999999
#
# number of rings (size 3 to 8) (size 9 to 14) (size 15 to 20)
#    0.000    0.667    5.000    3.000    4.667    2.000 
#    0.000    0.833    0.000    0.000    0.000    0.000 
#    0.000    0.000    0.000    0.000    0.000    0.000 
#
# Total GULP energy -268450.803109 kJ/mol
# GULP energy per Si atom -5592.725065 kJ/mol
# Density = 2.044141 g / cm^3
# Si number density = 20.488041 Si / 1000 Ang^3
#
#
#
# Elastic Constant Matrix: (Units=GPa)
#
#
# Indices 1 2 3 4 5 6 
#
# 1 82.6050 24.8718 4.1659 0.0000 0.0000 0.0000
# 2 24.8718 66.5025 20.7432 0.0000 0.0000 0.0000
# 3 4.1659 20.7432 40.4081 0.0000 0.0000 0.0000
# 4 0.0000 0.0000 0.0000 8.5439 0.0000 0.0000
# 5 0.0000 0.0000 0.0000 0.0000 21.4813 0.0000
# 6 0.0000 0.0000 0.0000 0.0000 0.0000 41.2791
#
#
#
# Elastic Compliance Matrix: (Units=1/GPa)
#
#
# Indices 1 2 3 4 5 6 
#
# 1 0.013713 -0.005581 0.001451 0.000000 0.000000 0.000000
# 2 -0.005581 0.020175 -0.009782 0.000000 0.000000 0.000000
# 3 0.001451 -0.009782 0.029619 0.000000 0.000000 0.000000
# 4 0.000000 0.000000 0.000000 0.117043 0.000000 0.000000
# 5 0.000000 0.000000 0.000000 0.000000 0.046552 0.000000
# 6 0.000000 0.000000 0.000000 0.000000 0.000000 0.024225
#
#
# Mechanical properties :
#
#
# Convention : Reuss Voigt Hill
#
# Bulk Modulus (GPa) = 28.02318 32.11971 30.07145
# Shear Modulus (GPa) = 17.17942 23.57649 20.37796
#
# Velocity S-wave (km/s) = 2.89884 3.39594 3.15719
# Velocity P-wave (km/s) = 4.99118 5.57565 5.29149
#
# Compressibility (1/GPa) = 0.03568474
#
# Stress axis : x y z
#
# Youngs Moduli (GPa) = 72.92280 49.56509 33.76191
#
# Poissons Ratio (x) = 0.27664 -0.04900
# Poissons Ratio (y) = 0.40701 0.33024
# Poissons Ratio (z) = -0.10584 0.48482
#
# Static dielectric constant tensor:
#      x y z
#    x 1.705520 0.000000 0.000000 
#    y 0.000000 1.750800 0.000000 
#    z 0.000000 0.000000 1.713010 
# 
# From -- ./inp_files/4513.got.cif
#   From: 2010.05.17/outbox.cif.g08.bks.cpg/sg62_3_cif.got.tgz:4513.got - 2010.06.03 15:25:27.
