data_PCOD9466312
_publ_section_title
;
Structure prediction by ZEFSAII (Michael W. Deem and Ramdas Pophale) SiO2 
 PCOD9466312
Probable space group: P N M A
;
_chemical_formula_sum "Si O2"
_cell_formula_units_Z 48
_cell_length_a 11.867581
_cell_length_b 15.087209
_cell_length_c 14.128810
_cell_angle_alpha 90.000000
_cell_angle_beta 90.000000
_cell_angle_gamma 90.000000
_cell_volume 2529.744708
_symmetry_space_group_name_H-M "P N M A"
_symmetry_group_IT_number 62
_symmetry_cell_setting 'orthorhombic'
loop_
_space_group_symop_operation_xyz
x,y,z
1/2-x,-y,1/2+z
1/2+x,1/2-y,1/2-z
-x,1/2+y,-z
-x,-y,-z
1/2+x,y,1/2-z
1/2-x,1/2+y,1/2+z
x,1/2-y,z
loop_
_atom_site_type_symbol
_atom_site_label
_atom_site_fract_x
_atom_site_fract_y
_atom_site_fract_z
Si Si1 0.564178 0.647507 0.375742
Si Si2 0.467784 0.086380 0.821263
Si Si3 0.924591 0.250000 0.391971
Si Si4 0.910724 0.750000 0.004635
Si Si5 0.613845 0.389812 0.143530
Si Si6 0.811468 0.643228 0.436118
Si Si7 0.192394 0.250000 0.205006
Si Si8 0.327565 0.250000 0.897916
O O1 0.576038 0.750000 0.342442
O O2 0.507180 0.595732 0.290367
O O3 0.487011 0.664165 0.468207
O O4 0.689916 0.614321 0.396529
O O5 0.581064 0.101883 0.882432
O O6 0.376648 0.162572 0.847520
O O7 0.413512 0.991458 0.839699
O O8 0.822701 0.250000 0.320139
O O9 0.881407 0.250000 0.498139
O O10 0.999309 0.163462 0.377498
O O11 0.871873 0.750000 0.896193
O O12 0.805661 0.750000 0.078693
O O13 0.664802 0.336306 0.231999
O O14 0.684697 0.378079 0.047463
O O15 0.820641 0.750000 0.425618
#
# Coordination Sequence:
#
# PCOD9466312 Si02
#       8
#     8   8   4   4   8   8   4   4
#     4   9  22  38  63  89 122 169 206 248 317 377
#     4  12  22  37  63 100 126 161 209 263 315 373
#     4  10  21  41  62  91 117 169 211 263 315 370
#     4   9  22  42  64  84 127 169 202 255 316 374
#     4  11  23  40  64  95 124 162 220 262 310 380
#     4  11  20  39  66  89 124 166 214 260 314 372
#     4  10  23  44  63  88 127 170 209 258 326 371
#     4  11  20  37  65  85 129 160 200 264 315 367
#
# _framework density 18.974246999999998
#
# number of rings (size 3 to 8) (size 9 to 14) (size 15 to 20)
#    0.500    1.000    5.000    0.500    2.333    4.000 
#    3.000    0.833    0.000    0.000    0.000    0.000 
#    0.000    0.000    0.000    0.000    0.000    0.000 
#
# Total GULP energy -267657.563169 kJ/mol
# GULP energy per Si atom -5576.199233 kJ/mol
# Density = 1.893106 g / cm^3
# Si number density = 18.974247 Si / 1000 Ang^3
#
#
#
# Elastic Constant Matrix: (Units=GPa)
#
#
# Indices 1 2 3 4 5 6 
#
# 1 62.8196 10.0230 20.8673 0.0000 0.0000 0.0000
# 2 10.0230 96.5064 10.0705 0.0000 0.0000 0.0000
# 3 20.8673 10.0705 83.4748 0.0000 0.0000 0.0000
# 4 0.0000 0.0000 0.0000 5.9347 0.0000 0.0000
# 5 0.0000 0.0000 0.0000 0.0000 16.1010 0.0000
# 6 0.0000 0.0000 0.0000 0.0000 0.0000 -38.3241
#
#
#
# Elastic Compliance Matrix: (Units=1/GPa)
#
#
# Indices 1 2 3 4 5 6 
#
# 1 0.017540 -0.001382 -0.004218 0.000000 0.000000 0.000000
# 2 -0.001382 0.010603 -0.000934 0.000000 0.000000 0.000000
# 3 -0.004218 -0.000934 0.013147 0.000000 0.000000 0.000000
# 4 0.000000 0.000000 0.000000 0.168500 0.000000 0.000000
# 5 0.000000 0.000000 0.000000 0.000000 0.062108 0.000000
# 6 0.000000 0.000000 0.000000 0.000000 0.000000 -0.026093
#
#
# Mechanical properties :
#
#
# Convention : Reuss Voigt Hill
#
# Bulk Modulus (GPa) = 35.43202 36.08028 35.75615
# Shear Modulus (GPa) = 18.63732 10.19832 14.41782
#
# Velocity S-wave (km/s) = 3.13748 2.32088 2.75955
# Velocity P-wave (km/s) = 5.64263 5.12237 5.38878
#
# Compressibility (1/GPa) = 0.02822306
#
# Stress axis : x y z
#
# Youngs Moduli (GPa) = 57.01200 94.31350 76.06439
#
# Poissons Ratio (x) = 0.13030 0.32084
# Poissons Ratio (y) = 0.07876 0.07103
# Poissons Ratio (z) = 0.24048 0.08807
#
# Static dielectric constant tensor:
#      x y z
#    x 1.692580 0.000000 0.000000 
#    y 0.000000 1.662690 0.000000 
#    z 0.000000 0.000000 1.686650 
# 
# From -- ./inp_files/18040.got.cif
#   From: 2010.05.17/outbox.cif.g08.bks.cpg/sg62_10_cif.got.tgz:18040.got - 2010.06.03 15:25:27.
