data_PCOD9466057
_publ_section_title
;
Structure prediction by ZEFSAII (Michael W. Deem and Ramdas Pophale) SiO2 
 PCOD9466057
Probable space group: P N M A
;
_chemical_formula_sum "Si O2"
_cell_formula_units_Z 48
_cell_length_a 9.931736
_cell_length_b 16.315455
_cell_length_c 13.914220
_cell_angle_alpha 90.000000
_cell_angle_beta 90.000000
_cell_angle_gamma 90.000000
_cell_volume 2254.671226
_symmetry_space_group_name_H-M "P N M A"
_symmetry_group_IT_number 62
_symmetry_cell_setting 'orthorhombic'
loop_
_space_group_symop_operation_xyz
x,y,z
1/2-x,-y,1/2+z
1/2+x,1/2-y,1/2-z
-x,1/2+y,-z
-x,-y,-z
1/2+x,y,1/2-z
1/2-x,1/2+y,1/2+z
x,1/2-y,z
loop_
_atom_site_type_symbol
_atom_site_label
_atom_site_fract_x
_atom_site_fract_y
_atom_site_fract_z
Si Si1 0.463986 0.572071 0.751248
Si Si2 0.816175 0.422369 0.952504
Si Si3 0.683374 0.658635 0.079068
Si Si4 0.938221 0.848499 0.549336
Si Si5 0.583856 0.389050 0.458157
Si Si6 0.715244 0.041890 0.746374
O O1 0.466684 0.620551 0.650886
O O2 0.314387 0.535788 0.759633
O O3 0.565669 0.494919 0.743873
O O4 0.491926 0.622921 0.847044
O O5 0.702674 0.392022 0.025676
O O6 0.858913 0.517416 0.965889
O O7 0.753201 0.414957 0.846736
O O8 0.956340 0.376583 0.972409
O O9 0.659670 0.750000 0.117493
O O10 0.545325 0.626309 0.032802
O O11 0.747924 0.601057 0.159169
O O12 0.790095 0.662497 0.992290
O O13 0.924803 0.750000 0.546799
#
# Coordination Sequence:
#
# PCOD9466057 Si02
#       6
#     8   8   8   8   8   8
#     4  11  22  38  63  90 116 155 204 247 295 357
#     4  10  21  39  63  89 117 153 202 248 297 360
#     4  11  24  40  58  85 122 159 197 249 310 364
#     4  11  24  40  60  90 127 162 198 250 314 373
#     4  10  21  39  61  87 118 155 202 250 293 355
#     4  11  22  38  63  89 116 155 201 251 297 353
#
# _framework density 21.289134000000001
#
# number of rings (size 3 to 8) (size 9 to 14) (size 15 to 20)
#    0.000    1.333    0.000    8.000    0.000    4.000 
#    0.000    8.333    0.000    0.000    0.000    0.000 
#    0.000    0.000    0.000    0.000    0.000    0.000 
#
# Total GULP energy -268275.329509 kJ/mol
# GULP energy per Si atom -5589.069365 kJ/mol
# Density = 2.124068 g / cm^3
# Si number density = 21.289134 Si / 1000 Ang^3
#
#
#
# Elastic Constant Matrix: (Units=GPa)
#
#
# Indices 1 2 3 4 5 6 
#
# 1 96.2166 5.6402 18.0461 0.0000 0.0000 0.0000
# 2 5.6402 26.3424 26.1587 0.0000 0.0000 0.0000
# 3 18.0461 26.1587 120.0714 0.0000 0.0000 0.0000
# 4 0.0000 0.0000 0.0000 25.9196 0.0000 0.0000
# 5 0.0000 0.0000 0.0000 0.0000 33.9824 0.0000
# 6 0.0000 0.0000 0.0000 0.0000 0.0000 -12.0234
#
#
#
# Elastic Compliance Matrix: (Units=1/GPa)
#
#
# Indices 1 2 3 4 5 6 
#
# 1 0.010711 -0.000887 -0.001417 0.000000 0.000000 0.000000
# 2 -0.000887 0.048515 -0.010436 0.000000 0.000000 0.000000
# 3 -0.001417 -0.010436 0.010815 0.000000 0.000000 0.000000
# 4 0.000000 0.000000 0.000000 0.038581 0.000000 0.000000
# 5 0.000000 0.000000 0.000000 0.000000 0.029427 0.000000
# 6 0.000000 0.000000 0.000000 0.000000 0.000000 -0.083171
#
#
# Mechanical properties :
#
#
# Convention : Reuss Voigt Hill
#
# Bulk Modulus (GPa) = 22.44070 38.03560 30.23815
# Shear Modulus (GPa) = 52.51562 22.42808 37.47185
#
# Velocity S-wave (km/s) = 4.97206 3.24929 4.19995
# Velocity P-wave (km/s) = 6.59739 5.65527 6.14442
#
# Compressibility (1/GPa) = 0.04456188
#
# Stress axis : x y z
#
# Youngs Moduli (GPa) = 93.36288 20.61226 92.46501
#
# Poissons Ratio (x) = 0.01827 0.13099
# Poissons Ratio (y) = 0.08277 0.96498
# Poissons Ratio (z) = 0.13226 0.21511
#
# Static dielectric constant tensor:
#      x y z
#    x 1.726770 0.000000 0.000000 
#    y 0.000000 1.768010 0.000000 
#    z 0.000000 0.000000 1.802790 
# 
# From -- ./inp_files/16959.got.cif
#   From: 2010.05.17/outbox.cif.g08.bks.cpg/sg62_9_cif.got.tgz:16959.got - 2010.06.03 15:25:27.
