data_PCOD9466215
_publ_section_title
;
Structure prediction by ZEFSAII (Michael W. Deem and Ramdas Pophale) SiO2 
 PCOD9466215
Probable space group: P N M A
;
_chemical_formula_sum "Si O2"
_cell_formula_units_Z 48
_cell_length_a 18.981770
_cell_length_b 8.763548
_cell_length_c 15.170912
_cell_angle_alpha 90.000000
_cell_angle_beta 90.000000
_cell_angle_gamma 90.000000
_cell_volume 2523.645598
_symmetry_space_group_name_H-M "P N M A"
_symmetry_group_IT_number 62
_symmetry_cell_setting 'orthorhombic'
loop_
_space_group_symop_operation_xyz
x,y,z
1/2-x,-y,1/2+z
1/2+x,1/2-y,1/2-z
-x,1/2+y,-z
-x,-y,-z
1/2+x,y,1/2-z
1/2-x,1/2+y,1/2+z
x,1/2-y,z
loop_
_atom_site_type_symbol
_atom_site_label
_atom_site_fract_x
_atom_site_fract_y
_atom_site_fract_z
Si Si1 0.176744 0.566476 0.346091
Si Si2 0.086133 0.066900 0.750317
Si Si3 0.711273 0.433034 0.500572
Si Si4 0.235724 0.568059 0.693897
Si Si5 0.563146 0.931759 0.557787
Si Si6 0.979537 0.066211 0.594422
O O1 0.177088 0.750000 0.332955
O O2 0.233733 0.530770 0.421829
O O3 0.201594 0.485019 0.257549
O O4 0.099188 0.520351 0.377445
O O5 0.085377 0.250000 0.758815
O O6 0.034571 0.021294 0.670463
O O7 0.164646 0.012433 0.726783
O O8 0.062071 0.995308 0.842582
O O9 0.698844 0.250000 0.502382
O O10 0.745398 0.471797 0.406560
O O11 0.637884 0.516524 0.517168
O O12 0.226147 0.750000 0.699578
O O13 0.558241 0.750000 0.558945
O O14 0.500000 0.000000 0.500000
O O15 0.980531 0.250000 0.588269
O O16 0.000000 0.000000 0.500000
#
# Coordination Sequence:
#
# PCOD9466215 Si02
#       6
#     8   8   8   8   8   8
#     4  10  21  40  63  89 125 165 204 256 313 368
#     4  11  23  42  65  94 132 171 210 257 317 378
#     4  10  22  41  64  91 127 164 206 260 316 373
#     4  11  23  39  63  95 124 162 211 258 311 372
#     4  12  26  43  65  92 126 168 215 265 319 381
#     4  10  23  41  64  94 127 167 209 256 312 372
#
# _framework density 19.020102999999999
#
# number of rings (size 3 to 8) (size 9 to 14) (size 15 to 20)
#    0.000    1.333    1.667    3.500    2.333    4.667 
#    0.000    0.000    0.000    0.000    0.000    0.000 
#    0.000    0.000    0.000    0.000    0.000    0.000 
#
# Total GULP energy -268464.962978 kJ/mol
# GULP energy per Si atom -5593.020062 kJ/mol
# Density = 1.897681 g / cm^3
# Si number density = 19.020103 Si / 1000 Ang^3
#
#
#
# Elastic Constant Matrix: (Units=GPa)
#
#
# Indices 1 2 3 4 5 6 
#
# 1 105.3928 31.1072 30.2595 0.0000 0.0000 0.0000
# 2 31.1072 49.1380 41.7140 0.0000 0.0000 0.0000
# 3 30.2595 41.7140 121.8973 0.0000 0.0000 0.0000
# 4 0.0000 0.0000 0.0000 30.7772 0.0000 0.0000
# 5 0.0000 0.0000 0.0000 0.0000 37.3123 0.0000
# 6 0.0000 0.0000 0.0000 0.0000 0.0000 26.9445
#
#
#
# Elastic Compliance Matrix: (Units=1/GPa)
#
#
# Indices 1 2 3 4 5 6 
#
# 1 0.011692 -0.006960 -0.000521 0.000000 0.000000 0.000000
# 2 -0.006960 0.032826 -0.009506 0.000000 0.000000 0.000000
# 3 -0.000521 -0.009506 0.011586 0.000000 0.000000 0.000000
# 4 0.000000 0.000000 0.000000 0.032492 0.000000 0.000000
# 5 0.000000 0.000000 0.000000 0.000000 0.026801 0.000000
# 6 0.000000 0.000000 0.000000 0.000000 0.000000 0.037113
#
#
# Mechanical properties :
#
#
# Convention : Reuss Voigt Hill
#
# Bulk Modulus (GPa) = 45.18374 53.62104 49.40239
# Shear Modulus (GPa) = 25.79192 30.56330 28.17761
#
# Velocity S-wave (km/s) = 3.68643 4.01296 3.85316
# Velocity P-wave (km/s) = 6.47511 7.05158 6.76948
#
# Compressibility (1/GPa) = 0.02213186
#
# Stress axis : x y z
#
# Youngs Moduli (GPa) = 85.52857 30.46347 86.31249
#
# Poissons Ratio (x) = 0.21201 0.04495
# Poissons Ratio (y) = 0.59525 0.82046
# Poissons Ratio (z) = 0.04454 0.28958
#
# Static dielectric constant tensor:
#      x y z
#    x 1.631720 0.000000 0.000000 
#    y 0.000000 1.645740 0.000000 
#    z 0.000000 0.000000 1.630400 
# 
# From -- ./inp_files/19645.got.cif
#   From: 2010.05.17/outbox.cif.g08.bks.cpg/sg62_10_cif.got.tgz:19645.got - 2010.06.03 15:25:27.
