data_PCOD9466895
_publ_section_title
;
Structure prediction by ZEFSAII (Michael W. Deem and Ramdas Pophale) SiO2 
 PCOD9466895
Probable space group: P N M A
;
_chemical_formula_sum "Si O2"
_cell_formula_units_Z 32
_cell_length_a 19.402899
_cell_length_b 11.179401
_cell_length_c 5.472121
_cell_angle_alpha 90.000000
_cell_angle_beta 90.000000
_cell_angle_gamma 90.000000
_cell_volume 1186.973025
_symmetry_space_group_name_H-M "P N M A"
_symmetry_group_IT_number 62
_symmetry_cell_setting 'orthorhombic'
loop_
_space_group_symop_operation_xyz
x,y,z
1/2-x,-y,1/2+z
1/2+x,1/2-y,1/2-z
-x,1/2+y,-z
-x,-y,-z
1/2+x,y,1/2-z
1/2-x,1/2+y,1/2+z
x,1/2-y,z
loop_
_atom_site_type_symbol
_atom_site_label
_atom_site_fract_x
_atom_site_fract_y
_atom_site_fract_z
Si Si1 0.957760 0.501330 0.252465
Si Si2 0.959097 0.250000 0.125100
Si Si3 0.650612 0.750000 0.268206
Si Si4 0.397242 0.750000 0.399575
Si Si5 0.704114 0.250000 0.982656
Si Si6 0.792592 0.500355 0.628840
O O1 0.926661 0.368706 0.238906
O O2 0.915879 0.622956 0.226778
O O3 0.000000 0.500000 0.500000
O O4 0.000000 0.500000 0.000000
O O5 0.928652 0.250000 0.852246
O O6 0.042985 0.250000 0.115165
O O7 0.712169 0.750000 0.477865
O O8 0.663440 0.619594 0.152890
O O9 0.316390 0.750000 0.308410
O O10 0.675799 0.366108 0.125671
O O11 0.754719 0.497904 0.368981
#
# Coordination Sequence:
#
# PCOD9466895 Si02
#       6
#     8   4   4   4   4   8
#     4  10  22  44  68  98 133 174 223 282 346 415
#     4  10  23  44  73 104 142 184 234 292 356 422
#     4  10  23  44  69 104 142 186 236 292 354 422
#     4  10  23  42  66  98 133 178 228 284 344 412
#     4  10  23  42  68  98 139 186 236 292 352 420
#     4  10  22  44  69 100 138 185 237 294 353 419
#
# _framework density 26.959333000000001
#
# number of rings (size 3 to 8) (size 9 to 14) (size 15 to 20)
#    0.000    2.000    0.000    1.500    0.000   12.000 
#    0.000   27.500    0.000    0.000    0.000    0.000 
#    0.000    0.000    0.000    0.000    0.000    0.000 
#
# Total GULP energy -178432.862597 kJ/mol
# GULP energy per Si atom -5576.026956 kJ/mol
# Density = 2.689797 g / cm^3
# Si number density = 26.959333 Si / 1000 Ang^3
#
#
#
# Elastic Constant Matrix: (Units=GPa)
#
#
# Indices 1 2 3 4 5 6 
#
# 1 76.3382 15.3313 30.3099 0.0000 0.0000 0.0000
# 2 15.3313 288.1124 10.0494 0.0000 0.0000 0.0000
# 3 30.3099 10.0494 102.8618 0.0000 0.0000 0.0000
# 4 0.0000 0.0000 0.0000 253.5029 0.0000 0.0000
# 5 0.0000 0.0000 0.0000 0.0000 48.3428 0.0000
# 6 0.0000 0.0000 0.0000 0.0000 0.0000 -37.1512
#
#
#
# Elastic Compliance Matrix: (Units=1/GPa)
#
#
# Indices 1 2 3 4 5 6 
#
# 1 0.014954 -0.000644 -0.004343 0.000000 0.000000 0.000000
# 2 -0.000644 0.003510 -0.000153 0.000000 0.000000 0.000000
# 3 -0.004343 -0.000153 0.011017 0.000000 0.000000 0.000000
# 4 0.000000 0.000000 0.000000 0.003945 0.000000 0.000000
# 5 0.000000 0.000000 0.000000 0.000000 0.020686 0.000000
# 6 0.000000 0.000000 0.000000 0.000000 0.000000 -0.026917
#
#
# Mechanical properties :
#
#
# Convention : Reuss Voigt Hill
#
# Bulk Modulus (GPa) = 52.08565 64.29930 58.19248
# Shear Modulus (GPa) = 113.96004 80.38034 97.17019
#
# Velocity S-wave (km/s) = 6.50868 5.46627 6.01012
# Velocity P-wave (km/s) = 8.70895 7.98389 8.35429
#
# Compressibility (1/GPa) = 0.01919915
#
# Stress axis : x y z
#
# Youngs Moduli (GPa) = 66.87394 284.86045 90.77228
#
# Poissons Ratio (x) = 0.18351 0.39426
# Poissons Ratio (y) = 0.04308 0.01390
# Poissons Ratio (z) = 0.29046 0.04362
#
# Static dielectric constant tensor:
#      x y z
#    x 2.112820 0.000000 0.000000 
#    y 0.000000 2.204040 0.000000 
#    z 0.000000 0.000000 2.310440 
# 
# From -- ./inp_files/2025.got.cif
#   From: 2010.05.17/outbox.cif.g08.bks.cpg/sg62_2_cif.got.tgz:2025.got - 2010.06.03 15:25:27.
