data_PCOD9466316
_publ_section_title
;
Structure prediction by ZEFSAII (Michael W. Deem and Ramdas Pophale) SiO2 
 PCOD9466316
Probable space group: P N M A
;
_chemical_formula_sum "Si O2"
_cell_formula_units_Z 64
_cell_length_a 31.456654
_cell_length_b 7.759902
_cell_length_c 12.196145
_cell_angle_alpha 90.000000
_cell_angle_beta 90.000000
_cell_angle_gamma 90.000000
_cell_volume 2977.085730
_symmetry_space_group_name_H-M "P N M A"
_symmetry_group_IT_number 62
_symmetry_cell_setting 'orthorhombic'
loop_
_space_group_symop_operation_xyz
x,y,z
1/2-x,-y,1/2+z
1/2+x,1/2-y,1/2-z
-x,1/2+y,-z
-x,-y,-z
1/2+x,y,1/2-z
1/2-x,1/2+y,1/2+z
x,1/2-y,z
loop_
_atom_site_type_symbol
_atom_site_label
_atom_site_fract_x
_atom_site_fract_y
_atom_site_fract_z
Si Si1 0.049537 0.955752 0.510895
Si Si2 0.578838 0.958105 0.223892
Si Si3 0.372475 0.453083 0.429588
Si Si4 0.691993 0.461408 0.992960
Si Si5 0.673733 0.047112 0.240057
Si Si6 0.455906 0.457139 0.556141
Si Si7 0.787129 0.448706 0.960307
Si Si8 0.879615 0.547186 0.321887
O O1 0.053493 0.750000 0.514054
O O2 0.070721 0.023937 0.398361
O O3 0.075567 0.022944 0.615344
O O4 0.000000 0.000000 0.500000
O O5 0.578031 0.750000 0.218051
O O6 0.546026 0.015497 0.317245
O O7 0.624605 0.015281 0.265827
O O8 0.370979 0.250000 0.458014
O O9 0.414676 0.523926 0.489523
O O10 0.327472 0.526369 0.474090
O O11 0.377331 0.469106 0.299078
O O12 0.690871 0.250000 0.989418
O O13 0.679967 0.514382 0.115944
O O14 0.740052 0.523107 0.973428
O O15 0.657421 0.520356 0.903537
O O16 0.683427 0.250000 0.244458
O O17 0.701113 0.955942 0.332500
O O18 0.500000 0.500000 0.500000
O O19 0.452715 0.250000 0.557527
O O20 0.783393 0.250000 0.997318
O O21 0.872670 0.750000 0.307227
#
# Coordination Sequence:
#
# PCOD9466316 Si02
#       8
#     8   8   8   8   8   8   8   8
#     4  11  24  41  64  92 121 158 203 246 297 356
#     4  10  21  41  64  86 116 157 199 241 295 360
#     4  10  22  40  61  85 118 159 200 244 296 358
#     4   9  21  39  60  87 120 159 196 243 303 352
#     4  11  21  37  62  91 119 150 199 253 298 350
#     4  10  22  40  60  87 117 152 196 242 297 353
#     4  10  21  41  63  84 120 163 199 245 304 360
#     4  11  23  41  61  86 124 161 198 247 299 356
#
# _framework density 21.497534999999999
#
# number of rings (size 3 to 8) (size 9 to 14) (size 15 to 20)
#    0.000    1.750    2.500    1.125    3.500    2.000 
#    0.000    1.875    0.000    0.000    0.000    0.000 
#    0.000    0.000    0.000    0.000    0.000    0.000 
#
# Total GULP energy -357446.317300 kJ/mol
# GULP energy per Si atom -5585.098708 kJ/mol
# Density = 2.144861 g / cm^3
# Si number density = 21.497535 Si / 1000 Ang^3
#
#
#
# Elastic Constant Matrix: (Units=GPa)
#
#
# Indices 1 2 3 4 5 6 
#
# 1 99.7105 -10.4997 19.8657 0.0000 0.0000 0.0000
# 2 -10.4997 29.6018 -9.0285 0.0000 0.0000 0.0000
# 3 19.8657 -9.0285 92.9354 0.0000 0.0000 0.0000
# 4 0.0000 0.0000 0.0000 18.0081 0.0000 0.0000
# 5 0.0000 0.0000 0.0000 0.0000 36.5529 0.0000
# 6 0.0000 0.0000 0.0000 0.0000 0.0000 15.5200
#
#
#
# Elastic Compliance Matrix: (Units=1/GPa)
#
#
# Indices 1 2 3 4 5 6 
#
# 1 0.010763 0.003211 -0.001989 0.000000 0.000000 0.000000
# 2 0.003211 0.035771 0.002789 0.000000 0.000000 0.000000
# 3 -0.001989 0.002789 0.011456 0.000000 0.000000 0.000000
# 4 0.000000 0.000000 0.000000 0.055530 0.000000 0.000000
# 5 0.000000 0.000000 0.000000 0.000000 0.027358 0.000000
# 6 0.000000 0.000000 0.000000 0.000000 0.000000 0.064433
#
#
# Mechanical properties :
#
#
# Convention : Reuss Voigt Hill
#
# Bulk Modulus (GPa) = 15.14851 24.76918 19.95885
# Shear Modulus (GPa) = 22.80041 28.81022 25.80532
#
# Velocity S-wave (km/s) = 3.26023 3.66480 3.46842
# Velocity P-wave (km/s) = 4.60804 5.42720 5.03431
#
# Compressibility (1/GPa) = 0.06601309
#
# Stress axis : x y z
#
# Youngs Moduli (GPa) = 92.90732 27.95536 87.28893
#
# Poissons Ratio (x) = -0.08977 0.17360
# Poissons Ratio (y) = -0.29834 -0.24342
# Poissons Ratio (z) = 0.18477 -0.07796
#
# Static dielectric constant tensor:
#      x y z
#    x 1.781260 0.000000 0.000000 
#    y 0.000000 1.822750 0.000000 
#    z 0.000000 0.000000 1.748300 
# 
# From -- ./inp_files/15923.got.cif
#   From: 2010.05.17/outbox.cif.g08.bks.cpg/sg62_8_cif.got.tgz:15923.got - 2010.06.03 15:25:27.
