data_PCOD9466041
_publ_section_title
;
Structure prediction by ZEFSAII (Michael W. Deem and Ramdas Pophale) SiO2 
 PCOD9466041
Probable space group: P N M A
;
_chemical_formula_sum "Si O2"
_cell_formula_units_Z 64
_cell_length_a 11.807364
_cell_length_b 9.117975
_cell_length_c 29.994014
_cell_angle_alpha 90.000000
_cell_angle_beta 90.000000
_cell_angle_gamma 90.000000
_cell_volume 3229.133045
_symmetry_space_group_name_H-M "P N M A"
_symmetry_group_IT_number 62
_symmetry_cell_setting 'orthorhombic'
loop_
_space_group_symop_operation_xyz
x,y,z
1/2-x,-y,1/2+z
1/2+x,1/2-y,1/2-z
-x,1/2+y,-z
-x,-y,-z
1/2+x,y,1/2-z
1/2-x,1/2+y,1/2+z
x,1/2-y,z
loop_
_atom_site_type_symbol
_atom_site_label
_atom_site_fract_x
_atom_site_fract_y
_atom_site_fract_z
Si Si1 0.030069 0.078305 0.824028
Si Si2 0.790572 0.421641 0.660017
Si Si3 0.511924 0.571290 0.225836
Si Si4 0.310446 0.575186 0.934610
Si Si5 0.623115 0.424285 0.391396
Si Si6 0.664488 0.077729 0.844773
Si Si7 0.211764 0.923742 0.023916
Si Si8 0.537781 0.417305 0.935477
O O1 0.999410 0.250000 0.830672
O O2 0.979893 0.024628 0.776963
O O3 0.165094 0.070186 0.820134
O O4 0.984997 0.986170 0.865430
O O5 0.815813 0.250000 0.650864
O O6 0.883265 0.476308 0.695294
O O7 0.790842 0.505754 0.613438
O O8 0.511872 0.750000 0.226517
O O9 0.395170 0.529683 0.200903
O O10 0.306704 0.750000 0.932686
O O11 0.437198 0.524813 0.948070
O O12 0.220382 0.528348 0.972528
O O13 0.624784 0.250000 0.392665
O O14 0.729979 0.485988 0.362736
O O15 0.635686 0.488627 0.441234
O O16 0.697675 0.250000 0.841751
O O17 0.567441 0.069543 0.882932
O O18 0.185271 0.750000 0.026545
O O19 0.341230 0.941167 0.041475
O O20 0.501995 0.250000 0.944614
#
# Coordination Sequence:
#
# PCOD9466041 Si02
#       8
#     8   8   8   8   8   8   8   8
#     4  10  22  39  64  87 110 151 199 245 286 338
#     4  10  21  39  60  87 118 150 194 241 288 342
#     4   9  18  35  62  90 112 144 194 241 279 333
#     4  11  21  33  54  84 118 155 191 238 295 349
#     4  11  23  38  57  84 119 153 190 240 296 350
#     4   9  17  33  58  84 114 151 190 236 279 329
#     4   9  20  37  56  80 112 154 203 242 282 341
#     4   9  16  30  52  79 115 152 185 235 285 333
#
# _framework density 19.819559999999999
#
# number of rings (size 3 to 8) (size 9 to 14) (size 15 to 20)
#    0.000    2.250    1.250    2.625    1.750    3.500 
#    0.000    1.875    0.000    0.000    0.000    0.000 
#    0.000    0.000    0.000    0.000    0.000    0.000 
#
# Total GULP energy -357258.235193 kJ/mol
# GULP energy per Si atom -5582.159925 kJ/mol
# Density = 1.977445 g / cm^3
# Si number density = 19.819560 Si / 1000 Ang^3
#
#
#
# Elastic Constant Matrix: (Units=GPa)
#
#
# Indices 1 2 3 4 5 6 
#
# 1 24.1042 4.7388 -5.0325 0.0000 0.0000 0.0000
# 2 4.7388 48.0744 20.9188 0.0000 0.0000 0.0000
# 3 -5.0325 20.9188 75.0723 0.0000 0.0000 0.0000
# 4 0.0000 0.0000 0.0000 17.8155 0.0000 0.0000
# 5 0.0000 0.0000 0.0000 0.0000 13.8480 0.0000
# 6 0.0000 0.0000 0.0000 0.0000 0.0000 17.0260
#
#
#
# Elastic Compliance Matrix: (Units=1/GPa)
#
#
# Indices 1 2 3 4 5 6 
#
# 1 0.043717 -0.006355 0.004701 0.000000 0.000000 0.000000
# 2 -0.006355 0.024595 -0.007279 0.000000 0.000000 0.000000
# 3 0.004701 -0.007279 0.015664 0.000000 0.000000 0.000000
# 4 0.000000 0.000000 0.000000 0.056131 0.000000 0.000000
# 5 0.000000 0.000000 0.000000 0.000000 0.072212 0.000000
# 6 0.000000 0.000000 0.000000 0.000000 0.000000 0.058734
#
#
# Mechanical properties :
#
#
# Convention : Reuss Voigt Hill
#
# Bulk Modulus (GPa) = 15.12619 20.94458 18.03538
# Shear Modulus (GPa) = 16.07942 18.17963 17.12952
#
# Velocity S-wave (km/s) = 2.85141 3.03191 2.94304
# Velocity P-wave (km/s) = 4.29991 4.77988 4.54623
#
# Compressibility (1/GPa) = 0.06611051
#
# Stress axis : x y z
#
# Youngs Moduli (GPa) = 22.87414 40.65865 63.84051
#
# Poissons Ratio (x) = 0.25839 -0.30014
# Poissons Ratio (y) = 0.14537 0.46472
# Poissons Ratio (z) = -0.10754 0.29597
#
# Static dielectric constant tensor:
#      x y z
#    x 1.706160 0.000000 0.000000 
#    y 0.000000 1.657330 0.000000 
#    z 0.000000 0.000000 1.733730 
# 
# From -- ./inp_files/32471.got.cif
#   From: 2010.05.17/outbox.cif.g08.bks.cpg/sg62_17_cif.got.tgz:32471.got - 2010.06.03 15:25:27.
