data_PCOD9466984
_publ_section_title
;
Structure prediction by ZEFSAII (Michael W. Deem and Ramdas Pophale) SiO2 
 PCOD9466984
Probable space group: P N M A
;
_chemical_formula_sum "Si O2"
_cell_formula_units_Z 36
_cell_length_a 5.147171
_cell_length_b 22.503077
_cell_length_c 12.896156
_cell_angle_alpha 90.000000
_cell_angle_beta 90.000000
_cell_angle_gamma 90.000000
_cell_volume 1493.725451
_symmetry_space_group_name_H-M "P N M A"
_symmetry_group_IT_number 62
_symmetry_cell_setting 'orthorhombic'
loop_
_space_group_symop_operation_xyz
x,y,z
1/2-x,-y,1/2+z
1/2+x,1/2-y,1/2-z
-x,1/2+y,-z
-x,-y,-z
1/2+x,y,1/2-z
1/2-x,1/2+y,1/2+z
x,1/2-y,z
loop_
_atom_site_type_symbol
_atom_site_label
_atom_site_fract_x
_atom_site_fract_y
_atom_site_fract_z
Si Si1 0.748920 0.468866 0.049720
Si Si2 0.256719 0.321632 0.189447
Si Si3 0.134305 0.750000 0.174728
Si Si4 0.184756 0.563600 0.307893
Si Si5 0.512741 0.141727 0.526411
O O1 0.732122 0.494211 0.165620
O O2 0.500000 0.500000 0.000000
O O3 0.790922 0.400809 0.022156
O O4 0.000000 0.500000 0.000000
O O5 0.030929 0.343381 0.267121
O O6 0.264351 0.250000 0.194990
O O7 0.177142 0.336991 0.072681
O O8 0.401095 0.750000 0.240187
O O9 0.101890 0.806249 0.098085
O O10 0.385132 0.576316 0.214611
O O11 0.297250 0.603913 0.399428
#
# Coordination Sequence:
#
# PCOD9466984 Si02
#       5
#     8   8   4   8   8
#     4  10  23  41  65  94 131 182 236 284 343 401
#     4  10  23  42  65  96 131 177 234 288 340 403
#     4  12  28  46  70 108 146 190 232 280 358 442
#     4  11  23  41  66 101 141 180 228 285 346 420
#     4  11  24  46  71 103 143 190 232 294 355 429
#
# _framework density 24.100814
#
# number of rings (size 3 to 8) (size 9 to 14) (size 15 to 20)
#    0.000    1.333    1.111    4.000    0.000   12.444 
#    0.000    0.000    0.000    0.000    0.000    0.000 
#    0.000    0.000    0.000    0.000    0.000    0.000 
#
# Total GULP energy -201439.827194 kJ/mol
# GULP energy per Si atom -5595.550755 kJ/mol
# Density = 2.404596 g / cm^3
# Si number density = 24.100814 Si / 1000 Ang^3
#
#
#
# Elastic Constant Matrix: (Units=GPa)
#
#
# Indices 1 2 3 4 5 6 
#
# 1 116.1856 29.7826 18.7203 0.0000 0.0000 0.0000
# 2 29.7826 112.6735 33.0910 0.0000 0.0000 0.0000
# 3 18.7203 33.0910 99.9080 0.0000 0.0000 0.0000
# 4 0.0000 0.0000 0.0000 50.3796 0.0000 0.0000
# 5 0.0000 0.0000 0.0000 0.0000 36.9089 0.0000
# 6 0.0000 0.0000 0.0000 0.0000 0.0000 15.7122
#
#
#
# Elastic Compliance Matrix: (Units=1/GPa)
#
#
# Indices 1 2 3 4 5 6 
#
# 1 0.009327 -0.002163 -0.001031 0.000000 0.000000 0.000000
# 2 -0.002163 0.010333 -0.003017 0.000000 0.000000 0.000000
# 3 -0.001031 -0.003017 0.011202 0.000000 0.000000 0.000000
# 4 0.000000 0.000000 0.000000 0.019849 0.000000 0.000000
# 5 0.000000 0.000000 0.000000 0.000000 0.027094 0.000000
# 6 0.000000 0.000000 0.000000 0.000000 0.000000 0.063645
#
#
# Mechanical properties :
#
#
# Convention : Reuss Voigt Hill
#
# Bulk Modulus (GPa) = 54.23067 54.66165 54.44616
# Shear Modulus (GPa) = 31.24629 37.07836 34.16232
#
# Velocity S-wave (km/s) = 3.60458 3.92659 3.76902
# Velocity P-wave (km/s) = 6.31462 6.57929 6.44831
#
# Compressibility (1/GPa) = 0.01843975
#
# Stress axis : x y z
#
# Youngs Moduli (GPa) = 107.21033 96.77777 89.27116
#
# Poissons Ratio (x) = 0.20929 0.09208
# Poissons Ratio (y) = 0.23185 0.26935
# Poissons Ratio (z) = 0.11058 0.29200
#
# Static dielectric constant tensor:
#      x y z
#    x 1.889260 0.000000 0.000000 
#    y 0.000000 1.993340 0.000000 
#    z 0.000000 0.000000 1.959050 
# 
# From -- ./inp_files/10689.got.cif
#   From: 2010.05.17/outbox.cif.g08.bks.cpg/sg62_6_cif.got.tgz:10689.got - 2010.06.03 15:25:27.
