data_PCOD9466198
_publ_section_title
;
Structure prediction by ZEFSAII (Michael W. Deem and Ramdas Pophale) SiO2 
 PCOD9466198
Probable space group: P N M A
;
_chemical_formula_sum "Si O2"
_cell_formula_units_Z 52
_cell_length_a 8.830951
_cell_length_b 20.144747
_cell_length_c 14.443902
_cell_angle_alpha 90.000000
_cell_angle_beta 90.000000
_cell_angle_gamma 90.000000
_cell_volume 2569.530787
_symmetry_space_group_name_H-M "P N M A"
_symmetry_group_IT_number 62
_symmetry_cell_setting 'orthorhombic'
loop_
_space_group_symop_operation_xyz
x,y,z
1/2-x,-y,1/2+z
1/2+x,1/2-y,1/2-z
-x,1/2+y,-z
-x,-y,-z
1/2+x,y,1/2-z
1/2-x,1/2+y,1/2+z
x,1/2-y,z
loop_
_atom_site_type_symbol
_atom_site_label
_atom_site_fract_x
_atom_site_fract_y
_atom_site_fract_z
Si Si1 0.766403 0.906102 0.324356
Si Si2 0.244962 0.750000 0.448195
Si Si3 0.787317 0.851871 0.885589
Si Si4 0.037909 0.615948 0.748388
Si Si5 0.213819 0.479211 0.326414
Si Si6 0.177924 0.005719 0.022860
Si Si7 0.940821 0.322102 0.707531
O O1 0.931303 0.873701 0.321964
O O2 0.646291 0.849754 0.296307
O O3 0.747310 0.962109 0.245527
O O4 0.727784 0.941506 0.419587
O O5 0.292375 0.692731 0.524140
O O6 0.177390 0.806829 0.374631
O O7 0.632019 0.843451 0.827735
O O8 0.795582 0.929035 0.915863
O O9 0.924860 0.842879 0.813261
O O10 0.158371 0.577125 0.812026
O O11 0.941133 0.558250 0.697672
O O12 0.227304 0.507615 0.428723
O O13 0.000000 0.000000 0.000000
O O14 0.013317 0.250000 0.729356
#
# Coordination Sequence:
#
# PCOD9466198 Si02
#       7
#     8   4   8   8   8   8   8
#     4  12  22  42  70  97 140 180 229 292 349 403
#     4  10  26  44  66  94 136 186 238 268 340 426
#     4  11  23  43  65  96 136 174 233 280 343 418
#     4  10  21  40  62  93 131 170 212 293 344 395
#     4  11  21  37  61  98 134 163 219 277 355 397
#     4  12  23  37  69 106 135 175 228 293 352 405
#     4  10  25  44  64  95 136 187 226 274 337 422
#
# _framework density 20.237158000000001
#
# number of rings (size 3 to 8) (size 9 to 14) (size 15 to 20)
#    0.462    0.615    4.615    3.231    2.154    1.231 
#    0.000    0.000    1.692    0.000    0.000    0.000 
#    0.000    0.000    0.000    0.000    0.000    0.000 
#
# Total GULP energy -289554.789084 kJ/mol
# GULP energy per Si atom -5568.361329 kJ/mol
# Density = 2.019110 g / cm^3
# Si number density = 20.237158 Si / 1000 Ang^3
#
#
#
# Elastic Constant Matrix: (Units=GPa)
#
#
# Indices 1 2 3 4 5 6 
#
# 1 56.6371 3.7690 8.0548 0.0000 0.0000 0.0000
# 2 3.7690 54.2167 0.3506 0.0000 0.0000 0.0000
# 3 8.0548 0.3506 57.7582 0.0000 0.0000 0.0000
# 4 0.0000 0.0000 0.0000 41.6947 0.0000 0.0000
# 5 0.0000 0.0000 0.0000 0.0000 23.3762 0.0000
# 6 0.0000 0.0000 0.0000 0.0000 0.0000 16.9733
#
#
#
# Elastic Compliance Matrix: (Units=1/GPa)
#
#
# Indices 1 2 3 4 5 6 
#
# 1 0.018097 -0.001242 -0.002516 0.000000 0.000000 0.000000
# 2 -0.001242 0.018530 0.000061 0.000000 0.000000 0.000000
# 3 -0.002516 0.000061 0.017664 0.000000 0.000000 0.000000
# 4 0.000000 0.000000 0.000000 0.023984 0.000000 0.000000
# 5 0.000000 0.000000 0.000000 0.000000 0.042779 0.000000
# 6 0.000000 0.000000 0.000000 0.000000 0.000000 0.058916
#
#
# Mechanical properties :
#
#
# Convention : Reuss Voigt Hill
#
# Bulk Modulus (GPa) = 21.32343 21.44008 21.38175
# Shear Modulus (GPa) = 24.63096 26.83802 25.73449
#
# Velocity S-wave (km/s) = 3.49250 3.64562 3.56988
# Velocity P-wave (km/s) = 5.17910 5.32336 5.25172
#
# Compressibility (1/GPa) = 0.04689677
#
# Stress axis : x y z
#
# Youngs Moduli (GPa) = 55.25851 53.96532 56.61203
#
# Poissons Ratio (x) = 0.06701 0.14245
# Poissons Ratio (y) = 0.06862 -0.00344
# Poissons Ratio (z) = 0.13904 -0.00328
#
# Static dielectric constant tensor:
#      x y z
#    x 1.746300 0.000000 0.000000 
#    y 0.000000 1.736890 0.000000 
#    z 0.000000 0.000000 1.691980 
# 
# From -- ./inp_files/17132.got.cif
#   From: 2010.05.17/outbox.cif.g08.bks.cpg/sg62_9_cif.got.tgz:17132.got - 2010.06.03 15:25:27.
