data_PCOD9466664
_publ_section_title
;
Structure prediction by ZEFSAII (Michael W. Deem and Ramdas Pophale) SiO2 
 PCOD9466664
Probable space group: P N M A
;
_chemical_formula_sum "Si O2"
_cell_formula_units_Z 48
_cell_length_a 14.425297
_cell_length_b 8.731825
_cell_length_c 20.159719
_cell_angle_alpha 90.000000
_cell_angle_beta 90.000000
_cell_angle_gamma 90.000000
_cell_volume 2539.301452
_symmetry_space_group_name_H-M "P N M A"
_symmetry_group_IT_number 62
_symmetry_cell_setting 'orthorhombic'
loop_
_space_group_symop_operation_xyz
x,y,z
1/2-x,-y,1/2+z
1/2+x,1/2-y,1/2-z
-x,1/2+y,-z
-x,-y,-z
1/2+x,y,1/2-z
1/2-x,1/2+y,1/2+z
x,1/2-y,z
loop_
_atom_site_type_symbol
_atom_site_label
_atom_site_fract_x
_atom_site_fract_y
_atom_site_fract_z
Si Si1 0.247658 0.569119 0.715026
Si Si2 0.032211 0.067508 0.878170
Si Si3 0.844581 0.567296 0.925741
Si Si4 0.359470 0.431418 0.836526
Si Si5 0.220187 0.567273 0.939120
Si Si6 0.031038 0.568220 0.732828
O O1 0.262301 0.750000 0.730368
O O2 0.293885 0.537696 0.644170
O O3 0.295449 0.473001 0.772988
O O4 0.137752 0.542207 0.713385
O O5 0.039149 0.250000 0.883006
O O6 0.127950 0.991850 0.901479
O O7 0.013900 0.016165 0.802582
O O8 0.946394 0.006370 0.921251
O O9 0.853011 0.750000 0.934562
O O10 0.788758 0.495990 0.986611
O O11 0.367448 0.250000 0.843081
O O12 0.308156 0.501869 0.899913
O O13 0.458577 0.505969 0.820531
O O14 0.221520 0.750000 0.938179
O O15 0.016841 0.750000 0.742655
#
# Coordination Sequence:
#
# PCOD9466664 Si02
#       6
#     8   8   8   8   8   8
#     4  10  22  40  65  90 122 163 204 251 307 368
#     4  12  23  37  60  94 128 162 203 254 311 369
#     4  11  23  41  63  91 126 164 206 255 312 372
#     4  12  24  39  63  92 124 161 207 257 305 364
#     4  12  25  42  62  88 125 167 208 255 313 372
#     4  11  22  39  63  93 125 161 205 251 306 365
#
# _framework density 18.902836000000001
#
# number of rings (size 3 to 8) (size 9 to 14) (size 15 to 20)
#    0.000    0.667    3.333    6.000    0.000    1.333 
#    0.000    0.833    0.000    0.000    0.000    0.000 
#    0.000    0.000    0.000    0.000    0.000    0.000 
#
# Total GULP energy -268672.020013 kJ/mol
# GULP energy per Si atom -5597.333750 kJ/mol
# Density = 1.885981 g / cm^3
# Si number density = 18.902836 Si / 1000 Ang^3
#
#
#
# Elastic Constant Matrix: (Units=GPa)
#
#
# Indices 1 2 3 4 5 6 
#
# 1 63.7116 18.7455 -8.1270 0.0000 0.0000 0.0000
# 2 18.7455 104.6793 13.2884 0.0000 0.0000 0.0000
# 3 -8.1270 13.2884 34.2460 0.0000 0.0000 0.0000
# 4 0.0000 0.0000 0.0000 31.6877 0.0000 0.0000
# 5 0.0000 0.0000 0.0000 0.0000 32.3610 0.0000
# 6 0.0000 0.0000 0.0000 0.0000 0.0000 22.5013
#
#
#
# Elastic Compliance Matrix: (Units=1/GPa)
#
#
# Indices 1 2 3 4 5 6 
#
# 1 0.017555 -0.003863 0.005665 0.000000 0.000000 0.000000
# 2 -0.003863 0.010898 -0.005145 0.000000 0.000000 0.000000
# 3 0.005665 -0.005145 0.032541 0.000000 0.000000 0.000000
# 4 0.000000 0.000000 0.000000 0.031558 0.000000 0.000000
# 5 0.000000 0.000000 0.000000 0.000000 0.030901 0.000000
# 6 0.000000 0.000000 0.000000 0.000000 0.000000 0.044442
#
#
# Mechanical properties :
#
#
# Convention : Reuss Voigt Hill
#
# Bulk Modulus (GPa) = 18.41367 27.82786 23.12077
# Shear Modulus (GPa) = 25.94917 29.22533 27.58725
#
# Velocity S-wave (km/s) = 3.70911 3.93629 3.82439
# Velocity P-wave (km/s) = 5.30148 5.95085 5.63553
#
# Compressibility (1/GPa) = 0.05430747
#
# Stress axis : x y z
#
# Youngs Moduli (GPa) = 56.96437 91.76098 30.73014
#
# Poissons Ratio (x) = 0.35445 -0.17408
# Poissons Ratio (y) = 0.22004 0.15812
# Poissons Ratio (z) = -0.32269 0.47214
#
# Static dielectric constant tensor:
#      x y z
#    x 1.644150 0.000000 0.000000 
#    y 0.000000 1.629220 0.000000 
#    z 0.000000 0.000000 1.645000 
# 
# From -- ./inp_files/23668.got.cif
#   From: 2010.05.17/outbox.cif.g08.bks.cpg/sg62_12_cif.got.tgz:23668.got - 2010.06.03 15:25:27.
