data_PCOD9466171
_publ_section_title
;
Structure prediction by ZEFSAII (Michael W. Deem and Ramdas Pophale) SiO2 
 PCOD9466171
Probable space group: P N M A
;
_chemical_formula_sum "Si O2"
_cell_formula_units_Z 60
_cell_length_a 8.195621
_cell_length_b 26.083299
_cell_length_c 11.847831
_cell_angle_alpha 90.000000
_cell_angle_beta 90.000000
_cell_angle_gamma 90.000000
_cell_volume 2532.697007
_symmetry_space_group_name_H-M "P N M A"
_symmetry_group_IT_number 62
_symmetry_cell_setting 'orthorhombic'
loop_
_space_group_symop_operation_xyz
x,y,z
1/2-x,-y,1/2+z
1/2+x,1/2-y,1/2-z
-x,1/2+y,-z
-x,-y,-z
1/2+x,y,1/2-z
1/2-x,1/2+y,1/2+z
x,1/2-y,z
loop_
_atom_site_type_symbol
_atom_site_label
_atom_site_fract_x
_atom_site_fract_y
_atom_site_fract_z
Si Si1 0.567215 0.310420 0.275462
Si Si2 0.659603 0.532705 0.021054
Si Si3 0.799308 0.678524 0.132044
Si Si4 0.845767 0.566233 0.212914
Si Si5 0.633665 0.648262 0.922497
Si Si6 0.632916 0.829733 0.509174
Si Si7 0.175218 0.558199 0.076521
Si Si8 0.712016 0.250000 0.853883
O O1 0.604531 0.250000 0.261619
O O2 0.710113 0.339701 0.342770
O O3 0.517060 0.336582 0.157281
O O4 0.415899 0.314444 0.364437
O O5 0.640522 0.589037 0.964648
O O6 0.806012 0.499138 0.967591
O O7 0.500000 0.500000 0.000000
O O8 0.715436 0.530338 0.151270
O O9 0.786740 0.620911 0.171214
O O10 0.788493 0.708009 0.248589
O O11 0.973595 0.685181 0.069555
O O12 0.663440 0.684036 0.033894
O O13 0.834644 0.566063 0.345711
O O14 0.020279 0.559904 0.157906
O O15 0.659821 0.891181 0.500891
O O16 0.769431 0.795604 0.449421
#
# Coordination Sequence:
#
# PCOD9466171 Si02
#       8
#     8   8   8   8   8   8   8   4
#     4  11  23  44  70  99 144 183 235 286 347 423
#     4  11  25  45  67  96 130 174 227 288 347 408
#     4   9  21  38  61  89 133 170 219 274 342 407
#     4  10  21  40  60  92 127 166 216 271 333 407
#     4  10  25  45  67  99 134 183 229 284 344 412
#     4  10  22  38  61  98 130 176 223 282 346 415
#     4  11  22  40  65  93 131 172 216 273 342 403
#     4  12  18  36  64  92 126 176 226 278 352 408
#
# _framework density 23.690159999999999
#
# number of rings (size 3 to 8) (size 9 to 14) (size 15 to 20)
#    0.000    1.600    2.000    2.800    3.733    4.267 
#    0.000    2.667    0.000    0.000    0.000    0.000 
#    0.000    0.000    0.000    0.000    0.000    0.000 
#
# Total GULP energy -334006.525897 kJ/mol
# GULP energy per Si atom -5566.775432 kJ/mol
# Density = 2.363624 g / cm^3
# Si number density = 23.690160 Si / 1000 Ang^3
#
#
#
# Elastic Constant Matrix: (Units=GPa)
#
#
# Indices 1 2 3 4 5 6 
#
# 1 42.9209 18.1434 2.2028 0.0000 0.0000 0.0000
# 2 18.1434 110.5193 29.1902 0.0000 0.0000 0.0000
# 3 2.2028 29.1902 102.2478 0.0000 0.0000 0.0000
# 4 0.0000 0.0000 0.0000 74.8129 0.0000 0.0000
# 5 0.0000 0.0000 0.0000 0.0000 58.0627 0.0000
# 6 0.0000 0.0000 0.0000 0.0000 0.0000 -43.0661
#
#
#
# Elastic Compliance Matrix: (Units=1/GPa)
#
#
# Indices 1 2 3 4 5 6 
#
# 1 0.025081 -0.004299 0.000687 0.000000 0.000000 0.000000
# 2 -0.004299 0.010523 -0.002912 0.000000 0.000000 0.000000
# 3 0.000687 -0.002912 0.010597 0.000000 0.000000 0.000000
# 4 0.000000 0.000000 0.000000 0.013367 0.000000 0.000000
# 5 0.000000 0.000000 0.000000 0.000000 0.017223 0.000000
# 6 0.000000 0.000000 0.000000 0.000000 0.000000 -0.023220
#
#
# Mechanical properties :
#
#
# Convention : Reuss Voigt Hill
#
# Bulk Modulus (GPa) = 30.16294 39.41786 34.79040
# Shear Modulus (GPa) = 64.37723 31.70534 48.04129
#
# Velocity S-wave (km/s) = 5.21859 3.66229 4.50811
# Velocity P-wave (km/s) = 7.00510 5.87862 6.46644
#
# Compressibility (1/GPa) = 0.03315326
#
# Stress axis : x y z
#
# Youngs Moduli (GPa) = 39.87147 95.03091 94.37030
#
# Poissons Ratio (x) = 0.40852 -0.06482
# Poissons Ratio (y) = 0.17140 0.27476
# Poissons Ratio (z) = -0.02739 0.27668
#
# Static dielectric constant tensor:
#      x y z
#    x 2.203910 0.000000 0.000000 
#    y 0.000000 2.497840 0.000000 
#    z 0.000000 0.000000 1.926940 
# 
# From -- ./inp_files/11447.got.cif
#   From: 2010.05.17/outbox.cif.g08.bks.cpg/sg62_6_cif.got.tgz:11447.got - 2010.06.03 15:25:27.
