data_PCOD9466480
_publ_section_title
;
Structure prediction by ZEFSAII (Michael W. Deem and Ramdas Pophale) SiO2 
 PCOD9466480
Probable space group: P N M A
;
_chemical_formula_sum "Si O2"
_cell_formula_units_Z 40
_cell_length_a 14.398086
_cell_length_b 18.056259
_cell_length_c 7.205565
_cell_angle_alpha 90.000000
_cell_angle_beta 90.000000
_cell_angle_gamma 90.000000
_cell_volume 1873.270867
_symmetry_space_group_name_H-M "P N M A"
_symmetry_group_IT_number 62
_symmetry_cell_setting 'orthorhombic'
loop_
_space_group_symop_operation_xyz
x,y,z
1/2-x,-y,1/2+z
1/2+x,1/2-y,1/2-z
-x,1/2+y,-z
-x,-y,-z
1/2+x,y,1/2-z
1/2-x,1/2+y,1/2+z
x,1/2-y,z
loop_
_atom_site_type_symbol
_atom_site_label
_atom_site_fract_x
_atom_site_fract_y
_atom_site_fract_z
Si Si1 0.842752 0.167841 0.472379
Si Si2 0.605992 0.523718 0.548884
Si Si3 0.388269 0.007209 0.014445
Si Si4 0.167423 0.401188 0.203741
Si Si5 0.968495 0.330833 0.121561
O O1 0.834343 0.250000 0.562206
O O2 0.859304 0.087873 0.569696
O O3 0.751745 0.152407 0.345278
O O4 0.928706 0.172193 0.330116
O O5 0.500000 0.500000 0.500000
O O6 0.672275 0.474155 0.425945
O O7 0.598747 0.611303 0.519975
O O8 0.628533 0.509476 0.764508
O O9 0.344111 0.937465 0.906673
O O10 0.500000 0.000000 0.000000
O O11 0.072656 0.360658 0.142569
O O12 0.966941 0.250000 0.036281
#
# Coordination Sequence:
#
# PCOD9466480 Si02
#       5
#     8   8   8   8   8
#     4  10  22  37  59  91 122 158 202 250 307 361
#     4   9  18  34  57  87 113 149 200 245 294 362
#     4  11  20  38  62  90 114 155 209 250 299 368
#     4  11  21  37  63  84 119 161 200 248 301 361
#     4   9  18  35  56  83 116 151 194 242 296 354
#
# _framework density 21.353026
#
# number of rings (size 3 to 8) (size 9 to 14) (size 15 to 20)
#    0.000    2.000    6.000    0.600    5.600    0.000 
#    0.000    1.000    0.000   16.800    0.000    0.000 
#    0.000    0.000    0.000    0.000    0.000    0.000 
#
# Total GULP energy -222875.350664 kJ/mol
# GULP energy per Si atom -5571.883767 kJ/mol
# Density = 2.130443 g / cm^3
# Si number density = 21.353026 Si / 1000 Ang^3
#
#
#
# Elastic Constant Matrix: (Units=GPa)
#
#
# Indices 1 2 3 4 5 6 
#
# 1 84.4978 19.6048 3.1869 0.0000 0.0000 0.0000
# 2 19.6048 150.0010 15.4225 0.0000 0.0000 0.0000
# 3 3.1869 15.4225 68.2982 0.0000 0.0000 0.0000
# 4 0.0000 0.0000 0.0000 23.3988 0.0000 0.0000
# 5 0.0000 0.0000 0.0000 0.0000 24.5898 0.0000
# 6 0.0000 0.0000 0.0000 0.0000 0.0000 26.4402
#
#
#
# Elastic Compliance Matrix: (Units=1/GPa)
#
#
# Indices 1 2 3 4 5 6 
#
# 1 0.012208 -0.001573 -0.000214 0.000000 0.000000 0.000000
# 2 -0.001573 0.007028 -0.001514 0.000000 0.000000 0.000000
# 3 -0.000214 -0.001514 0.014993 0.000000 0.000000 0.000000
# 4 0.000000 0.000000 0.000000 0.042737 0.000000 0.000000
# 5 0.000000 0.000000 0.000000 0.000000 0.040667 0.000000
# 6 0.000000 0.000000 0.000000 0.000000 0.000000 0.037821
#
#
# Mechanical properties :
#
#
# Convention : Reuss Voigt Hill
#
# Bulk Modulus (GPa) = 36.19728 42.13617 39.16672
# Shear Modulus (GPa) = 29.19428 32.52461 30.85945
#
# Velocity S-wave (km/s) = 3.70161 3.90703 3.80571
# Velocity P-wave (km/s) = 5.93783 6.33476 6.13950
#
# Compressibility (1/GPa) = 0.02762639
#
# Stress axis : x y z
#
# Youngs Moduli (GPa) = 81.91496 142.29013 66.69573
#
# Poissons Ratio (x) = 0.22389 0.01429
# Poissons Ratio (y) = 0.12889 0.10095
# Poissons Ratio (z) = 0.01756 0.21536
#
# Static dielectric constant tensor:
#      x y z
#    x 1.814820 0.000000 0.000000 
#    y 0.000000 1.874780 0.000000 
#    z 0.000000 0.000000 1.778810 
# 
# From -- ./inp_files/6287.got.cif
#   From: 2010.05.17/outbox.cif.g08.bks.cpg/sg62_4_cif.got.tgz:6287.got - 2010.06.03 15:25:27.
