data_PCOD9466367
_publ_section_title
;
Structure prediction by ZEFSAII (Michael W. Deem and Ramdas Pophale) SiO2 
 PCOD9466367
Probable space group: P N M A
;
_chemical_formula_sum "Si O2"
_cell_formula_units_Z 48
_cell_length_a 13.835262
_cell_length_b 14.089809
_cell_length_c 11.697934
_cell_angle_alpha 90.000000
_cell_angle_beta 90.000000
_cell_angle_gamma 90.000000
_cell_volume 2280.350791
_symmetry_space_group_name_H-M "P N M A"
_symmetry_group_IT_number 62
_symmetry_cell_setting 'orthorhombic'
loop_
_space_group_symop_operation_xyz
x,y,z
1/2-x,-y,1/2+z
1/2+x,1/2-y,1/2-z
-x,1/2+y,-z
-x,-y,-z
1/2+x,y,1/2-z
1/2-x,1/2+y,1/2+z
x,1/2-y,z
loop_
_atom_site_type_symbol
_atom_site_label
_atom_site_fract_x
_atom_site_fract_y
_atom_site_fract_z
Si Si1 0.736590 0.067995 0.548313
Si Si2 0.941187 0.250000 0.892346
Si Si3 0.909435 0.966743 0.426973
Si Si4 0.957003 0.601008 0.968063
Si Si5 0.632997 0.250000 0.896984
Si Si6 0.380335 0.079208 0.301926
Si Si7 0.206428 0.750000 0.306427
Si Si8 0.220235 0.750000 0.903467
O O1 0.657863 0.103897 0.454969
O O2 0.783842 0.156380 0.614804
O O3 0.811973 0.993275 0.496635
O O4 0.666954 0.010215 0.632932
O O5 0.891106 0.250000 0.769892
O O6 0.857402 0.250000 0.990054
O O7 0.009699 0.163336 0.924326
O O8 0.915643 0.855036 0.393288
O O9 0.903275 0.037862 0.320373
O O10 0.000000 0.000000 0.500000
O O11 0.021301 0.622694 0.856860
O O12 0.000000 0.500000 0.000000
O O13 0.708708 0.250000 0.790227
O O14 0.682417 0.250000 0.023378
O O15 0.301323 0.160310 0.323958
#
# Coordination Sequence:
#
# PCOD9466367 Si02
#       8
#     8   4   8   8   4   8   4   4
#     4  11  23  41  65 101 136 180 235 285 339 418
#     4   9  19  37  64  99 127 171 225 282 338 396
#     4  12  28  45  69 102 145 182 232 289 353 423
#     4   9  20  37  63  94 132 171 229 283 334 407
#     4  11  22  47  72  95 137 185 226 285 353 414
#     4  10  21  41  68  98 132 182 231 284 349 415
#     4  11  23  39  74 102 136 181 233 290 353 406
#     4   9  18  39  72  92 124 181 232 269 336 422
#
# _framework density 21.049392000000001
#
# number of rings (size 3 to 8) (size 9 to 14) (size 15 to 20)
#    0.000    1.667    3.333    0.500    2.333    6.000 
#    3.000    0.000    0.000    0.000    0.000    0.000 
#    0.000    0.000    0.000    0.000    0.000    0.000 
#
# Total GULP energy -267509.130199 kJ/mol
# GULP energy per Si atom -5573.106879 kJ/mol
# Density = 2.100148 g / cm^3
# Si number density = 21.049392 Si / 1000 Ang^3
#
#
#
# Elastic Constant Matrix: (Units=GPa)
#
#
# Indices 1 2 3 4 5 6 
#
# 1 72.7145 2.5795 22.4895 0.0000 0.0000 0.0000
# 2 2.5795 133.2186 21.3787 0.0000 0.0000 0.0000
# 3 22.4895 21.3787 86.8105 0.0000 0.0000 0.0000
# 4 0.0000 0.0000 0.0000 35.3096 0.0000 0.0000
# 5 0.0000 0.0000 0.0000 0.0000 28.9264 0.0000
# 6 0.0000 0.0000 0.0000 0.0000 0.0000 8.8181
#
#
#
# Elastic Compliance Matrix: (Units=1/GPa)
#
#
# Indices 1 2 3 4 5 6 
#
# 1 0.014966 0.000346 -0.003962 0.000000 0.000000 0.000000
# 2 0.000346 0.007823 -0.002016 0.000000 0.000000 0.000000
# 3 -0.003962 -0.002016 0.013042 0.000000 0.000000 0.000000
# 4 0.000000 0.000000 0.000000 0.028321 0.000000 0.000000
# 5 0.000000 0.000000 0.000000 0.000000 0.034570 0.000000
# 6 0.000000 0.000000 0.000000 0.000000 0.000000 0.113403
#
#
# Mechanical properties :
#
#
# Convention : Reuss Voigt Hill
#
# Bulk Modulus (GPa) = 40.70615 42.84880 41.77747
# Shear Modulus (GPa) = 21.59089 31.03056 26.31073
#
# Velocity S-wave (km/s) = 3.20617 3.84367 3.53930
# Velocity P-wave (km/s) = 5.75208 6.33237 6.04919
#
# Compressibility (1/GPa) = 0.02456631
#
# Stress axis : x y z
#
# Youngs Moduli (GPa) = 66.81985 127.82278 76.67307
#
# Poissons Ratio (x) = -0.04424 0.30380
# Poissons Ratio (y) = -0.02313 0.15460
# Poissons Ratio (z) = 0.26476 0.25773
#
# Static dielectric constant tensor:
#      x y z
#    x 1.823310 0.000000 0.000000 
#    y 0.000000 1.775670 0.000000 
#    z 0.000000 0.000000 1.992950 
# 
# From -- ./inp_files/13334.got.cif
#   From: 2010.05.17/outbox.cif.g08.bks.cpg/sg62_7_cif.got.tgz:13334.got - 2010.06.03 15:25:27.
