data_PCOD9466309
_publ_section_title
;
Structure prediction by ZEFSAII (Michael W. Deem and Ramdas Pophale) SiO2 
 PCOD9466309
Probable space group: P N M A
;
_chemical_formula_sum "Si O2"
_cell_formula_units_Z 40
_cell_length_a 8.852851
_cell_length_b 12.554133
_cell_length_c 15.189346
_cell_angle_alpha 90.000000
_cell_angle_beta 90.000000
_cell_angle_gamma 90.000000
_cell_volume 1688.141923
_symmetry_space_group_name_H-M "P N M A"
_symmetry_group_IT_number 62
_symmetry_cell_setting 'orthorhombic'
loop_
_space_group_symop_operation_xyz
x,y,z
1/2-x,-y,1/2+z
1/2+x,1/2-y,1/2-z
-x,1/2+y,-z
-x,-y,-z
1/2+x,y,1/2-z
1/2-x,1/2+y,1/2+z
x,1/2-y,z
loop_
_atom_site_type_symbol
_atom_site_label
_atom_site_fract_x
_atom_site_fract_y
_atom_site_fract_z
Si Si1 0.022445 0.250000 0.174824
Si Si2 0.931953 0.973333 0.731540
Si Si3 0.830625 0.250000 0.995281
Si Si4 0.830394 0.250000 0.428978
Si Si5 0.591524 0.413182 0.052543
Si Si6 0.696237 0.127958 0.781455
Si Si7 0.143645 0.250000 0.890976
O O1 0.010179 0.363062 0.226107
O O2 0.194403 0.250000 0.138883
O O3 0.910906 0.250000 0.091597
O O4 0.834155 0.944041 0.645496
O O5 0.836972 0.050138 0.795933
O O6 0.055238 0.055965 0.694253
O O7 0.716590 0.350985 0.995747
O O8 0.972780 0.250000 0.928511
O O9 0.755732 0.250000 0.526213
O O10 0.947758 0.155963 0.418069
O O11 0.500000 0.500000 0.000000
O O12 0.701585 0.250000 0.817439
O O13 0.677220 0.153063 0.676221
#
# Coordination Sequence:
#
# PCOD9466309 Si02
#       7
#     4   8   4   4   8   8   4
#     4  11  24  40  72  97 130 172 216 277 334 396
#     4  12  23  43  65  99 131 167 219 273 331 393
#     4  10  23  45  65  96 135 171 223 266 324 404
#     4  10  21  41  59  94 129 165 221 262 328 398
#     4  11  24  40  64  93 129 175 213 273 331 387
#     4  10  24  42  66  95 130 170 215 269 327 385
#     4   9  22  42  66  91 130 178 220 267 322 396
#
# _framework density 23.694690000000001
#
# number of rings (size 3 to 8) (size 9 to 14) (size 15 to 20)
#    0.600    0.800    0.000    5.400    0.000    5.600 
#    3.600    5.000    0.000    0.000    0.000    0.000 
#    0.000    0.000    0.000    0.000    0.000    0.000 
#
# Total GULP energy -223141.051471 kJ/mol
# GULP energy per Si atom -5578.526287 kJ/mol
# Density = 2.364076 g / cm^3
# Si number density = 23.694690 Si / 1000 Ang^3
#
#
#
# Elastic Constant Matrix: (Units=GPa)
#
#
# Indices 1 2 3 4 5 6 
#
# 1 101.8576 40.6521 -0.6122 0.0000 0.0000 0.0000
# 2 40.6521 171.8400 33.1569 0.0000 0.0000 0.0000
# 3 -0.6122 33.1569 85.1506 0.0000 0.0000 0.0000
# 4 0.0000 0.0000 0.0000 40.4183 0.0000 0.0000
# 5 0.0000 0.0000 0.0000 0.0000 34.2999 0.0000
# 6 0.0000 0.0000 0.0000 0.0000 0.0000 69.7527
#
#
#
# Elastic Compliance Matrix: (Units=1/GPa)
#
#
# Indices 1 2 3 4 5 6 
#
# 1 0.010949 -0.002817 0.001176 0.000000 0.000000 0.000000
# 2 -0.002817 0.007017 -0.002753 0.000000 0.000000 0.000000
# 3 0.001176 -0.002753 0.012824 0.000000 0.000000 0.000000
# 4 0.000000 0.000000 0.000000 0.024741 0.000000 0.000000
# 5 0.000000 0.000000 0.000000 0.000000 0.029155 0.000000
# 6 0.000000 0.000000 0.000000 0.000000 0.000000 0.014336
#
#
# Mechanical properties :
#
#
# Convention : Reuss Voigt Hill
#
# Bulk Modulus (GPa) = 45.45013 56.13799 50.79406
# Shear Modulus (GPa) = 43.42377 47.93761 45.68069
#
# Velocity S-wave (km/s) = 4.28558 4.50281 4.39553
# Velocity P-wave (km/s) = 6.61146 7.12582 6.87346
#
# Compressibility (1/GPa) = 0.02200214
#
# Stress axis : x y z
#
# Youngs Moduli (GPa) = 91.33259 142.51291 77.97774
#
# Poissons Ratio (x) = 0.40146 -0.09167
# Poissons Ratio (y) = 0.25729 0.21464
# Poissons Ratio (z) = -0.10737 0.39228
#
# Static dielectric constant tensor:
#      x y z
#    x 1.879150 0.000000 0.000000 
#    y 0.000000 1.826110 0.000000 
#    z 0.000000 0.000000 2.033810 
# 
# From -- ./inp_files/21981.got.cif
#   From: 2010.05.17/outbox.cif.g08.bks.cpg/sg62_11_cif.got.tgz:21981.got - 2010.06.03 15:25:27.
