data_PCOD9466359
_publ_section_title
;
Structure prediction by ZEFSAII (Michael W. Deem and Ramdas Pophale) SiO2 
 PCOD9466359
Probable space group: P N M A
;
_chemical_formula_sum "Si O2"
_cell_formula_units_Z 64
_cell_length_a 15.681541
_cell_length_b 8.468917
_cell_length_c 24.609063
_cell_angle_alpha 90.000000
_cell_angle_beta 90.000000
_cell_angle_gamma 90.000000
_cell_volume 3268.223079
_symmetry_space_group_name_H-M "P N M A"
_symmetry_group_IT_number 62
_symmetry_cell_setting 'orthorhombic'
loop_
_space_group_symop_operation_xyz
x,y,z
1/2-x,-y,1/2+z
1/2+x,1/2-y,1/2-z
-x,1/2+y,-z
-x,-y,-z
1/2+x,y,1/2-z
1/2-x,1/2+y,1/2+z
x,1/2-y,z
loop_
_atom_site_type_symbol
_atom_site_label
_atom_site_fract_x
_atom_site_fract_y
_atom_site_fract_z
Si Si1 0.155752 0.559399 0.117608
Si Si2 0.097259 0.559635 0.999458
Si Si3 0.251179 0.941442 0.424023
Si Si4 0.849364 0.936440 0.384170
Si Si5 0.427145 0.058150 0.727621
Si Si6 0.898168 0.435670 0.273237
Si Si7 0.260505 0.059244 0.797450
Si Si8 0.596043 0.564525 0.998804
O O1 0.148900 0.750000 0.116034
O O2 0.134705 0.503274 0.057434
O O3 0.252745 0.522470 0.131554
O O4 0.097212 0.506042 0.166759
O O5 0.097222 0.750000 0.997469
O O6 0.161601 0.499244 0.952791
O O7 0.000000 0.500000 0.000000
O O8 0.251982 0.750000 0.425592
O O9 0.244442 0.989845 0.360762
O O10 0.168085 0.997426 0.458777
O O11 0.854916 0.750000 0.395944
O O12 0.902998 0.979005 0.331531
O O13 0.871781 0.028779 0.438336
O O14 0.435379 0.250000 0.728603
O O15 0.349689 0.016208 0.768369
O O16 0.515021 0.979467 0.743387
O O17 0.890127 0.250000 0.282123
O O18 0.818054 0.494289 0.237716
O O19 0.255071 0.250000 0.795902
O O20 0.590436 0.750000 0.009025
O O21 0.500000 0.500000 0.000000
#
# Coordination Sequence:
#
# PCOD9466359 Si02
#       8
#     8   8   8   8   8   8   8   8
#     4   9  19  38  65  90 114 153 211 260 302 360
#     4  11  23  40  62  92 124 163 208 255 310 368
#     4  10  23  42  63  91 126 164 209 257 308 370
#     4  11  21  42  69  91 119 164 214 261 311 372
#     4  10  21  41  67  91 117 161 214 259 306 372
#     4  12  26  41  60  96 132 162 202 259 322 375
#     4  10  22  43  67  89 119 167 215 254 303 372
#     4  11  24  41  63  96 130 167 210 261 317 374
#
# _framework density 19.582508000000001
#
# number of rings (size 3 to 8) (size 9 to 14) (size 15 to 20)
#    0.000    1.500    2.500    2.250    3.500    1.500 
#    0.000    0.625    0.000    0.000    0.000    0.000 
#    0.000    0.000    0.000    0.000    0.000    0.000 
#
# Total GULP energy -357421.869095 kJ/mol
# GULP energy per Si atom -5584.716705 kJ/mol
# Density = 1.953794 g / cm^3
# Si number density = 19.582508 Si / 1000 Ang^3
#
#
#
# Elastic Constant Matrix: (Units=GPa)
#
#
# Indices 1 2 3 4 5 6 
#
# 1 74.5058 16.1646 -0.0183 0.0000 0.0000 0.0000
# 2 16.1646 21.7806 1.3323 0.0000 0.0000 0.0000
# 3 -0.0183 1.3323 81.4775 0.0000 0.0000 0.0000
# 4 0.0000 0.0000 0.0000 27.2113 0.0000 0.0000
# 5 0.0000 0.0000 0.0000 0.0000 35.8541 0.0000
# 6 0.0000 0.0000 0.0000 0.0000 0.0000 14.0317
#
#
#
# Elastic Compliance Matrix: (Units=1/GPa)
#
#
# Indices 1 2 3 4 5 6 
#
# 1 0.016001 -0.011887 0.000198 0.000000 0.000000 0.000000
# 2 -0.011887 0.054790 -0.000899 0.000000 0.000000 0.000000
# 3 0.000198 -0.000899 0.012288 0.000000 0.000000 0.000000
# 4 0.000000 0.000000 0.000000 0.036749 0.000000 0.000000
# 5 0.000000 0.000000 0.000000 0.000000 0.027891 0.000000
# 6 0.000000 0.000000 0.000000 0.000000 0.000000 0.071267
#
#
# Mechanical properties :
#
#
# Convention : Reuss Voigt Hill
#
# Bulk Modulus (GPa) = 17.27032 23.63568 20.45300
# Shear Modulus (GPa) = 18.97801 26.10510 22.54155
#
# Velocity S-wave (km/s) = 3.11646 3.65510 3.39648
# Velocity P-wave (km/s) = 4.66778 5.46891 5.08415
#
# Compressibility (1/GPa) = 0.05790280
#
# Stress axis : x y z
#
# Youngs Moduli (GPa) = 62.49667 18.25165 81.37975
#
# Poissons Ratio (x) = 0.21696 -0.01611
# Poissons Ratio (y) = 0.74291 0.07313
# Poissons Ratio (z) = -0.01237 0.01640
#
# Static dielectric constant tensor:
#      x y z
#    x 1.807320 0.000000 0.000000 
#    y 0.000000 1.679300 0.000000 
#    z 0.000000 0.000000 1.702210 
# 
# From -- ./inp_files/29895.got.cif
#   From: 2010.05.17/outbox.cif.g08.bks.cpg/sg62_15_cif.got.tgz:29895.got - 2010.06.03 15:25:27.
