data_PCOD9466234
_publ_section_title
;
Structure prediction by ZEFSAII (Michael W. Deem and Ramdas Pophale) SiO2 
 PCOD9466234
Probable space group: P N M A
;
_chemical_formula_sum "Si O2"
_cell_formula_units_Z 48
_cell_length_a 29.042851
_cell_length_b 9.383198
_cell_length_c 9.469036
_cell_angle_alpha 90.000000
_cell_angle_beta 90.000000
_cell_angle_gamma 90.000000
_cell_volume 2580.452655
_symmetry_space_group_name_H-M "P N M A"
_symmetry_group_IT_number 62
_symmetry_cell_setting 'orthorhombic'
loop_
_space_group_symop_operation_xyz
x,y,z
1/2-x,-y,1/2+z
1/2+x,1/2-y,1/2-z
-x,1/2+y,-z
-x,-y,-z
1/2+x,y,1/2-z
1/2-x,1/2+y,1/2+z
x,1/2-y,z
loop_
_atom_site_type_symbol
_atom_site_label
_atom_site_fract_x
_atom_site_fract_y
_atom_site_fract_z
Si Si1 0.630545 0.580777 0.019793
Si Si2 0.518506 0.913826 0.630579
Si Si3 0.698234 0.420471 0.518668
Si Si4 0.461883 0.584568 0.912250
Si Si5 0.876721 0.420849 0.195569
Si Si6 0.216474 0.918714 0.272946
O O1 0.619313 0.750000 0.024787
O O2 0.640055 0.547216 0.855132
O O3 0.586891 0.490610 0.069130
O O4 0.673485 0.554839 0.122176
O O5 0.523808 0.750000 0.587724
O O6 0.481026 0.921396 0.753853
O O7 0.569094 0.958573 0.685196
O O8 0.500000 0.000000 0.500000
O O9 0.693000 0.250000 0.504142
O O10 0.652494 0.493913 0.580593
O O11 0.711981 0.489281 0.368768
O O12 0.738023 0.448069 0.634927
O O13 0.459676 0.750000 0.955964
O O14 0.500000 0.500000 0.000000
O O15 0.871749 0.250000 0.173856
O O16 0.216277 0.750000 0.236347
#
# Coordination Sequence:
#
# PCOD9466234 Si02
#       6
#     8   8   8   8   8   8
#     4  10  21  40  64  88 118 159 203 245 298 360
#     4  10  23  40  59  85 121 162 203 249 300 353
#     4  11  24  41  64  93 122 155 200 248 294 354
#     4  11  22  39  61  89 121 158 203 250 297 353
#     4  10  21  41  63  86 121 163 200 244 303 359
#     4  10  23  42  64  90 121 159 196 240 303 360
#
# _framework density 18.601388
#
# number of rings (size 3 to 8) (size 9 to 14) (size 15 to 20)
#    0.000    1.667    1.667    2.000    2.333    6.000 
#    0.000    0.000    0.000    0.000    0.000    0.000 
#    0.000    0.000    0.000    0.000    0.000    0.000 
#
# Total GULP energy -268115.266480 kJ/mol
# GULP energy per Si atom -5585.734718 kJ/mol
# Density = 1.855905 g / cm^3
# Si number density = 18.601388 Si / 1000 Ang^3
#
#
#
# Elastic Constant Matrix: (Units=GPa)
#
#
# Indices 1 2 3 4 5 6 
#
# 1 47.3556 24.1701 26.9194 0.0000 0.0000 0.0000
# 2 24.1701 52.4581 59.9558 0.0000 0.0000 0.0000
# 3 26.9194 59.9558 115.6210 0.0000 0.0000 0.0000
# 4 0.0000 0.0000 0.0000 38.9706 0.0000 0.0000
# 5 0.0000 0.0000 0.0000 0.0000 28.5094 0.0000
# 6 0.0000 0.0000 0.0000 0.0000 0.0000 30.9639
#
#
#
# Elastic Compliance Matrix: (Units=1/GPa)
#
#
# Indices 1 2 3 4 5 6 
#
# 1 0.027618 -0.013198 0.000414 0.000000 0.000000 0.000000
# 2 -0.013198 0.053106 -0.024466 0.000000 0.000000 0.000000
# 3 0.000414 -0.024466 0.021240 0.000000 0.000000 0.000000
# 4 0.000000 0.000000 0.000000 0.025660 0.000000 0.000000
# 5 0.000000 0.000000 0.000000 0.000000 0.035076 0.000000
# 6 0.000000 0.000000 0.000000 0.000000 0.000000 0.032296
#
#
# Mechanical properties :
#
#
# Convention : Reuss Voigt Hill
#
# Bulk Modulus (GPa) = 36.41136 48.61391 42.51263
# Shear Modulus (GPa) = 17.94366 26.64808 22.29587
#
# Velocity S-wave (km/s) = 3.10924 3.78906 3.46586
# Velocity P-wave (km/s) = 5.70148 6.73305 6.23862
#
# Compressibility (1/GPa) = 0.02746395
#
# Stress axis : x y z
#
# Youngs Moduli (GPa) = 36.20864 18.83016 47.08207
#
# Poissons Ratio (x) = 0.24851 -0.01947
# Poissons Ratio (y) = 0.47787 1.15190
# Poissons Ratio (z) = -0.01498 0.46069
#
# Static dielectric constant tensor:
#      x y z
#    x 1.622000 0.000000 0.000000 
#    y 0.000000 1.619470 0.000000 
#    z 0.000000 0.000000 1.618800 
# 
# From -- ./inp_files/10224.got.cif
#   From: 2010.05.17/outbox.cif.g08.bks.cpg/sg62_6_cif.got.tgz:10224.got - 2010.06.03 15:25:27.
