data_PCOD9466109
_publ_section_title
;
Structure prediction by ZEFSAII (Michael W. Deem and Ramdas Pophale) SiO2 
 PCOD9466109
Probable space group: P N M A
;
_chemical_formula_sum "Si O2"
_cell_formula_units_Z 56
_cell_length_a 28.112219
_cell_length_b 15.466082
_cell_length_c 5.854526
_cell_angle_alpha 90.000000
_cell_angle_beta 90.000000
_cell_angle_gamma 90.000000
_cell_volume 2545.465264
_symmetry_space_group_name_H-M "P N M A"
_symmetry_group_IT_number 62
_symmetry_cell_setting 'orthorhombic'
loop_
_space_group_symop_operation_xyz
x,y,z
1/2-x,-y,1/2+z
1/2+x,1/2-y,1/2-z
-x,1/2+y,-z
-x,-y,-z
1/2+x,y,1/2-z
1/2-x,1/2+y,1/2+z
x,1/2-y,z
loop_
_atom_site_type_symbol
_atom_site_label
_atom_site_fract_x
_atom_site_fract_y
_atom_site_fract_z
Si Si1 0.857466 0.900293 0.062169
Si Si2 0.223120 0.651700 0.022633
Si Si3 0.397909 0.510357 0.048045
Si Si4 0.127466 0.588967 0.154784
Si Si5 0.533273 0.577620 0.587409
Si Si6 0.559058 0.343166 0.264684
Si Si7 0.747118 0.350099 0.477579
O O1 0.905055 0.852391 0.978946
O O2 0.810043 0.853861 0.984885
O O3 0.858976 0.995172 0.948679
O O4 0.861841 0.924439 0.326980
O O5 0.242535 0.750000 0.020161
O O6 0.166126 0.651639 0.050445
O O7 0.238691 0.611967 0.270505
O O8 0.236537 0.613571 0.771887
O O9 0.434829 0.464784 0.215723
O O10 0.370980 0.432431 0.922018
O O11 0.427944 0.573435 0.885245
O O12 0.072935 0.608727 0.092077
O O13 0.500000 0.500000 0.500000
O O14 0.495710 0.648522 0.665251
O O15 0.567872 0.250000 0.153226
O O16 0.764256 0.250000 0.480916
#
# Coordination Sequence:
#
# PCOD9466109 Si02
#       7
#     8   8   8   8   8   8   8
#     4  10  22  39  62  92 125 163 207 264 320 390
#     4  10  24  44  65  93 130 170 216 269 326 384
#     4  10  21  39  63  89 123 169 212 260 328 386
#     4  10  23  38  66  90 119 168 214 267 317 388
#     4  11  20  41  62  85 124 170 208 259 329 392
#     4  11  23  37  60  94 125 160 211 266 320 392
#     4  10  23  42  65  92 130 172 207 264 333 385
#
# _framework density 21.999907
#
# number of rings (size 3 to 8) (size 9 to 14) (size 15 to 20)
#    0.000    1.714    4.286    0.857    8.000    2.857 
#    0.000    0.714    0.000    0.000    0.000    0.000 
#    0.000    0.000    0.000    0.000    0.000    0.000 
#
# Total GULP energy -311971.180633 kJ/mol
# GULP energy per Si atom -5570.913940 kJ/mol
# Density = 2.194983 g / cm^3
# Si number density = 21.999907 Si / 1000 Ang^3
#
#
#
# Elastic Constant Matrix: (Units=GPa)
#
#
# Indices 1 2 3 4 5 6 
#
# 1 105.0368 1.0118 47.2829 0.0000 0.0000 0.0000
# 2 1.0118 47.7347 3.6990 0.0000 0.0000 0.0000
# 3 47.2829 3.6990 134.4098 0.0000 0.0000 0.0000
# 4 0.0000 0.0000 0.0000 7.4442 0.0000 0.0000
# 5 0.0000 0.0000 0.0000 0.0000 29.9754 0.0000
# 6 0.0000 0.0000 0.0000 0.0000 0.0000 30.6326
#
#
#
# Elastic Compliance Matrix: (Units=1/GPa)
#
#
# Indices 1 2 3 4 5 6 
#
# 1 0.011312 0.000069 -0.003981 0.000000 0.000000 0.000000
# 2 0.000069 0.020994 -0.000602 0.000000 0.000000 0.000000
# 3 -0.003981 -0.000602 0.008857 0.000000 0.000000 0.000000
# 4 0.000000 0.000000 0.000000 0.134332 0.000000 0.000000
# 5 0.000000 0.000000 0.000000 0.000000 0.033361 0.000000
# 6 0.000000 0.000000 0.000000 0.000000 0.000000 0.032645
#
#
# Mechanical properties :
#
#
# Convention : Reuss Voigt Hill
#
# Bulk Modulus (GPa) = 31.11929 43.46320 37.29125
# Shear Modulus (GPa) = 19.13937 29.28960 24.21448
#
# Velocity S-wave (km/s) = 2.95273 3.65273 3.32122
# Velocity P-wave (km/s) = 5.07944 6.13098 5.62981
#
# Compressibility (1/GPa) = 0.03213441
#
# Stress axis : x y z
#
# Youngs Moduli (GPa) = 88.40174 47.63193 112.90471
#
# Poissons Ratio (x) = -0.00327 0.44950
# Poissons Ratio (y) = -0.00608 0.06796
# Poissons Ratio (z) = 0.35195 0.02867
#
# Static dielectric constant tensor:
#      x y z
#    x 1.820000 0.000000 0.000000 
#    y 0.000000 1.818320 0.000000 
#    z 0.000000 0.000000 1.969760 
# 
# From -- ./inp_files/3597.got.cif
#   From: 2010.05.17/outbox.cif.g08.bks.cpg/sg62_2_cif.got.tgz:3597.got - 2010.06.03 15:25:27.
