data_PCOD9466537
_publ_section_title
;
Structure prediction by ZEFSAII (Michael W. Deem and Ramdas Pophale) SiO2 
 PCOD9466537
Probable space group: P N M A
;
_chemical_formula_sum "Si O2"
_cell_formula_units_Z 48
_cell_length_a 28.568856
_cell_length_b 9.058328
_cell_length_c 8.001068
_cell_angle_alpha 90.000000
_cell_angle_beta 90.000000
_cell_angle_gamma 90.000000
_cell_volume 2070.564929
_symmetry_space_group_name_H-M "P N M A"
_symmetry_group_IT_number 62
_symmetry_cell_setting 'orthorhombic'
loop_
_space_group_symop_operation_xyz
x,y,z
1/2-x,-y,1/2+z
1/2+x,1/2-y,1/2-z
-x,1/2+y,-z
-x,-y,-z
1/2+x,y,1/2-z
1/2-x,1/2+y,1/2+z
x,1/2-y,z
loop_
_atom_site_type_symbol
_atom_site_label
_atom_site_fract_x
_atom_site_fract_y
_atom_site_fract_z
Si Si1 0.239359 0.075013 0.426913
Si Si2 0.986266 0.581691 0.232237
Si Si3 0.351063 0.923866 0.125498
Si Si4 0.597704 0.575725 0.569257
Si Si5 0.820953 0.574781 0.898927
Si Si6 0.065161 0.417218 0.402561
O O1 0.251283 0.250000 0.418420
O O2 0.202503 0.053016 0.577913
O O3 0.285328 0.979679 0.456943
O O4 0.208526 0.036275 0.265729
O O5 0.987471 0.750000 0.175302
O O6 0.953873 0.487454 0.108416
O O7 0.960585 0.577806 0.414975
O O8 0.037504 0.521988 0.277388
O O9 0.358012 0.750000 0.173209
O O10 0.381811 0.946375 0.957036
O O11 0.372836 0.028601 0.264784
O O12 0.596093 0.750000 0.549247
O O13 0.629019 0.501199 0.425477
O O14 0.827430 0.750000 0.903970
O O15 0.061174 0.250000 0.339079
#
# Coordination Sequence:
#
# PCOD9466537 Si02
#       6
#     8   8   8   8   8   8
#     4  10  22  39  58  80 105 136 173 212 258 311
#     4   9  16  27  45  71 104 139 174 215 260 303
#     4   9  18  34  55  79 109 141 174 215 261 308
#     4  11  21  33  52  78 107 139 177 218 260 309
#     4  11  23  38  56  78 105 136 171 213 260 310
#     4   8  14  25  44  72 104 137 171 210 257 304
#
# _framework density 23.182079999999999
#
# number of rings (size 3 to 8) (size 9 to 14) (size 15 to 20)
#    0.000    2.333    0.000    4.500    0.000    8.667 
#    0.000    0.000    0.000    1.000    0.000    0.000 
#    0.000    0.000    0.000    0.000    0.000    0.000 
#
# Total GULP energy -268490.663809 kJ/mol
# GULP energy per Si atom -5593.555496 kJ/mol
# Density = 2.312932 g / cm^3
# Si number density = 23.182080 Si / 1000 Ang^3
#
#
#
# Elastic Constant Matrix: (Units=GPa)
#
#
# Indices 1 2 3 4 5 6 
#
# 1 129.9393 40.1972 8.7049 0.0000 0.0000 0.0000
# 2 40.1972 77.5022 15.5910 0.0000 0.0000 0.0000
# 3 8.7049 15.5910 79.4249 0.0000 0.0000 0.0000
# 4 0.0000 0.0000 0.0000 13.9430 0.0000 0.0000
# 5 0.0000 0.0000 0.0000 0.0000 37.3116 0.0000
# 6 0.0000 0.0000 0.0000 0.0000 0.0000 57.2591
#
#
#
# Elastic Compliance Matrix: (Units=1/GPa)
#
#
# Indices 1 2 3 4 5 6 
#
# 1 0.009167 -0.004740 -0.000074 0.000000 0.000000 0.000000
# 2 -0.004740 0.015884 -0.002599 0.000000 0.000000 0.000000
# 3 -0.000074 -0.002599 0.013109 0.000000 0.000000 0.000000
# 4 0.000000 0.000000 0.000000 0.071721 0.000000 0.000000
# 5 0.000000 0.000000 0.000000 0.000000 0.026801 0.000000
# 6 0.000000 0.000000 0.000000 0.000000 0.000000 0.017464
#
#
# Mechanical properties :
#
#
# Convention : Reuss Voigt Hill
#
# Bulk Modulus (GPa) = 42.85458 46.20585 44.53021
# Shear Modulus (GPa) = 28.28865 36.52763 32.40814
#
# Velocity S-wave (km/s) = 3.49704 3.97379 3.74302
# Velocity P-wave (km/s) = 5.90186 6.40544 6.15880
#
# Compressibility (1/GPa) = 0.02333473
#
# Stress axis : x y z
#
# Youngs Moduli (GPa) = 109.08569 62.95704 76.28501
#
# Poissons Ratio (x) = 0.29839 0.00567
# Poissons Ratio (y) = 0.51703 0.19823
# Poissons Ratio (z) = 0.00811 0.16359
#
# Static dielectric constant tensor:
#      x y z
#    x 1.866940 0.000000 0.000000 
#    y 0.000000 1.777880 0.000000 
#    z 0.000000 0.000000 1.947400 
# 
# From -- ./inp_files/10231.got.cif
#   From: 2010.05.17/outbox.cif.g08.bks.cpg/sg62_6_cif.got.tgz:10231.got - 2010.06.03 15:25:27.
