data_PCOD9466116
_publ_section_title
;
Structure prediction by ZEFSAII (Michael W. Deem and Ramdas Pophale) SiO2 
 PCOD9466116
Probable space group: P N M A
;
_chemical_formula_sum "Si O2"
_cell_formula_units_Z 40
_cell_length_a 5.173353
_cell_length_b 13.605158
_cell_length_c 26.949641
_cell_angle_alpha 90.000000
_cell_angle_beta 90.000000
_cell_angle_gamma 90.000000
_cell_volume 1896.831212
_symmetry_space_group_name_H-M "P N M A"
_symmetry_group_IT_number 62
_symmetry_cell_setting 'orthorhombic'
loop_
_space_group_symop_operation_xyz
x,y,z
1/2-x,-y,1/2+z
1/2+x,1/2-y,1/2-z
-x,1/2+y,-z
-x,-y,-z
1/2+x,y,1/2-z
1/2-x,1/2+y,1/2+z
x,1/2-y,z
loop_
_atom_site_type_symbol
_atom_site_label
_atom_site_fract_x
_atom_site_fract_y
_atom_site_fract_z
Si Si1 0.695803 0.453632 0.039188
Si Si2 0.938572 0.250000 0.781282
Si Si3 0.705591 0.441290 0.150076
Si Si4 0.062259 0.859453 0.049318
Si Si5 0.222349 0.568471 0.150752
Si Si6 0.144069 0.250000 0.282869
O O1 0.619405 0.416422 0.093315
O O2 0.871281 0.548433 0.050895
O O3 0.500000 0.500000 0.000000
O O4 0.824694 0.368981 0.005993
O O5 0.735006 0.250000 0.735936
O O6 0.873179 0.154434 0.813600
O O7 0.493691 0.521748 0.166745
O O8 0.688748 0.346552 0.184205
O O9 0.994527 0.486541 0.150508
O O10 0.955092 0.750000 0.057067
O O11 0.250735 0.884522 0.095415
O O12 0.356467 0.250000 0.239310
#
# Coordination Sequence:
#
# PCOD9466116 Si02
#       6
#     8   4   8   8   8   4
#     4  10  21  40  61 100 133 171 219 266 332 402
#     4  12  26  42  65  99 128 164 222 272 328 402
#     4  11  25  44  71  98 134 174 224 285 329 400
#     4  10  21  39  63  93 137 176 212 262 329 408
#     4  11  23  44  67  97 136 173 214 271 341 398
#     4  12  28  50  71  99 130 180 242 286 344 400
#
# _framework density 21.087800000000001
#
# number of rings (size 3 to 8) (size 9 to 14) (size 15 to 20)
#    0.000    1.200    3.000    2.400    1.400    5.600 
#    1.800    0.000    0.000    0.000    0.000    0.000 
#    0.000    0.000    0.000    0.000    0.000    0.000 
#
# Total GULP energy -223265.689553 kJ/mol
# GULP energy per Si atom -5581.642239 kJ/mol
# Density = 2.103980 g / cm^3
# Si number density = 21.087800 Si / 1000 Ang^3
#
#
#
# Elastic Constant Matrix: (Units=GPa)
#
#
# Indices 1 2 3 4 5 6 
#
# 1 40.4245 -5.7173 -16.3484 0.0000 0.0000 0.0000
# 2 -5.7173 100.1521 33.0307 0.0000 0.0000 0.0000
# 3 -16.3484 33.0307 64.0113 0.0000 0.0000 0.0000
# 4 0.0000 0.0000 0.0000 31.1093 0.0000 0.0000
# 5 0.0000 0.0000 0.0000 0.0000 35.1492 0.0000
# 6 0.0000 0.0000 0.0000 0.0000 0.0000 11.4824
#
#
#
# Elastic Compliance Matrix: (Units=1/GPa)
#
#
# Indices 1 2 3 4 5 6 
#
# 1 0.027655 -0.000905 0.007530 0.000000 0.000000 0.000000
# 2 -0.000905 0.012062 -0.006455 0.000000 0.000000 0.000000
# 3 0.007530 -0.006455 0.020876 0.000000 0.000000 0.000000
# 4 0.000000 0.000000 0.000000 0.032145 0.000000 0.000000
# 5 0.000000 0.000000 0.000000 0.000000 0.028450 0.000000
# 6 0.000000 0.000000 0.000000 0.000000 0.000000 0.087090
#
#
# Mechanical properties :
#
#
# Convention : Reuss Voigt Hill
#
# Bulk Modulus (GPa) = 16.41145 25.16863 20.79004
# Shear Modulus (GPa) = 21.90586 28.45637 25.18112
#
# Velocity S-wave (km/s) = 3.22653 3.67744 3.45934
# Velocity P-wave (km/s) = 4.65618 5.47654 5.08293
#
# Compressibility (1/GPa) = 0.06093305
#
# Stress axis : x y z
#
# Youngs Moduli (GPa) = 36.16014 82.90393 47.90102
#
# Poissons Ratio (x) = 0.07500 -0.36069
# Poissons Ratio (y) = 0.03271 0.30921
# Poissons Ratio (z) = -0.27228 0.53517
#
# Static dielectric constant tensor:
#      x y z
#    x 1.815000 0.000000 0.000000 
#    y 0.000000 1.807980 0.000000 
#    z 0.000000 0.000000 1.870110 
# 
# From -- ./inp_files/30275.got.cif
#   From: 2010.05.17/outbox.cif.g08.bks.cpg/sg62_16_cif.got.tgz:30275.got - 2010.06.03 15:25:27.
