data_PCOD9466937
_publ_section_title
;
Structure prediction by ZEFSAII (Michael W. Deem and Ramdas Pophale) SiO2 
 PCOD9466937
Probable space group: P N M A
;
_chemical_formula_sum "Si O2"
_cell_formula_units_Z 64
_cell_length_a 10.864981
_cell_length_b 30.979680
_cell_length_c 9.096496
_cell_angle_alpha 90.000000
_cell_angle_beta 90.000000
_cell_angle_gamma 90.000000
_cell_volume 3061.822651
_symmetry_space_group_name_H-M "P N M A"
_symmetry_group_IT_number 62
_symmetry_cell_setting 'orthorhombic'
loop_
_space_group_symop_operation_xyz
x,y,z
1/2-x,-y,1/2+z
1/2+x,1/2-y,1/2-z
-x,1/2+y,-z
-x,-y,-z
1/2+x,y,1/2-z
1/2-x,1/2+y,1/2+z
x,1/2-y,z
loop_
_atom_site_type_symbol
_atom_site_label
_atom_site_fract_x
_atom_site_fract_y
_atom_site_fract_z
Si Si1 0.086768 0.443411 0.181811
Si Si2 0.954086 0.408601 0.637000
Si Si3 0.201116 0.298930 0.872070
Si Si4 0.878627 0.970736 0.498506
Si Si5 0.573155 0.672107 0.339884
Si Si6 0.370931 0.112277 0.392331
Si Si7 0.737979 0.877332 0.913049
Si Si8 0.362382 0.468292 0.622459
O O1 0.148603 0.455266 0.337027
O O2 0.169494 0.417516 0.066128
O O3 0.044959 0.491063 0.131265
O O4 0.980988 0.408279 0.203797
O O5 0.966467 0.369700 0.747660
O O6 0.885431 0.391628 0.494728
O O7 0.874300 0.444689 0.721774
O O8 0.083632 0.428970 0.595510
O O9 0.229831 0.250000 0.919000
O O10 0.301999 0.310264 0.741888
O O11 0.054130 0.300657 0.835164
O O12 0.219405 0.334529 0.000907
O O13 0.765801 0.991819 0.414637
O O14 0.000000 0.000000 0.500000
O O15 0.602508 0.653358 0.502929
O O16 0.276058 0.125958 0.263788
O O17 0.359804 0.071352 0.506129
#
# Coordination Sequence:
#
# PCOD9466937 Si02
#       8
#     8   8   8   8   8   8   8   8
#     4  12  23  38  61  89 128 178 226 277 326 381
#     4  10  23  39  60  89 127 176 222 269 323 390
#     4  11  24  48  75 106 134 166 216 280 348 425
#     4  12  23  39  56  85 126 175 226 281 319 368
#     4  10  24  43  74 103 134 174 219 272 344 413
#     4  11  23  43  62  93 133 179 222 276 327 395
#     4  11  23  41  67  92 130 173 219 271 343 401
#     4  11  25  36  59  87 127 174 233 271 314 378
#
# _framework density 20.902581999999999
#
# number of rings (size 3 to 8) (size 9 to 14) (size 15 to 20)
#    0.000    1.000    5.000    1.500    5.250    0.000 
#    0.000    1.250    0.000    0.000    0.000    0.000 
#    0.000    0.000    0.000    0.000    0.000    0.000 
#
# Total GULP energy -356285.403846 kJ/mol
# GULP energy per Si atom -5566.959435 kJ/mol
# Density = 2.085501 g / cm^3
# Si number density = 20.902582 Si / 1000 Ang^3
#
#
#
# Elastic Constant Matrix: (Units=GPa)
#
#
# Indices 1 2 3 4 5 6 
#
# 1 43.6211 23.1139 19.7642 0.0000 0.0000 0.0000
# 2 23.1139 123.4329 41.6336 0.0000 0.0000 0.0000
# 3 19.7642 41.6336 120.6190 0.0000 0.0000 0.0000
# 4 0.0000 0.0000 0.0000 -2.9077 0.0000 0.0000
# 5 0.0000 0.0000 0.0000 0.0000 7.4985 0.0000
# 6 0.0000 0.0000 0.0000 0.0000 0.0000 23.8503
#
#
#
# Elastic Compliance Matrix: (Units=1/GPa)
#
#
# Indices 1 2 3 4 5 6 
#
# 1 0.026351 -0.003936 -0.002959 0.000000 0.000000 0.000000
# 2 -0.003936 0.009757 -0.002723 0.000000 0.000000 0.000000
# 3 -0.002959 -0.002723 0.009715 0.000000 0.000000 0.000000
# 4 0.000000 0.000000 0.000000 -0.343920 0.000000 0.000000
# 5 0.000000 0.000000 0.000000 0.000000 0.133360 0.000000
# 6 0.000000 0.000000 0.000000 0.000000 0.000000 0.041928
#
#
# Mechanical properties :
#
#
# Convention : Reuss Voigt Hill
#
# Bulk Modulus (GPa) = 37.61246 50.74407 44.17826
# Shear Modulus (GPa) = -52.79326 19.23231 -16.78047
#
# Velocity S-wave (km/s) = -5.03107 3.03659 -2.83644
# Velocity P-wave (km/s) = 3.96429 6.05175 3.23327
#
# Compressibility (1/GPa) = 0.02658694
#
# Stress axis : x y z
#
# Youngs Moduli (GPa) = 37.94887 102.48955 102.93085
#
# Poissons Ratio (x) = 0.40344 0.30458
# Poissons Ratio (y) = 0.14938 0.28026
# Poissons Ratio (z) = 0.11230 0.27906
#
# Static dielectric constant tensor:
#      x y z
#    x 1.866430 0.000000 0.000000 
#    y 0.000000 1.758520 0.000000 
#    z 0.000000 0.000000 1.805880 
# 
# From -- ./inp_files/5510.got.cif
#   From: 2010.05.17/outbox.cif.g08.bks.cpg/sg62_3_cif.got.tgz:5510.got - 2010.06.03 15:25:27.
