data_PCOD9466327
_publ_section_title
;
Structure prediction by ZEFSAII (Michael W. Deem and Ramdas Pophale) SiO2 
 PCOD9466327
Probable space group: P N M A
;
_chemical_formula_sum "Si O2"
_cell_formula_units_Z 48
_cell_length_a 11.288477
_cell_length_b 15.577713
_cell_length_c 13.290647
_cell_angle_alpha 90.000000
_cell_angle_beta 90.000000
_cell_angle_gamma 90.000000
_cell_volume 2337.142398
_symmetry_space_group_name_H-M "P N M A"
_symmetry_group_IT_number 62
_symmetry_cell_setting 'orthorhombic'
loop_
_space_group_symop_operation_xyz
x,y,z
1/2-x,-y,1/2+z
1/2+x,1/2-y,1/2-z
-x,1/2+y,-z
-x,-y,-z
1/2+x,y,1/2-z
1/2-x,1/2+y,1/2+z
x,1/2-y,z
loop_
_atom_site_type_symbol
_atom_site_label
_atom_site_fract_x
_atom_site_fract_y
_atom_site_fract_z
Si Si1 0.273034 0.157113 0.035169
Si Si2 0.783700 0.444265 0.851397
Si Si3 0.545912 0.559527 0.859169
Si Si4 0.681553 0.651706 0.549462
Si Si5 0.444407 0.599235 0.640679
Si Si6 0.800333 0.481885 0.624764
O O1 0.265112 0.250000 0.987576
O O2 0.404305 0.138313 0.076295
O O3 0.177867 0.150766 0.125552
O O4 0.245681 0.081868 0.956504
O O5 0.660783 0.497684 0.856378
O O6 0.782223 0.369974 0.934291
O O7 0.898018 0.502749 0.879847
O O8 0.797101 0.434105 0.731730
O O9 0.501183 0.594751 0.751422
O O10 0.435642 0.505459 0.899642
O O11 0.712883 0.750000 0.575599
O O12 0.541490 0.637834 0.566437
O O13 0.737756 0.575169 0.617689
#
# Coordination Sequence:
#
# PCOD9466327 Si02
#       6
#     8   8   8   8   8   8
#     4  11  24  39  63  94 128 169 215 265 322 388
#     4  10  22  41  68  89 124 172 210 264 319 380
#     4  10  21  41  64  90 124 169 213 258 325 379
#     4  12  24  39  65  98 127 165 214 264 318 383
#     4  10  21  42  64  91 125 165 213 268 320 379
#     4  11  23  42  66  90 129 171 210 263 324 383
#
# _framework density 20.537901000000002
#
# number of rings (size 3 to 8) (size 9 to 14) (size 15 to 20)
#    0.000    1.333    5.000    1.500    0.000    2.667 
#    0.000    2.500    0.000    1.000    0.000    0.000 
#    0.000    0.000    0.000    0.000    0.000    0.000 
#
# Total GULP energy -267462.100641 kJ/mol
# GULP energy per Si atom -5572.127097 kJ/mol
# Density = 2.049116 g / cm^3
# Si number density = 20.537901 Si / 1000 Ang^3
#
#
#
# Elastic Constant Matrix: (Units=GPa)
#
#
# Indices 1 2 3 4 5 6 
#
# 1 70.3778 13.2389 7.1638 0.0000 0.0000 0.0000
# 2 13.2389 97.3914 23.6201 0.0000 0.0000 0.0000
# 3 7.1638 23.6201 86.8170 0.0000 0.0000 0.0000
# 4 0.0000 0.0000 0.0000 8.6971 0.0000 0.0000
# 5 0.0000 0.0000 0.0000 0.0000 32.9355 0.0000
# 6 0.0000 0.0000 0.0000 0.0000 0.0000 8.7196
#
#
#
# Elastic Compliance Matrix: (Units=1/GPa)
#
#
# Indices 1 2 3 4 5 6 
#
# 1 0.014623 -0.001815 -0.000713 0.000000 0.000000 0.000000
# 2 -0.001815 0.011218 -0.002902 0.000000 0.000000 0.000000
# 3 -0.000713 -0.002902 0.012367 0.000000 0.000000 0.000000
# 4 0.000000 0.000000 0.000000 0.114981 0.000000 0.000000
# 5 0.000000 0.000000 0.000000 0.000000 0.030362 0.000000
# 6 0.000000 0.000000 0.000000 0.000000 0.000000 0.114685
#
#
# Mechanical properties :
#
#
# Convention : Reuss Voigt Hill
#
# Bulk Modulus (GPa) = 36.56566 38.07021 37.31793
# Shear Modulus (GPa) = 15.71277 24.10801 19.91039
#
# Velocity S-wave (km/s) = 2.76898 3.42984 3.11697
# Velocity P-wave (km/s) = 5.29770 5.85336 5.58245
#
# Compressibility (1/GPa) = 0.02734807
#
# Stress axis : x y z
#
# Youngs Moduli (GPa) = 68.38551 89.13872 80.86065
#
# Poissons Ratio (x) = 0.16178 0.05764
# Poissons Ratio (y) = 0.12411 0.23469
# Poissons Ratio (z) = 0.04875 0.25872
#
# Static dielectric constant tensor:
#      x y z
#    x 1.751110 0.000000 0.000000 
#    y 0.000000 1.763660 0.000000 
#    z 0.000000 0.000000 1.782970 
# 
# From -- ./inp_files/18011.got.cif
#   From: 2010.05.17/outbox.cif.g08.bks.cpg/sg62_10_cif.got.tgz:18011.got - 2010.06.03 15:25:27.
