data_PCOD9466105
_publ_section_title
;
Structure prediction by ZEFSAII (Michael W. Deem and Ramdas Pophale) SiO2 
 PCOD9466105
Probable space group: P N M A
;
_chemical_formula_sum "Si O2"
_cell_formula_units_Z 48
_cell_length_a 19.154199
_cell_length_b 8.554095
_cell_length_c 15.319746
_cell_angle_alpha 90.000000
_cell_angle_beta 90.000000
_cell_angle_gamma 90.000000
_cell_volume 2510.091939
_symmetry_space_group_name_H-M "P N M A"
_symmetry_group_IT_number 62
_symmetry_cell_setting 'orthorhombic'
loop_
_space_group_symop_operation_xyz
x,y,z
1/2-x,-y,1/2+z
1/2+x,1/2-y,1/2-z
-x,1/2+y,-z
-x,-y,-z
1/2+x,y,1/2-z
1/2-x,1/2+y,1/2+z
x,1/2-y,z
loop_
_atom_site_type_symbol
_atom_site_label
_atom_site_fract_x
_atom_site_fract_y
_atom_site_fract_z
Si Si1 0.019765 0.937689 0.595327
Si Si2 0.083813 0.939216 0.256494
Si Si3 0.324206 0.438572 0.144948
Si Si4 0.713416 0.060724 0.501909
Si Si5 0.936212 0.062609 0.942641
Si Si6 0.740881 0.561477 0.195048
O O1 0.018889 0.750000 0.593099
O O2 0.098023 0.990166 0.620447
O O3 0.000000 0.000000 0.500000
O O4 0.966264 0.996477 0.668587
O O5 0.082234 0.750000 0.259892
O O6 0.061022 0.988215 0.159101
O O7 0.163603 0.989779 0.275060
O O8 0.323966 0.250000 0.146206
O O9 0.297774 0.499805 0.237381
O O10 0.268355 0.489941 0.071982
O O11 0.709977 0.250000 0.500578
O O12 0.741130 0.012075 0.596852
O O13 0.637272 0.995080 0.481251
O O14 0.937646 0.250000 0.943844
O O15 0.000000 0.000000 0.000000
O O16 0.741336 0.750000 0.197193
#
# Coordination Sequence:
#
# PCOD9466105 Si02
#       6
#     8   8   8   8   8   8
#     4  11  24  41  63  92 125 162 203 251 303 362
#     4  10  22  42  64  89 124 164 204 249 303 362
#     4  10  22  40  61  89 123 156 198 251 301 357
#     4  10  21  39  63  88 120 158 198 249 307 359
#     4  11  24  41  62  88 123 163 206 253 302 364
#     4  10  21  39  63  89 119 157 201 250 303 361
#
# _framework density 19.122806000000001
#
# number of rings (size 3 to 8) (size 9 to 14) (size 15 to 20)
#    0.000    1.667    1.667    2.000    2.333    6.667 
#    0.000    1.667    0.000    0.000    0.000    0.000 
#    0.000    0.000    0.000    0.000    0.000    0.000 
#
# Total GULP energy -268284.383675 kJ/mol
# GULP energy per Si atom -5589.257993 kJ/mol
# Density = 1.907928 g / cm^3
# Si number density = 19.122806 Si / 1000 Ang^3
#
#
#
# Elastic Constant Matrix: (Units=GPa)
#
#
# Indices 1 2 3 4 5 6 
#
# 1 115.5097 16.9827 40.4229 0.0000 0.0000 0.0000
# 2 16.9827 14.2866 20.8551 0.0000 0.0000 0.0000
# 3 40.4229 20.8551 136.6558 0.0000 0.0000 0.0000
# 4 0.0000 0.0000 0.0000 34.5679 0.0000 0.0000
# 5 0.0000 0.0000 0.0000 0.0000 42.6867 0.0000
# 6 0.0000 0.0000 0.0000 0.0000 0.0000 32.6634
#
#
#
# Elastic Compliance Matrix: (Units=1/GPa)
#
#
# Indices 1 2 3 4 5 6 
#
# 1 0.010750 -0.010469 -0.001582 0.000000 0.000000 0.000000
# 2 -0.010469 0.100254 -0.012203 0.000000 0.000000 0.000000
# 3 -0.001582 -0.012203 0.009648 0.000000 0.000000 0.000000
# 4 0.000000 0.000000 0.000000 0.028929 0.000000 0.000000
# 5 0.000000 0.000000 0.000000 0.000000 0.023427 0.000000
# 6 0.000000 0.000000 0.000000 0.000000 0.000000 0.030615
#
#
# Mechanical properties :
#
#
# Convention : Reuss Voigt Hill
#
# Bulk Modulus (GPa) = 13.86128 46.99706 30.42917
# Shear Modulus (GPa) = 18.10415 34.52968 26.31691
#
# Velocity S-wave (km/s) = 3.08024 4.25394 3.71375
# Velocity P-wave (km/s) = 4.46260 6.98268 5.85972
#
# Compressibility (1/GPa) = 0.07214340
#
# Stress axis : x y z
#
# Youngs Moduli (GPa) = 93.02131 9.97464 103.64877
#
# Poissons Ratio (x) = 0.10443 0.16399
# Poissons Ratio (y) = 0.97387 1.26482
# Poissons Ratio (z) = 0.14718 0.12172
#
# Static dielectric constant tensor:
#      x y z
#    x 1.633210 0.000000 0.000000 
#    y 0.000000 1.671040 0.000000 
#    z 0.000000 0.000000 1.632640 
# 
# From -- ./inp_files/19526.got.cif
#   From: 2010.05.17/outbox.cif.g08.bks.cpg/sg62_10_cif.got.tgz:19526.got - 2010.06.03 15:25:27.
