data_PCOD9466849
_publ_section_title
;
Structure prediction by ZEFSAII (Michael W. Deem and Ramdas Pophale) SiO2 
 PCOD9466849
Probable space group: P N M A
;
_chemical_formula_sum "Si O2"
_cell_formula_units_Z 40
_cell_length_a 8.317064
_cell_length_b 10.245206
_cell_length_c 22.527741
_cell_angle_alpha 90.000000
_cell_angle_beta 90.000000
_cell_angle_gamma 90.000000
_cell_volume 1919.589576
_symmetry_space_group_name_H-M "P N M A"
_symmetry_group_IT_number 62
_symmetry_cell_setting 'orthorhombic'
loop_
_space_group_symop_operation_xyz
x,y,z
1/2-x,-y,1/2+z
1/2+x,1/2-y,1/2-z
-x,1/2+y,-z
-x,-y,-z
1/2+x,y,1/2-z
1/2-x,1/2+y,1/2+z
x,1/2-y,z
loop_
_atom_site_type_symbol
_atom_site_label
_atom_site_fract_x
_atom_site_fract_y
_atom_site_fract_z
Si Si1 0.305803 0.511064 0.613455
Si Si2 0.313726 0.529267 0.374200
Si Si3 0.665862 0.250000 0.305048
Si Si4 0.643883 0.897992 0.004321
Si Si5 0.217176 0.750000 0.828059
Si Si6 0.310467 0.250000 0.790328
Si Si7 0.173006 0.250000 0.662961
O O1 0.494543 0.478517 0.617916
O O2 0.267190 0.620568 0.662984
O O3 0.264227 0.570436 0.549656
O O4 0.206329 0.379983 0.625604
O O5 0.233222 0.586130 0.433078
O O6 0.247653 0.383577 0.362470
O O7 0.271989 0.622595 0.319054
O O8 0.474792 0.250000 0.316471
O O9 0.699095 0.250000 0.235634
O O10 0.584666 0.750000 0.998580
O O11 0.500000 0.000000 0.000000
O O12 0.291253 0.250000 0.719806
O O13 0.494486 0.250000 0.810883
#
# Coordination Sequence:
#
# PCOD9466849 Si02
#       7
#     8   8   4   8   4   4   4
#     4  11  24  45  69  98 132 180 222 278 334 397
#     4  11  24  45  69  97 134 175 228 273 336 398
#     4  10  22  43  64  99 132 169 219 265 329 388
#     4  12  27  46  69 100 136 174 224 279 336 402
#     4  10  24  39  68  97 130 171 215 269 325 394
#     4  12  24  45  64 103 136 179 223 277 333 402
#     4  12  26  41  70  99 138 177 225 275 337 400
#
# _framework density 20.837786000000001
#
# number of rings (size 3 to 8) (size 9 to 14) (size 15 to 20)
#    0.000    0.800    2.000    4.800    2.800    6.400 
#    0.000    0.000    0.000    0.000    0.000    0.000 
#    0.000    0.000    0.000    0.000    0.000    0.000 
#
# Total GULP energy -224005.369693 kJ/mol
# GULP energy per Si atom -5600.134242 kJ/mol
# Density = 2.079036 g / cm^3
# Si number density = 20.837786 Si / 1000 Ang^3
#
#
#
# Elastic Constant Matrix: (Units=GPa)
#
#
# Indices 1 2 3 4 5 6 
#
# 1 15.2555 19.3960 -13.7511 0.0000 0.0000 0.0000
# 2 19.3960 162.8656 21.2858 0.0000 0.0000 0.0000
# 3 -13.7511 21.2858 76.3366 0.0000 0.0000 0.0000
# 4 0.0000 0.0000 0.0000 37.5979 0.0000 0.0000
# 5 0.0000 0.0000 0.0000 0.0000 30.0210 0.0000
# 6 0.0000 0.0000 0.0000 0.0000 0.0000 18.5706
#
#
#
# Elastic Compliance Matrix: (Units=1/GPa)
#
#
# Indices 1 2 3 4 5 6 
#
# 1 0.107071 -0.015850 0.023707 0.000000 0.000000 0.000000
# 2 -0.015850 0.008718 -0.005286 0.000000 0.000000 0.000000
# 3 0.023707 -0.005286 0.018844 0.000000 0.000000 0.000000
# 4 0.000000 0.000000 0.000000 0.026597 0.000000 0.000000
# 5 0.000000 0.000000 0.000000 0.000000 0.033310 0.000000
# 6 0.000000 0.000000 0.000000 0.000000 0.000000 0.053848
#
#
# Mechanical properties :
#
#
# Convention : Reuss Voigt Hill
#
# Bulk Modulus (GPa) = 7.15428 34.25764 20.70596
# Shear Modulus (GPa) = 17.25093 32.40638 24.82865
#
# Velocity S-wave (km/s) = 2.88039 3.94785 3.45559
# Velocity P-wave (km/s) = 3.80828 6.10381 5.08721
#
# Compressibility (1/GPa) = 0.13977648
#
# Stress axis : x y z
#
# Youngs Moduli (GPa) = 9.33959 114.69878 53.06599
#
# Poissons Ratio (x) = 1.81794 -1.25804
# Poissons Ratio (y) = 0.14803 0.28052
# Poissons Ratio (z) = -0.22142 0.60632
#
# Static dielectric constant tensor:
#      x y z
#    x 1.725430 0.000000 0.000000 
#    y 0.000000 1.734650 0.000000 
#    z 0.000000 0.000000 1.700520 
# 
# From -- ./inp_files/28664.got.cif
#   From: 2010.05.17/outbox.cif.g08.bks.cpg/sg62_15_cif.got.tgz:28664.got - 2010.06.03 15:25:27.
