data_PCOD9466446
_publ_section_title
;
Structure prediction by ZEFSAII (Michael W. Deem and Ramdas Pophale) SiO2 
 PCOD9466446
Probable space group: P N M A
;
_chemical_formula_sum "Si O2"
_cell_formula_units_Z 64
_cell_length_a 23.862871
_cell_length_b 8.703322
_cell_length_c 19.754463
_cell_angle_alpha 90.000000
_cell_angle_beta 90.000000
_cell_angle_gamma 90.000000
_cell_volume 4102.730344
_symmetry_space_group_name_H-M "P N M A"
_symmetry_group_IT_number 62
_symmetry_cell_setting 'orthorhombic'
loop_
_space_group_symop_operation_xyz
x,y,z
1/2-x,-y,1/2+z
1/2+x,1/2-y,1/2-z
-x,1/2+y,-z
-x,-y,-z
1/2+x,y,1/2-z
1/2-x,1/2+y,1/2+z
x,1/2-y,z
loop_
_atom_site_type_symbol
_atom_site_label
_atom_site_fract_x
_atom_site_fract_y
_atom_site_fract_z
Si Si1 0.936817 0.434948 0.144486
Si Si2 0.269698 0.436725 0.846454
Si Si3 0.934797 0.934146 0.869070
Si Si4 0.723361 0.065560 0.864753
Si Si5 0.663205 0.564884 0.281993
Si Si6 0.752571 0.565865 0.004270
Si Si7 0.621718 0.565405 0.503389
Si Si8 0.158185 0.064673 0.766134
O O1 0.935363 0.250000 0.147168
O O2 0.899121 0.499533 0.204931
O O3 0.001507 0.483844 0.145341
O O4 0.908288 0.481802 0.073300
O O5 0.269871 0.250000 0.845163
O O6 0.317128 0.484702 0.792970
O O7 0.209434 0.484004 0.815596
O O8 0.273846 0.485625 0.924102
O O9 0.933726 0.750000 0.874851
O O10 0.891923 0.987426 0.811156
O O11 0.912776 0.004989 0.939256
O O12 0.721081 0.250000 0.871555
O O13 0.783957 0.029405 0.831128
O O14 0.677030 0.018271 0.809380
O O15 0.720296 0.990304 0.937897
O O16 0.656457 0.750000 0.282752
O O17 0.755623 0.750000 0.004142
O O18 0.815574 0.500287 0.001087
O O19 0.624352 0.750000 0.500493
O O20 0.156360 0.250000 0.767574
#
# Coordination Sequence:
#
# PCOD9466446 Si02
#       8
#     8   8   8   8   8   8   8   8
#     4  10  22  35  47  67  97 128 162 205 240 272
#     4   8  16  30  48  70  95 122 154 194 237 281
#     4  11  22  34  47  68  96 127 165 203 237 273
#     4   9  18  31  48  70  98 126 155 193 237 283
#     4   9  17  32  50  67  92 126 159 193 236 282
#     4  11  19  29  49  74  97 125 157 193 236 280
#     4  11  21  33  46  65  95 132 166 194 229 274
#     4   9  17  32  51  69  92 126 161 195 234 282
#
# _framework density 15.599367000000001
#
# number of rings (size 3 to 8) (size 9 to 14) (size 15 to 20)
#    0.000    2.250    2.500    3.000    0.000    2.000 
#    0.000    3.125    0.000    0.000    0.000    0.875 
#    0.000    0.000    0.000    0.000    0.000    0.000 
#
# Total GULP energy -356947.899819 kJ/mol
# GULP energy per Si atom -5577.310935 kJ/mol
# Density = 1.556386 g / cm^3
# Si number density = 15.599367 Si / 1000 Ang^3
#
#
#
# Elastic Constant Matrix: (Units=GPa)
#
#
# Indices 1 2 3 4 5 6 
#
# 1 74.8299 17.9055 54.3336 0.0000 0.0000 0.0000
# 2 17.9055 18.8207 29.3059 0.0000 0.0000 0.0000
# 3 54.3336 29.3059 132.5026 0.0000 0.0000 0.0000
# 4 0.0000 0.0000 0.0000 23.3112 0.0000 0.0000
# 5 0.0000 0.0000 0.0000 0.0000 19.5713 0.0000
# 6 0.0000 0.0000 0.0000 0.0000 0.0000 22.7587
#
#
#
# Elastic Compliance Matrix: (Units=1/GPa)
#
#
# Indices 1 2 3 4 5 6 
#
# 1 0.020105 -0.009594 -0.006122 0.000000 0.000000 0.000000
# 2 -0.009594 0.085622 -0.015003 0.000000 0.000000 0.000000
# 3 -0.006122 -0.015003 0.013376 0.000000 0.000000 0.000000
# 4 0.000000 0.000000 0.000000 0.042898 0.000000 0.000000
# 5 0.000000 0.000000 0.000000 0.000000 0.051095 0.000000
# 6 0.000000 0.000000 0.000000 0.000000 0.000000 0.043939
#
#
# Mechanical properties :
#
#
# Convention : Reuss Voigt Hill
#
# Bulk Modulus (GPa) = 17.34201 47.69368 32.51784
# Shear Modulus (GPa) = 14.80631 21.43545 18.12088
#
# Velocity S-wave (km/s) = 3.08419 3.71094 3.41198
# Velocity P-wave (km/s) = 4.88101 7.00014 6.03432
#
# Compressibility (1/GPa) = 0.05766345
#
# Stress axis : x y z
#
# Youngs Moduli (GPa) = 49.73996 11.67928 74.76281
#
# Poissons Ratio (x) = 0.11205 0.45770
# Poissons Ratio (y) = 0.47722 1.12166
# Poissons Ratio (z) = 0.30451 0.17522
#
# Static dielectric constant tensor:
#      x y z
#    x 1.495660 0.000000 0.000000 
#    y 0.000000 1.528250 0.000000 
#    z 0.000000 0.000000 1.531640 
# 
# From -- ./inp_files/24962.got.cif
#   From: 2010.05.17/outbox.cif.g08.bks.cpg/sg62_13_cif.got.tgz:24962.got - 2010.06.03 15:25:27.
