data_PCOD9466879
_publ_section_title
;
Structure prediction by ZEFSAII (Michael W. Deem and Ramdas Pophale) SiO2 
 PCOD9466879
Probable space group: P N M A
;
_chemical_formula_sum "Si O2"
_cell_formula_units_Z 64
_cell_length_a 12.737332
_cell_length_b 8.603465
_cell_length_c 29.082837
_cell_angle_alpha 90.000000
_cell_angle_beta 90.000000
_cell_angle_gamma 90.000000
_cell_volume 3187.048220
_symmetry_space_group_name_H-M "P N M A"
_symmetry_group_IT_number 62
_symmetry_cell_setting 'orthorhombic'
loop_
_space_group_symop_operation_xyz
x,y,z
1/2-x,-y,1/2+z
1/2+x,1/2-y,1/2-z
-x,1/2+y,-z
-x,-y,-z
1/2+x,y,1/2-z
1/2-x,1/2+y,1/2+z
x,1/2-y,z
loop_
_atom_site_type_symbol
_atom_site_label
_atom_site_fract_x
_atom_site_fract_y
_atom_site_fract_z
Si Si1 0.484162 0.065335 0.856243
Si Si2 0.789266 0.435276 0.385626
Si Si3 0.490391 0.073640 0.243585
Si Si4 0.791889 0.576969 0.229979
Si Si5 0.369494 0.075470 0.688437
Si Si6 0.864137 0.063257 0.959106
Si Si7 0.098232 0.435631 0.938865
Si Si8 0.235381 0.066037 0.367184
O O1 0.477391 0.250000 0.861139
O O2 0.596339 0.006448 0.875072
O O3 0.479893 0.021172 0.802066
O O4 0.383424 0.984986 0.879759
O O5 0.797310 0.250000 0.385819
O O6 0.706426 0.490890 0.346935
O O7 0.735759 0.497642 0.432180
O O8 0.524576 0.250000 0.236620
O O9 0.366428 0.051604 0.247892
O O10 0.529663 0.014871 0.293414
O O11 0.842500 0.750000 0.230542
O O12 0.693846 0.586403 0.263725
O O13 0.761838 0.528145 0.179116
O O14 0.392941 0.250000 0.671658
O O15 0.857953 0.250000 0.963052
O O16 0.974144 0.026478 0.932667
O O17 0.874591 0.988026 0.009305
O O18 0.110063 0.250000 0.934165
O O19 0.177365 0.520094 0.904475
O O20 0.237757 0.250000 0.358596
#
# Coordination Sequence:
#
# PCOD9466879 Si02
#       8
#     8   8   8   8   8   8   8   8
#     4  12  24  42  63  87 124 169 213 256 313 373
#     4  12  25  41  64  94 127 164 212 261 313 370
#     4  12  24  38  58  85 120 161 208 262 314 365
#     4  11  23  39  60  85 121 166 211 255 308 368
#     4  11  23  39  60  85 121 166 211 255 308 368
#     4  10  22  43  70  98 129 163 203 252 313 374
#     4  10  22  43  70  98 129 163 203 252 313 374
#     4  12  25  41  64  94 127 164 212 261 313 370
#
# _framework density 20.081278999999999
#
# number of rings (size 3 to 8) (size 9 to 14) (size 15 to 20)
#    0.000    0.750    2.500    6.000    1.750    2.500 
#    0.000    0.625    0.000    0.000    0.000    0.000 
#    0.000    0.000    0.000    0.000    0.000    0.000 
#
# Total GULP energy -357724.415347 kJ/mol
# GULP energy per Si atom -5589.443990 kJ/mol
# Density = 2.003557 g / cm^3
# Si number density = 20.081279 Si / 1000 Ang^3
#
#
#
# Elastic Constant Matrix: (Units=GPa)
#
#
# Indices 1 2 3 4 5 6 
#
# 1 46.1710 -1.0690 9.2574 0.0000 0.0000 0.0000
# 2 -1.0690 91.3849 -3.7093 0.0000 0.0000 0.0000
# 3 9.2574 -3.7093 41.3051 0.0000 0.0000 0.0000
# 4 0.0000 0.0000 0.0000 29.3360 0.0000 0.0000
# 5 0.0000 0.0000 0.0000 0.0000 36.1616 0.0000
# 6 0.0000 0.0000 0.0000 0.0000 0.0000 26.6345
#
#
#
# Elastic Compliance Matrix: (Units=1/GPa)
#
#
# Indices 1 2 3 4 5 6 
#
# 1 0.022678 0.000059 -0.005077 0.000000 0.000000 0.000000
# 2 0.000059 0.010983 0.000973 0.000000 0.000000 0.000000
# 3 -0.005077 0.000973 0.025435 0.000000 0.000000 0.000000
# 4 0.000000 0.000000 0.000000 0.034088 0.000000 0.000000
# 5 0.000000 0.000000 0.000000 0.000000 0.027654 0.000000
# 6 0.000000 0.000000 0.000000 0.000000 0.000000 0.037545
#
#
# Mechanical properties :
#
#
# Convention : Reuss Voigt Hill
#
# Bulk Modulus (GPa) = 19.60549 20.86880 20.23715
# Shear Modulus (GPa) = 27.25162 30.05188 28.65175
#
# Velocity S-wave (km/s) = 3.68783 3.87267 3.78138
# Velocity P-wave (km/s) = 5.28373 5.51467 5.40043
#
# Compressibility (1/GPa) = 0.05100611
#
# Stress axis : x y z
#
# Youngs Moduli (GPa) = 44.09556 91.05052 39.31524
#
# Poissons Ratio (x) = -0.00539 0.19962
# Poissons Ratio (y) = -0.00261 -0.03826
# Poissons Ratio (z) = 0.22389 -0.08860
#
# Static dielectric constant tensor:
#      x y z
#    x 1.729800 0.000000 0.000000 
#    y 0.000000 1.703980 0.000000 
#    z 0.000000 0.000000 1.694180 
# 
# From -- ./inp_files/32507.got.cif
#   From: 2010.05.17/outbox.cif.g08.bks.cpg/sg62_17_cif.got.tgz:32507.got - 2010.06.03 15:25:27.
