data_PCOD9466605
_publ_section_title
;
Structure prediction by ZEFSAII (Michael W. Deem and Ramdas Pophale) SiO2 
 PCOD9466605
Probable space group: P N M A
;
_chemical_formula_sum "Si O2"
_cell_formula_units_Z 64
_cell_length_a 20.616839
_cell_length_b 17.367421
_cell_length_c 9.597959
_cell_angle_alpha 90.000000
_cell_angle_beta 90.000000
_cell_angle_gamma 90.000000
_cell_volume 3436.657894
_symmetry_space_group_name_H-M "P N M A"
_symmetry_group_IT_number 62
_symmetry_cell_setting 'orthorhombic'
loop_
_space_group_symop_operation_xyz
x,y,z
1/2-x,-y,1/2+z
1/2+x,1/2-y,1/2-z
-x,1/2+y,-z
-x,-y,-z
1/2+x,y,1/2-z
1/2-x,1/2+y,1/2+z
x,1/2-y,z
loop_
_atom_site_type_symbol
_atom_site_label
_atom_site_fract_x
_atom_site_fract_y
_atom_site_fract_z
Si Si1 0.732750 0.086276 0.274837
Si Si2 0.484214 0.340994 0.092052
Si Si3 0.493560 0.838033 0.232105
Si Si4 0.841751 0.157535 0.461713
Si Si5 0.147851 0.660454 0.224970
Si Si6 0.808419 0.041246 0.999647
Si Si7 0.905852 0.842496 0.801443
Si Si8 0.061887 0.451982 0.945209
O O1 0.785682 0.138219 0.354290
O O2 0.665139 0.130659 0.253503
O O3 0.719204 0.018547 0.386020
O O4 0.761204 0.057793 0.128288
O O5 0.478420 0.250000 0.125252
O O6 0.411206 0.373324 0.093276
O O7 0.538001 0.371501 0.196664
O O8 0.508518 0.346296 0.933971
O O9 0.472813 0.750000 0.267916
O O10 0.569463 0.844692 0.274040
O O11 0.455176 0.906190 0.305424
O O12 0.848379 0.250000 0.474872
O O13 0.830567 0.130162 0.621532
O O14 0.165756 0.750000 0.215780
O O15 0.175480 0.615496 0.093891
O O16 0.875624 0.006722 0.059641
O O17 0.907548 0.750000 0.812635
O O18 0.921026 0.884498 0.945629
O O19 0.000000 0.500000 0.000000
#
# Coordination Sequence:
#
# PCOD9466605 Si02
#       8
#     8   8   8   8   8   8   8   8
#     4  11  24  39  59  80 121 158 197 241 295 361
#     4   8  17  34  59  88 114 144 194 248 289 340
#     4   9  17  34  59  86 116 150 190 241 294 348
#     4   9  18  35  60  87 112 149 195 240 292 350
#     4   9  18  35  59  84 112 144 189 244 292 343
#     4  11  24  40  56  82 119 157 196 241 294 351
#     4  10  22  40  60  85 119 156 194 247 300 348
#     4  11  22  36  56  86 122 152 190 244 298 353
#
# _framework density 18.622743
#
# number of rings (size 3 to 8) (size 9 to 14) (size 15 to 20)
#    0.000    2.250    1.250    3.000    1.750    2.000 
#    0.000    0.625    0.000    6.750    0.000    0.000 
#    0.000    0.000    0.000    0.000    0.000    0.000 
#
# Total GULP energy -356981.602179 kJ/mol
# GULP energy per Si atom -5577.837534 kJ/mol
# Density = 1.858036 g / cm^3
# Si number density = 18.622743 Si / 1000 Ang^3
#
#
#
# Elastic Constant Matrix: (Units=GPa)
#
#
# Indices 1 2 3 4 5 6 
#
# 1 58.3454 7.6767 11.3576 0.0000 0.0000 0.0000
# 2 7.6767 38.4717 1.3527 0.0000 0.0000 0.0000
# 3 11.3576 1.3527 22.7475 0.0000 0.0000 0.0000
# 4 0.0000 0.0000 0.0000 24.8986 0.0000 0.0000
# 5 0.0000 0.0000 0.0000 0.0000 34.6103 0.0000
# 6 0.0000 0.0000 0.0000 0.0000 0.0000 18.6805
#
#
#
# Elastic Compliance Matrix: (Units=1/GPa)
#
#
# Indices 1 2 3 4 5 6 
#
# 1 0.019456 -0.003548 -0.009503 0.000000 0.000000 0.000000
# 2 -0.003548 0.026695 0.000184 0.000000 0.000000 0.000000
# 3 -0.009503 0.000184 0.048695 0.000000 0.000000 0.000000
# 4 0.000000 0.000000 0.000000 0.040163 0.000000 0.000000
# 5 0.000000 0.000000 0.000000 0.000000 0.028893 0.000000
# 6 0.000000 0.000000 0.000000 0.000000 0.000000 0.053532
#
#
# Mechanical properties :
#
#
# Convention : Reuss Voigt Hill
#
# Bulk Modulus (GPa) = 14.46944 17.81538 16.14241
# Shear Modulus (GPa) = 18.78252 22.24970 20.51611
#
# Velocity S-wave (km/s) = 3.17926 3.46028 3.32274
# Velocity P-wave (km/s) = 4.61124 5.05489 4.83816
#
# Compressibility (1/GPa) = 0.06911116
#
# Stress axis : x y z
#
# Youngs Moduli (GPa) = 51.39783 37.46068 20.53607
#
# Poissons Ratio (x) = 0.13292 0.19516
# Poissons Ratio (y) = 0.18237 -0.00378
# Poissons Ratio (z) = 0.48844 -0.00690
#
# Static dielectric constant tensor:
#      x y z
#    x 1.645210 0.000000 0.000000 
#    y 0.000000 1.651840 0.000000 
#    z 0.000000 0.000000 1.613010 
# 
# From -- ./inp_files/8907.got.cif
#   From: 2010.05.17/outbox.cif.g08.bks.cpg/sg62_5_cif.got.tgz:8907.got - 2010.06.03 15:25:27.
