data_PCOD9466671
_publ_section_title
;
Structure prediction by ZEFSAII (Michael W. Deem and Ramdas Pophale) SiO2 
 PCOD9466671
Probable space group: P N M A
;
_chemical_formula_sum "Si O2"
_cell_formula_units_Z 40
_cell_length_a 8.793432
_cell_length_b 23.338162
_cell_length_c 8.550134
_cell_angle_alpha 90.000000
_cell_angle_beta 90.000000
_cell_angle_gamma 90.000000
_cell_volume 1754.680222
_symmetry_space_group_name_H-M "P N M A"
_symmetry_group_IT_number 62
_symmetry_cell_setting 'orthorhombic'
loop_
_space_group_symop_operation_xyz
x,y,z
1/2-x,-y,1/2+z
1/2+x,1/2-y,1/2-z
-x,1/2+y,-z
-x,-y,-z
1/2+x,y,1/2-z
1/2-x,1/2+y,1/2+z
x,1/2-y,z
loop_
_atom_site_type_symbol
_atom_site_label
_atom_site_fract_x
_atom_site_fract_y
_atom_site_fract_z
Si Si1 0.763967 0.008894 0.258520
Si Si2 0.175638 0.316096 0.186625
Si Si3 0.480682 0.427904 0.808528
Si Si4 0.001753 0.816655 0.516071
Si Si5 0.996889 0.579361 0.934972
O O1 0.856683 0.054961 0.156330
O O2 0.639187 0.041317 0.361186
O O3 0.674987 0.961063 0.157239
O O4 0.884062 0.970731 0.354449
O O5 0.136723 0.250000 0.157589
O O6 0.345338 0.324863 0.121019
O O7 0.143473 0.325446 0.370759
O O8 0.056641 0.356839 0.101404
O O9 0.485267 0.424884 0.620094
O O10 0.494368 0.366098 0.886730
O O11 0.001875 0.750000 0.461550
#
# Coordination Sequence:
#
# PCOD9466671 Si02
#       5
#     8   8   8   8   8
#     4  10  22  40  65  97 135 177 213 260 324 392
#     4  10  22  42  67  96 129 168 212 260 325 400
#     4  11  24  43  67  99 132 168 220 276 320 374
#     4  10  23  44  70  97 128 168 215 268 326 386
#     4  11  23  41  67  99 133 173 220 266 321 384
#
# _framework density 22.796175999999999
#
# number of rings (size 3 to 8) (size 9 to 14) (size 15 to 20)
#    0.000    1.600    0.000    4.800    0.000    7.200 
#    0.000   12.000    0.000    0.000    0.000    0.000 
#    0.000    0.000    0.000    0.000    0.000    0.000 
#
# Total GULP energy -223817.827610 kJ/mol
# GULP energy per Si atom -5595.445690 kJ/mol
# Density = 2.274429 g / cm^3
# Si number density = 22.796176 Si / 1000 Ang^3
#
#
#
# Elastic Constant Matrix: (Units=GPa)
#
#
# Indices 1 2 3 4 5 6 
#
# 1 97.9696 60.8221 40.5007 0.0000 0.0000 0.0000
# 2 60.8221 146.9417 87.8125 0.0000 0.0000 0.0000
# 3 40.5007 87.8125 123.4942 0.0000 0.0000 0.0000
# 4 0.0000 0.0000 0.0000 49.0044 0.0000 0.0000
# 5 0.0000 0.0000 0.0000 0.0000 25.8760 0.0000
# 6 0.0000 0.0000 0.0000 0.0000 0.0000 25.3601
#
#
#
# Elastic Compliance Matrix: (Units=1/GPa)
#
#
# Indices 1 2 3 4 5 6 
#
# 1 0.013783 -0.005223 -0.000806 0.000000 0.000000 0.000000
# 2 -0.005223 0.013814 -0.008109 0.000000 0.000000 0.000000
# 3 -0.000806 -0.008109 0.014128 0.000000 0.000000 0.000000
# 4 0.000000 0.000000 0.000000 0.020406 0.000000 0.000000
# 5 0.000000 0.000000 0.000000 0.000000 0.038646 0.000000
# 6 0.000000 0.000000 0.000000 0.000000 0.000000 0.039432
#
#
# Mechanical properties :
#
#
# Convention : Reuss Voigt Hill
#
# Bulk Modulus (GPa) = 74.36406 82.96400 78.66403
# Shear Modulus (GPa) = 28.90679 31.99945 30.45312
#
# Velocity S-wave (km/s) = 3.56484 3.75069 3.65894
# Velocity P-wave (km/s) = 7.04530 7.43167 7.24106
#
# Compressibility (1/GPa) = 0.01344736
#
# Stress axis : x y z
#
# Youngs Moduli (GPa) = 72.55121 72.39201 70.78044
#
# Poissons Ratio (x) = 0.37814 0.05706
# Poissons Ratio (y) = 0.37897 0.57398
# Poissons Ratio (z) = 0.05848 0.58705
#
# Static dielectric constant tensor:
#      x y z
#    x 1.889700 0.000000 0.000000 
#    y 0.000000 1.851260 0.000000 
#    z 0.000000 0.000000 1.874970 
# 
# From -- ./inp_files/4285.got.cif
#   From: 2010.05.17/outbox.cif.g08.bks.cpg/sg62_3_cif.got.tgz:4285.got - 2010.06.03 15:25:27.
