data_PCOD9466811
_publ_section_title
;
Structure prediction by ZEFSAII (Michael W. Deem and Ramdas Pophale) SiO2 
 PCOD9466811
Probable space group: P N M A
;
_chemical_formula_sum "Si O2"
_cell_formula_units_Z 60
_cell_length_a 18.931228
_cell_length_b 22.705585
_cell_length_c 5.503580
_cell_angle_alpha 90.000000
_cell_angle_beta 90.000000
_cell_angle_gamma 90.000000
_cell_volume 2365.684179
_symmetry_space_group_name_H-M "P N M A"
_symmetry_group_IT_number 62
_symmetry_cell_setting 'orthorhombic'
loop_
_space_group_symop_operation_xyz
x,y,z
1/2-x,-y,1/2+z
1/2+x,1/2-y,1/2-z
-x,1/2+y,-z
-x,-y,-z
1/2+x,y,1/2-z
1/2-x,1/2+y,1/2+z
x,1/2-y,z
loop_
_atom_site_type_symbol
_atom_site_label
_atom_site_fract_x
_atom_site_fract_y
_atom_site_fract_z
Si Si1 0.226906 0.148291 0.952130
Si Si2 0.391369 0.894694 0.713671
Si Si3 0.190030 0.250000 0.655501
Si Si4 0.635102 0.819489 0.859123
Si Si5 0.932417 0.364691 0.868392
Si Si6 0.792061 0.958580 0.399762
Si Si7 0.953346 0.815583 0.428424
Si Si8 0.130297 0.987095 0.970949
O O1 0.151491 0.157670 0.080141
O O2 0.242151 0.198422 0.757135
O O3 0.287502 0.151476 0.151553
O O4 0.219100 0.087068 0.819644
O O5 0.331530 0.922799 0.891135
O O6 0.454242 0.865389 0.864435
O O7 0.407271 0.952035 0.551079
O O8 0.129085 0.300091 0.597095
O O9 0.643724 0.750000 0.883207
O O10 0.596006 0.831592 0.606245
O O11 0.601978 0.846102 0.107729
O O12 0.913825 0.432163 0.931235
O O13 0.012241 0.344109 0.809989
O O14 0.712245 0.980106 0.439708
O O15 0.850336 0.006956 0.315169
O O16 0.985781 0.750000 0.478757
#
# Coordination Sequence:
#
# PCOD9466811 Si02
#       8
#     8   8   4   8   8   8   8   8
#     4  11  23  40  68 107 138 181 242 313 381 437
#     4  11  24  41  69 101 139 191 246 300 371 439
#     4  10  22  42  68 102 134 182 236 308 360 432
#     4  12  26  45  73 107 149 186 242 313 377 447
#     4  12  28  49  72 109 145 204 248 296 371 441
#     4  11  20  41  63 100 141 183 232 310 375 438
#     4  10  24  48  72  97 145 195 248 301 356 448
#     4  11  24  37  72  99 145 186 243 303 373 440
#
# _framework density 25.362642999999998
#
# number of rings (size 3 to 8) (size 9 to 14) (size 15 to 20)
#    0.400    0.533    4.667    2.000    4.667    1.600 
#    2.400    0.667    0.000    0.000    0.000    0.000 
#    0.000    0.000    0.000    0.000    0.000    0.000 
#
# Total GULP energy -334145.466721 kJ/mol
# GULP energy per Si atom -5569.091112 kJ/mol
# Density = 2.530492 g / cm^3
# Si number density = 25.362643 Si / 1000 Ang^3
#
#
#
# Elastic Constant Matrix: (Units=GPa)
#
#
# Indices 1 2 3 4 5 6 
#
# 1 72.3126 11.5159 18.9374 0.0000 0.0000 0.0000
# 2 11.5159 125.2346 17.0906 0.0000 0.0000 0.0000
# 3 18.9374 17.0906 81.5710 0.0000 0.0000 0.0000
# 4 0.0000 0.0000 0.0000 19.0560 0.0000 0.0000
# 5 0.0000 0.0000 0.0000 0.0000 50.4663 0.0000
# 6 0.0000 0.0000 0.0000 0.0000 0.0000 -134.8338
#
#
#
# Elastic Compliance Matrix: (Units=1/GPa)
#
#
# Indices 1 2 3 4 5 6 
#
# 1 0.014826 -0.000920 -0.003249 0.000000 0.000000 0.000000
# 2 -0.000920 0.008277 -0.001521 0.000000 0.000000 0.000000
# 3 -0.003249 -0.001521 0.013332 0.000000 0.000000 0.000000
# 4 0.000000 0.000000 0.000000 0.052477 0.000000 0.000000
# 5 0.000000 0.000000 0.000000 0.000000 0.019815 0.000000
# 6 0.000000 0.000000 0.000000 0.000000 0.000000 -0.007417
#
#
# Mechanical properties :
#
#
# Convention : Reuss Voigt Hill
#
# Bulk Modulus (GPa) = 39.91078 41.57845 40.74461
# Shear Modulus (GPa) = 41.30769 2.37598 21.84184
#
# Velocity S-wave (km/s) = 4.04007 0.96894 2.93777
# Velocity P-wave (km/s) = 6.12643 4.20487 5.25424
#
# Compressibility (1/GPa) = 0.02505589
#
# Stress axis : x y z
#
# Youngs Moduli (GPa) = 67.44775 120.81486 75.00624
#
# Poissons Ratio (x) = 0.11114 0.24372
# Poissons Ratio (y) = 0.06205 0.11406
# Poissons Ratio (z) = 0.21916 0.18372
#
# Static dielectric constant tensor:
#      x y z
#    x 2.141450 0.000000 0.000000 
#    y 0.000000 1.823530 0.000000 
#    z 0.000000 0.000000 2.178110 
# 
# From -- ./inp_files/2347.got.cif
#   From: 2010.05.17/outbox.cif.g08.bks.cpg/sg62_2_cif.got.tgz:2347.got - 2010.06.03 15:25:27.
