data_PCOD9466035
_publ_section_title
;
Structure prediction by ZEFSAII (Michael W. Deem and Ramdas Pophale) SiO2 
 PCOD9466035
Probable space group: P N M A
;
_chemical_formula_sum "Si O2"
_cell_formula_units_Z 56
_cell_length_a 20.307406
_cell_length_b 8.981561
_cell_length_c 16.311521
_cell_angle_alpha 90.000000
_cell_angle_beta 90.000000
_cell_angle_gamma 90.000000
_cell_volume 2975.094294
_symmetry_space_group_name_H-M "P N M A"
_symmetry_group_IT_number 62
_symmetry_cell_setting 'orthorhombic'
loop_
_space_group_symop_operation_xyz
x,y,z
1/2-x,-y,1/2+z
1/2+x,1/2-y,1/2-z
-x,1/2+y,-z
-x,-y,-z
1/2+x,y,1/2-z
1/2-x,1/2+y,1/2+z
x,1/2-y,z
loop_
_atom_site_type_symbol
_atom_site_label
_atom_site_fract_x
_atom_site_fract_y
_atom_site_fract_z
Si Si1 0.392145 0.086896 0.872708
Si Si2 0.990847 0.080544 0.413936
Si Si3 0.213620 0.071281 0.129824
Si Si4 0.753403 0.077347 0.551618
Si Si5 0.911940 0.081730 0.811396
Si Si6 0.442928 0.571554 0.244856
Si Si7 0.804707 0.070909 0.213928
O O1 0.426705 0.250000 0.886483
O O2 0.331501 0.080360 0.932965
O O3 0.375865 0.090887 0.777129
O O4 0.435465 0.940154 0.880431
O O5 0.969170 0.250000 0.419774
O O6 0.000000 0.000000 0.500000
O O7 0.948764 0.989956 0.347960
O O8 0.215969 0.250000 0.131057
O O9 0.260275 0.022997 0.206611
O O10 0.137860 0.019432 0.138297
O O11 0.238516 0.021842 0.039948
O O12 0.730228 0.250000 0.558430
O O13 0.725164 0.984864 0.627836
O O14 0.914950 0.250000 0.845187
O O15 0.987548 0.034590 0.791339
O O16 0.438123 0.750000 0.245001
O O17 0.377807 0.497299 0.280511
O O18 0.807764 0.250000 0.215140
#
# Coordination Sequence:
#
# PCOD9466035 Si02
#       7
#     8   8   8   8   8   8   8
#     4   9  18  34  56  79 110 153 195 235 289 351
#     4  11  22  35  53  81 117 154 195 243 295 356
#     4  10  22  37  59  89 120 154 197 243 299 359
#     4  10  21  39  60  84 118 160 197 241 299 359
#     4   9  18  36  60  84 111 151 197 239 288 352
#     4  10  22  40  60  84 114 157 203 245 303 365
#     4  11  23  39  60  92 124 154 197 254 305 356
#
# _framework density 18.822932999999999
#
# number of rings (size 3 to 8) (size 9 to 14) (size 15 to 20)
#    0.000    2.000    1.429    3.000    2.000    4.571 
#    0.000    0.714    0.000    0.000    0.000    0.000 
#    0.000    0.000    0.000    0.000    0.000    0.000 
#
# Total GULP energy -311782.114593 kJ/mol
# GULP energy per Si atom -5567.537761 kJ/mol
# Density = 1.878009 g / cm^3
# Si number density = 18.822933 Si / 1000 Ang^3
#
#
#
# Elastic Constant Matrix: (Units=GPa)
#
#
# Indices 1 2 3 4 5 6 
#
# 1 58.6943 20.6385 25.5239 0.0000 0.0000 0.0000
# 2 20.6385 52.8275 28.4755 0.0000 0.0000 0.0000
# 3 25.5239 28.4755 87.3681 0.0000 0.0000 0.0000
# 4 0.0000 0.0000 0.0000 27.9051 0.0000 0.0000
# 5 0.0000 0.0000 0.0000 0.0000 17.3995 0.0000
# 6 0.0000 0.0000 0.0000 0.0000 0.0000 26.6522
#
#
#
# Elastic Compliance Matrix: (Units=1/GPa)
#
#
# Indices 1 2 3 4 5 6 
#
# 1 0.020941 -0.005924 -0.004187 0.000000 0.000000 0.000000
# 2 -0.005924 0.024640 -0.006300 0.000000 0.000000 0.000000
# 3 -0.004187 -0.006300 0.014722 0.000000 0.000000 0.000000
# 4 0.000000 0.000000 0.000000 0.035836 0.000000 0.000000
# 5 0.000000 0.000000 0.000000 0.000000 0.057473 0.000000
# 6 0.000000 0.000000 0.000000 0.000000 0.000000 0.037520
#
#
# Mechanical properties :
#
#
# Convention : Reuss Voigt Hill
#
# Bulk Modulus (GPa) = 36.38895 38.68510 37.53702
# Shear Modulus (GPa) = 21.44857 22.67482 22.06169
#
# Velocity S-wave (km/s) = 3.37930 3.47456 3.42726
# Velocity P-wave (km/s) = 5.88221 6.05751 5.97050
#
# Compressibility (1/GPa) = 0.02748087
#
# Stress axis : x y z
#
# Youngs Moduli (GPa) = 47.75243 40.58446 67.92395
#
# Poissons Ratio (x) = 0.24044 0.28439
# Poissons Ratio (y) = 0.28291 0.42792
# Poissons Ratio (z) = 0.19994 0.25568
#
# Static dielectric constant tensor:
#      x y z
#    x 1.733370 0.000000 0.000000 
#    y 0.000000 1.676500 0.000000 
#    z 0.000000 0.000000 1.773050 
# 
# From -- ./inp_files/20356.got.cif
#   From: 2010.05.17/outbox.cif.g08.bks.cpg/sg62_11_cif.got.tgz:20356.got - 2010.06.03 15:25:27.
