data_PCOD9466759
_publ_section_title
;
Structure prediction by ZEFSAII (Michael W. Deem and Ramdas Pophale) SiO2 
 PCOD9466759
Probable space group: P N M A
;
_chemical_formula_sum "Si O2"
_cell_formula_units_Z 48
_cell_length_a 22.495893
_cell_length_b 18.783680
_cell_length_c 5.227530
_cell_angle_alpha 90.000000
_cell_angle_beta 90.000000
_cell_angle_gamma 90.000000
_cell_volume 2208.922365
_symmetry_space_group_name_H-M "P N M A"
_symmetry_group_IT_number 62
_symmetry_cell_setting 'orthorhombic'
loop_
_space_group_symop_operation_xyz
x,y,z
1/2-x,-y,1/2+z
1/2+x,1/2-y,1/2-z
-x,1/2+y,-z
-x,-y,-z
1/2+x,y,1/2-z
1/2-x,1/2+y,1/2+z
x,1/2-y,z
loop_
_atom_site_type_symbol
_atom_site_label
_atom_site_fract_x
_atom_site_fract_y
_atom_site_fract_z
Si Si1 0.845591 0.332605 0.121321
Si Si2 0.939632 0.433420 0.394237
Si Si3 0.546284 0.119128 0.369257
Si Si4 0.456297 0.323121 0.718854
Si Si5 0.886943 0.587629 0.386856
Si Si6 0.254841 0.950254 0.996909
O O1 0.830708 0.250000 0.196297
O O2 0.889508 0.376279 0.309812
O O3 0.792243 0.387101 0.060586
O O4 0.888966 0.326012 0.877418
O O5 0.968370 0.395749 0.637351
O O6 0.908127 0.507028 0.441522
O O7 0.995465 0.439314 0.203421
O O8 0.501694 0.177393 0.482912
O O9 0.591968 0.102864 0.598127
O O10 0.582396 0.134191 0.109889
O O11 0.464977 0.250000 0.870990
O O12 0.816637 0.586379 0.423844
O O13 0.262018 0.998655 0.739090
#
# Coordination Sequence:
#
# PCOD9466759 Si02
#       6
#     8   8   8   8   8   8
#     4  10  23  42  67 101 132 175 230 284 338 395
#     4  11  21  39  69  96 134 165 218 281 334 400
#     4  11  24  40  62 100 130 169 211 272 332 405
#     4  10  22  41  67  96 132 174 220 275 336 398
#     4  12  24  39  66  98 134 171 218 269 343 401
#     4  12  25  46  69  98 137 180 229 280 333 402
#
# _framework density 21.730053999999999
#
# number of rings (size 3 to 8) (size 9 to 14) (size 15 to 20)
#    0.000    1.000    3.333    3.500    4.667    0.667 
#    0.000    1.667    0.000    0.000    0.000    0.000 
#    0.000    0.000    0.000    0.000    0.000    0.000 
#
# Total GULP energy -267602.326906 kJ/mol
# GULP energy per Si atom -5575.048477 kJ/mol
# Density = 2.168060 g / cm^3
# Si number density = 21.730054 Si / 1000 Ang^3
#
#
#
# Elastic Constant Matrix: (Units=GPa)
#
#
# Indices 1 2 3 4 5 6 
#
# 1 144.7812 22.5787 23.6097 0.0000 0.0000 0.0000
# 2 22.5787 84.2561 16.3610 0.0000 0.0000 0.0000
# 3 23.6097 16.3610 92.0459 0.0000 0.0000 0.0000
# 4 0.0000 0.0000 0.0000 21.7941 0.0000 0.0000
# 5 0.0000 0.0000 0.0000 0.0000 29.5376 0.0000
# 6 0.0000 0.0000 0.0000 0.0000 0.0000 -149.6758
#
#
#
# Elastic Compliance Matrix: (Units=1/GPa)
#
#
# Indices 1 2 3 4 5 6 
#
# 1 0.007431 -0.001679 -0.001608 0.000000 0.000000 0.000000
# 2 -0.001679 0.012672 -0.001822 0.000000 0.000000 0.000000
# 3 -0.001608 -0.001822 0.011600 0.000000 0.000000 0.000000
# 4 0.000000 0.000000 0.000000 0.045884 0.000000 0.000000
# 5 0.000000 0.000000 0.000000 0.000000 0.033855 0.000000
# 6 0.000000 0.000000 0.000000 0.000000 0.000000 -0.006681
#
#
# Mechanical properties :
#
#
# Convention : Reuss Voigt Hill
#
# Bulk Modulus (GPa) = 46.54071 49.57577 48.05824
# Shear Modulus (GPa) = 40.93631 -2.43325 19.25153
#
# Velocity S-wave (km/s) = 4.34505 -1.05934 2.97970
# Velocity P-wave (km/s) = 6.82911 4.62252 5.83114
#
# Compressibility (1/GPa) = 0.02148656
#
# Stress axis : x y z
#
# Youngs Moduli (GPa) = 134.57150 78.91215 86.20461
#
# Poissons Ratio (x) = 0.13251 0.13858
# Poissons Ratio (y) = 0.22597 0.15705
# Poissons Ratio (z) = 0.21633 0.14376
#
# Static dielectric constant tensor:
#      x y z
#    x 1.790210 0.000000 0.000000 
#    y 0.000000 1.792350 0.000000 
#    z 0.000000 0.000000 1.898120 
# 
# From -- ./inp_files/2200.got.cif
#   From: 2010.05.17/outbox.cif.g08.bks.cpg/sg62_2_cif.got.tgz:2200.got - 2010.06.03 15:25:27.
