data_PCOD9466169
_publ_section_title
;
Structure prediction by ZEFSAII (Michael W. Deem and Ramdas Pophale) SiO2 
 PCOD9466169
Probable space group: P N M A
;
_chemical_formula_sum "Si O2"
_cell_formula_units_Z 48
_cell_length_a 20.203946
_cell_length_b 8.609598
_cell_length_c 15.431068
_cell_angle_alpha 90.000000
_cell_angle_beta 90.000000
_cell_angle_gamma 90.000000
_cell_volume 2684.201149
_symmetry_space_group_name_H-M "P N M A"
_symmetry_group_IT_number 62
_symmetry_cell_setting 'orthorhombic'
loop_
_space_group_symop_operation_xyz
x,y,z
1/2-x,-y,1/2+z
1/2+x,1/2-y,1/2-z
-x,1/2+y,-z
-x,-y,-z
1/2+x,y,1/2-z
1/2-x,1/2+y,1/2+z
x,1/2-y,z
loop_
_atom_site_type_symbol
_atom_site_label
_atom_site_fract_x
_atom_site_fract_y
_atom_site_fract_z
Si Si1 0.558026 0.063207 0.061850
Si Si2 0.696847 0.936679 0.992780
Si Si3 0.985973 0.062976 0.265119
Si Si4 0.039540 0.065248 0.918341
Si Si5 0.186259 0.563320 0.889042
Si Si6 0.665438 0.561867 0.802804
O O1 0.559759 0.250000 0.055468
O O2 0.538105 0.022258 0.160504
O O3 0.627812 0.993721 0.033335
O O4 0.500000 0.000000 0.000000
O O5 0.698070 0.750000 0.993378
O O6 0.757746 0.999732 0.048035
O O7 0.697530 0.991665 0.892377
O O8 0.986188 0.250000 0.253834
O O9 0.912371 0.019208 0.299142
O O10 0.994561 0.985499 0.171973
O O11 0.043492 0.250000 0.923037
O O12 0.113490 0.995115 0.915316
O O13 0.000000 0.000000 0.000000
O O14 0.186530 0.750000 0.890893
O O15 0.196563 0.511993 0.788660
O O16 0.667516 0.750000 0.803886
#
# Coordination Sequence:
#
# PCOD9466169 Si02
#       6
#     8   8   8   8   8   8
#     4  11  21  35  57  87 120 155 191 234 290 343
#     4  11  21  37  58  85 116 153 195 240 289 343
#     4   9  18  36  58  82 114 153 189 230 286 342
#     4  11  22  39  63  89 114 149 193 240 289 342
#     4  10  21  40  60  83 114 153 194 236 289 346
#     4   8  16  34  58  78 107 149 187 226 284 343
#
# _framework density 17.882415999999999
#
# number of rings (size 3 to 8) (size 9 to 14) (size 15 to 20)
#    0.000    2.000    1.667    4.000    0.000    1.333 
#    3.000    2.500    0.000    0.000    0.000    0.000 
#    0.000    0.000    0.000    0.000    0.000    0.000 
#
# Total GULP energy -267921.606247 kJ/mol
# GULP energy per Si atom -5581.700130 kJ/mol
# Density = 1.784171 g / cm^3
# Si number density = 17.882416 Si / 1000 Ang^3
#
#
#
# Elastic Constant Matrix: (Units=GPa)
#
#
# Indices 1 2 3 4 5 6 
#
# 1 91.2557 36.6465 96.7194 0.0000 0.0000 0.0000
# 2 36.6465 70.9619 58.1137 0.0000 0.0000 0.0000
# 3 96.7194 58.1137 202.0710 0.0000 0.0000 0.0000
# 4 0.0000 0.0000 0.0000 30.5194 0.0000 0.0000
# 5 0.0000 0.0000 0.0000 0.0000 34.6050 0.0000
# 6 0.0000 0.0000 0.0000 0.0000 0.0000 32.9862
#
#
#
# Elastic Compliance Matrix: (Units=1/GPa)
#
#
# Indices 1 2 3 4 5 6 
#
# 1 0.022976 -0.003740 -0.009921 0.000000 0.000000 0.000000
# 2 -0.003740 0.019042 -0.003686 0.000000 0.000000 0.000000
# 3 -0.009921 -0.003686 0.010758 0.000000 0.000000 0.000000
# 4 0.000000 0.000000 0.000000 0.032766 0.000000 0.000000
# 5 0.000000 0.000000 0.000000 0.000000 0.028898 0.000000
# 6 0.000000 0.000000 0.000000 0.000000 0.000000 0.030316
#
#
# Mechanical properties :
#
#
# Convention : Reuss Voigt Hill
#
# Bulk Modulus (GPa) = 55.30939 83.02754 69.16847
# Shear Modulus (GPa) = 26.95746 31.14271 29.05008
#
# Velocity S-wave (km/s) = 3.88685 4.17769 4.03489
# Velocity P-wave (km/s) = 7.15123 8.35472 7.77629
#
# Compressibility (1/GPa) = 0.01808011
#
# Stress axis : x y z
#
# Youngs Moduli (GPa) = 43.52433 52.51449 92.95664
#
# Poissons Ratio (x) = 0.19641 0.92227
# Poissons Ratio (y) = 0.16279 0.34266
# Poissons Ratio (z) = 0.43183 0.19358
#
# Static dielectric constant tensor:
#      x y z
#    x 1.570860 0.000000 0.000000 
#    y 0.000000 1.607860 0.000000 
#    z 0.000000 0.000000 1.634290 
# 
# From -- ./inp_files/19566.got.cif
#   From: 2010.05.17/outbox.cif.g08.bks.cpg/sg62_10_cif.got.tgz:19566.got - 2010.06.03 15:25:27.
