data_PCOD9466374
_publ_section_title
;
Structure prediction by ZEFSAII (Michael W. Deem and Ramdas Pophale) SiO2 
 PCOD9466374
Probable space group: P N M A
;
_chemical_formula_sum "Si O2"
_cell_formula_units_Z 40
_cell_length_a 8.874559
_cell_length_b 16.100013
_cell_length_c 12.195843
_cell_angle_alpha 90.000000
_cell_angle_beta 90.000000
_cell_angle_gamma 90.000000
_cell_volume 1742.548332
_symmetry_space_group_name_H-M "P N M A"
_symmetry_group_IT_number 62
_symmetry_cell_setting 'orthorhombic'
loop_
_space_group_symop_operation_xyz
x,y,z
1/2-x,-y,1/2+z
1/2+x,1/2-y,1/2-z
-x,1/2+y,-z
-x,-y,-z
1/2+x,y,1/2-z
1/2-x,1/2+y,1/2+z
x,1/2-y,z
loop_
_atom_site_type_symbol
_atom_site_label
_atom_site_fract_x
_atom_site_fract_y
_atom_site_fract_z
Si Si1 0.028704 0.912231 0.888718
Si Si2 0.735699 0.504351 0.445773
Si Si3 0.957060 0.250000 0.415974
Si Si4 0.358001 0.381257 0.904591
Si Si5 0.100150 0.080096 0.759926
Si Si6 0.702771 0.750000 0.693027
O O1 0.108904 0.830447 0.846579
O O2 0.849992 0.919727 0.907929
O O3 0.056155 0.990669 0.809454
O O4 0.112135 0.935995 0.000743
O O5 0.844931 0.473966 0.543179
O O6 0.802289 0.552572 0.344854
O O7 0.124322 0.250000 0.355934
O O8 0.929215 0.173437 0.499052
O O9 0.826553 0.250000 0.323606
O O10 0.461689 0.375147 0.797421
O O11 0.191649 0.369167 0.851867
#
# Coordination Sequence:
#
# PCOD9466374 Si02
#       6
#     8   8   4   8   8   4
#     4  10  23  40  69 104 137 184 235 292 354 423
#     4  10  21  41  70 104 138 182 241 284 344 426
#     4  12  30  50  66 107 141 187 237 294 366 433
#     4  11  25  43  73 103 144 185 242 288 354 429
#     4  11  21  43  72 102 139 191 234 296 346 417
#     4  12  28  46  72  99 145 177 231 300 378 409
#
# _framework density 22.954885999999998
#
# number of rings (size 3 to 8) (size 9 to 14) (size 15 to 20)
#    0.000    1.200    2.000    3.000    5.600    2.400 
#    0.000    1.000    0.000    0.000    0.000    0.000 
#    0.000    0.000    0.000    0.000    0.000    0.000 
#
# Total GULP energy -223127.865653 kJ/mol
# GULP energy per Si atom -5578.196641 kJ/mol
# Density = 2.290264 g / cm^3
# Si number density = 22.954886 Si / 1000 Ang^3
#
#
#
# Elastic Constant Matrix: (Units=GPa)
#
#
# Indices 1 2 3 4 5 6 
#
# 1 79.7931 20.8854 16.9017 0.0000 0.0000 0.0000
# 2 20.8854 66.6005 13.8925 0.0000 0.0000 0.0000
# 3 16.9017 13.8925 90.3289 0.0000 0.0000 0.0000
# 4 0.0000 0.0000 0.0000 31.8557 0.0000 0.0000
# 5 0.0000 0.0000 0.0000 0.0000 59.6667 0.0000
# 6 0.0000 0.0000 0.0000 0.0000 0.0000 23.8551
#
#
#
# Elastic Compliance Matrix: (Units=1/GPa)
#
#
# Indices 1 2 3 4 5 6 
#
# 1 0.013997 -0.003970 -0.002008 0.000000 0.000000 0.000000
# 2 -0.003970 0.016639 -0.001816 0.000000 0.000000 0.000000
# 3 -0.002008 -0.001816 0.011726 0.000000 0.000000 0.000000
# 4 0.000000 0.000000 0.000000 0.031392 0.000000 0.000000
# 5 0.000000 0.000000 0.000000 0.000000 0.016760 0.000000
# 6 0.000000 0.000000 0.000000 0.000000 0.000000 0.041920
#
#
# Mechanical properties :
#
#
# Convention : Reuss Voigt Hill
#
# Bulk Modulus (GPa) = 37.35274 37.78685 37.56980
# Shear Modulus (GPa) = 31.85797 35.41169 33.63483
#
# Velocity S-wave (km/s) = 3.72943 3.93194 3.83202
# Velocity P-wave (km/s) = 5.90359 6.09185 5.99846
#
# Compressibility (1/GPa) = 0.02677180
#
# Stress axis : x y z
#
# Youngs Moduli (GPa) = 71.44352 60.10031 85.28229
#
# Poissons Ratio (x) = 0.23863 0.17128
# Poissons Ratio (y) = 0.28366 0.15488
# Poissons Ratio (z) = 0.14349 0.10915
#
# Static dielectric constant tensor:
#      x y z
#    x 1.987400 0.000000 0.000000 
#    y 0.000000 1.866630 0.000000 
#    z 0.000000 0.000000 1.891360 
# 
# From -- ./inp_files/11102.got.cif
#   From: 2010.05.17/outbox.cif.g08.bks.cpg/sg62_6_cif.got.tgz:11102.got - 2010.06.03 15:25:27.
