data_PCOD9466843
_publ_section_title
;
Structure prediction by ZEFSAII (Michael W. Deem and Ramdas Pophale) SiO2 
 PCOD9466843
Probable space group: P N M A
;
_chemical_formula_sum "Si O2"
_cell_formula_units_Z 32
_cell_length_a 15.119461
_cell_length_b 10.473757
_cell_length_c 8.219291
_cell_angle_alpha 90.000000
_cell_angle_beta 90.000000
_cell_angle_gamma 90.000000
_cell_volume 1301.586872
_symmetry_space_group_name_H-M "P N M A"
_symmetry_group_IT_number 62
_symmetry_cell_setting 'orthorhombic'
loop_
_space_group_symop_operation_xyz
x,y,z
1/2-x,-y,1/2+z
1/2+x,1/2-y,1/2-z
-x,1/2+y,-z
-x,-y,-z
1/2+x,y,1/2-z
1/2-x,1/2+y,1/2+z
x,1/2-y,z
loop_
_atom_site_type_symbol
_atom_site_label
_atom_site_fract_x
_atom_site_fract_y
_atom_site_fract_z
Si Si1 0.168340 0.011022 0.531538
Si Si2 0.652920 0.250000 0.445622
Si Si3 0.960638 0.750000 0.488954
Si Si4 0.358228 0.250000 0.137293
Si Si5 0.643713 0.966491 0.339281
Si Si6 0.985392 0.250000 0.859779
O O1 0.098577 0.124766 0.525300
O O2 0.265835 0.063556 0.565337
O O3 0.149810 0.904047 0.669635
O O4 0.160056 0.947241 0.353135
O O5 0.759327 0.250000 0.455713
O O6 0.628387 0.381979 0.357664
O O7 0.589087 0.250000 0.600864
O O8 0.034175 0.750000 0.627020
O O9 0.023172 0.750000 0.332881
O O10 0.566990 0.877043 0.410097
#
# Coordination Sequence:
#
# PCOD9466843 Si02
#       6
#     8   4   4   4   8   4
#     4  11  24  43  70 101 136 183 221 288 336 412
#     4  10  25  44  66  96 141 180 223 293 333 401
#     4  12  24  39  70  99 136 174 234 274 343 410
#     4  10  22  43  63  96 136 175 226 274 337 400
#     4  11  24  46  69 103 140 178 233 276 348 407
#     4  12  25  42  71 101 137 183 227 281 347 413
#
# _framework density 24.585373000000001
#
# number of rings (size 3 to 8) (size 9 to 14) (size 15 to 20)
#    0.000    1.000    2.500    3.000    7.000    0.000 
#    0.000    2.500    0.000    0.000    0.000    0.000 
#    0.000    0.000    0.000    0.000    0.000    0.000 
#
# Total GULP energy -178156.666715 kJ/mol
# GULP energy per Si atom -5567.395835 kJ/mol
# Density = 2.452942 g / cm^3
# Si number density = 24.585373 Si / 1000 Ang^3
#
#
#
# Elastic Constant Matrix: (Units=GPa)
#
#
# Indices 1 2 3 4 5 6 
#
# 1 161.6488 70.5628 9.6217 0.0000 0.0000 0.0000
# 2 70.5628 146.0843 7.3563 0.0000 0.0000 0.0000
# 3 9.6217 7.3563 41.3868 0.0000 0.0000 0.0000
# 4 0.0000 0.0000 0.0000 69.0567 0.0000 0.0000
# 5 0.0000 0.0000 0.0000 0.0000 22.1602 0.0000
# 6 0.0000 0.0000 0.0000 0.0000 0.0000 68.3845
#
#
#
# Elastic Compliance Matrix: (Units=1/GPa)
#
#
# Indices 1 2 3 4 5 6 
#
# 1 0.007895 -0.003755 -0.001168 0.000000 0.000000 0.000000
# 2 -0.003755 0.008693 -0.000672 0.000000 0.000000 0.000000
# 3 -0.001168 -0.000672 0.024553 0.000000 0.000000 0.000000
# 4 0.000000 0.000000 0.000000 0.014481 0.000000 0.000000
# 5 0.000000 0.000000 0.000000 0.000000 0.045126 0.000000
# 6 0.000000 0.000000 0.000000 0.000000 0.000000 0.014623
#
#
# Mechanical properties :
#
#
# Convention : Reuss Voigt Hill
#
# Bulk Modulus (GPa) = 33.38767 58.24461 45.81614
# Shear Modulus (GPa) = 36.61818 49.35888 42.98853
#
# Velocity S-wave (km/s) = 3.86350 4.48554 4.18609
# Velocity P-wave (km/s) = 5.78895 7.11119 6.48386
#
# Compressibility (1/GPa) = 0.02995117
#
# Stress axis : x y z
#
# Youngs Moduli (GPa) = 126.66716 115.03817 40.72771
#
# Poissons Ratio (x) = 0.43192 0.04757
# Poissons Ratio (y) = 0.47558 0.02738
# Poissons Ratio (z) = 0.14795 0.07733
#
# Static dielectric constant tensor:
#      x y z
#    x 1.887280 0.000000 0.000000 
#    y 0.000000 1.629020 0.000000 
#    z 0.000000 0.000000 2.076950 
# 
# From -- ./inp_files/5825.got.cif
#   From: 2010.05.17/outbox.cif.g08.bks.cpg/sg62_3_cif.got.tgz:5825.got - 2010.06.03 15:25:27.
