data_PCOD9466548
_publ_section_title
;
Structure prediction by ZEFSAII (Michael W. Deem and Ramdas Pophale) SiO2 
 PCOD9466548
Probable space group: P N M A
;
_chemical_formula_sum "Si O2"
_cell_formula_units_Z 48
_cell_length_a 8.340226
_cell_length_b 26.057885
_cell_length_c 9.627453
_cell_angle_alpha 90.000000
_cell_angle_beta 90.000000
_cell_angle_gamma 90.000000
_cell_volume 2092.321363
_symmetry_space_group_name_H-M "P N M A"
_symmetry_group_IT_number 62
_symmetry_cell_setting 'orthorhombic'
loop_
_space_group_symop_operation_xyz
x,y,z
1/2-x,-y,1/2+z
1/2+x,1/2-y,1/2-z
-x,1/2+y,-z
-x,-y,-z
1/2+x,y,1/2-z
1/2-x,1/2+y,1/2+z
x,1/2-y,z
loop_
_atom_site_type_symbol
_atom_site_label
_atom_site_fract_x
_atom_site_fract_y
_atom_site_fract_z
Si Si1 0.941888 0.519837 0.209152
Si Si2 0.501563 0.640669 0.308657
Si Si3 0.819188 0.690055 0.424804
Si Si4 0.295383 0.854022 0.568215
Si Si5 0.246426 0.027581 0.059815
Si Si6 0.991614 0.808285 0.707874
O O1 0.992872 0.579385 0.207732
O O2 0.885031 0.502486 0.360275
O O3 0.083814 0.486475 0.143568
O O4 0.793786 0.514474 0.099750
O O5 0.667157 0.657494 0.377094
O O6 0.467847 0.668472 0.163973
O O7 0.359968 0.656935 0.414661
O O8 0.793359 0.750000 0.393737
O O9 0.859543 0.685594 0.586719
O O10 0.229260 0.911682 0.569894
O O11 0.448111 0.847118 0.669849
O O12 0.159648 0.818041 0.632060
O O13 0.987722 0.750000 0.762086
#
# Coordination Sequence:
#
# PCOD9466548 Si02
#       6
#     8   8   8   8   8   8
#     4  10  22  40  61  88 119 154 199 245 296 355
#     4  11  23  40  63  89 121 159 200 249 301 356
#     4  11  24  41  63  91 122 159 202 249 302 359
#     4  11  23  40  62  90 123 159 201 248 299 356
#     4  10  22  39  60  88 119 154 197 245 296 353
#     4  11  24  40  61  89 120 158 201 245 298 358
#
# _framework density 22.941027999999999
#
# number of rings (size 3 to 8) (size 9 to 14) (size 15 to 20)
#    0.000    1.333    0.000    5.000    0.000   11.333 
#    0.000    0.000    0.000    0.000    0.000    0.000 
#    0.000    0.000    0.000    0.000    0.000    0.000 
#
# Total GULP energy -268828.055890 kJ/mol
# GULP energy per Si atom -5600.584498 kJ/mol
# Density = 2.288881 g / cm^3
# Si number density = 22.941028 Si / 1000 Ang^3
#
#
#
# Elastic Constant Matrix: (Units=GPa)
#
#
# Indices 1 2 3 4 5 6 
#
# 1 56.4307 -5.6706 -4.4993 0.0000 0.0000 0.0000
# 2 -5.6706 34.0432 22.8472 0.0000 0.0000 0.0000
# 3 -4.4993 22.8472 79.2048 0.0000 0.0000 0.0000
# 4 0.0000 0.0000 0.0000 58.8196 0.0000 0.0000
# 5 0.0000 0.0000 0.0000 0.0000 33.7904 0.0000
# 6 0.0000 0.0000 0.0000 0.0000 0.0000 28.2281
#
#
#
# Elastic Compliance Matrix: (Units=1/GPa)
#
#
# Indices 1 2 3 4 5 6 
#
# 1 0.018025 0.002871 0.000196 0.000000 0.000000 0.000000
# 2 0.002871 0.036883 -0.010476 0.000000 0.000000 0.000000
# 3 0.000196 -0.010476 0.015659 0.000000 0.000000 0.000000
# 4 0.000000 0.000000 0.000000 0.017001 0.000000 0.000000
# 5 0.000000 0.000000 0.000000 0.000000 0.029594 0.000000
# 6 0.000000 0.000000 0.000000 0.000000 0.000000 0.035426
#
#
# Mechanical properties :
#
#
# Convention : Reuss Voigt Hill
#
# Bulk Modulus (GPa) = 17.93779 21.67036 19.80407
# Shear Modulus (GPa) = 26.88323 34.63438 30.75881
#
# Velocity S-wave (km/s) = 3.42693 3.88972 3.66563
# Velocity P-wave (km/s) = 4.84712 5.44425 5.15434
#
# Compressibility (1/GPa) = 0.05574822
#
# Stress axis : x y z
#
# Youngs Moduli (GPa) = 55.47858 27.11242 63.86286
#
# Poissons Ratio (x) = -0.07784 -0.01250
# Poissons Ratio (y) = -0.15928 0.66904
# Poissons Ratio (z) = -0.01086 0.28404
#
# Static dielectric constant tensor:
#      x y z
#    x 1.908060 0.000000 0.000000 
#    y 0.000000 1.770220 0.000000 
#    z 0.000000 0.000000 1.852230 
# 
# From -- ./inp_files/4494.got.cif
#   From: 2010.05.17/outbox.cif.g08.bks.cpg/sg62_3_cif.got.tgz:4494.got - 2010.06.03 15:25:27.
