data_PCOD9466203
_publ_section_title
;
Structure prediction by ZEFSAII (Michael W. Deem and Ramdas Pophale) SiO2 
 PCOD9466203
Probable space group: P N M A
;
_chemical_formula_sum "Si O2"
_cell_formula_units_Z 48
_cell_length_a 31.583582
_cell_length_b 8.720506
_cell_length_c 9.126189
_cell_angle_alpha 90.000000
_cell_angle_beta 90.000000
_cell_angle_gamma 90.000000
_cell_volume 2513.578929
_symmetry_space_group_name_H-M "P N M A"
_symmetry_group_IT_number 62
_symmetry_cell_setting 'orthorhombic'
loop_
_space_group_symop_operation_xyz
x,y,z
1/2-x,-y,1/2+z
1/2+x,1/2-y,1/2-z
-x,1/2+y,-z
-x,-y,-z
1/2+x,y,1/2-z
1/2-x,1/2+y,1/2+z
x,1/2-y,z
loop_
_atom_site_type_symbol
_atom_site_label
_atom_site_fract_x
_atom_site_fract_y
_atom_site_fract_z
Si Si1 0.788361 0.565454 0.421098
Si Si2 0.623966 0.932602 0.419032
Si Si3 0.958483 0.565559 0.078266
Si Si4 0.374309 0.935188 0.907286
Si Si5 0.541019 0.065076 0.919172
Si Si6 0.293952 0.566676 0.422004
O O1 0.782871 0.750000 0.431490
O O2 0.831904 0.525110 0.503415
O O3 0.748722 0.485033 0.497182
O O4 0.791248 0.525726 0.249671
O O5 0.620982 0.750000 0.422338
O O6 0.583139 0.004582 0.497554
O O7 0.625857 0.990216 0.252035
O O8 0.665998 0.987744 0.502397
O O9 0.959038 0.750000 0.071350
O O10 0.957999 0.518657 0.249021
O O11 0.000000 0.500000 0.000000
O O12 0.375170 0.750000 0.891235
O O13 0.416083 0.981746 0.997500
O O14 0.539111 0.250000 0.923150
O O15 0.500000 0.000000 0.000000
O O16 0.299004 0.750000 0.432872
#
# Coordination Sequence:
#
# PCOD9466203 Si02
#       6
#     8   8   8   8   8   8
#     4  10  22  40  62  89 119 154 199 246 295 354
#     4  12  25  40  60  89 121 156 200 246 293 350
#     4  11  23  41  63  90 122 157 198 243 294 351
#     4  10  21  40  63  86 117 157 197 243 298 350
#     4  10  22  39  61  88 119 155 196 241 290 348
#     4  11  23  40  62  88 120 157 196 243 297 353
#
# _framework density 19.096277000000001
#
# number of rings (size 3 to 8) (size 9 to 14) (size 15 to 20)
#    0.000    1.333    0.000    5.500    0.000   12.000 
#    0.000    1.667    0.000    0.000    0.000    0.000 
#    0.000    0.000    0.000    0.000    0.000    0.000 
#
# Total GULP energy -268550.142709 kJ/mol
# GULP energy per Si atom -5594.794640 kJ/mol
# Density = 1.905281 g / cm^3
# Si number density = 19.096277 Si / 1000 Ang^3
#
#
#
# Elastic Constant Matrix: (Units=GPa)
#
#
# Indices 1 2 3 4 5 6 
#
# 1 195.0829 64.5018 114.2698 0.0000 0.0000 0.0000
# 2 64.5018 58.9798 72.3620 0.0000 0.0000 0.0000
# 3 114.2698 72.3620 213.1725 0.0000 0.0000 0.0000
# 4 0.0000 0.0000 0.0000 30.6116 0.0000 0.0000
# 5 0.0000 0.0000 0.0000 0.0000 44.5154 0.0000
# 6 0.0000 0.0000 0.0000 0.0000 0.0000 39.2301
#
#
#
# Elastic Compliance Matrix: (Units=1/GPa)
#
#
# Indices 1 2 3 4 5 6 
#
# 1 0.008725 -0.006518 -0.002464 0.000000 0.000000 0.000000
# 2 -0.006518 0.033926 -0.008022 0.000000 0.000000 0.000000
# 3 -0.002464 -0.008022 0.008735 0.000000 0.000000 0.000000
# 4 0.000000 0.000000 0.000000 0.032667 0.000000 0.000000
# 5 0.000000 0.000000 0.000000 0.000000 0.022464 0.000000
# 6 0.000000 0.000000 0.000000 0.000000 0.000000 0.025491
#
#
# Mechanical properties :
#
#
# Convention : Reuss Voigt Hill
#
# Bulk Modulus (GPa) = 57.54918 107.72251 82.63585
# Shear Modulus (GPa) = 29.10216 37.27819 33.19018
#
# Velocity S-wave (km/s) = 3.90804 4.42307 4.17351
# Velocity P-wave (km/s) = 7.11094 9.08941 8.16036
#
# Compressibility (1/GPa) = 0.01737644
#
# Stress axis : x y z
#
# Youngs Moduli (GPa) = 114.61925 29.47614 114.48106
#
# Poissons Ratio (x) = 0.19213 0.28210
# Poissons Ratio (y) = 0.74711 0.91839
# Poissons Ratio (z) = 0.28244 0.23646
#
# Static dielectric constant tensor:
#      x y z
#    x 1.619500 0.000000 0.000000 
#    y 0.000000 1.642090 0.000000 
#    z 0.000000 0.000000 1.633330 
# 
# From -- ./inp_files/10158.got.cif
#   From: 2010.05.17/outbox.cif.g08.bks.cpg/sg62_6_cif.got.tgz:10158.got - 2010.06.03 15:25:27.
