data_PCOD9466554
_publ_section_title
;
Structure prediction by ZEFSAII (Michael W. Deem and Ramdas Pophale) SiO2 
 PCOD9466554
Probable space group: P N M A
;
_chemical_formula_sum "Si O2"
_cell_formula_units_Z 64
_cell_length_a 19.906552
_cell_length_b 24.444420
_cell_length_c 5.213906
_cell_angle_alpha 90.000000
_cell_angle_beta 90.000000
_cell_angle_gamma 90.000000
_cell_volume 2537.108130
_symmetry_space_group_name_H-M "P N M A"
_symmetry_group_IT_number 62
_symmetry_cell_setting 'orthorhombic'
loop_
_space_group_symop_operation_xyz
x,y,z
1/2-x,-y,1/2+z
1/2+x,1/2-y,1/2-z
-x,1/2+y,-z
-x,-y,-z
1/2+x,y,1/2-z
1/2-x,1/2+y,1/2+z
x,1/2-y,z
loop_
_atom_site_type_symbol
_atom_site_label
_atom_site_fract_x
_atom_site_fract_y
_atom_site_fract_z
Si Si1 0.850472 0.683750 0.879489
Si Si2 0.774024 0.815515 0.381424
Si Si3 0.948446 0.889455 0.564172
Si Si4 0.823612 0.038506 0.888887
Si Si5 0.416516 0.114820 0.318544
Si Si6 0.514654 0.809338 0.312489
Si Si7 0.327961 0.967121 0.107144
Si Si8 0.846672 0.310743 0.525419
O O1 0.858518 0.750000 0.872635
O O2 0.793738 0.668869 0.667608
O O3 0.914324 0.650825 0.774361
O O4 0.824474 0.665181 0.156928
O O5 0.782563 0.750000 0.379974
O O6 0.700605 0.823866 0.265521
O O7 0.967310 0.852724 0.320422
O O8 0.891969 0.931883 0.476309
O O9 0.020061 0.912289 0.670853
O O10 0.884686 0.078387 0.958792
O O11 0.746557 0.059668 0.920438
O O12 0.831687 0.990570 0.104261
O O13 0.828056 0.016017 0.601499
O O14 0.450531 0.169188 0.432893
O O15 0.353671 0.137149 0.156326
O O16 0.482752 0.750000 0.339579
O O17 0.577738 0.804975 0.122690
O O18 0.825661 0.250000 0.421073
#
# Coordination Sequence:
#
# PCOD9466554 Si02
#       8
#     8   8   8   8   8   8   8   8
#     4  10  22  39  60  93 135 179 225 278 335 407
#     4   9  20  36  58  90 126 172 227 281 332 387
#     4  11  26  42  66 102 136 188 236 280 353 424
#     4  10  25  49  75 104 137 177 231 302 366 419
#     4  11  25  41  69 103 135 189 233 284 351 427
#     4  10  23  42  63  97 144 189 233 282 340 416
#     4  10  25  49  75 103 138 178 230 301 367 420
#     4   9  20  38  60  94 136 178 228 281 340 412
#
# _framework density 25.225569
#
# number of rings (size 3 to 8) (size 9 to 14) (size 15 to 20)
#    0.000    2.000    0.000    0.750   10.500    2.500 
#    2.250    0.000    0.000    0.000    0.000    0.000 
#    0.000    0.000    0.000    0.000    0.000    0.000 
#
# Total GULP energy -358094.154560 kJ/mol
# GULP energy per Si atom -5595.221165 kJ/mol
# Density = 2.516815 g / cm^3
# Si number density = 25.225569 Si / 1000 Ang^3
#
#
#
# Elastic Constant Matrix: (Units=GPa)
#
#
# Indices 1 2 3 4 5 6 
#
# 1 139.8674 33.1366 26.0448 0.0000 0.0000 0.0000
# 2 33.1366 50.1915 -0.4484 0.0000 0.0000 0.0000
# 3 26.0448 -0.4484 75.9168 0.0000 0.0000 0.0000
# 4 0.0000 0.0000 0.0000 -18.3192 0.0000 0.0000
# 5 0.0000 0.0000 0.0000 0.0000 42.9200 0.0000
# 6 0.0000 0.0000 0.0000 0.0000 0.0000 28.9223
#
#
#
# Elastic Compliance Matrix: (Units=1/GPa)
#
#
# Indices 1 2 3 4 5 6 
#
# 1 0.009187 -0.006094 -0.003188 0.000000 0.000000 0.000000
# 2 -0.006094 0.023967 0.002232 0.000000 0.000000 0.000000
# 3 -0.003188 0.002232 0.014279 0.000000 0.000000 0.000000
# 4 0.000000 0.000000 0.000000 -0.054587 0.000000 0.000000
# 5 0.000000 0.000000 0.000000 0.000000 0.023299 0.000000
# 6 0.000000 0.000000 0.000000 0.000000 0.000000 0.034575
#
#
# Mechanical properties :
#
#
# Convention : Reuss Voigt Hill
#
# Bulk Modulus (GPa) = 29.99930 42.60463 36.30197
# Shear Modulus (GPa) = 65.85015 24.52079 45.18547
#
# Velocity S-wave (km/s) = 5.11480 3.12117 4.23692
# Velocity P-wave (km/s) = 6.84104 5.46947 6.19334
#
# Compressibility (1/GPa) = 0.03333411
#
# Stress axis : x y z
#
# Youngs Moduli (GPa) = 108.85059 41.72450 70.03235
#
# Poissons Ratio (x) = 0.25426 0.22325
# Poissons Ratio (y) = 0.66330 -0.15632
# Poissons Ratio (z) = 0.34699 -0.09313
#
# Static dielectric constant tensor:
#      x y z
#    x 2.019310 0.000000 0.000000 
#    y 0.000000 2.051440 0.000000 
#    z 0.000000 0.000000 1.968440 
# 
# From -- ./inp_files/2410.got.cif
#   From: 2010.05.17/outbox.cif.g08.bks.cpg/sg62_2_cif.got.tgz:2410.got - 2010.06.03 15:25:27.
