data_PCOD9466902
_publ_section_title
;
Structure prediction by ZEFSAII (Michael W. Deem and Ramdas Pophale) SiO2 
 PCOD9466902
Probable space group: P N M A
;
_chemical_formula_sum "Si O2"
_cell_formula_units_Z 32
_cell_length_a 8.859402
_cell_length_b 25.224435
_cell_length_c 6.965459
_cell_angle_alpha 90.000000
_cell_angle_beta 90.000000
_cell_angle_gamma 90.000000
_cell_volume 1556.594874
_symmetry_space_group_name_H-M "P N M A"
_symmetry_group_IT_number 62
_symmetry_cell_setting 'orthorhombic'
loop_
_space_group_symop_operation_xyz
x,y,z
1/2-x,-y,1/2+z
1/2+x,1/2-y,1/2-z
-x,1/2+y,-z
-x,-y,-z
1/2+x,y,1/2-z
1/2-x,1/2+y,1/2+z
x,1/2-y,z
loop_
_atom_site_type_symbol
_atom_site_label
_atom_site_fract_x
_atom_site_fract_y
_atom_site_fract_z
Si Si1 0.005994 0.310090 0.837051
Si Si2 0.313681 0.846898 0.023327
Si Si3 0.813054 0.614263 0.885133
Si Si4 0.008604 0.440667 0.425800
O O1 0.026880 0.250000 0.905430
O O2 0.051604 0.313214 0.614050
O O3 0.836852 0.328603 0.874387
O O4 0.110618 0.352087 0.948304
O O5 0.290216 0.845551 0.794999
O O6 0.369355 0.907579 0.050616
O O7 0.655102 0.586949 0.936461
O O8 0.926950 0.570479 0.790023
O O9 0.000000 0.500000 0.500000
#
# Coordination Sequence:
#
# PCOD9466902 Si02
#       4
#     8   8   8   8
#     4  12  24  41  68  95 132 182 217 273 338 389
#     4  10  23  43  62 101 136 163 233 273 318 410
#     4  10  22  46  65  96 136 166 224 278 324 407
#     4  10  22  44  70  96 128 180 213 271 344 389
#
# _framework density 20.557694000000001
#
# number of rings (size 3 to 8) (size 9 to 14) (size 15 to 20)
#    1.500    0.000    2.500    2.250    0.000    6.000 
#    0.000    5.000    0.000    0.000    0.000    0.000 
#    0.000    0.000    0.000    0.000    0.000    0.000 
#
# Total GULP energy -178249.269013 kJ/mol
# GULP energy per Si atom -5570.289657 kJ/mol
# Density = 2.051090 g / cm^3
# Si number density = 20.557694 Si / 1000 Ang^3
#
#
#
# Elastic Constant Matrix: (Units=GPa)
#
#
# Indices 1 2 3 4 5 6 
#
# 1 20.6682 22.5062 0.6302 0.0000 0.0000 0.0000
# 2 22.5062 118.8248 42.3567 0.0000 0.0000 0.0000
# 3 0.6302 42.3567 51.9725 0.0000 0.0000 0.0000
# 4 0.0000 0.0000 0.0000 23.7951 0.0000 0.0000
# 5 0.0000 0.0000 0.0000 0.0000 31.0606 0.0000
# 6 0.0000 0.0000 0.0000 0.0000 0.0000 -4.0405
#
#
#
# Elastic Compliance Matrix: (Units=1/GPa)
#
#
# Indices 1 2 3 4 5 6 
#
# 1 0.067009 -0.017481 0.013434 0.000000 0.000000 0.000000
# 2 -0.017481 0.016422 -0.013172 0.000000 0.000000 0.000000
# 3 0.013434 -0.013172 0.029813 0.000000 0.000000 0.000000
# 4 0.000000 0.000000 0.000000 0.042025 0.000000 0.000000
# 5 0.000000 0.000000 0.000000 0.000000 0.032195 0.000000
# 6 0.000000 0.000000 0.000000 0.000000 0.000000 -0.247492
#
#
# Mechanical properties :
#
#
# Convention : Reuss Voigt Hill
#
# Bulk Modulus (GPa) = 12.68923 35.82796 24.25860
# Shear Modulus (GPa) = 7376.99087 18.56120 3697.77603
#
# Velocity S-wave (km/s) = 59.96852 3.00806 42.45746
# Velocity P-wave (km/s) = 69.29033 5.43419 49.14611
#
# Compressibility (1/GPa) = 0.07880698
#
# Stress axis : x y z
#
# Youngs Moduli (GPa) = 14.92336 60.89425 33.54276
#
# Poissons Ratio (x) = 1.06447 -0.45061
# Poissons Ratio (y) = 0.26087 0.44181
# Poissons Ratio (z) = -0.20048 0.80208
#
# Static dielectric constant tensor:
#      x y z
#    x 1.730420 0.000000 0.000000 
#    y 0.000000 1.678620 0.000000 
#    z 0.000000 0.000000 1.804990 
# 
# From -- ./inp_files/4129.got.cif
#   From: 2010.05.17/outbox.cif.g08.bks.cpg/sg62_3_cif.got.tgz:4129.got - 2010.06.03 15:25:27.
