data_PCOD9466848
_publ_section_title
;
Structure prediction by ZEFSAII (Michael W. Deem and Ramdas Pophale) SiO2 
 PCOD9466848
Probable space group: P N M A
;
_chemical_formula_sum "Si O2"
_cell_formula_units_Z 40
_cell_length_a 9.032388
_cell_length_b 13.079140
_cell_length_c 15.765701
_cell_angle_alpha 90.000000
_cell_angle_beta 90.000000
_cell_angle_gamma 90.000000
_cell_volume 1862.494759
_symmetry_space_group_name_H-M "P N M A"
_symmetry_group_IT_number 62
_symmetry_cell_setting 'orthorhombic'
loop_
_space_group_symop_operation_xyz
x,y,z
1/2-x,-y,1/2+z
1/2+x,1/2-y,1/2-z
-x,1/2+y,-z
-x,-y,-z
1/2+x,y,1/2-z
1/2-x,1/2+y,1/2+z
x,1/2-y,z
loop_
_atom_site_type_symbol
_atom_site_label
_atom_site_fract_x
_atom_site_fract_y
_atom_site_fract_z
Si Si1 0.282668 0.857314 0.133482
Si Si2 0.387682 0.250000 0.140345
Si Si3 0.239898 0.250000 0.328654
Si Si4 0.041018 0.930632 0.252862
Si Si5 0.339696 0.047538 0.025906
Si Si6 0.287961 0.025686 0.360505
O O1 0.282341 0.750000 0.085396
O O2 0.153679 0.859768 0.202597
O O3 0.439021 0.870791 0.180894
O O4 0.263326 0.959161 0.080470
O O5 0.296304 0.250000 0.229667
O O6 0.561475 0.250000 0.164436
O O7 0.355306 0.149802 0.081664
O O8 0.297431 0.146845 0.374426
O O9 0.143915 0.011431 0.301047
O O10 0.929635 0.987255 0.190047
O O11 0.500000 0.000000 0.000000
O O12 0.244842 0.048114 0.939886
#
# Coordination Sequence:
#
# PCOD9466848 Si02
#       6
#     8   4   4   8   8   8
#     4  11  23  41  68  96 133 173 226 276 344 407
#     4  12  26  46  72 102 142 184 236 282 352 410
#     4  12  22  40  72 102 130 186 234 282 334 424
#     4  10  22  43  64  95 133 177 224 279 333 420
#     4  12  25  42  67 102 138 179 225 288 344 407
#     4  11  23  42  69  99 137 175 232 283 344 408
#
# _framework density 21.476571
#
# number of rings (size 3 to 8) (size 9 to 14) (size 15 to 20)
#    0.000    0.800    4.000    4.200    2.800    0.800 
#    9.000    0.000    0.000    0.000    0.000    0.000 
#    0.000    0.000    0.000    0.000    0.000    0.000 
#
# Total GULP energy -223505.120870 kJ/mol
# GULP energy per Si atom -5587.628022 kJ/mol
# Density = 2.142769 g / cm^3
# Si number density = 21.476571 Si / 1000 Ang^3
#
#
#
# Elastic Constant Matrix: (Units=GPa)
#
#
# Indices 1 2 3 4 5 6 
#
# 1 54.1384 6.9074 6.6407 0.0000 0.0000 0.0000
# 2 6.9074 136.2622 12.8671 0.0000 0.0000 0.0000
# 3 6.6407 12.8671 61.4756 0.0000 0.0000 0.0000
# 4 0.0000 0.0000 0.0000 47.7830 0.0000 0.0000
# 5 0.0000 0.0000 0.0000 0.0000 16.8719 0.0000
# 6 0.0000 0.0000 0.0000 0.0000 0.0000 -36.8619
#
#
#
# Elastic Compliance Matrix: (Units=1/GPa)
#
#
# Indices 1 2 3 4 5 6 
#
# 1 0.018799 -0.000777 -0.001868 0.000000 0.000000 0.000000
# 2 -0.000777 0.007519 -0.001490 0.000000 0.000000 0.000000
# 3 -0.001868 -0.001490 0.016780 0.000000 0.000000 0.000000
# 4 0.000000 0.000000 0.000000 0.020928 0.000000 0.000000
# 5 0.000000 0.000000 0.000000 0.000000 0.059270 0.000000
# 6 0.000000 0.000000 0.000000 0.000000 0.000000 -0.027128
#
#
# Mechanical properties :
#
#
# Convention : Reuss Voigt Hill
#
# Bulk Modulus (GPa) = 28.71147 33.85628 31.28388
# Shear Modulus (GPa) = 43.08587 20.58934 31.83760
#
# Velocity S-wave (km/s) = 4.48390 3.09963 3.85442
# Velocity P-wave (km/s) = 6.34073 5.34872 5.86573
#
# Compressibility (1/GPa) = 0.03482929
#
# Stress axis : x y z
#
# Youngs Moduli (GPa) = 53.19319 132.99920 59.59385
#
# Poissons Ratio (x) = 0.10328 0.11133
# Poissons Ratio (y) = 0.04131 0.08878
# Poissons Ratio (z) = 0.09938 0.19815
#
# Static dielectric constant tensor:
#      x y z
#    x 1.755990 0.000000 0.000000 
#    y 0.000000 1.834630 0.000000 
#    z 0.000000 0.000000 1.850730 
# 
# From -- ./inp_files/21936.got.cif
#   From: 2010.05.17/outbox.cif.g08.bks.cpg/sg62_11_cif.got.tgz:21936.got - 2010.06.03 15:25:27.
