data_PCOD9466503
_publ_section_title
;
Structure prediction by ZEFSAII (Michael W. Deem and Ramdas Pophale) SiO2 
 PCOD9466503
Probable space group: P N M A
;
_chemical_formula_sum "Si O2"
_cell_formula_units_Z 64
_cell_length_a 8.485334
_cell_length_b 23.111663
_cell_length_c 16.795952
_cell_angle_alpha 90.000000
_cell_angle_beta 90.000000
_cell_angle_gamma 90.000000
_cell_volume 3293.857167
_symmetry_space_group_name_H-M "P N M A"
_symmetry_group_IT_number 62
_symmetry_cell_setting 'orthorhombic'
loop_
_space_group_symop_operation_xyz
x,y,z
1/2-x,-y,1/2+z
1/2+x,1/2-y,1/2-z
-x,1/2+y,-z
-x,-y,-z
1/2+x,y,1/2-z
1/2-x,1/2+y,1/2+z
x,1/2-y,z
loop_
_atom_site_type_symbol
_atom_site_label
_atom_site_fract_x
_atom_site_fract_y
_atom_site_fract_z
Si Si1 0.410988 0.684450 0.695215
Si Si2 0.077882 0.078207 0.978398
Si Si3 0.937670 0.507460 0.861137
Si Si4 0.574046 0.982305 0.811224
Si Si5 0.442055 0.445190 0.943631
Si Si6 0.083170 0.684338 0.961896
Si Si7 0.052886 0.182559 0.509599
Si Si8 0.080978 0.854698 0.650670
O O1 0.352438 0.750000 0.686202
O O2 0.548610 0.674301 0.631429
O O3 0.479780 0.675907 0.781812
O O4 0.263207 0.644482 0.676079
O O5 0.259622 0.063941 0.964568
O O6 0.981544 0.052258 0.904599
O O7 0.032257 0.144195 0.988407
O O8 0.032985 0.050506 0.064281
O O9 0.756769 0.508067 0.833122
O O10 0.041690 0.520008 0.783079
O O11 0.472855 0.031302 0.854940
O O12 0.526308 0.920983 0.850321
O O13 0.500000 0.500000 0.000000
O O14 0.517077 0.380188 0.949024
O O15 0.041248 0.750000 0.978396
O O16 0.265573 0.676509 0.982105
O O17 0.035720 0.250000 0.541637
O O18 0.942836 0.177368 0.431839
#
# Coordination Sequence:
#
# PCOD9466503 Si02
#       8
#     8   8   8   8   8   8   8   8
#     4  11  22  35  51  78 117 164 210 254 303 367
#     4  11  23  41  63  91 124 169 206 262 320 372
#     4  11  24  38  61  89 125 165 210 258 318 372
#     4  12  23  40  59  92 126 166 211 264 315 377
#     4  12  23  42  64  93 127 164 208 265 313 377
#     4  10  22  38  58  85 118 159 207 254 307 377
#     4  11  23  39  61  87 119 162 207 256 313 377
#     4  12  22  35  55  80 120 161 211 253 309 365
#
# _framework density 19.430107
#
# number of rings (size 3 to 8) (size 9 to 14) (size 15 to 20)
#    0.000    0.750    2.500    6.375    1.750    3.500 
#    0.000    0.000    0.000    0.750    0.000    0.000 
#    0.000    0.000    0.000    0.000    0.000    0.000 
#
# Total GULP energy -357275.313183 kJ/mol
# GULP energy per Si atom -5582.426768 kJ/mol
# Density = 1.938588 g / cm^3
# Si number density = 19.430107 Si / 1000 Ang^3
#
#
#
# Elastic Constant Matrix: (Units=GPa)
#
#
# Indices 1 2 3 4 5 6 
#
# 1 51.5820 11.1946 19.9499 0.0000 0.0000 0.0000
# 2 11.1946 96.2105 32.2366 0.0000 0.0000 0.0000
# 3 19.9499 32.2366 57.1727 0.0000 0.0000 0.0000
# 4 0.0000 0.0000 0.0000 17.8327 0.0000 0.0000
# 5 0.0000 0.0000 0.0000 0.0000 31.0459 0.0000
# 6 0.0000 0.0000 0.0000 0.0000 0.0000 31.5060
#
#
#
# Elastic Compliance Matrix: (Units=1/GPa)
#
#
# Indices 1 2 3 4 5 6 
#
# 1 0.022411 0.000016 -0.007829 0.000000 0.000000 0.000000
# 2 0.000016 0.012815 -0.007231 0.000000 0.000000 0.000000
# 3 -0.007829 -0.007231 0.024300 0.000000 0.000000 0.000000
# 4 0.000000 0.000000 0.000000 0.056077 0.000000 0.000000
# 5 0.000000 0.000000 0.000000 0.000000 0.032210 0.000000
# 6 0.000000 0.000000 0.000000 0.000000 0.000000 0.031740
#
#
# Mechanical properties :
#
#
# Convention : Reuss Voigt Hill
#
# Bulk Modulus (GPa) = 33.97077 36.85858 35.41468
# Shear Modulus (GPa) = 22.78376 25.51585 24.14981
#
# Velocity S-wave (km/s) = 3.42804 3.62776 3.52931
# Velocity P-wave (km/s) = 5.76109 6.04636 5.90545
#
# Compressibility (1/GPa) = 0.02943707
#
# Stress axis : x y z
#
# Youngs Moduli (GPa) = 44.62065 78.03396 41.15240
#
# Poissons Ratio (x) = -0.00121 0.32218
# Poissons Ratio (y) = -0.00069 0.29758
# Poissons Ratio (z) = 0.34933 0.56427
#
# Static dielectric constant tensor:
#      x y z
#    x 1.695780 0.000000 0.000000 
#    y 0.000000 1.765130 0.000000 
#    z 0.000000 0.000000 1.678320 
# 
# From -- ./inp_files/22563.got.cif
#   From: 2010.05.17/outbox.cif.g08.bks.cpg/sg62_12_cif.got.tgz:22563.got - 2010.06.03 15:25:27.
