data_PCOD9466173
_publ_section_title
;
Structure prediction by ZEFSAII (Michael W. Deem and Ramdas Pophale) SiO2 
 PCOD9466173
Probable space group: P N M A
;
_chemical_formula_sum "Si O2"
_cell_formula_units_Z 36
_cell_length_a 11.602591
_cell_length_b 10.256061
_cell_length_c 15.008384
_cell_angle_alpha 90.000000
_cell_angle_beta 90.000000
_cell_angle_gamma 90.000000
_cell_volume 1785.950886
_symmetry_space_group_name_H-M "P N M A"
_symmetry_group_IT_number 62
_symmetry_cell_setting 'orthorhombic'
loop_
_space_group_symop_operation_xyz
x,y,z
1/2-x,-y,1/2+z
1/2+x,1/2-y,1/2-z
-x,1/2+y,-z
-x,-y,-z
1/2+x,y,1/2-z
1/2-x,1/2+y,1/2+z
x,1/2-y,z
loop_
_atom_site_type_symbol
_atom_site_label
_atom_site_fract_x
_atom_site_fract_y
_atom_site_fract_z
Si Si1 0.913684 0.997837 0.418491
Si Si2 0.623962 0.750000 0.628555
Si Si3 0.656282 0.967325 0.482154
Si Si4 0.147616 0.750000 0.672423
Si Si5 0.117198 0.750000 0.166522
Si Si6 0.891553 0.750000 0.294166
Si Si7 0.386585 0.750000 0.566923
O O1 0.789157 0.995453 0.463717
O O2 0.919041 0.874263 0.354874
O O3 0.922870 0.123681 0.356324
O O4 0.000000 0.000000 0.500000
O O5 0.649663 0.877478 0.569411
O O6 0.679895 0.750000 0.724408
O O7 0.486350 0.750000 0.640195
O O8 0.618734 0.877347 0.398001
O O9 0.600282 0.112136 0.485534
O O10 0.264352 0.750000 0.614865
O O11 0.246960 0.750000 0.217115
O O12 0.994236 0.750000 0.219235
#
# Coordination Sequence:
#
# PCOD9466173 Si02
#       7
#     8   4   8   4   4   4   4
#     4  10  21  42  65  88 125 164 210 260 314 372
#     4  11  22  39  63  89 122 169 200 250 327 366
#     4   9  21  41  61  86 127 164 203 258 317 385
#     4  10  24  39  61  98 123 154 216 268 299 374
#     4   9  20  40  64  90 126 164 210 258 321 373
#     4  10  21  40  65  92 125 166 210 270 307 382
#     4  10  21  40  61  83 126 159 206 254 306 377
#
# _framework density 20.157330000000002
#
# number of rings (size 3 to 8) (size 9 to 14) (size 15 to 20)
#    0.000    2.222    0.000    2.000    3.111    1.778 
#    8.000    4.444    0.000    0.000    0.000    0.000 
#    0.000    0.000    0.000    0.000    0.000    0.000 
#
# Total GULP energy -200575.295518 kJ/mol
# GULP energy per Si atom -5571.535987 kJ/mol
# Density = 2.011145 g / cm^3
# Si number density = 20.157330 Si / 1000 Ang^3
#
#
#
# Elastic Constant Matrix: (Units=GPa)
#
#
# Indices 1 2 3 4 5 6 
#
# 1 88.4144 30.9023 42.5594 0.0000 0.0000 0.0000
# 2 30.9023 183.2531 54.1504 0.0000 0.0000 0.0000
# 3 42.5594 54.1504 103.1726 0.0000 0.0000 0.0000
# 4 0.0000 0.0000 0.0000 16.2342 0.0000 0.0000
# 5 0.0000 0.0000 0.0000 0.0000 37.4915 0.0000
# 6 0.0000 0.0000 0.0000 0.0000 0.0000 40.4391
#
#
#
# Elastic Compliance Matrix: (Units=1/GPa)
#
#
# Indices 1 2 3 4 5 6 
#
# 1 0.014208 -0.000786 -0.005448 0.000000 0.000000 0.000000
# 2 -0.000786 0.006502 -0.003088 0.000000 0.000000 0.000000
# 3 -0.005448 -0.003088 0.013561 0.000000 0.000000 0.000000
# 4 0.000000 0.000000 0.000000 0.061599 0.000000 0.000000
# 5 0.000000 0.000000 0.000000 0.000000 0.026673 0.000000
# 6 0.000000 0.000000 0.000000 0.000000 0.000000 0.024729
#
#
# Mechanical properties :
#
#
# Convention : Reuss Voigt Hill
#
# Bulk Modulus (GPa) = 63.99833 70.00715 67.00274
# Shear Modulus (GPa) = 29.21856 35.31482 32.26669
#
# Velocity S-wave (km/s) = 3.81139 4.19018 4.00527
# Velocity P-wave (km/s) = 7.15453 7.62994 7.39605
#
# Compressibility (1/GPa) = 0.01562541
#
# Stress axis : x y z
#
# Youngs Moduli (GPa) = 70.38462 153.79687 73.74137
#
# Poissons Ratio (x) = 0.12087 0.40176
# Poissons Ratio (y) = 0.05532 0.22775
# Poissons Ratio (z) = 0.38347 0.47499
#
# Static dielectric constant tensor:
#      x y z
#    x 1.767910 0.000000 0.000000 
#    y 0.000000 1.730290 0.000000 
#    z 0.000000 0.000000 1.678870 
# 
# From -- ./inp_files/11924.got.cif
#   From: 2010.05.17/outbox.cif.g08.bks.cpg/sg62_6_cif.got.tgz:11924.got - 2010.06.03 15:25:27.
