data_PCOD9466441
_publ_section_title
;
Structure prediction by ZEFSAII (Michael W. Deem and Ramdas Pophale) SiO2 
 PCOD9466441
Probable space group: P N M A
;
_chemical_formula_sum "Si O2"
_cell_formula_units_Z 56
_cell_length_a 9.941982
_cell_length_b 13.706588
_cell_length_c 21.516324
_cell_angle_alpha 90.000000
_cell_angle_beta 90.000000
_cell_angle_gamma 90.000000
_cell_volume 2932.043482
_symmetry_space_group_name_H-M "P N M A"
_symmetry_group_IT_number 62
_symmetry_cell_setting 'orthorhombic'
loop_
_space_group_symop_operation_xyz
x,y,z
1/2-x,-y,1/2+z
1/2+x,1/2-y,1/2-z
-x,1/2+y,-z
-x,-y,-z
1/2+x,y,1/2-z
1/2-x,1/2+y,1/2+z
x,1/2-y,z
loop_
_atom_site_type_symbol
_atom_site_label
_atom_site_fract_x
_atom_site_fract_y
_atom_site_fract_z
Si Si1 0.115316 0.364704 0.492740
Si Si2 0.563270 0.250000 0.717242
Si Si3 0.501373 0.037299 0.396434
Si Si4 0.211960 0.055571 0.816165
Si Si5 0.243997 0.032590 0.669561
Si Si6 0.469085 0.471989 0.897281
Si Si7 0.269089 0.250000 0.677034
Si Si8 0.429905 0.361438 0.515912
O O1 0.102258 0.250000 0.480698
O O2 0.076249 0.431841 0.434558
O O3 0.271275 0.385079 0.509204
O O4 0.021576 0.397140 0.550206
O O5 0.620773 0.346893 0.685202
O O6 0.402947 0.250000 0.719349
O O7 0.630603 0.250000 0.784871
O O8 0.379201 0.027335 0.348213
O O9 0.641033 0.034180 0.359520
O O10 0.500124 0.939015 0.438979
O O11 0.487662 0.122751 0.446442
O O12 0.248317 0.034884 0.744324
O O13 0.346224 0.067525 0.856413
O O14 0.272071 0.144338 0.645962
O O15 0.096206 0.006169 0.646442
O O16 0.446667 0.250000 0.536808
#
# Coordination Sequence:
#
# PCOD9466441 Si02
#       8
#     8   4   8   8   8   8   4   8
#     4  10  22  41  62  87 118 158 202 252 301 347
#     4  10  22  34  50  84 124 160 198 232 283 352
#     4  11  21  39  61  90 115 159 200 243 296 362
#     4  11  23  37  57  87 124 158 197 242 293 361
#     4  11  23  37  60  84 129 157 194 243 303 360
#     4  11  23  39  61  91 116 161 199 243 301 360
#     4  10  22  34  52  84 122 164 194 228 287 358
#     4  10  22  39  64  87 117 160 202 252 300 344
#
# _framework density 19.099308000000001
#
# number of rings (size 3 to 8) (size 9 to 14) (size 15 to 20)
#    0.000    1.429    4.286    0.857   10.000    0.000 
#    0.000    2.143    0.000    5.143    0.000    0.000 
#    0.000    0.000    0.000    0.000    0.000    0.000 
#
# Total GULP energy -312806.742083 kJ/mol
# GULP energy per Si atom -5585.834680 kJ/mol
# Density = 1.905584 g / cm^3
# Si number density = 19.099308 Si / 1000 Ang^3
#
#
#
# Elastic Constant Matrix: (Units=GPa)
#
#
# Indices 1 2 3 4 5 6 
#
# 1 69.1051 5.4186 11.9932 0.0000 0.0000 0.0000
# 2 5.4186 43.0377 18.3768 0.0000 0.0000 0.0000
# 3 11.9932 18.3768 89.3942 0.0000 0.0000 0.0000
# 4 0.0000 0.0000 0.0000 23.2497 0.0000 0.0000
# 5 0.0000 0.0000 0.0000 0.0000 44.4885 0.0000
# 6 0.0000 0.0000 0.0000 0.0000 0.0000 22.0718
#
#
#
# Elastic Compliance Matrix: (Units=1/GPa)
#
#
# Indices 1 2 3 4 5 6 
#
# 1 0.014865 -0.001118 -0.001764 0.000000 0.000000 0.000000
# 2 -0.001118 0.025555 -0.005103 0.000000 0.000000 0.000000
# 3 -0.001764 -0.005103 0.012472 0.000000 0.000000 0.000000
# 4 0.000000 0.000000 0.000000 0.043011 0.000000 0.000000
# 5 0.000000 0.000000 0.000000 0.000000 0.022478 0.000000
# 6 0.000000 0.000000 0.000000 0.000000 0.000000 0.045307
#
#
# Mechanical properties :
#
#
# Convention : Reuss Voigt Hill
#
# Bulk Modulus (GPa) = 27.08538 30.34603 28.71570
# Shear Modulus (GPa) = 26.04624 29.01192 27.52908
#
# Velocity S-wave (km/s) = 3.69687 3.90167 3.80065
# Velocity P-wave (km/s) = 5.69514 6.01834 5.85897
#
# Compressibility (1/GPa) = 0.03692029
#
# Stress axis : x y z
#
# Youngs Moduli (GPa) = 67.27395 39.13082 80.17816
#
# Poissons Ratio (x) = 0.04375 0.14147
# Poissons Ratio (y) = 0.07522 0.40918
# Poissons Ratio (z) = 0.11870 0.19970
#
# Static dielectric constant tensor:
#      x y z
#    x 1.656760 0.000000 0.000000 
#    y 0.000000 1.652740 0.000000 
#    z 0.000000 0.000000 1.694030 
# 
# From -- ./inp_files/26033.got.cif
#   From: 2010.05.17/outbox.cif.g08.bks.cpg/sg62_14_cif.got.tgz:26033.got - 2010.06.03 15:25:27.
