data_PCOD9466378
_publ_section_title
;
Structure prediction by ZEFSAII (Michael W. Deem and Ramdas Pophale) SiO2 
 PCOD9466378
Probable space group: P N M A
;
_chemical_formula_sum "Si O2"
_cell_formula_units_Z 64
_cell_length_a 11.235581
_cell_length_b 24.281324
_cell_length_c 11.677732
_cell_angle_alpha 90.000000
_cell_angle_beta 90.000000
_cell_angle_gamma 90.000000
_cell_volume 3185.857917
_symmetry_space_group_name_H-M "P N M A"
_symmetry_group_IT_number 62
_symmetry_cell_setting 'orthorhombic'
loop_
_space_group_symop_operation_xyz
x,y,z
1/2-x,-y,1/2+z
1/2+x,1/2-y,1/2-z
-x,1/2+y,-z
-x,-y,-z
1/2+x,y,1/2-z
1/2-x,1/2+y,1/2+z
x,1/2-y,z
loop_
_atom_site_type_symbol
_atom_site_label
_atom_site_fract_x
_atom_site_fract_y
_atom_site_fract_z
Si Si1 0.820645 0.932109 0.281569
Si Si2 0.357731 0.353364 0.581983
Si Si3 0.689630 0.937500 0.806618
Si Si4 0.242538 0.620800 0.456268
Si Si5 0.520416 0.651220 0.185231
Si Si6 0.070472 0.382565 0.290807
Si Si7 0.873752 0.808097 0.502765
Si Si8 0.053599 0.185198 0.068099
O O1 0.723135 0.903112 0.366394
O O2 0.793824 0.912646 0.152055
O O3 0.951433 0.907034 0.304791
O O4 0.815395 0.996975 0.294972
O O5 0.425984 0.331077 0.693998
O O6 0.265666 0.314285 0.517642
O O7 0.460283 0.358327 0.487860
O O8 0.805845 0.915502 0.735747
O O9 0.556820 0.913853 0.778180
O O10 0.716894 0.918420 0.936427
O O11 0.326865 0.669509 0.500370
O O12 0.124338 0.646992 0.405861
O O13 0.424073 0.689198 0.125736
O O14 0.081908 0.357452 0.417660
O O15 0.068602 0.332775 0.199272
O O16 0.905918 0.750000 0.556643
O O17 0.024448 0.250000 0.055852
#
# Coordination Sequence:
#
# PCOD9466378 Si02
#       8
#     8   8   8   8   8   8   8   8
#     4  10  23  41  69  96 131 173 217 275 337 387
#     4  10  22  41  62  97 131 163 219 273 320 404
#     4  11  25  42  70  96 133 181 217 273 340 390
#     4  10  22  42  62  95 133 167 219 269 320 410
#     4  10  21  42  62  93 134 160 218 274 316 402
#     4  11  25  45  64 101 134 168 237 271 321 412
#     4  11  23  41  66  92 127 173 214 274 335 384
#     4  11  23  42  68  94 134 178 216 277 339 388
#
# _framework density 20.088781000000001
#
# number of rings (size 3 to 8) (size 9 to 14) (size 15 to 20)
#    0.000    1.500    2.500    1.500    3.500    5.000 
#    0.000    5.625    0.000    0.000    0.000    0.000 
#    0.000    0.000    0.000    0.000    0.000    0.000 
#
# Total GULP energy -356653.180776 kJ/mol
# GULP energy per Si atom -5572.705950 kJ/mol
# Density = 2.004306 g / cm^3
# Si number density = 20.088781 Si / 1000 Ang^3
#
#
#
# Elastic Constant Matrix: (Units=GPa)
#
#
# Indices 1 2 3 4 5 6 
#
# 1 105.1853 17.7955 4.3208 0.0000 0.0000 0.0000
# 2 17.7955 92.7403 11.5451 0.0000 0.0000 0.0000
# 3 4.3208 11.5451 46.9768 0.0000 0.0000 0.0000
# 4 0.0000 0.0000 0.0000 30.4815 0.0000 0.0000
# 5 0.0000 0.0000 0.0000 0.0000 28.5936 0.0000
# 6 0.0000 0.0000 0.0000 0.0000 0.0000 7.3863
#
#
#
# Elastic Compliance Matrix: (Units=1/GPa)
#
#
# Indices 1 2 3 4 5 6 
#
# 1 0.009835 -0.001831 -0.000455 0.000000 0.000000 0.000000
# 2 -0.001831 0.011464 -0.002649 0.000000 0.000000 0.000000
# 3 -0.000455 -0.002649 0.021980 0.000000 0.000000 0.000000
# 4 0.000000 0.000000 0.000000 0.032807 0.000000 0.000000
# 5 0.000000 0.000000 0.000000 0.000000 0.034973 0.000000
# 6 0.000000 0.000000 0.000000 0.000000 0.000000 0.135385
#
#
# Mechanical properties :
#
#
# Convention : Reuss Voigt Hill
#
# Bulk Modulus (GPa) = 29.93077 34.69169 32.31123
# Shear Modulus (GPa) = 18.69513 27.37505 23.03509
#
# Velocity S-wave (km/s) = 3.05392 3.69549 3.38992
# Velocity P-wave (km/s) = 5.23134 5.95949 5.60724
#
# Compressibility (1/GPa) = 0.03341043
#
# Stress axis : x y z
#
# Youngs Moduli (GPa) = 101.67325 87.23082 45.49606
#
# Poissons Ratio (x) = 0.15969 0.02069
# Poissons Ratio (y) = 0.18613 0.12052
# Poissons Ratio (z) = 0.04623 0.23107
#
# Static dielectric constant tensor:
#      x y z
#    x 1.751170 0.000000 0.000000 
#    y 0.000000 1.590290 0.000000 
#    z 0.000000 0.000000 1.715970 
# 
# From -- ./inp_files/12544.got.cif
#   From: 2010.05.17/outbox.cif.g08.bks.cpg/sg62_7_cif.got.tgz:12544.got - 2010.06.03 15:25:27.
