data_PCOD9466257
_publ_section_title
;
Structure prediction by ZEFSAII (Michael W. Deem and Ramdas Pophale) SiO2 
 PCOD9466257
Probable space group: P N M A
;
_chemical_formula_sum "Si O2"
_cell_formula_units_Z 64
_cell_length_a 15.646545
_cell_length_b 8.785210
_cell_length_c 23.984554
_cell_angle_alpha 90.000000
_cell_angle_beta 90.000000
_cell_angle_gamma 90.000000
_cell_volume 3296.873227
_symmetry_space_group_name_H-M "P N M A"
_symmetry_group_IT_number 62
_symmetry_cell_setting 'orthorhombic'
loop_
_space_group_symop_operation_xyz
x,y,z
1/2-x,-y,1/2+z
1/2+x,1/2-y,1/2-z
-x,1/2+y,-z
-x,-y,-z
1/2+x,y,1/2-z
1/2-x,1/2+y,1/2+z
x,1/2-y,z
loop_
_atom_site_type_symbol
_atom_site_label
_atom_site_fract_x
_atom_site_fract_y
_atom_site_fract_z
Si Si1 0.341409 0.568549 0.249797
Si Si2 0.243742 0.067954 0.920956
Si Si3 0.404836 0.431298 0.627846
Si Si4 0.582887 0.567073 0.144175
Si Si5 0.083146 0.569168 0.857154
Si Si6 0.846474 0.931633 0.754023
Si Si7 0.258453 0.930610 0.552148
Si Si8 0.106161 0.431236 0.621496
O O1 0.336862 0.750000 0.258961
O O2 0.404799 0.496019 0.294734
O O3 0.248200 0.495913 0.258279
O O4 0.369133 0.541617 0.186164
O O5 0.230496 0.250000 0.913375
O O6 0.334666 0.029865 0.893048
O O7 0.167342 0.980793 0.890631
O O8 0.244694 0.035088 0.986585
O O9 0.406483 0.250000 0.631465
O O10 0.498911 0.495764 0.616214
O O11 0.375915 0.499348 0.687309
O O12 0.336054 0.484148 0.582452
O O13 0.581464 0.750000 0.153412
O O14 0.593975 0.486757 0.203584
O O15 0.493174 0.526287 0.115672
O O16 0.074956 0.750000 0.855426
O O17 0.844665 0.750000 0.757360
O O18 0.270413 0.750000 0.559240
O O19 0.171109 0.980750 0.582099
O O20 0.115655 0.250000 0.611442
#
# Coordination Sequence:
#
# PCOD9466257 Si02
#       8
#     8   8   8   8   8   8   8   8
#     4  11  21  37  62  92 130 171 205 245 309 382
#     4  10  23  43  65  89 124 169 212 258 315 374
#     4  12  25  43  66  91 124 168 208 254 319 386
#     4  10  21  40  65  92 127 168 210 251 305 380
#     4  12  25  41  65  97 128 161 207 264 313 368
#     4  12  23  37  62  97 130 161 204 260 313 368
#     4  11  24  42  64  91 123 163 213 267 314 364
#     4  10  22  39  63  93 124 166 210 249 307 375
#
# _framework density 19.412333
#
# number of rings (size 3 to 8) (size 9 to 14) (size 15 to 20)
#    0.000    1.000    2.500    4.875    0.000    4.000 
#    0.000    0.000    0.000    0.000    0.000    0.000 
#    0.000    0.000    0.000    0.000    0.000    0.000 
#
# Total GULP energy -358129.107272 kJ/mol
# GULP energy per Si atom -5595.767301 kJ/mol
# Density = 1.936815 g / cm^3
# Si number density = 19.412333 Si / 1000 Ang^3
#
#
#
# Elastic Constant Matrix: (Units=GPa)
#
#
# Indices 1 2 3 4 5 6 
#
# 1 108.4011 39.5704 24.6126 0.0000 0.0000 0.0000
# 2 39.5704 83.9209 49.9713 0.0000 0.0000 0.0000
# 3 24.6126 49.9713 88.1236 0.0000 0.0000 0.0000
# 4 0.0000 0.0000 0.0000 25.6034 0.0000 0.0000
# 5 0.0000 0.0000 0.0000 0.0000 2.6336 0.0000
# 6 0.0000 0.0000 0.0000 0.0000 0.0000 14.4069
#
#
#
# Elastic Compliance Matrix: (Units=1/GPa)
#
#
# Indices 1 2 3 4 5 6 
#
# 1 0.011145 -0.005136 -0.000201 0.000000 0.000000 0.000000
# 2 -0.005136 0.020357 -0.010109 0.000000 0.000000 0.000000
# 3 -0.000201 -0.010109 0.017136 0.000000 0.000000 0.000000
# 4 0.000000 0.000000 0.000000 0.039057 0.000000 0.000000
# 5 0.000000 0.000000 0.000000 0.000000 0.379712 0.000000
# 6 0.000000 0.000000 0.000000 0.000000 0.000000 0.069411
#
#
# Mechanical properties :
#
#
# Convention : Reuss Voigt Hill
#
# Bulk Modulus (GPa) = 56.34607 56.52824 56.43716
# Shear Modulus (GPa) = 8.71647 19.61487 14.16567
#
# Velocity S-wave (km/s) = 2.12130 3.18218 2.70427
# Velocity P-wave (km/s) = 5.92358 6.53335 6.23592
#
# Compressibility (1/GPa) = 0.01774747
#
# Stress axis : x y z
#
# Youngs Moduli (GPa) = 89.72398 49.12232 58.35561
#
# Poissons Ratio (x) = 0.25228 0.01170
# Poissons Ratio (y) = 0.46081 0.58994
# Poissons Ratio (z) = 0.01799 0.49660
#
# Static dielectric constant tensor:
#      x y z
#    x 1.692740 0.000000 0.000000 
#    y 0.000000 1.647890 0.000000 
#    z 0.000000 0.000000 1.650110 
# 
# From -- ./inp_files/29948.got.cif
#   From: 2010.05.17/outbox.cif.g08.bks.cpg/sg62_15_cif.got.tgz:29948.got - 2010.06.03 15:25:27.
