data_PCOD9466885
_publ_section_title
;
Structure prediction by ZEFSAII (Michael W. Deem and Ramdas Pophale) SiO2 
 PCOD9466885
Probable space group: P N M A
;
_chemical_formula_sum "Si O2"
_cell_formula_units_Z 48
_cell_length_a 19.213508
_cell_length_b 10.725841
_cell_length_c 13.381210
_cell_angle_alpha 90.000000
_cell_angle_beta 90.000000
_cell_angle_gamma 90.000000
_cell_volume 2757.613564
_symmetry_space_group_name_H-M "P N M A"
_symmetry_group_IT_number 62
_symmetry_cell_setting 'orthorhombic'
loop_
_space_group_symop_operation_xyz
x,y,z
1/2-x,-y,1/2+z
1/2+x,1/2-y,1/2-z
-x,1/2+y,-z
-x,-y,-z
1/2+x,y,1/2-z
1/2-x,1/2+y,1/2+z
x,1/2-y,z
loop_
_atom_site_type_symbol
_atom_site_label
_atom_site_fract_x
_atom_site_fract_y
_atom_site_fract_z
Si Si1 0.868302 0.250000 0.153291
Si Si2 0.410577 0.106600 0.030070
Si Si3 0.978230 0.392376 0.867562
Si Si4 0.348229 0.750000 0.543259
Si Si5 0.466624 0.993801 0.836907
Si Si6 0.966032 0.750000 0.792899
Si Si7 0.614114 0.506710 0.535349
Si Si8 0.298338 0.250000 0.131865
O O1 0.852884 0.375418 0.091018
O O2 0.826224 0.250000 0.256034
O O3 0.951576 0.250000 0.179739
O O4 0.438704 0.250000 0.018318
O O5 0.460301 0.035375 0.107776
O O6 0.334749 0.132129 0.075946
O O7 0.415326 0.036416 0.924996
O O8 0.987699 0.250000 0.899294
O O9 0.971667 0.403307 0.749077
O O10 0.044717 0.471318 0.902476
O O11 0.912563 0.447347 0.927009
O O12 0.419714 0.750000 0.607220
O O13 0.345833 0.623066 0.479011
O O14 0.283260 0.750000 0.617956
O O15 0.449071 0.869946 0.774470
#
# Coordination Sequence:
#
# PCOD9466885 Si02
#       8
#     4   8   8   4   8   4   8   4
#     4  12  20  42  67  85 116 163 199 251 313 360
#     4   9  19  36  55  80 110 161 195 244 292 354
#     4  11  19  30  53  90 122 142 177 253 310 344
#     4  12  24  40  57  89 124 158 201 248 298 375
#     4  11  18  31  59  86 114 144 205 246 297 340
#     4  12  18  34  60  89 116 148 198 255 293 354
#     4  11  21  34  57  87 120 150 193 240 300 367
#     4  10  22  44  58  77 124 171 194 236 322 367
#
# _framework density 17.406355999999999
#
# number of rings (size 3 to 8) (size 9 to 14) (size 15 to 20)
#    0.500    0.667    7.500    1.500    0.000    0.000 
#    3.000    0.000    0.000    1.000    0.000    0.000 
#    0.000    0.000    0.000    0.000    0.000    0.000 
#
# Total GULP energy -267534.013632 kJ/mol
# GULP energy per Si atom -5573.625284 kJ/mol
# Density = 1.736674 g / cm^3
# Si number density = 17.406356 Si / 1000 Ang^3
#
#
#
# Elastic Constant Matrix: (Units=GPa)
#
#
# Indices 1 2 3 4 5 6 
#
# 1 46.5451 13.3355 23.6930 0.0000 0.0000 0.0000
# 2 13.3355 112.3419 38.3802 0.0000 0.0000 0.0000
# 3 23.6930 38.3802 105.7742 0.0000 0.0000 0.0000
# 4 0.0000 0.0000 0.0000 36.6708 0.0000 0.0000
# 5 0.0000 0.0000 0.0000 0.0000 10.9201 0.0000
# 6 0.0000 0.0000 0.0000 0.0000 0.0000 5.4307
#
#
#
# Elastic Compliance Matrix: (Units=1/GPa)
#
#
# Indices 1 2 3 4 5 6 
#
# 1 0.024384 -0.001174 -0.005036 0.000000 0.000000 0.000000
# 2 -0.001174 0.010218 -0.003444 0.000000 0.000000 0.000000
# 3 -0.005036 -0.003444 0.011832 0.000000 0.000000 0.000000
# 4 0.000000 0.000000 0.000000 0.027270 0.000000 0.000000
# 5 0.000000 0.000000 0.000000 0.000000 0.091574 0.000000
# 6 0.000000 0.000000 0.000000 0.000000 0.000000 0.184139
#
#
# Mechanical properties :
#
#
# Convention : Reuss Voigt Hill
#
# Bulk Modulus (GPa) = 36.86651 46.16427 41.51539
# Shear Modulus (GPa) = 13.23566 23.22116 18.22841
#
# Velocity S-wave (km/s) = 2.76051 3.65644 3.23960
# Velocity P-wave (km/s) = 5.60236 6.66372 6.15596
#
# Compressibility (1/GPa) = 0.02712489
#
# Stress axis : x y z
#
# Youngs Moduli (GPa) = 41.00985 97.87113 84.51686
#
# Poissons Ratio (x) = 0.11491 0.42563
# Poissons Ratio (y) = 0.04815 0.29111
# Poissons Ratio (z) = 0.20653 0.33711
#
# Static dielectric constant tensor:
#      x y z
#    x 1.564230 0.000000 0.000000 
#    y 0.000000 1.639210 0.000000 
#    z 0.000000 0.000000 1.591030 
# 
# From -- ./inp_files/14761.got.cif
#   From: 2010.05.17/outbox.cif.g08.bks.cpg/sg62_8_cif.got.tgz:14761.got - 2010.06.03 15:25:27.
