data_PCOD9466987
_publ_section_title
;
Structure prediction by ZEFSAII (Michael W. Deem and Ramdas Pophale) SiO2 
 PCOD9466987
Probable space group: P N M A
;
_chemical_formula_sum "Si O2"
_cell_formula_units_Z 48
_cell_length_a 11.602857
_cell_length_b 13.106645
_cell_length_c 16.690699
_cell_angle_alpha 90.000000
_cell_angle_beta 90.000000
_cell_angle_gamma 90.000000
_cell_volume 2538.230167
_symmetry_space_group_name_H-M "P N M A"
_symmetry_group_IT_number 62
_symmetry_cell_setting 'orthorhombic'
loop_
_space_group_symop_operation_xyz
x,y,z
1/2-x,-y,1/2+z
1/2+x,1/2-y,1/2-z
-x,1/2+y,-z
-x,-y,-z
1/2+x,y,1/2-z
1/2-x,1/2+y,1/2+z
x,1/2-y,z
loop_
_atom_site_type_symbol
_atom_site_label
_atom_site_fract_x
_atom_site_fract_y
_atom_site_fract_z
Si Si1 0.222866 0.369503 0.487963
Si Si2 0.055667 0.967456 0.915827
Si Si3 0.136169 0.371542 0.200170
Si Si4 0.709369 0.130368 0.672880
Si Si5 0.183499 0.035533 0.654936
Si Si6 0.417486 0.513531 0.864522
O O1 0.202435 0.250000 0.491743
O O2 0.335904 0.395098 0.435693
O O3 0.238856 0.414613 0.576450
O O4 0.117970 0.426914 0.444441
O O5 0.963851 0.911821 0.859125
O O6 0.109171 0.065852 0.871008
O O7 0.000000 0.000000 0.000000
O O8 0.145387 0.250000 0.198042
O O9 0.253003 0.428945 0.173780
O O10 0.107806 0.412524 0.288993
O O11 0.701445 0.250000 0.656921
O O12 0.700112 0.106031 0.767243
O O13 0.830408 0.082002 0.644014
O O14 0.048989 0.019458 0.639343
#
# Coordination Sequence:
#
# PCOD9466987 Si02
#       6
#     8   8   8   8   8   8
#     4  11  23  39  64  92 124 165 204 257 321 371
#     4  11  22  44  62  93 130 157 211 267 303 370
#     4  11  23  41  66  91 124 169 211 261 320 368
#     4  10  23  41  66  93 126 170 207 255 319 371
#     4  11  22  43  62  93 128 162 212 260 303 386
#     4  10  23  43  61  91 130 158 212 262 306 381
#
# _framework density 18.910813999999998
#
# number of rings (size 3 to 8) (size 9 to 14) (size 15 to 20)
#    0.000    1.333    3.333    2.000    0.000    4.000 
#    0.000    0.000    0.000    0.000    0.000    0.000 
#    0.000    0.000    0.000    0.000    0.000    0.000 
#
# Total GULP energy -268319.725532 kJ/mol
# GULP energy per Si atom -5589.994282 kJ/mol
# Density = 1.886777 g / cm^3
# Si number density = 18.910814 Si / 1000 Ang^3
#
#
#
# Elastic Constant Matrix: (Units=GPa)
#
#
# Indices 1 2 3 4 5 6 
#
# 1 61.4606 12.2907 -5.3028 0.0000 0.0000 0.0000
# 2 12.2907 131.9765 34.1772 0.0000 0.0000 0.0000
# 3 -5.3028 34.1772 99.0794 0.0000 0.0000 0.0000
# 4 0.0000 0.0000 0.0000 11.9984 0.0000 0.0000
# 5 0.0000 0.0000 0.0000 0.0000 -39.2628 0.0000
# 6 0.0000 0.0000 0.0000 0.0000 0.0000 12.0123
#
#
#
# Elastic Compliance Matrix: (Units=1/GPa)
#
#
# Indices 1 2 3 4 5 6 
#
# 1 0.016802 -0.001974 0.001580 0.000000 0.000000 0.000000
# 2 -0.001974 0.008552 -0.003056 0.000000 0.000000 0.000000
# 3 0.001580 -0.003056 0.011232 0.000000 0.000000 0.000000
# 4 0.000000 0.000000 0.000000 0.083344 0.000000 0.000000
# 5 0.000000 0.000000 0.000000 0.000000 -0.025469 0.000000
# 6 0.000000 0.000000 0.000000 0.000000 0.000000 0.083248
#
#
# Mechanical properties :
#
#
# Convention : Reuss Voigt Hill
#
# Bulk Modulus (GPa) = 33.68538 41.64962 37.66750
# Shear Modulus (GPa) = 25.70651 13.70634 19.70642
#
# Velocity S-wave (km/s) = 3.69094 2.69511 3.23162
# Velocity P-wave (km/s) = 6.00129 5.63532 5.82118
#
# Compressibility (1/GPa) = 0.02968647
#
# Stress axis : x y z
#
# Youngs Moduli (GPa) = 59.51796 116.92818 89.03488
#
# Poissons Ratio (x) = 0.23080 -0.14069
# Poissons Ratio (y) = 0.11748 0.27207
# Poissons Ratio (z) = -0.09405 0.35730
#
# Static dielectric constant tensor:
#      x y z
#    x 1.652620 0.000000 0.000000 
#    y 0.000000 1.605140 0.000000 
#    z 0.000000 0.000000 1.650370 
# 
# From -- ./inp_files/23005.got.cif
#   From: 2010.05.17/outbox.cif.g08.bks.cpg/sg62_12_cif.got.tgz:23005.got - 2010.06.03 15:25:27.
