data_PCOD9466099
_publ_section_title
;
Structure prediction by ZEFSAII (Michael W. Deem and Ramdas Pophale) SiO2 
 PCOD9466099
Probable space group: P N M A
;
_chemical_formula_sum "Si O2"
_cell_formula_units_Z 48
_cell_length_a 14.451159
_cell_length_b 20.298281
_cell_length_c 7.057040
_cell_angle_alpha 90.000000
_cell_angle_beta 90.000000
_cell_angle_gamma 90.000000
_cell_volume 2070.067557
_symmetry_space_group_name_H-M "P N M A"
_symmetry_group_IT_number 62
_symmetry_cell_setting 'orthorhombic'
loop_
_space_group_symop_operation_xyz
x,y,z
1/2-x,-y,1/2+z
1/2+x,1/2-y,1/2-z
-x,1/2+y,-z
-x,-y,-z
1/2+x,y,1/2-z
1/2-x,1/2+y,1/2+z
x,1/2-y,z
loop_
_atom_site_type_symbol
_atom_site_label
_atom_site_fract_x
_atom_site_fract_y
_atom_site_fract_z
Si Si1 0.152624 0.885531 0.514510
Si Si2 0.601296 0.530605 0.643406
Si Si3 0.267496 0.678621 0.764612
Si Si4 0.273347 0.671770 0.192262
Si Si5 0.944681 0.589019 0.400452
Si Si6 0.401619 0.937032 0.679496
O O1 0.164183 0.938466 0.689523
O O2 0.177966 0.821071 0.633757
O O3 0.219577 0.877286 0.333635
O O4 0.048530 0.890380 0.444695
O O5 0.559643 0.465845 0.742509
O O6 0.865240 0.500862 0.944603
O O7 0.509162 0.575096 0.621116
O O8 0.312728 0.750000 0.775977
O O9 0.338459 0.627762 0.667352
O O10 0.237247 0.661330 0.977639
O O11 0.265824 0.750000 0.240088
O O12 0.379252 0.648223 0.167177
O O13 0.905286 0.554747 0.592657
#
# Coordination Sequence:
#
# PCOD9466099 Si02
#       6
#     8   8   8   8   8   8
#     4  11  22  38  65  98 133 175 220 281 345 407
#     4  10  21  39  62  95 134 162 221 277 340 416
#     4  10  22  41  62  93 130 174 232 279 333 406
#     4  10  23  43  65  97 138 179 230 282 340 410
#     4  10  22  42  65  95 135 179 226 279 342 403
#     4   9  19  39  63  90 127 173 211 279 338 400
#
# _framework density 23.187647999999999
#
# number of rings (size 3 to 8) (size 9 to 14) (size 15 to 20)
#    0.000    2.000    0.000    3.500    0.000    6.667 
#   18.000    5.000    0.000    6.000    0.000    0.000 
#    0.000    0.000    0.000    0.000    0.000    0.000 
#
# Total GULP energy -267466.840692 kJ/mol
# GULP energy per Si atom -5572.225848 kJ/mol
# Density = 2.313487 g / cm^3
# Si number density = 23.187648 Si / 1000 Ang^3
#
#
#
# Elastic Constant Matrix: (Units=GPa)
#
#
# Indices 1 2 3 4 5 6 
#
# 1 77.1345 37.5326 58.8046 0.0000 0.0000 0.0000
# 2 37.5326 77.6461 66.1805 0.0000 0.0000 0.0000
# 3 58.8046 66.1805 145.6732 0.0000 0.0000 0.0000
# 4 0.0000 0.0000 0.0000 35.6448 0.0000 0.0000
# 5 0.0000 0.0000 0.0000 0.0000 32.1472 0.0000
# 6 0.0000 0.0000 0.0000 0.0000 0.0000 19.2247
#
#
#
# Elastic Compliance Matrix: (Units=1/GPa)
#
#
# Indices 1 2 3 4 5 6 
#
# 1 0.019632 -0.004463 -0.005897 0.000000 0.000000 0.000000
# 2 -0.004463 0.022032 -0.008208 0.000000 0.000000 0.000000
# 3 -0.005897 -0.008208 0.012974 0.000000 0.000000 0.000000
# 4 0.000000 0.000000 0.000000 0.028055 0.000000 0.000000
# 5 0.000000 0.000000 0.000000 0.000000 0.031107 0.000000
# 6 0.000000 0.000000 0.000000 0.000000 0.000000 0.052016
#
#
# Mechanical properties :
#
#
# Convention : Reuss Voigt Hill
#
# Bulk Modulus (GPa) = 57.13702 69.49879 63.31791
# Shear Modulus (GPa) = 23.94795 26.59909 25.27352
#
# Velocity S-wave (km/s) = 3.21719 3.39060 3.30503
# Velocity P-wave (km/s) = 6.20444 6.73540 6.47536
#
# Compressibility (1/GPa) = 0.01750179
#
# Stress axis : x y z
#
# Youngs Moduli (GPa) = 50.93727 45.38836 77.07701
#
# Poissons Ratio (x) = 0.20258 0.45454
# Poissons Ratio (y) = 0.22735 0.63262
# Poissons Ratio (z) = 0.30039 0.37253
#
# Static dielectric constant tensor:
#      x y z
#    x 1.971330 0.000000 0.000000 
#    y 0.000000 1.949720 0.000000 
#    z 0.000000 0.000000 1.941520 
# 
# From -- ./inp_files/5298.got.cif
#   From: 2010.05.17/outbox.cif.g08.bks.cpg/sg62_3_cif.got.tgz:5298.got - 2010.06.03 15:25:27.
