data_PCOD9466667
_publ_section_title
;
Structure prediction by ZEFSAII (Michael W. Deem and Ramdas Pophale) SiO2 
 PCOD9466667
Probable space group: P N M A
;
_chemical_formula_sum "Si O2"
_cell_formula_units_Z 64
_cell_length_a 20.294416
_cell_length_b 8.342567
_cell_length_c 19.300574
_cell_angle_alpha 90.000000
_cell_angle_beta 90.000000
_cell_angle_gamma 90.000000
_cell_volume 3267.732419
_symmetry_space_group_name_H-M "P N M A"
_symmetry_group_IT_number 62
_symmetry_cell_setting 'orthorhombic'
loop_
_space_group_symop_operation_xyz
x,y,z
1/2-x,-y,1/2+z
1/2+x,1/2-y,1/2-z
-x,1/2+y,-z
-x,-y,-z
1/2+x,y,1/2-z
1/2-x,1/2+y,1/2+z
x,1/2-y,z
loop_
_atom_site_type_symbol
_atom_site_label
_atom_site_fract_x
_atom_site_fract_y
_atom_site_fract_z
Si Si1 0.051970 0.556183 0.056562
Si Si2 0.902344 0.437687 0.306083
Si Si3 0.353557 0.940003 0.791458
Si Si4 0.018141 0.940740 0.212289
Si Si5 0.701178 0.945348 0.462014
Si Si6 0.317015 0.945183 0.944945
Si Si7 0.062235 0.442338 0.543962
Si Si8 0.255986 0.939617 0.188394
O O1 0.053364 0.750000 0.057494
O O2 0.032276 0.502916 0.133940
O O3 0.125853 0.499656 0.038559
O O4 0.000000 0.500000 0.000000
O O5 0.888328 0.250000 0.305003
O O6 0.934637 0.484157 0.379736
O O7 0.832858 0.528117 0.299815
O O8 0.954188 0.481270 0.246593
O O9 0.366582 0.750000 0.795198
O O10 0.337092 0.000722 0.868676
O O11 0.417556 0.020855 0.758118
O O12 0.290951 0.972265 0.742662
O O13 0.008513 0.750000 0.211125
O O14 0.700522 0.750000 0.463776
O O15 0.746629 0.000052 0.525619
O O16 0.735705 0.989994 0.389464
O O17 0.315391 0.750000 0.942164
O O18 0.372511 0.988410 0.000987
O O19 0.061082 0.250000 0.550367
O O20 0.000000 0.500000 0.500000
O O21 0.242659 0.750000 0.193981
#
# Coordination Sequence:
#
# PCOD9466667 Si02
#       8
#     8   8   8   8   8   8   8   8
#     4  10  22  40  65  94 122 161 211 260 315 376
#     4  12  25  40  60  92 127 163 210 265 320 373
#     4  11  22  37  61  96 130 162 205 261 317 375
#     4  11  23  42  64  89 125 172 218 258 311 384
#     4   9  17  37  64  86 114 159 207 249 303 371
#     4   9  19  35  59  88 119 157 202 251 309 370
#     4  11  21  37  60  87 123 166 207 253 309 375
#     4  11  21  40  66  88 119 167 212 253 310 380
#
# _framework density 19.585448
#
# number of rings (size 3 to 8) (size 9 to 14) (size 15 to 20)
#    0.000    1.500    2.500    3.375    0.000    3.000 
#    0.000    3.125    0.000    0.000    0.000    0.000 
#    0.000    0.000    0.000    0.000    0.000    0.000 
#
# Total GULP energy -357725.187579 kJ/mol
# GULP energy per Si atom -5589.456056 kJ/mol
# Density = 1.954087 g / cm^3
# Si number density = 19.585448 Si / 1000 Ang^3
#
#
#
# Elastic Constant Matrix: (Units=GPa)
#
#
# Indices 1 2 3 4 5 6 
#
# 1 125.4264 -13.2696 52.5467 0.0000 0.0000 0.0000
# 2 -13.2696 19.0272 4.9221 0.0000 0.0000 0.0000
# 3 52.5467 4.9221 119.2635 0.0000 0.0000 0.0000
# 4 0.0000 0.0000 0.0000 21.7217 0.0000 0.0000
# 5 0.0000 0.0000 0.0000 0.0000 40.2168 0.0000
# 6 0.0000 0.0000 0.0000 0.0000 0.0000 30.2492
#
#
#
# Elastic Compliance Matrix: (Units=1/GPa)
#
#
# Indices 1 2 3 4 5 6 
#
# 1 0.011159 0.009152 -0.005294 0.000000 0.000000 0.000000
# 2 0.009152 0.060629 -0.006535 0.000000 0.000000 0.000000
# 3 -0.005294 -0.006535 0.010987 0.000000 0.000000 0.000000
# 4 0.000000 0.000000 0.000000 0.046037 0.000000 0.000000
# 5 0.000000 0.000000 0.000000 0.000000 0.024865 0.000000
# 6 0.000000 0.000000 0.000000 0.000000 0.000000 0.033059
#
#
# Mechanical properties :
#
#
# Convention : Reuss Voigt Hill
#
# Bulk Modulus (GPa) = 12.91627 39.12394 26.02011
# Shear Modulus (GPa) = 22.94657 33.07206 28.00932
#
# Velocity S-wave (km/s) = 3.42660 4.11372 3.78578
# Velocity P-wave (km/s) = 4.71853 6.52556 5.69419
#
# Compressibility (1/GPa) = 0.07742174
#
# Stress axis : x y z
#
# Youngs Moduli (GPa) = 89.61311 16.49367 91.01560
#
# Poissons Ratio (x) = -0.15095 0.48187
# Poissons Ratio (y) = -0.82014 0.59474
# Poissons Ratio (z) = 0.47444 0.10778
#
# Static dielectric constant tensor:
#      x y z
#    x 1.658880 0.000000 0.000000 
#    y 0.000000 1.672870 0.000000 
#    z 0.000000 0.000000 1.666520 
# 
# From -- ./inp_files/24717.got.cif
#   From: 2010.05.17/outbox.cif.g08.bks.cpg/sg62_13_cif.got.tgz:24717.got - 2010.06.03 15:25:27.
