data_PCOD9466281
_publ_section_title
;
Structure prediction by ZEFSAII (Michael W. Deem and Ramdas Pophale) SiO2 
 PCOD9466281
Probable space group: P N M A
;
_chemical_formula_sum "Si O2"
_cell_formula_units_Z 64
_cell_length_a 23.216696
_cell_length_b 15.319874
_cell_length_c 8.090268
_cell_angle_alpha 90.000000
_cell_angle_beta 90.000000
_cell_angle_gamma 90.000000
_cell_volume 2877.521098
_symmetry_space_group_name_H-M "P N M A"
_symmetry_group_IT_number 62
_symmetry_cell_setting 'orthorhombic'
loop_
_space_group_symop_operation_xyz
x,y,z
1/2-x,-y,1/2+z
1/2+x,1/2-y,1/2-z
-x,1/2+y,-z
-x,-y,-z
1/2+x,y,1/2-z
1/2-x,1/2+y,1/2+z
x,1/2-y,z
loop_
_atom_site_type_symbol
_atom_site_label
_atom_site_fract_x
_atom_site_fract_y
_atom_site_fract_z
Si Si1 0.984721 0.653916 0.267703
Si Si2 0.515967 0.346744 0.383235
Si Si3 0.230611 0.846440 0.443300
Si Si4 0.067667 0.526202 0.710643
Si Si5 0.629834 0.084548 0.243787
Si Si6 0.397495 0.104612 0.888685
Si Si7 0.248697 0.651053 0.838568
Si Si8 0.319395 0.988194 0.413813
O O1 0.967713 0.750000 0.333248
O O2 0.053970 0.646471 0.274912
O O3 0.960308 0.565367 0.348246
O O4 0.966913 0.648850 0.075937
O O5 0.490574 0.250000 0.355148
O O6 0.473576 0.426610 0.342967
O O7 0.573585 0.358255 0.275858
O O8 0.254485 0.750000 0.410977
O O9 0.164813 0.852493 0.387118
O O10 0.232118 0.859359 0.643150
O O11 0.269757 0.920417 0.361222
O O12 0.076054 0.599441 0.571456
O O13 0.129607 0.502485 0.784836
O O14 0.683205 0.131043 0.154744
O O15 0.611896 0.996482 0.153497
O O16 0.653370 0.051728 0.421287
O O17 0.236554 0.750000 0.887712
O O18 0.212383 0.580302 0.938528
#
# Coordination Sequence:
#
# PCOD9466281 Si02
#       8
#     8   8   8   8   8   8   8   8
#     4  11  24  42  64  94 129 168 213 268 321 378
#     4  11  24  43  68  96 127 170 222 270 318 378
#     4  10  22  40  65  94 126 165 211 261 322 384
#     4  12  24  42  65  96 129 173 214 263 321 387
#     4  11  22  41  69  92 128 170 213 265 322 382
#     4  12  23  41  67  90 131 172 209 263 330 380
#     4  10  21  40  66  96 124 163 213 263 314 379
#     4  11  22  40  69  91 128 164 216 263 317 382
#
# _framework density 22.241365999999999
#
# number of rings (size 3 to 8) (size 9 to 14) (size 15 to 20)
#    0.000    1.000    5.000    2.250    0.000    2.500 
#    0.000    1.875    0.000    0.000    0.000    0.000 
#    0.000    0.000    0.000    0.000    0.000    0.000 
#
# Total GULP energy -357874.100625 kJ/mol
# GULP energy per Si atom -5591.782822 kJ/mol
# Density = 2.219074 g / cm^3
# Si number density = 22.241366 Si / 1000 Ang^3
#
#
#
# Elastic Constant Matrix: (Units=GPa)
#
#
# Indices 1 2 3 4 5 6 
#
# 1 83.4829 38.8539 -1.2623 0.0000 0.0000 0.0000
# 2 38.8539 143.2581 -5.3098 0.0000 0.0000 0.0000
# 3 -1.2623 -5.3098 8.0579 0.0000 0.0000 0.0000
# 4 0.0000 0.0000 0.0000 12.6264 0.0000 0.0000
# 5 0.0000 0.0000 0.0000 0.0000 0.8395 0.0000
# 6 0.0000 0.0000 0.0000 0.0000 0.0000 15.1344
#
#
#
# Elastic Compliance Matrix: (Units=1/GPa)
#
#
# Indices 1 2 3 4 5 6 
#
# 1 0.013710 -0.003730 -0.000310 0.000000 0.000000 0.000000
# 2 -0.003730 0.008170 0.004799 0.000000 0.000000 0.000000
# 3 -0.000310 0.004799 0.127216 0.000000 0.000000 0.000000
# 4 0.000000 0.000000 0.000000 0.079199 0.000000 0.000000
# 5 0.000000 0.000000 0.000000 0.000000 1.191204 0.000000
# 6 0.000000 0.000000 0.000000 0.000000 0.000000 0.066075
#
#
# Mechanical properties :
#
#
# Convention : Reuss Voigt Hill
#
# Bulk Modulus (GPa) = 6.63949 33.26249 19.95099
# Shear Modulus (GPa) = 3.25890 19.22119 11.24005
#
# Velocity S-wave (km/s) = 1.21179 2.94293 2.25048
# Velocity P-wave (km/s) = 2.22477 5.15126 3.96769
#
# Compressibility (1/GPa) = 0.15061395
#
# Stress axis : x y z
#
# Youngs Moduli (GPa) = 72.94108 122.40095 7.86067
#
# Poissons Ratio (x) = 0.45653 0.00244
# Poissons Ratio (y) = 0.27205 -0.03773
# Poissons Ratio (z) = 0.02262 -0.58744
#
# Static dielectric constant tensor:
#      x y z
#    x 1.802140 0.000000 0.000000 
#    y 0.000000 1.789160 0.000000 
#    z 0.000000 0.000000 1.871010 
# 
# From -- ./inp_files/9471.got.cif
#   From: 2010.05.17/outbox.cif.g08.bks.cpg/sg62_5_cif.got.tgz:9471.got - 2010.06.03 15:25:27.
