data_PCOD9466510
_publ_section_title
;
Structure prediction by ZEFSAII (Michael W. Deem and Ramdas Pophale) SiO2 
 PCOD9466510
Probable space group: P N M A
;
_chemical_formula_sum "Si O2"
_cell_formula_units_Z 48
_cell_length_a 23.532566
_cell_length_b 9.235623
_cell_length_c 12.012416
_cell_angle_alpha 90.000000
_cell_angle_beta 90.000000
_cell_angle_gamma 90.000000
_cell_volume 2610.753361
_symmetry_space_group_name_H-M "P N M A"
_symmetry_group_IT_number 62
_symmetry_cell_setting 'orthorhombic'
loop_
_space_group_symop_operation_xyz
x,y,z
1/2-x,-y,1/2+z
1/2+x,1/2-y,1/2-z
-x,1/2+y,-z
-x,-y,-z
1/2+x,y,1/2-z
1/2-x,1/2+y,1/2+z
x,1/2-y,z
loop_
_atom_site_type_symbol
_atom_site_label
_atom_site_fract_x
_atom_site_fract_y
_atom_site_fract_z
Si Si1 0.842507 0.079974 0.169665
Si Si2 0.938667 0.423817 0.000019
Si Si3 0.144473 0.915451 0.567382
Si Si4 0.389166 0.076476 0.743038
Si Si5 0.726038 0.917457 0.130943
Si Si6 0.948631 0.579342 0.560587
O O1 0.837215 0.250000 0.143246
O O2 0.849937 0.065630 0.301875
O O3 0.783740 0.004344 0.139449
O O4 0.897510 0.027680 0.100904
O O5 0.947450 0.250000 0.008338
O O6 0.904453 0.451784 0.884958
O O7 0.000000 0.500000 0.000000
O O8 0.122075 0.750000 0.546817
O O9 0.201536 0.924428 0.494516
O O10 0.104579 0.037458 0.516493
O O11 0.393982 0.250000 0.762258
O O12 0.325887 0.035030 0.787022
O O13 0.433679 0.992353 0.820920
O O14 0.737394 0.750000 0.158204
O O15 0.957570 0.750000 0.570598
O O16 0.000000 0.500000 0.500000
#
# Coordination Sequence:
#
# PCOD9466510 Si02
#       6
#     8   8   8   8   8   8
#     4  10  22  38  60  87 118 154 192 241 294 350
#     4  10  23  41  60  86 120 160 202 247 295 351
#     4   9  20  39  57  82 119 151 189 240 292 344
#     4   9  20  40  60  83 120 157 193 242 297 348
#     4   9  19  36  59  85 116 154 191 240 295 347
#     4  11  22  36  59  87 113 147 191 239 291 349
#
# _framework density 18.385497000000001
#
# number of rings (size 3 to 8) (size 9 to 14) (size 15 to 20)
#    0.000    2.333    0.000    2.500    4.667    4.667 
#    0.000    0.000    0.000    0.000    0.000    0.000 
#    0.000    0.000    0.000    0.000    0.000    0.000 
#
# Total GULP energy -267685.710412 kJ/mol
# GULP energy per Si atom -5576.785634 kJ/mol
# Density = 1.834365 g / cm^3
# Si number density = 18.385497 Si / 1000 Ang^3
#
#
#
# Elastic Constant Matrix: (Units=GPa)
#
#
# Indices 1 2 3 4 5 6 
#
# 1 82.1218 25.1961 49.8030 0.0000 0.0000 0.0000
# 2 25.1961 44.2820 32.4135 0.0000 0.0000 0.0000
# 3 49.8030 32.4135 110.4485 0.0000 0.0000 0.0000
# 4 0.0000 0.0000 0.0000 23.7147 0.0000 0.0000
# 5 0.0000 0.0000 0.0000 0.0000 8.3609 0.0000
# 6 0.0000 0.0000 0.0000 0.0000 0.0000 39.3894
#
#
#
# Elastic Compliance Matrix: (Units=1/GPa)
#
#
# Indices 1 2 3 4 5 6 
#
# 1 0.017716 -0.005391 -0.006406 0.000000 0.000000 0.000000
# 2 -0.005391 0.030401 -0.006491 0.000000 0.000000 0.000000
# 3 -0.006406 -0.006491 0.013848 0.000000 0.000000 0.000000
# 4 0.000000 0.000000 0.000000 0.042168 0.000000 0.000000
# 5 0.000000 0.000000 0.000000 0.000000 0.119604 0.000000
# 6 0.000000 0.000000 0.000000 0.000000 0.000000 0.025388
#
#
# Mechanical properties :
#
#
# Convention : Reuss Voigt Hill
#
# Bulk Modulus (GPa) = 39.38823 50.18638 44.78731
# Shear Modulus (GPa) = 16.99726 22.92231 19.95978
#
# Velocity S-wave (km/s) = 3.04385 3.53478 3.29846
# Velocity P-wave (km/s) = 5.81579 6.63442 6.23855
#
# Compressibility (1/GPa) = 0.02538829
#
# Stress axis : x y z
#
# Youngs Moduli (GPa) = 56.44531 32.89334 72.21421
#
# Poissons Ratio (x) = 0.17733 0.46264
# Poissons Ratio (y) = 0.30430 0.46874
# Poissons Ratio (z) = 0.36161 0.21351
#
# Static dielectric constant tensor:
#      x y z
#    x 1.651430 0.000000 0.000000 
#    y 0.000000 1.627390 0.000000 
#    z 0.000000 0.000000 1.646350 
# 
# From -- ./inp_files/15103.got.cif
#   From: 2010.05.17/outbox.cif.g08.bks.cpg/sg62_8_cif.got.tgz:15103.got - 2010.06.03 15:25:27.
