data_PCOD9466507
_publ_section_title
;
Structure prediction by ZEFSAII (Michael W. Deem and Ramdas Pophale) SiO2 
 PCOD9466507
Probable space group: P N M A
;
_chemical_formula_sum "Si O2"
_cell_formula_units_Z 40
_cell_length_a 5.527410
_cell_length_b 13.481657
_cell_length_c 22.009747
_cell_angle_alpha 90.000000
_cell_angle_beta 90.000000
_cell_angle_gamma 90.000000
_cell_volume 1640.136539
_symmetry_space_group_name_H-M "P N M A"
_symmetry_group_IT_number 62
_symmetry_cell_setting 'orthorhombic'
loop_
_space_group_symop_operation_xyz
x,y,z
1/2-x,-y,1/2+z
1/2+x,1/2-y,1/2-z
-x,1/2+y,-z
-x,-y,-z
1/2+x,y,1/2-z
1/2-x,1/2+y,1/2+z
x,1/2-y,z
loop_
_atom_site_type_symbol
_atom_site_label
_atom_site_fract_x
_atom_site_fract_y
_atom_site_fract_z
Si Si1 0.729616 0.865293 0.988581
Si Si2 0.807873 0.634710 0.774556
Si Si3 0.912234 0.359880 0.108184
Si Si4 0.543551 0.520457 0.098581
Si Si5 0.622221 0.132023 0.786656
O O1 0.656262 0.750000 0.979769
O O2 0.593115 0.945909 0.947177
O O3 0.001289 0.871212 0.961330
O O4 0.682043 0.898424 0.057131
O O5 0.794245 0.750000 0.754251
O O6 0.613557 0.426382 0.850363
O O7 0.050539 0.592160 0.744184
O O8 0.859821 0.636828 0.846244
O O9 0.803816 0.250000 0.115436
O O10 0.741543 0.447921 0.127348
O O11 0.371445 0.112363 0.749836
O O12 0.620876 0.250000 0.799573
#
# Coordination Sequence:
#
# PCOD9466507 Si02
#       5
#     8   8   8   8   8
#     4  10  23  43  64  95 133 176 231 288 349 412
#     4   9  19  34  54  81 118 167 213 256 318 390
#     4  10  22  38  59  89 132 174 222 286 343 410
#     4  11  23  40  70  96 132 177 232 284 348 417
#     4  10  24  47  74 106 142 181 230 290 349 409
#
# _framework density 24.388216
#
# number of rings (size 3 to 8) (size 9 to 14) (size 15 to 20)
#    0.000    2.000    0.000    1.800    5.600    1.600 
#    0.000    0.000    0.000    2.400    0.000    0.000 
#    0.000    0.000    0.000    0.000    0.000    0.000 
#
# Total GULP energy -223761.046617 kJ/mol
# GULP energy per Si atom -5594.026165 kJ/mol
# Density = 2.433271 g / cm^3
# Si number density = 24.388216 Si / 1000 Ang^3
#
#
#
# Elastic Constant Matrix: (Units=GPa)
#
#
# Indices 1 2 3 4 5 6 
#
# 1 92.7463 59.6520 20.1732 0.0000 0.0000 0.0000
# 2 59.6520 151.5138 43.4489 0.0000 0.0000 0.0000
# 3 20.1732 43.4489 75.2037 0.0000 0.0000 0.0000
# 4 0.0000 0.0000 0.0000 -38.4197 0.0000 0.0000
# 5 0.0000 0.0000 0.0000 0.0000 29.9209 0.0000
# 6 0.0000 0.0000 0.0000 0.0000 0.0000 38.7734
#
#
#
# Elastic Compliance Matrix: (Units=1/GPa)
#
#
# Indices 1 2 3 4 5 6 
#
# 1 0.014469 -0.005494 -0.000707 0.000000 0.000000 0.000000
# 2 -0.005494 0.009997 -0.004302 0.000000 0.000000 0.000000
# 3 -0.000707 -0.004302 0.015972 0.000000 0.000000 0.000000
# 4 0.000000 0.000000 0.000000 -0.026028 0.000000 0.000000
# 5 0.000000 0.000000 0.000000 0.000000 0.033421 0.000000
# 6 0.000000 0.000000 0.000000 0.000000 0.000000 0.025791
#
#
# Mechanical properties :
#
#
# Convention : Reuss Voigt Hill
#
# Bulk Modulus (GPa) = 51.46049 62.89023 57.17536
# Shear Modulus (GPa) = 49.45299 19.13422 34.29360
#
# Velocity S-wave (km/s) = 4.50793 2.80405 3.75394
# Velocity P-wave (km/s) = 6.94562 6.02717 6.50263
#
# Compressibility (1/GPa) = 0.01943238
#
# Stress axis : x y z
#
# Youngs Moduli (GPa) = 69.11096 100.03331 62.60823
#
# Poissons Ratio (x) = 0.54957 0.04428
# Poissons Ratio (y) = 0.37969 0.26933
# Poissons Ratio (z) = 0.04888 0.43033
#
# Static dielectric constant tensor:
#      x y z
#    x 1.995260 0.000000 0.000000 
#    y 0.000000 1.940610 0.000000 
#    z 0.000000 0.000000 1.931070 
# 
# From -- ./inp_files/30244.got.cif
#   From: 2010.05.17/outbox.cif.g08.bks.cpg/sg62_16_cif.got.tgz:30244.got - 2010.06.03 15:25:27.
