data_PCOD9466144
_publ_section_title
;
Structure prediction by ZEFSAII (Michael W. Deem and Ramdas Pophale) SiO2 
 PCOD9466144
Probable space group: P N M A
;
_chemical_formula_sum "Si O2"
_cell_formula_units_Z 60
_cell_length_a 10.572491
_cell_length_b 15.944886
_cell_length_c 17.139387
_cell_angle_alpha 90.000000
_cell_angle_beta 90.000000
_cell_angle_gamma 90.000000
_cell_volume 2889.309249
_symmetry_space_group_name_H-M "P N M A"
_symmetry_group_IT_number 62
_symmetry_cell_setting 'orthorhombic'
loop_
_space_group_symop_operation_xyz
x,y,z
1/2-x,-y,1/2+z
1/2+x,1/2-y,1/2-z
-x,1/2+y,-z
-x,-y,-z
1/2+x,y,1/2-z
1/2-x,1/2+y,1/2+z
x,1/2-y,z
loop_
_atom_site_type_symbol
_atom_site_label
_atom_site_fract_x
_atom_site_fract_y
_atom_site_fract_z
Si Si1 0.318701 0.064406 0.580071
Si Si2 0.312725 0.022365 0.408546
Si Si3 0.307344 0.386065 0.110429
Si Si4 0.583627 0.152213 0.847551
Si Si5 0.327074 0.750000 0.722992
Si Si6 0.003466 0.039864 0.791180
Si Si7 0.415739 0.590292 0.821696
Si Si8 0.312554 0.344232 0.931580
O O1 0.195928 0.120604 0.596655
O O2 0.427453 0.087928 0.641266
O O3 0.362297 0.059036 0.490273
O O4 0.274507 0.969871 0.599225
O O5 0.409489 0.027063 0.336962
O O6 0.277017 0.923516 0.413275
O O7 0.186156 0.072728 0.388469
O O8 0.237148 0.322612 0.167094
O O9 0.442809 0.410380 0.145540
O O10 0.329177 0.347996 0.024733
O O11 0.600496 0.250000 0.830363
O O12 0.580111 0.098859 0.767739
O O13 0.447639 0.141528 0.889701
O O14 0.387836 0.676425 0.778760
O O15 0.907000 0.987588 0.737854
O O16 0.267825 0.250000 0.909804
#
# Coordination Sequence:
#
# PCOD9466144 Si02
#       8
#     8   8   8   8   4   8   8   8
#     4  11  23  44  67  91 134 172 220 272 336 402
#     4  11  24  42  67  96 129 178 219 268 340 405
#     4  11  21  40  65  94 128 174 210 272 331 391
#     4  11  24  41  69  98 128 172 231 281 324 390
#     4  12  24  38  62 104 130 166 212 272 334 400
#     4  12  23  42  65  98 132 175 214 273 339 399
#     4  12  23  40  66  95 131 169 219 268 325 394
#     4  10  21  39  65  96 127 166 225 272 325 386
#
# _framework density 20.766209
#
# number of rings (size 3 to 8) (size 9 to 14) (size 15 to 20)
#    0.000    0.800    4.667    3.200    0.000    3.200 
#    1.200    0.000    0.000    0.000    0.000    0.000 
#    0.000    0.000    0.000    0.000    0.000    0.000 
#
# Total GULP energy -334313.022836 kJ/mol
# GULP energy per Si atom -5571.883714 kJ/mol
# Density = 2.071894 g / cm^3
# Si number density = 20.766209 Si / 1000 Ang^3
#
#
#
# Elastic Constant Matrix: (Units=GPa)
#
#
# Indices 1 2 3 4 5 6 
#
# 1 24.2072 -3.2418 18.1724 0.0000 0.0000 0.0000
# 2 -3.2418 62.7313 5.7833 0.0000 0.0000 0.0000
# 3 18.1724 5.7833 77.9585 0.0000 0.0000 0.0000
# 4 0.0000 0.0000 0.0000 20.9905 0.0000 0.0000
# 5 0.0000 0.0000 0.0000 0.0000 27.0681 0.0000
# 6 0.0000 0.0000 0.0000 0.0000 0.0000 16.1462
#
#
#
# Elastic Compliance Matrix: (Units=1/GPa)
#
#
# Indices 1 2 3 4 5 6 
#
# 1 0.050935 0.003752 -0.012151 0.000000 0.000000 0.000000
# 2 0.003752 0.016327 -0.002086 0.000000 0.000000 0.000000
# 3 -0.012151 -0.002086 0.015815 0.000000 0.000000 0.000000
# 4 0.000000 0.000000 0.000000 0.047641 0.000000 0.000000
# 5 0.000000 0.000000 0.000000 0.000000 0.036944 0.000000
# 6 0.000000 0.000000 0.000000 0.000000 0.000000 0.061934
#
#
# Mechanical properties :
#
#
# Convention : Reuss Voigt Hill
#
# Bulk Modulus (GPa) = 16.10131 22.92497 19.51314
# Shear Modulus (GPa) = 18.43203 22.45317 20.44260
#
# Velocity S-wave (km/s) = 2.98249 3.29178 3.14094
# Velocity P-wave (km/s) = 4.43066 5.05087 4.75090
#
# Compressibility (1/GPa) = 0.06210677
#
# Stress axis : x y z
#
# Youngs Moduli (GPa) = 19.63300 61.24741 63.23272
#
# Poissons Ratio (x) = -0.22983 0.76837
# Poissons Ratio (y) = -0.07367 0.13190
# Poissons Ratio (z) = 0.23857 0.12776
#
# Static dielectric constant tensor:
#      x y z
#    x 1.756620 0.000000 0.000000 
#    y 0.000000 1.715680 0.000000 
#    z 0.000000 0.000000 1.759540 
# 
# From -- ./inp_files/18232.got.cif
#   From: 2010.05.17/outbox.cif.g08.bks.cpg/sg62_10_cif.got.tgz:18232.got - 2010.06.03 15:25:27.
