data_PCOD9466803
_publ_section_title
;
Structure prediction by ZEFSAII (Michael W. Deem and Ramdas Pophale) SiO2 
 PCOD9466803
Probable space group: P N M A
;
_chemical_formula_sum "Si O2"
_cell_formula_units_Z 60
_cell_length_a 16.726600
_cell_length_b 9.155167
_cell_length_c 19.378288
_cell_angle_alpha 90.000000
_cell_angle_beta 90.000000
_cell_angle_gamma 90.000000
_cell_volume 2967.490574
_symmetry_space_group_name_H-M "P N M A"
_symmetry_group_IT_number 62
_symmetry_cell_setting 'orthorhombic'
loop_
_space_group_symop_operation_xyz
x,y,z
1/2-x,-y,1/2+z
1/2+x,1/2-y,1/2-z
-x,1/2+y,-z
-x,-y,-z
1/2+x,y,1/2-z
1/2-x,1/2+y,1/2+z
x,1/2-y,z
loop_
_atom_site_type_symbol
_atom_site_label
_atom_site_fract_x
_atom_site_fract_y
_atom_site_fract_z
Si Si1 0.206997 0.922499 0.813057
Si Si2 0.724703 0.418522 0.332175
Si Si3 0.142131 0.075164 0.582759
Si Si4 0.511884 0.425654 0.146197
Si Si5 0.937246 0.494490 0.908899
Si Si6 0.677124 0.426912 0.072103
Si Si7 0.542580 0.083420 0.719331
Si Si8 0.538939 0.750000 0.515409
O O1 0.185869 0.750000 0.820344
O O2 0.271031 0.933679 0.750788
O O3 0.247033 0.976933 0.883584
O O4 0.128380 0.010310 0.793431
O O5 0.747580 0.250000 0.346732
O O6 0.791330 0.524954 0.363125
O O7 0.640892 0.451542 0.368139
O O8 0.131382 0.250000 0.583141
O O9 0.171563 0.027618 0.506923
O O10 0.060108 0.995461 0.602440
O O11 0.505072 0.250000 0.147625
O O12 0.595823 0.466686 0.111584
O O13 0.502648 0.489808 0.222738
O O14 0.994299 0.420277 0.851893
O O15 0.988045 0.624184 0.942379
O O16 0.917553 0.378379 0.968377
O O17 0.681148 0.250000 0.072987
O O18 0.551641 0.250000 0.743434
#
# Coordination Sequence:
#
# PCOD9466803 Si02
#       8
#     8   8   8   8   8   8   8   4
#     4  10  22  42  66  94 127 167 222 271 322 392
#     4  11  23  42  67  94 131 175 221 262 323 400
#     4  11  23  40  64  97 136 170 212 271 329 379
#     4  11  22  41  69  93 127 171 219 265 322 394
#     4  11  24  45  68  95 131 174 222 271 328 394
#     4   9  21  41  64  97 125 165 216 266 320 386
#     4  12  25  42  64  96 132 168 216 277 331 384
#     4  10  24  44  64  94 128 166 218 274 326 386
#
# _framework density 20.219103
#
# number of rings (size 3 to 8) (size 9 to 14) (size 15 to 20)
#    0.000    1.333    2.667    2.400    2.800    3.200 
#    2.400    4.000    0.000    0.000    0.000    0.000 
#    0.000    0.000    0.000    0.000    0.000    0.000 
#
# Total GULP energy -334300.680542 kJ/mol
# GULP energy per Si atom -5571.678009 kJ/mol
# Density = 2.017308 g / cm^3
# Si number density = 20.219103 Si / 1000 Ang^3
#
#
#
# Elastic Constant Matrix: (Units=GPa)
#
#
# Indices 1 2 3 4 5 6 
#
# 1 27.2798 -0.2918 3.1350 0.0000 0.0000 0.0000
# 2 -0.2918 89.3997 20.0189 0.0000 0.0000 0.0000
# 3 3.1350 20.0189 24.0249 0.0000 0.0000 0.0000
# 4 0.0000 0.0000 0.0000 27.7260 0.0000 0.0000
# 5 0.0000 0.0000 0.0000 0.0000 5.6281 0.0000
# 6 0.0000 0.0000 0.0000 0.0000 0.0000 15.2765
#
#
#
# Elastic Compliance Matrix: (Units=1/GPa)
#
#
# Indices 1 2 3 4 5 6 
#
# 1 0.037377 0.001493 -0.006121 0.000000 0.000000 0.000000
# 2 0.001493 0.013811 -0.011703 0.000000 0.000000 0.000000
# 3 -0.006121 -0.011703 0.052174 0.000000 0.000000 0.000000
# 4 0.000000 0.000000 0.000000 0.036067 0.000000 0.000000
# 5 0.000000 0.000000 0.000000 0.000000 0.177679 0.000000
# 6 0.000000 0.000000 0.000000 0.000000 0.000000 0.065460
#
#
# Mechanical properties :
#
#
# Convention : Reuss Voigt Hill
#
# Bulk Modulus (GPa) = 14.14452 20.71430 17.42941
# Shear Modulus (GPa) = 11.39479 17.58227 14.48853
#
# Velocity S-wave (km/s) = 2.37653 2.95208 2.67980
# Velocity P-wave (km/s) = 3.81331 4.67834 4.26779
#
# Compressibility (1/GPa) = 0.07069875
#
# Stress axis : x y z
#
# Youngs Moduli (GPa) = 26.75468 72.40488 19.16663
#
# Poissons Ratio (x) = -0.10808 0.11732
# Poissons Ratio (y) = -0.03994 0.22431
# Poissons Ratio (z) = 0.16377 0.84736
#
# Static dielectric constant tensor:
#      x y z
#    x 1.699530 0.000000 0.000000 
#    y 0.000000 1.687340 0.000000 
#    z 0.000000 0.000000 1.735370 
# 
# From -- ./inp_files/24374.got.cif
#   From: 2010.05.17/outbox.cif.g08.bks.cpg/sg62_13_cif.got.tgz:24374.got - 2010.06.03 15:25:27.
