data_PCOD9466926
_publ_section_title
;
Structure prediction by ZEFSAII (Michael W. Deem and Ramdas Pophale) SiO2 
 PCOD9466926
Probable space group: P N M A
;
_chemical_formula_sum "Si O2"
_cell_formula_units_Z 40
_cell_length_a 13.440486
_cell_length_b 23.799782
_cell_length_c 5.351826
_cell_angle_alpha 90.000000
_cell_angle_beta 90.000000
_cell_angle_gamma 90.000000
_cell_volume 1711.945509
_symmetry_space_group_name_H-M "P N M A"
_symmetry_group_IT_number 62
_symmetry_cell_setting 'orthorhombic'
loop_
_space_group_symop_operation_xyz
x,y,z
1/2-x,-y,1/2+z
1/2+x,1/2-y,1/2-z
-x,1/2+y,-z
-x,-y,-z
1/2+x,y,1/2-z
1/2-x,1/2+y,1/2+z
x,1/2-y,z
loop_
_atom_site_type_symbol
_atom_site_label
_atom_site_fract_x
_atom_site_fract_y
_atom_site_fract_z
Si Si1 0.239364 0.086524 0.796849
Si Si2 0.618344 0.000702 0.014460
Si Si3 0.603065 0.642874 0.496605
Si Si4 0.483889 0.186776 0.018841
Si Si5 0.408691 0.600562 0.666992
O O1 0.171170 0.034845 0.705847
O O2 0.290639 0.117402 0.565035
O O3 0.332592 0.059553 0.945726
O O4 0.169853 0.124646 0.970103
O O5 0.635092 0.041363 0.250849
O O6 0.500000 0.000000 0.000000
O O7 0.565644 0.674819 0.247902
O O8 0.517599 0.595391 0.540545
O O9 0.593351 0.678778 0.749383
O O10 0.523176 0.250000 0.023783
O O11 0.566768 0.140590 0.097556
#
# Coordination Sequence:
#
# PCOD9466926 Si02
#       5
#     8   8   8   8   8
#     4  12  24  41  66 102 146 192 235 286 349 431
#     4  12  26  41  67 105 147 196 235 288 350 430
#     4  10  25  43  73  99 141 181 233 291 354 421
#     4  10  22  47  74  99 134 181 237 304 364 414
#     4  10  24  42  69 100 141 185 235 291 351 419
#
# _framework density 23.365231999999999
#
# number of rings (size 3 to 8) (size 9 to 14) (size 15 to 20)
#    1.200    0.000    2.000    4.200    5.600    1.600 
#    0.000    2.000    0.000    0.000    0.000    0.000 
#    0.000    0.000    0.000    0.000    0.000    0.000 
#
# Total GULP energy -223419.519026 kJ/mol
# GULP energy per Si atom -5585.487976 kJ/mol
# Density = 2.331205 g / cm^3
# Si number density = 23.365232 Si / 1000 Ang^3
#
#
#
# Elastic Constant Matrix: (Units=GPa)
#
#
# Indices 1 2 3 4 5 6 
#
# 1 107.1990 0.7519 10.7031 0.0000 0.0000 0.0000
# 2 0.7519 47.2774 6.2714 0.0000 0.0000 0.0000
# 3 10.7031 6.2714 119.2076 0.0000 0.0000 0.0000
# 4 0.0000 0.0000 0.0000 22.8813 0.0000 0.0000
# 5 0.0000 0.0000 0.0000 0.0000 38.5841 0.0000
# 6 0.0000 0.0000 0.0000 0.0000 0.0000 8.8072
#
#
#
# Elastic Compliance Matrix: (Units=1/GPa)
#
#
# Indices 1 2 3 4 5 6 
#
# 1 0.009413 -0.000038 -0.000843 0.000000 0.000000 0.000000
# 2 -0.000038 0.021301 -0.001117 0.000000 0.000000 0.000000
# 3 -0.000843 -0.001117 0.008523 0.000000 0.000000 0.000000
# 4 0.000000 0.000000 0.000000 0.043704 0.000000 0.000000
# 5 0.000000 0.000000 0.000000 0.000000 0.025917 0.000000
# 6 0.000000 0.000000 0.000000 0.000000 0.000000 0.113543
#
#
# Mechanical properties :
#
#
# Convention : Reuss Voigt Hill
#
# Bulk Modulus (GPa) = 28.37665 34.34853 31.36259
# Shear Modulus (GPa) = 20.99570 31.11837 26.05703
#
# Velocity S-wave (km/s) = 3.00090 3.65338 3.34309
# Velocity P-wave (km/s) = 4.91715 5.70340 5.32481
#
# Compressibility (1/GPa) = 0.03524024
#
# Stress axis : x y z
#
# Youngs Moduli (GPa) = 106.23724 46.94715 117.32683
#
# Poissons Ratio (x) = 0.00178 0.09892
# Poissons Ratio (y) = 0.00402 0.13108
# Poissons Ratio (z) = 0.08957 0.05245
#
# Static dielectric constant tensor:
#      x y z
#    x 1.896630 0.000000 0.000000 
#    y 0.000000 1.884770 0.000000 
#    z 0.000000 0.000000 1.997680 
# 
# From -- ./inp_files/586.got.cif
#   From: 2010.05.17/outbox.cif.g08.bks.cpg/sg62_1_cif.got.tgz:586.got - 2010.06.03 15:25:27.
