data_PCOD9466181
_publ_section_title
;
Structure prediction by ZEFSAII (Michael W. Deem and Ramdas Pophale) SiO2 
 PCOD9466181
Probable space group: P N M A
;
_chemical_formula_sum "Si O2"
_cell_formula_units_Z 64
_cell_length_a 5.488704
_cell_length_b 19.248164
_cell_length_c 23.400914
_cell_angle_alpha 90.000000
_cell_angle_beta 90.000000
_cell_angle_gamma 90.000000
_cell_volume 2472.247471
_symmetry_space_group_name_H-M "P N M A"
_symmetry_group_IT_number 62
_symmetry_cell_setting 'orthorhombic'
loop_
_space_group_symop_operation_xyz
x,y,z
1/2-x,-y,1/2+z
1/2+x,1/2-y,1/2-z
-x,1/2+y,-z
-x,-y,-z
1/2+x,y,1/2-z
1/2-x,1/2+y,1/2+z
x,1/2-y,z
loop_
_atom_site_type_symbol
_atom_site_label
_atom_site_fract_x
_atom_site_fract_y
_atom_site_fract_z
Si Si1 0.860008 0.884625 0.712342
Si Si2 0.351708 0.061450 0.113116
Si Si3 0.428425 0.828281 0.185059
Si Si4 0.409572 0.671090 0.968860
Si Si5 0.431613 0.957139 0.269112
Si Si6 0.418663 0.422343 0.612060
Si Si7 0.276744 0.326412 0.926764
Si Si8 0.544327 0.825030 0.622941
O O1 0.105382 0.878020 0.750844
O O2 0.952383 0.940998 0.664101
O O3 0.782065 0.827924 0.663623
O O4 0.457786 0.107006 0.061590
O O5 0.125142 0.108984 0.133956
O O6 0.261291 0.984771 0.096446
O O7 0.377650 0.750000 0.205155
O O8 0.464862 0.883744 0.235567
O O9 0.217940 0.860594 0.145748
O O10 0.649846 0.826045 0.140096
O O11 0.494705 0.750000 0.953821
O O12 0.139712 0.669261 0.942436
O O13 0.480751 0.664976 0.035187
O O14 0.693353 0.991749 0.257504
O O15 0.416129 0.952302 0.336469
O O16 0.587980 0.388428 0.564678
O O17 0.172269 0.250000 0.939804
O O18 0.425149 0.750000 0.632001
#
# Coordination Sequence:
#
# PCOD9466181 Si02
#       8
#     8   8   8   8   8   8   8   8
#     4  11  23  44  65 101 138 184 233 289 349 421
#     4  11  24  42  68 100 142 193 234 289 363 437
#     4  10  22  40  63  92 131 183 237 291 356 425
#     4   9  21  42  68  98 133 179 239 301 361 426
#     4  10  21  40  61  94 132 179 220 277 334 408
#     4  11  24  40  62  99 140 179 236 289 360 429
#     4  10  21  41  67  98 135 178 238 306 363 424
#     4  10  22  43  68  98 137 184 240 296 360 435
#
# _framework density 25.887376
#
# number of rings (size 3 to 8) (size 9 to 14) (size 15 to 20)
#    0.000    1.750    2.500    0.750    0.000    9.000 
#    0.000    3.750    0.000    0.000    0.000    0.000 
#    0.000    0.000    0.000    0.000    0.000    0.000 
#
# Total GULP energy -357198.517150 kJ/mol
# GULP energy per Si atom -5581.226830 kJ/mol
# Density = 2.582846 g / cm^3
# Si number density = 25.887376 Si / 1000 Ang^3
#
#
#
# Elastic Constant Matrix: (Units=GPa)
#
#
# Indices 1 2 3 4 5 6 
#
# 1 95.8642 42.5938 17.0773 0.0000 0.0000 0.0000
# 2 42.5938 90.2991 30.1777 0.0000 0.0000 0.0000
# 3 17.0773 30.1777 98.2905 0.0000 0.0000 0.0000
# 4 0.0000 0.0000 0.0000 26.7543 0.0000 0.0000
# 5 0.0000 0.0000 0.0000 0.0000 41.7650 0.0000
# 6 0.0000 0.0000 0.0000 0.0000 0.0000 36.7949
#
#
#
# Elastic Compliance Matrix: (Units=1/GPa)
#
#
# Indices 1 2 3 4 5 6 
#
# 1 0.013213 -0.006090 -0.000426 0.000000 0.000000 0.000000
# 2 -0.006090 0.015148 -0.003593 0.000000 0.000000 0.000000
# 3 -0.000426 -0.003593 0.011351 0.000000 0.000000 0.000000
# 4 0.000000 0.000000 0.000000 0.037377 0.000000 0.000000
# 5 0.000000 0.000000 0.000000 0.000000 0.023943 0.000000
# 6 0.000000 0.000000 0.000000 0.000000 0.000000 0.027178
#
#
# Mechanical properties :
#
#
# Convention : Reuss Voigt Hill
#
# Bulk Modulus (GPa) = 51.29673 51.57239 51.43456
# Shear Modulus (GPa) = 32.27346 34.03650 33.15498
#
# Velocity S-wave (km/s) = 3.53468 3.62994 3.58262
# Velocity P-wave (km/s) = 6.04292 6.12647 6.08484
#
# Compressibility (1/GPa) = 0.01949442
#
# Stress axis : x y z
#
# Youngs Moduli (GPa) = 75.68118 66.01638 88.09858
#
# Poissons Ratio (x) = 0.40206 0.03751
# Poissons Ratio (y) = 0.46093 0.31650
# Poissons Ratio (z) = 0.03223 0.23717
#
# Static dielectric constant tensor:
#      x y z
#    x 2.128720 0.000000 0.000000 
#    y 0.000000 2.194470 0.000000 
#    z 0.000000 0.000000 2.067610 
# 
# From -- ./inp_files/30547.got.cif
#   From: 2010.05.17/outbox.cif.g08.bks.cpg/sg62_16_cif.got.tgz:30547.got - 2010.06.03 15:25:27.
