data_PCOD9466709
_publ_section_title
;
Structure prediction by ZEFSAII (Michael W. Deem and Ramdas Pophale) SiO2 
 PCOD9466709
Probable space group: P N M A
;
_chemical_formula_sum "Si O2"
_cell_formula_units_Z 64
_cell_length_a 14.490266
_cell_length_b 17.943797
_cell_length_c 10.557697
_cell_angle_alpha 90.000000
_cell_angle_beta 90.000000
_cell_angle_gamma 90.000000
_cell_volume 2745.110931
_symmetry_space_group_name_H-M "P N M A"
_symmetry_group_IT_number 62
_symmetry_cell_setting 'orthorhombic'
loop_
_space_group_symop_operation_xyz
x,y,z
1/2-x,-y,1/2+z
1/2+x,1/2-y,1/2-z
-x,1/2+y,-z
-x,-y,-z
1/2+x,y,1/2-z
1/2-x,1/2+y,1/2+z
x,1/2-y,z
loop_
_atom_site_type_symbol
_atom_site_label
_atom_site_fract_x
_atom_site_fract_y
_atom_site_fract_z
Si Si1 0.966545 0.662725 0.566543
Si Si2 0.785994 0.663673 0.930594
Si Si3 0.135941 0.930075 0.478182
Si Si4 0.308973 0.336295 0.607918
Si Si5 0.864053 0.579308 0.351524
Si Si6 0.961716 0.599987 0.833291
Si Si7 0.458759 0.063198 0.705207
Si Si8 0.834772 0.163389 0.180688
O O1 0.963910 0.750000 0.592100
O O2 0.908990 0.641518 0.443176
O O3 0.932420 0.618381 0.688855
O O4 0.069350 0.632927 0.539087
O O5 0.767974 0.750000 0.960700
O O6 0.736202 0.606691 0.024609
O O7 0.894769 0.649933 0.917790
O O8 0.735431 0.645847 0.794629
O O9 0.090157 0.945594 0.342917
O O10 0.135135 0.002733 0.567554
O O11 0.300259 0.250000 0.645439
O O12 0.237585 0.391494 0.675423
O O13 0.410542 0.367749 0.637277
O O14 0.289504 0.342483 0.457705
O O15 0.933262 0.571598 0.234680
O O16 0.943501 0.514367 0.865492
O O17 0.070343 0.617707 0.830196
O O18 0.861985 0.250000 0.198101
#
# Coordination Sequence:
#
# PCOD9466709 Si02
#       8
#     8   8   8   8   8   8   8   8
#     4  11  19  33  63  92 123 164 207 264 322 373
#     4  11  22  36  62  96 128 170 216 267 328 381
#     4  11  21  40  61  94 132 160 213 272 322 378
#     4  11  26  45  64  92 129 174 222 263 320 392
#     4  11  21  43  65  93 126 170 224 265 314 390
#     4  12  21  39  63  97 132 165 210 265 331 398
#     4  11  24  42  67  94 131 171 212 270 326 385
#     4  10  22  41  62  92 133 168 213 270 318 380
#
# _framework density 23.314174000000001
#
# number of rings (size 3 to 8) (size 9 to 14) (size 15 to 20)
#    0.000    1.000    3.750    4.125    0.000    4.500 
#    2.250    0.000    0.000    0.000    0.000    0.000 
#    0.000    0.000    0.000    0.000    0.000    0.000 
#
# Total GULP energy -358121.289443 kJ/mol
# GULP energy per Si atom -5595.645148 kJ/mol
# Density = 2.326111 g / cm^3
# Si number density = 23.314174 Si / 1000 Ang^3
#
#
#
# Elastic Constant Matrix: (Units=GPa)
#
#
# Indices 1 2 3 4 5 6 
#
# 1 79.1062 15.8419 0.1753 0.0000 0.0000 0.0000
# 2 15.8419 78.8892 13.0727 0.0000 0.0000 0.0000
# 3 0.1753 13.0727 44.5304 0.0000 0.0000 0.0000
# 4 0.0000 0.0000 0.0000 18.5712 0.0000 0.0000
# 5 0.0000 0.0000 0.0000 0.0000 19.5488 0.0000
# 6 0.0000 0.0000 0.0000 0.0000 0.0000 25.2157
#
#
#
# Elastic Compliance Matrix: (Units=1/GPa)
#
#
# Indices 1 2 3 4 5 6 
#
# 1 0.013196 -0.002776 0.000763 0.000000 0.000000 0.000000
# 2 -0.002776 0.013908 -0.004072 0.000000 0.000000 0.000000
# 3 0.000763 -0.004072 0.023649 0.000000 0.000000 0.000000
# 4 0.000000 0.000000 0.000000 0.053847 0.000000 0.000000
# 5 0.000000 0.000000 0.000000 0.000000 0.051154 0.000000
# 6 0.000000 0.000000 0.000000 0.000000 0.000000 0.039658
#
#
# Mechanical properties :
#
#
# Convention : Reuss Voigt Hill
#
# Bulk Modulus (GPa) = 25.91863 28.96727 27.44295
# Shear Modulus (GPa) = 22.68162 24.22954 23.45558
#
# Velocity S-wave (km/s) = 3.12247 3.22726 3.17529
# Velocity P-wave (km/s) = 4.91335 5.13212 5.02392
#
# Compressibility (1/GPa) = 0.03858228
#
# Stress axis : x y z
#
# Youngs Moduli (GPa) = 75.78334 71.89954 42.28504
#
# Poissons Ratio (x) = 0.19961 -0.03227
# Poissons Ratio (y) = 0.21039 0.17219
# Poissons Ratio (z) = -0.05783 0.29278
#
# Static dielectric constant tensor:
#      x y z
#    x 1.924100 0.000000 0.000000 
#    y 0.000000 1.814780 0.000000 
#    z 0.000000 0.000000 1.910650 
# 
# From -- ./inp_files/13594.got.cif
#   From: 2010.05.17/outbox.cif.g08.bks.cpg/sg62_7_cif.got.tgz:13594.got - 2010.06.03 15:25:27.
