data_PCOD9466835
_publ_section_title
;
Structure prediction by ZEFSAII (Michael W. Deem and Ramdas Pophale) SiO2 
 PCOD9466835
Probable space group: P N M A
;
_chemical_formula_sum "Si O2"
_cell_formula_units_Z 48
_cell_length_a 9.515980
_cell_length_b 16.817912
_cell_length_c 13.461002
_cell_angle_alpha 90.000000
_cell_angle_beta 90.000000
_cell_angle_gamma 90.000000
_cell_volume 2154.284145
_symmetry_space_group_name_H-M "P N M A"
_symmetry_group_IT_number 62
_symmetry_cell_setting 'orthorhombic'
loop_
_space_group_symop_operation_xyz
x,y,z
1/2-x,-y,1/2+z
1/2+x,1/2-y,1/2-z
-x,1/2+y,-z
-x,-y,-z
1/2+x,y,1/2-z
1/2-x,1/2+y,1/2+z
x,1/2-y,z
loop_
_atom_site_type_symbol
_atom_site_label
_atom_site_fract_x
_atom_site_fract_y
_atom_site_fract_z
Si Si1 0.405864 0.250000 0.862854
Si Si2 0.159502 0.427917 0.689918
Si Si3 0.655224 0.961755 0.497177
Si Si4 0.507525 0.341773 0.150766
Si Si5 0.602303 0.587487 0.049071
Si Si6 0.810712 0.750000 0.284145
Si Si7 0.294028 0.406645 0.296972
O O1 0.344489 0.172567 0.913826
O O2 0.575591 0.250000 0.875672
O O3 0.354468 0.250000 0.747673
O O4 0.286580 0.428007 0.607996
O O5 0.154302 0.342421 0.744165
O O6 0.180638 0.502992 0.760798
O O7 0.012761 0.438488 0.630542
O O8 0.661069 0.899519 0.588047
O O9 0.500000 0.000000 0.500000
O O10 0.772971 0.027634 0.525730
O O11 0.538048 0.250000 0.128081
O O12 0.375053 0.350034 0.222113
O O13 0.632818 0.383786 0.208340
O O14 0.479805 0.391452 0.051462
#
# Coordination Sequence:
#
# PCOD9466835 Si02
#       7
#     4   8   8   8   8   4   8
#     4  10  22  42  72  99 133 181 223 286 352 407
#     4  11  23  45  70  99 136 182 230 282 352 419
#     4  12  25  42  66 103 137 176 234 287 347 409
#     4  12  25  46  72 102 137 184 239 287 352 423
#     4  11  22  44  72  97 136 188 229 278 354 429
#     4  10  24  40  68 103 135 169 231 280 342 413
#     4  12  25  42  71 102 140 183 233 291 346 421
#
# _framework density 22.281182000000001
#
# number of rings (size 3 to 8) (size 9 to 14) (size 15 to 20)
#    0.000    0.667    4.167    4.000    0.000    5.333 
#    1.500    0.000    0.000    0.000    0.000    0.000 
#    0.000    0.000    0.000    0.000    0.000    0.000 
#
# Total GULP energy -267797.540064 kJ/mol
# GULP energy per Si atom -5579.115418 kJ/mol
# Density = 2.223047 g / cm^3
# Si number density = 22.281182 Si / 1000 Ang^3
#
#
#
# Elastic Constant Matrix: (Units=GPa)
#
#
# Indices 1 2 3 4 5 6 
#
# 1 121.6896 29.4241 22.4223 0.0000 0.0000 0.0000
# 2 29.4241 118.6515 3.4188 0.0000 0.0000 0.0000
# 3 22.4223 3.4188 46.5884 0.0000 0.0000 0.0000
# 4 0.0000 0.0000 0.0000 24.2797 0.0000 0.0000
# 5 0.0000 0.0000 0.0000 0.0000 33.2190 0.0000
# 6 0.0000 0.0000 0.0000 0.0000 0.0000 -0.0679
#
#
#
# Elastic Compliance Matrix: (Units=1/GPa)
#
#
# Indices 1 2 3 4 5 6 
#
# 1 0.009580 -0.002248 -0.004446 0.000000 0.000000 0.000000
# 2 -0.002248 0.008973 0.000423 0.000000 0.000000 0.000000
# 3 -0.004446 0.000423 0.023573 0.000000 0.000000 0.000000
# 4 0.000000 0.000000 0.000000 0.041187 0.000000 0.000000
# 5 0.000000 0.000000 0.000000 0.000000 0.030103 0.000000
# 6 0.000000 0.000000 0.000000 0.000000 0.000000-14.731684
#
#
# Mechanical properties :
#
#
# Convention : Reuss Voigt Hill
#
# Bulk Modulus (GPa) = 33.79958 44.16222 38.98090
# Shear Modulus (GPa) = -0.34256 26.93046 13.29395
#
# Velocity S-wave (km/s) = -0.39253 3.48036 2.44528
# Velocity P-wave (km/s) = 3.87260 6.00116 5.05030
#
# Compressibility (1/GPa) = 0.02958617
#
# Stress axis : x y z
#
# Youngs Moduli (GPa) = 104.38080 111.44245 42.42097
#
# Poissons Ratio (x) = 0.25049 0.18860
# Poissons Ratio (y) = 0.23462 -0.01796
# Poissons Ratio (z) = 0.46407 -0.04717
#
# Static dielectric constant tensor:
#      x y z
#    x 1.846950 0.000000 0.000000 
#    y 0.000000 1.842220 0.000000 
#    z 0.000000 0.000000 1.874810 
# 
# From -- ./inp_files/17005.got.cif
#   From: 2010.05.17/outbox.cif.g08.bks.cpg/sg62_9_cif.got.tgz:17005.got - 2010.06.03 15:25:27.
