data_PCOD9466024
_publ_section_title
;
Structure prediction by ZEFSAII (Michael W. Deem and Ramdas Pophale) SiO2 
 PCOD9466024
Probable space group: P N M A
;
_chemical_formula_sum "Si O2"
_cell_formula_units_Z 64
_cell_length_a 9.503717
_cell_length_b 19.392835
_cell_length_c 18.199575
_cell_angle_alpha 90.000000
_cell_angle_beta 90.000000
_cell_angle_gamma 90.000000
_cell_volume 3354.254756
_symmetry_space_group_name_H-M "P N M A"
_symmetry_group_IT_number 62
_symmetry_cell_setting 'orthorhombic'
loop_
_space_group_symop_operation_xyz
x,y,z
1/2-x,-y,1/2+z
1/2+x,1/2-y,1/2-z
-x,1/2+y,-z
-x,-y,-z
1/2+x,y,1/2-z
1/2-x,1/2+y,1/2+z
x,1/2-y,z
loop_
_atom_site_type_symbol
_atom_site_label
_atom_site_fract_x
_atom_site_fract_y
_atom_site_fract_z
Si Si1 0.677059 0.448044 0.365616
Si Si2 0.866961 0.671272 0.363683
Si Si3 0.010397 0.949721 0.570123
Si Si4 0.905648 0.666944 0.970902
Si Si5 0.907311 0.599633 0.221184
Si Si6 0.404322 0.404573 0.585575
Si Si7 0.096371 0.830279 0.475704
Si Si8 0.140821 0.504819 0.293949
O O1 0.838327 0.456538 0.390713
O O2 0.620816 0.375209 0.395717
O O3 0.595931 0.512461 0.404543
O O4 0.666687 0.457640 0.278065
O O5 0.830436 0.750000 0.381579
O O6 0.863524 0.659350 0.276815
O O7 0.753564 0.620799 0.399706
O O8 0.020897 0.657021 0.397976
O O9 0.011402 0.874019 0.535354
O O10 0.000000 0.000000 0.500000
O O11 0.893880 0.966087 0.630807
O O12 0.923245 0.750000 0.964128
O O13 0.761524 0.652979 0.017632
O O14 0.032179 0.628968 0.012922
O O15 0.773257 0.555253 0.197480
O O16 0.999283 0.622938 0.152508
O O17 0.006467 0.550108 0.270166
O O18 0.084348 0.750000 0.492128
#
# Coordination Sequence:
#
# PCOD9466024 Si02
#       8
#     8   8   8   8   8   8   8   8
#     4  10  21  39  59  87 119 156 197 246 306 357
#     4  11  22  39  57  81 121 160 196 242 296 363
#     4  11  21  36  66  90 117 156 207 248 300 357
#     4  10  22  39  60  87 118 153 198 250 306 363
#     4  11  22  37  55  82 120 150 195 242 301 353
#     4  11  22  37  58  85 117 156 199 247 301 358
#     4   9  21  39  59  84 115 153 198 247 296 357
#     4  11  21  40  59  87 118 150 198 256 293 356
#
# _framework density 19.080244
#
# number of rings (size 3 to 8) (size 9 to 14) (size 15 to 20)
#    0.000    1.500    3.750    2.250    5.250    1.000 
#    4.500    0.625    0.000    0.000    0.000    0.000 
#    0.000    0.000    0.000    0.000    0.000    0.000 
#
# Total GULP energy -357243.930761 kJ/mol
# GULP energy per Si atom -5581.936418 kJ/mol
# Density = 1.903682 g / cm^3
# Si number density = 19.080244 Si / 1000 Ang^3
#
#
#
# Elastic Constant Matrix: (Units=GPa)
#
#
# Indices 1 2 3 4 5 6 
#
# 1 46.2554 15.2661 5.1945 0.0000 0.0000 0.0000
# 2 15.2661 54.6175 25.2557 0.0000 0.0000 0.0000
# 3 5.1945 25.2557 78.1733 0.0000 0.0000 0.0000
# 4 0.0000 0.0000 0.0000 25.6143 0.0000 0.0000
# 5 0.0000 0.0000 0.0000 0.0000 35.8463 0.0000
# 6 0.0000 0.0000 0.0000 0.0000 0.0000 20.5512
#
#
#
# Elastic Compliance Matrix: (Units=1/GPa)
#
#
# Indices 1 2 3 4 5 6 
#
# 1 0.023846 -0.006974 0.000669 0.000000 0.000000 0.000000
# 2 -0.006974 0.023565 -0.007150 0.000000 0.000000 0.000000
# 3 0.000669 -0.007150 0.015058 0.000000 0.000000 0.000000
# 4 0.000000 0.000000 0.000000 0.039041 0.000000 0.000000
# 5 0.000000 0.000000 0.000000 0.000000 0.027897 0.000000
# 6 0.000000 0.000000 0.000000 0.000000 0.000000 0.048659
#
#
# Mechanical properties :
#
#
# Convention : Reuss Voigt Hill
#
# Bulk Modulus (GPa) = 28.12359 30.05320 29.08839
# Shear Modulus (GPa) = 23.05978 25.29100 24.17539
#
# Velocity S-wave (km/s) = 3.48022 3.64470 3.56341
# Velocity P-wave (km/s) = 5.56065 5.78765 5.67529
#
# Compressibility (1/GPa) = 0.03555734
#
# Stress axis : x y z
#
# Youngs Moduli (GPa) = 41.93605 42.43645 66.41200
#
# Poissons Ratio (x) = 0.29597 -0.04441
# Poissons Ratio (y) = 0.29248 0.47482
# Poissons Ratio (z) = -0.02804 0.30341
#
# Static dielectric constant tensor:
#      x y z
#    x 1.685030 0.000000 0.000000 
#    y 0.000000 1.664120 0.000000 
#    z 0.000000 0.000000 1.668680 
# 
# From -- ./inp_files/22583.got.cif
#   From: 2010.05.17/outbox.cif.g08.bks.cpg/sg62_12_cif.got.tgz:22583.got - 2010.06.03 15:25:27.
