data_PCOD9466209
_publ_section_title
;
Structure prediction by ZEFSAII (Michael W. Deem and Ramdas Pophale) SiO2 
 PCOD9466209
Probable space group: P N M A
;
_chemical_formula_sum "Si O2"
_cell_formula_units_Z 40
_cell_length_a 14.842057
_cell_length_b 8.518318
_cell_length_c 14.671511
_cell_angle_alpha 90.000000
_cell_angle_beta 90.000000
_cell_angle_gamma 90.000000
_cell_volume 1854.909765
_symmetry_space_group_name_H-M "P N M A"
_symmetry_group_IT_number 62
_symmetry_cell_setting 'orthorhombic'
loop_
_space_group_symop_operation_xyz
x,y,z
1/2-x,-y,1/2+z
1/2+x,1/2-y,1/2-z
-x,1/2+y,-z
-x,-y,-z
1/2+x,y,1/2-z
1/2-x,1/2+y,1/2+z
x,1/2-y,z
loop_
_atom_site_type_symbol
_atom_site_label
_atom_site_fract_x
_atom_site_fract_y
_atom_site_fract_z
Si Si1 0.447497 0.937895 0.912612
Si Si2 0.736401 0.059388 0.794460
Si Si3 0.235410 0.059441 0.500849
Si Si4 0.054643 0.936364 0.218902
Si Si5 0.385948 0.437323 0.371035
O O1 0.453458 0.750000 0.907674
O O2 0.343624 0.984548 0.931307
O O3 0.479776 0.010759 0.818224
O O4 0.500000 0.000000 0.000000
O O5 0.730537 0.250000 0.787895
O O6 0.841506 0.011689 0.786825
O O7 0.674365 0.988286 0.716067
O O8 0.710986 0.008946 0.897201
O O9 0.238050 0.250000 0.504089
O O10 0.330761 0.006086 0.459988
O O11 0.054289 0.750000 0.213089
O O12 0.986131 0.999965 0.143780
O O13 0.389412 0.250000 0.373726
#
# Coordination Sequence:
#
# PCOD9466209 Si02
#       5
#     8   8   8   8   8
#     4  11  21  37  61  90 123 158 205 256 308 362
#     4  10  21  40  63  87 121 161 202 252 309 368
#     4   9  20  38  60  85 118 157 198 251 308 357
#     4  11  23  38  59  88 123 162 203 249 308 370
#     4  11  22  39  62  88 120 159 205 255 309 364
#
# _framework density 21.564392000000002
#
# number of rings (size 3 to 8) (size 9 to 14) (size 15 to 20)
#    0.000    1.600    2.000    3.000    0.000    3.200 
#    0.000    3.000    0.000    0.000    0.000    0.000 
#    0.000    0.000    0.000    0.000    0.000    0.000 
#
# Total GULP energy -223576.448456 kJ/mol
# GULP energy per Si atom -5589.411211 kJ/mol
# Density = 2.151531 g / cm^3
# Si number density = 21.564392 Si / 1000 Ang^3
#
#
#
# Elastic Constant Matrix: (Units=GPa)
#
#
# Indices 1 2 3 4 5 6 
#
# 1 61.4629 11.3068 -22.4079 0.0000 0.0000 0.0000
# 2 11.3068 20.0121 -12.1133 0.0000 0.0000 0.0000
# 3 -22.4079 -12.1133 32.7858 0.0000 0.0000 0.0000
# 4 0.0000 0.0000 0.0000 20.7318 0.0000 0.0000
# 5 0.0000 0.0000 0.0000 0.0000 39.6943 0.0000
# 6 0.0000 0.0000 0.0000 0.0000 0.0000 28.9168
#
#
#
# Elastic Compliance Matrix: (Units=1/GPa)
#
#
# Indices 1 2 3 4 5 6 
#
# 1 0.021950 -0.004278 0.013422 0.000000 0.000000 0.000000
# 2 -0.004278 0.065198 0.021165 0.000000 0.000000 0.000000
# 3 0.013422 0.021165 0.047494 0.000000 0.000000 0.000000
# 4 0.000000 0.000000 0.000000 0.048235 0.000000 0.000000
# 5 0.000000 0.000000 0.000000 0.000000 0.025193 0.000000
# 6 0.000000 0.000000 0.000000 0.000000 0.000000 0.034582
#
#
# Mechanical properties :
#
#
# Convention : Reuss Voigt Hill
#
# Bulk Modulus (GPa) = 5.12137 7.53688 6.32913
# Shear Modulus (GPa) = 20.23305 27.03359 23.63332
#
# Velocity S-wave (km/s) = 3.06643 3.54449 3.31409
# Velocity P-wave (km/s) = 3.86230 4.50043 4.19352
#
# Compressibility (1/GPa) = 0.19526015
#
# Stress axis : x y z
#
# Youngs Moduli (GPa) = 45.55788 15.33789 21.05527
#
# Poissons Ratio (x) = 0.06561 -0.28260
# Poissons Ratio (y) = 0.19488 -0.44564
# Poissons Ratio (z) = -0.61146 -0.32463
#
# Static dielectric constant tensor:
#      x y z
#    x 1.824610 0.000000 0.000000 
#    y 0.000000 1.725260 0.000000 
#    z 0.000000 0.000000 1.774420 
# 
# From -- ./inp_files/18599.got.cif
#   From: 2010.05.17/outbox.cif.g08.bks.cpg/sg62_10_cif.got.tgz:18599.got - 2010.06.03 15:25:27.
