data_PCOD9466189
_publ_section_title
;
Structure prediction by ZEFSAII (Michael W. Deem and Ramdas Pophale) SiO2 
 PCOD9466189
Probable space group: P N M A
;
_chemical_formula_sum "Si O2"
_cell_formula_units_Z 48
_cell_length_a 15.242288
_cell_length_b 8.748676
_cell_length_c 19.089559
_cell_angle_alpha 90.000000
_cell_angle_beta 90.000000
_cell_angle_gamma 90.000000
_cell_volume 2545.589623
_symmetry_space_group_name_H-M "P N M A"
_symmetry_group_IT_number 62
_symmetry_cell_setting 'orthorhombic'
loop_
_space_group_symop_operation_xyz
x,y,z
1/2-x,-y,1/2+z
1/2+x,1/2-y,1/2-z
-x,1/2+y,-z
-x,-y,-z
1/2+x,y,1/2-z
1/2-x,1/2+y,1/2+z
x,1/2-y,z
loop_
_atom_site_type_symbol
_atom_site_label
_atom_site_fract_x
_atom_site_fract_y
_atom_site_fract_z
Si Si1 0.094355 0.565657 0.019815
Si Si2 0.350423 0.065587 0.676063
Si Si3 0.005143 0.434189 0.717591
Si Si4 0.749628 0.065202 0.085105
Si Si5 0.058316 0.566480 0.437452
Si Si6 0.807870 0.432805 0.241360
O O1 0.088857 0.750000 0.018433
O O2 0.121981 0.519102 0.098102
O O3 0.170042 0.519717 0.965198
O O4 0.000000 0.500000 0.000000
O O5 0.342916 0.250000 0.677569
O O6 0.425775 0.020003 0.731201
O O7 0.259427 0.994987 0.701074
O O8 0.011884 0.250000 0.719969
O O9 0.095651 0.504272 0.743935
O O10 0.982312 0.478686 0.638012
O O11 0.742148 0.250000 0.082987
O O12 0.772737 0.018724 0.164648
O O13 0.657752 0.994486 0.061142
O O14 0.058791 0.750000 0.441314
O O15 0.000000 0.500000 0.500000
O O16 0.809602 0.250000 0.242634
#
# Coordination Sequence:
#
# PCOD9466189 Si02
#       6
#     8   8   8   8   8   8
#     4  10  22  39  62  89 120 156 195 244 297 355
#     4  10  21  40  62  87 118 155 201 245 293 358
#     4  10  22  40  62  86 117 158 201 247 299 359
#     4  10  22  41  61  89 126 161 198 245 305 359
#     4  11  24  41  62  88 121 162 206 253 301 359
#     4  11  23  37  60  90 121 156 196 250 302 352
#
# _framework density 18.856141999999998
#
# number of rings (size 3 to 8) (size 9 to 14) (size 15 to 20)
#    0.000    1.667    1.667    2.000    2.333    4.000 
#    0.000    0.000    0.000    0.000    0.000    0.000 
#    0.000    0.000    0.000    0.000    0.000    0.000 
#
# Total GULP energy -268307.886749 kJ/mol
# GULP energy per Si atom -5589.747641 kJ/mol
# Density = 1.881322 g / cm^3
# Si number density = 18.856142 Si / 1000 Ang^3
#
#
#
# Elastic Constant Matrix: (Units=GPa)
#
#
# Indices 1 2 3 4 5 6 
#
# 1 122.5679 24.0666 28.5948 0.0000 0.0000 0.0000
# 2 24.0666 13.4692 20.2288 0.0000 0.0000 0.0000
# 3 28.5948 20.2288 101.4776 0.0000 0.0000 0.0000
# 4 0.0000 0.0000 0.0000 23.4637 0.0000 0.0000
# 5 0.0000 0.0000 0.0000 0.0000 41.0330 0.0000
# 6 0.0000 0.0000 0.0000 0.0000 0.0000 37.8344
#
#
#
# Elastic Compliance Matrix: (Units=1/GPa)
#
#
# Indices 1 2 3 4 5 6 
#
# 1 0.012696 -0.024710 0.001348 0.000000 0.000000 0.000000
# 2 -0.024710 0.154061 -0.023748 0.000000 0.000000 0.000000
# 3 0.001348 -0.023748 0.014208 0.000000 0.000000 0.000000
# 4 0.000000 0.000000 0.000000 0.042619 0.000000 0.000000
# 5 0.000000 0.000000 0.000000 0.000000 0.024371 0.000000
# 6 0.000000 0.000000 0.000000 0.000000 0.000000 0.026431
#
#
# Mechanical properties :
#
#
# Convention : Reuss Voigt Hill
#
# Bulk Modulus (GPa) = 11.52795 42.58835 27.05815
# Shear Modulus (GPa) = 12.57797 31.44119 22.00958
#
# Velocity S-wave (km/s) = 2.58553 4.08784 3.42019
# Velocity P-wave (km/s) = 3.87817 6.70191 5.47521
#
# Compressibility (1/GPa) = 0.08674569
#
# Stress axis : x y z
#
# Youngs Moduli (GPa) = 78.76447 6.49096 70.38052
#
# Poissons Ratio (x) = 0.16039 -0.09489
# Poissons Ratio (y) = 1.94626 1.67139
# Poissons Ratio (z) = -0.10619 0.15415
#
# Static dielectric constant tensor:
#      x y z
#    x 1.595360 0.000000 0.000000 
#    y 0.000000 1.713790 0.000000 
#    z 0.000000 0.000000 1.644780 
# 
# From -- ./inp_files/23648.got.cif
#   From: 2010.05.17/outbox.cif.g08.bks.cpg/sg62_12_cif.got.tgz:23648.got - 2010.06.03 15:25:27.
