data_PCOD9466397
_publ_section_title
;
Structure prediction by ZEFSAII (Michael W. Deem and Ramdas Pophale) SiO2 
 PCOD9466397
Probable space group: P N M A
;
_chemical_formula_sum "Si O2"
_cell_formula_units_Z 48
_cell_length_a 15.162364
_cell_length_b 8.828153
_cell_length_c 18.944489
_cell_angle_alpha 90.000000
_cell_angle_beta 90.000000
_cell_angle_gamma 90.000000
_cell_volume 2535.827253
_symmetry_space_group_name_H-M "P N M A"
_symmetry_group_IT_number 62
_symmetry_cell_setting 'orthorhombic'
loop_
_space_group_symop_operation_xyz
x,y,z
1/2-x,-y,1/2+z
1/2+x,1/2-y,1/2-z
-x,1/2+y,-z
-x,-y,-z
1/2+x,y,1/2-z
1/2-x,1/2+y,1/2+z
x,1/2-y,z
loop_
_atom_site_type_symbol
_atom_site_label
_atom_site_fract_x
_atom_site_fract_y
_atom_site_fract_z
Si Si1 0.757255 0.432175 0.587526
Si Si2 0.694573 0.070276 0.238358
Si Si3 0.904231 0.568766 0.484876
Si Si4 0.847192 0.569127 0.324775
Si Si5 0.491813 0.432266 0.719486
Si Si6 0.943305 0.567714 0.063213
O O1 0.762202 0.250000 0.588025
O O2 0.772107 0.491880 0.666557
O O3 0.832585 0.499414 0.537732
O O4 0.659570 0.477439 0.561478
O O5 0.695628 0.250000 0.229829
O O6 0.760902 0.019020 0.300002
O O7 0.596780 0.012798 0.255741
O O8 0.907523 0.750000 0.493446
O O9 0.875678 0.535535 0.404509
O O10 0.000000 0.500000 0.500000
O O11 0.830522 0.750000 0.318965
O O12 0.927330 0.532164 0.271750
O O13 0.478813 0.250000 0.721818
O O14 0.517815 0.475381 0.639752
O O15 0.946418 0.750000 0.058997
O O16 0.000000 0.500000 0.000000
#
# Coordination Sequence:
#
# PCOD9466397 Si02
#       6
#     8   8   8   8   8   8
#     4  11  23  44  67  91 128 172 212 259 315 380
#     4  12  25  39  63  97 127 161 207 264 317 371
#     4  11  24  41  66  98 128 167 212 261 317 376
#     4  10  22  43  66  90 124 166 210 254 309 377
#     4  10  21  42  67  90 121 168 213 255 314 380
#     4  10  23  41  64  91 125 168 213 260 314 374
#
# _framework density 18.928733999999999
#
# number of rings (size 3 to 8) (size 9 to 14) (size 15 to 20)
#    0.000    1.333    1.667    3.500    2.333    5.333 
#    0.000    0.000    0.000    0.000    0.000    0.000 
#    0.000    0.000    0.000    0.000    0.000    0.000 
#
# Total GULP energy -268473.789766 kJ/mol
# GULP energy per Si atom -5593.203953 kJ/mol
# Density = 1.888565 g / cm^3
# Si number density = 18.928734 Si / 1000 Ang^3
#
#
#
# Elastic Constant Matrix: (Units=GPa)
#
#
# Indices 1 2 3 4 5 6 
#
# 1 110.2170 32.0432 22.6663 0.0000 0.0000 0.0000
# 2 32.0432 43.6342 27.3602 0.0000 0.0000 0.0000
# 3 22.6663 27.3602 72.9899 0.0000 0.0000 0.0000
# 4 0.0000 0.0000 0.0000 35.5438 0.0000 0.0000
# 5 0.0000 0.0000 0.0000 0.0000 39.6011 0.0000
# 6 0.0000 0.0000 0.0000 0.0000 0.0000 29.2034
#
#
#
# Elastic Compliance Matrix: (Units=1/GPa)
#
#
# Indices 1 2 3 4 5 6 
#
# 1 0.011552 -0.008149 -0.000533 0.000000 0.000000 0.000000
# 2 -0.008149 0.035709 -0.010855 0.000000 0.000000 0.000000
# 3 -0.000533 -0.010855 0.017935 0.000000 0.000000 0.000000
# 4 0.000000 0.000000 0.000000 0.028134 0.000000 0.000000
# 5 0.000000 0.000000 0.000000 0.000000 0.025252 0.000000
# 6 0.000000 0.000000 0.000000 0.000000 0.000000 0.034243
#
#
# Mechanical properties :
#
#
# Convention : Reuss Voigt Hill
#
# Bulk Modulus (GPa) = 38.28160 43.44226 40.86193
# Shear Modulus (GPa) = 24.92473 30.52107 27.72290
#
# Velocity S-wave (km/s) = 3.63266 4.01985 3.83115
# Velocity P-wave (km/s) = 6.15329 6.67427 6.41907
#
# Compressibility (1/GPa) = 0.02612221
#
# Stress axis : x y z
#
# Youngs Moduli (GPa) = 86.56705 28.00451 55.75765
#
# Poissons Ratio (x) = 0.22821 0.02969
# Poissons Ratio (y) = 0.70545 0.60523
# Poissons Ratio (z) = 0.04610 0.30398
#
# Static dielectric constant tensor:
#      x y z
#    x 1.621970 0.000000 0.000000 
#    y 0.000000 1.636300 0.000000 
#    z 0.000000 0.000000 1.630230 
# 
# From -- ./inp_files/23695.got.cif
#   From: 2010.05.17/outbox.cif.g08.bks.cpg/sg62_12_cif.got.tgz:23695.got - 2010.06.03 15:25:27.
