data_PCOD9466059
_publ_section_title
;
Structure prediction by ZEFSAII (Michael W. Deem and Ramdas Pophale) SiO2 
 PCOD9466059
Probable space group: P N M A
;
_chemical_formula_sum "Si O2"
_cell_formula_units_Z 48
_cell_length_a 13.133878
_cell_length_b 15.871958
_cell_length_c 11.867458
_cell_angle_alpha 90.000000
_cell_angle_beta 90.000000
_cell_angle_gamma 90.000000
_cell_volume 2473.894567
_symmetry_space_group_name_H-M "P N M A"
_symmetry_group_IT_number 62
_symmetry_cell_setting 'orthorhombic'
loop_
_space_group_symop_operation_xyz
x,y,z
1/2-x,-y,1/2+z
1/2+x,1/2-y,1/2-z
-x,1/2+y,-z
-x,-y,-z
1/2+x,y,1/2-z
1/2-x,1/2+y,1/2+z
x,1/2-y,z
loop_
_atom_site_type_symbol
_atom_site_label
_atom_site_fract_x
_atom_site_fract_y
_atom_site_fract_z
Si Si1 0.837883 0.158128 0.265943
Si Si2 0.491069 0.492821 0.189838
Si Si3 0.850546 0.515756 0.517187
Si Si4 0.230462 0.347881 0.010768
Si Si5 0.806272 0.341572 0.001454
Si Si6 0.013929 0.084378 0.925842
O O1 0.882366 0.250000 0.294930
O O2 0.922343 0.087006 0.278624
O O3 0.744767 0.145904 0.353262
O O4 0.806865 0.159672 0.136839
O O5 0.599487 0.465174 0.138457
O O6 0.492102 0.554962 0.295896
O O7 0.433331 0.530182 0.080931
O O8 0.811158 0.419386 0.526795
O O9 0.759496 0.575870 0.477593
O O10 0.251331 0.250000 0.980078
O O11 0.121027 0.374513 0.962293
O O12 0.767194 0.250000 0.961842
O O13 0.919832 0.355655 0.956140
O O14 0.000000 0.000000 0.000000
#
# Coordination Sequence:
#
# PCOD9466059 Si02
#       6
#     8   8   8   8   8   8
#     4   9  19  35  59  89 119 151 197 251 298 346
#     4  10  22  39  62  85 119 161 196 242 298 351
#     4  10  22  41  61  87 117 158 202 242 291 353
#     4  10  21  39  61  87 119 158 200 243 296 354
#     4  11  23  38  59  90 121 153 197 246 297 352
#     4  12  22  38  59  88 119 155 190 240 297 352
#
# _framework density 19.402605000000001
#
# number of rings (size 3 to 8) (size 9 to 14) (size 15 to 20)
#    0.000    1.667    3.333    0.500    2.333    2.000 
#    0.000    7.500    0.000    0.000    0.000    0.000 
#    0.000    0.000    0.000    0.000    0.000    0.000 
#
# Total GULP energy -267457.908399 kJ/mol
# GULP energy per Si atom -5572.039758 kJ/mol
# Density = 1.935844 g / cm^3
# Si number density = 19.402605 Si / 1000 Ang^3
#
#
#
# Elastic Constant Matrix: (Units=GPa)
#
#
# Indices 1 2 3 4 5 6 
#
# 1 63.5667 10.5896 30.0088 0.0000 0.0000 0.0000
# 2 10.5896 81.9365 18.7676 0.0000 0.0000 0.0000
# 3 30.0088 18.7676 89.6139 0.0000 0.0000 0.0000
# 4 0.0000 0.0000 0.0000 17.1445 0.0000 0.0000
# 5 0.0000 0.0000 0.0000 0.0000 22.0238 0.0000
# 6 0.0000 0.0000 0.0000 0.0000 0.0000 -11.5123
#
#
#
# Elastic Compliance Matrix: (Units=1/GPa)
#
#
# Indices 1 2 3 4 5 6 
#
# 1 0.018769 -0.001036 -0.006068 0.000000 0.000000 0.000000
# 2 -0.001036 0.012877 -0.002350 0.000000 0.000000 0.000000
# 3 -0.006068 -0.002350 0.013683 0.000000 0.000000 0.000000
# 4 0.000000 0.000000 0.000000 0.058328 0.000000 0.000000
# 5 0.000000 0.000000 0.000000 0.000000 0.045405 0.000000
# 6 0.000000 0.000000 0.000000 0.000000 0.000000 -0.086863
#
#
# Mechanical properties :
#
#
# Convention : Reuss Voigt Hill
#
# Bulk Modulus (GPa) = 37.84875 39.31658 38.58267
# Shear Modulus (GPa) = 55.60933 17.24794 36.42863
#
# Velocity S-wave (km/s) = 5.35938 2.98476 4.33773
# Velocity P-wave (km/s) = 7.60570 5.67327 6.70942
#
# Compressibility (1/GPa) = 0.02642095
#
# Stress axis : x y z
#
# Youngs Moduli (GPa) = 53.28016 77.65976 73.08274
#
# Poissons Ratio (x) = 0.08044 0.44347
# Poissons Ratio (y) = 0.05519 0.17174
# Poissons Ratio (z) = 0.32331 0.18249
#
# Static dielectric constant tensor:
#      x y z
#    x 1.700060 0.000000 0.000000 
#    y 0.000000 1.920950 0.000000 
#    z 0.000000 0.000000 1.686500 
# 
# From -- ./inp_files/12257.got.cif
#   From: 2010.05.17/outbox.cif.g08.bks.cpg/sg62_7_cif.got.tgz:12257.got - 2010.06.03 15:25:27.
