data_PCOD9466787
_publ_section_title
;
Structure prediction by ZEFSAII (Michael W. Deem and Ramdas Pophale) SiO2 
 PCOD9466787
Probable space group: P N M A
;
_chemical_formula_sum "Si O2"
_cell_formula_units_Z 32
_cell_length_a 10.595609
_cell_length_b 11.429979
_cell_length_c 13.369309
_cell_angle_alpha 90.000000
_cell_angle_beta 90.000000
_cell_angle_gamma 90.000000
_cell_volume 1619.124771
_symmetry_space_group_name_H-M "P N M A"
_symmetry_group_IT_number 62
_symmetry_cell_setting 'orthorhombic'
loop_
_space_group_symop_operation_xyz
x,y,z
1/2-x,-y,1/2+z
1/2+x,1/2-y,1/2-z
-x,1/2+y,-z
-x,-y,-z
1/2+x,y,1/2-z
1/2-x,1/2+y,1/2+z
x,1/2-y,z
loop_
_atom_site_type_symbol
_atom_site_label
_atom_site_fract_x
_atom_site_fract_y
_atom_site_fract_z
Si Si1 0.334038 0.884045 0.553267
Si Si2 0.323800 0.610560 0.327593
Si Si3 0.066107 0.495591 0.252661
Si Si4 0.033174 0.880577 0.560351
O O1 0.379386 0.750000 0.553130
O O2 0.349254 0.932460 0.441132
O O3 0.183882 0.883065 0.573212
O O4 0.400771 0.950136 0.642786
O O5 0.317296 0.750000 0.331399
O O6 0.188857 0.563714 0.291701
O O7 0.438693 0.571155 0.257446
O O8 0.035134 0.395329 0.333139
O O9 0.002495 0.750000 0.517145
O O10 0.000000 0.000000 0.500000
#
# Coordination Sequence:
#
# PCOD9466787 Si02
#       4
#     8   8   8   8
#     4  10  22  42  63  91 129 167 213 273 326 377
#     4  11  24  40  64  94 132 170 214 271 327 387
#     4  12  22  42  65  94 127 170 225 261 326 391
#     4  11  23  41  67  98 131 174 218 269 326 388
#
# _framework density 19.763764999999999
#
# number of rings (size 3 to 8) (size 9 to 14) (size 15 to 20)
#    0.000    1.000    5.000    2.250    0.000    1.000 
#    0.000    0.000    0.000    0.000    0.000    0.000 
#    0.000    0.000    0.000    0.000    0.000    0.000 
#
# Total GULP energy -178594.584687 kJ/mol
# GULP energy per Si atom -5581.080771 kJ/mol
# Density = 1.971878 g / cm^3
# Si number density = 19.763765 Si / 1000 Ang^3
#
#
#
# Elastic Constant Matrix: (Units=GPa)
#
#
# Indices 1 2 3 4 5 6 
#
# 1 86.2087 37.8850 32.3153 0.0000 0.0000 0.0000
# 2 37.8850 99.5108 43.3829 0.0000 0.0000 0.0000
# 3 32.3153 43.3829 95.6747 0.0000 0.0000 0.0000
# 4 0.0000 0.0000 0.0000 31.0674 0.0000 0.0000
# 5 0.0000 0.0000 0.0000 0.0000 37.0258 0.0000
# 6 0.0000 0.0000 0.0000 0.0000 0.0000 12.1281
#
#
#
# Elastic Compliance Matrix: (Units=1/GPa)
#
#
# Indices 1 2 3 4 5 6 
#
# 1 0.014591 -0.004246 -0.003003 0.000000 0.000000 0.000000
# 2 -0.004246 0.013761 -0.004806 0.000000 0.000000 0.000000
# 3 -0.003003 -0.004806 0.013645 0.000000 0.000000 0.000000
# 4 0.000000 0.000000 0.000000 0.032188 0.000000 0.000000
# 5 0.000000 0.000000 0.000000 0.000000 0.027008 0.000000
# 6 0.000000 0.000000 0.000000 0.000000 0.000000 0.082453
#
#
# Mechanical properties :
#
#
# Convention : Reuss Voigt Hill
#
# Bulk Modulus (GPa) = 55.90235 56.50673 56.20454
# Shear Modulus (GPa) = 23.39519 27.23166 25.31343
#
# Velocity S-wave (km/s) = 3.44429 3.71598 3.58271
# Velocity P-wave (km/s) = 6.64561 6.86035 6.75384
#
# Compressibility (1/GPa) = 0.01788834
#
# Stress axis : x y z
#
# Youngs Moduli (GPa) = 68.53373 72.67100 73.28432
#
# Poissons Ratio (x) = 0.30855 0.22009
# Poissons Ratio (y) = 0.29098 0.35217
# Poissons Ratio (z) = 0.20582 0.34923
#
# Static dielectric constant tensor:
#      x y z
#    x 1.668480 0.000000 0.000000 
#    y 0.000000 1.701160 0.000000 
#    z 0.000000 0.000000 1.726410 
# 
# From -- ./inp_files/11744.got.cif
#   From: 2010.05.17/outbox.cif.g08.bks.cpg/sg62_6_cif.got.tgz:11744.got - 2010.06.03 15:25:27.
