data_PCOD9466429
_publ_section_title
;
Structure prediction by ZEFSAII (Michael W. Deem and Ramdas Pophale) SiO2 
 PCOD9466429
Probable space group: P N M A
;
_chemical_formula_sum "Si O2"
_cell_formula_units_Z 28
_cell_length_a 9.550881
_cell_length_b 18.694920
_cell_length_c 5.480022
_cell_angle_alpha 90.000000
_cell_angle_beta 90.000000
_cell_angle_gamma 90.000000
_cell_volume 978.474128
_symmetry_space_group_name_H-M "P N M A"
_symmetry_group_IT_number 62
_symmetry_cell_setting 'orthorhombic'
loop_
_space_group_symop_operation_xyz
x,y,z
1/2-x,-y,1/2+z
1/2+x,1/2-y,1/2-z
-x,1/2+y,-z
-x,-y,-z
1/2+x,y,1/2-z
1/2-x,1/2+y,1/2+z
x,1/2-y,z
loop_
_atom_site_type_symbol
_atom_site_label
_atom_site_fract_x
_atom_site_fract_y
_atom_site_fract_z
Si Si1 0.736974 0.406663 0.721711
Si Si2 0.500592 0.903470 0.954414
Si Si3 0.663792 0.250000 0.543867
Si Si4 0.500000 0.500000 0.500000
Si Si5 0.917800 0.250000 0.259419
O O1 0.902492 0.423213 0.696571
O O2 0.711164 0.322576 0.670296
O O3 0.646603 0.449898 0.526520
O O4 0.658415 0.416810 0.975004
O O5 0.529702 0.821624 0.891498
O O6 0.550283 0.950102 0.732173
O O7 0.750572 0.250000 0.286716
O O8 0.497728 0.250000 0.497601
#
# Coordination Sequence:
#
# PCOD9466429 Si02
#       5
#     8   8   4   4   4
#     4  11  26  45  75 109 150 208 261 328 392 472
#     4  11  26  47  77 111 157 207 264 326 401 471
#     4  10  21  44  72 107 151 199 262 322 390 464
#     4  12  26  46  72 112 158 200 258 324 392 474
#     4  10  21  44  72 113 151 201 260 328 394 466
#
# _framework density 28.615988000000002
#
# number of rings (size 3 to 8) (size 9 to 14) (size 15 to 20)
#    0.000    1.143    2.857    1.714    4.000    4.571 
#    0.000    0.000    0.000    0.000    0.000    0.000 
#    0.000    0.000    0.000    0.000    0.000    0.000 
#
# Total GULP energy -156403.198136 kJ/mol
# GULP energy per Si atom -5585.828505 kJ/mol
# Density = 2.855086 g / cm^3
# Si number density = 28.615988 Si / 1000 Ang^3
#
#
#
# Elastic Constant Matrix: (Units=GPa)
#
#
# Indices 1 2 3 4 5 6 
#
# 1 174.9686 49.6189 58.3460 0.0000 0.0000 0.0000
# 2 49.6189 210.1972 23.4787 0.0000 0.0000 0.0000
# 3 58.3460 23.4787 118.1243 0.0000 0.0000 0.0000
# 4 0.0000 0.0000 0.0000 27.6334 0.0000 0.0000
# 5 0.0000 0.0000 0.0000 0.0000 45.0734 0.0000
# 6 0.0000 0.0000 0.0000 0.0000 0.0000 30.9063
#
#
#
# Elastic Compliance Matrix: (Units=1/GPa)
#
#
# Indices 1 2 3 4 5 6 
#
# 1 0.007188 -0.001330 -0.003286 0.000000 0.000000 0.000000
# 2 -0.001330 0.005111 -0.000359 0.000000 0.000000 0.000000
# 3 -0.003286 -0.000359 0.010160 0.000000 0.000000 0.000000
# 4 0.000000 0.000000 0.000000 0.036188 0.000000 0.000000
# 5 0.000000 0.000000 0.000000 0.000000 0.022186 0.000000
# 6 0.000000 0.000000 0.000000 0.000000 0.000000 0.032356
#
#
# Mechanical properties :
#
#
# Convention : Reuss Voigt Hill
#
# Bulk Modulus (GPa) = 79.93835 85.13081 82.53458
# Shear Modulus (GPa) = 39.27414 45.51237 42.39326
#
# Velocity S-wave (km/s) = 3.70868 3.99237 3.85314
# Velocity P-wave (km/s) = 6.80695 7.14605 6.97856
#
# Compressibility (1/GPa) = 0.01250964
#
# Stress axis : x y z
#
# Youngs Moduli (GPa) = 139.11543 195.63879 98.42281
#
# Poissons Ratio (x) = 0.26016 0.32344
# Poissons Ratio (y) = 0.18499 0.03535
# Poissons Ratio (z) = 0.45717 0.07026
#
# Static dielectric constant tensor:
#      x y z
#    x 1.930540 0.000000 0.000000 
#    y 0.000000 1.930070 0.000000 
#    z 0.000000 0.000000 1.597530 
# 
# From -- ./inp_files/416.got.cif
#   From: 2010.05.17/outbox.cif.g08.bks.cpg/sg62_1_cif.got.tgz:416.got - 2010.06.03 15:25:27.
