data_PCOD9466352
_publ_section_title
;
Structure prediction by ZEFSAII (Michael W. Deem and Ramdas Pophale) SiO2 
 PCOD9466352
Probable space group: P N M A
;
_chemical_formula_sum "Si O2"
_cell_formula_units_Z 64
_cell_length_a 12.832158
_cell_length_b 8.583552
_cell_length_c 29.143625
_cell_angle_alpha 90.000000
_cell_angle_beta 90.000000
_cell_angle_gamma 90.000000
_cell_volume 3210.039015
_symmetry_space_group_name_H-M "P N M A"
_symmetry_group_IT_number 62
_symmetry_cell_setting 'orthorhombic'
loop_
_space_group_symop_operation_xyz
x,y,z
1/2-x,-y,1/2+z
1/2+x,1/2-y,1/2-z
-x,1/2+y,-z
-x,-y,-z
1/2+x,y,1/2-z
1/2-x,1/2+y,1/2+z
x,1/2-y,z
loop_
_atom_site_type_symbol
_atom_site_label
_atom_site_fract_x
_atom_site_fract_y
_atom_site_fract_z
Si Si1 0.242002 0.563730 0.066386
Si Si2 0.007142 0.065091 0.697802
Si Si3 0.610984 0.061938 0.016719
Si Si4 0.648051 0.439010 0.122193
Si Si5 0.437585 0.938654 0.705976
Si Si6 0.382112 0.439691 0.364132
Si Si7 0.484342 0.564152 0.550616
Si Si8 0.215382 0.563743 0.662411
O O1 0.231772 0.750000 0.065185
O O2 0.128454 0.487770 0.068040
O O3 0.300294 0.512450 0.112523
O O4 0.302493 0.512559 0.020490
O O5 0.016945 0.250000 0.697616
O O6 0.121302 0.988699 0.694688
O O7 0.940894 0.009171 0.654045
O O8 0.950156 0.007952 0.743710
O O9 0.608874 0.250000 0.016152
O O10 0.635485 0.014406 0.068891
O O11 0.500000 0.000000 0.000000
O O12 0.641745 0.250000 0.124311
O O13 0.762427 0.487916 0.140140
O O14 0.438888 0.750000 0.708768
O O15 0.535957 0.988784 0.674753
O O16 0.328135 0.983157 0.682466
O O17 0.382364 0.250000 0.363858
O O18 0.428685 0.489887 0.413212
O O19 0.500000 0.500000 0.500000
O O20 0.489070 0.750000 0.549091
O O21 0.214759 0.750000 0.657435
#
# Coordination Sequence:
#
# PCOD9466352 Si02
#       8
#     8   8   8   8   8   8   8   8
#     4  11  22  38  61  93 129 163 203 261 324 376
#     4  12  27  43  62  94 132 163 202 262 325 380
#     4  10  22  38  59  88 124 167 213 259 309 365
#     4  10  21  41  66  91 122 167 217 260 305 368
#     4  10  22  43  68  93 118 160 212 259 311 377
#     4   9  19  39  65  90 120 157 207 261 309 368
#     4  11  21  37  59  90 125 165 210 256 311 375
#     4  11  23  43  69  95 124 164 216 260 308 382
#
# _framework density 19.937452
#
# number of rings (size 3 to 8) (size 9 to 14) (size 15 to 20)
#    0.000    1.500    1.250    3.750    1.750    6.500 
#    0.000    2.500    0.000    0.000    0.000    0.000 
#    0.000    0.000    0.000    0.000    0.000    0.000 
#
# Total GULP energy -357799.241518 kJ/mol
# GULP energy per Si atom -5590.613149 kJ/mol
# Density = 1.989207 g / cm^3
# Si number density = 19.937452 Si / 1000 Ang^3
#
#
#
# Elastic Constant Matrix: (Units=GPa)
#
#
# Indices 1 2 3 4 5 6 
#
# 1 103.2777 9.6183 21.0264 0.0000 0.0000 0.0000
# 2 9.6183 24.6820 13.3485 0.0000 0.0000 0.0000
# 3 21.0264 13.3485 103.0130 0.0000 0.0000 0.0000
# 4 0.0000 0.0000 0.0000 30.0631 0.0000 0.0000
# 5 0.0000 0.0000 0.0000 0.0000 35.1032 0.0000
# 6 0.0000 0.0000 0.0000 0.0000 0.0000 23.6011
#
#
#
# Elastic Compliance Matrix: (Units=1/GPa)
#
#
# Indices 1 2 3 4 5 6 
#
# 1 0.010318 -0.003099 -0.001705 0.000000 0.000000 0.000000
# 2 -0.003099 0.044499 -0.005134 0.000000 0.000000 0.000000
# 3 -0.001705 -0.005134 0.010721 0.000000 0.000000 0.000000
# 4 0.000000 0.000000 0.000000 0.033263 0.000000 0.000000
# 5 0.000000 0.000000 0.000000 0.000000 0.028487 0.000000
# 6 0.000000 0.000000 0.000000 0.000000 0.000000 0.042371
#
#
# Mechanical properties :
#
#
# Convention : Reuss Voigt Hill
#
# Bulk Modulus (GPa) = 21.89917 35.43987 28.66952
# Shear Modulus (GPa) = 24.41931 30.21877 27.31904
#
# Velocity S-wave (km/s) = 3.50350 3.89740 3.70569
# Velocity P-wave (km/s) = 5.23200 6.16985 5.72018
#
# Compressibility (1/GPa) = 0.04566383
#
# Stress axis : x y z
#
# Youngs Moduli (GPa) = 96.91544 22.47218 93.27786
#
# Poissons Ratio (x) = 0.06964 0.15899
# Poissons Ratio (y) = 0.30035 0.47886
# Poissons Ratio (z) = 0.16519 0.11537
#
# Static dielectric constant tensor:
#      x y z
#    x 1.693830 0.000000 0.000000 
#    y 0.000000 1.664820 0.000000 
#    z 0.000000 0.000000 1.692440 
# 
# From -- ./inp_files/32500.got.cif
#   From: 2010.05.17/outbox.cif.g08.bks.cpg/sg62_17_cif.got.tgz:32500.got - 2010.06.03 15:25:27.
