data_PCOD9466473
_publ_section_title
;
Structure prediction by ZEFSAII (Michael W. Deem and Ramdas Pophale) SiO2 
 PCOD9466473
Probable space group: P N M A
;
_chemical_formula_sum "Si O2"
_cell_formula_units_Z 64
_cell_length_a 33.350478
_cell_length_b 7.975736
_cell_length_c 11.467683
_cell_angle_alpha 90.000000
_cell_angle_beta 90.000000
_cell_angle_gamma 90.000000
_cell_volume 3050.341844
_symmetry_space_group_name_H-M "P N M A"
_symmetry_group_IT_number 62
_symmetry_cell_setting 'orthorhombic'
loop_
_space_group_symop_operation_xyz
x,y,z
1/2-x,-y,1/2+z
1/2+x,1/2-y,1/2-z
-x,1/2+y,-z
-x,-y,-z
1/2+x,y,1/2-z
1/2-x,1/2+y,1/2+z
x,1/2-y,z
loop_
_atom_site_type_symbol
_atom_site_label
_atom_site_fract_x
_atom_site_fract_y
_atom_site_fract_z
Si Si1 0.813099 0.554688 0.239540
Si Si2 0.724141 0.954783 0.214089
Si Si3 0.847511 0.051548 0.865918
Si Si4 0.522230 0.555471 0.619430
Si Si5 0.095527 0.947412 0.359368
Si Si6 0.992606 0.560692 0.632767
Si Si7 0.830435 0.047290 0.494531
Si Si8 0.387426 0.555775 0.401147
O O1 0.812336 0.750000 0.202538
O O2 0.769481 0.481822 0.209902
O O3 0.818011 0.540003 0.376952
O O4 0.853011 0.480246 0.182129
O O5 0.725007 0.750000 0.219824
O O6 0.696452 0.007444 0.323581
O O7 0.699733 0.999363 0.098345
O O8 0.845133 0.250000 0.895127
O O9 0.876837 0.036760 0.754873
O O10 0.867385 0.956201 0.972034
O O11 0.500000 0.500000 0.500000
O O12 0.511612 0.750000 0.628393
O O13 0.510116 0.478874 0.746963
O O14 0.569753 0.532534 0.602882
O O15 0.085083 0.750000 0.371171
O O16 0.124547 0.995936 0.465638
O O17 0.055163 0.049877 0.351126
O O18 0.008186 0.750000 0.631498
O O19 0.000000 0.500000 0.500000
O O20 0.828783 0.250000 0.481864
O O21 0.394861 0.750000 0.369945
#
# Coordination Sequence:
#
# PCOD9466473 Si02
#       8
#     8   8   8   8   8   8   8   8
#     4  10  22  37  54  81 119 156 191 240 293 342
#     4   8  17  36  58  81 113 153 195 241 294 343
#     4   9  18  36  62  86 112 154 200 243 290 347
#     4  11  25  45  68  94 124 160 203 252 307 369
#     4   9  19  37  60  86 114 148 190 238 291 345
#     4  11  25  41  62  91 121 156 197 245 299 360
#     4   9  19  36  59  82 110 149 193 237 285 345
#     4  11  24  38  57  88 125 159 193 241 299 353
#
# _framework density 20.981255000000001
#
# number of rings (size 3 to 8) (size 9 to 14) (size 15 to 20)
#    0.000    2.250    0.000    3.375    3.500    6.000 
#    0.000    2.500    0.000    0.000    0.000    0.000 
#    0.000    0.000    0.000    0.000    0.000    0.000 
#
# Total GULP energy -356973.652623 kJ/mol
# GULP energy per Si atom -5577.713322 kJ/mol
# Density = 2.093350 g / cm^3
# Si number density = 20.981255 Si / 1000 Ang^3
#
#
#
# Elastic Constant Matrix: (Units=GPa)
#
#
# Indices 1 2 3 4 5 6 
#
# 1 129.8260 -0.1771 53.8671 0.0000 0.0000 0.0000
# 2 -0.1771 16.7459 15.4210 0.0000 0.0000 0.0000
# 3 53.8671 15.4210 107.5094 0.0000 0.0000 0.0000
# 4 0.0000 0.0000 0.0000 27.8897 0.0000 0.0000
# 5 0.0000 0.0000 0.0000 0.0000 23.0867 0.0000
# 6 0.0000 0.0000 0.0000 0.0000 0.0000 22.3388
#
#
#
# Elastic Compliance Matrix: (Units=1/GPa)
#
#
# Indices 1 2 3 4 5 6 
#
# 1 0.010148 0.005519 -0.005876 0.000000 0.000000 0.000000
# 2 0.005519 0.071806 -0.013065 0.000000 0.000000 0.000000
# 3 -0.005876 -0.013065 0.014120 0.000000 0.000000 0.000000
# 4 0.000000 0.000000 0.000000 0.035856 0.000000 0.000000
# 5 0.000000 0.000000 0.000000 0.000000 0.043315 0.000000
# 6 0.000000 0.000000 0.000000 0.000000 0.000000 0.044765
#
#
# Mechanical properties :
#
#
# Convention : Reuss Voigt Hill
#
# Bulk Modulus (GPa) = 14.44486 43.58925 29.01705
# Shear Modulus (GPa) = 18.52328 26.99441 22.75885
#
# Velocity S-wave (km/s) = 2.97450 3.59081 3.29709
# Velocity P-wave (km/s) = 4.32394 6.16541 5.32488
#
# Compressibility (1/GPa) = 0.06922879
#
# Stress axis : x y z
#
# Youngs Moduli (GPa) = 98.53801 13.92651 70.82218
#
# Poissons Ratio (x) = -0.07686 0.41618
# Poissons Ratio (y) = -0.54381 0.92528
# Poissons Ratio (z) = 0.57905 0.18195
#
# Static dielectric constant tensor:
#      x y z
#    x 1.740430 0.000000 0.000000 
#    y 0.000000 1.806410 0.000000 
#    z 0.000000 0.000000 1.769700 
# 
# From -- ./inp_files/15898.got.cif
#   From: 2010.05.17/outbox.cif.g08.bks.cpg/sg62_8_cif.got.tgz:15898.got - 2010.06.03 15:25:27.
