data_PCOD9466476
_publ_section_title
;
Structure prediction by ZEFSAII (Michael W. Deem and Ramdas Pophale) SiO2 
 PCOD9466476
Probable space group: P N M A
;
_chemical_formula_sum "Si O2"
_cell_formula_units_Z 56
_cell_length_a 9.606775
_cell_length_b 22.046315
_cell_length_c 12.950135
_cell_angle_alpha 90.000000
_cell_angle_beta 90.000000
_cell_angle_gamma 90.000000
_cell_volume 2742.760734
_symmetry_space_group_name_H-M "P N M A"
_symmetry_group_IT_number 62
_symmetry_cell_setting 'orthorhombic'
loop_
_space_group_symop_operation_xyz
x,y,z
1/2-x,-y,1/2+z
1/2+x,1/2-y,1/2-z
-x,1/2+y,-z
-x,-y,-z
1/2+x,y,1/2-z
1/2-x,1/2+y,1/2+z
x,1/2-y,z
loop_
_atom_site_type_symbol
_atom_site_label
_atom_site_fract_x
_atom_site_fract_y
_atom_site_fract_z
Si Si1 0.875882 0.929537 0.482024
Si Si2 0.523163 0.096369 0.529077
Si Si3 0.373360 0.180779 0.223534
Si Si4 0.671338 0.942807 0.085439
Si Si5 0.392020 0.896297 0.696231
Si Si6 0.319851 0.031645 0.686424
Si Si7 0.685168 0.683507 0.530430
O O1 0.825290 0.951660 0.368214
O O2 0.794615 0.869346 0.510530
O O3 0.039643 0.918714 0.477728
O O4 0.832076 0.985747 0.554633
O O5 0.683068 0.086826 0.555664
O O6 0.518116 0.087281 0.405605
O O7 0.432820 0.051267 0.599918
O O8 0.451020 0.162278 0.534300
O O9 0.400285 0.250000 0.186848
O O10 0.233941 0.150968 0.176636
O O11 0.505666 0.135239 0.220842
O O12 0.345614 0.185573 0.347180
O O13 0.653719 0.934014 0.207316
O O14 0.324299 0.961218 0.717730
O O15 0.732280 0.750000 0.498533
#
# Coordination Sequence:
#
# PCOD9466476 Si02
#       7
#     8   8   8   8   8   8   8
#     4  10  22  37  57  91 123 156 200 252 312 373
#     4  10  22  38  60  86 121 157 205 249 299 371
#     4  10  22  37  56  86 120 160 204 243 294 372
#     4  11  22  36  59  89 126 150 196 258 314 358
#     4  11  22  35  59  83 123 161 200 244 301 363
#     4  11  22  36  59  88 121 159 198 250 312 367
#     4   9  20  40  62  83 117 163 203 245 305 369
#
# _framework density 20.417383999999998
#
# number of rings (size 3 to 8) (size 9 to 14) (size 15 to 20)
#    0.000    1.714    1.429    2.571    8.000    1.714 
#    0.000    0.714    0.000   13.714    0.000    0.000 
#    0.000    0.000    0.000    0.000    0.000    0.000 
#
# Total GULP energy -312355.686920 kJ/mol
# GULP energy per Si atom -5577.780124 kJ/mol
# Density = 2.037091 g / cm^3
# Si number density = 20.417384 Si / 1000 Ang^3
#
#
#
# Elastic Constant Matrix: (Units=GPa)
#
#
# Indices 1 2 3 4 5 6 
#
# 1 97.7939 16.5602 -9.9882 0.0000 0.0000 0.0000
# 2 16.5602 74.2765 -13.9429 0.0000 0.0000 0.0000
# 3 -9.9882 -13.9429 34.4159 0.0000 0.0000 0.0000
# 4 0.0000 0.0000 0.0000 4.9476 0.0000 0.0000
# 5 0.0000 0.0000 0.0000 0.0000 23.1172 0.0000
# 6 0.0000 0.0000 0.0000 0.0000 0.0000 5.5551
#
#
#
# Elastic Compliance Matrix: (Units=1/GPa)
#
#
# Indices 1 2 3 4 5 6 
#
# 1 0.010798 -0.001969 0.002336 0.000000 0.000000 0.000000
# 2 -0.001969 0.014930 0.005477 0.000000 0.000000 0.000000
# 3 0.002336 0.005477 0.031953 0.000000 0.000000 0.000000
# 4 0.000000 0.000000 0.000000 0.202119 0.000000 0.000000
# 5 0.000000 0.000000 0.000000 0.000000 0.043258 0.000000
# 6 0.000000 0.000000 0.000000 0.000000 0.000000 0.180014
#
#
# Mechanical properties :
#
#
# Convention : Reuss Voigt Hill
#
# Bulk Modulus (GPa) = 14.41540 21.30496 17.86018
# Shear Modulus (GPa) = 10.11110 20.98112 15.54611
#
# Velocity S-wave (km/s) = 2.22777 3.20911 2.76237
# Velocity P-wave (km/s) = 3.70040 4.91819 4.35210
#
# Compressibility (1/GPa) = 0.06937023
#
# Stress axis : x y z
#
# Youngs Moduli (GPa) = 92.61332 66.97765 31.29565
#
# Poissons Ratio (x) = 0.13187 -0.07311
# Poissons Ratio (y) = 0.18234 -0.17142
# Poissons Ratio (z) = -0.21635 -0.36686
#
# Static dielectric constant tensor:
#      x y z
#    x 1.768000 0.000000 0.000000 
#    y 0.000000 1.741860 0.000000 
#    z 0.000000 0.000000 1.745190 
# 
# From -- ./inp_files/17214.got.cif
#   From: 2010.05.17/outbox.cif.g08.bks.cpg/sg62_9_cif.got.tgz:17214.got - 2010.06.03 15:25:27.
