data_PCOD9466414
_publ_section_title
;
Structure prediction by ZEFSAII (Michael W. Deem and Ramdas Pophale) SiO2 
 PCOD9466414
Probable space group: P N M A
;
_chemical_formula_sum "Si O2"
_cell_formula_units_Z 40
_cell_length_a 13.563885
_cell_length_b 25.977762
_cell_length_c 5.003478
_cell_angle_alpha 90.000000
_cell_angle_beta 90.000000
_cell_angle_gamma 90.000000
_cell_volume 1763.022388
_symmetry_space_group_name_H-M "P N M A"
_symmetry_group_IT_number 62
_symmetry_cell_setting 'orthorhombic'
loop_
_space_group_symop_operation_xyz
x,y,z
1/2-x,-y,1/2+z
1/2+x,1/2-y,1/2-z
-x,1/2+y,-z
-x,-y,-z
1/2+x,y,1/2-z
1/2-x,1/2+y,1/2+z
x,1/2-y,z
loop_
_atom_site_type_symbol
_atom_site_label
_atom_site_fract_x
_atom_site_fract_y
_atom_site_fract_z
Si Si1 0.147031 0.750000 0.249951
Si Si2 0.495357 0.953866 0.781601
Si Si3 0.898136 0.850086 0.570192
Si Si4 0.190679 0.188529 0.959734
Si Si5 0.490125 0.250000 0.249541
Si Si6 0.321120 0.495883 0.456525
O O1 0.211253 0.801733 0.283164
O O2 0.079230 0.750000 0.499679
O O3 0.079592 0.750000 0.998835
O O4 0.459506 0.901736 0.915745
O O5 0.406717 0.966251 0.571398
O O6 0.500000 0.000000 0.000000
O O7 0.604271 0.951362 0.649345
O O8 0.880257 0.834747 0.265257
O O9 0.954177 0.803750 0.717320
O O10 0.804410 0.847026 0.776748
O O11 0.172073 0.250000 0.019303
O O12 0.245847 0.485822 0.704047
#
# Coordination Sequence:
#
# PCOD9466414 Si02
#       6
#     4   8   8   8   4   8
#     4  10  22  40  62  94 144 162 230 280 328 408
#     4  11  27  48  73 107 146 184 249 302 357 440
#     4  12  24  42  71  95 134 185 224 279 359 413
#     4  10  21  43  63  91 133 176 223 266 337 417
#     4  12  20  42  60 100 132 176 216 292 332 412
#     4  11  24  49  73 100 142 188 238 301 365 433
#
# _framework density 22.688309
#
# number of rings (size 3 to 8) (size 9 to 14) (size 15 to 20)
#    0.600    0.400    4.000    2.400    5.600    0.000 
#   10.800    0.000    0.000    0.000    0.000    0.000 
#    0.000    0.000    0.000    0.000    0.000    0.000 
#
# Total GULP energy -222790.479904 kJ/mol
# GULP energy per Si atom -5569.761998 kJ/mol
# Density = 2.263667 g / cm^3
# Si number density = 22.688309 Si / 1000 Ang^3
#
#
#
# Elastic Constant Matrix: (Units=GPa)
#
#
# Indices 1 2 3 4 5 6 
#
# 1 78.7738 -0.1601 18.6420 0.0000 0.0000 0.0000
# 2 -0.1601 41.9369 -3.7555 0.0000 0.0000 0.0000
# 3 18.6420 -3.7555 134.8295 0.0000 0.0000 0.0000
# 4 0.0000 0.0000 0.0000 69.5317 0.0000 0.0000
# 5 0.0000 0.0000 0.0000 0.0000 42.8054 0.0000
# 6 0.0000 0.0000 0.0000 0.0000 0.0000 8.7744
#
#
#
# Elastic Compliance Matrix: (Units=1/GPa)
#
#
# Indices 1 2 3 4 5 6 
#
# 1 0.013125 -0.000113 -0.001818 0.000000 0.000000 0.000000
# 2 -0.000113 0.023906 0.000681 0.000000 0.000000 0.000000
# 3 -0.001818 0.000681 0.007687 0.000000 0.000000 0.000000
# 4 0.000000 0.000000 0.000000 0.014382 0.000000 0.000000
# 5 0.000000 0.000000 0.000000 0.000000 0.023362 0.000000
# 6 0.000000 0.000000 0.000000 0.000000 0.000000 0.113968
#
#
# Mechanical properties :
#
#
# Convention : Reuss Voigt Hill
#
# Bulk Modulus (GPa) = 23.68571 31.66590 27.67581
# Shear Modulus (GPa) = 23.47413 40.27655 31.87534
#
# Velocity S-wave (km/s) = 3.22006 4.21790 3.75230
# Velocity P-wave (km/s) = 4.92822 6.14069 5.56756
#
# Compressibility (1/GPa) = 0.04221955
#
# Stress axis : x y z
#
# Youngs Moduli (GPa) = 76.19323 41.83057 130.08829
#
# Poissons Ratio (x) = 0.00471 0.23647
# Poissons Ratio (y) = 0.00858 -0.08865
# Poissons Ratio (z) = 0.13850 -0.02851
#
# Static dielectric constant tensor:
#      x y z
#    x 2.204940 0.000000 0.000000 
#    y 0.000000 1.951440 0.000000 
#    z 0.000000 0.000000 2.115390 
# 
# From -- ./inp_files/1076.got.cif
#   From: 2010.05.17/outbox.cif.g08.bks.cpg/sg62_1_cif.got.tgz:1076.got - 2010.06.03 15:25:27.
