data_PCOD9466253
_publ_section_title
;
Structure prediction by ZEFSAII (Michael W. Deem and Ramdas Pophale) SiO2 
 PCOD9466253
Probable space group: P N M A
;
_chemical_formula_sum "Si O2"
_cell_formula_units_Z 48
_cell_length_a 11.930084
_cell_length_b 9.148180
_cell_length_c 22.128976
_cell_angle_alpha 90.000000
_cell_angle_beta 90.000000
_cell_angle_gamma 90.000000
_cell_volume 2415.124483
_symmetry_space_group_name_H-M "P N M A"
_symmetry_group_IT_number 62
_symmetry_cell_setting 'orthorhombic'
loop_
_space_group_symop_operation_xyz
x,y,z
1/2-x,-y,1/2+z
1/2+x,1/2-y,1/2-z
-x,1/2+y,-z
-x,-y,-z
1/2+x,y,1/2-z
1/2-x,1/2+y,1/2+z
x,1/2-y,z
loop_
_atom_site_type_symbol
_atom_site_label
_atom_site_fract_x
_atom_site_fract_y
_atom_site_fract_z
Si Si1 0.415353 0.412327 0.041469
Si Si2 0.211903 0.427498 0.117420
Si Si3 0.054684 0.412611 0.334972
Si Si4 0.004867 0.426032 0.934394
Si Si5 0.860200 0.580754 0.281583
Si Si6 0.221880 0.082044 0.855809
O O1 0.401381 0.250000 0.015569
O O2 0.292648 0.468994 0.060206
O O3 0.476985 0.402844 0.105933
O O4 0.500000 0.500000 0.000000
O O5 0.206550 0.250000 0.119543
O O6 0.273042 0.489354 0.177256
O O7 0.092705 0.501347 0.106001
O O8 0.068192 0.250000 0.309151
O O9 0.171636 0.477986 0.356104
O O10 0.984616 0.516594 0.290865
O O11 0.990022 0.250000 0.937938
O O12 0.124937 0.454000 0.903294
O O13 0.000000 0.500000 0.000000
O O14 0.857213 0.750000 0.301319
O O15 0.827943 0.573320 0.211701
O O16 0.257727 0.250000 0.866300
#
# Coordination Sequence:
#
# PCOD9466253 Si02
#       6
#     8   8   8   8   8   8
#     4   9  20  36  57  85 117 151 194 243 296 354
#     4  10  22  41  62  91 125 160 204 256 309 369
#     4  10  22  39  59  90 123 153 199 253 306 363
#     4  11  25  44  64  91 126 170 216 259 312 376
#     4  10  21  40  65  92 122 161 204 251 310 373
#     4  10  24  42  63  89 122 163 206 251 305 372
#
# _framework density 19.874751
#
# number of rings (size 3 to 8) (size 9 to 14) (size 15 to 20)
#    0.000    2.000    0.000    3.000    4.667    6.667 
#    0.000    0.000    0.000    0.000    0.000    0.000 
#    0.000    0.000    0.000    0.000    0.000    0.000 
#
# Total GULP energy -268010.650680 kJ/mol
# GULP energy per Si atom -5583.555223 kJ/mol
# Density = 1.982952 g / cm^3
# Si number density = 19.874751 Si / 1000 Ang^3
#
#
#
# Elastic Constant Matrix: (Units=GPa)
#
#
# Indices 1 2 3 4 5 6 
#
# 1 110.2648 59.5369 13.3105 0.0000 0.0000 0.0000
# 2 59.5369 96.0452 26.0849 0.0000 0.0000 0.0000
# 3 13.3105 26.0849 49.6404 0.0000 0.0000 0.0000
# 4 0.0000 0.0000 0.0000 19.3420 0.0000 0.0000
# 5 0.0000 0.0000 0.0000 0.0000 13.5308 0.0000
# 6 0.0000 0.0000 0.0000 0.0000 0.0000 35.7296
#
#
#
# Elastic Compliance Matrix: (Units=1/GPa)
#
#
# Indices 1 2 3 4 5 6 
#
# 1 0.013667 -0.008722 0.000918 0.000000 0.000000 0.000000
# 2 -0.008722 0.017711 -0.006968 0.000000 0.000000 0.000000
# 3 0.000918 -0.006968 0.023560 0.000000 0.000000 0.000000
# 4 0.000000 0.000000 0.000000 0.051701 0.000000 0.000000
# 5 0.000000 0.000000 0.000000 0.000000 0.073906 0.000000
# 6 0.000000 0.000000 0.000000 0.000000 0.000000 0.027988
#
#
# Mechanical properties :
#
#
# Convention : Reuss Voigt Hill
#
# Bulk Modulus (GPa) = 39.37691 50.42387 44.90039
# Shear Modulus (GPa) = 20.28066 24.18835 22.23451
#
# Velocity S-wave (km/s) = 3.19787 3.49239 3.34837
# Velocity P-wave (km/s) = 5.78712 6.45665 6.13103
#
# Compressibility (1/GPa) = 0.02539559
#
# Stress axis : x y z
#
# Youngs Moduli (GPa) = 73.16675 56.46353 42.44461
#
# Poissons Ratio (x) = 0.49245 -0.03897
# Poissons Ratio (y) = 0.63813 0.29575
# Poissons Ratio (z) = -0.06718 0.39343
#
# Static dielectric constant tensor:
#      x y z
#    x 1.702440 0.000000 0.000000 
#    y 0.000000 -6.832200 0.000000 
#    z 0.000000 0.000000 1.696050 
# 
# From -- ./inp_files/29233.got.cif
#   From: 2010.05.17/outbox.cif.g08.bks.cpg/sg62_15_cif.got.tgz:29233.got - 2010.06.03 15:25:27.
