data_PCOD9466122
_publ_section_title
;
Structure prediction by ZEFSAII (Michael W. Deem and Ramdas Pophale) SiO2 
 PCOD9466122
Probable space group: P N M A
;
_chemical_formula_sum "Si O2"
_cell_formula_units_Z 48
_cell_length_a 19.337286
_cell_length_b 8.765019
_cell_length_c 15.376343
_cell_angle_alpha 90.000000
_cell_angle_beta 90.000000
_cell_angle_gamma 90.000000
_cell_volume 2606.162195
_symmetry_space_group_name_H-M "P N M A"
_symmetry_group_IT_number 62
_symmetry_cell_setting 'orthorhombic'
loop_
_space_group_symop_operation_xyz
x,y,z
1/2-x,-y,1/2+z
1/2+x,1/2-y,1/2-z
-x,1/2+y,-z
-x,-y,-z
1/2+x,y,1/2-z
1/2-x,1/2+y,1/2+z
x,1/2-y,z
loop_
_atom_site_type_symbol
_atom_site_label
_atom_site_fract_x
_atom_site_fract_y
_atom_site_fract_z
Si Si1 0.169959 0.432911 0.374021
Si Si2 0.431656 0.067652 0.223826
Si Si3 0.168429 0.932999 0.882623
Si Si4 0.075115 0.932667 0.523314
Si Si5 0.578353 0.568335 0.279282
Si Si6 0.073372 0.068233 0.030865
O O1 0.162855 0.250000 0.370465
O O2 0.250971 0.471761 0.376150
O O3 0.130979 0.495005 0.459080
O O4 0.132295 0.504305 0.290676
O O5 0.445642 0.250000 0.229265
O O6 0.372690 0.030908 0.293852
O O7 0.410872 0.034072 0.124731
O O8 0.501895 0.981324 0.248057
O O9 0.162662 0.750000 0.896309
O O10 0.130501 0.017001 0.961396
O O11 0.073799 0.750000 0.511534
O O12 0.000000 0.000000 0.500000
O O13 0.582540 0.750000 0.283888
O O14 0.589825 0.496781 0.374046
O O15 0.067800 0.250000 0.034500
O O16 0.000000 0.000000 0.000000
#
# Coordination Sequence:
#
# PCOD9466122 Si02
#       6
#     8   8   8   8   8   8
#     4  11  24  42  63  92 131 170 207 261 321 373
#     4  10  21  39  64  90 121 162 210 262 312 368
#     4  10  23  43  65  92 128 167 210 260 315 373
#     4  11  22  37  62  93 125 164 212 262 312 375
#     4  12  24  39  64  95 125 165 214 261 310 373
#     4  12  24  40  65  95 128 166 211 260 313 375
#
# _framework density 18.417887
#
# number of rings (size 3 to 8) (size 9 to 14) (size 15 to 20)
#    0.000    1.000    3.333    4.000    0.000    3.333 
#    0.000    1.667    0.000    0.000    0.000    0.000 
#    0.000    0.000    0.000    0.000    0.000    0.000 
#
# Total GULP energy -268493.179373 kJ/mol
# GULP energy per Si atom -5593.607904 kJ/mol
# Density = 1.837597 g / cm^3
# Si number density = 18.417887 Si / 1000 Ang^3
#
#
#
# Elastic Constant Matrix: (Units=GPa)
#
#
# Indices 1 2 3 4 5 6 
#
# 1 172.1433 93.6720 108.9911 0.0000 0.0000 0.0000
# 2 93.6720 110.2900 99.6780 0.0000 0.0000 0.0000
# 3 108.9911 99.6780 205.1698 0.0000 0.0000 0.0000
# 4 0.0000 0.0000 0.0000 35.7795 0.0000 0.0000
# 5 0.0000 0.0000 0.0000 0.0000 32.4179 0.0000
# 6 0.0000 0.0000 0.0000 0.0000 0.0000 26.4835
#
#
#
# Elastic Compliance Matrix: (Units=1/GPa)
#
#
# Indices 1 2 3 4 5 6 
#
# 1 0.011436 -0.007528 -0.002418 0.000000 0.000000 0.000000
# 2 -0.007528 0.021120 -0.006262 0.000000 0.000000 0.000000
# 3 -0.002418 -0.006262 0.009201 0.000000 0.000000 0.000000
# 4 0.000000 0.000000 0.000000 0.027949 0.000000 0.000000
# 5 0.000000 0.000000 0.000000 0.000000 0.030847 0.000000
# 6 0.000000 0.000000 0.000000 0.000000 0.000000 0.037759
#
#
# Mechanical properties :
#
#
# Convention : Reuss Voigt Hill
#
# Bulk Modulus (GPa) = 107.04674 121.36503 114.20589
# Shear Modulus (GPa) = 28.76189 31.28697 30.02443
#
# Velocity S-wave (km/s) = 3.95603 4.12603 4.04193
# Velocity P-wave (km/s) = 8.89461 9.42004 9.16109
#
# Compressibility (1/GPa) = 0.00934171
#
# Stress axis : x y z
#
# Youngs Moduli (GPa) = 87.44076 47.34903 108.68807
#
# Poissons Ratio (x) = 0.35643 0.26281
# Poissons Ratio (y) = 0.65824 0.68057
# Poissons Ratio (z) = 0.21143 0.29649
#
# Static dielectric constant tensor:
#      x y z
#    x 1.595260 0.000000 0.000000 
#    y 0.000000 1.619650 0.000000 
#    z 0.000000 0.000000 1.617280 
# 
# From -- ./inp_files/19576.got.cif
#   From: 2010.05.17/outbox.cif.g08.bks.cpg/sg62_10_cif.got.tgz:19576.got - 2010.06.03 15:25:27.
