data_PCOD9466176
_publ_section_title
;
Structure prediction by ZEFSAII (Michael W. Deem and Ramdas Pophale) SiO2 
 PCOD9466176
Probable space group: P N M A
;
_chemical_formula_sum "Si O2"
_cell_formula_units_Z 40
_cell_length_a 7.379661
_cell_length_b 17.819059
_cell_length_c 15.211543
_cell_angle_alpha 90.000000
_cell_angle_beta 90.000000
_cell_angle_gamma 90.000000
_cell_volume 2000.296833
_symmetry_space_group_name_H-M "P N M A"
_symmetry_group_IT_number 62
_symmetry_cell_setting 'orthorhombic'
loop_
_space_group_symop_operation_xyz
x,y,z
1/2-x,-y,1/2+z
1/2+x,1/2-y,1/2-z
-x,1/2+y,-z
-x,-y,-z
1/2+x,y,1/2-z
1/2-x,1/2+y,1/2+z
x,1/2-y,z
loop_
_atom_site_type_symbol
_atom_site_label
_atom_site_fract_x
_atom_site_fract_y
_atom_site_fract_z
Si Si1 0.254192 0.473860 0.173146
Si Si2 0.552807 0.833959 0.065546
Si Si3 0.836785 0.010703 0.632813
Si Si4 0.180684 0.584802 0.026758
Si Si5 0.137577 0.334838 0.075677
O O1 0.256516 0.491013 0.275730
O O2 0.459295 0.477387 0.137011
O O3 0.164026 0.393891 0.153716
O O4 0.150325 0.537175 0.115650
O O5 0.556566 0.750000 0.103438
O O6 0.638564 0.900041 0.123803
O O7 0.349859 0.860218 0.043729
O O8 0.674543 0.833015 0.977932
O O9 0.740140 0.974910 0.548285
O O10 0.012652 0.631404 0.990072
O O11 0.090820 0.250000 0.102384
#
# Coordination Sequence:
#
# PCOD9466176 Si02
#       5
#     8   8   8   8   8
#     4  11  22  39  63  91 123 162 210 250 297 369
#     4  10  21  40  61  89 123 156 197 253 304 356
#     4  11  22  39  63  91 121 167 206 250 304 359
#     4  11  21  41  64  88 123 165 207 246 302 365
#     4  11  22  38  63  91 118 158 199 253 309 353
#
# _framework density 19.997032000000001
#
# number of rings (size 3 to 8) (size 9 to 14) (size 15 to 20)
#    0.000    1.200    4.000    3.600    2.800    0.000 
#    0.000   10.000    0.000    0.000    0.000    0.000 
#    0.000    0.000    0.000    0.000    0.000    0.000 
#
# Total GULP energy -223599.314420 kJ/mol
# GULP energy per Si atom -5589.982861 kJ/mol
# Density = 1.995152 g / cm^3
# Si number density = 19.997032 Si / 1000 Ang^3
#
#
#
# Elastic Constant Matrix: (Units=GPa)
#
#
# Indices 1 2 3 4 5 6 
#
# 1 43.6073 27.4853 -7.2335 0.0000 0.0000 0.0000
# 2 27.4853 157.1809 26.6616 0.0000 0.0000 0.0000
# 3 -7.2335 26.6616 73.7843 0.0000 0.0000 0.0000
# 4 0.0000 0.0000 0.0000 14.5027 0.0000 0.0000
# 5 0.0000 0.0000 0.0000 0.0000 16.4876 0.0000
# 6 0.0000 0.0000 0.0000 0.0000 0.0000 19.8321
#
#
#
# Elastic Compliance Matrix: (Units=1/GPa)
#
#
# Indices 1 2 3 4 5 6 
#
# 1 0.027205 -0.005550 0.004672 0.000000 0.000000 0.000000
# 2 -0.005550 0.007910 -0.003402 0.000000 0.000000 0.000000
# 3 0.004672 -0.003402 0.015240 0.000000 0.000000 0.000000
# 4 0.000000 0.000000 0.000000 0.068953 0.000000 0.000000
# 5 0.000000 0.000000 0.000000 0.000000 0.060652 0.000000
# 6 0.000000 0.000000 0.000000 0.000000 0.000000 0.050423
#
#
# Mechanical properties :
#
#
# Convention : Reuss Voigt Hill
#
# Bulk Modulus (GPa) = 23.92568 40.93326 32.42947
# Shear Modulus (GPa) = 19.77271 25.34175 22.55723
#
# Velocity S-wave (km/s) = 3.14790 3.56374 3.36226
# Velocity P-wave (km/s) = 5.02026 6.11946 5.59691
#
# Compressibility (1/GPa) = 0.04179609
#
# Stress axis : x y z
#
# Youngs Moduli (GPa) = 36.75804 126.42810 65.61480
#
# Poissons Ratio (x) = 0.70164 -0.30658
# Poissons Ratio (y) = 0.20400 0.22323
# Poissons Ratio (z) = -0.17175 0.43013
#
# Static dielectric constant tensor:
#      x y z
#    x 1.749140 0.000000 0.000000 
#    y 0.000000 1.709820 0.000000 
#    z 0.000000 0.000000 1.672330 
# 
# From -- ./inp_files/16662.got.cif
#   From: 2010.05.17/outbox.cif.g08.bks.cpg/sg62_9_cif.got.tgz:16662.got - 2010.06.03 15:25:27.
