data_PCOD9466267
_publ_section_title
;
Structure prediction by ZEFSAII (Michael W. Deem and Ramdas Pophale) SiO2 
 PCOD9466267
Probable space group: P N M A
;
_chemical_formula_sum "Si O2"
_cell_formula_units_Z 44
_cell_length_a 9.075861
_cell_length_b 13.239021
_cell_length_c 15.152263
_cell_angle_alpha 90.000000
_cell_angle_beta 90.000000
_cell_angle_gamma 90.000000
_cell_volume 1820.627955
_symmetry_space_group_name_H-M "P N M A"
_symmetry_group_IT_number 62
_symmetry_cell_setting 'orthorhombic'
loop_
_space_group_symop_operation_xyz
x,y,z
1/2-x,-y,1/2+z
1/2+x,1/2-y,1/2-z
-x,1/2+y,-z
-x,-y,-z
1/2+x,y,1/2-z
1/2-x,1/2+y,1/2+z
x,1/2-y,z
loop_
_atom_site_type_symbol
_atom_site_label
_atom_site_fract_x
_atom_site_fract_y
_atom_site_fract_z
Si Si1 0.810310 0.904424 0.567607
Si Si2 0.857778 0.370453 0.624965
Si Si3 0.373487 0.250000 0.320298
Si Si4 0.063374 0.367099 0.769827
Si Si5 0.124370 0.250000 0.032729
Si Si6 0.944571 0.250000 0.387726
Si Si7 0.445136 0.089181 0.558922
O O1 0.719935 0.849749 0.648975
O O2 0.964972 0.846457 0.575556
O O3 0.710952 0.877537 0.481427
O O4 0.829003 0.025471 0.571153
O O5 0.859580 0.250000 0.596892
O O6 0.016007 0.390289 0.671100
O O7 0.731990 0.375943 0.701570
O O8 0.512446 0.250000 0.385386
O O9 0.425926 0.250000 0.219041
O O10 0.019025 0.250000 0.783291
O O11 0.963639 0.430288 0.838402
O O12 0.281529 0.250000 0.075249
O O13 0.078974 0.337519 0.966654
O O14 0.500000 0.000000 0.500000
#
# Coordination Sequence:
#
# PCOD9466267 Si02
#       7
#     8   8   4   8   4   4   8
#     4  10  22  39  63  97 134 164 218 263 325 391
#     4  10  22  40  64  97 126 172 213 273 316 380
#     4   9  21  39  63  91 127 173 205 254 322 390
#     4  10  21  40  66  87 125 166 219 260 319 381
#     4  10  22  40  62  92 125 163 215 260 323 389
#     4  11  23  39  61  95 132 166 208 272 333 383
#     4  11  21  40  67  91 122 174 212 259 323 394
#
# _framework density 24.167484999999999
#
# number of rings (size 3 to 8) (size 9 to 14) (size 15 to 20)
#    0.000    1.818    2.727    1.636    2.545    1.455 
#    0.000    2.727    0.000    0.000    0.000    0.000 
#    0.000    0.000    0.000    0.000    0.000    0.000 
#
# Total GULP energy -245395.843129 kJ/mol
# GULP energy per Si atom -5577.178253 kJ/mol
# Density = 2.411248 g / cm^3
# Si number density = 24.167485 Si / 1000 Ang^3
#
#
#
# Elastic Constant Matrix: (Units=GPa)
#
#
# Indices 1 2 3 4 5 6 
#
# 1 127.9595 35.6049 34.0191 0.0000 0.0000 0.0000
# 2 35.6049 144.0858 3.9677 0.0000 0.0000 0.0000
# 3 34.0191 3.9677 62.6754 0.0000 0.0000 0.0000
# 4 0.0000 0.0000 0.0000 15.9405 0.0000 0.0000
# 5 0.0000 0.0000 0.0000 0.0000 41.8673 0.0000
# 6 0.0000 0.0000 0.0000 0.0000 0.0000 0.5521
#
#
#
# Elastic Compliance Matrix: (Units=1/GPa)
#
#
# Indices 1 2 3 4 5 6 
#
# 1 0.009831 -0.002286 -0.005192 0.000000 0.000000 0.000000
# 2 -0.002286 0.007484 0.000767 0.000000 0.000000 0.000000
# 3 -0.005192 0.000767 0.018725 0.000000 0.000000 0.000000
# 4 0.000000 0.000000 0.000000 0.062733 0.000000 0.000000
# 5 0.000000 0.000000 0.000000 0.000000 0.023885 0.000000
# 6 0.000000 0.000000 0.000000 0.000000 0.000000 1.811188
#
#
# Mechanical properties :
#
#
# Convention : Reuss Voigt Hill
#
# Bulk Modulus (GPa) = 44.21140 53.54490 48.87815
# Shear Modulus (GPa) = 2.55780 29.08059 15.81919
#
# Velocity S-wave (km/s) = 1.02988 3.47262 2.56122
# Velocity P-wave (km/s) = 4.44384 6.18729 5.38657
#
# Compressibility (1/GPa) = 0.02261860
#
# Stress axis : x y z
#
# Youngs Moduli (GPa) = 101.71493 133.61507 53.40583
#
# Poissons Ratio (x) = 0.30551 0.27726
# Poissons Ratio (y) = 0.23257 -0.04098
# Poissons Ratio (z) = 0.52806 -0.10252
#
# Static dielectric constant tensor:
#      x y z
#    x 1.992950 0.000000 0.000000 
#    y 0.000000 1.928710 0.000000 
#    z 0.000000 0.000000 2.028630 
# 
# From -- ./inp_files/22144.got.cif
#   From: 2010.05.17/outbox.cif.g08.bks.cpg/sg62_12_cif.got.tgz:22144.got - 2010.06.03 15:25:27.
