data_PCOD9466311
_publ_section_title
;
Structure prediction by ZEFSAII (Michael W. Deem and Ramdas Pophale) SiO2 
 PCOD9466311
Probable space group: P N M A
;
_chemical_formula_sum "Si O2"
_cell_formula_units_Z 64
_cell_length_a 15.053741
_cell_length_b 7.694247
_cell_length_c 22.442172
_cell_angle_alpha 90.000000
_cell_angle_beta 90.000000
_cell_angle_gamma 90.000000
_cell_volume 2599.413979
_symmetry_space_group_name_H-M "P N M A"
_symmetry_group_IT_number 62
_symmetry_cell_setting 'orthorhombic'
loop_
_space_group_symop_operation_xyz
x,y,z
1/2-x,-y,1/2+z
1/2+x,1/2-y,1/2-z
-x,1/2+y,-z
-x,-y,-z
1/2+x,y,1/2-z
1/2-x,1/2+y,1/2+z
x,1/2-y,z
loop_
_atom_site_type_symbol
_atom_site_label
_atom_site_fract_x
_atom_site_fract_y
_atom_site_fract_z
Si Si1 0.193861 0.542625 0.506744
Si Si2 0.133259 0.448469 0.954833
Si Si3 0.946297 0.461885 0.919241
Si Si4 0.915526 0.039082 0.788004
Si Si5 0.291379 0.949312 0.818949
Si Si6 0.434820 0.539689 0.910726
Si Si7 0.869520 0.459863 0.371217
Si Si8 0.613257 0.452035 0.737085
O O1 0.208828 0.750000 0.509198
O O2 0.270586 0.466809 0.463864
O O3 0.099369 0.512297 0.475775
O O4 0.192416 0.476499 0.574534
O O5 0.144894 0.250000 0.934159
O O6 0.049907 0.519790 0.918262
O O7 0.097556 0.454226 0.023109
O O8 0.945693 0.250000 0.926491
O O9 0.901585 0.506436 0.857001
O O10 0.912049 0.250000 0.783554
O O11 0.014392 0.971160 0.770541
O O12 0.842394 0.967262 0.743700
O O13 0.285684 0.750000 0.835618
O O14 0.359040 0.032938 0.866070
O O15 0.190616 0.007322 0.809788
O O16 0.437699 0.750000 0.908428
O O17 0.530860 0.479992 0.888618
O O18 0.868082 0.250000 0.372723
O O19 0.851460 0.511949 0.303677
O O20 0.597631 0.250000 0.731187
#
# Coordination Sequence:
#
# PCOD9466311 Si02
#       8
#     8   8   8   8   8   8   8   8
#     4  10  22  36  60  88 114 151 196 245 296 352
#     4   9  19  36  55  83 115 150 191 234 289 348
#     4   9  19  36  57  79 114 151 186 237 289 343
#     4  10  22  40  62  90 119 154 200 248 302 356
#     4  11  24  41  62  88 122 162 200 247 301 360
#     4  10  22  40  60  84 118 155 196 245 296 354
#     4  10  21  41  61  85 121 156 196 245 298 359
#     4  11  24  40  63  92 122 159 202 252 302 359
#
# _framework density 24.620933000000001
#
# number of rings (size 3 to 8) (size 9 to 14) (size 15 to 20)
#    0.000    2.000    1.250    1.125    3.500    3.500 
#    0.000    0.000    0.000    0.000    0.000    0.000 
#    0.000    0.000    0.000    0.000    0.000    0.000 
#
# Total GULP energy -357758.958884 kJ/mol
# GULP energy per Si atom -5589.983733 kJ/mol
# Density = 2.456489 g / cm^3
# Si number density = 24.620933 Si / 1000 Ang^3
#
#
#
# Elastic Constant Matrix: (Units=GPa)
#
#
# Indices 1 2 3 4 5 6 
#
# 1 89.2172 1.3908 3.1641 0.0000 0.0000 0.0000
# 2 1.3908 48.4110 -4.3893 0.0000 0.0000 0.0000
# 3 3.1641 -4.3893 52.6850 0.0000 0.0000 0.0000
# 4 0.0000 0.0000 0.0000 19.8916 0.0000 0.0000
# 5 0.0000 0.0000 0.0000 0.0000 36.7594 0.0000
# 6 0.0000 0.0000 0.0000 0.0000 0.0000 17.5648
#
#
#
# Elastic Compliance Matrix: (Units=1/GPa)
#
#
# Indices 1 2 3 4 5 6 
#
# 1 0.011240 -0.000387 -0.000707 0.000000 0.000000 0.000000
# 2 -0.000387 0.020827 0.001758 0.000000 0.000000 0.000000
# 3 -0.000707 0.001758 0.019170 0.000000 0.000000 0.000000
# 4 0.000000 0.000000 0.000000 0.050273 0.000000 0.000000
# 5 0.000000 0.000000 0.000000 0.000000 0.027204 0.000000
# 6 0.000000 0.000000 0.000000 0.000000 0.000000 0.056932
#
#
# Mechanical properties :
#
#
# Convention : Reuss Voigt Hill
#
# Bulk Modulus (GPa) = 19.02420 21.18270 20.10345
# Shear Modulus (GPa) = 24.77231 27.51966 26.14599
#
# Velocity S-wave (km/s) = 3.17543 3.34688 3.26228
# Velocity P-wave (km/s) = 4.60305 4.85363 4.73000
#
# Compressibility (1/GPa) = 0.05256463
#
# Stress axis : x y z
#
# Youngs Moduli (GPa) = 88.97018 48.01457 52.16565
#
# Poissons Ratio (x) = 0.01858 0.03690
# Poissons Ratio (y) = 0.03443 -0.09173
# Poissons Ratio (z) = 0.06293 -0.08443
#
# Static dielectric constant tensor:
#      x y z
#    x 2.016000 0.000000 0.000000 
#    y 0.000000 1.925140 0.000000 
#    z 0.000000 0.000000 1.966190 
# 
# From -- ./inp_files/29943.got.cif
#   From: 2010.05.17/outbox.cif.g08.bks.cpg/sg62_15_cif.got.tgz:29943.got - 2010.06.03 15:25:27.
