data_PCOD9466250
_publ_section_title
;
Structure prediction by ZEFSAII (Michael W. Deem and Ramdas Pophale) SiO2 
 PCOD9466250
Probable space group: P N M A
;
_chemical_formula_sum "Si O2"
_cell_formula_units_Z 64
_cell_length_a 12.156435
_cell_length_b 13.544324
_cell_length_c 19.018385
_cell_angle_alpha 90.000000
_cell_angle_beta 90.000000
_cell_angle_gamma 90.000000
_cell_volume 3131.390295
_symmetry_space_group_name_H-M "P N M A"
_symmetry_group_IT_number 62
_symmetry_cell_setting 'orthorhombic'
loop_
_space_group_symop_operation_xyz
x,y,z
1/2-x,-y,1/2+z
1/2+x,1/2-y,1/2-z
-x,1/2+y,-z
-x,-y,-z
1/2+x,y,1/2-z
1/2-x,1/2+y,1/2+z
x,1/2-y,z
loop_
_atom_site_type_symbol
_atom_site_label
_atom_site_fract_x
_atom_site_fract_y
_atom_site_fract_z
Si Si1 0.250501 0.063763 0.338084
Si Si2 0.406568 0.868859 0.964776
Si Si3 0.505723 0.631357 0.622997
Si Si4 0.982432 0.368705 0.964240
Si Si5 0.711834 0.133379 0.598665
Si Si6 0.755146 0.868043 0.403378
Si Si7 0.210954 0.046797 0.179379
Si Si8 0.340406 0.368147 0.045936
O O1 0.162972 0.100483 0.396089
O O2 0.368592 0.108348 0.358778
O O3 0.233934 0.087390 0.256631
O O4 0.247566 0.944802 0.344973
O O5 0.405951 0.750000 0.965779
O O6 0.533021 0.902103 0.959285
O O7 0.346952 0.896737 0.038522
O O8 0.485199 0.750000 0.629162
O O9 0.490237 0.597313 0.542419
O O10 0.417473 0.569999 0.667026
O O11 0.979900 0.250000 0.970491
O O12 0.082829 0.388835 0.912666
O O13 0.861141 0.394617 0.939763
O O14 0.727235 0.250000 0.613110
O O15 0.772998 0.108575 0.525121
O O16 0.761220 0.750000 0.391120
O O17 0.750110 0.933611 0.333134
O O18 0.277247 0.098470 0.115749
O O19 0.343396 0.250000 0.048410
#
# Coordination Sequence:
#
# PCOD9466250 Si02
#       8
#     8   8   8   8   8   8   8   8
#     4  12  26  39  59  92 124 163 201 237 300 367
#     4  10  22  41  64  90 118 157 204 251 301 351
#     4  11  23  41  64  92 122 153 197 251 304 357
#     4   9  17  35  65  92 111 143 196 250 302 342
#     4  10  21  40  65  90 119 155 202 255 297 345
#     4  10  21  40  65  90 119 155 202 255 297 345
#     4  12  26  39  59  92 124 163 201 237 300 367
#     4  10  22  41  64  90 118 157 204 251 301 351
#
# _framework density 20.438206000000001
#
# number of rings (size 3 to 8) (size 9 to 14) (size 15 to 20)
#    0.000    1.500    2.500    2.250    1.750    5.500 
#    0.000    0.000    0.000    0.000    0.000    0.000 
#    0.000    0.000    0.000    0.000    0.000    0.000 
#
# Total GULP energy -357442.122502 kJ/mol
# GULP energy per Si atom -5585.033164 kJ/mol
# Density = 2.039169 g / cm^3
# Si number density = 20.438206 Si / 1000 Ang^3
#
#
#
# Elastic Constant Matrix: (Units=GPa)
#
#
# Indices 1 2 3 4 5 6 
#
# 1 105.4001 8.5482 0.7808 0.0000 0.0000 0.0000
# 2 8.5482 76.4061 3.2290 0.0000 0.0000 0.0000
# 3 0.7808 3.2290 47.5021 0.0000 0.0000 0.0000
# 4 0.0000 0.0000 0.0000 15.3916 0.0000 0.0000
# 5 0.0000 0.0000 0.0000 0.0000 10.5567 0.0000
# 6 0.0000 0.0000 0.0000 0.0000 0.0000 23.5696
#
#
#
# Elastic Compliance Matrix: (Units=1/GPa)
#
#
# Indices 1 2 3 4 5 6 
#
# 1 0.009575 -0.001068 -0.000085 0.000000 0.000000 0.000000
# 2 -0.001068 0.013245 -0.000883 0.000000 0.000000 0.000000
# 3 -0.000085 -0.000883 0.021113 0.000000 0.000000 0.000000
# 4 0.000000 0.000000 0.000000 0.064970 0.000000 0.000000
# 5 0.000000 0.000000 0.000000 0.000000 0.094727 0.000000
# 6 0.000000 0.000000 0.000000 0.000000 0.000000 0.042428
#
#
# Mechanical properties :
#
#
# Convention : Reuss Voigt Hill
#
# Bulk Modulus (GPa) = 25.08643 28.26940 26.67791
# Shear Modulus (GPa) = 18.98145 24.35360 21.66752
#
# Velocity S-wave (km/s) = 3.05080 3.45566 3.25952
# Velocity P-wave (km/s) = 4.97099 5.45745 5.21989
#
# Compressibility (1/GPa) = 0.03986220
#
# Stress axis : x y z
#
# Youngs Moduli (GPa) = 104.44007 75.50183 47.36399
#
# Poissons Ratio (x) = 0.08061 0.00402
# Poissons Ratio (y) = 0.11150 0.04181
# Poissons Ratio (z) = 0.00886 0.06665
#
# Static dielectric constant tensor:
#      x y z
#    x 1.704480 0.000000 0.000000 
#    y 0.000000 1.818490 0.000000 
#    z 0.000000 0.000000 1.679140 
# 
# From -- ./inp_files/23221.got.cif
#   From: 2010.05.17/outbox.cif.g08.bks.cpg/sg62_12_cif.got.tgz:23221.got - 2010.06.03 15:25:27.
