data_PCOD9466368
_publ_section_title
;
Structure prediction by ZEFSAII (Michael W. Deem and Ramdas Pophale) SiO2 
 PCOD9466368
Probable space group: P N M A
;
_chemical_formula_sum "Si O2"
_cell_formula_units_Z 40
_cell_length_a 8.980610
_cell_length_b 20.940505
_cell_length_c 8.483262
_cell_angle_alpha 90.000000
_cell_angle_beta 90.000000
_cell_angle_gamma 90.000000
_cell_volume 1595.349600
_symmetry_space_group_name_H-M "P N M A"
_symmetry_group_IT_number 62
_symmetry_cell_setting 'orthorhombic'
loop_
_space_group_symop_operation_xyz
x,y,z
1/2-x,-y,1/2+z
1/2+x,1/2-y,1/2-z
-x,1/2+y,-z
-x,-y,-z
1/2+x,y,1/2-z
1/2-x,1/2+y,1/2+z
x,1/2-y,z
loop_
_atom_site_type_symbol
_atom_site_label
_atom_site_fract_x
_atom_site_fract_y
_atom_site_fract_z
Si Si1 0.168770 0.088556 0.785307
Si Si2 0.603028 0.678487 0.233105
Si Si3 0.728168 0.677678 0.588745
Si Si4 0.275280 0.980553 0.586582
Si Si5 0.500947 0.902468 0.804097
O O1 0.263700 0.146250 0.863973
O O2 0.021716 0.124716 0.736813
O O3 0.247438 0.052908 0.639264
O O4 0.157728 0.032982 0.914941
O O5 0.557586 0.750000 0.185047
O O6 0.671720 0.682360 0.409037
O O7 0.736397 0.750000 0.651650
O O8 0.890461 0.645516 0.605185
O O9 0.606885 0.637600 0.686968
O O10 0.388165 0.947666 0.707912
O O11 0.113667 0.946568 0.597009
#
# Coordination Sequence:
#
# PCOD9466368 Si02
#       5
#     8   8   8   8   8
#     4  12  27  47  72 105 139 184 237 287 350 418
#     4  11  26  47  71  99 140 184 234 289 344 414
#     4  10  21  41  68  98 137 185 229 284 343 412
#     4  11  26  43  73 101 140 182 227 290 349 414
#     4  10  22  42  66 102 141 175 232 282 353 412
#
# _framework density 25.072875
#
# number of rings (size 3 to 8) (size 9 to 14) (size 15 to 20)
#    0.000    1.200    2.000    2.400    8.400    3.200 
#    0.000    2.000    0.000    0.000    0.000    0.000 
#    0.000    0.000    0.000    0.000    0.000    0.000 
#
# Total GULP energy -224112.612103 kJ/mol
# GULP energy per Si atom -5602.815303 kJ/mol
# Density = 2.501581 g / cm^3
# Si number density = 25.072875 Si / 1000 Ang^3
#
#
#
# Elastic Constant Matrix: (Units=GPa)
#
#
# Indices 1 2 3 4 5 6 
#
# 1 129.3296 47.1115 -1.6769 0.0000 0.0000 0.0000
# 2 47.1115 164.8707 15.7112 0.0000 0.0000 0.0000
# 3 -1.6769 15.7112 49.7086 0.0000 0.0000 0.0000
# 4 0.0000 0.0000 0.0000 34.7300 0.0000 0.0000
# 5 0.0000 0.0000 0.0000 0.0000 24.7427 0.0000
# 6 0.0000 0.0000 0.0000 0.0000 0.0000 45.7715
#
#
#
# Elastic Compliance Matrix: (Units=1/GPa)
#
#
# Indices 1 2 3 4 5 6 
#
# 1 0.008690 -0.002589 0.001111 0.000000 0.000000 0.000000
# 2 -0.002589 0.007025 -0.002308 0.000000 0.000000 0.000000
# 3 0.001111 -0.002308 0.020884 0.000000 0.000000 0.000000
# 4 0.000000 0.000000 0.000000 0.028794 0.000000 0.000000
# 5 0.000000 0.000000 0.000000 0.000000 0.040416 0.000000
# 6 0.000000 0.000000 0.000000 0.000000 0.000000 0.021848
#
#
# Mechanical properties :
#
#
# Convention : Reuss Voigt Hill
#
# Bulk Modulus (GPa) = 34.44906 51.80004 43.12455
# Shear Modulus (GPa) = 34.50593 39.89974 37.20283
#
# Velocity S-wave (km/s) = 3.71378 3.99350 3.85618
# Velocity P-wave (km/s) = 5.67088 6.47833 6.08801
#
# Compressibility (1/GPa) = 0.02902837
#
# Stress axis : x y z
#
# Youngs Moduli (GPa) = 115.07892 142.34748 47.88325
#
# Poissons Ratio (x) = 0.36853 -0.05322
# Poissons Ratio (y) = 0.29794 0.11050
# Poissons Ratio (z) = -0.12790 0.32850
#
# Static dielectric constant tensor:
#      x y z
#    x 1.954670 0.000000 0.000000 
#    y 0.000000 1.987520 0.000000 
#    z 0.000000 0.000000 2.018320 
# 
# From -- ./inp_files/4276.got.cif
#   From: 2010.05.17/outbox.cif.g08.bks.cpg/sg62_3_cif.got.tgz:4276.got - 2010.06.03 15:25:27.
