data_PCOD9466494
_publ_section_title
;
Structure prediction by ZEFSAII (Michael W. Deem and Ramdas Pophale) SiO2 
 PCOD9466494
Probable space group: P N M A
;
_chemical_formula_sum "Si O2"
_cell_formula_units_Z 56
_cell_length_a 16.124595
_cell_length_b 20.384290
_cell_length_c 9.291431
_cell_angle_alpha 90.000000
_cell_angle_beta 90.000000
_cell_angle_gamma 90.000000
_cell_volume 3053.985781
_symmetry_space_group_name_H-M "P N M A"
_symmetry_group_IT_number 62
_symmetry_cell_setting 'orthorhombic'
loop_
_space_group_symop_operation_xyz
x,y,z
1/2-x,-y,1/2+z
1/2+x,1/2-y,1/2-z
-x,1/2+y,-z
-x,-y,-z
1/2+x,y,1/2-z
1/2-x,1/2+y,1/2+z
x,1/2-y,z
loop_
_atom_site_type_symbol
_atom_site_label
_atom_site_fract_x
_atom_site_fract_y
_atom_site_fract_z
Si Si1 0.178716 0.008381 0.281787
Si Si2 0.552085 0.823623 0.546186
Si Si3 0.986540 0.823330 0.275610
Si Si4 0.696686 0.928196 0.514484
Si Si5 0.442082 0.063895 0.976719
Si Si6 0.835416 0.822203 0.452002
Si Si7 0.547229 0.126584 0.198028
O O1 0.182101 0.973519 0.126407
O O2 0.143633 0.962081 0.411431
O O3 0.265832 0.034822 0.345415
O O4 0.110152 0.066540 0.269971
O O5 0.587770 0.750000 0.567247
O O6 0.512168 0.826211 0.388566
O O7 0.618449 0.882500 0.551705
O O8 0.480112 0.835252 0.661870
O O9 0.011600 0.750000 0.330277
O O10 0.888688 0.828115 0.306603
O O11 0.026092 0.884573 0.357808
O O12 0.769081 0.878399 0.467104
O O13 0.461065 0.101737 0.124762
O O14 0.500000 0.000000 0.000000
O O15 0.797967 0.750000 0.460756
O O16 0.903193 0.831572 0.578950
#
# Coordination Sequence:
#
# PCOD9466494 Si02
#       7
#     8   8   8   8   8   8   8
#     4  10  22  38  53  82 116 154 190 229 288 344
#     4  11  22  37  59  89 116 143 189 246 292 332
#     4   9  18  34  58  84 110 145 191 238 286 341
#     4  11  23  37  56  83 118 151 186 236 289 339
#     4   9  17  36  57  80 109 144 191 233 275 338
#     4   9  18  37  60  79 107 152 192 226 283 350
#     4   9  20  35  59  84 110 147 191 235 282 342
#
# _framework density 18.336693
#
# number of rings (size 3 to 8) (size 9 to 14) (size 15 to 20)
#    0.000    2.286    1.429    1.714    2.000    2.286 
#    0.000    0.000    0.000    0.000    0.000    0.000 
#    0.000    0.000    0.000    0.000    0.000    0.000 
#
# Total GULP energy -311747.428360 kJ/mol
# GULP energy per Si atom -5566.918364 kJ/mol
# Density = 1.829496 g / cm^3
# Si number density = 18.336693 Si / 1000 Ang^3
#
#
#
# Elastic Constant Matrix: (Units=GPa)
#
#
# Indices 1 2 3 4 5 6 
#
# 1 44.7001 2.6713 25.2455 0.0000 0.0000 0.0000
# 2 2.6713 59.0442 33.8656 0.0000 0.0000 0.0000
# 3 25.2455 33.8656 74.8562 0.0000 0.0000 0.0000
# 4 0.0000 0.0000 0.0000 25.2121 0.0000 0.0000
# 5 0.0000 0.0000 0.0000 0.0000 21.7650 0.0000
# 6 0.0000 0.0000 0.0000 0.0000 0.0000 23.0447
#
#
#
# Elastic Compliance Matrix: (Units=1/GPa)
#
#
# Indices 1 2 3 4 5 6 
#
# 1 0.029040 0.005812 -0.012423 0.000000 0.000000 0.000000
# 2 0.005812 0.024034 -0.012833 0.000000 0.000000 0.000000
# 3 -0.012423 -0.012833 0.023355 0.000000 0.000000 0.000000
# 4 0.000000 0.000000 0.000000 0.039663 0.000000 0.000000
# 5 0.000000 0.000000 0.000000 0.000000 0.045945 0.000000
# 6 0.000000 0.000000 0.000000 0.000000 0.000000 0.043394
#
#
# Mechanical properties :
#
#
# Convention : Reuss Voigt Hill
#
# Bulk Modulus (GPa) = 26.63864 33.57392 30.10628
# Shear Modulus (GPa) = 19.46780 21.79225 20.63002
#
# Velocity S-wave (km/s) = 3.26189 3.45113 3.35784
# Velocity P-wave (km/s) = 5.36149 5.85063 5.61139
#
# Compressibility (1/GPa) = 0.03753945
#
# Stress axis : x y z
#
# Youngs Moduli (GPa) = 34.43491 41.60737 42.81820
#
# Poissons Ratio (x) = -0.24180 0.53194
# Poissons Ratio (y) = -0.20012 0.54950
# Poissons Ratio (z) = 0.42779 0.53396
#
# Static dielectric constant tensor:
#      x y z
#    x 1.640120 0.000000 0.000000 
#    y 0.000000 1.649240 0.000000 
#    z 0.000000 0.000000 1.621660 
# 
# From -- ./inp_files/6760.got.cif
#   From: 2010.05.17/outbox.cif.g08.bks.cpg/sg62_4_cif.got.tgz:6760.got - 2010.06.03 15:25:27.
