data_PCOD9466090
_publ_section_title
;
Structure prediction by ZEFSAII (Michael W. Deem and Ramdas Pophale) SiO2 
 PCOD9466090
Probable space group: P N M A
;
_chemical_formula_sum "Si O2"
_cell_formula_units_Z 28
_cell_length_a 4.626231
_cell_length_b 13.023084
_cell_length_c 16.724021
_cell_angle_alpha 90.000000
_cell_angle_beta 90.000000
_cell_angle_gamma 90.000000
_cell_volume 1007.585387
_symmetry_space_group_name_H-M "P N M A"
_symmetry_group_IT_number 62
_symmetry_cell_setting 'orthorhombic'
loop_
_space_group_symop_operation_xyz
x,y,z
1/2-x,-y,1/2+z
1/2+x,1/2-y,1/2-z
-x,1/2+y,-z
-x,-y,-z
1/2+x,y,1/2-z
1/2-x,1/2+y,1/2+z
x,1/2-y,z
loop_
_atom_site_type_symbol
_atom_site_label
_atom_site_fract_x
_atom_site_fract_y
_atom_site_fract_z
Si Si1 0.000256 0.750000 0.694285
Si Si2 0.325531 0.428197 0.392710
Si Si3 0.321820 0.859944 0.453611
Si Si4 0.162154 0.912050 0.195994
O O1 0.831098 0.750000 0.779524
O O2 0.895322 0.848733 0.644851
O O3 0.510308 0.378978 0.463808
O O4 0.174362 0.531316 0.429730
O O5 0.545398 0.474040 0.326145
O O6 0.166312 0.750000 0.457981
O O7 0.557483 0.854737 0.382419
O O8 0.982805 0.888730 0.276727
#
# Coordination Sequence:
#
# PCOD9466090 Si02
#       4
#     4   8   8   8
#     4  12  24  42  70 100 128 164 212 266 320 370
#     4   9  20  39  65  92 129 166 212 260 319 380
#     4   9  19  40  64  89 130 170 213 255 320 380
#     4  10  21  39  62  90 122 159 206 257 306 364
#
# _framework density 27.789211000000002
#
# number of rings (size 3 to 8) (size 9 to 14) (size 15 to 20)
#    1.714    0.571    1.429    1.714    0.000    1.143 
#    0.000    8.571    0.000    0.000    0.000    0.000 
#    0.000    0.000    0.000    0.000    0.000    0.000 
#
# Total GULP energy -156699.006299 kJ/mol
# GULP energy per Si atom -5596.393082 kJ/mol
# Density = 2.772596 g / cm^3
# Si number density = 27.789211 Si / 1000 Ang^3
#
#
#
# Elastic Constant Matrix: (Units=GPa)
#
#
# Indices 1 2 3 4 5 6 
#
# 1 74.2059 16.1188 14.0490 0.0000 0.0000 0.0000
# 2 16.1188 204.6620 8.1246 0.0000 0.0000 0.0000
# 3 14.0490 8.1246 127.0673 0.0000 0.0000 0.0000
# 4 0.0000 0.0000 0.0000 15.0373 0.0000 0.0000
# 5 0.0000 0.0000 0.0000 0.0000 38.0013 0.0000
# 6 0.0000 0.0000 0.0000 0.0000 0.0000 12.2450
#
#
#
# Elastic Compliance Matrix: (Units=1/GPa)
#
#
# Indices 1 2 3 4 5 6 
#
# 1 0.013983 -0.001043 -0.001479 0.000000 0.000000 0.000000
# 2 -0.001043 0.004976 -0.000203 0.000000 0.000000 0.000000
# 3 -0.001479 -0.000203 0.008046 0.000000 0.000000 0.000000
# 4 0.000000 0.000000 0.000000 0.066501 0.000000 0.000000
# 5 0.000000 0.000000 0.000000 0.000000 0.026315 0.000000
# 6 0.000000 0.000000 0.000000 0.000000 0.000000 0.081666
#
#
# Mechanical properties :
#
#
# Convention : Reuss Voigt Hill
#
# Bulk Modulus (GPa) = 46.39140 53.61334 50.00237
# Shear Modulus (GPa) = 23.35118 37.56624 30.45871
#
# Velocity S-wave (km/s) = 2.90193 3.68071 3.31428
# Velocity P-wave (km/s) = 5.28758 6.11541 5.71650
#
# Compressibility (1/GPa) = 0.02155572
#
# Stress axis : x y z
#
# Youngs Moduli (GPa) = 71.51776 200.95386 124.27958
#
# Poissons Ratio (x) = 0.20950 0.18385
# Poissons Ratio (y) = 0.07456 0.02522
# Poissons Ratio (z) = 0.10580 0.04078
#
# Static dielectric constant tensor:
#      x y z
#    x 2.086660 0.000000 0.000000 
#    y 0.000000 2.247640 0.000000 
#    z 0.000000 0.000000 2.082500 
# 
# From -- ./inp_files/21387.got.cif
#   From: 2010.05.17/outbox.cif.g08.bks.cpg/sg62_11_cif.got.tgz:21387.got - 2010.06.03 15:25:27.
