data_PCOD9466393
_publ_section_title
;
Structure prediction by ZEFSAII (Michael W. Deem and Ramdas Pophale) SiO2 
 PCOD9466393
Probable space group: P N M A
;
_chemical_formula_sum "Si O2"
_cell_formula_units_Z 32
_cell_length_a 9.686030
_cell_length_b 15.099926
_cell_length_c 8.092463
_cell_angle_alpha 90.000000
_cell_angle_beta 90.000000
_cell_angle_gamma 90.000000
_cell_volume 1183.590174
_symmetry_space_group_name_H-M "P N M A"
_symmetry_group_IT_number 62
_symmetry_cell_setting 'orthorhombic'
loop_
_space_group_symop_operation_xyz
x,y,z
1/2-x,-y,1/2+z
1/2+x,1/2-y,1/2-z
-x,1/2+y,-z
-x,-y,-z
1/2+x,y,1/2-z
1/2-x,1/2+y,1/2+z
x,1/2-y,z
loop_
_atom_site_type_symbol
_atom_site_label
_atom_site_fract_x
_atom_site_fract_y
_atom_site_fract_z
Si Si1 0.122797 0.359589 0.059397
Si Si2 0.969768 0.900521 0.452130
Si Si3 0.865770 0.350610 0.230805
Si Si4 0.713554 0.644196 0.266442
O O1 0.121044 0.250000 0.062221
O O2 0.968357 0.390811 0.095937
O O3 0.224464 0.392405 0.205618
O O4 0.198108 0.386328 0.893186
O O5 0.038250 0.846256 0.602821
O O6 0.807960 0.886882 0.418355
O O7 0.058179 0.879072 0.286539
O O8 0.000000 0.000000 0.500000
O O9 0.834518 0.250000 0.179552
O O10 0.716576 0.750000 0.274800
#
# Coordination Sequence:
#
# PCOD9466393 Si02
#       4
#     8   8   8   8
#     4   8  16  30  53  80 108 145 199 253 299 360
#     4  11  24  39  60  93 129 166 214 278 335 385
#     4   9  17  33  54  81 115 156 204 257 312 376
#     4  10  21  42  66  90 124 175 226 266 321 407
#
# _framework density 27.036386
#
# number of rings (size 3 to 8) (size 9 to 14) (size 15 to 20)
#    0.000    2.500    0.000    3.750    0.000    6.000 
#    0.000    7.500    0.000    0.000    0.000    0.000 
#    0.000    0.000    0.000    0.000    0.000    0.000 
#
# Total GULP energy -179083.005462 kJ/mol
# GULP energy per Si atom -5596.343921 kJ/mol
# Density = 2.697485 g / cm^3
# Si number density = 27.036386 Si / 1000 Ang^3
#
#
#
# Elastic Constant Matrix: (Units=GPa)
#
#
# Indices 1 2 3 4 5 6 
#
# 1 154.3603 -15.7863 6.1168 0.0000 0.0000 0.0000
# 2 -15.7863 72.8247 -5.3448 0.0000 0.0000 0.0000
# 3 6.1168 -5.3448 86.0561 0.0000 0.0000 0.0000
# 4 0.0000 0.0000 0.0000 17.3985 0.0000 0.0000
# 5 0.0000 0.0000 0.0000 0.0000 65.5179 0.0000
# 6 0.0000 0.0000 0.0000 0.0000 0.0000 19.9217
#
#
#
# Elastic Compliance Matrix: (Units=1/GPa)
#
#
# Indices 1 2 3 4 5 6 
#
# 1 0.006638 0.001411 -0.000384 0.000000 0.000000 0.000000
# 2 0.001411 0.014094 0.000775 0.000000 0.000000 0.000000
# 3 -0.000384 0.000775 0.011696 0.000000 0.000000 0.000000
# 4 0.000000 0.000000 0.000000 0.057476 0.000000 0.000000
# 5 0.000000 0.000000 0.000000 0.000000 0.015263 0.000000
# 6 0.000000 0.000000 0.000000 0.000000 0.000000 0.050197
#
#
# Mechanical properties :
#
#
# Convention : Reuss Voigt Hill
#
# Bulk Modulus (GPa) = 27.75380 31.46807 29.61093
# Shear Modulus (GPa) = 30.53044 42.45130 36.49087
#
# Velocity S-wave (km/s) = 3.36406 3.96682 3.67781
# Velocity P-wave (km/s) = 5.03754 5.71360 5.38619
#
# Compressibility (1/GPa) = 0.03603110
#
# Stress axis : x y z
#
# Youngs Moduli (GPa) = 150.65134 70.95073 85.50097
#
# Poissons Ratio (x) = -0.10009 0.03285
# Poissons Ratio (y) = -0.21252 -0.06627
# Poissons Ratio (z) = 0.05788 -0.05499
#
# Static dielectric constant tensor:
#      x y z
#    x 2.082000 0.000000 0.000000 
#    y 0.000000 2.017010 0.000000 
#    z 0.000000 0.000000 2.210870 
# 
# From -- ./inp_files/22864.got.cif
#   From: 2010.05.17/outbox.cif.g08.bks.cpg/sg62_12_cif.got.tgz:22864.got - 2010.06.03 15:25:27.
