data_PCOD9466797
_publ_section_title
;
Structure prediction by ZEFSAII (Michael W. Deem and Ramdas Pophale) SiO2 
 PCOD9466797
Probable space group: P N M A
;
_chemical_formula_sum "Si O2"
_cell_formula_units_Z 64
_cell_length_a 12.098376
_cell_length_b 8.523212
_cell_length_c 31.183607
_cell_angle_alpha 90.000000
_cell_angle_beta 90.000000
_cell_angle_gamma 90.000000
_cell_volume 3215.560736
_symmetry_space_group_name_H-M "P N M A"
_symmetry_group_IT_number 62
_symmetry_cell_setting 'orthorhombic'
loop_
_space_group_symop_operation_xyz
x,y,z
1/2-x,-y,1/2+z
1/2+x,1/2-y,1/2-z
-x,1/2+y,-z
-x,-y,-z
1/2+x,y,1/2-z
1/2-x,1/2+y,1/2+z
x,1/2-y,z
loop_
_atom_site_type_symbol
_atom_site_label
_atom_site_fract_x
_atom_site_fract_y
_atom_site_fract_z
Si Si1 0.806045 0.934618 0.707574
Si Si2 0.906741 0.058833 0.881654
Si Si3 0.798394 0.436305 0.549477
Si Si4 0.983468 0.566588 0.339339
Si Si5 0.263962 0.435926 0.537587
Si Si6 0.467624 0.067959 0.067536
Si Si7 0.258334 0.062980 0.699128
Si Si8 0.159420 0.060046 0.866831
O O1 0.823871 0.750000 0.702833
O O2 0.783180 0.977674 0.756629
O O3 0.706015 0.988192 0.676830
O O4 0.913765 0.025134 0.690495
O O5 0.903173 0.250000 0.882335
O O6 0.847669 0.006748 0.925506
O O7 0.835836 0.009813 0.840215
O O8 0.033937 0.012083 0.876851
O O9 0.813581 0.250000 0.550936
O O10 0.726168 0.482010 0.508324
O O11 0.738808 0.485245 0.593574
O O12 0.918517 0.514694 0.545668
O O13 0.989697 0.750000 0.352287
O O14 0.985809 0.463207 0.382045
O O15 0.868177 0.541200 0.315170
O O16 0.278197 0.250000 0.532242
O O17 0.139868 0.470806 0.553976
O O18 0.446540 0.250000 0.058471
O O19 0.276162 0.250000 0.705308
O O20 0.162379 0.250000 0.863318
#
# Coordination Sequence:
#
# PCOD9466797 Si02
#       8
#     8   8   8   8   8   8   8   8
#     4  12  26  41  61  94 132 163 202 255 312 363
#     4   9  20  41  66  91 117 159 211 256 302 364
#     4  11  23  39  61  91 125 164 208 253 308 370
#     4  11  22  41  68  94 122 164 209 253 307 368
#     4  11  22  40  64  91 124 161 206 257 311 370
#     4  12  23  38  62  93 128 161 201 257 316 367
#     4  10  22  42  67  92 121 162 211 253 300 366
#     4  10  22  42  66  88 120 165 213 255 299 366
#
# _framework density 19.903213999999998
#
# number of rings (size 3 to 8) (size 9 to 14) (size 15 to 20)
#    0.000    1.250    2.500    3.750    1.750    2.000 
#    0.000    1.250    0.000    0.000    0.000    0.000 
#    0.000    0.000    0.000    0.000    0.000    0.000 
#
# Total GULP energy -357949.476040 kJ/mol
# GULP energy per Si atom -5592.960563 kJ/mol
# Density = 1.985791 g / cm^3
# Si number density = 19.903214 Si / 1000 Ang^3
#
#
#
# Elastic Constant Matrix: (Units=GPa)
#
#
# Indices 1 2 3 4 5 6 
#
# 1 56.4022 1.4488 -18.4271 0.0000 0.0000 0.0000
# 2 1.4488 17.3931 -1.3329 0.0000 0.0000 0.0000
# 3 -18.4271 -1.3329 60.6656 0.0000 0.0000 0.0000
# 4 0.0000 0.0000 0.0000 33.0086 0.0000 0.0000
# 5 0.0000 0.0000 0.0000 0.0000 3.7457 0.0000
# 6 0.0000 0.0000 0.0000 0.0000 0.0000 9.6492
#
#
#
# Elastic Compliance Matrix: (Units=1/GPa)
#
#
# Indices 1 2 3 4 5 6 
#
# 1 0.019707 -0.001185 0.005960 0.000000 0.000000 0.000000
# 2 -0.001185 0.057662 0.000907 0.000000 0.000000 0.000000
# 3 0.005960 0.000907 0.018314 0.000000 0.000000 0.000000
# 4 0.000000 0.000000 0.000000 0.030295 0.000000 0.000000
# 5 0.000000 0.000000 0.000000 0.000000 0.266974 0.000000
# 6 0.000000 0.000000 0.000000 0.000000 0.000000 0.103635
#
#
# Mechanical properties :
#
#
# Convention : Reuss Voigt Hill
#
# Bulk Modulus (GPa) = 9.34157 10.87095 10.10626
# Shear Modulus (GPa) = 9.59864 19.46549 14.53206
#
# Velocity S-wave (km/s) = 2.19844 3.13070 2.70504
# Velocity P-wave (km/s) = 3.33884 4.30606 3.85292
#
# Compressibility (1/GPa) = 0.10704835
#
# Stress axis : x y z
#
# Youngs Moduli (GPa) = 50.74219 17.34232 54.60277
#
# Poissons Ratio (x) = 0.02055 -0.32544
# Poissons Ratio (y) = 0.06012 -0.04952
# Poissons Ratio (z) = -0.30243 -0.01573
#
# Static dielectric constant tensor:
#      x y z
#    x 1.675480 0.000000 0.000000 
#    y 0.000000 1.675870 0.000000 
#    z 0.000000 0.000000 1.687750 
# 
# From -- ./inp_files/32540.got.cif
#   From: 2010.05.17/outbox.cif.g08.bks.cpg/sg62_17_cif.got.tgz:32540.got - 2010.06.03 15:25:27.
