data_PCOD9466467
_publ_section_title
;
Structure prediction by ZEFSAII (Michael W. Deem and Ramdas Pophale) SiO2 
 PCOD9466467
Probable space group: P N M A
;
_chemical_formula_sum "Si O2"
_cell_formula_units_Z 52
_cell_length_a 14.825365
_cell_length_b 8.039585
_cell_length_c 17.330894
_cell_angle_alpha 90.000000
_cell_angle_beta 90.000000
_cell_angle_gamma 90.000000
_cell_volume 2065.665479
_symmetry_space_group_name_H-M "P N M A"
_symmetry_group_IT_number 62
_symmetry_cell_setting 'orthorhombic'
loop_
_space_group_symop_operation_xyz
x,y,z
1/2-x,-y,1/2+z
1/2+x,1/2-y,1/2-z
-x,1/2+y,-z
-x,-y,-z
1/2+x,y,1/2-z
1/2-x,1/2+y,1/2+z
x,1/2-y,z
loop_
_atom_site_type_symbol
_atom_site_label
_atom_site_fract_x
_atom_site_fract_y
_atom_site_fract_z
Si Si1 0.767745 0.437618 0.992404
Si Si2 0.139143 0.565397 0.755027
Si Si3 0.420275 0.250000 0.898226
Si Si4 0.348501 0.557696 0.799420
Si Si5 0.073076 0.430994 0.904858
Si Si6 0.399843 0.937052 0.088171
Si Si7 0.107396 0.062973 0.130911
O O1 0.759376 0.250000 0.022236
O O2 0.668453 0.511569 0.975407
O O3 0.820849 0.447048 0.911281
O O4 0.835713 0.528470 0.049869
O O5 0.108781 0.750000 0.779153
O O6 0.246255 0.558850 0.767583
O O7 0.097816 0.437715 0.814873
O O8 0.110606 0.534773 0.667588
O O9 0.363119 0.402074 0.855604
O O10 0.496653 0.393591 0.926901
O O11 0.367783 0.750000 0.826834
O O12 0.405670 0.526796 0.721165
O O13 0.040182 0.250000 0.926663
O O14 0.987524 0.549980 0.912875
O O15 0.360392 0.750000 0.102334
O O16 0.143597 0.250000 0.124852
#
# Coordination Sequence:
#
# PCOD9466467 Si02
#       7
#     8   8   4   8   8   8   8
#     4  11  22  40  62  85 126 168 207 252 313 382
#     4  11  22  39  61  91 126 165 208 265 319 377
#     4  10  22  36  64  94 120 164 208 266 320 366
#     4  10  23  38  62  96 131 166 210 264 324 382
#     4  12  26  39  59  91 124 167 213 259 313 382
#     4   9  21  38  59  91 119 161 208 252 317 376
#     4  11  22  38  58  89 130 170 205 251 310 382
#
# _framework density 25.173484999999999
#
# number of rings (size 3 to 8) (size 9 to 14) (size 15 to 20)
#    0.462    0.923    1.538    4.154    6.462    2.462 
#    0.000    0.000    0.000    0.923    0.000    0.000 
#    0.000    0.000    0.000    0.000    0.000    0.000 
#
# Total GULP energy -289664.344914 kJ/mol
# GULP energy per Si atom -5570.468171 kJ/mol
# Density = 2.511619 g / cm^3
# Si number density = 25.173485 Si / 1000 Ang^3
#
#
#
# Elastic Constant Matrix: (Units=GPa)
#
#
# Indices 1 2 3 4 5 6 
#
# 1 102.9913 11.7181 17.8078 0.0000 0.0000 0.0000
# 2 11.7181 92.3915 29.8104 0.0000 0.0000 0.0000
# 3 17.8078 29.8104 88.6271 0.0000 0.0000 0.0000
# 4 0.0000 0.0000 0.0000 7.9020 0.0000 0.0000
# 5 0.0000 0.0000 0.0000 0.0000 39.8727 0.0000
# 6 0.0000 0.0000 0.0000 0.0000 0.0000 42.2361
#
#
#
# Elastic Compliance Matrix: (Units=1/GPa)
#
#
# Indices 1 2 3 4 5 6 
#
# 1 0.010100 -0.000702 -0.001793 0.000000 0.000000 0.000000
# 2 -0.000702 0.012190 -0.003959 0.000000 0.000000 0.000000
# 3 -0.001793 -0.003959 0.012975 0.000000 0.000000 0.000000
# 4 0.000000 0.000000 0.000000 0.126550 0.000000 0.000000
# 5 0.000000 0.000000 0.000000 0.000000 0.025080 0.000000
# 6 0.000000 0.000000 0.000000 0.000000 0.000000 0.023676
#
#
# Mechanical properties :
#
#
# Convention : Reuss Voigt Hill
#
# Bulk Modulus (GPa) = 44.73139 44.74251 44.73695
# Shear Modulus (GPa) = 21.65145 32.98041 27.31593
#
# Velocity S-wave (km/s) = 2.93591 3.62349 3.29767
# Velocity P-wave (km/s) = 5.41300 5.94294 5.68415
#
# Compressibility (1/GPa) = 0.02235567
#
# Stress axis : x y z
#
# Youngs Moduli (GPa) = 99.01476 82.03451 77.07031
#
# Poissons Ratio (x) = 0.05762 0.13819
# Poissons Ratio (y) = 0.06955 0.30513
# Poissons Ratio (z) = 0.17754 0.32478
#
# Static dielectric constant tensor:
#      x y z
#    x 2.034810 0.000000 0.000000 
#    y 0.000000 2.149860 0.000000 
#    z 0.000000 0.000000 2.043730 
# 
# From -- ./inp_files/24302.got.cif
#   From: 2010.05.17/outbox.cif.g08.bks.cpg/sg62_13_cif.got.tgz:24302.got - 2010.06.03 15:25:27.
