data_PCOD9466302
_publ_section_title
;
Structure prediction by ZEFSAII (Michael W. Deem and Ramdas Pophale) SiO2 
 PCOD9466302
Probable space group: P N M A
;
_chemical_formula_sum "Si O2"
_cell_formula_units_Z 32
_cell_length_a 9.443072
_cell_length_b 23.559035
_cell_length_c 5.020408
_cell_angle_alpha 90.000000
_cell_angle_beta 90.000000
_cell_angle_gamma 90.000000
_cell_volume 1116.888480
_symmetry_space_group_name_H-M "P N M A"
_symmetry_group_IT_number 62
_symmetry_cell_setting 'orthorhombic'
loop_
_space_group_symop_operation_xyz
x,y,z
1/2-x,-y,1/2+z
1/2+x,1/2-y,1/2-z
-x,1/2+y,-z
-x,-y,-z
1/2+x,y,1/2-z
1/2-x,1/2+y,1/2+z
x,1/2-y,z
loop_
_atom_site_type_symbol
_atom_site_label
_atom_site_fract_x
_atom_site_fract_y
_atom_site_fract_z
Si Si1 0.656915 0.750000 0.557468
Si Si2 0.743031 0.537996 0.456402
Si Si3 0.584127 0.250000 0.812580
Si Si4 0.055034 0.872497 0.737862
Si Si5 0.307664 0.630463 0.409526
O O1 0.827642 0.750000 0.587221
O O2 0.580203 0.750000 0.263285
O O3 0.602236 0.691205 0.676713
O O4 0.802443 0.503037 0.710262
O O5 0.622241 0.577100 0.586470
O O6 0.845898 0.581036 0.297259
O O7 0.647039 0.191380 0.698585
O O8 0.140099 0.876031 0.461567
O O9 0.890727 0.875592 0.812588
#
# Coordination Sequence:
#
# PCOD9466302 Si02
#       5
#     4   8   4   8   8
#     4  10  21  40  70 107 143 186 238 303 372 442
#     4  12  26  49  72 111 144 198 252 308 360 430
#     4  10  21  40  70 107 143 186 238 303 372 442
#     4  11  25  46  74 107 147 190 243 306 371 441
#     4  11  25  46  74 107 147 190 243 306 371 441
#
# _framework density 28.651026000000002
#
# number of rings (size 3 to 8) (size 9 to 14) (size 15 to 20)
#    0.000    1.000    5.000    0.750    0.000    6.000 
#    0.000    0.000    0.000    0.000    0.000    0.000 
#    0.000    0.000    0.000    0.000    0.000    0.000 
#
# Total GULP energy -178985.176409 kJ/mol
# GULP energy per Si atom -5593.286763 kJ/mol
# Density = 2.858581 g / cm^3
# Si number density = 28.651026 Si / 1000 Ang^3
#
#
#
# Elastic Constant Matrix: (Units=GPa)
#
#
# Indices 1 2 3 4 5 6 
#
# 1 105.0102 30.3770 -4.0229 0.0000 0.0000 0.0000
# 2 30.3770 221.1495 63.6899 0.0000 0.0000 0.0000
# 3 -4.0229 63.6899 115.8852 0.0000 0.0000 0.0000
# 4 0.0000 0.0000 0.0000 63.8066 0.0000 0.0000
# 5 0.0000 0.0000 0.0000 0.0000 32.3439 0.0000
# 6 0.0000 0.0000 0.0000 0.0000 0.0000 12.9198
#
#
#
# Elastic Compliance Matrix: (Units=1/GPa)
#
#
# Indices 1 2 3 4 5 6 
#
# 1 0.010084 -0.001765 0.001320 0.000000 0.000000 0.000000
# 2 -0.001765 0.005681 -0.003184 0.000000 0.000000 0.000000
# 3 0.001320 -0.003184 0.010425 0.000000 0.000000 0.000000
# 4 0.000000 0.000000 0.000000 0.015672 0.000000 0.000000
# 5 0.000000 0.000000 0.000000 0.000000 0.030918 0.000000
# 6 0.000000 0.000000 0.000000 0.000000 0.000000 0.077400
#
#
# Mechanical properties :
#
#
# Convention : Reuss Voigt Hill
#
# Bulk Modulus (GPa) = 52.81871 69.12588 60.97230
# Shear Modulus (GPa) = 30.53453 45.28078 37.90765
#
# Velocity S-wave (km/s) = 3.26811 3.97977 3.64137
# Velocity P-wave (km/s) = 5.71978 6.73033 6.24553
#
# Compressibility (1/GPa) = 0.01893268
#
# Stress axis : x y z
#
# Youngs Moduli (GPa) = 99.16551 176.01930 95.92529
#
# Poissons Ratio (x) = 0.31074 -0.12665
# Poissons Ratio (y) = 0.17507 0.30539
# Poissons Ratio (z) = -0.13093 0.56038
#
# Static dielectric constant tensor:
#      x y z
#    x 2.222280 0.000000 0.000000 
#    y 0.000000 2.201630 0.000000 
#    z 0.000000 0.000000 2.311280 
# 
# From -- ./inp_files/499.got.cif
#   From: 2010.05.17/outbox.cif.g08.bks.cpg/sg62_1_cif.got.tgz:499.got - 2010.06.03 15:25:27.
