data_PCOD9466752
_publ_section_title
;
Structure prediction by ZEFSAII (Michael W. Deem and Ramdas Pophale) SiO2 
 PCOD9466752
Probable space group: P N M A
;
_chemical_formula_sum "Si O2"
_cell_formula_units_Z 48
_cell_length_a 8.930833
_cell_length_b 12.069047
_cell_length_c 20.132048
_cell_angle_alpha 90.000000
_cell_angle_beta 90.000000
_cell_angle_gamma 90.000000
_cell_volume 2169.965875
_symmetry_space_group_name_H-M "P N M A"
_symmetry_group_IT_number 62
_symmetry_cell_setting 'orthorhombic'
loop_
_space_group_symop_operation_xyz
x,y,z
1/2-x,-y,1/2+z
1/2+x,1/2-y,1/2-z
-x,1/2+y,-z
-x,-y,-z
1/2+x,y,1/2-z
1/2-x,1/2+y,1/2+z
x,1/2-y,z
loop_
_atom_site_type_symbol
_atom_site_label
_atom_site_fract_x
_atom_site_fract_y
_atom_site_fract_z
Si Si1 0.244163 0.480497 0.507152
Si Si2 0.507140 0.379164 0.656897
Si Si3 0.668611 0.880614 0.219205
Si Si4 0.002797 0.414283 0.071958
Si Si5 0.427294 0.250000 0.167012
Si Si6 0.497733 0.490644 0.107116
Si Si7 0.429121 0.750000 0.686625
O O1 0.343087 0.586476 0.530981
O O2 0.360170 0.393463 0.474426
O O3 0.147031 0.454037 0.572449
O O4 0.127154 0.502008 0.448391
O O5 0.499682 0.250000 0.639596
O O6 0.369772 0.409199 0.705179
O O7 0.660454 0.398116 0.698128
O O8 0.511255 0.458414 0.594653
O O9 0.635487 0.750000 0.211637
O O10 0.559701 0.948871 0.171748
O O11 0.011319 0.350355 0.140922
O O12 0.466674 0.362218 0.126412
O O13 0.250573 0.250000 0.183598
O O14 0.513436 0.250000 0.238083
#
# Coordination Sequence:
#
# PCOD9466752 Si02
#       7
#     8   8   8   8   4   8   4
#     4  10  24  44  66  92 132 178 222 272 320 408
#     4  10  22  41  66  96 130 167 216 276 329 391
#     4  10  22  41  66  96 130 167 216 276 329 391
#     4  11  23  47  66 101 134 177 231 269 348 402
#     4  12  28  46  74 102 142 184 229 304 353 410
#     4  11  23  47  66 101 134 177 231 269 348 402
#     4  12  28  46  74 102 142 184 229 304 353 410
#
# _framework density 22.120163000000002
#
# number of rings (size 3 to 8) (size 9 to 14) (size 15 to 20)
#    0.000    1.333    3.333    1.000    4.667    2.667 
#   18.000    0.000    0.000    0.000    0.000    0.000 
#    0.000    0.000    0.000    0.000    0.000    0.000 
#
# Total GULP energy -268042.094171 kJ/mol
# GULP energy per Si atom -5584.210295 kJ/mol
# Density = 2.206982 g / cm^3
# Si number density = 22.120163 Si / 1000 Ang^3
#
#
#
# Elastic Constant Matrix: (Units=GPa)
#
#
# Indices 1 2 3 4 5 6 
#
# 1 93.2298 20.9338 32.8864 0.0000 0.0000 0.0000
# 2 20.9338 46.7001 46.1886 0.0000 0.0000 0.0000
# 3 32.8864 46.1886 107.5256 0.0000 0.0000 0.0000
# 4 0.0000 0.0000 0.0000 -813.5887 0.0000 0.0000
# 5 0.0000 0.0000 0.0000 0.0000 51.1923 0.0000
# 6 0.0000 0.0000 0.0000 0.0000 0.0000 11.0740
#
#
#
# Elastic Compliance Matrix: (Units=1/GPa)
#
#
# Indices 1 2 3 4 5 6 
#
# 1 0.012278 -0.003112 -0.002419 0.000000 0.000000 0.000000
# 2 -0.003112 0.038020 -0.015380 0.000000 0.000000 0.000000
# 3 -0.002419 -0.015380 0.016646 0.000000 0.000000 0.000000
# 4 0.000000 0.000000 0.000000 -0.001229 0.000000 0.000000
# 5 0.000000 0.000000 0.000000 0.000000 0.019534 0.000000
# 6 0.000000 0.000000 0.000000 0.000000 0.000000 0.090302
#
#
# Mechanical properties :
#
#
# Convention : Reuss Voigt Hill
#
# Bulk Modulus (GPa) = 39.80317 49.71924 44.76120
# Shear Modulus (GPa) = 22.14880 -140.43471 -59.14296
#
# Velocity S-wave (km/s) = 3.16776 -7.97653 -5.17640
# Velocity P-wave (km/s) = 5.60470 7.89352 3.93033
#
# Compressibility (1/GPa) = 0.02512363
#
# Stress axis : x y z
#
# Youngs Moduli (GPa) = 81.44643 26.30218 60.07288
#
# Poissons Ratio (x) = 0.08184 0.14529
# Poissons Ratio (y) = 0.25344 0.92392
# Poissons Ratio (z) = 0.19698 0.40453
#
# Static dielectric constant tensor:
#      x y z
#    x 1.865720 0.000000 0.000000 
#    y 0.000000 1.822600 0.000000 
#    z 0.000000 0.000000 1.771920 
# 
# From -- ./inp_files/25883.got.cif
#   From: 2010.05.17/outbox.cif.g08.bks.cpg/sg62_13_cif.got.tgz:25883.got - 2010.06.03 15:25:27.
