data_PCOD9466541
_publ_section_title
;
Structure prediction by ZEFSAII (Michael W. Deem and Ramdas Pophale) SiO2 
 PCOD9466541
Probable space group: P N M A
;
_chemical_formula_sum "Si O2"
_cell_formula_units_Z 48
_cell_length_a 21.246807
_cell_length_b 7.740151
_cell_length_c 12.068633
_cell_angle_alpha 90.000000
_cell_angle_beta 90.000000
_cell_angle_gamma 90.000000
_cell_volume 1984.728870
_symmetry_space_group_name_H-M "P N M A"
_symmetry_group_IT_number 62
_symmetry_cell_setting 'orthorhombic'
loop_
_space_group_symop_operation_xyz
x,y,z
1/2-x,-y,1/2+z
1/2+x,1/2-y,1/2-z
-x,1/2+y,-z
-x,-y,-z
1/2+x,y,1/2-z
1/2-x,1/2+y,1/2+z
x,1/2-y,z
loop_
_atom_site_type_symbol
_atom_site_label
_atom_site_fract_x
_atom_site_fract_y
_atom_site_fract_z
Si Si1 0.727854 0.962523 0.016152
Si Si2 0.947056 0.949719 0.143324
Si Si3 0.482569 0.553501 0.849548
Si Si4 0.865321 0.549020 0.957771
Si Si5 0.381608 0.040128 0.149799
Si Si6 0.853803 0.446184 0.711824
O O1 0.727364 0.750000 0.015469
O O2 0.700230 0.019811 0.133805
O O3 0.797994 0.024480 0.994269
O O4 0.677814 0.015234 0.921613
O O5 0.967276 0.750000 0.138338
O O6 0.997914 0.047998 0.217889
O O7 0.886076 0.965654 0.225889
O O8 0.924652 0.023631 0.025938
O O9 0.471016 0.750000 0.881371
O O10 0.549107 0.489177 0.899665
O O11 0.418662 0.449068 0.857690
O O12 0.865997 0.750000 0.991008
O O13 0.865608 0.539750 0.826361
O O14 0.382118 0.250000 0.155864
O O15 0.838011 0.250000 0.740056
#
# Coordination Sequence:
#
# PCOD9466541 Si02
#       6
#     8   8   8   8   8   8
#     4   9  20  39  59  82 115 152 185 230 284 333
#     4   9  18  34  58  85 111 145 187 231 279 329
#     4   9  19  36  59  85 114 149 188 229 281 341
#     4  10  22  39  59  81 116 154 185 229 283 337
#     4   8  17  35  59  82 109 148 187 225 278 335
#     4  11  23  37  58  87 115 145 189 237 281 332
#
# _framework density 24.184663
#
# number of rings (size 3 to 8) (size 9 to 14) (size 15 to 20)
#    1.000    1.667    0.000    1.000    2.333    2.667 
#    0.000    3.333    0.000    0.000    0.000    0.000 
#    0.000    0.000    0.000    0.000    0.000    0.000 
#
# Total GULP energy -267818.286369 kJ/mol
# GULP energy per Si atom -5579.547633 kJ/mol
# Density = 2.412962 g / cm^3
# Si number density = 24.184663 Si / 1000 Ang^3
#
#
#
# Elastic Constant Matrix: (Units=GPa)
#
#
# Indices 1 2 3 4 5 6 
#
# 1 98.9281 2.8608 18.9391 0.0000 0.0000 0.0000
# 2 2.8608 60.3175 1.5509 0.0000 0.0000 0.0000
# 3 18.9391 1.5509 88.4221 0.0000 0.0000 0.0000
# 4 0.0000 0.0000 0.0000 10.4902 0.0000 0.0000
# 5 0.0000 0.0000 0.0000 0.0000 32.7144 0.0000
# 6 0.0000 0.0000 0.0000 0.0000 0.0000 20.9641
#
#
#
# Elastic Compliance Matrix: (Units=1/GPa)
#
#
# Indices 1 2 3 4 5 6 
#
# 1 0.010552 -0.000443 -0.002252 0.000000 0.000000 0.000000
# 2 -0.000443 0.016605 -0.000196 0.000000 0.000000 0.000000
# 3 -0.002252 -0.000196 0.011795 0.000000 0.000000 0.000000
# 4 0.000000 0.000000 0.000000 0.095328 0.000000 0.000000
# 5 0.000000 0.000000 0.000000 0.000000 0.030568 0.000000
# 6 0.000000 0.000000 0.000000 0.000000 0.000000 0.047701
#
#
# Mechanical properties :
#
#
# Convention : Reuss Voigt Hill
#
# Bulk Modulus (GPa) = 30.14800 32.70769 31.42784
# Shear Modulus (GPa) = 21.79716 27.78821 24.79268
#
# Velocity S-wave (km/s) = 3.00539 3.39337 3.20526
# Velocity P-wave (km/s) = 4.95338 5.37650 5.16927
#
# Compressibility (1/GPa) = 0.03316969
#
# Stress axis : x y z
#
# Youngs Moduli (GPa) = 94.76551 60.22295 84.77966
#
# Poissons Ratio (x) = 0.02665 0.19096
# Poissons Ratio (y) = 0.04194 0.01666
# Poissons Ratio (z) = 0.21345 0.01183
#
# Static dielectric constant tensor:
#      x y z
#    x 1.952450 0.000000 0.000000 
#    y 0.000000 1.838760 0.000000 
#    z 0.000000 0.000000 2.001770 
# 
# From -- ./inp_files/20043.got.cif
#   From: 2010.05.17/outbox.cif.g08.bks.cpg/sg62_11_cif.got.tgz:20043.got - 2010.06.03 15:25:27.
