data_PCOD9466523
_publ_section_title
;
Structure prediction by ZEFSAII (Michael W. Deem and Ramdas Pophale) SiO2 
 PCOD9466523
Probable space group: P N M A
;
_chemical_formula_sum "Si O2"
_cell_formula_units_Z 28
_cell_length_a 10.295224
_cell_length_b 12.048006
_cell_length_c 7.848664
_cell_angle_alpha 90.000000
_cell_angle_beta 90.000000
_cell_angle_gamma 90.000000
_cell_volume 973.524113
_symmetry_space_group_name_H-M "P N M A"
_symmetry_group_IT_number 62
_symmetry_cell_setting 'orthorhombic'
loop_
_space_group_symop_operation_xyz
x,y,z
1/2-x,-y,1/2+z
1/2+x,1/2-y,1/2-z
-x,1/2+y,-z
-x,-y,-z
1/2+x,y,1/2-z
1/2-x,1/2+y,1/2+z
x,1/2-y,z
loop_
_atom_site_type_symbol
_atom_site_label
_atom_site_fract_x
_atom_site_fract_y
_atom_site_fract_z
Si Si1 0.016710 0.872093 0.698279
Si Si2 0.293225 0.950658 0.029692
Si Si3 0.358964 0.250000 0.706955
Si Si4 0.409475 0.633125 0.426499
O O1 0.061911 0.750000 0.641507
O O2 0.997247 0.867165 0.900940
O O3 0.112789 0.964459 0.628641
O O4 0.875439 0.895943 0.621364
O O5 0.183911 0.031145 0.954043
O O6 0.238970 0.850895 0.144271
O O7 0.480887 0.154467 0.717070
O O8 0.329127 0.750000 0.433484
#
# Coordination Sequence:
#
# PCOD9466523 Si02
#       4
#     8   8   4   8
#     4  10  22  39  66  91 119 163 206 255 301 355
#     4  11  21  38  63  93 126 151 206 260 304 355
#     4  10  22  38  62  90 120 156 204 252 298 366
#     4   9  22  38  66  90 115 162 210 247 295 360
#
# _framework density 28.761488
#
# number of rings (size 3 to 8) (size 9 to 14) (size 15 to 20)
#    0.857    1.143    1.429    1.714    4.000    0.000 
#    0.000    1.429    0.000    0.000    0.000    0.000 
#    0.000    0.000    0.000    0.000    0.000    0.000 
#
# Total GULP energy -156079.067186 kJ/mol
# GULP energy per Si atom -5574.252400 kJ/mol
# Density = 2.869603 g / cm^3
# Si number density = 28.761488 Si / 1000 Ang^3
#
#
#
# Elastic Constant Matrix: (Units=GPa)
#
#
# Indices 1 2 3 4 5 6 
#
# 1 82.5475 86.1103 -15.6938 0.0000 0.0000 0.0000
# 2 86.1103 270.6649 45.4847 0.0000 0.0000 0.0000
# 3 -15.6938 45.4847 57.5672 0.0000 0.0000 0.0000
# 4 0.0000 0.0000 0.0000 34.6147 0.0000 0.0000
# 5 0.0000 0.0000 0.0000 0.0000 -44.7014 0.0000
# 6 0.0000 0.0000 0.0000 0.0000 0.0000 76.9918
#
#
#
# Elastic Compliance Matrix: (Units=1/GPa)
#
#
# Indices 1 2 3 4 5 6 
#
# 1 0.027081 -0.011365 0.016363 0.000000 0.000000 0.000000
# 2 -0.011365 0.009030 -0.010233 0.000000 0.000000 0.000000
# 3 0.016363 -0.010233 0.029917 0.000000 0.000000 0.000000
# 4 0.000000 0.000000 0.000000 0.028889 0.000000 0.000000
# 5 0.000000 0.000000 0.000000 0.000000 -0.022371 0.000000
# 6 0.000000 0.000000 0.000000 0.000000 0.000000 0.012988
#
#
# Mechanical properties :
#
#
# Convention : Reuss Voigt Hill
#
# Bulk Modulus (GPa) = 17.99971 71.39802 44.69887
# Shear Modulus (GPa) = 43.65820 33.03957 38.34889
#
# Velocity S-wave (km/s) = 3.90030 3.39299 3.65546
# Velocity P-wave (km/s) = 5.15315 6.34255 5.77853
#
# Compressibility (1/GPa) = 0.05555644
#
# Stress axis : x y z
#
# Youngs Moduli (GPa) = 36.92631 110.74083 33.42563
#
# Poissons Ratio (x) = 1.25861 -0.54693
# Poissons Ratio (y) = 0.41968 0.34205
# Poissons Ratio (z) = -0.60421 1.13323
#
# Static dielectric constant tensor:
#      x y z
#    x 2.385070 0.000000 0.000000 
#    y 0.000000 2.223030 0.000000 
#    z 0.000000 0.000000 2.467160 
# 
# From -- ./inp_files/11695.got.cif
#   From: 2010.05.17/outbox.cif.g08.bks.cpg/sg62_6_cif.got.tgz:11695.got - 2010.06.03 15:25:27.
