data_PCOD9466284
_publ_section_title
;
Structure prediction by ZEFSAII (Michael W. Deem and Ramdas Pophale) SiO2 
 PCOD9466284
Probable space group: P N M A
;
_chemical_formula_sum "Si O2"
_cell_formula_units_Z 64
_cell_length_a 8.423423
_cell_length_b 32.563031
_cell_length_c 11.235474
_cell_angle_alpha 90.000000
_cell_angle_beta 90.000000
_cell_angle_gamma 90.000000
_cell_volume 3081.802705
_symmetry_space_group_name_H-M "P N M A"
_symmetry_group_IT_number 62
_symmetry_cell_setting 'orthorhombic'
loop_
_space_group_symop_operation_xyz
x,y,z
1/2-x,-y,1/2+z
1/2+x,1/2-y,1/2-z
-x,1/2+y,-z
-x,-y,-z
1/2+x,y,1/2-z
1/2-x,1/2+y,1/2+z
x,1/2-y,z
loop_
_atom_site_type_symbol
_atom_site_label
_atom_site_fract_x
_atom_site_fract_y
_atom_site_fract_z
Si Si1 0.022679 0.701383 0.653296
Si Si2 0.966945 0.051137 0.321883
Si Si3 0.547844 0.915799 0.201984
Si Si4 0.042356 0.629671 0.043730
Si Si5 0.756159 0.529009 0.345269
Si Si6 0.653005 0.797883 0.588052
Si Si7 0.316807 0.374633 0.031475
Si Si8 0.678630 0.942170 0.581816
O O1 0.063967 0.750000 0.637776
O O2 0.055330 0.691102 0.791986
O O3 0.123811 0.669927 0.573795
O O4 0.838160 0.696016 0.620187
O O5 0.885372 0.091607 0.376792
O O6 0.955295 0.052205 0.179832
O O7 0.147147 0.048764 0.366434
O O8 0.857072 0.012161 0.351283
O O9 0.535771 0.889553 0.323938
O O10 0.382142 0.933562 0.155982
O O11 0.648362 0.957178 0.234188
O O12 0.620239 0.888574 0.097931
O O13 0.097336 0.676026 0.025021
O O14 0.167273 0.604041 0.965146
O O15 0.871846 0.624288 0.982433
O O16 0.653196 0.531115 0.464311
O O17 0.627727 0.750000 0.565828
#
# Coordination Sequence:
#
# PCOD9466284 Si02
#       8
#     8   8   8   8   8   8   8   8
#     4  10  22  40  67  99 137 174 210 264 326 387
#     4  12  24  39  65  90 127 165 218 276 326 386
#     4  11  24  43  64  89 124 176 215 272 324 390
#     4  11  24  41  64  92 127 170 218 264 324 392
#     4  11  24  43  64  87 126 168 221 267 336 381
#     4  10  21  40  66  98 133 169 209 262 324 385
#     4  12  24  40  65  94 128 169 218 266 326 387
#     4  11  24  40  60  91 123 164 211 268 323 384
#
# _framework density 20.767064999999999
#
# number of rings (size 3 to 8) (size 9 to 14) (size 15 to 20)
#    0.000    1.000    2.500    4.125    3.500    1.500 
#    0.000    3.750    0.000    0.000    0.000    0.000 
#    0.000    0.000    0.000    0.000    0.000    0.000 
#
# Total GULP energy -357726.015061 kJ/mol
# GULP energy per Si atom -5589.468985 kJ/mol
# Density = 2.071980 g / cm^3
# Si number density = 20.767065 Si / 1000 Ang^3
#
#
#
# Elastic Constant Matrix: (Units=GPa)
#
#
# Indices 1 2 3 4 5 6 
#
# 1 61.8647 30.5257 13.3515 0.0000 0.0000 0.0000
# 2 30.5257 97.0243 47.8873 0.0000 0.0000 0.0000
# 3 13.3515 47.8873 89.4368 0.0000 0.0000 0.0000
# 4 0.0000 0.0000 0.0000 18.8230 0.0000 0.0000
# 5 0.0000 0.0000 0.0000 0.0000 35.4525 0.0000
# 6 0.0000 0.0000 0.0000 0.0000 0.0000 30.4542
#
#
#
# Elastic Compliance Matrix: (Units=1/GPa)
#
#
# Indices 1 2 3 4 5 6 
#
# 1 0.019151 -0.006272 0.000499 0.000000 0.000000 0.000000
# 2 -0.006272 0.016063 -0.007664 0.000000 0.000000 0.000000
# 3 0.000499 -0.007664 0.015210 0.000000 0.000000 0.000000
# 4 0.000000 0.000000 0.000000 0.053127 0.000000 0.000000
# 5 0.000000 0.000000 0.000000 0.000000 0.028207 0.000000
# 6 0.000000 0.000000 0.000000 0.000000 0.000000 0.032836
#
#
# Mechanical properties :
#
#
# Convention : Reuss Voigt Hill
#
# Bulk Modulus (GPa) = 42.46190 47.98384 45.22287
# Shear Modulus (GPa) = 25.08563 27.38334 26.23449
#
# Velocity S-wave (km/s) = 3.47933 3.63519 3.55811
# Velocity P-wave (km/s) = 6.05245 6.38556 6.22123
#
# Compressibility (1/GPa) = 0.02355053
#
# Stress axis : x y z
#
# Youngs Moduli (GPa) = 52.21605 62.25641 65.74528
#
# Poissons Ratio (x) = 0.39045 -0.03281
# Poissons Ratio (y) = 0.32748 0.50388
# Poissons Ratio (z) = -0.02606 0.47714
#
# Static dielectric constant tensor:
#      x y z
#    x 1.762040 0.000000 0.000000 
#    y 0.000000 1.769990 0.000000 
#    z 0.000000 0.000000 1.755060 
# 
# From -- ./inp_files/11571.got.cif
#   From: 2010.05.17/outbox.cif.g08.bks.cpg/sg62_6_cif.got.tgz:11571.got - 2010.06.03 15:25:27.
