data_PCOD9466077
_publ_section_title
;
Structure prediction by ZEFSAII (Michael W. Deem and Ramdas Pophale) SiO2 
 PCOD9466077
Probable space group: P N M A
;
_chemical_formula_sum "Si O2"
_cell_formula_units_Z 64
_cell_length_a 15.042463
_cell_length_b 7.807275
_cell_length_c 23.408436
_cell_angle_alpha 90.000000
_cell_angle_beta 90.000000
_cell_angle_gamma 90.000000
_cell_volume 2749.101830
_symmetry_space_group_name_H-M "P N M A"
_symmetry_group_IT_number 62
_symmetry_cell_setting 'orthorhombic'
loop_
_space_group_symop_operation_xyz
x,y,z
1/2-x,-y,1/2+z
1/2+x,1/2-y,1/2-z
-x,1/2+y,-z
-x,-y,-z
1/2+x,y,1/2-z
1/2-x,1/2+y,1/2+z
x,1/2-y,z
loop_
_atom_site_type_symbol
_atom_site_label
_atom_site_fract_x
_atom_site_fract_y
_atom_site_fract_z
Si Si1 0.386664 0.446797 0.742364
Si Si2 0.075762 0.543729 0.591120
Si Si3 0.920490 0.051206 0.210270
Si Si4 0.370598 0.042578 0.529381
Si Si5 0.314666 0.545808 0.989341
Si Si6 0.039245 0.546486 0.911937
Si Si7 0.294543 0.042678 0.189589
Si Si8 0.879418 0.542152 0.630250
O O1 0.410647 0.250000 0.734967
O O2 0.478245 0.547705 0.732958
O O3 0.306717 0.491556 0.699831
O O4 0.354162 0.478235 0.807255
O O5 0.074575 0.750000 0.591847
O O6 0.098888 0.488127 0.527205
O O7 0.154254 0.481571 0.633122
O O8 0.980645 0.488518 0.615567
O O9 0.893776 0.250000 0.204022
O O10 0.923674 0.973314 0.146976
O O11 0.853555 0.977812 0.256864
O O12 0.372239 0.250000 0.531479
O O13 0.270046 0.979408 0.524515
O O14 0.414850 0.981746 0.469624
O O15 0.434048 0.981413 0.579937
O O16 0.303799 0.750000 0.984795
O O17 0.322310 0.482904 0.924362
O O18 0.054663 0.750000 0.911136
O O19 0.297963 0.250000 0.188673
O O20 0.876304 0.750000 0.632278
#
# Coordination Sequence:
#
# PCOD9466077 Si02
#       8
#     8   8   8   8   8   8   8   8
#     4  12  26  40  60  92 127 159 195 252 310 360
#     4  10  21  39  62  87 116 152 199 246 293 353
#     4  10  21  41  67  90 115 156 207 250 294 360
#     4   9  19  36  54  83 118 150 187 234 291 345
#     4  10  22  36  60  89 117 152 193 244 299 352
#     4   9  19  35  59  84 110 149 194 236 284 341
#     4  10  22  41  65  89 118 161 205 248 295 360
#     4  10  21  42  65  85 114 157 203 244 293 358
#
# _framework density 23.280331
#
# number of rings (size 3 to 8) (size 9 to 14) (size 15 to 20)
#    0.000    2.000    1.250    1.500    3.500    3.000 
#    0.000    0.000    0.000    0.000    0.000    0.000 
#    0.000    0.000    0.000    0.000    0.000    0.000 
#
# Total GULP energy -357690.162999 kJ/mol
# GULP energy per Si atom -5588.908797 kJ/mol
# Density = 2.322734 g / cm^3
# Si number density = 23.280331 Si / 1000 Ang^3
#
#
#
# Elastic Constant Matrix: (Units=GPa)
#
#
# Indices 1 2 3 4 5 6 
#
# 1 64.3427 -11.8107 -9.7026 0.0000 0.0000 0.0000
# 2 -11.8107 28.9759 -7.5672 0.0000 0.0000 0.0000
# 3 -9.7026 -7.5672 66.9699 0.0000 0.0000 0.0000
# 4 0.0000 0.0000 0.0000 37.1732 0.0000 0.0000
# 5 0.0000 0.0000 0.0000 0.0000 153.7771 0.0000
# 6 0.0000 0.0000 0.0000 0.0000 0.0000 7.4488
#
#
#
# Elastic Compliance Matrix: (Units=1/GPa)
#
#
# Indices 1 2 3 4 5 6 
#
# 1 0.017540 0.008051 0.003451 0.000000 0.000000 0.000000
# 2 0.008051 0.039256 0.005602 0.000000 0.000000 0.000000
# 3 0.003451 0.005602 0.016065 0.000000 0.000000 0.000000
# 4 0.000000 0.000000 0.000000 0.026901 0.000000 0.000000
# 5 0.000000 0.000000 0.000000 0.000000 0.006503 0.000000
# 6 0.000000 0.000000 0.000000 0.000000 0.000000 0.134249
#
#
# Mechanical properties :
#
#
# Convention : Reuss Voigt Hill
#
# Bulk Modulus (GPa) = 9.33988 11.34749 10.34368
# Shear Modulus (GPa) = 20.66143 52.30441 36.48292
#
# Velocity S-wave (km/s) = 2.98234 4.74510 3.96297
# Velocity P-wave (km/s) = 3.98494 5.90814 5.03914
#
# Compressibility (1/GPa) = 0.10706780
#
# Stress axis : x y z
#
# Youngs Moduli (GPa) = 57.01277 25.47387 62.24700
#
# Poissons Ratio (x) = -0.20508 -0.21481
# Poissons Ratio (y) = -0.45899 -0.34871
# Poissons Ratio (z) = -0.19674 -0.14271
#
# Static dielectric constant tensor:
#      x y z
#    x 1.890340 0.000000 0.000000 
#    y 0.000000 1.858480 0.000000 
#    z 0.000000 0.000000 1.881780 
# 
# From -- ./inp_files/29907.got.cif
#   From: 2010.05.17/outbox.cif.g08.bks.cpg/sg62_15_cif.got.tgz:29907.got - 2010.06.03 15:25:27.
