data_PCOD9466538
_publ_section_title
;
Structure prediction by ZEFSAII (Michael W. Deem and Ramdas Pophale) SiO2 
 PCOD9466538
Probable space group: P N M A
;
_chemical_formula_sum "Si O2"
_cell_formula_units_Z 64
_cell_length_a 26.438038
_cell_length_b 9.117496
_cell_length_c 13.203326
_cell_angle_alpha 90.000000
_cell_angle_beta 90.000000
_cell_angle_gamma 90.000000
_cell_volume 3182.644643
_symmetry_space_group_name_H-M "P N M A"
_symmetry_group_IT_number 62
_symmetry_cell_setting 'orthorhombic'
loop_
_space_group_symop_operation_xyz
x,y,z
1/2-x,-y,1/2+z
1/2+x,1/2-y,1/2-z
-x,1/2+y,-z
-x,-y,-z
1/2+x,y,1/2-z
1/2-x,1/2+y,1/2+z
x,1/2-y,z
loop_
_atom_site_type_symbol
_atom_site_label
_atom_site_fract_x
_atom_site_fract_y
_atom_site_fract_z
Si Si1 0.136158 0.574797 0.641861
Si Si2 0.161814 0.076048 0.279731
Si Si3 0.031848 0.081709 0.584999
Si Si4 0.827196 0.425125 0.939858
Si Si5 0.994623 0.924724 0.106742
Si Si6 0.787026 0.925002 0.513086
Si Si7 0.564795 0.584601 0.224344
Si Si8 0.890324 0.426153 0.136601
O O1 0.134609 0.750000 0.628785
O O2 0.082316 0.505660 0.610847
O O3 0.178087 0.506668 0.568614
O O4 0.142819 0.544340 0.762316
O O5 0.165391 0.250000 0.266551
O O6 0.199119 0.031194 0.371322
O O7 0.168784 0.000131 0.170271
O O8 0.105675 0.027963 0.315947
O O9 0.044402 0.250000 0.558454
O O10 0.990105 0.085442 0.673305
O O11 0.000000 0.000000 0.500000
O O12 0.834370 0.250000 0.926114
O O13 0.771103 0.449933 0.984463
O O14 0.865072 0.472929 0.030375
O O15 0.988191 0.750000 0.102116
O O16 0.048100 0.951597 0.162238
O O17 0.944082 0.996222 0.152445
O O18 0.000000 0.000000 0.000000
O O19 0.796965 0.750000 0.506276
O O20 0.585510 0.750000 0.215764
O O21 0.897745 0.250000 0.132005
#
# Coordination Sequence:
#
# PCOD9466538 Si02
#       8
#     8   8   8   8   8   8   8   8
#     4  11  23  39  64  96 129 165 210 261 312 372
#     4  11  24  41  64  94 126 159 207 263 309 369
#     4  11  22  38  60  89 126 166 209 253 302 364
#     4  10  23  44  67  90 122 165 206 254 319 378
#     4  11  22  37  58  87 123 164 205 251 301 360
#     4  10  24  44  66  91 124 165 206 257 320 375
#     4  10  22  39  58  83 122 165 201 240 297 362
#     4  10  22  40  63  92 126 165 207 255 311 373
#
# _framework density 20.109062000000002
#
# number of rings (size 3 to 8) (size 9 to 14) (size 15 to 20)
#    0.000    1.500    1.250    3.000    1.750    9.500 
#    0.000    0.000    0.000    0.000    0.000    0.000 
#    0.000    0.000    0.000    0.000    0.000    0.000 
#
# Total GULP energy -357328.056011 kJ/mol
# GULP energy per Si atom -5583.250875 kJ/mol
# Density = 2.006329 g / cm^3
# Si number density = 20.109062 Si / 1000 Ang^3
#
#
#
# Elastic Constant Matrix: (Units=GPa)
#
#
# Indices 1 2 3 4 5 6 
#
# 1 72.2223 30.6061 31.7404 0.0000 0.0000 0.0000
# 2 30.6061 42.4831 38.3234 0.0000 0.0000 0.0000
# 3 31.7404 38.3234 98.9073 0.0000 0.0000 0.0000
# 4 0.0000 0.0000 0.0000 28.5912 0.0000 0.0000
# 5 0.0000 0.0000 0.0000 0.0000 32.2454 0.0000
# 6 0.0000 0.0000 0.0000 0.0000 0.0000 29.7381
#
#
#
# Elastic Compliance Matrix: (Units=1/GPa)
#
#
# Indices 1 2 3 4 5 6 
#
# 1 0.020037 -0.013275 -0.001287 0.000000 0.000000 0.000000
# 2 -0.013275 0.044982 -0.013169 0.000000 0.000000 0.000000
# 3 -0.001287 -0.013169 0.015626 0.000000 0.000000 0.000000
# 4 0.000000 0.000000 0.000000 0.034976 0.000000 0.000000
# 5 0.000000 0.000000 0.000000 0.000000 0.031012 0.000000
# 6 0.000000 0.000000 0.000000 0.000000 0.000000 0.033627
#
#
# Mechanical properties :
#
#
# Convention : Reuss Voigt Hill
#
# Bulk Modulus (GPa) = 39.70738 46.10582 42.90660
# Shear Modulus (GPa) = 20.48214 25.64446 23.06330
#
# Velocity S-wave (km/s) = 3.19494 3.57496 3.39028
# Velocity P-wave (km/s) = 5.77919 6.32599 6.05876
#
# Compressibility (1/GPa) = 0.02518423
#
# Stress axis : x y z
#
# Youngs Moduli (GPa) = 49.90747 22.23118 63.99619
#
# Poissons Ratio (x) = 0.29511 0.08234
# Poissons Ratio (y) = 0.66251 0.84277
# Poissons Ratio (z) = 0.06421 0.29276
#
# Static dielectric constant tensor:
#      x y z
#    x 1.722450 0.000000 0.000000 
#    y 0.000000 1.622040 0.000000 
#    z 0.000000 0.000000 1.849370 
# 
# From -- ./inp_files/15847.got.cif
#   From: 2010.05.17/outbox.cif.g08.bks.cpg/sg62_8_cif.got.tgz:15847.got - 2010.06.03 15:25:27.
