data_PCOD9466715
_publ_section_title
;
Structure prediction by ZEFSAII (Michael W. Deem and Ramdas Pophale) SiO2 
 PCOD9466715
Probable space group: P N M A
;
_chemical_formula_sum "Si O2"
_cell_formula_units_Z 56
_cell_length_a 15.081255
_cell_length_b 8.533002
_cell_length_c 22.276355
_cell_angle_alpha 90.000000
_cell_angle_beta 90.000000
_cell_angle_gamma 90.000000
_cell_volume 2866.708017
_symmetry_space_group_name_H-M "P N M A"
_symmetry_group_IT_number 62
_symmetry_cell_setting 'orthorhombic'
loop_
_space_group_symop_operation_xyz
x,y,z
1/2-x,-y,1/2+z
1/2+x,1/2-y,1/2-z
-x,1/2+y,-z
-x,-y,-z
1/2+x,y,1/2-z
1/2-x,1/2+y,1/2+z
x,1/2-y,z
loop_
_atom_site_type_symbol
_atom_site_label
_atom_site_fract_x
_atom_site_fract_y
_atom_site_fract_z
Si Si1 0.941439 0.562400 0.175599
Si Si2 0.609754 0.438144 0.251960
Si Si3 0.696491 0.061811 0.777340
Si Si4 0.722829 0.439802 0.012073
Si Si5 0.912810 0.940455 0.613835
Si Si6 0.578875 0.562416 0.541307
Si Si7 0.887417 0.438181 0.399890
O O1 0.941284 0.750000 0.171140
O O2 0.859784 0.514044 0.218585
O O3 0.933270 0.491342 0.109708
O O4 0.031251 0.508147 0.208136
O O5 0.603448 0.250000 0.253546
O O6 0.705492 0.491621 0.274772
O O7 0.599471 0.491123 0.182629
O O8 0.701281 0.250000 0.778962
O O9 0.645834 0.001787 0.836124
O O10 0.721935 0.250000 0.011133
O O11 0.664808 0.493120 0.069407
O O12 0.824497 0.491788 0.018200
O O13 0.675041 0.499989 0.952535
O O14 0.910911 0.750000 0.614146
O O15 0.010230 0.988502 0.591236
O O16 0.500000 0.500000 0.500000
O O17 0.577893 0.750000 0.539280
O O18 0.884935 0.250000 0.398736
#
# Coordination Sequence:
#
# PCOD9466715 Si02
#       7
#     8   8   8   8   8   8   8
#     4  11  24  43  66  94 129 166 209 262 319 380
#     4  11  22  39  66  94 125 165 210 260 313 377
#     4  11  24  41  62  92 130 168 209 261 317 378
#     4  10  22  41  63  89 123 165 208 259 317 371
#     4   9  19  38  63  93 125 159 205 255 310 375
#     4  11  25  44  67  91 125 169 216 268 318 375
#     4  11  22  38  62  93 126 162 208 258 310 376
#
# _framework density 19.534604000000002
#
# number of rings (size 3 to 8) (size 9 to 14) (size 15 to 20)
#    0.000    1.429    1.429    3.429    2.000    4.000 
#    0.000    2.143    0.000    0.000    0.000    0.000 
#    0.000    0.000    0.000    0.000    0.000    0.000 
#
# Total GULP energy -313166.220413 kJ/mol
# GULP energy per Si atom -5592.253936 kJ/mol
# Density = 1.949014 g / cm^3
# Si number density = 19.534604 Si / 1000 Ang^3
#
#
#
# Elastic Constant Matrix: (Units=GPa)
#
#
# Indices 1 2 3 4 5 6 
#
# 1 118.6189 14.6186 22.0815 0.0000 0.0000 0.0000
# 2 14.6186 29.2084 6.4578 0.0000 0.0000 0.0000
# 3 22.0815 6.4578 71.5319 0.0000 0.0000 0.0000
# 4 0.0000 0.0000 0.0000 21.5012 0.0000 0.0000
# 5 0.0000 0.0000 0.0000 0.0000 20.9805 0.0000
# 6 0.0000 0.0000 0.0000 0.0000 0.0000 19.1582
#
#
#
# Elastic Compliance Matrix: (Units=1/GPa)
#
#
# Indices 1 2 3 4 5 6 
#
# 1 0.009413 -0.004152 -0.002531 0.000000 0.000000 0.000000
# 2 -0.004152 0.036765 -0.002037 0.000000 0.000000 0.000000
# 3 -0.002531 -0.002037 0.014945 0.000000 0.000000 0.000000
# 4 0.000000 0.000000 0.000000 0.046509 0.000000 0.000000
# 5 0.000000 0.000000 0.000000 0.000000 0.047663 0.000000
# 6 0.000000 0.000000 0.000000 0.000000 0.000000 0.052197
#
#
# Mechanical properties :
#
#
# Convention : Reuss Voigt Hill
#
# Bulk Modulus (GPa) = 22.89221 33.96389 28.42805
# Shear Modulus (GPa) = 20.87737 24.07474 22.47606
#
# Velocity S-wave (km/s) = 3.27270 3.51439 3.39569
# Velocity P-wave (km/s) = 5.10147 5.82170 5.47344
#
# Compressibility (1/GPa) = 0.04368298
#
# Stress axis : x y z
#
# Youngs Moduli (GPa) = 106.23411 27.19974 66.91186
#
# Poissons Ratio (x) = 0.11292 0.16935
# Poissons Ratio (y) = 0.44105 0.13633
# Poissons Ratio (z) = 0.26888 0.05542
#
# Static dielectric constant tensor:
#      x y z
#    x 1.670510 0.000000 0.000000 
#    y 0.000000 1.666430 0.000000 
#    z 0.000000 0.000000 1.608440 
# 
# From -- ./inp_files/27209.got.cif
#   From: 2010.05.17/outbox.cif.g08.bks.cpg/sg62_14_cif.got.tgz:27209.got - 2010.06.03 15:25:27.
