data_PCOD9466484
_publ_section_title
;
Structure prediction by ZEFSAII (Michael W. Deem and Ramdas Pophale) SiO2 
 PCOD9466484
Probable space group: P N M A
;
_chemical_formula_sum "Si O2"
_cell_formula_units_Z 64
_cell_length_a 23.525764
_cell_length_b 14.336892
_cell_length_c 9.514230
_cell_angle_alpha 90.000000
_cell_angle_beta 90.000000
_cell_angle_gamma 90.000000
_cell_volume 3209.019793
_symmetry_space_group_name_H-M "P N M A"
_symmetry_group_IT_number 62
_symmetry_cell_setting 'orthorhombic'
loop_
_space_group_symop_operation_xyz
x,y,z
1/2-x,-y,1/2+z
1/2+x,1/2-y,1/2-z
-x,1/2+y,-z
-x,-y,-z
1/2+x,y,1/2-z
1/2-x,1/2+y,1/2+z
x,1/2-y,z
loop_
_atom_site_type_symbol
_atom_site_label
_atom_site_fract_x
_atom_site_fract_y
_atom_site_fract_z
Si Si1 0.906957 0.142400 0.256560
Si Si2 0.518320 0.087415 0.597944
Si Si3 0.219335 0.358310 0.090460
Si Si4 0.327133 0.489091 0.085690
Si Si5 0.393758 0.144255 0.563214
Si Si6 0.142945 0.357528 0.821475
Si Si7 0.508881 0.035939 0.155591
Si Si8 0.138405 0.024105 0.271561
O O1 0.893732 0.250000 0.266299
O O2 0.875824 0.084512 0.375283
O O3 0.972861 0.122991 0.287542
O O4 0.887445 0.111990 0.099773
O O5 0.462455 0.150479 0.581037
O O6 0.583608 0.120626 0.592648
O O7 0.500000 0.000000 0.500000
O O8 0.515103 0.049359 0.754481
O O9 0.235958 0.250000 0.115639
O O10 0.269021 0.433503 0.114980
O O11 0.169014 0.392765 0.190833
O O12 0.194045 0.365143 0.933393
O O13 0.341591 0.575252 0.190222
O O14 0.330440 0.508979 0.920146
O O15 0.370920 0.250000 0.580697
O O16 0.367466 0.068284 0.670596
O O17 0.138008 0.250000 0.774235
O O18 0.574130 0.049827 0.190530
O O19 0.500000 0.000000 0.000000
#
# Coordination Sequence:
#
# PCOD9466484 Si02
#       8
#     8   8   8   8   8   8   8   8
#     4  11  22  38  64  92 128 177 220 263 327 396
#     4  11  18  35  61  89 130 167 203 258 316 384
#     4  11  26  44  66  94 122 167 224 273 326 384
#     4  12  23  46  65  90 131 171 215 272 329 382
#     4  10  22  37  60  98 131 169 214 259 319 390
#     4  11  23  41  67  95 125 170 219 264 324 394
#     4  11  20  38  58  93 131 169 205 259 333 391
#     4  11  24  40  68  94 132 170 214 273 329 389
#
# _framework density 19.943785999999999
#
# number of rings (size 3 to 8) (size 9 to 14) (size 15 to 20)
#    0.000    1.000    3.750    3.750    0.000    2.000 
#    0.000    2.500    0.000    0.000    0.000    0.000 
#    0.000    0.000    0.000    0.000    0.000    0.000 
#
# Total GULP energy -356856.243912 kJ/mol
# GULP energy per Si atom -5575.878811 kJ/mol
# Density = 1.989839 g / cm^3
# Si number density = 19.943786 Si / 1000 Ang^3
#
#
#
# Elastic Constant Matrix: (Units=GPa)
#
#
# Indices 1 2 3 4 5 6 
#
# 1 65.6339 13.7001 -6.6493 0.0000 0.0000 0.0000
# 2 13.7001 72.4069 29.5903 0.0000 0.0000 0.0000
# 3 -6.6493 29.5903 112.6808 0.0000 0.0000 0.0000
# 4 0.0000 0.0000 0.0000 -1.1504 0.0000 0.0000
# 5 0.0000 0.0000 0.0000 0.0000 22.9509 0.0000
# 6 0.0000 0.0000 0.0000 0.0000 0.0000 19.6261
#
#
#
# Elastic Compliance Matrix: (Units=1/GPa)
#
#
# Indices 1 2 3 4 5 6 
#
# 1 0.016247 -0.003883 0.001978 0.000000 0.000000 0.000000
# 2 -0.003883 0.016399 -0.004536 0.000000 0.000000 0.000000
# 3 0.001978 -0.004536 0.010182 0.000000 0.000000 0.000000
# 4 0.000000 0.000000 0.000000 -0.869242 0.000000 0.000000
# 5 0.000000 0.000000 0.000000 0.000000 0.043571 0.000000
# 6 0.000000 0.000000 0.000000 0.000000 0.000000 0.050953
#
#
# Mechanical properties :
#
#
# Convention : Reuss Voigt Hill
#
# Bulk Modulus (GPa) = 33.39041 36.00041 34.69541
# Shear Modulus (GPa) = -7.05191 22.55734 7.75272
#
# Velocity S-wave (km/s) = -1.88244 3.36675 1.97376
# Velocity P-wave (km/s) = 3.47186 5.76225 4.75696
#
# Compressibility (1/GPa) = 0.02994872
#
# Stress axis : x y z
#
# Youngs Moduli (GPa) = 61.55032 60.97948 98.20861
#
# Poissons Ratio (x) = 0.23676 -0.19429
# Poissons Ratio (y) = 0.23897 0.44543
# Poissons Ratio (z) = -0.12176 0.27657
#
# Static dielectric constant tensor:
#      x y z
#    x 1.831050 0.000000 0.000000 
#    y 0.000000 1.614270 0.000000 
#    z 0.000000 0.000000 1.570020 
# 
# From -- ./inp_files/9484.got.cif
#   From: 2010.05.17/outbox.cif.g08.bks.cpg/sg62_5_cif.got.tgz:9484.got - 2010.06.03 15:25:27.
