data_PCOD9466238
_publ_section_title
;
Structure prediction by ZEFSAII (Michael W. Deem and Ramdas Pophale) SiO2 
 PCOD9466238
Probable space group: P N M A
;
_chemical_formula_sum "Si O2"
_cell_formula_units_Z 64
_cell_length_a 29.750217
_cell_length_b 9.126997
_cell_length_c 11.719029
_cell_angle_alpha 90.000000
_cell_angle_beta 90.000000
_cell_angle_gamma 90.000000
_cell_volume 3182.069600
_symmetry_space_group_name_H-M "P N M A"
_symmetry_group_IT_number 62
_symmetry_cell_setting 'orthorhombic'
loop_
_space_group_symop_operation_xyz
x,y,z
1/2-x,-y,1/2+z
1/2+x,1/2-y,1/2-z
-x,1/2+y,-z
-x,-y,-z
1/2+x,y,1/2-z
1/2-x,1/2+y,1/2+z
x,1/2-y,z
loop_
_atom_site_type_symbol
_atom_site_label
_atom_site_fract_x
_atom_site_fract_y
_atom_site_fract_z
Si Si1 0.435705 0.917192 0.039382
Si Si2 0.321236 0.920239 0.533394
Si Si3 0.660353 0.420703 0.204531
Si Si4 0.729051 0.426414 0.007716
Si Si5 0.109257 0.924486 0.882595
Si Si6 0.154964 0.077900 0.667767
Si Si7 0.934911 0.424629 0.688490
Si Si8 0.476236 0.576981 0.292926
O O1 0.443995 0.750000 0.002336
O O2 0.382817 0.934721 0.068659
O O3 0.458499 0.937231 0.162266
O O4 0.449249 0.024312 0.938518
O O5 0.324378 0.750000 0.499849
O O6 0.319003 0.929000 0.669769
O O7 0.276403 0.993966 0.484873
O O8 0.364793 0.005883 0.488876
O O9 0.649994 0.250000 0.179250
O O10 0.696296 0.471005 0.111009
O O11 0.613959 0.508054 0.205505
O O12 0.735027 0.250000 0.012530
O O13 0.702265 0.460005 0.890181
O O14 0.108872 0.750000 0.886915
O O15 0.137983 0.981121 0.772733
O O16 0.058838 0.986702 0.867942
O O17 0.154926 0.250000 0.701883
O O18 0.933552 0.250000 0.691860
O O19 0.972064 0.471820 0.782029
O O20 0.473787 0.750000 0.322286
#
# Coordination Sequence:
#
# PCOD9466238 Si02
#       8
#     8   8   8   8   8   8   8   8
#     4   9  16  31  53  79 120 163 194 234 295 355
#     4  11  25  43  64  88 118 158 202 248 303 361
#     4  10  23  44  64  86 121 161 200 244 300 362
#     4  10  21  40  64  90 120 154 194 245 300 355
#     4  11  23  39  61  88 120 157 204 252 296 356
#     4   9  18  35  59  86 120 158 192 238 299 351
#     4  11  21  33  56  89 122 157 201 252 302 356
#     4   9  20  37  56  83 121 162 203 249 302 356
#
# _framework density 20.112697000000001
#
# number of rings (size 3 to 8) (size 9 to 14) (size 15 to 20)
#    0.000    2.000    1.250    3.000    1.750    5.000 
#    0.000    0.625    0.000    0.000    0.000    0.000 
#    0.000    0.000    0.000    0.000    0.000    0.000 
#
# Total GULP energy -357484.906172 kJ/mol
# GULP energy per Si atom -5585.701659 kJ/mol
# Density = 2.006692 g / cm^3
# Si number density = 20.112697 Si / 1000 Ang^3
#
#
#
# Elastic Constant Matrix: (Units=GPa)
#
#
# Indices 1 2 3 4 5 6 
#
# 1 73.0568 25.7355 -3.3100 0.0000 0.0000 0.0000
# 2 25.7355 61.7728 5.7231 0.0000 0.0000 0.0000
# 3 -3.3100 5.7231 29.3397 0.0000 0.0000 0.0000
# 4 0.0000 0.0000 0.0000 22.9618 0.0000 0.0000
# 5 0.0000 0.0000 0.0000 0.0000 14.3846 0.0000
# 6 0.0000 0.0000 0.0000 0.0000 0.0000 28.3961
#
#
#
# Elastic Compliance Matrix: (Units=1/GPa)
#
#
# Indices 1 2 3 4 5 6 
#
# 1 0.016337 -0.007106 0.003229 0.000000 0.000000 0.000000
# 2 -0.007106 0.019577 -0.004620 0.000000 0.000000 0.000000
# 3 0.003229 -0.004620 0.035349 0.000000 0.000000 0.000000
# 4 0.000000 0.000000 0.000000 0.043551 0.000000 0.000000
# 5 0.000000 0.000000 0.000000 0.000000 0.069519 0.000000
# 6 0.000000 0.000000 0.000000 0.000000 0.000000 0.035216
#
#
# Mechanical properties :
#
#
# Convention : Reuss Voigt Hill
#
# Bulk Modulus (GPa) = 18.42653 24.49631 21.46142
# Shear Modulus (GPa) = 19.63618 22.21655 20.92637
#
# Velocity S-wave (km/s) = 3.12798 3.32716 3.22911
# Velocity P-wave (km/s) = 4.71458 5.19288 4.95950
#
# Compressibility (1/GPa) = 0.05426959
#
# Stress axis : x y z
#
# Youngs Moduli (GPa) = 61.20947 51.08108 28.28929
#
# Poissons Ratio (x) = 0.36296 -0.09135
# Poissons Ratio (y) = 0.43493 0.13071
# Poissons Ratio (z) = -0.19765 0.23601
#
# Static dielectric constant tensor:
#      x y z
#    x 1.734630 0.000000 0.000000 
#    y 0.000000 1.669380 0.000000 
#    z 0.000000 0.000000 1.721020 
# 
# From -- ./inp_files/15878.got.cif
#   From: 2010.05.17/outbox.cif.g08.bks.cpg/sg62_8_cif.got.tgz:15878.got - 2010.06.03 15:25:27.
