data_PCOD9466353
_publ_section_title
;
Structure prediction by ZEFSAII (Michael W. Deem and Ramdas Pophale) SiO2 
 PCOD9466353
Probable space group: P N M A
;
_chemical_formula_sum "Si O2"
_cell_formula_units_Z 48
_cell_length_a 9.653753
_cell_length_b 8.533919
_cell_length_c 28.887103
_cell_angle_alpha 90.000000
_cell_angle_beta 90.000000
_cell_angle_gamma 90.000000
_cell_volume 2379.845093
_symmetry_space_group_name_H-M "P N M A"
_symmetry_group_IT_number 62
_symmetry_cell_setting 'orthorhombic'
loop_
_space_group_symop_operation_xyz
x,y,z
1/2-x,-y,1/2+z
1/2+x,1/2-y,1/2-z
-x,1/2+y,-z
-x,-y,-z
1/2+x,y,1/2-z
1/2-x,1/2+y,1/2+z
x,1/2-y,z
loop_
_atom_site_type_symbol
_atom_site_label
_atom_site_fract_x
_atom_site_fract_y
_atom_site_fract_z
Si Si1 0.851189 0.437529 0.013113
Si Si2 0.189286 0.559307 0.881237
Si Si3 0.006734 0.437013 0.198208
Si Si4 0.400497 0.436742 0.039794
Si Si5 0.189418 0.064765 0.722867
Si Si6 0.004453 0.060025 0.358120
O O1 0.847065 0.250000 0.013645
O O2 0.812108 0.491998 0.065247
O O3 0.747830 0.499658 0.974333
O O4 0.000000 0.500000 0.000000
O O5 0.189342 0.750000 0.881723
O O6 0.333710 0.513432 0.856850
O O7 0.055583 0.510540 0.851480
O O8 0.027209 0.250000 0.197090
O O9 0.152752 0.511970 0.212966
O O10 0.885454 0.477929 0.234535
O O11 0.401802 0.250000 0.038184
O O12 0.450814 0.481504 0.090670
O O13 0.500000 0.500000 0.000000
O O14 0.187059 0.250000 0.731255
O O15 0.092731 0.020622 0.679282
O O16 0.996031 0.250000 0.352303
#
# Coordination Sequence:
#
# PCOD9466353 Si02
#       6
#     8   8   8   8   8   8
#     4  11  23  41  61  91 129 169 214 265 317 370
#     4   9  20  40  65  90 120 162 214 260 302 368
#     4  11  23  43  70  94 122 169 216 251 306 385
#     4  11  22  39  64  93 126 170 217 262 312 372
#     4  12  26  43  64  98 133 161 202 266 324 366
#     4  10  21  41  66  91 123 169 217 257 310 386
#
# _framework density 20.169378999999999
#
# number of rings (size 3 to 8) (size 9 to 14) (size 15 to 20)
#    0.000    1.333    1.667    4.000    2.333    2.667 
#    0.000    3.333    0.000    0.000    0.000    0.000 
#    0.000    0.000    0.000    0.000    0.000    0.000 
#
# Total GULP energy -268305.547174 kJ/mol
# GULP energy per Si atom -5589.698899 kJ/mol
# Density = 2.012347 g / cm^3
# Si number density = 20.169379 Si / 1000 Ang^3
#
#
#
# Elastic Constant Matrix: (Units=GPa)
#
#
# Indices 1 2 3 4 5 6 
#
# 1 106.4759 -9.7489 2.7480 0.0000 0.0000 0.0000
# 2 -9.7489 14.6306 3.3128 0.0000 0.0000 0.0000
# 3 2.7480 3.3128 55.3732 0.0000 0.0000 0.0000
# 4 0.0000 0.0000 0.0000 24.9000 0.0000 0.0000
# 5 0.0000 0.0000 0.0000 0.0000 40.3126 0.0000
# 6 0.0000 0.0000 0.0000 0.0000 0.0000 33.6874
#
#
#
# Elastic Compliance Matrix: (Units=1/GPa)
#
#
# Indices 1 2 3 4 5 6 
#
# 1 0.010047 0.006901 -0.000911 0.000000 0.000000 0.000000
# 2 0.006901 0.074029 -0.004771 0.000000 0.000000 0.000000
# 3 -0.000911 -0.004771 0.018390 0.000000 0.000000 0.000000
# 4 0.000000 0.000000 0.000000 0.040161 0.000000 0.000000
# 5 0.000000 0.000000 0.000000 0.000000 0.024806 0.000000
# 6 0.000000 0.000000 0.000000 0.000000 0.000000 0.029685
#
#
# Mechanical properties :
#
#
# Convention : Reuss Voigt Hill
#
# Bulk Modulus (GPa) = 9.53268 18.78930 14.16099
# Shear Modulus (GPa) = 21.77242 31.79115 26.78179
#
# Velocity S-wave (km/s) = 3.28911 3.97446 3.64791
# Velocity P-wave (km/s) = 4.37731 5.51341 4.97788
#
# Compressibility (1/GPa) = 0.10490225
#
# Stress axis : x y z
#
# Youngs Moduli (GPa) = 99.53033 13.50829 54.37745
#
# Poissons Ratio (x) = -0.09322 0.04956
# Poissons Ratio (y) = -0.68687 0.25946
# Poissons Ratio (z) = 0.09072 0.06445
#
# Static dielectric constant tensor:
#      x y z
#    x 1.008830 0.000000 0.000000 
#    y 0.000000 1.691720 0.000000 
#    z 0.000000 0.000000 1.389910 
# 
# From -- ./inp_files/32041.got.cif
#   From: 2010.05.17/outbox.cif.g08.bks.cpg/sg62_17_cif.got.tgz:32041.got - 2010.06.03 15:25:27.
