data_PCOD9466094
_publ_section_title
;
Structure prediction by ZEFSAII (Michael W. Deem and Ramdas Pophale) SiO2 
 PCOD9466094
Probable space group: P N M A
;
_chemical_formula_sum "Si O2"
_cell_formula_units_Z 52
_cell_length_a 12.451137
_cell_length_b 24.183180
_cell_length_c 8.772869
_cell_angle_alpha 90.000000
_cell_angle_beta 90.000000
_cell_angle_gamma 90.000000
_cell_volume 2641.581805
_symmetry_space_group_name_H-M "P N M A"
_symmetry_group_IT_number 62
_symmetry_cell_setting 'orthorhombic'
loop_
_space_group_symop_operation_xyz
x,y,z
1/2-x,-y,1/2+z
1/2+x,1/2-y,1/2-z
-x,1/2+y,-z
-x,-y,-z
1/2+x,y,1/2-z
1/2-x,1/2+y,1/2+z
x,1/2-y,z
loop_
_atom_site_type_symbol
_atom_site_label
_atom_site_fract_x
_atom_site_fract_y
_atom_site_fract_z
Si Si1 0.753186 0.948189 0.948600
Si Si2 0.920113 0.250000 0.897219
Si Si3 0.944609 0.750000 0.416812
Si Si4 0.325928 0.056947 0.732328
Si Si5 0.491373 0.566329 0.482568
Si Si6 0.734550 0.341270 0.915695
Si Si7 0.653639 0.630557 0.702668
Si Si8 0.055610 0.750000 0.753511
O O1 0.689819 0.906911 0.840987
O O2 0.783977 0.004906 0.864412
O O3 0.680675 0.960061 0.094234
O O4 0.866219 0.921467 0.002369
O O5 0.839689 0.302219 0.900536
O O6 0.980370 0.250000 0.734480
O O7 0.982997 0.250000 0.063451
O O8 0.869112 0.696219 0.400774
O O9 0.989252 0.750000 0.592745
O O10 0.443043 0.075795 0.673335
O O11 0.248242 0.108589 0.699639
O O12 0.500000 0.500000 0.500000
O O13 0.558119 0.599608 0.610634
O O14 0.747108 0.365697 0.085130
O O15 0.621241 0.692470 0.750595
#
# Coordination Sequence:
#
# PCOD9466094 Si02
#       8
#     8   4   4   8   8   8   8   4
#     4  11  22  40  65  92 126 177 209 267 339 394
#     4   9  21  43  62  88 134 160 205 281 318 371
#     4  11  23  41  70  91 124 171 228 251 334 392
#     4  10  21  39  62  91 130 162 218 266 327 398
#     4   9  20  40  62  90 127 166 210 268 329 390
#     4   9  21  41  60  91 128 161 203 279 313 381
#     4  10  22  43  63  93 135 163 216 274 322 391
#     4  10  24  42  64  93 132 173 217 276 320 395
#
# _framework density 19.685175000000001
#
# number of rings (size 3 to 8) (size 9 to 14) (size 15 to 20)
#    0.000    2.154    0.000    3.231    4.308    3.692 
#    0.000    5.385    0.000    0.000    0.000    0.000 
#    0.000    0.000    0.000    0.000    0.000    0.000 
#
# Total GULP energy -289753.641679 kJ/mol
# GULP energy per Si atom -5572.185417 kJ/mol
# Density = 1.964037 g / cm^3
# Si number density = 19.685175 Si / 1000 Ang^3
#
#
#
# Elastic Constant Matrix: (Units=GPa)
#
#
# Indices 1 2 3 4 5 6 
#
# 1 63.2539 13.3383 44.6126 0.0000 0.0000 0.0000
# 2 13.3383 103.1266 29.4764 0.0000 0.0000 0.0000
# 3 44.6126 29.4764 132.9942 0.0000 0.0000 0.0000
# 4 0.0000 0.0000 0.0000 25.5115 0.0000 0.0000
# 5 0.0000 0.0000 0.0000 0.0000 10.6774 0.0000
# 6 0.0000 0.0000 0.0000 0.0000 0.0000 17.0650
#
#
#
# Elastic Compliance Matrix: (Units=1/GPa)
#
#
# Indices 1 2 3 4 5 6 
#
# 1 0.020762 -0.000742 -0.006800 0.000000 0.000000 0.000000
# 2 -0.000742 0.010379 -0.002052 0.000000 0.000000 0.000000
# 3 -0.006800 -0.002052 0.010255 0.000000 0.000000 0.000000
# 4 0.000000 0.000000 0.000000 0.039198 0.000000 0.000000
# 5 0.000000 0.000000 0.000000 0.000000 0.093656 0.000000
# 6 0.000000 0.000000 0.000000 0.000000 0.000000 0.058599
#
#
# Mechanical properties :
#
#
# Convention : Reuss Voigt Hill
#
# Bulk Modulus (GPa) = 45.02662 52.69215 48.85939
# Shear Modulus (GPa) = 19.27234 24.78060 22.02647
#
# Velocity S-wave (km/s) = 3.13234 3.55187 3.34868
# Velocity P-wave (km/s) = 6.00042 6.60656 6.31077
#
# Compressibility (1/GPa) = 0.02220908
#
# Stress axis : x y z
#
# Youngs Moduli (GPa) = 48.16543 96.34700 97.51424
#
# Poissons Ratio (x) = 0.07146 0.66311
# Poissons Ratio (y) = 0.03572 0.20006
# Poissons Ratio (z) = 0.32753 0.19767
#
# Static dielectric constant tensor:
#      x y z
#    x 1.697740 0.000000 0.000000 
#    y 0.000000 1.699140 0.000000 
#    z 0.000000 0.000000 1.729320 
# 
# From -- ./inp_files/5419.got.cif
#   From: 2010.05.17/outbox.cif.g08.bks.cpg/sg62_3_cif.got.tgz:5419.got - 2010.06.03 15:25:27.
