data_PCOD9466948
_publ_section_title
;
Structure prediction by ZEFSAII (Michael W. Deem and Ramdas Pophale) SiO2 
 PCOD9466948
Probable space group: P N M A
;
_chemical_formula_sum "Si O2"
_cell_formula_units_Z 64
_cell_length_a 9.516015
_cell_length_b 12.103406
_cell_length_c 28.502855
_cell_angle_alpha 90.000000
_cell_angle_beta 90.000000
_cell_angle_gamma 90.000000
_cell_volume 3282.850330
_symmetry_space_group_name_H-M "P N M A"
_symmetry_group_IT_number 62
_symmetry_cell_setting 'orthorhombic'
loop_
_space_group_symop_operation_xyz
x,y,z
1/2-x,-y,1/2+z
1/2+x,1/2-y,1/2-z
-x,1/2+y,-z
-x,-y,-z
1/2+x,y,1/2-z
1/2-x,1/2+y,1/2+z
x,1/2-y,z
loop_
_atom_site_type_symbol
_atom_site_label
_atom_site_fract_x
_atom_site_fract_y
_atom_site_fract_z
Si Si1 0.034768 0.621606 0.024222
Si Si2 0.105575 0.875962 0.659091
Si Si3 0.632808 0.129183 0.968302
Si Si4 0.574190 0.119905 0.343337
Si Si5 0.641918 0.045773 0.608910
Si Si6 0.198168 0.126808 0.788885
Si Si7 0.431207 0.556488 0.928451
Si Si8 0.960299 0.504209 0.745553
O O1 0.016449 0.750000 0.003270
O O2 0.200125 0.613416 0.035596
O O3 0.937696 0.617160 0.070088
O O4 0.000000 0.500000 0.000000
O O5 0.118210 0.750000 0.675899
O O6 0.263936 0.911874 0.646075
O O7 0.003324 0.880531 0.614460
O O8 0.039850 0.947047 0.700725
O O9 0.596206 0.250000 0.949924
O O10 0.541201 0.039185 0.941888
O O11 0.595042 0.121943 0.023502
O O12 0.555742 0.250000 0.351456
O O13 0.549378 0.089888 0.288640
O O14 0.465296 0.049897 0.374004
O O15 0.682441 0.112377 0.655461
O O16 0.782429 0.993013 0.587512
O O17 0.243871 0.250000 0.777105
O O18 0.308264 0.037130 0.770155
O O19 0.049670 0.097786 0.765593
#
# Coordination Sequence:
#
# PCOD9466948 Si02
#       8
#     8   8   8   8   8   8   8   8
#     4  11  23  43  67  97 134 177 222 272 333 398
#     4  11  22  39  62  90 126 164 205 259 316 380
#     4  10  23  42  64  90 128 168 212 267 325 387
#     4  10  23  40  63  92 129 170 211 259 321 386
#     4  11  23  41  65  93 129 162 215 266 319 385
#     4  11  23  40  62  87 121 164 209 259 309 376
#     4  11  22  41  63  93 126 159 217 261 323 388
#     4  11  21  41  60  90 124 160 211 254 313 379
#
# _framework density 19.495253000000002
#
# number of rings (size 3 to 8) (size 9 to 14) (size 15 to 20)
#    0.000    1.250    3.750    2.250    0.000    2.500 
#    0.000    0.625    0.000    0.000    0.000    0.000 
#    0.000    0.000    0.000    0.000    0.000    0.000 
#
# Total GULP energy -357163.959557 kJ/mol
# GULP energy per Si atom -5580.686868 kJ/mol
# Density = 1.945088 g / cm^3
# Si number density = 19.495253 Si / 1000 Ang^3
#
#
#
# Elastic Constant Matrix: (Units=GPa)
#
#
# Indices 1 2 3 4 5 6 
#
# 1 99.3092 28.3082 11.7220 0.0000 0.0000 0.0000
# 2 28.3082 82.9555 13.2051 0.0000 0.0000 0.0000
# 3 11.7220 13.2051 56.4762 0.0000 0.0000 0.0000
# 4 0.0000 0.0000 0.0000 0.6127 0.0000 0.0000
# 5 0.0000 0.0000 0.0000 0.0000 35.5584 0.0000
# 6 0.0000 0.0000 0.0000 0.0000 0.0000 4.4321
#
#
#
# Elastic Compliance Matrix: (Units=1/GPa)
#
#
# Indices 1 2 3 4 5 6 
#
# 1 0.011275 -0.003609 -0.001496 0.000000 0.000000 0.000000
# 2 -0.003609 0.013676 -0.002449 0.000000 0.000000 0.000000
# 3 -0.001496 -0.002449 0.018590 0.000000 0.000000 0.000000
# 4 0.000000 0.000000 0.000000 1.632198 0.000000 0.000000
# 5 0.000000 0.000000 0.000000 0.000000 0.028123 0.000000
# 6 0.000000 0.000000 0.000000 0.000000 0.000000 0.225629
#
#
# Mechanical properties :
#
#
# Convention : Reuss Voigt Hill
#
# Bulk Modulus (GPa) = 35.17116 38.35683 36.76399
# Shear Modulus (GPa) = 2.55875 20.48768 11.52322
#
# Velocity S-wave (km/s) = 1.14689 3.24528 2.43385
# Velocity P-wave (km/s) = 4.45352 5.81035 5.17658
#
# Compressibility (1/GPa) = 0.02843238
#
# Stress axis : x y z
#
# Youngs Moduli (GPa) = 88.69158 73.12024 53.79338
#
# Poissons Ratio (x) = 0.26392 0.08049
# Poissons Ratio (y) = 0.32012 0.13172
# Poissons Ratio (z) = 0.13271 0.17904
#
# Static dielectric constant tensor:
#      x y z
#    x 1.654370 0.000000 0.000000 
#    y 0.000000 1.702610 0.000000 
#    z 0.000000 0.000000 1.669620 
# 
# From -- ./inp_files/32240.got.cif
#   From: 2010.05.17/outbox.cif.g08.bks.cpg/sg62_17_cif.got.tgz:32240.got - 2010.06.03 15:25:27.
