data_PCOD9466844
_publ_section_title
;
Structure prediction by ZEFSAII (Michael W. Deem and Ramdas Pophale) SiO2 
 PCOD9466844
Probable space group: P N M A
;
_chemical_formula_sum "Si O2"
_cell_formula_units_Z 32
_cell_length_a 15.282911
_cell_length_b 15.572523
_cell_length_c 7.034174
_cell_angle_alpha 90.000000
_cell_angle_beta 90.000000
_cell_angle_gamma 90.000000
_cell_volume 1674.087571
_symmetry_space_group_name_H-M "P N M A"
_symmetry_group_IT_number 62
_symmetry_cell_setting 'orthorhombic'
loop_
_space_group_symop_operation_xyz
x,y,z
1/2-x,-y,1/2+z
1/2+x,1/2-y,1/2-z
-x,1/2+y,-z
-x,-y,-z
1/2+x,y,1/2-z
1/2-x,1/2+y,1/2+z
x,1/2-y,z
loop_
_atom_site_type_symbol
_atom_site_label
_atom_site_fract_x
_atom_site_fract_y
_atom_site_fract_z
Si Si1 0.917098 0.523843 0.125981
Si Si2 0.549468 0.349378 0.976328
Si Si3 0.831741 0.845169 0.847724
Si Si4 0.373106 0.156157 0.219445
O O1 0.939800 0.578622 0.314885
O O2 0.876313 0.431281 0.164686
O O3 0.857840 0.584578 0.998826
O O4 0.000000 0.500000 0.000000
O O5 0.562189 0.250000 0.909357
O O6 0.620634 0.364111 0.145489
O O7 0.451689 0.353219 0.066298
O O8 0.865358 0.750000 0.901138
O O9 0.727085 0.840663 0.845814
O O10 0.390249 0.250000 0.314225
#
# Coordination Sequence:
#
# PCOD9466844 Si02
#       4
#     8   8   8   8
#     4  12  24  37  68  92 123 165 213 255 315 372
#     4  10  22  43  64  89 129 165 207 256 312 372
#     4  10  23  43  63  90 126 164 209 259 308 372
#     4  10  23  42  63  90 129 167 205 260 313 370
#
# _framework density 19.114889000000002
#
# number of rings (size 3 to 8) (size 9 to 14) (size 15 to 20)
#    0.000    1.500    2.500    1.500    3.500    1.000 
#    0.000    0.000    0.000    0.000    0.000    0.000 
#    0.000    0.000    0.000    0.000    0.000    0.000 
#
# Total GULP energy -178333.000738 kJ/mol
# GULP energy per Si atom -5572.906273 kJ/mol
# Density = 1.907138 g / cm^3
# Si number density = 19.114889 Si / 1000 Ang^3
#
#
#
# Elastic Constant Matrix: (Units=GPa)
#
#
# Indices 1 2 3 4 5 6 
#
# 1 106.6409 39.0507 26.4671 0.0000 0.0000 0.0000
# 2 39.0507 200.6491 75.6514 0.0000 0.0000 0.0000
# 3 26.4671 75.6514 61.7986 0.0000 0.0000 0.0000
# 4 0.0000 0.0000 0.0000 23.7606 0.0000 0.0000
# 5 0.0000 0.0000 0.0000 0.0000 14.3164 0.0000
# 6 0.0000 0.0000 0.0000 0.0000 0.0000 47.6263
#
#
#
# Elastic Compliance Matrix: (Units=1/GPa)
#
#
# Indices 1 2 3 4 5 6 
#
# 1 0.010538 -0.000649 -0.003719 0.000000 0.000000 0.000000
# 2 -0.000649 0.009296 -0.011102 0.000000 0.000000 0.000000
# 3 -0.003719 -0.011102 0.031365 0.000000 0.000000 0.000000
# 4 0.000000 0.000000 0.000000 0.042087 0.000000 0.000000
# 5 0.000000 0.000000 0.000000 0.000000 0.069850 0.000000
# 6 0.000000 0.000000 0.000000 0.000000 0.000000 0.020997
#
#
# Mechanical properties :
#
#
# Convention : Reuss Voigt Hill
#
# Bulk Modulus (GPa) = 49.35985 72.38078 60.87032
# Shear Modulus (GPa) = 22.54044 32.33528 27.43786
#
# Velocity S-wave (km/s) = 3.43769 4.11740 3.79280
# Velocity P-wave (km/s) = 6.45257 7.78154 7.14801
#
# Compressibility (1/GPa) = 0.02025938
#
# Stress axis : x y z
#
# Youngs Moduli (GPa) = 94.89619 107.57569 31.88308
#
# Poissons Ratio (x) = 0.06978 0.11857
# Poissons Ratio (y) = 0.06156 0.35396
# Poissons Ratio (z) = 0.35292 1.19427
#
# Static dielectric constant tensor:
#      x y z
#    x 1.714950 0.000000 0.000000 
#    y 0.000000 1.886480 0.000000 
#    z 0.000000 0.000000 1.652590 
# 
# From -- ./inp_files/1451.got.cif
#   From: 2010.05.17/outbox.cif.g08.bks.cpg/sg62_1_cif.got.tgz:1451.got - 2010.06.03 15:25:27.
