data_PCOD9466490
_publ_section_title
;
Structure prediction by ZEFSAII (Michael W. Deem and Ramdas Pophale) SiO2 
 PCOD9466490
Probable space group: P N M A
;
_chemical_formula_sum "Si O2"
_cell_formula_units_Z 60
_cell_length_a 5.670018
_cell_length_b 21.265762
_cell_length_c 23.959871
_cell_angle_alpha 90.000000
_cell_angle_beta 90.000000
_cell_angle_gamma 90.000000
_cell_volume 2889.015435
_symmetry_space_group_name_H-M "P N M A"
_symmetry_group_IT_number 62
_symmetry_cell_setting 'orthorhombic'
loop_
_space_group_symop_operation_xyz
x,y,z
1/2-x,-y,1/2+z
1/2+x,1/2-y,1/2-z
-x,1/2+y,-z
-x,-y,-z
1/2+x,y,1/2-z
1/2-x,1/2+y,1/2+z
x,1/2-y,z
loop_
_atom_site_type_symbol
_atom_site_label
_atom_site_fract_x
_atom_site_fract_y
_atom_site_fract_z
Si Si1 0.869064 0.636009 0.852676
Si Si2 0.692344 0.090865 0.531475
Si Si3 0.455747 0.045960 0.071165
Si Si4 0.688626 0.750000 0.782991
Si Si5 0.514876 0.014570 0.282453
Si Si6 0.176603 0.563209 0.114269
Si Si7 0.915707 0.822314 0.438180
Si Si8 0.177255 0.643377 0.949403
O O1 0.721466 0.687906 0.820234
O O2 0.070392 0.668434 0.891568
O O3 0.695634 0.595644 0.892124
O O4 0.974830 0.583424 0.811385
O O5 0.852350 0.049527 0.491128
O O6 0.517780 0.048943 0.567282
O O7 0.841129 0.139979 0.567389
O O8 0.541216 0.133143 0.489806
O O9 0.711502 0.076462 0.067813
O O10 0.404476 0.979906 0.100508
O O11 0.928430 0.750000 0.744697
O O12 0.251883 0.009752 0.256268
O O13 0.565653 0.960029 0.328207
O O14 0.240935 0.635253 0.099746
O O15 0.920012 0.750000 0.422224
O O16 0.856707 0.826020 0.505561
#
# Coordination Sequence:
#
# PCOD9466490 Si02
#       8
#     8   8   8   4   8   8   8   8
#     4  10  23  40  64  89 128 175 218 283 334 387
#     4   9  19  35  55  92 127 165 202 259 320 408
#     4   9  19  36  59  93 124 164 212 269 331 394
#     4  12  28  44  62  88 124 180 244 284 330 382
#     4  11  26  44  70  98 130 165 221 288 342 392
#     4  10  22  37  66  90 125 166 215 271 339 397
#     4  10  22  38  60  92 133 173 215 262 327 412
#     4   9  20  37  60  91 129 166 213 260 327 399
#
# _framework density 20.768322000000001
#
# number of rings (size 3 to 8) (size 9 to 14) (size 15 to 20)
#    0.000    2.133    0.000    1.200    8.400   10.133 
#    9.600    0.000    0.000    0.800    0.000    0.000 
#    0.000    0.000    0.000    0.000    0.000    0.000 
#
# Total GULP energy -334514.327768 kJ/mol
# GULP energy per Si atom -5575.238796 kJ/mol
# Density = 2.072105 g / cm^3
# Si number density = 20.768322 Si / 1000 Ang^3
#
#
#
# Elastic Constant Matrix: (Units=GPa)
#
#
# Indices 1 2 3 4 5 6 
#
# 1 55.8218 7.7738 5.4894 0.0000 0.0000 0.0000
# 2 7.7738 110.4658 17.8406 0.0000 0.0000 0.0000
# 3 5.4894 17.8406 66.3345 0.0000 0.0000 0.0000
# 4 0.0000 0.0000 0.0000 22.7835 0.0000 0.0000
# 5 0.0000 0.0000 0.0000 0.0000 23.2708 0.0000
# 6 0.0000 0.0000 0.0000 0.0000 0.0000 3.9542
#
#
#
# Elastic Compliance Matrix: (Units=1/GPa)
#
#
# Indices 1 2 3 4 5 6 
#
# 1 0.018184 -0.001084 -0.001213 0.000000 0.000000 0.000000
# 2 -0.001084 0.009528 -0.002473 0.000000 0.000000 0.000000
# 3 -0.001213 -0.002473 0.015841 0.000000 0.000000 0.000000
# 4 0.000000 0.000000 0.000000 0.043891 0.000000 0.000000
# 5 0.000000 0.000000 0.000000 0.000000 0.042972 0.000000
# 6 0.000000 0.000000 0.000000 0.000000 0.000000 0.252896
#
#
# Mechanical properties :
#
#
# Convention : Reuss Voigt Hill
#
# Bulk Modulus (GPa) = 29.40035 32.75887 31.07961
# Shear Modulus (GPa) = 12.37041 23.43627 17.90334
#
# Velocity S-wave (km/s) = 2.44322 3.36290 2.93925
# Velocity P-wave (km/s) = 4.70597 5.55757 5.14940
#
# Compressibility (1/GPa) = 0.03401320
#
# Stress axis : x y z
#
# Youngs Moduli (GPa) = 54.99227 104.95138 63.12890
#
# Poissons Ratio (x) = 0.11374 0.07660
# Poissons Ratio (y) = 0.05960 0.15611
# Poissons Ratio (z) = 0.06673 0.25954
#
# Static dielectric constant tensor:
#      x y z
#    x 1.799470 0.000000 0.000000 
#    y 0.000000 1.736150 0.000000 
#    z 0.000000 0.000000 1.772740 
# 
# From -- ./inp_files/28413.got.cif
#   From: 2010.05.17/outbox.cif.g08.bks.cpg/sg62_15_cif.got.tgz:28413.got - 2010.06.03 15:25:27.
