data_PCOD9466007
_publ_section_title
;
Structure prediction by ZEFSAII (Michael W. Deem and Ramdas Pophale) SiO2 
 PCOD9466007
Probable space group: P N M A
;
_chemical_formula_sum "Si O2"
_cell_formula_units_Z 40
_cell_length_a 13.195213
_cell_length_b 22.653149
_cell_length_c 5.458149
_cell_angle_alpha 90.000000
_cell_angle_beta 90.000000
_cell_angle_gamma 90.000000
_cell_volume 1631.512381
_symmetry_space_group_name_H-M "P N M A"
_symmetry_group_IT_number 62
_symmetry_cell_setting 'orthorhombic'
loop_
_space_group_symop_operation_xyz
x,y,z
1/2-x,-y,1/2+z
1/2+x,1/2-y,1/2-z
-x,1/2+y,-z
-x,-y,-z
1/2+x,y,1/2-z
1/2-x,1/2+y,1/2+z
x,1/2-y,z
loop_
_atom_site_type_symbol
_atom_site_label
_atom_site_fract_x
_atom_site_fract_y
_atom_site_fract_z
Si Si1 0.006218 0.186375 0.785199
Si Si2 0.147161 0.373544 0.132343
Si Si3 0.671117 0.682157 0.633814
Si Si4 0.527575 0.909417 0.920123
Si Si5 0.219397 0.968921 0.401170
O O1 0.022680 0.250000 0.663885
O O2 0.023090 0.127493 0.635536
O O3 0.889795 0.183755 0.878657
O O4 0.083558 0.179033 0.010233
O O5 0.218740 0.346462 0.343139
O O6 0.063427 0.419857 0.231944
O O7 0.220190 0.407975 0.946777
O O8 0.673937 0.750000 0.721856
O O9 0.600523 0.639058 0.792826
O O10 0.602019 0.958464 0.025560
O O11 0.262297 0.010382 0.622546
#
# Coordination Sequence:
#
# PCOD9466007 Si02
#       5
#     8   8   8   8   8
#     4  10  21  38  65  98 134 173 218 271 339 408
#     4  10  23  40  65  95 131 172 222 281 336 405
#     4   9  19  37  59  91 133 173 212 264 333 408
#     4  10  23  40  65  93 134 167 226 281 336 399
#     4  11  28  47  71  97 132 178 232 284 344 394
#
# _framework density 24.517126999999999
#
# number of rings (size 3 to 8) (size 9 to 14) (size 15 to 20)
#    0.000    2.000    0.000    1.200   11.200    5.600 
#    0.000    4.000    0.000    0.000    0.000    0.000 
#    0.000    0.000    0.000    0.000    0.000    0.000 
#
# Total GULP energy -223357.953007 kJ/mol
# GULP energy per Si atom -5583.948825 kJ/mol
# Density = 2.446133 g / cm^3
# Si number density = 24.517127 Si / 1000 Ang^3
#
#
#
# Elastic Constant Matrix: (Units=GPa)
#
#
# Indices 1 2 3 4 5 6 
#
# 1 117.5318 0.1289 -3.8271 0.0000 0.0000 0.0000
# 2 0.1289 53.7731 -7.5206 0.0000 0.0000 0.0000
# 3 -3.8271 -7.5206 34.9912 0.0000 0.0000 0.0000
# 4 0.0000 0.0000 0.0000 -140.0605 0.0000 0.0000
# 5 0.0000 0.0000 0.0000 0.0000 20.3539 0.0000
# 6 0.0000 0.0000 0.0000 0.0000 0.0000 16.9424
#
#
#
# Elastic Compliance Matrix: (Units=1/GPa)
#
#
# Indices 1 2 3 4 5 6 
#
# 1 0.008539 0.000114 0.000958 0.000000 0.000000 0.000000
# 2 0.000114 0.019175 0.004134 0.000000 0.000000 0.000000
# 3 0.000958 0.004134 0.029572 0.000000 0.000000 0.000000
# 4 0.000000 0.000000 0.000000 -0.007140 0.000000 0.000000
# 5 0.000000 0.000000 0.000000 0.000000 0.049131 0.000000
# 6 0.000000 0.000000 0.000000 0.000000 0.000000 0.059024
#
#
# Mechanical properties :
#
#
# Convention : Reuss Voigt Hill
#
# Bulk Modulus (GPa) = 14.77172 20.42870 17.60021
# Shear Modulus (GPa) = 29.33329 -6.05185 11.64072
#
# Velocity S-wave (km/s) = 3.46271 -1.57282 2.18135
# Velocity P-wave (km/s) = 4.69311 2.24770 3.67950
#
# Compressibility (1/GPa) = 0.06769691
#
# Stress axis : x y z
#
# Youngs Moduli (GPa) = 117.10396 52.15258 33.81592
#
# Poissons Ratio (x) = -0.00592 -0.03241
# Poissons Ratio (y) = -0.01330 -0.13978
# Poissons Ratio (z) = -0.11223 -0.21558
#
# Static dielectric constant tensor:
#      x y z
#    x 1.918960 0.000000 0.000000 
#    y 0.000000 2.005690 0.000000 
#    z 0.000000 0.000000 2.068900 
# 
# From -- ./inp_files/594.got.cif
#   From: 2010.05.17/outbox.cif.g08.bks.cpg/sg62_1_cif.got.tgz:594.got - 2010.06.03 15:25:27.
