data_PCOD9466403
_publ_section_title
;
Structure prediction by ZEFSAII (Michael W. Deem and Ramdas Pophale) SiO2 
 PCOD9466403
Probable space group: P N M A
;
_chemical_formula_sum "Si O2"
_cell_formula_units_Z 48
_cell_length_a 13.284898
_cell_length_b 19.345035
_cell_length_c 7.821713
_cell_angle_alpha 90.000000
_cell_angle_beta 90.000000
_cell_angle_gamma 90.000000
_cell_volume 2010.155343
_symmetry_space_group_name_H-M "P N M A"
_symmetry_group_IT_number 62
_symmetry_cell_setting 'orthorhombic'
loop_
_space_group_symop_operation_xyz
x,y,z
1/2-x,-y,1/2+z
1/2+x,1/2-y,1/2-z
-x,1/2+y,-z
-x,-y,-z
1/2+x,y,1/2-z
1/2-x,1/2+y,1/2+z
x,1/2-y,z
loop_
_atom_site_type_symbol
_atom_site_label
_atom_site_fract_x
_atom_site_fract_y
_atom_site_fract_z
Si Si1 0.291585 0.101222 0.511508
Si Si2 0.284780 0.540842 0.653212
Si Si3 0.520510 0.750000 0.184936
Si Si4 0.932677 0.750000 0.947415
Si Si5 0.730132 0.750000 0.837484
Si Si6 0.796122 0.750000 0.462751
Si Si7 0.994254 0.602338 0.835448
Si Si8 0.887258 0.372204 0.472261
O O1 0.234762 0.076670 0.336994
O O2 0.258856 0.177050 0.576520
O O3 0.408718 0.097060 0.456887
O O4 0.268353 0.040823 0.645681
O O5 0.400297 0.556502 0.608058
O O6 0.206616 0.575928 0.519625
O O7 0.501570 0.750000 0.385431
O O8 0.409308 0.750000 0.102937
O O9 0.574059 0.678552 0.121817
O O10 0.812507 0.750000 0.988351
O O11 0.955841 0.680600 0.847555
O O12 0.793462 0.750000 0.667495
O O13 0.658362 0.685217 0.843629
O O14 0.026940 0.589770 0.638275
#
# Coordination Sequence:
#
# PCOD9466403 Si02
#       8
#     8   8   4   4   4   4   8   8
#     4  11  25  42  68 101 131 183 225 289 336 414
#     4  11  23  42  67  97 137 173 228 286 348 403
#     4  11  26  37  63 105 139 173 224 292 350 399
#     4  12  22  37  62 100 135 177 218 295 341 389
#     4  11  17  40  69  90 124 180 236 262 328 408
#     4  12  21  48  68  97 134 182 240 267 331 432
#     4  11  21  42  69  93 131 184 241 264 340 428
#     4  10  21  42  68  96 130 183 230 278 332 422
#
# _framework density 23.878751000000001
#
# number of rings (size 3 to 8) (size 9 to 14) (size 15 to 20)
#    0.000    1.000    5.000    4.000    0.000    2.667 
#    6.000    7.500    0.000    0.000    0.000    0.000 
#    0.000    0.000    0.000    0.000    0.000    0.000 
#
# Total GULP energy -268237.210715 kJ/mol
# GULP energy per Si atom -5588.275223 kJ/mol
# Density = 2.382440 g / cm^3
# Si number density = 23.878751 Si / 1000 Ang^3
#
#
#
# Elastic Constant Matrix: (Units=GPa)
#
#
# Indices 1 2 3 4 5 6 
#
# 1 142.8388 47.0931 19.5792 0.0000 0.0000 0.0000
# 2 47.0931 163.1126 7.5722 0.0000 0.0000 0.0000
# 3 19.5792 7.5722 47.0874 0.0000 0.0000 0.0000
# 4 0.0000 0.0000 0.0000 -90.1763 0.0000 0.0000
# 5 0.0000 0.0000 0.0000 0.0000 24.6527 0.0000
# 6 0.0000 0.0000 0.0000 0.0000 0.0000 3.8839
#
#
#
# Elastic Compliance Matrix: (Units=1/GPa)
#
#
# Indices 1 2 3 4 5 6 
#
# 1 0.008145 -0.002211 -0.003031 0.000000 0.000000 0.000000
# 2 -0.002211 0.006777 -0.000170 0.000000 0.000000 0.000000
# 3 -0.003031 -0.000170 0.022525 0.000000 0.000000 0.000000
# 4 0.000000 0.000000 0.000000 -0.011089 0.000000 0.000000
# 5 0.000000 0.000000 0.000000 0.000000 0.040563 0.000000
# 6 0.000000 0.000000 0.000000 0.000000 0.000000 0.257473
#
#
# Mechanical properties :
#
#
# Convention : Reuss Voigt Hill
#
# Bulk Modulus (GPa) = 37.56331 55.72534 46.64433
# Shear Modulus (GPa) = 14.53092 6.25836 10.39464
#
# Velocity S-wave (km/s) = 2.46951 1.62067 2.08867
# Velocity P-wave (km/s) = 4.88839 5.18551 5.03914
#
# Compressibility (1/GPa) = 0.02662172
#
# Stress axis : x y z
#
# Youngs Moduli (GPa) = 122.76940 147.55813 44.39519
#
# Poissons Ratio (x) = 0.32625 0.13458
# Poissons Ratio (y) = 0.27144 0.00757
# Poissons Ratio (z) = 0.37216 0.02516
#
# Static dielectric constant tensor:
#      x y z
#    x 1.971210 0.000000 0.000000 
#    y 0.000000 1.906160 0.000000 
#    z 0.000000 0.000000 1.931230 
# 
# From -- ./inp_files/6567.got.cif
#   From: 2010.05.17/outbox.cif.g08.bks.cpg/sg62_4_cif.got.tgz:6567.got - 2010.06.03 15:25:27.
