data_PCOD9466772
_publ_section_title
;
Structure prediction by ZEFSAII (Michael W. Deem and Ramdas Pophale) SiO2 
 PCOD9466772
Probable space group: P N M A
;
_chemical_formula_sum "Si O2"
_cell_formula_units_Z 56
_cell_length_a 5.389169
_cell_length_b 27.049024
_cell_length_c 17.206124
_cell_angle_alpha 90.000000
_cell_angle_beta 90.000000
_cell_angle_gamma 90.000000
_cell_volume 2508.167006
_symmetry_space_group_name_H-M "P N M A"
_symmetry_group_IT_number 62
_symmetry_cell_setting 'orthorhombic'
loop_
_space_group_symop_operation_xyz
x,y,z
1/2-x,-y,1/2+z
1/2+x,1/2-y,1/2-z
-x,1/2+y,-z
-x,-y,-z
1/2+x,y,1/2-z
1/2-x,1/2+y,1/2+z
x,1/2-y,z
loop_
_atom_site_type_symbol
_atom_site_label
_atom_site_fract_x
_atom_site_fract_y
_atom_site_fract_z
Si Si1 0.724354 0.306509 0.569559
Si Si2 0.825964 0.383697 0.924222
Si Si3 0.811440 0.531098 0.051469
Si Si4 0.485773 0.357681 0.801198
Si Si5 0.042733 0.888425 0.543245
Si Si6 0.270744 0.994544 0.785138
Si Si7 0.803562 0.117367 0.278266
O O1 0.697455 0.250000 0.546540
O O2 0.462294 0.331914 0.592795
O O3 0.826124 0.342359 0.501408
O O4 0.911773 0.311256 0.643066
O O5 0.582926 0.393079 0.871409
O O6 0.025988 0.425424 0.909815
O O7 0.740930 0.384414 0.014165
O O8 0.706365 0.499611 0.122678
O O9 0.631433 0.559526 0.992909
O O10 0.000000 0.500000 0.000000
O O11 0.229995 0.361730 0.753144
O O12 0.110158 0.886398 0.632902
O O13 0.512165 0.017204 0.744693
O O14 0.245514 0.937554 0.757547
O O15 0.532678 0.141322 0.268215
#
# Coordination Sequence:
#
# PCOD9466772 Si02
#       7
#     8   8   8   8   8   8   8
#     4  10  23  45  71 103 135 179 231 286 357 429
#     4  10  24  41  66  99 140 189 231 285 352 414
#     4  11  24  40  64  97 140 186 238 286 341 411
#     4  11  22  43  67  97 139 182 229 283 341 409
#     4  10  24  43  68  98 137 178 230 285 348 412
#     4  10  23  39  58  91 126 172 225 275 323 387
#     4  10  22  41  69  94 129 170 225 277 332 397
#
# _framework density 22.327062000000002
#
# number of rings (size 3 to 8) (size 9 to 14) (size 15 to 20)
#    0.000    1.714    1.429    1.714   10.000    4.571 
#    0.000    0.000    0.000    0.857    0.000    0.000 
#    0.000    0.000    0.000    0.000    0.000    0.000 
#
# Total GULP energy -312366.770295 kJ/mol
# GULP energy per Si atom -5577.978041 kJ/mol
# Density = 2.227624 g / cm^3
# Si number density = 22.327062 Si / 1000 Ang^3
#
#
#
# Elastic Constant Matrix: (Units=GPa)
#
#
# Indices 1 2 3 4 5 6 
#
# 1 153.1506 22.7493 40.4679 0.0000 0.0000 0.0000
# 2 22.7493 60.3009 28.0771 0.0000 0.0000 0.0000
# 3 40.4679 28.0771 133.2513 0.0000 0.0000 0.0000
# 4 0.0000 0.0000 0.0000 12.9540 0.0000 0.0000
# 5 0.0000 0.0000 0.0000 0.0000 46.9523 0.0000
# 6 0.0000 0.0000 0.0000 0.0000 0.0000 7.8220
#
#
#
# Elastic Compliance Matrix: (Units=1/GPa)
#
#
# Indices 1 2 3 4 5 6 
#
# 1 0.007292 -0.001907 -0.001813 0.000000 0.000000 0.000000
# 2 -0.001907 0.018886 -0.003400 0.000000 0.000000 0.000000
# 3 -0.001813 -0.003400 0.008772 0.000000 0.000000 0.000000
# 4 0.000000 0.000000 0.000000 0.077196 0.000000 0.000000
# 5 0.000000 0.000000 0.000000 0.000000 0.021298 0.000000
# 6 0.000000 0.000000 0.000000 0.000000 0.000000 0.127845
#
#
# Mechanical properties :
#
#
# Convention : Reuss Voigt Hill
#
# Bulk Modulus (GPa) = 48.28661 58.81016 53.54839
# Shear Modulus (GPa) = 17.70339 30.57289 24.13814
#
# Velocity S-wave (km/s) = 2.81892 3.70445 3.29160
# Velocity P-wave (km/s) = 5.68058 6.68541 6.20338
#
# Compressibility (1/GPa) = 0.02070967
#
# Stress axis : x y z
#
# Youngs Moduli (GPa) = 137.14132 52.94882 114.00430
#
# Poissons Ratio (x) = 0.10097 0.20665
# Poissons Ratio (y) = 0.26151 0.38765
# Poissons Ratio (z) = 0.24859 0.18004
#
# Static dielectric constant tensor:
#      x y z
#    x 2.010940 0.000000 0.000000 
#    y 0.000000 1.898320 0.000000 
#    z 0.000000 0.000000 1.868430 
# 
# From -- ./inp_files/16283.got.cif
#   From: 2010.05.17/outbox.cif.g08.bks.cpg/sg62_9_cif.got.tgz:16283.got - 2010.06.03 15:25:27.
