data_PCOD9466128
_publ_section_title
;
Structure prediction by ZEFSAII (Michael W. Deem and Ramdas Pophale) SiO2 
 PCOD9466128
Probable space group: P N M A
;
_chemical_formula_sum "Si O2"
_cell_formula_units_Z 20
_cell_length_a 5.047117
_cell_length_b 9.766165
_cell_length_c 16.143557
_cell_angle_alpha 90.000000
_cell_angle_beta 90.000000
_cell_angle_gamma 90.000000
_cell_volume 795.731703
_symmetry_space_group_name_H-M "P N M A"
_symmetry_group_IT_number 62
_symmetry_cell_setting 'orthorhombic'
loop_
_space_group_symop_operation_xyz
x,y,z
1/2-x,-y,1/2+z
1/2+x,1/2-y,1/2-z
-x,1/2+y,-z
-x,-y,-z
1/2+x,y,1/2-z
1/2-x,1/2+y,1/2+z
x,1/2-y,z
loop_
_atom_site_type_symbol
_atom_site_label
_atom_site_fract_x
_atom_site_fract_y
_atom_site_fract_z
Si Si1 0.306398 0.750000 0.194701
Si Si2 0.630167 0.904907 0.068689
Si Si3 0.917099 0.405163 0.189556
O O1 0.008220 0.750000 0.226837
O O2 0.404682 0.873392 0.137344
O O3 0.711524 0.750000 0.040873
O O4 0.856470 0.989631 0.115904
O O5 0.500000 0.000000 0.000000
O O6 0.680748 0.418976 0.256476
O O7 0.908228 0.250000 0.155754
#
# Coordination Sequence:
#
# PCOD9466128 Si02
#       3
#     4   8   8
#     4  10  22  42  68  92 124 172 220 260 318 396
#     4  10  22  39  67  93 137 166 225 266 341 375
#     4  10  21  39  64  92 126 168 217 265 321 392
#
# _framework density 25.134101999999999
#
# number of rings (size 3 to 8) (size 9 to 14) (size 15 to 20)
#    1.200    0.800    0.000    3.600    0.000    0.000 
#    0.000    8.000    0.000    0.000    0.000    0.000 
#    0.000    0.000    0.000    0.000    0.000    0.000 
#
# Total GULP energy -111936.123946 kJ/mol
# GULP energy per Si atom -5596.806197 kJ/mol
# Density = 2.507690 g / cm^3
# Si number density = 25.134102 Si / 1000 Ang^3
#
#
#
# Elastic Constant Matrix: (Units=GPa)
#
#
# Indices 1 2 3 4 5 6 
#
# 1 113.4236 6.9694 -1.2196 0.0000 0.0000 0.0000
# 2 6.9694 183.0836 52.5937 0.0000 0.0000 0.0000
# 3 -1.2196 52.5937 71.0965 0.0000 0.0000 0.0000
# 4 0.0000 0.0000 0.0000 63.5769 0.0000 0.0000
# 5 0.0000 0.0000 0.0000 0.0000 11.3315 0.0000
# 6 0.0000 0.0000 0.0000 0.0000 0.0000 24.0621
#
#
#
# Elastic Compliance Matrix: (Units=1/GPa)
#
#
# Indices 1 2 3 4 5 6 
#
# 1 0.008852 -0.000483 0.000509 0.000000 0.000000 0.000000
# 2 -0.000483 0.006962 -0.005159 0.000000 0.000000 0.000000
# 3 0.000509 -0.005159 0.017890 0.000000 0.000000 0.000000
# 4 0.000000 0.000000 0.000000 0.015729 0.000000 0.000000
# 5 0.000000 0.000000 0.000000 0.000000 0.088249 0.000000
# 6 0.000000 0.000000 0.000000 0.000000 0.000000 0.041559
#
#
# Mechanical properties :
#
#
# Convention : Reuss Voigt Hill
#
# Bulk Modulus (GPa) = 42.66383 53.81008 48.23696
# Shear Modulus (GPa) = 25.33959 40.41147 32.87553
#
# Velocity S-wave (km/s) = 3.17862 4.01413 3.62056
# Velocity P-wave (km/s) = 5.52113 6.55286 6.05900
#
# Compressibility (1/GPa) = 0.02343906
#
# Stress axis : x y z
#
# Youngs Moduli (GPa) = 112.97291 143.63090 55.89637
#
# Poissons Ratio (x) = 0.06941 -0.02847
# Poissons Ratio (y) = 0.05460 0.28835
# Poissons Ratio (z) = -0.05754 0.74094
#
# Static dielectric constant tensor:
#      x y z
#    x 1.957460 0.000000 0.000000 
#    y 0.000000 2.126560 0.000000 
#    z 0.000000 0.000000 1.949800 
# 
# From -- ./inp_files/15984.got.cif
#   From: 2010.05.17/outbox.cif.g08.bks.cpg/sg62_8_cif.got.tgz:15984.got - 2010.06.03 15:25:27.
