data_PCOD9466260
_publ_section_title
;
Structure prediction by ZEFSAII (Michael W. Deem and Ramdas Pophale) SiO2 
 PCOD9466260
Probable space group: P N M A
;
_chemical_formula_sum "Si O2"
_cell_formula_units_Z 40
_cell_length_a 23.066756
_cell_length_b 10.762409
_cell_length_c 7.447202
_cell_angle_alpha 90.000000
_cell_angle_beta 90.000000
_cell_angle_gamma 90.000000
_cell_volume 1848.796660
_symmetry_space_group_name_H-M "P N M A"
_symmetry_group_IT_number 62
_symmetry_cell_setting 'orthorhombic'
loop_
_space_group_symop_operation_xyz
x,y,z
1/2-x,-y,1/2+z
1/2+x,1/2-y,1/2-z
-x,1/2+y,-z
-x,-y,-z
1/2+x,y,1/2-z
1/2-x,1/2+y,1/2+z
x,1/2-y,z
loop_
_atom_site_type_symbol
_atom_site_label
_atom_site_fract_x
_atom_site_fract_y
_atom_site_fract_z
Si Si1 0.778409 0.102130 0.057288
Si Si2 0.037688 0.881994 0.948084
Si Si3 0.361602 0.112430 0.743134
Si Si4 0.934796 0.013999 0.425379
Si Si5 0.674037 0.389899 0.822929
O O1 0.792302 0.250000 0.093289
O O2 0.807061 0.062044 0.866149
O O3 0.710128 0.097329 0.009798
O O4 0.804685 0.004733 0.198794
O O5 0.005941 0.750000 0.967796
O O6 0.059223 0.895877 0.744785
O O7 0.090823 0.881592 0.084773
O O8 0.000000 0.000000 0.000000
O O9 0.343553 0.250000 0.801114
O O10 0.394933 0.057404 0.910935
O O11 0.895350 0.901408 0.349977
O O12 0.000000 0.000000 0.500000
O O13 0.687650 0.250000 0.754215
#
# Coordination Sequence:
#
# PCOD9466260 Si02
#       5
#     8   8   8   8   8
#     4  10  22  44  70  98 138 182 228 284 350 415
#     4  11  23  42  65  94 131 181 231 281 339 406
#     4  10  21  40  65  93 126 173 228 273 332 413
#     4  12  24  41  65  98 139 185 223 283 351 408
#     4  11  25  43  68 104 140 177 234 293 339 412
#
# _framework density 21.635695999999999
#
# number of rings (size 3 to 8) (size 9 to 14) (size 15 to 20)
#    0.000    1.200    4.000    1.800    0.000    4.000 
#    0.000    1.000    0.000    0.000    0.000    0.000 
#    0.000    0.000    0.000    0.000    0.000    0.000 
#
# Total GULP energy -222819.832818 kJ/mol
# GULP energy per Si atom -5570.495820 kJ/mol
# Density = 2.158645 g / cm^3
# Si number density = 21.635696 Si / 1000 Ang^3
#
#
#
# Elastic Constant Matrix: (Units=GPa)
#
#
# Indices 1 2 3 4 5 6 
#
# 1 109.8796 49.1561 13.6741 0.0000 0.0000 0.0000
# 2 49.1561 137.4393 51.9654 0.0000 0.0000 0.0000
# 3 13.6741 51.9654 106.4102 0.0000 0.0000 0.0000
# 4 0.0000 0.0000 0.0000 17.1752 0.0000 0.0000
# 5 0.0000 0.0000 0.0000 0.0000 29.2761 0.0000
# 6 0.0000 0.0000 0.0000 0.0000 0.0000 29.6514
#
#
#
# Elastic Compliance Matrix: (Units=1/GPa)
#
#
# Indices 1 2 3 4 5 6 
#
# 1 0.010867 -0.004119 0.000615 0.000000 0.000000 0.000000
# 2 -0.004119 0.010485 -0.004591 0.000000 0.000000 0.000000
# 3 0.000615 -0.004591 0.011561 0.000000 0.000000 0.000000
# 4 0.000000 0.000000 0.000000 0.058223 0.000000 0.000000
# 5 0.000000 0.000000 0.000000 0.000000 0.034158 0.000000
# 6 0.000000 0.000000 0.000000 0.000000 0.000000 0.033725
#
#
# Mechanical properties :
#
#
# Convention : Reuss Voigt Hill
#
# Bulk Modulus (GPa) = 59.79968 64.81335 62.30652
# Shear Modulus (GPa) = 27.65740 31.14946 29.40343
#
# Velocity S-wave (km/s) = 3.57924 3.79849 3.69049
# Velocity P-wave (km/s) = 6.69184 7.01853 6.85713
#
# Compressibility (1/GPa) = 0.01672250
#
# Stress axis : x y z
#
# Youngs Moduli (GPa) = 92.02055 95.37348 86.50089
#
# Poissons Ratio (x) = 0.39287 -0.05321
# Poissons Ratio (y) = 0.37906 0.39713
# Poissons Ratio (z) = -0.05661 0.43786
#
# Static dielectric constant tensor:
#      x y z
#    x 1.848610 0.000000 0.000000 
#    y 0.000000 1.832980 0.000000 
#    z 0.000000 0.000000 1.771720 
# 
# From -- ./inp_files/9716.got.cif
#   From: 2010.05.17/outbox.cif.g08.bks.cpg/sg62_5_cif.got.tgz:9716.got - 2010.06.03 15:25:27.
