data_PCOD9466406
_publ_section_title
;
Structure prediction by ZEFSAII (Michael W. Deem and Ramdas Pophale) SiO2 
 PCOD9466406
Probable space group: P N M A
;
_chemical_formula_sum "Si O2"
_cell_formula_units_Z 40
_cell_length_a 11.661805
_cell_length_b 13.970046
_cell_length_c 11.911357
_cell_angle_alpha 90.000000
_cell_angle_beta 90.000000
_cell_angle_gamma 90.000000
_cell_volume 1940.550069
_symmetry_space_group_name_H-M "P N M A"
_symmetry_group_IT_number 62
_symmetry_cell_setting 'orthorhombic'
loop_
_space_group_symop_operation_xyz
x,y,z
1/2-x,-y,1/2+z
1/2+x,1/2-y,1/2-z
-x,1/2+y,-z
-x,-y,-z
1/2+x,y,1/2-z
1/2-x,1/2+y,1/2+z
x,1/2-y,z
loop_
_atom_site_type_symbol
_atom_site_label
_atom_site_fract_x
_atom_site_fract_y
_atom_site_fract_z
Si Si1 0.615821 0.861968 0.693383
Si Si2 0.898797 0.018300 0.412659
Si Si3 0.495548 0.139159 0.540069
Si Si4 0.764692 0.362847 0.825755
Si Si5 0.727598 0.459985 0.603037
O O1 0.646929 0.750000 0.706632
O O2 0.576360 0.910529 0.809605
O O3 0.521834 0.866546 0.593910
O O4 0.718383 0.930340 0.646835
O O5 0.794091 0.055713 0.488258
O O6 0.848777 0.919587 0.362904
O O7 0.000000 0.000000 0.500000
O O8 0.518917 0.250000 0.569271
O O9 0.374099 0.113033 0.596859
O O10 0.597999 0.075643 0.585512
O O11 0.747330 0.250000 0.831327
O O12 0.787273 0.398584 0.700105
#
# Coordination Sequence:
#
# PCOD9466406 Si02
#       5
#     8   8   8   8   8
#     4  10  23  42  66  94 127 169 217 268 325 389
#     4  11  26  42  63  94 134 173 215 268 328 391
#     4  10  21  42  69  95 125 169 221 271 332 398
#     4  10  23  42  66  95 127 167 213 269 332 390
#     4  11  23  40  69  94 130 168 219 270 328 393
#
# _framework density 20.612711000000001
#
# number of rings (size 3 to 8) (size 9 to 14) (size 15 to 20)
#    0.000    1.600    2.000    1.200    5.600    4.000 
#    0.000    2.000    0.000    0.000    0.000    0.000 
#    0.000    0.000    0.000    0.000    0.000    0.000 
#
# Total GULP energy -223445.484208 kJ/mol
# GULP energy per Si atom -5586.137105 kJ/mol
# Density = 2.056580 g / cm^3
# Si number density = 20.612711 Si / 1000 Ang^3
#
#
#
# Elastic Constant Matrix: (Units=GPa)
#
#
# Indices 1 2 3 4 5 6 
#
# 1 48.6194 57.8143 26.1673 0.0000 0.0000 0.0000
# 2 57.8143 124.6372 58.4144 0.0000 0.0000 0.0000
# 3 26.1673 58.4144 142.4103 0.0000 0.0000 0.0000
# 4 0.0000 0.0000 0.0000 31.3259 0.0000 0.0000
# 5 0.0000 0.0000 0.0000 0.0000 20.0716 0.0000
# 6 0.0000 0.0000 0.0000 0.0000 0.0000 18.2065
#
#
#
# Elastic Compliance Matrix: (Units=1/GPa)
#
#
# Indices 1 2 3 4 5 6 
#
# 1 0.045884 -0.021457 0.000371 0.000000 0.000000 0.000000
# 2 -0.021457 0.019967 -0.004248 0.000000 0.000000 0.000000
# 3 0.000371 -0.004248 0.008696 0.000000 0.000000 0.000000
# 4 0.000000 0.000000 0.000000 0.031922 0.000000 0.000000
# 5 0.000000 0.000000 0.000000 0.000000 0.049822 0.000000
# 6 0.000000 0.000000 0.000000 0.000000 0.000000 0.054926
#
#
# Mechanical properties :
#
#
# Convention : Reuss Voigt Hill
#
# Bulk Modulus (GPa) = 41.87868 66.71765 54.29816
# Shear Modulus (GPa) = 18.52913 25.47220 22.00067
#
# Velocity S-wave (km/s) = 3.00145 3.51914 3.27055
# Velocity P-wave (km/s) = 5.68969 6.99643 6.37662
#
# Compressibility (1/GPa) = 0.02387850
#
# Stress axis : x y z
#
# Youngs Moduli (GPa) = 21.79408 50.08198 114.99338
#
# Poissons Ratio (x) = 1.07463 -0.04261
# Poissons Ratio (y) = 0.46765 0.48844
# Poissons Ratio (z) = -0.00807 0.21273
#
# Static dielectric constant tensor:
#      x y z
#    x 1.725880 0.000000 0.000000 
#    y 0.000000 1.753870 0.000000 
#    z 0.000000 0.000000 1.773950 
# 
# From -- ./inp_files/12058.got.cif
#   From: 2010.05.17/outbox.cif.g08.bks.cpg/sg62_7_cif.got.tgz:12058.got - 2010.06.03 15:25:27.
