data_PCOD9466165
_publ_section_title
;
Structure prediction by ZEFSAII (Michael W. Deem and Ramdas Pophale) SiO2 
 PCOD9466165
Probable space group: P N M A
;
_chemical_formula_sum "Si O2"
_cell_formula_units_Z 52
_cell_length_a 14.551868
_cell_length_b 16.957330
_cell_length_c 7.540609
_cell_angle_alpha 90.000000
_cell_angle_beta 90.000000
_cell_angle_gamma 90.000000
_cell_volume 1860.726919
_symmetry_space_group_name_H-M "P N M A"
_symmetry_group_IT_number 62
_symmetry_cell_setting 'orthorhombic'
loop_
_space_group_symop_operation_xyz
x,y,z
1/2-x,-y,1/2+z
1/2+x,1/2-y,1/2-z
-x,1/2+y,-z
-x,-y,-z
1/2+x,y,1/2-z
1/2-x,1/2+y,1/2+z
x,1/2-y,z
loop_
_atom_site_type_symbol
_atom_site_label
_atom_site_fract_x
_atom_site_fract_y
_atom_site_fract_z
Si Si1 0.768204 0.389820 0.991875
Si Si2 0.990040 0.076703 0.182641
Si Si3 0.414520 0.750000 0.403797
Si Si4 0.504362 0.250000 0.219930
Si Si5 0.786037 0.933802 0.862934
Si Si6 0.642517 0.250000 0.931732
Si Si7 0.988050 0.410689 0.777955
Si Si8 0.327565 0.162270 0.870525
O O1 0.777819 0.407036 0.199554
O O2 0.762421 0.475729 0.904361
O O3 0.680015 0.332732 0.001155
O O4 0.823134 0.338858 0.845400
O O5 0.961088 0.163982 0.246046
O O6 0.961749 0.992984 0.268183
O O7 0.103979 0.074524 0.177252
O O8 0.953748 0.070906 0.979873
O O9 0.420158 0.750000 0.613914
O O10 0.327199 0.750000 0.276454
O O11 0.460320 0.670981 0.322066
O O12 0.543901 0.250000 0.024129
O O13 0.755717 0.880489 0.029143
O O14 0.916754 0.394178 0.621470
O O15 0.343634 0.250000 0.940262
#
# Coordination Sequence:
#
# PCOD9466165 Si02
#       8
#     8   8   4   4   8   4   8   8
#     4  12  25  41  69 100 141 172 238 291 358 423
#     4  10  21  39  73  96 130 187 232 284 362 420
#     4  10  24  43  73  94 138 187 235 273 359 427
#     4  10  22  40  67  95 136 174 227 289 339 411
#     4  12  25  44  70 103 139 185 237 302 357 430
#     4  12  26  41  66 109 136 175 236 296 334 438
#     4  10  21  43  67  98 137 183 231 286 351 431
#     4  12  26  42  68 100 144 189 228 295 369 424
#
# _framework density 27.946069000000001
#
# number of rings (size 3 to 8) (size 9 to 14) (size 15 to 20)
#    0.000    0.923    6.154    0.000    6.462    0.000 
#    0.000    3.846    0.000    0.000    0.000    0.000 
#    0.000    0.000    0.000    0.000    0.000    0.000 
#
# Total GULP energy -290198.525757 kJ/mol
# GULP energy per Si atom -5580.740880 kJ/mol
# Density = 2.788246 g / cm^3
# Si number density = 27.946069 Si / 1000 Ang^3
#
#
#
# Elastic Constant Matrix: (Units=GPa)
#
#
# Indices 1 2 3 4 5 6 
#
# 1 66.9051 39.1453 8.8543 0.0000 0.0000 0.0000
# 2 39.1453 250.6168 40.4778 0.0000 0.0000 0.0000
# 3 8.8543 40.4778 127.8416 0.0000 0.0000 0.0000
# 4 0.0000 0.0000 0.0000 50.9642 0.0000 0.0000
# 5 0.0000 0.0000 0.0000 0.0000 34.5403 0.0000
# 6 0.0000 0.0000 0.0000 0.0000 0.0000 -92.3471
#
#
#
# Elastic Compliance Matrix: (Units=1/GPa)
#
#
# Indices 1 2 3 4 5 6 
#
# 1 0.016464 -0.002516 -0.000344 0.000000 0.000000 0.000000
# 2 -0.002516 0.004590 -0.001279 0.000000 0.000000 0.000000
# 3 -0.000344 -0.001279 0.008251 0.000000 0.000000 0.000000
# 4 0.000000 0.000000 0.000000 0.019622 0.000000 0.000000
# 5 0.000000 0.000000 0.000000 0.000000 0.028952 0.000000
# 6 0.000000 0.000000 0.000000 0.000000 0.000000 -0.010829
#
#
# Mechanical properties :
#
#
# Convention : Reuss Voigt Hill
#
# Bulk Modulus (GPa) = 47.55705 69.14648 58.35176
# Shear Modulus (GPa) = 60.72673 22.42387 41.57530
#
# Velocity S-wave (km/s) = 4.66660 2.83574 3.86125
# Velocity P-wave (km/s) = 6.78900 5.95973 6.38784
#
# Compressibility (1/GPa) = 0.02102738
#
# Stress axis : x y z
#
# Youngs Moduli (GPa) = 60.73793 217.87761 121.19844
#
# Poissons Ratio (x) = 0.54821 0.04165
# Poissons Ratio (y) = 0.15282 0.15501
# Poissons Ratio (z) = 0.02087 0.27866
#
# Static dielectric constant tensor:
#      x y z
#    x 2.533600 0.000000 0.000000 
#    y 0.000000 2.283290 0.000000 
#    z 0.000000 0.000000 2.131950 
# 
# From -- ./inp_files/7948.got.cif
#   From: 2010.05.17/outbox.cif.g08.bks.cpg/sg62_4_cif.got.tgz:7948.got - 2010.06.03 15:25:27.
