data_PCOD9466921
_publ_section_title
;
Structure prediction by ZEFSAII (Michael W. Deem and Ramdas Pophale) SiO2 
 PCOD9466921
Probable space group: P N M A
;
_chemical_formula_sum "Si O2"
_cell_formula_units_Z 32
_cell_length_a 14.394563
_cell_length_b 17.251455
_cell_length_c 4.895148
_cell_angle_alpha 90.000000
_cell_angle_beta 90.000000
_cell_angle_gamma 90.000000
_cell_volume 1215.598180
_symmetry_space_group_name_H-M "P N M A"
_symmetry_group_IT_number 62
_symmetry_cell_setting 'orthorhombic'
loop_
_space_group_symop_operation_xyz
x,y,z
1/2-x,-y,1/2+z
1/2+x,1/2-y,1/2-z
-x,1/2+y,-z
-x,-y,-z
1/2+x,y,1/2-z
1/2-x,1/2+y,1/2+z
x,1/2-y,z
loop_
_atom_site_type_symbol
_atom_site_label
_atom_site_fract_x
_atom_site_fract_y
_atom_site_fract_z
Si Si1 0.715137 0.837391 0.602111
Si Si2 0.535722 0.250000 0.567785
Si Si3 0.931875 0.450579 0.190086
Si Si4 0.900347 0.250000 0.455511
Si Si5 0.095276 0.106250 0.578373
O O1 0.717204 0.750000 0.484813
O O2 0.637428 0.898404 0.509651
O O3 0.669472 0.821030 0.899071
O O4 0.819687 0.864194 0.602365
O O5 0.447602 0.250000 0.762037
O O6 0.584272 0.329766 0.676502
O O7 0.487170 0.250000 0.268468
O O8 0.875937 0.519973 0.331524
O O9 0.000290 0.407018 0.405698
O O10 0.000000 0.500000 0.000000
#
# Coordination Sequence:
#
# PCOD9466921 Si02
#       5
#     8   4   8   4   8
#     4  10  22  46  66 108 137 189 244 299 363 443
#     4  12  21  48  71 105 143 198 233 300 363 435
#     4  11  25  45  69  99 144 187 240 306 367 437
#     4  10  23  42  75  99 151 180 247 292 355 429
#     4  11  24  43  71 102 143 190 242 302 370 439
#
# _framework density 26.324487000000001
#
# number of rings (size 3 to 8) (size 9 to 14) (size 15 to 20)
#    0.750    0.500    3.750    1.500    3.500    0.000 
#    4.500    2.500    0.000    0.000    0.000    0.000 
#    0.000    0.000    0.000    0.000    0.000    0.000 
#
# Total GULP energy -178541.063747 kJ/mol
# GULP energy per Si atom -5579.408242 kJ/mol
# Density = 2.626457 g / cm^3
# Si number density = 26.324487 Si / 1000 Ang^3
#
#
#
# Elastic Constant Matrix: (Units=GPa)
#
#
# Indices 1 2 3 4 5 6 
#
# 1 148.3661 78.1007 18.4391 0.0000 0.0000 0.0000
# 2 78.1007 189.3989 31.4373 0.0000 0.0000 0.0000
# 3 18.4391 31.4373 55.3676 0.0000 0.0000 0.0000
# 4 0.0000 0.0000 0.0000 37.5919 0.0000 0.0000
# 5 0.0000 0.0000 0.0000 0.0000 13.4044 0.0000
# 6 0.0000 0.0000 0.0000 0.0000 0.0000 59.0594
#
#
#
# Elastic Compliance Matrix: (Units=1/GPa)
#
#
# Indices 1 2 3 4 5 6 
#
# 1 0.008653 -0.003411 -0.000945 0.000000 0.000000 0.000000
# 2 -0.003411 0.007174 -0.002937 0.000000 0.000000 0.000000
# 3 -0.000945 -0.002937 0.020044 0.000000 0.000000 0.000000
# 4 0.000000 0.000000 0.000000 0.026601 0.000000 0.000000
# 5 0.000000 0.000000 0.000000 0.000000 0.074602 0.000000
# 6 0.000000 0.000000 0.000000 0.000000 0.000000 0.016932
#
#
# Mechanical properties :
#
#
# Convention : Reuss Voigt Hill
#
# Bulk Modulus (GPa) = 46.98401 72.12076 59.55239
# Shear Modulus (GPa) = 28.45942 39.68818 34.07380
#
# Velocity S-wave (km/s) = 3.29158 3.88706 3.60165
# Velocity P-wave (km/s) = 5.68619 6.89942 6.32197
#
# Compressibility (1/GPa) = 0.02128384
#
# Stress axis : x y z
#
# Youngs Moduli (GPa) = 115.56259 139.38900 49.89139
#
# Poissons Ratio (x) = 0.47552 0.04714
# Poissons Ratio (y) = 0.39424 0.14655
# Poissons Ratio (z) = 0.10918 0.40943
#
# Static dielectric constant tensor:
#      x y z
#    x 2.058270 0.000000 0.000000 
#    y 0.000000 2.638870 0.000000 
#    z 0.000000 0.000000 2.200650 
# 
# From -- ./inp_files/938.got.cif
#   From: 2010.05.17/outbox.cif.g08.bks.cpg/sg62_1_cif.got.tgz:938.got - 2010.06.03 15:25:27.
