data_PCOD9466268
_publ_section_title
;
Structure prediction by ZEFSAII (Michael W. Deem and Ramdas Pophale) SiO2 
 PCOD9466268
Probable space group: P N M A
;
_chemical_formula_sum "Si O2"
_cell_formula_units_Z 40
_cell_length_a 11.808410
_cell_length_b 10.820361
_cell_length_c 13.208790
_cell_angle_alpha 90.000000
_cell_angle_beta 90.000000
_cell_angle_gamma 90.000000
_cell_volume 1687.703729
_symmetry_space_group_name_H-M "P N M A"
_symmetry_group_IT_number 62
_symmetry_cell_setting 'orthorhombic'
loop_
_space_group_symop_operation_xyz
x,y,z
1/2-x,-y,1/2+z
1/2+x,1/2-y,1/2-z
-x,1/2+y,-z
-x,-y,-z
1/2+x,y,1/2-z
1/2-x,1/2+y,1/2+z
x,1/2-y,z
loop_
_atom_site_type_symbol
_atom_site_label
_atom_site_fract_x
_atom_site_fract_y
_atom_site_fract_z
Si Si1 0.443698 0.887918 0.688529
Si Si2 0.265475 0.059935 0.666257
Si Si3 0.516646 0.393226 0.839494
Si Si4 0.868351 0.383023 0.029156
Si Si5 0.776000 0.384655 0.599045
O O1 0.459666 0.750000 0.730169
O O2 0.311238 0.920574 0.677178
O O3 0.509811 0.892366 0.581721
O O4 0.494674 0.997167 0.758356
O O5 0.142442 0.082294 0.620355
O O6 0.358811 0.117428 0.591809
O O7 0.263438 0.114172 0.778624
O O8 0.514930 0.250000 0.800969
O O9 0.410908 0.400132 0.915967
O O10 0.821037 0.250000 0.064877
O O11 0.794930 0.500260 0.061239
O O12 0.739199 0.250000 0.560621
#
# Coordination Sequence:
#
# PCOD9466268 Si02
#       5
#     8   8   8   8   8
#     4  10  23  40  61  94 130 161 204 263 318 365
#     4  11  22  40  65  90 122 169 210 248 309 378
#     4  10  21  40  66  90 121 167 213 254 306 375
#     4  11  23  40  64  94 128 164 206 258 314 369
#     4  10  22  40  62  90 123 161 209 258 306 369
#
# _framework density 23.700842000000002
#
# number of rings (size 3 to 8) (size 9 to 14) (size 15 to 20)
#    0.000    1.600    2.000    2.400    0.000    7.200 
#    0.000    0.000    0.000    0.000    0.000    0.000 
#    0.000    0.000    0.000    0.000    0.000    0.000 
#
# Total GULP energy -223286.045871 kJ/mol
# GULP energy per Si atom -5582.151147 kJ/mol
# Density = 2.364690 g / cm^3
# Si number density = 23.700842 Si / 1000 Ang^3
#
#
#
# Elastic Constant Matrix: (Units=GPa)
#
#
# Indices 1 2 3 4 5 6 
#
# 1 104.4119 62.3511 -10.2924 0.0000 0.0000 0.0000
# 2 62.3511 214.7492 41.9040 0.0000 0.0000 0.0000
# 3 -10.2924 41.9040 44.2806 0.0000 0.0000 0.0000
# 4 0.0000 0.0000 0.0000 18.1020 0.0000 0.0000
# 5 0.0000 0.0000 0.0000 0.0000 23.6879 0.0000
# 6 0.0000 0.0000 0.0000 0.0000 0.0000 34.1704
#
#
#
# Elastic Compliance Matrix: (Units=1/GPa)
#
#
# Indices 1 2 3 4 5 6 
#
# 1 0.013824 -0.005692 0.008599 0.000000 0.000000 0.000000
# 2 -0.005692 0.008055 -0.008945 0.000000 0.000000 0.000000
# 3 0.008599 -0.008945 0.033047 0.000000 0.000000 0.000000
# 4 0.000000 0.000000 0.000000 0.055242 0.000000 0.000000
# 5 0.000000 0.000000 0.000000 0.000000 0.042216 0.000000
# 6 0.000000 0.000000 0.000000 0.000000 0.000000 0.029265
#
#
# Mechanical properties :
#
#
# Convention : Reuss Voigt Hill
#
# Bulk Modulus (GPa) = 23.33678 61.26302 42.29990
# Shear Modulus (GPa) = 24.03755 33.15735 28.59745
#
# Velocity S-wave (km/s) = 3.18812 3.74437 3.47738
# Velocity P-wave (km/s) = 4.83941 6.67820 5.83173
#
# Compressibility (1/GPa) = 0.04285081
#
# Stress axis : x y z
#
# Youngs Moduli (GPa) = 72.33773 124.15174 30.25964
#
# Poissons Ratio (x) = 0.70664 -0.26022
# Poissons Ratio (y) = 0.41173 0.27068
# Poissons Ratio (z) = -0.62207 1.11058
#
# Static dielectric constant tensor:
#      x y z
#    x 1.937400 0.000000 0.000000 
#    y 0.000000 1.946240 0.000000 
#    z 0.000000 0.000000 1.937130 
# 
# From -- ./inp_files/18622.got.cif
#   From: 2010.05.17/outbox.cif.g08.bks.cpg/sg62_10_cif.got.tgz:18622.got - 2010.06.03 15:25:27.
