data_PCOD9466141
_publ_section_title
;
Structure prediction by ZEFSAII (Michael W. Deem and Ramdas Pophale) SiO2 
 PCOD9466141
Probable space group: P N M A
;
_chemical_formula_sum "Si O2"
_cell_formula_units_Z 48
_cell_length_a 13.724357
_cell_length_b 28.430657
_cell_length_c 4.963916
_cell_angle_alpha 90.000000
_cell_angle_beta 90.000000
_cell_angle_gamma 90.000000
_cell_volume 1936.882726
_symmetry_space_group_name_H-M "P N M A"
_symmetry_group_IT_number 62
_symmetry_cell_setting 'orthorhombic'
loop_
_space_group_symop_operation_xyz
x,y,z
1/2-x,-y,1/2+z
1/2+x,1/2-y,1/2-z
-x,1/2+y,-z
-x,-y,-z
1/2+x,y,1/2-z
1/2-x,1/2+y,1/2+z
x,1/2-y,z
loop_
_atom_site_type_symbol
_atom_site_label
_atom_site_fract_x
_atom_site_fract_y
_atom_site_fract_z
Si Si1 0.929550 0.150722 0.523770
Si Si2 0.208341 0.647904 0.971046
Si Si3 0.915497 0.250000 0.653108
Si Si4 0.718733 0.750000 0.650659
Si Si5 0.059421 0.068830 0.717414
Si Si6 0.385789 0.483897 0.815708
Si Si7 0.769927 0.564225 0.881031
O O1 0.885666 0.149275 0.226348
O O2 0.970021 0.202514 0.585325
O O3 0.013347 0.113782 0.579544
O O4 0.836725 0.146249 0.730549
O O5 0.262202 0.698097 0.916214
O O6 0.262851 0.600602 0.867388
O O7 0.819500 0.250000 0.457386
O O8 0.876600 0.250000 0.956320
O O9 0.082425 0.028459 0.497391
O O10 0.147090 0.081419 0.913304
O O11 0.967177 0.042529 0.859885
O O12 0.337286 0.444088 0.999965
O O13 0.303634 0.509572 0.645375
#
# Coordination Sequence:
#
# PCOD9466141 Si02
#       7
#     8   8   4   4   8   8   8
#     4  10  21  39  65  94 126 164 212 260 319 380
#     4  10  22  38  67  93 127 165 211 261 319 380
#     4   8  16  34  61  91 122 161 202 256 318 380
#     4   8  16  36  59  93 122 161 204 254 318 382
#     4  11  25  41  62  91 127 170 221 264 324 385
#     4  11  25  42  60  89 129 170 220 264 332 375
#     4  12  24  39  63  90 127 174 214 272 316 390
#
# _framework density 24.782088999999999
#
# number of rings (size 3 to 8) (size 9 to 14) (size 15 to 20)
#    0.000    1.667    3.333    0.500    7.000    0.000 
#    0.000    0.833    0.000    1.000    0.000    0.000 
#    0.000    0.000    0.000    0.000    0.000    0.000 
#
# Total GULP energy -268097.398232 kJ/mol
# GULP energy per Si atom -5585.362463 kJ/mol
# Density = 2.472568 g / cm^3
# Si number density = 24.782089 Si / 1000 Ang^3
#
#
#
# Elastic Constant Matrix: (Units=GPa)
#
#
# Indices 1 2 3 4 5 6 
#
# 1 54.4426 32.9516 8.0084 0.0000 0.0000 0.0000
# 2 32.9516 165.5943 -0.7936 0.0000 0.0000 0.0000
# 3 8.0084 -0.7936 60.9737 0.0000 0.0000 0.0000
# 4 0.0000 0.0000 0.0000 44.5009 0.0000 0.0000
# 5 0.0000 0.0000 0.0000 0.0000 24.7766 0.0000
# 6 0.0000 0.0000 0.0000 0.0000 0.0000 0.9500
#
#
#
# Elastic Compliance Matrix: (Units=1/GPa)
#
#
# Indices 1 2 3 4 5 6 
#
# 1 0.021371 -0.004266 -0.002862 0.000000 0.000000 0.000000
# 2 -0.004266 0.006891 0.000650 0.000000 0.000000 0.000000
# 3 -0.002862 0.000650 0.016785 0.000000 0.000000 0.000000
# 4 0.000000 0.000000 0.000000 0.022471 0.000000 0.000000
# 5 0.000000 0.000000 0.000000 0.000000 0.040361 0.000000
# 6 0.000000 0.000000 0.000000 0.000000 0.000000 1.052604
#
#
# Mechanical properties :
#
#
# Convention : Reuss Voigt Hill
#
# Bulk Modulus (GPa) = 31.16285 40.14929 35.65607
# Shear Modulus (GPa) = 4.22248 30.10177 17.16213
#
# Velocity S-wave (km/s) = 1.30673 3.48898 2.63443
# Velocity P-wave (km/s) = 3.85730 5.69796 4.86546
#
# Compressibility (1/GPa) = 0.03208949
#
# Stress axis : x y z
#
# Youngs Moduli (GPa) = 46.79177 145.11805 59.57724
#
# Poissons Ratio (x) = 0.61913 0.17054
# Poissons Ratio (y) = 0.19963 -0.03873
# Poissons Ratio (z) = 0.13394 -0.09433
#
# Static dielectric constant tensor:
#      x y z
#    x 2.134390 0.000000 0.000000 
#    y 0.000000 2.027360 0.000000 
#    z 0.000000 0.000000 2.027380 
# 
# From -- ./inp_files/1185.got.cif
#   From: 2010.05.17/outbox.cif.g08.bks.cpg/sg62_1_cif.got.tgz:1185.got - 2010.06.03 15:25:27.
