data_PCOD9466596
_publ_section_title
;
Structure prediction by ZEFSAII (Michael W. Deem and Ramdas Pophale) SiO2 
 PCOD9466596
Probable space group: P N M A
;
_chemical_formula_sum "Si O2"
_cell_formula_units_Z 48
_cell_length_a 28.000406
_cell_length_b 9.367765
_cell_length_c 9.708794
_cell_angle_alpha 90.000000
_cell_angle_beta 90.000000
_cell_angle_gamma 90.000000
_cell_volume 2546.628543
_symmetry_space_group_name_H-M "P N M A"
_symmetry_group_IT_number 62
_symmetry_cell_setting 'orthorhombic'
loop_
_space_group_symop_operation_xyz
x,y,z
1/2-x,-y,1/2+z
1/2+x,1/2-y,1/2-z
-x,1/2+y,-z
-x,-y,-z
1/2+x,y,1/2-z
1/2-x,1/2+y,1/2+z
x,1/2-y,z
loop_
_atom_site_type_symbol
_atom_site_label
_atom_site_fract_x
_atom_site_fract_y
_atom_site_fract_z
Si Si1 0.896606 0.916614 0.685620
Si Si2 0.950337 0.919935 0.969191
Si Si3 0.795453 0.078206 0.347342
Si Si4 0.547592 0.584766 0.967213
Si Si5 0.394879 0.416437 0.305002
Si Si6 0.289172 0.580742 0.860659
O O1 0.903282 0.750000 0.646900
O O2 0.930557 0.945330 0.815414
O O3 0.840563 0.938084 0.712764
O O4 0.911443 0.017007 0.560885
O O5 0.956484 0.750000 0.987299
O O6 0.910317 0.982091 0.071734
O O7 0.000000 0.000000 0.000000
O O8 0.794179 0.250000 0.368096
O O9 0.845604 0.045222 0.271616
O O10 0.752993 0.037505 0.242640
O O11 0.790017 0.001782 0.494339
O O12 0.541194 0.750000 0.001055
O O13 0.563553 0.574052 0.809430
O O14 0.500000 0.500000 0.000000
O O15 0.391506 0.250000 0.349392
O O16 0.283487 0.750000 0.889062
#
# Coordination Sequence:
#
# PCOD9466596 Si02
#       6
#     8   8   8   8   8   8
#     4  10  22  40  59  85 120 154 196 246 293 349
#     4  11  24  40  60  88 120 160 202 247 298 354
#     4  10  22  41  63  90 123 156 196 246 298 355
#     4  11  22  37  60  88 116 154 196 243 298 353
#     4  10  22  40  59  85 121 156 195 245 295 351
#     4  10  22  40  63  90 120 155 196 244 297 354
#
# _framework density 18.84845
#
# number of rings (size 3 to 8) (size 9 to 14) (size 15 to 20)
#    0.000    1.667    1.667    2.000    2.333    8.000 
#    0.000    0.000    0.000    0.000    0.000    0.000 
#    0.000    0.000    0.000    0.000    0.000    0.000 
#
# Total GULP energy -268131.545740 kJ/mol
# GULP energy per Si atom -5586.073870 kJ/mol
# Density = 1.880555 g / cm^3
# Si number density = 18.848450 Si / 1000 Ang^3
#
#
#
# Elastic Constant Matrix: (Units=GPa)
#
#
# Indices 1 2 3 4 5 6 
#
# 1 71.3492 9.5869 7.9335 0.0000 0.0000 0.0000
# 2 9.5869 39.4988 33.9737 0.0000 0.0000 0.0000
# 3 7.9335 33.9737 65.2613 0.0000 0.0000 0.0000
# 4 0.0000 0.0000 0.0000 35.2658 0.0000 0.0000
# 5 0.0000 0.0000 0.0000 0.0000 31.7240 0.0000
# 6 0.0000 0.0000 0.0000 0.0000 0.0000 29.4658
#
#
#
# Elastic Compliance Matrix: (Units=1/GPa)
#
#
# Indices 1 2 3 4 5 6 
#
# 1 0.014489 -0.003625 0.000126 0.000000 0.000000 0.000000
# 2 -0.003625 0.046751 -0.023897 0.000000 0.000000 0.000000
# 3 0.000126 -0.023897 0.027748 0.000000 0.000000 0.000000
# 4 0.000000 0.000000 0.000000 0.028356 0.000000 0.000000
# 5 0.000000 0.000000 0.000000 0.000000 0.031522 0.000000
# 6 0.000000 0.000000 0.000000 0.000000 0.000000 0.033938
#
#
# Mechanical properties :
#
#
# Convention : Reuss Voigt Hill
#
# Bulk Modulus (GPa) = 29.24340 31.01083 30.12712
# Shear Modulus (GPa) = 20.08073 27.59881 23.83977
#
# Velocity S-wave (km/s) = 3.26755 3.83070 3.56028
# Velocity P-wave (km/s) = 5.45753 6.00451 5.73754
#
# Compressibility (1/GPa) = 0.03419575
#
# Stress axis : x y z
#
# Youngs Moduli (GPa) = 69.01962 21.38970 36.03844
#
# Poissons Ratio (x) = 0.07753 -0.00453
# Poissons Ratio (y) = 0.25017 0.86122
# Poissons Ratio (z) = -0.00867 0.51115
#
# Static dielectric constant tensor:
#      x y z
#    x 1.680210 0.000000 0.000000 
#    y 0.000000 1.630230 0.000000 
#    z 0.000000 0.000000 1.627450 
# 
# From -- ./inp_files/10242.got.cif
#   From: 2010.05.17/outbox.cif.g08.bks.cpg/sg62_6_cif.got.tgz:10242.got - 2010.06.03 15:25:27.
