data_PCOD9466459
_publ_section_title
;
Structure prediction by ZEFSAII (Michael W. Deem and Ramdas Pophale) SiO2 
 PCOD9466459
Probable space group: P N M A
;
_chemical_formula_sum "Si O2"
_cell_formula_units_Z 64
_cell_length_a 5.585323
_cell_length_b 26.983087
_cell_length_c 18.896472
_cell_angle_alpha 90.000000
_cell_angle_beta 90.000000
_cell_angle_gamma 90.000000
_cell_volume 2847.873244
_symmetry_space_group_name_H-M "P N M A"
_symmetry_group_IT_number 62
_symmetry_cell_setting 'orthorhombic'
loop_
_space_group_symop_operation_xyz
x,y,z
1/2-x,-y,1/2+z
1/2+x,1/2-y,1/2-z
-x,1/2+y,-z
-x,-y,-z
1/2+x,y,1/2-z
1/2-x,1/2+y,1/2+z
x,1/2-y,z
loop_
_atom_site_type_symbol
_atom_site_label
_atom_site_fract_x
_atom_site_fract_y
_atom_site_fract_z
Si Si1 0.182593 0.902812 0.427413
Si Si2 0.907666 0.947487 0.928726
Si Si3 0.917775 0.310368 0.218382
Si Si4 0.275491 0.927022 0.729684
Si Si5 0.226570 0.190451 0.431751
Si Si6 0.230227 0.191116 0.988974
Si Si7 0.751426 0.539910 0.215040
Si Si8 0.199143 0.041137 0.516296
O O1 0.295120 0.919855 0.503242
O O2 0.242465 0.845325 0.421959
O O3 0.254575 0.938242 0.363570
O O4 0.902432 0.914162 0.439011
O O5 0.801058 0.934335 0.854039
O O6 0.873327 0.006655 0.938017
O O7 0.188513 0.940137 0.943263
O O8 0.704530 0.320171 0.275704
O O9 0.916489 0.250000 0.214177
O O10 0.798661 0.329562 0.145263
O O11 0.522883 0.902894 0.753691
O O12 0.257250 0.979941 0.772608
O O13 0.209357 0.250000 0.425870
O O14 0.467016 0.181269 0.478031
O O15 0.963688 0.176670 0.462337
O O16 0.246818 0.250000 0.975491
O O17 0.497793 0.556561 0.248137
O O18 0.000000 0.000000 0.500000
#
# Coordination Sequence:
#
# PCOD9466459 Si02
#       8
#     8   8   8   8   8   8   8   8
#     4  11  24  38  66  94 125 169 221 267 313 387
#     4  10  22  36  61  92 129 170 213 262 312 382
#     4   9  15  24  45  76 106 138 179 233 304 385
#     4  10  22  36  57  84 127 172 204 246 312 373
#     4   9  18  34  54  82 115 150 199 264 330 372
#     4  10  22  39  61  88 120 159 207 275 330 365
#     4  10  23  38  59  90 130 163 203 254 312 375
#     4   9  20  33  57  89 125 154 208 256 306 368
#
# _framework density 22.472909999999999
#
# number of rings (size 3 to 8) (size 9 to 14) (size 15 to 20)
#    0.000    2.250    0.000    2.250   17.500    3.000 
#    0.000    0.000    0.000    5.250    0.000    0.000 
#    0.000    0.000    0.000    0.000    0.000    0.000 
#
# Total GULP energy -356929.999622 kJ/mol
# GULP energy per Si atom -5577.031244 kJ/mol
# Density = 2.242176 g / cm^3
# Si number density = 22.472910 Si / 1000 Ang^3
#
#
#
# Elastic Constant Matrix: (Units=GPa)
#
#
# Indices 1 2 3 4 5 6 
#
# 1 141.8816 32.6287 40.8257 0.0000 0.0000 0.0000
# 2 32.6287 63.6573 26.2666 0.0000 0.0000 0.0000
# 3 40.8257 26.2666 82.8353 0.0000 0.0000 0.0000
# 4 0.0000 0.0000 0.0000 20.8749 0.0000 0.0000
# 5 0.0000 0.0000 0.0000 0.0000 23.8954 0.0000
# 6 0.0000 0.0000 0.0000 0.0000 0.0000 27.4589
#
#
#
# Elastic Compliance Matrix: (Units=1/GPa)
#
#
# Indices 1 2 3 4 5 6 
#
# 1 0.008714 -0.003100 -0.003312 0.000000 0.000000 0.000000
# 2 -0.003100 0.019177 -0.004553 0.000000 0.000000 0.000000
# 3 -0.003312 -0.004553 0.015148 0.000000 0.000000 0.000000
# 4 0.000000 0.000000 0.000000 0.047904 0.000000 0.000000
# 5 0.000000 0.000000 0.000000 0.000000 0.041849 0.000000
# 6 0.000000 0.000000 0.000000 0.000000 0.000000 0.036418
#
#
# Mechanical properties :
#
#
# Convention : Reuss Voigt Hill
#
# Bulk Modulus (GPa) = 47.37235 54.20180 50.78707
# Shear Modulus (GPa) = 25.23006 27.02272 26.12639
#
# Velocity S-wave (km/s) = 3.35429 3.47141 3.41335
# Velocity P-wave (km/s) = 6.01059 6.34339 6.17923
#
# Compressibility (1/GPa) = 0.02110936
#
# Stress axis : x y z
#
# Youngs Moduli (GPa) = 114.75825 52.14648 66.01506
#
# Poissons Ratio (x) = 0.16165 0.21862
# Poissons Ratio (y) = 0.35575 0.30057
# Poissons Ratio (z) = 0.38005 0.23742
#
# Static dielectric constant tensor:
#      x y z
#    x 2.022020 0.000000 0.000000 
#    y 0.000000 1.951950 0.000000 
#    z 0.000000 0.000000 1.866290 
# 
# From -- ./inp_files/21699.got.cif
#   From: 2010.05.17/outbox.cif.g08.bks.cpg/sg62_11_cif.got.tgz:21699.got - 2010.06.03 15:25:27.
