data_PCOD9466561
_publ_section_title
;
Structure prediction by ZEFSAII (Michael W. Deem and Ramdas Pophale) SiO2 
 PCOD9466561
Probable space group: P N M A
;
_chemical_formula_sum "Si O2"
_cell_formula_units_Z 32
_cell_length_a 9.009551
_cell_length_b 11.033382
_cell_length_c 13.735280
_cell_angle_alpha 90.000000
_cell_angle_beta 90.000000
_cell_angle_gamma 90.000000
_cell_volume 1365.366742
_symmetry_space_group_name_H-M "P N M A"
_symmetry_group_IT_number 62
_symmetry_cell_setting 'orthorhombic'
loop_
_space_group_symop_operation_xyz
x,y,z
1/2-x,-y,1/2+z
1/2+x,1/2-y,1/2-z
-x,1/2+y,-z
-x,-y,-z
1/2+x,y,1/2-z
1/2-x,1/2+y,1/2+z
x,1/2-y,z
loop_
_atom_site_type_symbol
_atom_site_label
_atom_site_fract_x
_atom_site_fract_y
_atom_site_fract_z
Si Si1 0.764387 0.120931 0.639156
Si Si2 0.588966 0.617193 0.711833
Si Si3 0.640944 0.453887 0.440182
Si Si4 0.935532 0.523046 0.393679
O O1 0.711069 0.250000 0.679474
O O2 0.727144 0.120492 0.523291
O O3 0.687101 0.999138 0.679663
O O4 0.941253 0.108868 0.653960
O O5 0.653749 0.750000 0.691114
O O6 0.433610 0.607986 0.653046
O O7 0.564771 0.596153 0.826064
O O8 0.500000 0.500000 0.500000
O O9 0.761655 0.553536 0.405774
O O10 0.000000 0.500000 0.500000
#
# Coordination Sequence:
#
# PCOD9466561 Si02
#       4
#     8   8   8   8
#     4  10  22  41  64  94 133 174 218 273 336 399
#     4  11  23  41  68  99 130 171 222 274 330 394
#     4   9  20  41  64  93 131 174 219 270 326 390
#     4  10  22  39  61  92 129 171 218 271 326 385
#
# _framework density 23.436927000000001
#
# number of rings (size 3 to 8) (size 9 to 14) (size 15 to 20)
#    0.000    2.000    0.000    2.250    0.000    9.000 
#    0.000   20.000    0.000    0.000    0.000    0.000 
#    0.000    0.000    0.000    0.000    0.000    0.000 
#
# Total GULP energy -178249.131906 kJ/mol
# GULP energy per Si atom -5570.285372 kJ/mol
# Density = 2.338358 g / cm^3
# Si number density = 23.436927 Si / 1000 Ang^3
#
#
#
# Elastic Constant Matrix: (Units=GPa)
#
#
# Indices 1 2 3 4 5 6 
#
# 1 162.3213 63.0353 23.0951 0.0000 0.0000 0.0000
# 2 63.0353 168.9041 33.5208 0.0000 0.0000 0.0000
# 3 23.0951 33.5208 111.6998 0.0000 0.0000 0.0000
# 4 0.0000 0.0000 0.0000 10.1342 0.0000 0.0000
# 5 0.0000 0.0000 0.0000 0.0000 26.7959 0.0000
# 6 0.0000 0.0000 0.0000 0.0000 0.0000 17.6532
#
#
#
# Elastic Compliance Matrix: (Units=1/GPa)
#
#
# Indices 1 2 3 4 5 6 
#
# 1 0.007261 -0.002564 -0.000732 0.000000 0.000000 0.000000
# 2 -0.002564 0.007201 -0.001631 0.000000 0.000000 0.000000
# 3 -0.000732 -0.001631 0.009593 0.000000 0.000000 0.000000
# 4 0.000000 0.000000 0.000000 0.098676 0.000000 0.000000
# 5 0.000000 0.000000 0.000000 0.000000 0.037319 0.000000
# 6 0.000000 0.000000 0.000000 0.000000 0.000000 0.056647
#
#
# Mechanical properties :
#
#
# Convention : Reuss Voigt Hill
#
# Bulk Modulus (GPa) = 70.41643 75.80307 73.10975
# Shear Modulus (GPa) = 21.61837 32.46825 27.04331
#
# Velocity S-wave (km/s) = 3.04041 3.72606 3.40056
# Velocity P-wave (km/s) = 6.51427 7.13618 6.83230
#
# Compressibility (1/GPa) = 0.01420123
#
# Stress axis : x y z
#
# Youngs Moduli (GPa) = 137.72983 138.86499 104.24002
#
# Poissons Ratio (x) = 0.35611 0.07626
# Poissons Ratio (y) = 0.35320 0.17000
# Poissons Ratio (z) = 0.10076 0.22647
#
# Static dielectric constant tensor:
#      x y z
#    x 1.962300 0.000000 0.000000 
#    y 0.000000 1.905890 0.000000 
#    z 0.000000 0.000000 1.955180 
# 
# From -- ./inp_files/21854.got.cif
#   From: 2010.05.17/outbox.cif.g08.bks.cpg/sg62_11_cif.got.tgz:21854.got - 2010.06.03 15:25:27.
