data_PCOD9466954
_publ_section_title
;
Structure prediction by ZEFSAII (Michael W. Deem and Ramdas Pophale) SiO2 
 PCOD9466954
Probable space group: P N M A
;
_chemical_formula_sum "Si O2"
_cell_formula_units_Z 32
_cell_length_a 10.350106
_cell_length_b 10.535279
_cell_length_c 14.769755
_cell_angle_alpha 90.000000
_cell_angle_beta 90.000000
_cell_angle_gamma 90.000000
_cell_volume 1610.512612
_symmetry_space_group_name_H-M "P N M A"
_symmetry_group_IT_number 62
_symmetry_cell_setting 'orthorhombic'
loop_
_space_group_symop_operation_xyz
x,y,z
1/2-x,-y,1/2+z
1/2+x,1/2-y,1/2-z
-x,1/2+y,-z
-x,-y,-z
1/2+x,y,1/2-z
1/2-x,1/2+y,1/2+z
x,1/2-y,z
loop_
_atom_site_type_symbol
_atom_site_label
_atom_site_fract_x
_atom_site_fract_y
_atom_site_fract_z
Si Si1 0.383970 0.250000 0.172511
Si Si2 0.643811 0.547084 0.983391
Si Si3 0.595612 0.984287 0.416538
Si Si4 0.993554 0.750000 0.201708
Si Si5 0.301226 0.250000 0.861605
Si Si6 0.387488 0.750000 0.691129
O O1 0.374317 0.132824 0.105276
O O2 0.255701 0.250000 0.232707
O O3 0.508773 0.250000 0.231497
O O4 0.761055 0.454817 0.955563
O O5 0.500000 0.500000 0.000000
O O6 0.691113 0.630092 0.069606
O O7 0.598977 0.121970 0.367721
O O8 0.500000 0.000000 0.500000
O O9 0.543678 0.875098 0.350849
O O10 0.071814 0.750000 0.297067
O O11 0.835404 0.750000 0.194015
#
# Coordination Sequence:
#
# PCOD9466954 Si02
#       6
#     4   8   8   4   4   4
#     4   9  22  40  62  94 125 167 214 271 320 384
#     4  10  23  43  67  91 139 175 223 269 341 399
#     4  11  23  44  68  95 132 180 218 271 338 398
#     4  12  27  41  73 100 137 174 238 279 345 404
#     4  11  26  45  63 103 142 176 221 298 334 406
#     4  10  23  40  66  93 130 163 219 268 319 388
#
# _framework density 19.869451000000002
#
# number of rings (size 3 to 8) (size 9 to 14) (size 15 to 20)
#    0.000    1.500    2.500    1.500    7.000    5.000 
#    0.000    0.000    0.000    0.000    0.000    0.000 
#    0.000    0.000    0.000    0.000    0.000    0.000 
#
# Total GULP energy -178490.531733 kJ/mol
# GULP energy per Si atom -5577.829117 kJ/mol
# Density = 1.982423 g / cm^3
# Si number density = 19.869451 Si / 1000 Ang^3
#
#
#
# Elastic Constant Matrix: (Units=GPa)
#
#
# Indices 1 2 3 4 5 6 
#
# 1 194.3250 15.5409 56.9116 0.0000 0.0000 0.0000
# 2 15.5409 65.3489 7.3514 0.0000 0.0000 0.0000
# 3 56.9116 7.3514 89.9715 0.0000 0.0000 0.0000
# 4 0.0000 0.0000 0.0000 32.3764 0.0000 0.0000
# 5 0.0000 0.0000 0.0000 0.0000 50.8496 0.0000
# 6 0.0000 0.0000 0.0000 0.0000 0.0000 26.4673
#
#
#
# Elastic Compliance Matrix: (Units=1/GPa)
#
#
# Indices 1 2 3 4 5 6 
#
# 1 0.006390 -0.001075 -0.003954 0.000000 0.000000 0.000000
# 2 -0.001075 0.015625 -0.000597 0.000000 0.000000 0.000000
# 3 -0.003954 -0.000597 0.013665 0.000000 0.000000 0.000000
# 4 0.000000 0.000000 0.000000 0.030887 0.000000 0.000000
# 5 0.000000 0.000000 0.000000 0.000000 0.019666 0.000000
# 6 0.000000 0.000000 0.000000 0.000000 0.000000 0.037782
#
#
# Mechanical properties :
#
#
# Convention : Reuss Voigt Hill
#
# Bulk Modulus (GPa) = 40.93630 56.58368 48.75999
# Shear Modulus (GPa) = 34.86524 39.92809 37.39667
#
# Velocity S-wave (km/s) = 4.19348 4.48763 4.34305
# Velocity P-wave (km/s) = 6.64036 7.44254 7.05286
#
# Compressibility (1/GPa) = 0.02442819
#
# Stress axis : x y z
#
# Youngs Moduli (GPa) = 156.49370 63.99909 73.18159
#
# Poissons Ratio (x) = 0.06879 0.28937
# Poissons Ratio (y) = 0.16820 0.04368
# Poissons Ratio (z) = 0.61881 0.03820
#
# Static dielectric constant tensor:
#      x y z
#    x 1.749350 0.000000 0.000000 
#    y 0.000000 1.721930 0.000000 
#    z 0.000000 0.000000 1.671230 
# 
# From -- ./inp_files/16494.got.cif
#   From: 2010.05.17/outbox.cif.g08.bks.cpg/sg62_9_cif.got.tgz:16494.got - 2010.06.03 15:25:27.
