data_PCOD9466231
_publ_section_title
;
Structure prediction by ZEFSAII (Michael W. Deem and Ramdas Pophale) SiO2 
 PCOD9466231
Probable space group: P N M A
;
_chemical_formula_sum "Si O2"
_cell_formula_units_Z 48
_cell_length_a 28.815085
_cell_length_b 8.859001
_cell_length_c 9.708428
_cell_angle_alpha 90.000000
_cell_angle_beta 90.000000
_cell_angle_gamma 90.000000
_cell_volume 2478.298248
_symmetry_space_group_name_H-M "P N M A"
_symmetry_group_IT_number 62
_symmetry_cell_setting 'orthorhombic'
loop_
_space_group_symop_operation_xyz
x,y,z
1/2-x,-y,1/2+z
1/2+x,1/2-y,1/2-z
-x,1/2+y,-z
-x,-y,-z
1/2+x,y,1/2-z
1/2-x,1/2+y,1/2+z
x,1/2-y,z
loop_
_atom_site_type_symbol
_atom_site_label
_atom_site_fract_x
_atom_site_fract_y
_atom_site_fract_z
Si Si1 0.801218 0.432110 0.502292
Si Si2 0.641057 0.929463 0.500938
Si Si3 0.963731 0.428340 0.105303
Si Si4 0.381756 0.066338 0.802980
Si Si5 0.512288 0.569060 0.145668
Si Si6 0.283407 0.569799 0.298142
O O1 0.801273 0.250000 0.488654
O O2 0.850970 0.479552 0.565826
O O3 0.763356 0.472842 0.618967
O O4 0.788916 0.499947 0.353831
O O5 0.652099 0.750000 0.504834
O O6 0.588424 0.948713 0.552816
O O7 0.641418 0.981082 0.341606
O O8 0.675308 0.015387 0.602279
O O9 0.972156 0.250000 0.116847
O O10 0.974489 0.508595 0.248028
O O11 0.000000 0.500000 0.000000
O O12 0.381747 0.250000 0.799843
O O13 0.435512 0.019953 0.810965
O O14 0.511929 0.750000 0.142531
O O15 0.500000 0.500000 0.000000
O O16 0.283723 0.750000 0.284208
#
# Coordination Sequence:
#
# PCOD9466231 Si02
#       6
#     8   8   8   8   8   8
#     4  10  22  41  64  87 119 159 197 240 298 365
#     4  10  21  40  64  87 119 164 203 241 302 368
#     4  11  22  39  63  90 121 165 209 253 305 361
#     4   9  19  39  63  85 114 161 205 237 291 366
#     4  11  23  40  60  88 125 163 208 255 301 362
#     4  11  24  40  62  94 123 152 197 252 298 350
#
# _framework density 19.368129
#
# number of rings (size 3 to 8) (size 9 to 14) (size 15 to 20)
#    0.000    1.667    1.667    2.500    2.333    4.000 
#    0.000    1.667    0.000    0.000    0.000    0.000 
#    0.000    0.000    0.000    0.000    0.000    0.000 
#
# Total GULP energy -268142.269992 kJ/mol
# GULP energy per Si atom -5586.297291 kJ/mol
# Density = 1.932405 g / cm^3
# Si number density = 19.368129 Si / 1000 Ang^3
#
#
#
# Elastic Constant Matrix: (Units=GPa)
#
#
# Indices 1 2 3 4 5 6 
#
# 1 48.7254 29.4930 20.5706 0.0000 0.0000 0.0000
# 2 29.4930 32.1197 23.5126 0.0000 0.0000 0.0000
# 3 20.5706 23.5126 137.1898 0.0000 0.0000 0.0000
# 4 0.0000 0.0000 0.0000 38.4665 0.0000 0.0000
# 5 0.0000 0.0000 0.0000 0.0000 35.6767 0.0000
# 6 0.0000 0.0000 0.0000 0.0000 0.0000 25.6929
#
#
#
# Elastic Compliance Matrix: (Units=1/GPa)
#
#
# Indices 1 2 3 4 5 6 
#
# 1 0.046220 -0.042727 0.000393 0.000000 0.000000 0.000000
# 2 -0.042727 0.075099 -0.006464 0.000000 0.000000 0.000000
# 3 0.000393 -0.006464 0.008338 0.000000 0.000000 0.000000
# 4 0.000000 0.000000 0.000000 0.025997 0.000000 0.000000
# 5 0.000000 0.000000 0.000000 0.000000 0.028029 0.000000
# 6 0.000000 0.000000 0.000000 0.000000 0.000000 0.038921
#
#
# Mechanical properties :
#
#
# Convention : Reuss Voigt Hill
#
# Bulk Modulus (GPa) = 31.19286 40.57637 35.88461
# Shear Modulus (GPa) = 15.11081 29.59780 22.35431
#
# Velocity S-wave (km/s) = 2.79622 3.91342 3.40101
# Velocity P-wave (km/s) = 5.15416 6.43548 5.83013
#
# Compressibility (1/GPa) = 0.03205862
#
# Stress axis : x y z
#
# Youngs Moduli (GPa) = 21.63573 13.31577 119.92977
#
# Poissons Ratio (x) = 0.56895 -0.04709
# Poissons Ratio (y) = 0.92444 0.77527
# Poissons Ratio (z) = -0.00849 0.08608
#
# Static dielectric constant tensor:
#      x y z
#    x 1.678830 0.000000 0.000000 
#    y 0.000000 1.654510 0.000000 
#    z 0.000000 0.000000 1.745740 
# 
# From -- ./inp_files/10203.got.cif
#   From: 2010.05.17/outbox.cif.g08.bks.cpg/sg62_6_cif.got.tgz:10203.got - 2010.06.03 15:25:27.
