data_PCOD9466824
_publ_section_title
;
Structure prediction by ZEFSAII (Michael W. Deem and Ramdas Pophale) SiO2 
 PCOD9466824
Probable space group: P N M A
;
_chemical_formula_sum "Si O2"
_cell_formula_units_Z 40
_cell_length_a 20.634795
_cell_length_b 14.919832
_cell_length_c 5.137661
_cell_angle_alpha 90.000000
_cell_angle_beta 90.000000
_cell_angle_gamma 90.000000
_cell_volume 1581.719746
_symmetry_space_group_name_H-M "P N M A"
_symmetry_group_IT_number 62
_symmetry_cell_setting 'orthorhombic'
loop_
_space_group_symop_operation_xyz
x,y,z
1/2-x,-y,1/2+z
1/2+x,1/2-y,1/2-z
-x,1/2+y,-z
-x,-y,-z
1/2+x,y,1/2-z
1/2-x,1/2+y,1/2+z
x,1/2-y,z
loop_
_atom_site_type_symbol
_atom_site_label
_atom_site_fract_x
_atom_site_fract_y
_atom_site_fract_z
Si Si1 0.057318 0.556904 0.363507
Si Si2 0.123995 0.151674 0.040391
Si Si3 0.477581 0.347733 0.344002
Si Si4 0.330592 0.509022 0.156878
Si Si5 0.747522 0.853340 0.601673
O O1 0.042559 0.584393 0.071241
O O2 0.126602 0.510356 0.402474
O O3 0.000000 0.500000 0.500000
O O4 0.056201 0.638729 0.567846
O O5 0.124512 0.250000 0.900720
O O6 0.055553 0.148426 0.188851
O O7 0.125152 0.068820 0.844903
O O8 0.188203 0.151554 0.217007
O O9 0.461353 0.250000 0.448469
O O10 0.306810 0.413112 0.258903
O O11 0.270488 0.577552 0.122570
O O12 0.730690 0.750000 0.532689
#
# Coordination Sequence:
#
# PCOD9466824 Si02
#       5
#     8   8   8   8   8
#     4  12  25  42  72 103 143 183 238 287 361 428
#     4  10  22  42  69  98 133 182 236 286 347 426
#     4  11  25  45  69 103 143 187 236 295 353 429
#     4  12  24  42  72  95 140 183 232 295 365 414
#     4  11  25  44  67 100 134 179 240 294 356 426
#
# _framework density 25.288931000000002
#
# number of rings (size 3 to 8) (size 9 to 14) (size 15 to 20)
#    0.000    0.800    4.000    3.000    2.800    1.600 
#    0.000    0.000    0.000    0.000    0.000    0.000 
#    0.000    0.000    0.000    0.000    0.000    0.000 
#
# Total GULP energy -223735.378234 kJ/mol
# GULP energy per Si atom -5593.384456 kJ/mol
# Density = 2.523137 g / cm^3
# Si number density = 25.288931 Si / 1000 Ang^3
#
#
#
# Elastic Constant Matrix: (Units=GPa)
#
#
# Indices 1 2 3 4 5 6 
#
# 1 75.3570 51.2783 3.7637 0.0000 0.0000 0.0000
# 2 51.2783 182.6432 16.2815 0.0000 0.0000 0.0000
# 3 3.7637 16.2815 55.3761 0.0000 0.0000 0.0000
# 4 0.0000 0.0000 0.0000 39.9003 0.0000 0.0000
# 5 0.0000 0.0000 0.0000 0.0000 46.0054 0.0000
# 6 0.0000 0.0000 0.0000 0.0000 0.0000 34.7515
#
#
#
# Elastic Compliance Matrix: (Units=1/GPa)
#
#
# Indices 1 2 3 4 5 6 
#
# 1 0.016407 -0.004628 0.000246 0.000000 0.000000 0.000000
# 2 -0.004628 0.006928 -0.001722 0.000000 0.000000 0.000000
# 3 0.000246 -0.001722 0.018548 0.000000 0.000000 0.000000
# 4 0.000000 0.000000 0.000000 0.025062 0.000000 0.000000
# 5 0.000000 0.000000 0.000000 0.000000 0.021737 0.000000
# 6 0.000000 0.000000 0.000000 0.000000 0.000000 0.028776
#
#
# Mechanical properties :
#
#
# Convention : Reuss Voigt Hill
#
# Bulk Modulus (GPa) = 33.70030 50.66926 42.18478
# Shear Modulus (GPa) = 35.82696 40.26830 38.04763
#
# Velocity S-wave (km/s) = 3.76800 3.99473 3.88302
# Velocity P-wave (km/s) = 5.68203 6.43092 6.06804
#
# Compressibility (1/GPa) = 0.02967333
#
# Stress axis : x y z
#
# Youngs Moduli (GPa) = 60.94815 144.33871 53.91405
#
# Poissons Ratio (x) = 0.66805 -0.01325
# Poissons Ratio (y) = 0.28209 0.09286
# Poissons Ratio (z) = -0.01497 0.24861
#
# Static dielectric constant tensor:
#      x y z
#    x 1.962780 0.000000 0.000000 
#    y 0.000000 2.153270 0.000000 
#    z 0.000000 0.000000 2.033420 
# 
# From -- ./inp_files/2663.got.cif
#   From: 2010.05.17/outbox.cif.g08.bks.cpg/sg62_2_cif.got.tgz:2663.got - 2010.06.03 15:25:27.
