data_PCOD9466703
_publ_section_title
;
Structure prediction by ZEFSAII (Michael W. Deem and Ramdas Pophale) SiO2 
 PCOD9466703
Probable space group: P N M A
;
_chemical_formula_sum "Si O2"
_cell_formula_units_Z 48
_cell_length_a 12.208832
_cell_length_b 18.627965
_cell_length_c 10.514868
_cell_angle_alpha 90.000000
_cell_angle_beta 90.000000
_cell_angle_gamma 90.000000
_cell_volume 2391.351165
_symmetry_space_group_name_H-M "P N M A"
_symmetry_group_IT_number 62
_symmetry_cell_setting 'orthorhombic'
loop_
_space_group_symop_operation_xyz
x,y,z
1/2-x,-y,1/2+z
1/2+x,1/2-y,1/2-z
-x,1/2+y,-z
-x,-y,-z
1/2+x,y,1/2-z
1/2-x,1/2+y,1/2+z
x,1/2-y,z
loop_
_atom_site_type_symbol
_atom_site_label
_atom_site_fract_x
_atom_site_fract_y
_atom_site_fract_z
Si Si1 0.755014 0.546583 0.218755
Si Si2 0.855920 0.166490 0.870125
Si Si3 0.385857 0.668844 0.013158
Si Si4 0.941974 0.529516 0.375302
Si Si5 0.597962 0.077282 0.231713
Si Si6 0.056520 0.421980 0.984386
O O1 0.675712 0.612056 0.255481
O O2 0.813540 0.521549 0.350264
O O3 0.692665 0.475219 0.178564
O O4 0.846903 0.571904 0.120014
O O5 0.873557 0.250000 0.834798
O O6 0.744730 0.165534 0.956843
O O7 0.961482 0.132755 0.939538
O O8 0.421560 0.750000 0.029728
O O9 0.410515 0.640060 0.871347
O O10 0.447540 0.615374 0.110734
O O11 0.000000 0.500000 0.500000
O O12 0.996284 0.478440 0.271475
O O13 0.606209 0.099700 0.378009
O O14 0.000000 0.500000 0.000000
#
# Coordination Sequence:
#
# PCOD9466703 Si02
#       6
#     8   8   8   8   8   8
#     4  11  21  36  59  90 118 159 202 249 302 364
#     4  10  22  41  62  87 123 165 205 252 309 374
#     4   9  20  39  62  87 120 162 202 249 311 368
#     4   9  19  34  57  85 115 154 200 245 296 356
#     4  11  22  36  62  92 125 153 206 259 310 367
#     4  12  22  38  61  93 124 161 210 256 316 366
#
# _framework density 20.072334000000001
#
# number of rings (size 3 to 8) (size 9 to 14) (size 15 to 20)
#    0.000    1.667    3.333    1.000    4.667    1.333 
#    0.000    4.167    0.000    0.000    0.000    0.000 
#    0.000    0.000    0.000    0.000    0.000    0.000 
#
# Total GULP energy -267293.557107 kJ/mol
# GULP energy per Si atom -5568.615773 kJ/mol
# Density = 2.002665 g / cm^3
# Si number density = 20.072334 Si / 1000 Ang^3
#
#
#
# Elastic Constant Matrix: (Units=GPa)
#
#
# Indices 1 2 3 4 5 6 
#
# 1 70.1737 28.5454 11.3360 0.0000 0.0000 0.0000
# 2 28.5454 112.6388 -4.6094 0.0000 0.0000 0.0000
# 3 11.3360 -4.6094 68.0274 0.0000 0.0000 0.0000
# 4 0.0000 0.0000 0.0000 19.3125 0.0000 0.0000
# 5 0.0000 0.0000 0.0000 0.0000 27.7572 0.0000
# 6 0.0000 0.0000 0.0000 0.0000 0.0000 34.5770
#
#
#
# Elastic Compliance Matrix: (Units=1/GPa)
#
#
# Indices 1 2 3 4 5 6 
#
# 1 0.016492 -0.004304 -0.003040 0.000000 0.000000 0.000000
# 2 -0.004304 0.010026 0.001397 0.000000 0.000000 0.000000
# 3 -0.003040 0.001397 0.015301 0.000000 0.000000 0.000000
# 4 0.000000 0.000000 0.000000 0.051780 0.000000 0.000000
# 5 0.000000 0.000000 0.000000 0.000000 0.036027 0.000000
# 6 0.000000 0.000000 0.000000 0.000000 0.000000 0.028921
#
#
# Mechanical properties :
#
#
# Convention : Reuss Voigt Hill
#
# Bulk Modulus (GPa) = 33.41729 35.70931 34.56330
# Shear Modulus (GPa) = 27.71371 30.70053 29.20712
#
# Velocity S-wave (km/s) = 3.71980 3.91512 3.81871
# Velocity P-wave (km/s) = 5.92737 6.18599 6.05806
#
# Compressibility (1/GPa) = 0.02992463
#
# Stress axis : x y z
#
# Youngs Moduli (GPa) = 60.63478 99.74261 65.35459
#
# Poissons Ratio (x) = 0.42928 0.19867
# Poissons Ratio (y) = 0.26097 -0.09127
# Poissons Ratio (z) = 0.18432 -0.13929
#
# Static dielectric constant tensor:
#      x y z
#    x 1.796770 0.000000 0.000000 
#    y 0.000000 1.680560 0.000000 
#    z 0.000000 0.000000 1.795730 
# 
# From -- ./inp_files/12268.got.cif
#   From: 2010.05.17/outbox.cif.g08.bks.cpg/sg62_7_cif.got.tgz:12268.got - 2010.06.03 15:25:27.
