data_PCOD9466551
_publ_section_title
;
Structure prediction by ZEFSAII (Michael W. Deem and Ramdas Pophale) SiO2 
 PCOD9466551
Probable space group: P N M A
;
_chemical_formula_sum "Si O2"
_cell_formula_units_Z 64
_cell_length_a 9.275749
_cell_length_b 19.517733
_cell_length_c 17.615152
_cell_angle_alpha 90.000000
_cell_angle_beta 90.000000
_cell_angle_gamma 90.000000
_cell_volume 3189.075168
_symmetry_space_group_name_H-M "P N M A"
_symmetry_group_IT_number 62
_symmetry_cell_setting 'orthorhombic'
loop_
_space_group_symop_operation_xyz
x,y,z
1/2-x,-y,1/2+z
1/2+x,1/2-y,1/2-z
-x,1/2+y,-z
-x,-y,-z
1/2+x,y,1/2-z
1/2-x,1/2+y,1/2+z
x,1/2-y,z
loop_
_atom_site_type_symbol
_atom_site_label
_atom_site_fract_x
_atom_site_fract_y
_atom_site_fract_z
Si Si1 0.797258 0.324139 0.919415
Si Si2 0.307990 0.588634 0.310977
Si Si3 0.283838 0.536611 0.708837
Si Si4 0.979590 0.922531 0.650966
Si Si5 0.834215 0.460205 0.551185
Si Si6 0.002613 0.329308 0.488366
Si Si7 0.082713 0.672987 0.240396
Si Si8 0.379665 0.026814 0.555840
O O1 0.862176 0.250000 0.940812
O O2 0.882199 0.391298 0.943061
O O3 0.800580 0.325843 0.828094
O O4 0.640496 0.328111 0.956080
O O5 0.287300 0.529088 0.249801
O O6 0.300096 0.556612 0.393686
O O7 0.446377 0.632547 0.290977
O O8 0.163427 0.634488 0.307026
O O9 0.380151 0.573429 0.773342
O O10 0.379258 0.507102 0.639414
O O11 0.147054 0.577508 0.675886
O O12 0.952370 0.858577 0.594706
O O13 0.937918 0.991116 0.602102
O O14 0.772703 0.504436 0.481852
O O15 0.898866 0.389232 0.520179
O O16 0.949056 0.250000 0.484484
O O17 0.042604 0.750000 0.260370
O O18 0.500000 0.000000 0.500000
#
# Coordination Sequence:
#
# PCOD9466551 Si02
#       8
#     8   8   8   8   8   8   8   8
#     4  10  22  39  60  90 130 167 209 262 321 391
#     4  11  23  38  57  91 123 160 204 260 314 376
#     4  11  24  39  66  92 127 160 216 265 320 373
#     4  11  23  42  65  98 126 167 212 268 320 389
#     4  11  23  39  65  94 128 161 212 274 316 382
#     4  11  23  42  66  93 126 172 217 270 332 382
#     4  11  23  38  56  82 126 171 205 241 309 395
#     4  12  23  40  68  97 127 169 223 267 324 380
#
# _framework density 20.068515000000001
#
# number of rings (size 3 to 8) (size 9 to 14) (size 15 to 20)
#    0.000    1.000    3.750    3.750    5.250    1.000 
#    0.000    1.250    0.000    0.000    0.000    0.000 
#    0.000    0.000    0.000    0.000    0.000    0.000 
#
# Total GULP energy -357485.592239 kJ/mol
# GULP energy per Si atom -5585.712379 kJ/mol
# Density = 2.002284 g / cm^3
# Si number density = 20.068515 Si / 1000 Ang^3
#
#
#
# Elastic Constant Matrix: (Units=GPa)
#
#
# Indices 1 2 3 4 5 6 
#
# 1 50.5828 15.2464 11.4235 0.0000 0.0000 0.0000
# 2 15.2464 104.9983 26.8880 0.0000 0.0000 0.0000
# 3 11.4235 26.8880 82.9301 0.0000 0.0000 0.0000
# 4 0.0000 0.0000 0.0000 16.3766 0.0000 0.0000
# 5 0.0000 0.0000 0.0000 0.0000 37.2384 0.0000
# 6 0.0000 0.0000 0.0000 0.0000 0.0000 21.0200
#
#
#
# Elastic Compliance Matrix: (Units=1/GPa)
#
#
# Indices 1 2 3 4 5 6 
#
# 1 0.020997 -0.002517 -0.002076 0.000000 0.000000 0.000000
# 2 -0.002517 0.010688 -0.003119 0.000000 0.000000 0.000000
# 3 -0.002076 -0.003119 0.013355 0.000000 0.000000 0.000000
# 4 0.000000 0.000000 0.000000 0.061063 0.000000 0.000000
# 5 0.000000 0.000000 0.000000 0.000000 0.026854 0.000000
# 6 0.000000 0.000000 0.000000 0.000000 0.000000 0.047574
#
#
# Mechanical properties :
#
#
# Convention : Reuss Voigt Hill
#
# Bulk Modulus (GPa) = 33.76474 38.40300 36.08387
# Shear Modulus (GPa) = 24.29217 27.25722 25.77469
#
# Velocity S-wave (km/s) = 3.48294 3.68939 3.58765
# Velocity P-wave (km/s) = 5.74768 6.10952 5.93136
#
# Compressibility (1/GPa) = 0.02961669
#
# Stress axis : x y z
#
# Youngs Moduli (GPa) = 47.62548 93.56207 74.87576
#
# Poissons Ratio (x) = 0.23552 0.15545
# Poissons Ratio (y) = 0.11989 0.23351
# Poissons Ratio (z) = 0.09888 0.29178
#
# Static dielectric constant tensor:
#      x y z
#    x 1.763040 0.000000 0.000000 
#    y 0.000000 1.716760 0.000000 
#    z 0.000000 0.000000 1.755560 
# 
# From -- ./inp_files/22554.got.cif
#   From: 2010.05.17/outbox.cif.g08.bks.cpg/sg62_12_cif.got.tgz:22554.got - 2010.06.03 15:25:27.
