data_PCOD9466299
_publ_section_title
;
Structure prediction by ZEFSAII (Michael W. Deem and Ramdas Pophale) SiO2 
 PCOD9466299
Probable space group: P N M A
;
_chemical_formula_sum "Si O2"
_cell_formula_units_Z 48
_cell_length_a 12.677803
_cell_length_b 13.863223
_cell_length_c 12.794617
_cell_angle_alpha 90.000000
_cell_angle_beta 90.000000
_cell_angle_gamma 90.000000
_cell_volume 2248.720599
_symmetry_space_group_name_H-M "P N M A"
_symmetry_group_IT_number 62
_symmetry_cell_setting 'orthorhombic'
loop_
_space_group_symop_operation_xyz
x,y,z
1/2-x,-y,1/2+z
1/2+x,1/2-y,1/2-z
-x,1/2+y,-z
-x,-y,-z
1/2+x,y,1/2-z
1/2-x,1/2+y,1/2+z
x,1/2-y,z
loop_
_atom_site_type_symbol
_atom_site_label
_atom_site_fract_x
_atom_site_fract_y
_atom_site_fract_z
Si Si1 0.739153 0.994157 0.255631
Si Si2 0.875084 0.357607 0.920822
Si Si3 0.913780 0.044680 0.578607
Si Si4 0.745653 0.137804 0.422494
Si Si5 0.498219 0.863742 0.622736
Si Si6 0.038615 0.431989 0.775365
O O1 0.691464 0.933373 0.353720
O O2 0.660838 0.014388 0.159879
O O3 0.836804 0.930484 0.219769
O O4 0.775582 0.091359 0.311028
O O5 0.830663 0.250000 0.913746
O O6 0.986546 0.365161 0.861543
O O7 0.906928 0.378615 0.039676
O O8 0.825181 0.096036 0.508568
O O9 0.987354 0.098132 0.664638
O O10 0.000000 0.000000 0.500000
O O11 0.763129 0.250000 0.420660
O O12 0.618249 0.123137 0.429790
O O13 0.501870 0.750000 0.657731
O O14 0.509543 0.954702 0.700590
#
# Coordination Sequence:
#
# PCOD9466299 Si02
#       6
#     8   8   8   8   8   8
#     4  11  24  40  67  95 137 179 224 283 340 406
#     4  10  22  39  62  94 129 170 226 279 331 393
#     4  11  23  41  62  97 135 178 220 274 338 402
#     4  11  23  42  69 100 132 176 228 279 343 411
#     4  10  21  40  68  99 127 170 226 281 334 402
#     4  11  22  39  67  93 133 178 222 275 337 407
#
# _framework density 21.345471
#
# number of rings (size 3 to 8) (size 9 to 14) (size 15 to 20)
#    0.000    1.333    5.000    1.500    2.333    4.000 
#    0.000    0.833    0.000    1.000    0.000    0.000 
#    0.000    0.000    0.000    0.000    0.000    0.000 
#
# Total GULP energy -267235.320386 kJ/mol
# GULP energy per Si atom -5567.402508 kJ/mol
# Density = 2.129689 g / cm^3
# Si number density = 21.345471 Si / 1000 Ang^3
#
#
#
# Elastic Constant Matrix: (Units=GPa)
#
#
# Indices 1 2 3 4 5 6 
#
# 1 81.6349 14.9155 14.9660 0.0000 0.0000 0.0000
# 2 14.9155 80.1218 19.4738 0.0000 0.0000 0.0000
# 3 14.9660 19.4738 66.4295 0.0000 0.0000 0.0000
# 4 0.0000 0.0000 0.0000 10.9997 0.0000 0.0000
# 5 0.0000 0.0000 0.0000 0.0000 44.4083 0.0000
# 6 0.0000 0.0000 0.0000 0.0000 0.0000 20.3849
#
#
#
# Elastic Compliance Matrix: (Units=1/GPa)
#
#
# Indices 1 2 3 4 5 6 
#
# 1 0.013025 -0.001843 -0.002394 0.000000 0.000000 0.000000
# 2 -0.001843 0.013699 -0.003601 0.000000 0.000000 0.000000
# 3 -0.002394 -0.003601 0.016649 0.000000 0.000000 0.000000
# 4 0.000000 0.000000 0.000000 0.090911 0.000000 0.000000
# 5 0.000000 0.000000 0.000000 0.000000 0.022518 0.000000
# 6 0.000000 0.000000 0.000000 0.000000 0.000000 0.049056
#
#
# Mechanical properties :
#
#
# Convention : Reuss Voigt Hill
#
# Bulk Modulus (GPa) = 36.10457 36.32187 36.21322
# Shear Modulus (GPa) = 21.66690 27.08065 24.37377
#
# Velocity S-wave (km/s) = 3.18945 3.56572 3.38282
# Velocity P-wave (km/s) = 5.52400 5.83144 5.67980
#
# Compressibility (1/GPa) = 0.02769732
#
# Stress axis : x y z
#
# Youngs Moduli (GPa) = 76.77365 72.99681 60.06536
#
# Poissons Ratio (x) = 0.13452 0.14381
# Poissons Ratio (y) = 0.14148 0.21628
# Poissons Ratio (z) = 0.18382 0.26284
#
# Static dielectric constant tensor:
#      x y z
#    x 1.872520 0.000000 0.000000 
#    y 0.000000 1.782740 0.000000 
#    z 0.000000 0.000000 1.808430 
# 
# From -- ./inp_files/13279.got.cif
#   From: 2010.05.17/outbox.cif.g08.bks.cpg/sg62_7_cif.got.tgz:13279.got - 2010.06.03 15:25:27.
