data_PCOD9466794
_publ_section_title
;
Structure prediction by ZEFSAII (Michael W. Deem and Ramdas Pophale) SiO2 
 PCOD9466794
Probable space group: P N M A
;
_chemical_formula_sum "Si O2"
_cell_formula_units_Z 56
_cell_length_a 13.667154
_cell_length_b 29.401760
_cell_length_c 7.159177
_cell_angle_alpha 90.000000
_cell_angle_beta 90.000000
_cell_angle_gamma 90.000000
_cell_volume 2876.832101
_symmetry_space_group_name_H-M "P N M A"
_symmetry_group_IT_number 62
_symmetry_cell_setting 'orthorhombic'
loop_
_space_group_symop_operation_xyz
x,y,z
1/2-x,-y,1/2+z
1/2+x,1/2-y,1/2-z
-x,1/2+y,-z
-x,-y,-z
1/2+x,y,1/2-z
1/2-x,1/2+y,1/2+z
x,1/2-y,z
loop_
_atom_site_type_symbol
_atom_site_label
_atom_site_fract_x
_atom_site_fract_y
_atom_site_fract_z
Si Si1 0.324510 0.301661 0.772231
Si Si2 0.848716 0.804036 0.933373
Si Si3 0.232431 0.945179 0.984478
Si Si4 0.117030 0.517888 0.639557
Si Si5 0.047780 0.953153 0.255157
Si Si6 0.811135 0.842638 0.524380
Si Si7 0.020776 0.145097 0.773683
O O1 0.360956 0.250000 0.783802
O O2 0.262674 0.309182 0.583559
O O3 0.413747 0.336120 0.770401
O O4 0.249177 0.309875 0.941599
O O5 0.868386 0.750000 0.920134
O O6 0.833124 0.825758 0.731421
O O7 0.933988 0.829367 0.047754
O O8 0.263904 0.892787 0.982932
O O9 0.189627 0.958518 0.783401
O O10 0.324113 0.976562 0.041426
O O11 0.144986 0.954834 0.131002
O O12 0.079947 0.549895 0.472584
O O13 0.023711 0.496714 0.747393
O O14 0.987293 0.908777 0.196077
O O15 0.908641 0.844740 0.399895
#
# Coordination Sequence:
#
# PCOD9466794 Si02
#       7
#     8   8   8   8   8   8   8
#     4  10  22  42  65  91 126 168 207 260 325 383
#     4  10  24  43  65  95 127 164 212 265 323 387
#     4  12  23  41  66  91 127 171 211 259 324 372
#     4  11  25  41  65  94 127 170 212 263 317 377
#     4  11  24  44  62  94 128 162 218 260 311 383
#     4  11  24  40  65  96 127 168 215 266 316 384
#     4  11  23  41  68  93 129 167 210 265 319 382
#
# _framework density 19.465855999999999
#
# number of rings (size 3 to 8) (size 9 to 14) (size 15 to 20)
#    0.000    1.143    4.286    1.286    2.000    5.143 
#    0.000    1.429    0.000    0.000    0.000    0.000 
#    0.000    0.000    0.000    0.000    0.000    0.000 
#
# Total GULP energy -313047.715203 kJ/mol
# GULP energy per Si atom -5590.137771 kJ/mol
# Density = 1.942155 g / cm^3
# Si number density = 19.465856 Si / 1000 Ang^3
#
#
#
# Elastic Constant Matrix: (Units=GPa)
#
#
# Indices 1 2 3 4 5 6 
#
# 1 65.4328 20.9312 22.4972 0.0000 0.0000 0.0000
# 2 20.9312 45.4319 28.2602 0.0000 0.0000 0.0000
# 3 22.4972 28.2602 96.7357 0.0000 0.0000 0.0000
# 4 0.0000 0.0000 0.0000 26.4438 0.0000 0.0000
# 5 0.0000 0.0000 0.0000 0.0000 23.6849 0.0000
# 6 0.0000 0.0000 0.0000 0.0000 0.0000 17.9079
#
#
#
# Elastic Compliance Matrix: (Units=1/GPa)
#
#
# Indices 1 2 3 4 5 6 
#
# 1 0.018297 -0.007067 -0.002191 0.000000 0.000000 0.000000
# 2 -0.007067 0.029629 -0.007012 0.000000 0.000000 0.000000
# 3 -0.002191 -0.007012 0.012895 0.000000 0.000000 0.000000
# 4 0.000000 0.000000 0.000000 0.037816 0.000000 0.000000
# 5 0.000000 0.000000 0.000000 0.000000 0.042221 0.000000
# 6 0.000000 0.000000 0.000000 0.000000 0.000000 0.055841
#
#
# Mechanical properties :
#
#
# Convention : Reuss Voigt Hill
#
# Bulk Modulus (GPa) = 35.35902 38.99750 37.17826
# Shear Modulus (GPa) = 20.94982 22.66809 21.80896
#
# Velocity S-wave (km/s) = 3.28416 3.41619 3.35082
# Velocity P-wave (km/s) = 5.70833 5.96974 5.84049
#
# Compressibility (1/GPa) = 0.02828132
#
# Stress axis : x y z
#
# Youngs Moduli (GPa) = 54.65482 33.75118 77.54686
#
# Poissons Ratio (x) = 0.23852 0.16988
# Poissons Ratio (y) = 0.38624 0.54377
# Poissons Ratio (z) = 0.11973 0.23667
#
# Static dielectric constant tensor:
#      x y z
#    x 1.661630 0.000000 0.000000 
#    y 0.000000 1.678050 0.000000 
#    z 0.000000 0.000000 1.654370 
# 
# From -- ./inp_files/1262.got.cif
#   From: 2010.05.17/outbox.cif.g08.bks.cpg/sg62_1_cif.got.tgz:1262.got - 2010.06.03 15:25:27.
