data_PCOD9466901
_publ_section_title
;
Structure prediction by ZEFSAII (Michael W. Deem and Ramdas Pophale) SiO2 
 PCOD9466901
Probable space group: P N M A
;
_chemical_formula_sum "Si O2"
_cell_formula_units_Z 32
_cell_length_a 13.433042
_cell_length_b 18.818639
_cell_length_c 4.887534
_cell_angle_alpha 90.000000
_cell_angle_beta 90.000000
_cell_angle_gamma 90.000000
_cell_volume 1235.527384
_symmetry_space_group_name_H-M "P N M A"
_symmetry_group_IT_number 62
_symmetry_cell_setting 'orthorhombic'
loop_
_space_group_symop_operation_xyz
x,y,z
1/2-x,-y,1/2+z
1/2+x,1/2-y,1/2-z
-x,1/2+y,-z
-x,-y,-z
1/2+x,y,1/2-z
1/2-x,1/2+y,1/2+z
x,1/2-y,z
loop_
_atom_site_type_symbol
_atom_site_label
_atom_site_fract_x
_atom_site_fract_y
_atom_site_fract_z
Si Si1 0.827700 0.604824 0.250311
Si Si2 0.884315 0.750000 0.991347
Si Si3 0.365276 0.038750 0.570309
Si Si4 0.477136 0.250000 0.985796
Si Si5 0.966225 0.097022 0.429497
O O1 0.834534 0.537379 0.045608
O O2 0.729892 0.590333 0.429066
O O3 0.924330 0.604488 0.445383
O O4 0.829251 0.678144 0.081755
O O5 0.924395 0.750000 0.682508
O O6 0.985566 0.750000 0.174518
O O7 0.406049 0.043429 0.876964
O O8 0.451319 0.070670 0.376587
O O9 0.422468 0.323483 0.046190
#
# Coordination Sequence:
#
# PCOD9466901 Si02
#       5
#     8   4   8   4   8
#     4  11  26  48  70 105 144 187 241 298 357 432
#     4  10  24  44  72  96 139 188 225 288 360 412
#     4  12  26  43  73 106 139 188 242 294 355 427
#     4  10  22  44  70 104 139 184 237 282 344 430
#     4  11  25  45  72 103 144 189 234 297 358 414
#
# _framework density 25.899868999999999
#
# number of rings (size 3 to 8) (size 9 to 14) (size 15 to 20)
#    0.000    1.000    0.000    6.000    0.000   18.000 
#    0.000    0.000    0.000    1.500    0.000    0.000 
#    0.000    0.000    0.000    0.000    0.000    0.000 
#
# Total GULP energy -179572.391537 kJ/mol
# GULP energy per Si atom -5611.637236 kJ/mol
# Density = 2.584092 g / cm^3
# Si number density = 25.899869 Si / 1000 Ang^3
#
#
#
# Elastic Constant Matrix: (Units=GPa)
#
#
# Indices 1 2 3 4 5 6 
#
# 1 111.6921 10.6177 23.3459 0.0000 0.0000 0.0000
# 2 10.6177 181.7235 33.6657 0.0000 0.0000 0.0000
# 3 23.3459 33.6657 101.7229 0.0000 0.0000 0.0000
# 4 0.0000 0.0000 0.0000 49.9486 0.0000 0.0000
# 5 0.0000 0.0000 0.0000 0.0000 23.2398 0.0000
# 6 0.0000 0.0000 0.0000 0.0000 0.0000 31.9388
#
#
#
# Elastic Compliance Matrix: (Units=1/GPa)
#
#
# Indices 1 2 3 4 5 6 
#
# 1 0.009409 -0.000159 -0.002107 0.000000 0.000000 0.000000
# 2 -0.000159 0.005865 -0.001904 0.000000 0.000000 0.000000
# 3 -0.002107 -0.001904 0.010944 0.000000 0.000000 0.000000
# 4 0.000000 0.000000 0.000000 0.020021 0.000000 0.000000
# 5 0.000000 0.000000 0.000000 0.000000 0.043030 0.000000
# 6 0.000000 0.000000 0.000000 0.000000 0.000000 0.031310
#
#
# Mechanical properties :
#
#
# Convention : Reuss Voigt Hill
#
# Bulk Modulus (GPa) = 55.93755 58.93302 57.43529
# Shear Modulus (GPa) = 37.07052 42.85940 39.96496
#
# Velocity S-wave (km/s) = 3.78736 4.07235 3.93244
# Velocity P-wave (km/s) = 6.38514 6.70191 6.54544
#
# Compressibility (1/GPa) = 0.01787708
#
# Stress axis : x y z
#
# Youngs Moduli (GPa) = 106.28509 170.50311 91.37109
#
# Poissons Ratio (x) = 0.02719 0.19248
# Poissons Ratio (y) = 0.01695 0.17401
# Poissons Ratio (z) = 0.22390 0.32471
#
# Static dielectric constant tensor:
#      x y z
#    x 2.057950 0.000000 0.000000 
#    y 0.000000 2.121990 0.000000 
#    z 0.000000 0.000000 1.942660 
# 
# From -- ./inp_files/941.got.cif
#   From: 2010.05.17/outbox.cif.g08.bks.cpg/sg62_1_cif.got.tgz:941.got - 2010.06.03 15:25:27.
