data_PCOD9466668
_publ_section_title
;
Structure prediction by ZEFSAII (Michael W. Deem and Ramdas Pophale) SiO2 
 PCOD9466668
Probable space group: P N M A
;
_chemical_formula_sum "Si O2"
_cell_formula_units_Z 32
_cell_length_a 11.093398
_cell_length_b 10.490393
_cell_length_c 13.486172
_cell_angle_alpha 90.000000
_cell_angle_beta 90.000000
_cell_angle_gamma 90.000000
_cell_volume 1569.441193
_symmetry_space_group_name_H-M "P N M A"
_symmetry_group_IT_number 62
_symmetry_cell_setting 'orthorhombic'
loop_
_space_group_symop_operation_xyz
x,y,z
1/2-x,-y,1/2+z
1/2+x,1/2-y,1/2-z
-x,1/2+y,-z
-x,-y,-z
1/2+x,y,1/2-z
1/2-x,1/2+y,1/2+z
x,1/2-y,z
loop_
_atom_site_type_symbol
_atom_site_label
_atom_site_fract_x
_atom_site_fract_y
_atom_site_fract_z
Si Si1 0.097162 0.605429 0.470784
Si Si2 0.577909 0.892720 0.623039
Si Si3 0.761086 0.893741 0.216454
Si Si4 0.322910 0.497933 0.580198
O O1 0.050971 0.750000 0.480679
O O2 0.149203 0.588283 0.359436
O O3 0.213441 0.583391 0.540308
O O4 0.000000 0.500000 0.500000
O O5 0.603821 0.750000 0.657865
O O6 0.435887 0.917912 0.614937
O O7 0.640100 0.000821 0.689301
O O8 0.631694 0.914506 0.512829
O O9 0.807161 0.750000 0.199621
O O10 0.719969 0.913353 0.328372
#
# Coordination Sequence:
#
# PCOD9466668 Si02
#       4
#     8   8   8   8
#     4  10  23  42  62  91 128 164 204 255 307 365
#     4  10  22  40  65  94 123 160 209 263 314 365
#     4  10  23  41  63  91 124 166 210 252 310 376
#     4  10  22  41  64  92 125 165 206 257 310 373
#
# _framework density 20.389424000000002
#
# number of rings (size 3 to 8) (size 9 to 14) (size 15 to 20)
#    0.000    2.000    0.000    1.500    3.500   14.000 
#    0.000    0.000    0.000    0.000    0.000    0.000 
#    0.000    0.000    0.000    0.000    0.000    0.000 
#
# Total GULP energy -178858.239451 kJ/mol
# GULP energy per Si atom -5589.319983 kJ/mol
# Density = 2.034302 g / cm^3
# Si number density = 20.389424 Si / 1000 Ang^3
#
#
#
# Elastic Constant Matrix: (Units=GPa)
#
#
# Indices 1 2 3 4 5 6 
#
# 1 89.1505 47.8691 18.9252 0.0000 0.0000 0.0000
# 2 47.8691 135.9604 17.1594 0.0000 0.0000 0.0000
# 3 18.9252 17.1594 66.6306 0.0000 0.0000 0.0000
# 4 0.0000 0.0000 0.0000 16.6399 0.0000 0.0000
# 5 0.0000 0.0000 0.0000 0.0000 8.0562 0.0000
# 6 0.0000 0.0000 0.0000 0.0000 0.0000 22.9039
#
#
#
# Elastic Compliance Matrix: (Units=1/GPa)
#
#
# Indices 1 2 3 4 5 6 
#
# 1 0.014343 -0.004688 -0.002866 0.000000 0.000000 0.000000
# 2 -0.004688 0.009134 -0.001021 0.000000 0.000000 0.000000
# 3 -0.002866 -0.001021 0.016085 0.000000 0.000000 0.000000
# 4 0.000000 0.000000 0.000000 0.060096 0.000000 0.000000
# 5 0.000000 0.000000 0.000000 0.000000 0.124128 0.000000
# 6 0.000000 0.000000 0.000000 0.000000 0.000000 0.043661
#
#
# Mechanical properties :
#
#
# Convention : Reuss Voigt Hill
#
# Bulk Modulus (GPa) = 44.61960 51.07208 47.84584
# Shear Modulus (GPa) = 17.11928 23.37253 20.24590
#
# Velocity S-wave (km/s) = 2.90076 3.38939 3.15455
# Velocity P-wave (km/s) = 5.75764 6.35767 6.06508
#
# Compressibility (1/GPa) = 0.02241168
#
# Stress axis : x y z
#
# Youngs Moduli (GPa) = 69.72186 109.47519 62.16901
#
# Poissons Ratio (x) = 0.51322 0.17821
# Poissons Ratio (y) = 0.32686 0.06347
# Poissons Ratio (z) = 0.19986 0.11176
#
# Static dielectric constant tensor:
#      x y z
#    x 1.708190 0.000000 0.000000 
#    y 0.000000 1.707670 0.000000 
#    z 0.000000 0.000000 1.721890 
# 
# From -- ./inp_files/17629.got.cif
#   From: 2010.05.17/outbox.cif.g08.bks.cpg/sg62_9_cif.got.tgz:17629.got - 2010.06.03 15:25:27.
