data_PCOD9466880
_publ_section_title
;
Structure prediction by ZEFSAII (Michael W. Deem and Ramdas Pophale) SiO2 
 PCOD9466880
Probable space group: P N M A
;
_chemical_formula_sum "Si O2"
_cell_formula_units_Z 48
_cell_length_a 13.582618
_cell_length_b 26.942481
_cell_length_c 5.157774
_cell_angle_alpha 90.000000
_cell_angle_beta 90.000000
_cell_angle_gamma 90.000000
_cell_volume 1887.484442
_symmetry_space_group_name_H-M "P N M A"
_symmetry_group_IT_number 62
_symmetry_cell_setting 'orthorhombic'
loop_
_space_group_symop_operation_xyz
x,y,z
1/2-x,-y,1/2+z
1/2+x,1/2-y,1/2-z
-x,1/2+y,-z
-x,-y,-z
1/2+x,y,1/2-z
1/2-x,1/2+y,1/2+z
x,1/2-y,z
loop_
_atom_site_type_symbol
_atom_site_label
_atom_site_fract_x
_atom_site_fract_y
_atom_site_fract_z
Si Si1 0.672677 0.565829 0.823285
Si Si2 0.987374 0.611379 0.826202
Si Si3 0.070581 0.694905 0.502863
Si Si4 0.674697 0.116564 0.695638
Si Si5 0.636946 0.029567 0.064903
Si Si6 0.706126 0.805212 0.493556
O O1 0.598917 0.593118 0.627074
O O2 0.752049 0.533003 0.672682
O O3 0.613227 0.527054 0.003039
O O4 0.735318 0.602693 0.003142
O O5 0.930499 0.560622 0.758662
O O6 0.002249 0.649244 0.587158
O O7 0.917208 0.637472 0.033677
O O8 0.024534 0.750000 0.521317
O O9 0.119354 0.690217 0.221271
O O10 0.156885 0.694151 0.723349
O O11 0.638171 0.064854 0.815277
O O12 0.716451 0.152356 0.918537
O O13 0.249755 0.750000 0.043367
#
# Coordination Sequence:
#
# PCOD9466880 Si02
#       6
#     8   8   8   8   8   8
#     4  11  22  44  62  89 136 172 227 280 338 416
#     4  11  25  39  65 100 129 174 229 285 343 408
#     4  10  22  43  70  98 134 178 220 275 345 403
#     4  11  24  40  65  94 131 177 224 280 344 405
#     4  11  24  41  64  94 126 183 225 277 351 406
#     4  10  22  43  71  98 131 180 224 273 339 407
#
# _framework density 25.430672999999999
#
# number of rings (size 3 to 8) (size 9 to 14) (size 15 to 20)
#    0.000    1.333    3.333    1.500    4.667    2.667 
#    0.000    0.833    0.000    0.000    0.000    0.000 
#    0.000    0.000    0.000    0.000    0.000    0.000 
#
# Total GULP energy -268638.484193 kJ/mol
# GULP energy per Si atom -5596.635087 kJ/mol
# Density = 2.537279 g / cm^3
# Si number density = 25.430673 Si / 1000 Ang^3
#
#
#
# Elastic Constant Matrix: (Units=GPa)
#
#
# Indices 1 2 3 4 5 6 
#
# 1 91.9749 15.3652 11.5049 0.0000 0.0000 0.0000
# 2 15.3652 98.8826 5.6308 0.0000 0.0000 0.0000
# 3 11.5049 5.6308 84.3103 0.0000 0.0000 0.0000
# 4 0.0000 0.0000 0.0000 40.9801 0.0000 0.0000
# 5 0.0000 0.0000 0.0000 0.0000 38.3293 0.0000
# 6 0.0000 0.0000 0.0000 0.0000 0.0000 -1.5411
#
#
#
# Elastic Compliance Matrix: (Units=1/GPa)
#
#
# Indices 1 2 3 4 5 6 
#
# 1 0.011332 -0.001679 -0.001434 0.000000 0.000000 0.000000
# 2 -0.001679 0.010400 -0.000465 0.000000 0.000000 0.000000
# 3 -0.001434 -0.000465 0.012088 0.000000 0.000000 0.000000
# 4 0.000000 0.000000 0.000000 0.024402 0.000000 0.000000
# 5 0.000000 0.000000 0.000000 0.000000 0.026090 0.000000
# 6 0.000000 0.000000 0.000000 0.000000 0.000000 -0.648874
#
#
# Mechanical properties :
#
#
# Convention : Reuss Voigt Hill
#
# Bulk Modulus (GPa) = 37.50559 37.79663 37.65111
# Shear Modulus (GPa) = -9.11550 31.73144 11.30797
#
# Velocity S-wave (km/s) = -1.89532 3.53620 2.11098
# Velocity P-wave (km/s) = 3.16078 5.61853 4.55842
#
# Compressibility (1/GPa) = 0.02666270
#
# Stress axis : x y z
#
# Youngs Moduli (GPa) = 88.24198 96.14975 82.72836
#
# Poissons Ratio (x) = 0.16146 0.11865
# Poissons Ratio (y) = 0.14818 0.03851
# Poissons Ratio (z) = 0.12656 0.04475
#
# Static dielectric constant tensor:
#      x y z
#    x 2.037530 0.000000 0.000000 
#    y 0.000000 2.019190 0.000000 
#    z 0.000000 0.000000 2.027320 
# 
# From -- ./inp_files/1126.got.cif
#   From: 2010.05.17/outbox.cif.g08.bks.cpg/sg62_1_cif.got.tgz:1126.got - 2010.06.03 15:25:27.
