data_PCOD9466847
_publ_section_title
;
Structure prediction by ZEFSAII (Michael W. Deem and Ramdas Pophale) SiO2 
 PCOD9466847
Probable space group: P N M A
;
_chemical_formula_sum "Si O2"
_cell_formula_units_Z 48
_cell_length_a 18.680124
_cell_length_b 16.215322
_cell_length_c 7.900885
_cell_angle_alpha 90.000000
_cell_angle_beta 90.000000
_cell_angle_gamma 90.000000
_cell_volume 2393.211453
_symmetry_space_group_name_H-M "P N M A"
_symmetry_group_IT_number 62
_symmetry_cell_setting 'orthorhombic'
loop_
_space_group_symop_operation_xyz
x,y,z
1/2-x,-y,1/2+z
1/2+x,1/2-y,1/2-z
-x,1/2+y,-z
-x,-y,-z
1/2+x,y,1/2-z
1/2-x,1/2+y,1/2+z
x,1/2-y,z
loop_
_atom_site_type_symbol
_atom_site_label
_atom_site_fract_x
_atom_site_fract_y
_atom_site_fract_z
Si Si1 0.662557 0.844328 0.479039
Si Si2 0.236071 0.157451 0.221215
Si Si3 0.367071 0.957660 0.867176
Si Si4 0.973081 0.441528 0.851297
Si Si5 0.259264 0.109232 0.862032
Si Si6 0.110563 0.148881 0.707026
O O1 0.645823 0.750000 0.516814
O O2 0.708620 0.875524 0.638013
O O3 0.591138 0.891799 0.437333
O O4 0.708650 0.851312 0.307905
O O5 0.216468 0.250000 0.273049
O O6 0.166518 0.100318 0.222358
O O7 0.269517 0.157474 0.036290
O O8 0.436923 0.005170 0.800270
O O9 0.304112 0.025431 0.894157
O O10 0.380010 0.897779 0.026475
O O11 0.034988 0.381555 0.782511
O O12 0.000000 0.500000 0.000000
O O13 0.174785 0.111424 0.821587
O O14 0.115680 0.250000 0.697957
#
# Coordination Sequence:
#
# PCOD9466847 Si02
#       6
#     8   8   8   8   8   8
#     4  10  22  43  64  94 131 168 215 276 338 395
#     4  11  22  38  66  98 126 164 218 275 331 391
#     4  11  24  42  67  98 131 171 222 280 329 396
#     4  11  26  42  66  94 134 181 223 273 339 409
#     4  11  23  39  70  98 128 167 222 275 332 389
#     4  12  24  44  68  97 139 183 225 278 346 411
#
# _framework density 20.056732
#
# number of rings (size 3 to 8) (size 9 to 14) (size 15 to 20)
#    0.000    1.000    1.667    5.000    7.000    0.000 
#    0.000    2.500    0.000    0.000    0.000    0.000 
#    0.000    0.000    0.000    0.000    0.000    0.000 
#
# Total GULP energy -267914.014040 kJ/mol
# GULP energy per Si atom -5581.541959 kJ/mol
# Density = 2.001108 g / cm^3
# Si number density = 20.056732 Si / 1000 Ang^3
#
#
#
# Elastic Constant Matrix: (Units=GPa)
#
#
# Indices 1 2 3 4 5 6 
#
# 1 119.0177 48.5642 42.5380 0.0000 0.0000 0.0000
# 2 48.5642 97.2766 29.2918 0.0000 0.0000 0.0000
# 3 42.5380 29.2918 127.0275 0.0000 0.0000 0.0000
# 4 0.0000 0.0000 0.0000 31.4411 0.0000 0.0000
# 5 0.0000 0.0000 0.0000 0.0000 18.0444 0.0000
# 6 0.0000 0.0000 0.0000 0.0000 0.0000 48.0157
#
#
#
# Elastic Compliance Matrix: (Units=1/GPa)
#
#
# Indices 1 2 3 4 5 6 
#
# 1 0.011340 -0.004855 -0.002678 0.000000 0.000000 0.000000
# 2 -0.004855 0.013126 -0.001401 0.000000 0.000000 0.000000
# 3 -0.002678 -0.001401 0.009092 0.000000 0.000000 0.000000
# 4 0.000000 0.000000 0.000000 0.031806 0.000000 0.000000
# 5 0.000000 0.000000 0.000000 0.000000 0.055419 0.000000
# 6 0.000000 0.000000 0.000000 0.000000 0.000000 0.020827
#
#
# Mechanical properties :
#
#
# Convention : Reuss Voigt Hill
#
# Bulk Modulus (GPa) = 63.73424 64.90109 64.31766
# Shear Modulus (GPa) = 30.35689 34.36207 32.35948
#
# Velocity S-wave (km/s) = 3.89466 4.14363 4.02107
# Velocity P-wave (km/s) = 7.21599 7.43787 7.32777
#
# Compressibility (1/GPa) = 0.01569015
#
# Stress axis : x y z
#
# Youngs Moduli (GPa) = 88.18064 76.18662 109.98530
#
# Poissons Ratio (x) = 0.36990 0.29454
# Poissons Ratio (y) = 0.42813 0.15407
# Poissons Ratio (z) = 0.23615 0.10673
#
# Static dielectric constant tensor:
#      x y z
#    x 1.735310 0.000000 0.000000 
#    y 0.000000 1.745640 0.000000 
#    z 0.000000 0.000000 1.726960 
# 
# From -- ./inp_files/7677.got.cif
#   From: 2010.05.17/outbox.cif.g08.bks.cpg/sg62_4_cif.got.tgz:7677.got - 2010.06.03 15:25:27.
