data_PCOD9466072
_publ_section_title
;
Structure prediction by ZEFSAII (Michael W. Deem and Ramdas Pophale) SiO2 
 PCOD9466072
Probable space group: P N M A
;
_chemical_formula_sum "Si O2"
_cell_formula_units_Z 48
_cell_length_a 8.162958
_cell_length_b 23.173117
_cell_length_c 10.512723
_cell_angle_alpha 90.000000
_cell_angle_beta 90.000000
_cell_angle_gamma 90.000000
_cell_volume 1988.599096
_symmetry_space_group_name_H-M "P N M A"
_symmetry_group_IT_number 62
_symmetry_cell_setting 'orthorhombic'
loop_
_space_group_symop_operation_xyz
x,y,z
1/2-x,-y,1/2+z
1/2+x,1/2-y,1/2-z
-x,1/2+y,-z
-x,-y,-z
1/2+x,y,1/2-z
1/2-x,1/2+y,1/2+z
x,1/2-y,z
loop_
_atom_site_type_symbol
_atom_site_label
_atom_site_fract_x
_atom_site_fract_y
_atom_site_fract_z
Si Si1 0.018039 0.127203 0.556344
Si Si2 0.192030 0.020051 0.113634
Si Si3 0.082262 0.250000 0.436288
Si Si4 0.204251 0.059217 0.389348
Si Si5 0.145682 0.601325 0.202341
Si Si6 0.003276 0.134035 0.032699
Si Si7 0.036354 0.750000 0.845135
O O1 0.038986 0.192940 0.515990
O O2 0.030717 0.088397 0.427855
O O3 0.170408 0.107842 0.647860
O O4 0.868041 0.114489 0.649685
O O5 0.255954 0.036753 0.252672
O O6 0.110735 0.078805 0.066850
O O7 0.087925 0.963181 0.160558
O O8 0.279011 0.991929 0.991904
O O9 0.275476 0.250000 0.396376
O O10 0.978720 0.250000 0.306159
O O11 0.326788 0.112247 0.415490
O O12 0.032110 0.642753 0.116492
O O13 0.049699 0.192526 0.101446
#
# Coordination Sequence:
#
# PCOD9466072 Si02
#       7
#     8   8   4   8   8   8   4
#     4  10  23  43  65  95 133 173 218 278 325 397
#     4  10  22  37  64  95 131 172 219 270 338 398
#     4  12  24  49  65  93 135 170 229 276 328 392
#     4  10  21  39  61  94 133 169 217 277 329 388
#     4  10  22  41  67  93 136 171 214 270 344 392
#     4  10  22  39  66  88 128 176 213 259 344 385
#     4  12  24  47  69  89 131 176 219 276 324 396
#
# _framework density 24.137595999999998
#
# number of rings (size 3 to 8) (size 9 to 14) (size 15 to 20)
#    0.000    2.000    3.333    3.000    9.333    2.000 
#    6.000    0.000    0.000    0.000    0.000    0.000 
#    0.000    0.000    0.000    0.000    0.000    0.000 
#
# Total GULP energy -267839.330528 kJ/mol
# GULP energy per Si atom -5579.986053 kJ/mol
# Density = 2.408266 g / cm^3
# Si number density = 24.137596 Si / 1000 Ang^3
#
#
#
# Elastic Constant Matrix: (Units=GPa)
#
#
# Indices 1 2 3 4 5 6 
#
# 1 22.9143 9.5412 9.0641 0.0000 0.0000 0.0000
# 2 9.5412 162.4537 43.5081 0.0000 0.0000 0.0000
# 3 9.0641 43.5081 119.1184 0.0000 0.0000 0.0000
# 4 0.0000 0.0000 0.0000 34.6614 0.0000 0.0000
# 5 0.0000 0.0000 0.0000 0.0000 41.0885 0.0000
# 6 0.0000 0.0000 0.0000 0.0000 0.0000 7.5425
#
#
#
# Elastic Compliance Matrix: (Units=1/GPa)
#
#
# Indices 1 2 3 4 5 6 
#
# 1 0.045538 -0.001936 -0.002758 0.000000 0.000000 0.000000
# 2 -0.001936 0.006905 -0.002375 0.000000 0.000000 0.000000
# 3 -0.002758 -0.002375 0.009472 0.000000 0.000000 0.000000
# 4 0.000000 0.000000 0.000000 0.028850 0.000000 0.000000
# 5 0.000000 0.000000 0.000000 0.000000 0.024338 0.000000
# 6 0.000000 0.000000 0.000000 0.000000 0.000000 0.132581
#
#
# Mechanical properties :
#
#
# Convention : Reuss Voigt Hill
#
# Bulk Modulus (GPa) = 20.93012 47.63481 34.28246
# Shear Modulus (GPa) = 18.00187 32.81670 25.40928
#
# Velocity S-wave (km/s) = 2.73390 3.69123 3.24803
# Velocity P-wave (km/s) = 4.31921 6.15991 5.31978
#
# Compressibility (1/GPa) = 0.04777803
#
# Stress axis : x y z
#
# Youngs Moduli (GPa) = 21.95968 144.81557 105.57098
#
# Poissons Ratio (x) = 0.28035 0.29117
# Poissons Ratio (y) = 0.04251 0.25072
# Poissons Ratio (z) = 0.06057 0.34392
#
# Static dielectric constant tensor:
#      x y z
#    x 2.127090 0.000000 0.000000 
#    y 0.000000 1.876850 0.000000 
#    z 0.000000 0.000000 2.052900 
# 
# From -- ./inp_files/5354.got.cif
#   From: 2010.05.17/outbox.cif.g08.bks.cpg/sg62_3_cif.got.tgz:5354.got - 2010.06.03 15:25:27.
