data_PCOD9466488
_publ_section_title
;
Structure prediction by ZEFSAII (Michael W. Deem and Ramdas Pophale) SiO2 
 PCOD9466488
Probable space group: P N M A
;
_chemical_formula_sum "Si O2"
_cell_formula_units_Z 36
_cell_length_a 12.817740
_cell_length_b 7.793334
_cell_length_c 14.236345
_cell_angle_alpha 90.000000
_cell_angle_beta 90.000000
_cell_angle_gamma 90.000000
_cell_volume 1422.110200
_symmetry_space_group_name_H-M "P N M A"
_symmetry_group_IT_number 62
_symmetry_cell_setting 'orthorhombic'
loop_
_space_group_symop_operation_xyz
x,y,z
1/2-x,-y,1/2+z
1/2+x,1/2-y,1/2-z
-x,1/2+y,-z
-x,-y,-z
1/2+x,y,1/2-z
1/2-x,1/2+y,1/2+z
x,1/2-y,z
loop_
_atom_site_type_symbol
_atom_site_label
_atom_site_fract_x
_atom_site_fract_y
_atom_site_fract_z
Si Si1 0.706516 0.445166 0.663686
Si Si2 0.570233 0.066968 0.157366
Si Si3 0.955022 0.750000 0.854790
Si Si4 0.845413 0.544854 0.371349
Si Si5 0.865590 0.446039 0.973716
O O1 0.668049 0.250000 0.658126
O O2 0.830886 0.446291 0.648808
O O3 0.686591 0.517907 0.767288
O O4 0.648324 0.555098 0.585911
O O5 0.606250 0.250000 0.116305
O O6 0.548360 0.103661 0.267820
O O7 0.461726 0.017802 0.110064
O O8 0.936457 0.596959 0.933561
O O9 0.848635 0.750000 0.368201
O O10 0.750845 0.497000 0.438499
O O11 0.884428 0.250000 0.940080
#
# Coordination Sequence:
#
# PCOD9466488 Si02
#       5
#     8   8   4   8   8
#     4  11  22  40  67  92 127 170 215 264 322 381
#     4  10  22  37  64  90 126 165 212 256 324 369
#     4  10  22  42  64  94 124 172 210 258 320 376
#     4  10  22  40  64  93 126 167 215 264 321 379
#     4  11  23  40  68  95 129 169 215 263 320 379
#
# _framework density 25.314492999999999
#
# number of rings (size 3 to 8) (size 9 to 14) (size 15 to 20)
#    0.667    0.889    3.333    1.333    1.556    3.556 
#    0.000    1.111    0.000    0.000    0.000    0.000 
#    0.000    0.000    0.000    0.000    0.000    0.000 
#
# Total GULP energy -200483.612138 kJ/mol
# GULP energy per Si atom -5568.989226 kJ/mol
# Density = 2.525688 g / cm^3
# Si number density = 25.314493 Si / 1000 Ang^3
#
#
#
# Elastic Constant Matrix: (Units=GPa)
#
#
# Indices 1 2 3 4 5 6 
#
# 1 103.0394 9.1056 12.4204 0.0000 0.0000 0.0000
# 2 9.1056 100.0195 11.2274 0.0000 0.0000 0.0000
# 3 12.4204 11.2274 102.7550 0.0000 0.0000 0.0000
# 4 0.0000 0.0000 0.0000 28.1302 0.0000 0.0000
# 5 0.0000 0.0000 0.0000 0.0000 9.2216 0.0000
# 6 0.0000 0.0000 0.0000 0.0000 0.0000 48.0071
#
#
#
# Elastic Compliance Matrix: (Units=1/GPa)
#
#
# Indices 1 2 3 4 5 6 
#
# 1 0.009908 -0.000777 -0.001113 0.000000 0.000000 0.000000
# 2 -0.000777 0.010183 -0.001019 0.000000 0.000000 0.000000
# 3 -0.001113 -0.001019 0.009978 0.000000 0.000000 0.000000
# 4 0.000000 0.000000 0.000000 0.035549 0.000000 0.000000
# 5 0.000000 0.000000 0.000000 0.000000 0.108441 0.000000
# 6 0.000000 0.000000 0.000000 0.000000 0.000000 0.020830
#
#
# Mechanical properties :
#
#
# Convention : Reuss Voigt Hill
#
# Bulk Modulus (GPa) = 41.23430 41.25787 41.24609
# Shear Modulus (GPa) = 23.94750 35.27582 29.61166
#
# Velocity S-wave (km/s) = 3.07905 3.73701 3.42387
# Velocity P-wave (km/s) = 5.38190 5.91218 5.65326
#
# Compressibility (1/GPa) = 0.02425165
#
# Stress axis : x y z
#
# Youngs Moduli (GPa) = 100.93041 98.20141 100.22360
#
# Poissons Ratio (x) = 0.07631 0.11152
# Poissons Ratio (y) = 0.07843 0.10210
# Poissons Ratio (z) = 0.11230 0.10004
#
# Static dielectric constant tensor:
#      x y z
#    x 2.069650 0.000000 0.000000 
#    y 0.000000 1.922370 0.000000 
#    z 0.000000 0.000000 2.009440 
# 
# From -- ./inp_files/18520.got.cif
#   From: 2010.05.17/outbox.cif.g08.bks.cpg/sg62_10_cif.got.tgz:18520.got - 2010.06.03 15:25:27.
