data_PCOD9466148
_publ_section_title
;
Structure prediction by ZEFSAII (Michael W. Deem and Ramdas Pophale) SiO2 
 PCOD9466148
Probable space group: P N M A
;
_chemical_formula_sum "Si O2"
_cell_formula_units_Z 56
_cell_length_a 11.637701
_cell_length_b 14.381346
_cell_length_c 14.003655
_cell_angle_alpha 90.000000
_cell_angle_beta 90.000000
_cell_angle_gamma 90.000000
_cell_volume 2343.732988
_symmetry_space_group_name_H-M "P N M A"
_symmetry_group_IT_number 62
_symmetry_cell_setting 'orthorhombic'
loop_
_space_group_symop_operation_xyz
x,y,z
1/2-x,-y,1/2+z
1/2+x,1/2-y,1/2-z
-x,1/2+y,-z
-x,-y,-z
1/2+x,y,1/2-z
1/2-x,1/2+y,1/2+z
x,1/2-y,z
loop_
_atom_site_type_symbol
_atom_site_label
_atom_site_fract_x
_atom_site_fract_y
_atom_site_fract_z
Si Si1 0.101725 0.863371 0.932878
Si Si2 0.546065 0.600517 0.923978
Si Si3 0.892441 0.640340 0.260962
Si Si4 0.899839 0.642931 0.060912
Si Si5 0.779864 0.650116 0.859541
Si Si6 0.543155 0.028310 0.269103
Si Si7 0.840524 0.590029 0.468937
O O1 0.093008 0.750000 0.919011
O O2 0.047740 0.918293 0.841525
O O3 0.020774 0.896135 0.022127
O O4 0.230363 0.887716 0.966747
O O5 0.644553 0.653806 0.867780
O O6 0.468492 0.563989 0.837984
O O7 0.617012 0.516670 0.973394
O O8 0.456010 0.643548 0.997122
O O9 0.911260 0.750000 0.271344
O O10 0.835704 0.615693 0.158017
O O11 0.008010 0.579376 0.243005
O O12 0.826718 0.609693 0.356197
O O13 0.929510 0.750000 0.079034
O O14 0.822249 0.640613 0.968045
O O15 0.823779 0.750000 0.821109
O O16 0.834001 0.563278 0.805576
#
# Coordination Sequence:
#
# PCOD9466148 Si02
#       7
#     8   8   8   8   8   8   8
#     4  10  21  39  65  97 130 171 219 272 331 392
#     4  10  24  43  61  94 132 174 225 270 328 394
#     4  10  21  41  65  96 131 172 222 266 326 395
#     4   8  18  37  59  92 127 160 214 269 320 388
#     4  10  22  40  64  95 132 173 222 277 332 389
#     4  10  23  40  66  98 133 171 216 277 334 394
#     4  10  23  43  63  92 135 179 220 270 328 396
#
# _framework density 23.893508000000001
#
# number of rings (size 3 to 8) (size 9 to 14) (size 15 to 20)
#    0.000    2.286    0.000    1.714    6.000    3.429 
#    2.571    0.000    0.000    0.000    0.000    0.000 
#    0.000    0.000    0.000    0.000    0.000    0.000 
#
# Total GULP energy -311968.096382 kJ/mol
# GULP energy per Si atom -5570.858864 kJ/mol
# Density = 2.383913 g / cm^3
# Si number density = 23.893508 Si / 1000 Ang^3
#
#
#
# Elastic Constant Matrix: (Units=GPa)
#
#
# Indices 1 2 3 4 5 6 
#
# 1 83.4406 30.2746 19.3051 0.0000 0.0000 0.0000
# 2 30.2746 114.4712 10.3925 0.0000 0.0000 0.0000
# 3 19.3051 10.3925 81.1124 0.0000 0.0000 0.0000
# 4 0.0000 0.0000 0.0000 -57.5904 0.0000 0.0000
# 5 0.0000 0.0000 0.0000 0.0000 5.0811 0.0000
# 6 0.0000 0.0000 0.0000 0.0000 0.0000 14.2224
#
#
#
# Elastic Compliance Matrix: (Units=1/GPa)
#
#
# Indices 1 2 3 4 5 6 
#
# 1 0.013886 -0.003412 -0.002868 0.000000 0.000000 0.000000
# 2 -0.003412 0.009677 -0.000428 0.000000 0.000000 0.000000
# 3 -0.002868 -0.000428 0.013066 0.000000 0.000000 0.000000
# 4 0.000000 0.000000 0.000000 -0.017364 0.000000 0.000000
# 5 0.000000 0.000000 0.000000 0.000000 0.196809 0.000000
# 6 0.000000 0.000000 0.000000 0.000000 0.000000 0.070312
#
#
# Mechanical properties :
#
#
# Convention : Reuss Voigt Hill
#
# Bulk Modulus (GPa) = 43.07795 44.32984 43.70390
# Shear Modulus (GPa) = 16.25806 6.94606 11.60206
#
# Velocity S-wave (km/s) = 2.61135 1.70687 2.20596
# Velocity P-wave (km/s) = 5.21157 4.74109 4.98189
#
# Compressibility (1/GPa) = 0.02321373
#
# Stress axis : x y z
#
# Youngs Moduli (GPa) = 72.01445 103.33688 76.53497
#
# Poissons Ratio (x) = 0.35260 0.21948
# Poissons Ratio (y) = 0.24572 0.03274
# Poissons Ratio (z) = 0.20652 0.04420
#
# Static dielectric constant tensor:
#      x y z
#    x 2.007080 0.000000 0.000000 
#    y 0.000000 2.045450 0.000000 
#    z 0.000000 0.000000 1.956710 
# 
# From -- ./inp_files/18092.got.cif
#   From: 2010.05.17/outbox.cif.g08.bks.cpg/sg62_10_cif.got.tgz:18092.got - 2010.06.03 15:25:27.
