data_PCOD9466464
_publ_section_title
;
Structure prediction by ZEFSAII (Michael W. Deem and Ramdas Pophale) SiO2 
 PCOD9466464
Probable space group: P N M A
;
_chemical_formula_sum "Si O2"
_cell_formula_units_Z 44
_cell_length_a 9.639499
_cell_length_b 11.690237
_cell_length_c 20.278832
_cell_angle_alpha 90.000000
_cell_angle_beta 90.000000
_cell_angle_gamma 90.000000
_cell_volume 2285.181586
_symmetry_space_group_name_H-M "P N M A"
_symmetry_group_IT_number 62
_symmetry_cell_setting 'orthorhombic'
loop_
_space_group_symop_operation_xyz
x,y,z
1/2-x,-y,1/2+z
1/2+x,1/2-y,1/2-z
-x,1/2+y,-z
-x,-y,-z
1/2+x,y,1/2-z
1/2-x,1/2+y,1/2+z
x,1/2-y,z
loop_
_atom_site_type_symbol
_atom_site_label
_atom_site_fract_x
_atom_site_fract_y
_atom_site_fract_z
Si Si1 0.862915 0.541461 0.086947
Si Si2 0.178315 0.750000 0.381495
Si Si3 0.149763 0.250000 0.605984
Si Si4 0.220852 0.112782 0.176036
Si Si5 0.059874 0.506324 0.772600
Si Si6 0.856551 0.750000 0.246800
Si Si7 0.170976 0.950456 0.056997
O O1 0.747976 0.638738 0.087222
O O2 0.861213 0.476628 0.157025
O O3 0.019684 0.591509 0.082111
O O4 0.843475 0.470263 0.020651
O O5 0.234722 0.750000 0.306799
O O6 0.014935 0.750000 0.388058
O O7 0.205596 0.250000 0.680503
O O8 0.209858 0.139506 0.570904
O O9 0.218442 0.250000 0.175896
O O10 0.356769 0.064103 0.212865
O O11 0.203905 0.061562 0.102115
O O12 0.090840 0.060464 0.216780
O O13 0.060110 0.368814 0.762038
#
# Coordination Sequence:
#
# PCOD9466464 Si02
#       7
#     8   4   4   8   8   4   8
#     4   9  21  41  61  89 119 167 209 251 315 369
#     4  10  23  36  63  92 126 159 197 267 317 376
#     4  12  23  38  63  98 126 155 211 263 325 374
#     4  11  23  39  61  89 121 162 203 252 308 370
#     4  10  22  39  63  89 120 158 206 257 301 371
#     4  10  22  36  62  90 126 156 200 252 322 364
#     4  10  22  41  64  88 122 165 211 258 305 386
#
# _framework density 19.254487999999998
#
# number of rings (size 3 to 8) (size 9 to 14) (size 15 to 20)
#    0.000    1.818    1.818    1.091    6.364    4.364 
#   11.455    0.000    0.000    0.000    0.000    0.000 
#    0.000    0.000    0.000    0.000    0.000    0.000 
#
# Total GULP energy -245635.658917 kJ/mol
# GULP energy per Si atom -5582.628612 kJ/mol
# Density = 1.921066 g / cm^3
# Si number density = 19.254488 Si / 1000 Ang^3
#
#
#
# Elastic Constant Matrix: (Units=GPa)
#
#
# Indices 1 2 3 4 5 6 
#
# 1 64.2232 38.8022 -14.5827 0.0000 0.0000 0.0000
# 2 38.8022 101.4598 6.1836 0.0000 0.0000 0.0000
# 3 -14.5827 6.1836 56.5492 0.0000 0.0000 0.0000
# 4 0.0000 0.0000 0.0000 13.8455 0.0000 0.0000
# 5 0.0000 0.0000 0.0000 0.0000 20.5336 0.0000
# 6 0.0000 0.0000 0.0000 0.0000 0.0000 70.4617
#
#
#
# Elastic Compliance Matrix: (Units=1/GPa)
#
#
# Indices 1 2 3 4 5 6 
#
# 1 0.022588 -0.009054 0.006815 0.000000 0.000000 0.000000
# 2 -0.009054 0.013551 -0.003817 0.000000 0.000000 0.000000
# 3 0.006815 -0.003817 0.019859 0.000000 0.000000 0.000000
# 4 0.000000 0.000000 0.000000 0.072226 0.000000 0.000000
# 5 0.000000 0.000000 0.000000 0.000000 0.048701 0.000000
# 6 0.000000 0.000000 0.000000 0.000000 0.000000 0.014192
#
#
# Mechanical properties :
#
#
# Convention : Reuss Voigt Hill
#
# Bulk Modulus (GPa) = 22.78579 31.44870 27.11725
# Shear Modulus (GPa) = 22.95087 33.75678 28.35382
#
# Velocity S-wave (km/s) = 3.45624 4.19165 3.84159
# Velocity P-wave (km/s) = 5.27136 6.30835 5.81302
#
# Compressibility (1/GPa) = 0.04388699
#
# Stress axis : x y z
#
# Youngs Moduli (GPa) = 44.27056 73.79343 50.35626
#
# Poissons Ratio (x) = 0.66813 -0.34318
# Poissons Ratio (y) = 0.40083 0.19219
# Poissons Ratio (z) = -0.30171 0.28164
#
# Static dielectric constant tensor:
#      x y z
#    x 1.662400 0.000000 0.000000 
#    y 0.000000 1.666570 0.000000 
#    z 0.000000 0.000000 1.692500 
# 
# From -- ./inp_files/28757.got.cif
#   From: 2010.05.17/outbox.cif.g08.bks.cpg/sg62_15_cif.got.tgz:28757.got - 2010.06.03 15:25:27.
