data_PCOD9466941
_publ_section_title
;
Structure prediction by ZEFSAII (Michael W. Deem and Ramdas Pophale) SiO2 
 PCOD9466941
Probable space group: P N M A
;
_chemical_formula_sum "Si O2"
_cell_formula_units_Z 64
_cell_length_a 11.375724
_cell_length_b 8.395636
_cell_length_c 31.369760
_cell_angle_alpha 90.000000
_cell_angle_beta 90.000000
_cell_angle_gamma 90.000000
_cell_volume 2996.014037
_symmetry_space_group_name_H-M "P N M A"
_symmetry_group_IT_number 62
_symmetry_cell_setting 'orthorhombic'
loop_
_space_group_symop_operation_xyz
x,y,z
1/2-x,-y,1/2+z
1/2+x,1/2-y,1/2-z
-x,1/2+y,-z
-x,-y,-z
1/2+x,y,1/2-z
1/2-x,1/2+y,1/2+z
x,1/2-y,z
loop_
_atom_site_type_symbol
_atom_site_label
_atom_site_fract_x
_atom_site_fract_y
_atom_site_fract_z
Si Si1 0.646187 0.555124 0.718352
Si Si2 0.130184 0.930591 0.877657
Si Si3 0.516235 0.562414 0.451758
Si Si4 0.576837 0.057330 0.222578
Si Si5 0.129985 0.066598 0.498695
Si Si6 0.465087 0.062280 0.130860
Si Si7 0.751086 0.435076 0.909688
Si Si8 0.168294 0.928234 0.413995
O O1 0.649831 0.750000 0.719478
O O2 0.612591 0.507713 0.669897
O O3 0.532755 0.504955 0.746791
O O4 0.784187 0.504519 0.728009
O O5 0.087801 0.750000 0.881016
O O6 0.269461 0.940499 0.885013
O O7 0.086523 0.030152 0.918073
O O8 0.500000 0.500000 0.500000
O O9 0.537738 0.750000 0.456677
O O10 0.624553 0.493099 0.423932
O O11 0.581623 0.250000 0.226339
O O12 0.524998 0.019697 0.175726
O O13 0.131843 0.250000 0.484086
O O14 0.186051 0.059426 0.544793
O O15 0.193731 0.961073 0.463305
O O16 0.000000 0.000000 0.500000
O O17 0.478856 0.250000 0.123091
O O18 0.327398 0.021917 0.125512
O O19 0.531580 0.957625 0.095465
O O20 0.765003 0.250000 0.896835
O O21 0.199733 0.750000 0.401398
#
# Coordination Sequence:
#
# PCOD9466941 Si02
#       8
#     8   8   8   8   8   8   8   8
#     4   9  18  34  59  90 126 160 201 258 321 382
#     4  11  22  39  63  91 120 159 208 260 312 368
#     4  11  24  43  64  89 124 167 211 259 310 375
#     4   9  18  34  57  91 127 162 203 260 325 382
#     4  11  21  34  54  83 116 154 198 249 302 359
#     4  11  21  35  59  89 120 155 202 257 312 371
#     4  10  23  40  57  82 121 161 199 248 311 372
#     4  12  23  36  57  84 118 160 204 251 304 366
#
# _framework density 21.361715
#
# number of rings (size 3 to 8) (size 9 to 14) (size 15 to 20)
#    0.000    1.500    2.500    3.375    0.000    3.500 
#    0.000    2.500    0.000    3.000    0.000    0.000 
#    0.000    0.000    0.000    0.000    0.000    0.000 
#
# Total GULP energy -356567.493020 kJ/mol
# GULP energy per Si atom -5571.367078 kJ/mol
# Density = 2.131309 g / cm^3
# Si number density = 21.361715 Si / 1000 Ang^3
#
#
#
# Elastic Constant Matrix: (Units=GPa)
#
#
# Indices 1 2 3 4 5 6 
#
# 1 107.4281 11.6064 39.9001 0.0000 0.0000 0.0000
# 2 11.6064 43.5392 12.0829 0.0000 0.0000 0.0000
# 3 39.9001 12.0829 97.2161 0.0000 0.0000 0.0000
# 4 0.0000 0.0000 0.0000 13.7555 0.0000 0.0000
# 5 0.0000 0.0000 0.0000 0.0000 32.9787 0.0000
# 6 0.0000 0.0000 0.0000 0.0000 0.0000 23.7030
#
#
#
# Elastic Compliance Matrix: (Units=1/GPa)
#
#
# Indices 1 2 3 4 5 6 
#
# 1 0.011111 -0.001757 -0.004342 0.000000 0.000000 0.000000
# 2 -0.001757 0.024066 -0.002270 0.000000 0.000000 0.000000
# 3 -0.004342 -0.002270 0.012351 0.000000 0.000000 0.000000
# 4 0.000000 0.000000 0.000000 0.072698 0.000000 0.000000
# 5 0.000000 0.000000 0.000000 0.000000 0.030323 0.000000
# 6 0.000000 0.000000 0.000000 0.000000 0.000000 0.042189
#
#
# Mechanical properties :
#
#
# Convention : Reuss Voigt Hill
#
# Bulk Modulus (GPa) = 32.47820 41.70691 37.09255
# Shear Modulus (GPa) = 22.75435 26.39372 24.57403
#
# Velocity S-wave (km/s) = 3.26727 3.51887 3.39540
# Velocity P-wave (km/s) = 5.42866 6.00637 5.72481
#
# Compressibility (1/GPa) = 0.03078988
#
# Stress axis : x y z
#
# Youngs Moduli (GPa) = 90.00100 41.55219 80.96822
#
# Poissons Ratio (x) = 0.07300 0.35155
# Poissons Ratio (y) = 0.15813 0.18380
# Poissons Ratio (z) = 0.39077 0.09433
#
# Static dielectric constant tensor:
#      x y z
#    x 2.021490 0.000000 0.000000 
#    y 0.000000 1.736220 0.000000 
#    z 0.000000 0.000000 1.765870 
# 
# From -- ./inp_files/32478.got.cif
#   From: 2010.05.17/outbox.cif.g08.bks.cpg/sg62_17_cif.got.tgz:32478.got - 2010.06.03 15:25:27.
