data_PCOD9466525
_publ_section_title
;
Structure prediction by ZEFSAII (Michael W. Deem and Ramdas Pophale) SiO2 
 PCOD9466525
Probable space group: P N M A
;
_chemical_formula_sum "Si O2"
_cell_formula_units_Z 40
_cell_length_a 13.050062
_cell_length_b 14.567232
_cell_length_c 11.039312
_cell_angle_alpha 90.000000
_cell_angle_beta 90.000000
_cell_angle_gamma 90.000000
_cell_volume 2098.609429
_symmetry_space_group_name_H-M "P N M A"
_symmetry_group_IT_number 62
_symmetry_cell_setting 'orthorhombic'
loop_
_space_group_symop_operation_xyz
x,y,z
1/2-x,-y,1/2+z
1/2+x,1/2-y,1/2-z
-x,1/2+y,-z
-x,-y,-z
1/2+x,y,1/2-z
1/2-x,1/2+y,1/2+z
x,1/2-y,z
loop_
_atom_site_type_symbol
_atom_site_label
_atom_site_fract_x
_atom_site_fract_y
_atom_site_fract_z
Si Si1 0.581632 0.647374 0.217710
Si Si2 0.968397 0.489064 0.136733
Si Si3 0.428770 0.912434 0.028506
Si Si4 0.620417 0.357301 0.243286
Si Si5 0.230389 0.020208 0.733335
O O1 0.593718 0.750000 0.265321
O O2 0.516122 0.578520 0.299615
O O3 0.512208 0.650319 0.097034
O O4 0.691096 0.596350 0.215096
O O5 0.016665 0.398753 0.198462
O O6 0.848841 0.492815 0.162246
O O7 0.000000 0.500000 0.000000
O O8 0.336489 0.941649 0.119837
O O9 0.387464 0.873092 0.901955
O O10 0.500000 0.000000 0.000000
O O11 0.636093 0.250000 0.269327
O O12 0.705716 0.427826 0.294929
#
# Coordination Sequence:
#
# PCOD9466525 Si02
#       5
#     8   8   8   8   8
#     4  10  22  38  63  94 121 161 209 253 309 372
#     4  10  23  42  62  84 130 165 194 252 316 366
#     4  11  20  44  65  87 128 169 204 261 319 373
#     4  11  24  41  67  97 122 163 216 260 311 373
#     4  10  22  39  63  89 126 162 209 255 310 366
#
# _framework density 19.06024
#
# number of rings (size 3 to 8) (size 9 to 14) (size 15 to 20)
#    0.000    1.600    6.000    0.600    5.600    5.600 
#    0.000    2.000    0.000    0.000    0.000    0.000 
#    0.000    0.000    0.000    0.000    0.000    0.000 
#
# Total GULP energy -222948.727406 kJ/mol
# GULP energy per Si atom -5573.718185 kJ/mol
# Density = 1.901686 g / cm^3
# Si number density = 19.060240 Si / 1000 Ang^3
#
#
#
# Elastic Constant Matrix: (Units=GPa)
#
#
# Indices 1 2 3 4 5 6 
#
# 1 103.7953 36.6798 7.6747 0.0000 0.0000 0.0000
# 2 36.6798 143.7357 7.2158 0.0000 0.0000 0.0000
# 3 7.6747 7.2158 74.4957 0.0000 0.0000 0.0000
# 4 0.0000 0.0000 0.0000 14.5635 0.0000 0.0000
# 5 0.0000 0.0000 0.0000 0.0000 -80.8703 0.0000
# 6 0.0000 0.0000 0.0000 0.0000 0.0000 0.5315
#
#
#
# Elastic Compliance Matrix: (Units=1/GPa)
#
#
# Indices 1 2 3 4 5 6 
#
# 1 0.010641 -0.002673 -0.000837 0.000000 0.000000 0.000000
# 2 -0.002673 0.007663 -0.000467 0.000000 0.000000 0.000000
# 3 -0.000837 -0.000467 0.013555 0.000000 0.000000 0.000000
# 4 0.000000 0.000000 0.000000 0.068665 0.000000 0.000000
# 5 0.000000 0.000000 0.000000 0.000000 -0.012365 0.000000
# 6 0.000000 0.000000 0.000000 0.000000 0.000000 1.881604
#
#
# Mechanical properties :
#
#
# Convention : Reuss Voigt Hill
#
# Bulk Modulus (GPa) = 41.83428 47.24081 44.53754
# Shear Modulus (GPa) = 2.51802 4.87535 3.69669
#
# Velocity S-wave (km/s) = 1.15063 1.60107 1.39416
# Velocity P-wave (km/s) = 4.87456 5.31570 5.09991
#
# Compressibility (1/GPa) = 0.02390384
#
# Stress axis : x y z
#
# Youngs Moduli (GPa) = 93.97599 130.49924 73.77312
#
# Poissons Ratio (x) = 0.34888 0.06177
# Poissons Ratio (y) = 0.25124 0.03444
# Poissons Ratio (z) = 0.07869 0.06092
#
# Static dielectric constant tensor:
#      x y z
#    x 1.699280 0.000000 0.000000 
#    y 0.000000 1.663220 0.000000 
#    z 0.000000 0.000000 1.729490 
# 
# From -- ./inp_files/12038.got.cif
#   From: 2010.05.17/outbox.cif.g08.bks.cpg/sg62_7_cif.got.tgz:12038.got - 2010.06.03 15:25:27.
