data_PCOD9466982
_publ_section_title
;
Structure prediction by ZEFSAII (Michael W. Deem and Ramdas Pophale) SiO2 
 PCOD9466982
Probable space group: P N M A
;
_chemical_formula_sum "Si O2"
_cell_formula_units_Z 64
_cell_length_a 10.119244
_cell_length_b 28.983134
_cell_length_c 8.817615
_cell_angle_alpha 90.000000
_cell_angle_beta 90.000000
_cell_angle_gamma 90.000000
_cell_volume 2586.095420
_symmetry_space_group_name_H-M "P N M A"
_symmetry_group_IT_number 62
_symmetry_cell_setting 'orthorhombic'
loop_
_space_group_symop_operation_xyz
x,y,z
1/2-x,-y,1/2+z
1/2+x,1/2-y,1/2-z
-x,1/2+y,-z
-x,-y,-z
1/2+x,y,1/2-z
1/2-x,1/2+y,1/2+z
x,1/2-y,z
loop_
_atom_site_type_symbol
_atom_site_label
_atom_site_fract_x
_atom_site_fract_y
_atom_site_fract_z
Si Si1 0.507602 0.299059 0.454166
Si Si2 0.813342 0.344682 0.629454
Si Si3 0.498883 0.115661 0.624770
Si Si4 0.705190 0.196951 0.928270
Si Si5 0.224240 0.446157 0.880718
Si Si6 0.378835 0.079338 0.324401
Si Si7 0.978529 0.332542 0.366792
Si Si8 0.361316 0.524324 0.704485
O O1 0.558243 0.250000 0.512872
O O2 0.572891 0.345660 0.519244
O O3 0.352656 0.302522 0.499994
O O4 0.513319 0.300253 0.273804
O O5 0.721152 0.321151 0.756717
O O6 0.789398 0.397521 0.577523
O O7 0.864239 0.316980 0.483925
O O8 0.937570 0.355437 0.741269
O O9 0.589395 0.074714 0.687974
O O10 0.399366 0.093669 0.500500
O O11 0.656405 0.250000 0.929316
O O12 0.610315 0.165493 0.030979
O O13 0.317979 0.476550 0.778256
O O14 0.183241 0.473837 0.029810
O O15 0.426875 0.121632 0.219230
O O16 0.485911 0.038878 0.289395
O O17 0.232484 0.062415 0.286076
#
# Coordination Sequence:
#
# PCOD9466982 Si02
#       8
#     8   8   8   8   8   8   8   8
#     4   9  20  40  67  95 125 169 223 276 331 404
#     4  11  23  41  63  92 131 174 216 275 338 410
#     4   9  22  40  63  88 132 173 215 264 342 395
#     4  10  23  41  64  96 130 172 218 274 343 414
#     4  11  25  42  63  95 130 172 223 278 340 398
#     4  10  24  43  68  98 132 180 225 288 334 405
#     4  11  22  39  68  95 136 171 225 273 347 406
#     4  11  26  43  66  98 136 172 235 280 341 410
#
# _framework density 24.747733
#
# number of rings (size 3 to 8) (size 9 to 14) (size 15 to 20)
#    0.000    1.750    1.250    1.125    8.750    4.500 
#    0.000    3.125    0.000    0.000    0.000    0.000 
#    0.000    0.000    0.000    0.000    0.000    0.000 
#
# Total GULP energy -357569.173180 kJ/mol
# GULP energy per Si atom -5587.018331 kJ/mol
# Density = 2.469141 g / cm^3
# Si number density = 24.747733 Si / 1000 Ang^3
#
#
#
# Elastic Constant Matrix: (Units=GPa)
#
#
# Indices 1 2 3 4 5 6 
#
# 1 31.8245 -6.3596 4.7048 0.0000 0.0000 0.0000
# 2 -6.3596 92.8280 3.5157 0.0000 0.0000 0.0000
# 3 4.7048 3.5157 83.7003 0.0000 0.0000 0.0000
# 4 0.0000 0.0000 0.0000 24.3414 0.0000 0.0000
# 5 0.0000 0.0000 0.0000 0.0000 28.5318 0.0000
# 6 0.0000 0.0000 0.0000 0.0000 0.0000 25.7725
#
#
#
# Elastic Compliance Matrix: (Units=1/GPa)
#
#
# Indices 1 2 3 4 5 6 
#
# 1 0.032158 0.002275 -0.001903 0.000000 0.000000 0.000000
# 2 0.002275 0.010951 -0.000588 0.000000 0.000000 0.000000
# 3 -0.001903 -0.000588 0.012079 0.000000 0.000000 0.000000
# 4 0.000000 0.000000 0.000000 0.041082 0.000000 0.000000
# 5 0.000000 0.000000 0.000000 0.000000 0.035049 0.000000
# 6 0.000000 0.000000 0.000000 0.000000 0.000000 0.038801
#
#
# Mechanical properties :
#
#
# Convention : Reuss Voigt Hill
#
# Bulk Modulus (GPa) = 18.26267 23.56384 20.91325
# Shear Modulus (GPa) = 26.48252 29.49528 27.98890
#
# Velocity S-wave (km/s) = 3.27479 3.45605 3.36664
# Velocity P-wave (km/s) = 4.65774 5.04658 4.85605
#
# Compressibility (1/GPa) = 0.05475652
#
# Stress axis : x y z
#
# Youngs Moduli (GPa) = 31.09614 91.31793 82.78789
#
# Poissons Ratio (x) = -0.20777 0.15756
# Poissons Ratio (y) = -0.07075 0.04867
# Poissons Ratio (z) = 0.05918 0.05368
#
# Static dielectric constant tensor:
#      x y z
#    x 2.156780 0.000000 0.000000 
#    y 0.000000 1.991250 0.000000 
#    z 0.000000 0.000000 1.929680 
# 
# From -- ./inp_files/5545.got.cif
#   From: 2010.05.17/outbox.cif.g08.bks.cpg/sg62_3_cif.got.tgz:5545.got - 2010.06.03 15:25:27.
