data_PCOD9466632
_publ_section_title
;
Structure prediction by ZEFSAII (Michael W. Deem and Ramdas Pophale) SiO2 
 PCOD9466632
Probable space group: P N M A
;
_chemical_formula_sum "Si O2"
_cell_formula_units_Z 56
_cell_length_a 14.479606
_cell_length_b 8.326812
_cell_length_c 21.376737
_cell_angle_alpha 90.000000
_cell_angle_beta 90.000000
_cell_angle_gamma 90.000000
_cell_volume 2577.370884
_symmetry_space_group_name_H-M "P N M A"
_symmetry_group_IT_number 62
_symmetry_cell_setting 'orthorhombic'
loop_
_space_group_symop_operation_xyz
x,y,z
1/2-x,-y,1/2+z
1/2+x,1/2-y,1/2-z
-x,1/2+y,-z
-x,-y,-z
1/2+x,y,1/2-z
1/2-x,1/2+y,1/2+z
x,1/2-y,z
loop_
_atom_site_type_symbol
_atom_site_label
_atom_site_fract_x
_atom_site_fract_y
_atom_site_fract_z
Si Si1 0.007602 0.565856 0.743170
Si Si2 0.933207 0.930430 0.135900
Si Si3 0.303724 0.438662 0.747148
Si Si4 0.573840 0.059623 0.449193
Si Si5 0.745819 0.064075 0.118364
Si Si6 0.722344 0.443915 0.982279
Si Si7 0.358444 0.555801 0.148963
O O1 0.029043 0.750000 0.758894
O O2 0.063148 0.450607 0.790070
O O3 0.048658 0.523197 0.675706
O O4 0.899935 0.533683 0.752709
O O5 0.910783 0.750000 0.116396
O O6 0.856298 0.048242 0.108383
O O7 0.034730 0.977644 0.113006
O O8 0.321727 0.250000 0.736302
O O9 0.270322 0.464292 0.818709
O O10 0.227745 0.490616 0.695172
O O11 0.570545 0.250000 0.443688
O O12 0.500000 0.000000 0.500000
O O13 0.675552 0.004679 0.465959
O O14 0.721084 0.250000 0.129715
O O15 0.699836 0.005182 0.053619
O O16 0.724444 0.250000 0.984098
O O17 0.660901 0.491930 0.922787
O O18 0.365339 0.750000 0.151745
#
# Coordination Sequence:
#
# PCOD9466632 Si02
#       7
#     8   8   8   8   8   8   8
#     4  12  25  41  65  95 127 162 211 270 321 377
#     4  12  23  38  60  87 123 165 207 254 316 383
#     4  11  23  41  67  94 127 169 215 264 319 383
#     4  12  23  35  55  86 124 163 206 253 311 379
#     4  11  22  38  62  92 127 163 208 259 314 374
#     4  10  22  40  62  89 127 169 209 260 317 380
#     4  10  22  42  66  93 126 167 212 259 320 383
#
# _framework density 21.727568000000002
#
# number of rings (size 3 to 8) (size 9 to 14) (size 15 to 20)
#    0.000    0.857    2.857    5.571    0.000    2.857 
#    0.000    0.714    0.000    0.000    0.000    0.000 
#    0.000    0.000    0.000    0.000    0.000    0.000 
#
# Total GULP energy -312973.013929 kJ/mol
# GULP energy per Si atom -5588.803820 kJ/mol
# Density = 2.167812 g / cm^3
# Si number density = 21.727568 Si / 1000 Ang^3
#
#
#
# Elastic Constant Matrix: (Units=GPa)
#
#
# Indices 1 2 3 4 5 6 
#
# 1 27.0391 -3.2272 -7.1145 0.0000 0.0000 0.0000
# 2 -3.2272 32.4020 7.5657 0.0000 0.0000 0.0000
# 3 -7.1145 7.5657 92.6008 0.0000 0.0000 0.0000
# 4 0.0000 0.0000 0.0000 23.4816 0.0000 0.0000
# 5 0.0000 0.0000 0.0000 0.0000 30.0639 0.0000
# 6 0.0000 0.0000 0.0000 0.0000 0.0000 27.3966
#
#
#
# Elastic Compliance Matrix: (Units=1/GPa)
#
#
# Indices 1 2 3 4 5 6 
#
# 1 0.038063 0.003169 0.002666 0.000000 0.000000 0.000000
# 2 0.003169 0.031726 -0.002349 0.000000 0.000000 0.000000
# 3 0.002666 -0.002349 0.011196 0.000000 0.000000 0.000000
# 4 0.000000 0.000000 0.000000 0.042586 0.000000 0.000000
# 5 0.000000 0.000000 0.000000 0.000000 0.033263 0.000000
# 6 0.000000 0.000000 0.000000 0.000000 0.000000 0.036501
#
#
# Mechanical properties :
#
#
# Convention : Reuss Voigt Hill
#
# Bulk Modulus (GPa) = 11.36932 16.27664 13.82298
# Shear Modulus (GPa) = 23.18221 26.50960 24.84591
#
# Velocity S-wave (km/s) = 3.26996 3.49677 3.38527
# Velocity P-wave (km/s) = 4.41598 4.87962 4.65358
#
# Compressibility (1/GPa) = 0.08795600
#
# Stress axis : x y z
#
# Youngs Moduli (GPa) = 26.27222 31.51963 89.31977
#
# Poissons Ratio (x) = -0.09987 -0.23808
# Poissons Ratio (y) = -0.08325 0.20978
# Poissons Ratio (z) = -0.07003 0.07403
#
# Static dielectric constant tensor:
#      x y z
#    x 1.787930 0.000000 0.000000 
#    y 0.000000 1.727660 0.000000 
#    z 0.000000 0.000000 1.855100 
# 
# From -- ./inp_files/27127.got.cif
#   From: 2010.05.17/outbox.cif.g08.bks.cpg/sg62_14_cif.got.tgz:27127.got - 2010.06.03 15:25:27.
