data_PCOD9466770
_publ_section_title
;
Structure prediction by ZEFSAII (Michael W. Deem and Ramdas Pophale) SiO2 
 PCOD9466770
Probable space group: P N M A
;
_chemical_formula_sum "Si O2"
_cell_formula_units_Z 60
_cell_length_a 14.432807
_cell_length_b 18.225269
_cell_length_c 9.075269
_cell_angle_alpha 90.000000
_cell_angle_beta 90.000000
_cell_angle_gamma 90.000000
_cell_volume 2387.175002
_symmetry_space_group_name_H-M "P N M A"
_symmetry_group_IT_number 62
_symmetry_cell_setting 'orthorhombic'
loop_
_space_group_symop_operation_xyz
x,y,z
1/2-x,-y,1/2+z
1/2+x,1/2-y,1/2-z
-x,1/2+y,-z
-x,-y,-z
1/2+x,y,1/2-z
1/2-x,1/2+y,1/2+z
x,1/2-y,z
loop_
_atom_site_type_symbol
_atom_site_label
_atom_site_fract_x
_atom_site_fract_y
_atom_site_fract_z
Si Si1 0.457991 0.132994 0.562535
Si Si2 0.257196 0.964114 0.479842
Si Si3 0.714792 0.601199 0.715254
Si Si4 0.816512 0.250000 0.085251
Si Si5 0.654018 0.167162 0.706047
Si Si6 0.575256 0.163770 0.013895
Si Si7 0.009520 0.920682 0.754910
Si Si8 0.434019 0.064582 0.851154
O O1 0.386498 0.188179 0.488608
O O2 0.548743 0.166658 0.642769
O O3 0.500142 0.083947 0.430501
O O4 0.403176 0.092945 0.692413
O O5 0.267336 0.939851 0.649836
O O6 0.294443 0.896607 0.380838
O O7 0.148475 0.969187 0.442843
O O8 0.295007 0.040600 0.414973
O O9 0.743717 0.682419 0.662300
O O10 0.609977 0.613731 0.775758
O O11 0.692379 0.250000 0.686362
O O12 0.650011 0.152621 0.882538
O O13 0.565674 0.250000 0.034117
O O14 0.483685 0.129031 0.938266
O O15 0.571079 0.122603 0.169552
O O16 0.007555 0.002164 0.691508
#
# Coordination Sequence:
#
# PCOD9466770 Si02
#       8
#     8   8   8   4   8   8   8   8
#     4  10  22  42  75 100 130 178 252 305 352 425
#     4  12  28  44  69 104 154 196 237 295 384 445
#     4  11  27  46  71 102 148 191 243 306 367 451
#     4  10  24  48  76 102 134 186 250 308 358 428
#     4  10  23  45  68 103 145 187 239 301 369 440
#     4  10  22  41  69 100 136 180 240 300 354 423
#     4  11  23  42  72 100 135 180 249 300 354 416
#     4  11  24  41  69  98 137 188 238 295 356 438
#
# _framework density 25.134312000000001
#
# number of rings (size 3 to 8) (size 9 to 14) (size 15 to 20)
#    0.000    1.333    2.000    2.400   13.067    0.533 
#    0.000    0.000    1.467    0.000    0.000    0.000 
#    0.000    0.000    0.000    0.000    0.000    0.000 
#
# Total GULP energy -334551.310837 kJ/mol
# GULP energy per Si atom -5575.855181 kJ/mol
# Density = 2.507711 g / cm^3
# Si number density = 25.134312 Si / 1000 Ang^3
#
#
#
# Elastic Constant Matrix: (Units=GPa)
#
#
# Indices 1 2 3 4 5 6 
#
# 1 49.2999 28.4314 27.3815 0.0000 0.0000 0.0000
# 2 28.4314 160.4361 67.2390 0.0000 0.0000 0.0000
# 3 27.3815 67.2390 165.2182 0.0000 0.0000 0.0000
# 4 0.0000 0.0000 0.0000 44.5227 0.0000 0.0000
# 5 0.0000 0.0000 0.0000 0.0000 36.6406 0.0000
# 6 0.0000 0.0000 0.0000 0.0000 0.0000 33.1184
#
#
#
# Elastic Compliance Matrix: (Units=1/GPa)
#
#
# Indices 1 2 3 4 5 6 
#
# 1 0.023521 -0.003056 -0.002654 0.000000 0.000000 0.000000
# 2 -0.003056 0.007912 -0.002713 0.000000 0.000000 0.000000
# 3 -0.002654 -0.002713 0.007597 0.000000 0.000000 0.000000
# 4 0.000000 0.000000 0.000000 0.022460 0.000000 0.000000
# 5 0.000000 0.000000 0.000000 0.000000 0.027292 0.000000
# 6 0.000000 0.000000 0.000000 0.000000 0.000000 0.030195
#
#
# Mechanical properties :
#
#
# Convention : Reuss Voigt Hill
#
# Bulk Modulus (GPa) = 45.08171 69.00644 57.04408
# Shear Modulus (GPa) = 34.91194 39.64982 37.28088
#
# Velocity S-wave (km/s) = 3.73099 3.97611 3.85550
# Velocity P-wave (km/s) = 6.04447 6.97093 6.52417
#
# Compressibility (1/GPa) = 0.02218195
#
# Stress axis : x y z
#
# Youngs Moduli (GPa) = 42.51603 126.39489 131.63418
#
# Poissons Ratio (x) = 0.38622 0.34942
# Poissons Ratio (y) = 0.12991 0.35718
# Poissons Ratio (z) = 0.11286 0.34296
#
# Static dielectric constant tensor:
#      x y z
#    x 2.017700 0.000000 0.000000 
#    y 0.000000 1.984440 0.000000 
#    z 0.000000 0.000000 2.041280 
# 
# From -- ./inp_files/7967.got.cif
#   From: 2010.05.17/outbox.cif.g08.bks.cpg/sg62_4_cif.got.tgz:7967.got - 2010.06.03 15:25:27.
