data_PCOD9466569
_publ_section_title
;
Structure prediction by ZEFSAII (Michael W. Deem and Ramdas Pophale) SiO2 
 PCOD9466569
Probable space group: P N M A
;
_chemical_formula_sum "Si O2"
_cell_formula_units_Z 60
_cell_length_a 26.714557
_cell_length_b 11.914500
_cell_length_c 9.177247
_cell_angle_alpha 90.000000
_cell_angle_beta 90.000000
_cell_angle_gamma 90.000000
_cell_volume 2921.031356
_symmetry_space_group_name_H-M "P N M A"
_symmetry_group_IT_number 62
_symmetry_cell_setting 'orthorhombic'
loop_
_space_group_symop_operation_xyz
x,y,z
1/2-x,-y,1/2+z
1/2+x,1/2-y,1/2-z
-x,1/2+y,-z
-x,-y,-z
1/2+x,y,1/2-z
1/2-x,1/2+y,1/2+z
x,1/2-y,z
loop_
_atom_site_type_symbol
_atom_site_label
_atom_site_fract_x
_atom_site_fract_y
_atom_site_fract_z
Si Si1 0.111971 0.876425 0.213909
Si Si2 0.923740 0.007149 0.068583
Si Si3 0.143384 0.468792 0.660102
Si Si4 0.320002 0.750000 0.016208
Si Si5 0.229339 0.617373 0.526254
Si Si6 0.298609 0.545979 0.787318
Si Si7 0.522019 0.373871 0.340238
Si Si8 0.554289 0.009497 0.068719
O O1 0.131138 0.750000 0.224312
O O2 0.070288 0.900741 0.337046
O O3 0.153958 0.969646 0.244800
O O4 0.089700 0.900942 0.054497
O O5 0.974455 0.044052 0.150898
O O6 0.878868 0.988540 0.179738
O O7 0.940544 0.900942 0.972171
O O8 0.170748 0.350561 0.637772
O O9 0.178742 0.569537 0.603319
O O10 0.095390 0.466423 0.552458
O O11 0.311757 0.650170 0.891374
O O12 0.226060 0.750000 0.496595
O O13 0.272181 0.590192 0.642855
O O14 0.235226 0.540340 0.382640
O O15 0.501983 0.250000 0.349619
O O16 0.551267 0.393774 0.190542
O O17 0.500000 0.000000 0.000000
#
# Coordination Sequence:
#
# PCOD9466569 Si02
#       8
#     8   8   8   4   8   8   8   8
#     4  11  24  45  69  98 143 183 226 292 344 413
#     4  10  23  42  58  98 133 173 234 270 338 403
#     4  11  24  43  67  98 136 176 228 282 339 410
#     4  10  22  46  70  96 138 166 218 294 338 400
#     4  11  25  47  73  99 134 175 223 282 347 419
#     4  11  24  47  71 103 133 174 227 281 353 420
#     4  10  22  39  63  89 132 179 228 282 331 398
#     4  11  22  41  64  95 133 180 235 279 334 401
#
# _framework density 20.540690000000001
#
# number of rings (size 3 to 8) (size 9 to 14) (size 15 to 20)
#    0.000    1.333    4.667    0.800    3.733    1.600 
#    9.600    0.000    0.000    0.000    0.000    0.000 
#    0.000    0.000    0.000    0.000    0.000    0.000 
#
# Total GULP energy -334038.903815 kJ/mol
# GULP energy per Si atom -5567.315064 kJ/mol
# Density = 2.049394 g / cm^3
# Si number density = 20.540690 Si / 1000 Ang^3
#
#
#
# Elastic Constant Matrix: (Units=GPa)
#
#
# Indices 1 2 3 4 5 6 
#
# 1 44.6031 16.7711 4.8351 0.0000 0.0000 0.0000
# 2 16.7711 140.0368 21.3722 0.0000 0.0000 0.0000
# 3 4.8351 21.3722 73.2189 0.0000 0.0000 0.0000
# 4 0.0000 0.0000 0.0000 12.7176 0.0000 0.0000
# 5 0.0000 0.0000 0.0000 0.0000 45.0170 0.0000
# 6 0.0000 0.0000 0.0000 0.0000 0.0000 12.0602
#
#
#
# Elastic Compliance Matrix: (Units=1/GPa)
#
#
# Indices 1 2 3 4 5 6 
#
# 1 0.023518 -0.002700 -0.000765 0.000000 0.000000 0.000000
# 2 -0.002700 0.007784 -0.002094 0.000000 0.000000 0.000000
# 3 -0.000765 -0.002094 0.014319 0.000000 0.000000 0.000000
# 4 0.000000 0.000000 0.000000 0.078631 0.000000 0.000000
# 5 0.000000 0.000000 0.000000 0.000000 0.022214 0.000000
# 6 0.000000 0.000000 0.000000 0.000000 0.000000 0.082918
#
#
# Mechanical properties :
#
#
# Convention : Reuss Voigt Hill
#
# Bulk Modulus (GPa) = 28.98206 38.20174 33.59190
# Shear Modulus (GPa) = 19.84107 28.28430 24.06269
#
# Velocity S-wave (km/s) = 3.11133 3.71481 3.42638
# Velocity P-wave (km/s) = 5.20071 6.08590 5.66063
#
# Compressibility (1/GPa) = 0.03450410
#
# Stress axis : x y z
#
# Youngs Moduli (GPa) = 42.52051 128.47085 69.83551
#
# Poissons Ratio (x) = 0.34685 0.05342
# Poissons Ratio (y) = 0.11480 0.14622
# Poissons Ratio (z) = 0.03253 0.26899
#
# Static dielectric constant tensor:
#      x y z
#    x 1.764520 0.000000 0.000000 
#    y 0.000000 1.714870 0.000000 
#    z 0.000000 0.000000 1.755730 
# 
# From -- ./inp_files/10405.got.cif
#   From: 2010.05.17/outbox.cif.g08.bks.cpg/sg62_6_cif.got.tgz:10405.got - 2010.06.03 15:25:27.
