data_PCOD9466426
_publ_section_title
;
Structure prediction by ZEFSAII (Michael W. Deem and Ramdas Pophale) SiO2 
 PCOD9466426
Probable space group: P N M A
;
_chemical_formula_sum "Si O2"
_cell_formula_units_Z 56
_cell_length_a 4.819525
_cell_length_b 28.900964
_cell_length_c 17.093502
_cell_angle_alpha 90.000000
_cell_angle_beta 90.000000
_cell_angle_gamma 90.000000
_cell_volume 2380.935407
_symmetry_space_group_name_H-M "P N M A"
_symmetry_group_IT_number 62
_symmetry_cell_setting 'orthorhombic'
loop_
_space_group_symop_operation_xyz
x,y,z
1/2-x,-y,1/2+z
1/2+x,1/2-y,1/2-z
-x,1/2+y,-z
-x,-y,-z
1/2+x,y,1/2-z
1/2-x,1/2+y,1/2+z
x,1/2-y,z
loop_
_atom_site_type_symbol
_atom_site_label
_atom_site_fract_x
_atom_site_fract_y
_atom_site_fract_z
Si Si1 0.209587 0.937307 0.974181
Si Si2 0.010717 0.401373 0.801243
Si Si3 0.204031 0.195476 0.196072
Si Si4 0.119189 0.750000 0.991782
Si Si5 0.252341 0.822188 0.407326
Si Si6 0.939610 0.750000 0.302995
Si Si7 0.702840 0.537349 0.074631
Si Si8 0.561855 0.158681 0.060079
O O1 0.258697 0.887965 0.933911
O O2 0.298799 0.981788 0.923598
O O3 0.400243 0.943717 0.052222
O O4 0.896779 0.945911 0.002239
O O5 0.190926 0.400411 0.721707
O O6 0.083197 0.356545 0.852166
O O7 0.143610 0.443193 0.849694
O O8 0.896037 0.187757 0.227487
O O9 0.222686 0.250000 0.172458
O O10 0.327925 0.165311 0.126414
O O11 0.279879 0.708024 0.944554
O O12 0.957360 0.710823 0.045121
O O13 0.036686 0.793035 0.354843
O O14 0.082581 0.846571 0.475641
O O15 0.123250 0.750000 0.223811
#
# Coordination Sequence:
#
# PCOD9466426 Si02
#       8
#     8   8   8   4   8   4   8   8
#     4  10  22  40  74  94 132 162 225 288 339 405
#     4  12  25  42  67  96 142 188 228 283 347 415
#     4  10  24  42  62  89 129 169 208 262 340 410
#     4  11  25  38  66  92 138 171 238 295 322 389
#     4  11  26  39  63  94 133 180 244 279 329 402
#     4  11  25  42  56  80 130 181 220 277 332 369
#     4  10  21  44  64 102 127 172 220 283 345 404
#     4  12  24  42  69 101 129 179 229 288 337 407
#
# _framework density 23.520168999999999
#
# number of rings (size 3 to 8) (size 9 to 14) (size 15 to 20)
#    0.000    1.143    2.143    3.429    8.000    0.000 
#    0.000    1.429    0.000    0.000    0.000    0.000 
#    0.000    0.000    0.000    0.000    0.000    0.000 
#
# Total GULP energy -312703.061873 kJ/mol
# GULP energy per Si atom -5583.983248 kJ/mol
# Density = 2.346664 g / cm^3
# Si number density = 23.520169 Si / 1000 Ang^3
#
#
#
# Elastic Constant Matrix: (Units=GPa)
#
#
# Indices 1 2 3 4 5 6 
#
# 1 80.8120 8.8501 -2.2916 0.0000 0.0000 0.0000
# 2 8.8501 154.1308 16.7446 0.0000 0.0000 0.0000
# 3 -2.2916 16.7446 48.1784 0.0000 0.0000 0.0000
# 4 0.0000 0.0000 0.0000 29.3993 0.0000 0.0000
# 5 0.0000 0.0000 0.0000 0.0000 20.9841 0.0000
# 6 0.0000 0.0000 0.0000 0.0000 0.0000 18.0935
#
#
#
# Elastic Compliance Matrix: (Units=1/GPa)
#
#
# Indices 1 2 3 4 5 6 
#
# 1 0.012488 -0.000812 0.000876 0.000000 0.000000 0.000000
# 2 -0.000812 0.006795 -0.002400 0.000000 0.000000 0.000000
# 3 0.000876 -0.002400 0.021632 0.000000 0.000000 0.000000
# 4 0.000000 0.000000 0.000000 0.034014 0.000000 0.000000
# 5 0.000000 0.000000 0.000000 0.000000 0.047655 0.000000
# 6 0.000000 0.000000 0.000000 0.000000 0.000000 0.055269
#
#
# Mechanical properties :
#
#
# Convention : Reuss Voigt Hill
#
# Bulk Modulus (GPa) = 27.59152 36.63639 32.11396
# Shear Modulus (GPa) = 25.69271 31.01656 28.35463
#
# Velocity S-wave (km/s) = 3.30869 3.63536 3.47586
# Velocity P-wave (km/s) = 5.13352 5.76468 5.45823
#
# Compressibility (1/GPa) = 0.03624302
#
# Stress axis : x y z
#
# Youngs Moduli (GPa) = 80.07553 147.15800 46.22751
#
# Poissons Ratio (x) = 0.11953 -0.04051
# Poissons Ratio (y) = 0.06504 0.11097
# Poissons Ratio (z) = -0.07017 0.35324
#
# Static dielectric constant tensor:
#      x y z
#    x 1.914060 0.000000 0.000000 
#    y 0.000000 1.876130 0.000000 
#    z 0.000000 0.000000 1.939800 
# 
# From -- ./inp_files/16298.got.cif
#   From: 2010.05.17/outbox.cif.g08.bks.cpg/sg62_9_cif.got.tgz:16298.got - 2010.06.03 15:25:27.
