data_PCOD9466265
_publ_section_title
;
Structure prediction by ZEFSAII (Michael W. Deem and Ramdas Pophale) SiO2 
 PCOD9466265
Probable space group: P N M A
;
_chemical_formula_sum "Si O2"
_cell_formula_units_Z 60
_cell_length_a 15.781984
_cell_length_b 9.362403
_cell_length_c 19.195115
_cell_angle_alpha 90.000000
_cell_angle_beta 90.000000
_cell_angle_gamma 90.000000
_cell_volume 2836.218257
_symmetry_space_group_name_H-M "P N M A"
_symmetry_group_IT_number 62
_symmetry_cell_setting 'orthorhombic'
loop_
_space_group_symop_operation_xyz
x,y,z
1/2-x,-y,1/2+z
1/2+x,1/2-y,1/2-z
-x,1/2+y,-z
-x,-y,-z
1/2+x,y,1/2-z
1/2-x,1/2+y,1/2+z
x,1/2-y,z
loop_
_atom_site_type_symbol
_atom_site_label
_atom_site_fract_x
_atom_site_fract_y
_atom_site_fract_z
Si Si1 0.643322 0.908609 0.141888
Si Si2 0.119231 0.080181 0.739664
Si Si3 0.701353 0.419901 0.536874
Si Si4 0.655455 0.577652 0.402440
Si Si5 0.458262 0.967364 0.089141
Si Si6 0.476032 0.750000 0.977966
Si Si7 0.790466 0.580028 0.761955
Si Si8 0.034126 0.078566 0.878612
O O1 0.658169 0.750000 0.173150
O O2 0.716916 0.934805 0.085883
O O3 0.552376 0.906700 0.105866
O O4 0.647151 0.028865 0.200626
O O5 0.138586 0.250000 0.746735
O O6 0.046851 0.045516 0.796696
O O7 0.199108 0.983359 0.758859
O O8 0.092851 0.050774 0.660457
O O9 0.693744 0.250000 0.520631
O O10 0.705157 0.512527 0.467459
O O11 0.617209 0.467826 0.579161
O O12 0.661843 0.750000 0.398770
O O13 0.686722 0.503490 0.332132
O O14 0.556137 0.532701 0.408344
O O15 0.471913 0.126562 0.064594
O O16 0.427330 0.873799 0.024678
O O17 0.790232 0.750000 0.770395
O O18 0.033976 0.250000 0.883012
#
# Coordination Sequence:
#
# PCOD9466265 Si02
#       8
#     8   8   8   8   8   4   8   8
#     4  11  22  44  71  93 129 176 220 264 329 397
#     4  11  21  42  69  93 125 172 221 270 327 392
#     4  10  21  40  65  96 133 169 209 264 326 376
#     4  11  23  41  65  96 129 171 214 260 318 391
#     4  11  23  43  68  97 132 180 224 272 329 394
#     4  10  24  42  60  96 136 170 224 276 324 386
#     4  12  27  43  63  97 134 165 217 278 329 389
#     4   9  19  39  67  93 125 166 214 261 315 384
#
# _framework density 21.154931000000001
#
# number of rings (size 3 to 8) (size 9 to 14) (size 15 to 20)
#    0.000    1.333    2.667    2.800    1.867    3.733 
#    2.400    2.000    0.000    0.000    0.000    0.000 
#    0.000    0.000    0.000    0.000    0.000    0.000 
#
# Total GULP energy -334302.792543 kJ/mol
# GULP energy per Si atom -5571.713209 kJ/mol
# Density = 2.110678 g / cm^3
# Si number density = 21.154931 Si / 1000 Ang^3
#
#
#
# Elastic Constant Matrix: (Units=GPa)
#
#
# Indices 1 2 3 4 5 6 
#
# 1 43.7471 3.5056 -7.5810 0.0000 0.0000 0.0000
# 2 3.5056 130.7100 39.2413 0.0000 0.0000 0.0000
# 3 -7.5810 39.2413 50.2243 0.0000 0.0000 0.0000
# 4 0.0000 0.0000 0.0000 -3.7226 0.0000 0.0000
# 5 0.0000 0.0000 0.0000 0.0000 15.6521 0.0000
# 6 0.0000 0.0000 0.0000 0.0000 0.0000 14.5610
#
#
#
# Elastic Compliance Matrix: (Units=1/GPa)
#
#
# Indices 1 2 3 4 5 6 
#
# 1 0.023973 -0.002259 0.005384 0.000000 0.000000 0.000000
# 2 -0.002259 0.010208 -0.008317 0.000000 0.000000 0.000000
# 3 0.005384 -0.008317 0.027221 0.000000 0.000000 0.000000
# 4 0.000000 0.000000 0.000000 -0.268633 0.000000 0.000000
# 5 0.000000 0.000000 0.000000 0.000000 0.063889 0.000000
# 6 0.000000 0.000000 0.000000 0.000000 0.000000 0.068677
#
#
# Mechanical properties :
#
#
# Convention : Reuss Voigt Hill
#
# Bulk Modulus (GPa) = 19.60116 32.77925 26.19020
# Shear Modulus (GPa) = -105.76462 17.93248 -43.91607
#
# Velocity S-wave (km/s) = -7.07840 2.91464 -4.56118
# Velocity P-wave (km/s) = 7.58416 5.18221 3.91561
#
# Compressibility (1/GPa) = 0.05101740
#
# Stress axis : x y z
#
# Youngs Moduli (GPa) = 41.71425 97.96320 36.73598
#
# Poissons Ratio (x) = 0.22132 -0.19777
# Poissons Ratio (y) = 0.09424 0.30552
# Poissons Ratio (z) = -0.22458 0.81473
#
# Static dielectric constant tensor:
#      x y z
#    x 1.808500 0.000000 0.000000 
#    y 0.000000 1.719920 0.000000 
#    z 0.000000 0.000000 1.790720 
# 
# From -- ./inp_files/24395.got.cif
#   From: 2010.05.17/outbox.cif.g08.bks.cpg/sg62_13_cif.got.tgz:24395.got - 2010.06.03 15:25:27.
