data_PCOD9466000
_publ_section_title
;
Structure prediction by ZEFSAII (Michael W. Deem and Ramdas Pophale) SiO2 
 PCOD9466000
Probable space group: P N M A
;
_chemical_formula_sum "Si O2"
_cell_formula_units_Z 56
_cell_length_a 13.731894
_cell_length_b 20.943328
_cell_length_c 9.235263
_cell_angle_alpha 90.000000
_cell_angle_beta 90.000000
_cell_angle_gamma 90.000000
_cell_volume 2655.983694
_symmetry_space_group_name_H-M "P N M A"
_symmetry_group_IT_number 62
_symmetry_cell_setting 'orthorhombic'
loop_
_space_group_symop_operation_xyz
x,y,z
1/2-x,-y,1/2+z
1/2+x,1/2-y,1/2-z
-x,1/2+y,-z
-x,-y,-z
1/2+x,y,1/2-z
1/2-x,1/2+y,1/2+z
x,1/2-y,z
loop_
_atom_site_type_symbol
_atom_site_label
_atom_site_fract_x
_atom_site_fract_y
_atom_site_fract_z
Si Si1 0.520134 0.623983 0.185983
Si Si2 0.693431 0.328730 0.731385
Si Si3 0.438874 0.392145 0.146488
Si Si4 0.784051 0.601811 0.927071
Si Si5 0.444143 0.993145 0.650843
Si Si6 0.475115 0.821173 0.623625
Si Si7 0.862894 0.178464 0.909345
O O1 0.415284 0.647850 0.237268
O O2 0.555968 0.560010 0.266749
O O3 0.592182 0.677739 0.247933
O O4 0.525350 0.609763 0.017443
O O5 0.697863 0.250000 0.712743
O O6 0.726029 0.370530 0.591096
O O7 0.756684 0.347542 0.873732
O O8 0.322140 0.398636 0.144109
O O9 0.495260 0.445412 0.242536
O O10 0.471773 0.327074 0.223929
O O11 0.838365 0.534585 0.895208
O O12 0.869079 0.648111 0.867248
O O13 0.500000 0.000000 0.500000
O O14 0.459412 0.750000 0.570783
O O15 0.554567 0.851426 0.512459
O O16 0.848974 0.250000 0.965998
#
# Coordination Sequence:
#
# PCOD9466000 Si02
#       7
#     8   8   8   8   8   8   8
#     4  12  22  41  66  97 133 164 222 274 320 385
#     4  11  22  38  67  99 131 174 216 265 326 390
#     4  11  26  41  64 101 129 168 221 276 325 381
#     4  11  22  42  65  94 127 169 221 263 330 389
#     4  11  24  45  68  91 130 176 216 269 329 392
#     4  10  22  42  64  93 136 177 212 265 328 390
#     4  10  21  38  64  97 131 174 218 257 317 391
#
# _framework density 21.084467
#
# number of rings (size 3 to 8) (size 9 to 14) (size 15 to 20)
#    0.000    1.143    4.286    2.143    0.000    6.857 
#    0.000    1.429    0.000    0.000    0.000    0.000 
#    0.000    0.000    0.000    0.000    0.000    0.000 
#
# Total GULP energy -311912.065427 kJ/mol
# GULP energy per Si atom -5569.858311 kJ/mol
# Density = 2.103648 g / cm^3
# Si number density = 21.084467 Si / 1000 Ang^3
#
#
#
# Elastic Constant Matrix: (Units=GPa)
#
#
# Indices 1 2 3 4 5 6 
#
# 1 76.6181 10.8562 -3.6460 0.0000 0.0000 0.0000
# 2 10.8562 80.5980 18.7240 0.0000 0.0000 0.0000
# 3 -3.6460 18.7240 105.9101 0.0000 0.0000 0.0000
# 4 0.0000 0.0000 0.0000 19.3687 0.0000 0.0000
# 5 0.0000 0.0000 0.0000 0.0000 34.5995 0.0000
# 6 0.0000 0.0000 0.0000 0.0000 0.0000 23.6843
#
#
#
# Elastic Compliance Matrix: (Units=1/GPa)
#
#
# Indices 1 2 3 4 5 6 
#
# 1 0.013372 -0.001990 0.000812 0.000000 0.000000 0.000000
# 2 -0.001990 0.013235 -0.002408 0.000000 0.000000 0.000000
# 3 0.000812 -0.002408 0.009896 0.000000 0.000000 0.000000
# 4 0.000000 0.000000 0.000000 0.051630 0.000000 0.000000
# 5 0.000000 0.000000 0.000000 0.000000 0.028902 0.000000
# 6 0.000000 0.000000 0.000000 0.000000 0.000000 0.042222
#
#
# Mechanical properties :
#
#
# Convention : Reuss Voigt Hill
#
# Bulk Modulus (GPa) = 34.09391 34.99940 34.54666
# Shear Modulus (GPa) = 28.37595 31.34330 29.85963
#
# Velocity S-wave (km/s) = 3.67253 3.85977 3.76731
# Velocity P-wave (km/s) = 5.84709 6.04148 5.94508
#
# Compressibility (1/GPa) = 0.02933075
#
# Stress axis : x y z
#
# Youngs Moduli (GPa) = 74.78121 75.55856 101.05405
#
# Poissons Ratio (x) = 0.15035 -0.08207
# Poissons Ratio (y) = 0.14880 0.24337
# Poissons Ratio (z) = -0.06073 0.18197
#
# Static dielectric constant tensor:
#      x y z
#    x 1.764500 0.000000 0.000000 
#    y 0.000000 1.896480 0.000000 
#    z 0.000000 0.000000 1.770940 
# 
# From -- ./inp_files/6743.got.cif
#   From: 2010.05.17/outbox.cif.g08.bks.cpg/sg62_4_cif.got.tgz:6743.got - 2010.06.03 15:25:27.
