data_PCOD9466364
_publ_section_title
;
Structure prediction by ZEFSAII (Michael W. Deem and Ramdas Pophale) SiO2 
 PCOD9466364
Probable space group: P N M A
;
_chemical_formula_sum "Si O2"
_cell_formula_units_Z 60
_cell_length_a 5.232957
_cell_length_b 19.588000
_cell_length_c 24.656653
_cell_angle_alpha 90.000000
_cell_angle_beta 90.000000
_cell_angle_gamma 90.000000
_cell_volume 2527.384890
_symmetry_space_group_name_H-M "P N M A"
_symmetry_group_IT_number 62
_symmetry_cell_setting 'orthorhombic'
loop_
_space_group_symop_operation_xyz
x,y,z
1/2-x,-y,1/2+z
1/2+x,1/2-y,1/2-z
-x,1/2+y,-z
-x,-y,-z
1/2+x,y,1/2-z
1/2-x,1/2+y,1/2+z
x,1/2-y,z
loop_
_atom_site_type_symbol
_atom_site_label
_atom_site_fract_x
_atom_site_fract_y
_atom_site_fract_z
Si Si1 0.949280 0.979325 0.781785
Si Si2 0.455252 0.947097 0.928157
Si Si3 0.839443 0.359545 0.156995
Si Si4 0.669428 0.174822 0.435890
Si Si5 0.093131 0.922439 0.017104
Si Si6 0.398405 0.168736 0.785489
Si Si7 0.975219 0.750000 0.715281
Si Si8 0.212865 0.068091 0.875107
O O1 0.154220 0.990906 0.733091
O O2 0.003617 0.900981 0.798315
O O3 0.051999 0.026210 0.830080
O O4 0.687733 0.896188 0.921321
O O5 0.256511 0.914334 0.886395
O O6 0.371830 0.931412 0.989936
O O7 0.434940 0.023853 0.905948
O O8 0.011226 0.314890 0.118519
O O9 0.607029 0.316356 0.181130
O O10 0.791958 0.250000 0.447742
O O11 0.509017 0.145932 0.486760
O O12 0.991477 0.914518 0.077870
O O13 0.000000 0.000000 0.000000
O O14 0.668984 0.152515 0.756999
O O15 0.391091 0.250000 0.795245
O O16 0.342379 0.128375 0.840777
O O17 0.763267 0.750000 0.763760
#
# Coordination Sequence:
#
# PCOD9466364 Si02
#       8
#     8   8   8   8   8   8   4   8
#     4  11  24  41  62  97 135 173 227 278 337 409
#     4   9  22  40  64  95 130 177 224 285 345 415
#     4  10  23  39  60  86 128 179 222 282 329 398
#     4  11  23  41  68  96 134 181 232 283 354 424
#     4   9  21  44  62  97 131 171 226 289 349 412
#     4  10  22  44  69 100 138 180 224 280 355 430
#     4  12  26  38  58  90 124 174 232 286 332 380
#     4  10  21  41  67  96 134 174 223 287 348 420
#
# _framework density 23.739954999999998
#
# number of rings (size 3 to 8) (size 9 to 14) (size 15 to 20)
#    0.000    1.867    0.667    2.400    6.533    3.200 
#   12.000    0.000    0.000    0.000    0.000    0.000 
#    0.000    0.000    0.000    0.000    0.000    0.000 
#
# Total GULP energy -334532.038082 kJ/mol
# GULP energy per Si atom -5575.533968 kJ/mol
# Density = 2.368592 g / cm^3
# Si number density = 23.739955 Si / 1000 Ang^3
#
#
#
# Elastic Constant Matrix: (Units=GPa)
#
#
# Indices 1 2 3 4 5 6 
#
# 1 44.1606 5.9851 -1.5443 0.0000 0.0000 0.0000
# 2 5.9851 108.3982 38.5928 0.0000 0.0000 0.0000
# 3 -1.5443 38.5928 96.5994 0.0000 0.0000 0.0000
# 4 0.0000 0.0000 0.0000 -35.0277 0.0000 0.0000
# 5 0.0000 0.0000 0.0000 0.0000 29.8349 0.0000
# 6 0.0000 0.0000 0.0000 0.0000 0.0000 21.0634
#
#
#
# Elastic Compliance Matrix: (Units=1/GPa)
#
#
# Indices 1 2 3 4 5 6 
#
# 1 0.022901 -0.001626 0.001016 0.000000 0.000000 0.000000
# 2 -0.001626 0.010870 -0.004369 0.000000 0.000000 0.000000
# 3 0.001016 -0.004369 0.012114 0.000000 0.000000 0.000000
# 4 0.000000 0.000000 0.000000 -0.028549 0.000000 0.000000
# 5 0.000000 0.000000 0.000000 0.000000 0.033518 0.000000
# 6 0.000000 0.000000 0.000000 0.000000 0.000000 0.047476
#
#
# Mechanical properties :
#
#
# Convention : Reuss Voigt Hill
#
# Bulk Modulus (GPa) = 27.83479 37.24726 32.54102
# Shear Modulus (GPa) = 41.57552 16.91579 29.24565
#
# Velocity S-wave (km/s) = 4.18938 2.67225 3.51368
# Velocity P-wave (km/s) = 5.92887 5.02444 5.49529
#
# Compressibility (1/GPa) = 0.03592627
#
# Stress axis : x y z
#
# Youngs Moduli (GPa) = 43.66714 91.99225 82.55114
#
# Poissons Ratio (x) = 0.14958 -0.08385
# Poissons Ratio (y) = 0.07101 0.36066
# Poissons Ratio (z) = -0.04435 0.40191
#
# Static dielectric constant tensor:
#      x y z
#    x 2.026800 0.000000 0.000000 
#    y 0.000000 2.066730 0.000000 
#    z 0.000000 0.000000 1.963660 
# 
# From -- ./inp_files/28417.got.cif
#   From: 2010.05.17/outbox.cif.g08.bks.cpg/sg62_15_cif.got.tgz:28417.got - 2010.06.03 15:25:27.
