data_PCOD9466686
_publ_section_title
;
Structure prediction by ZEFSAII (Michael W. Deem and Ramdas Pophale) SiO2 
 PCOD9466686
Probable space group: P N M A
;
_chemical_formula_sum "Si O2"
_cell_formula_units_Z 40
_cell_length_a 13.631767
_cell_length_b 24.125190
_cell_length_c 4.836560
_cell_angle_alpha 90.000000
_cell_angle_beta 90.000000
_cell_angle_gamma 90.000000
_cell_volume 1590.594500
_symmetry_space_group_name_H-M "P N M A"
_symmetry_group_IT_number 62
_symmetry_cell_setting 'orthorhombic'
loop_
_space_group_symop_operation_xyz
x,y,z
1/2-x,-y,1/2+z
1/2+x,1/2-y,1/2-z
-x,1/2+y,-z
-x,-y,-z
1/2+x,y,1/2-z
1/2-x,1/2+y,1/2+z
x,1/2-y,z
loop_
_atom_site_type_symbol
_atom_site_label
_atom_site_fract_x
_atom_site_fract_y
_atom_site_fract_z
Si Si1 0.574891 0.584126 0.770419
Si Si2 0.532925 0.250000 0.940101
Si Si3 0.842456 0.750000 0.926213
Si Si4 0.472581 0.869242 0.244587
Si Si5 0.213201 0.372097 0.057583
Si Si6 0.684850 0.010206 0.465109
O O1 0.522428 0.621279 0.539621
O O2 0.604312 0.527221 0.615677
O O3 0.507539 0.582715 0.040271
O O4 0.674918 0.612258 0.881857
O O5 0.632267 0.250000 0.750893
O O6 0.489661 0.309738 0.865408
O O7 0.554812 0.250000 0.263450
O O8 0.796277 0.808662 0.841673
O O9 0.354176 0.868202 0.277764
O O10 0.161510 0.429609 0.160121
O O11 0.736815 0.978776 0.212607
#
# Coordination Sequence:
#
# PCOD9466686 Si02
#       6
#     8   4   4   8   8   8
#     4  11  24  41  65  99 130 174 227 266 335 402
#     4  10  22  42  62  94 135 164 211 278 320 372
#     4  10  22  40  68  94 121 174 217 252 332 392
#     4  11  24  41  66  96 131 175 222 273 331 394
#     4  10  24  44  67  95 136 172 216 280 326 389
#     4  10  22  41  65  94 134 173 216 279 332 385
#
# _framework density 25.147829999999999
#
# number of rings (size 3 to 8) (size 9 to 14) (size 15 to 20)
#    0.000    1.600    0.000    4.800    0.000   17.600 
#    0.000    0.000    0.000    1.200    0.000    0.000 
#    0.000    0.000    0.000    0.000    0.000    0.000 
#
# Total GULP energy -222829.199041 kJ/mol
# GULP energy per Si atom -5570.729976 kJ/mol
# Density = 2.509059 g / cm^3
# Si number density = 25.147830 Si / 1000 Ang^3
#
#
#
# Elastic Constant Matrix: (Units=GPa)
#
#
# Indices 1 2 3 4 5 6 
#
# 1 100.5946 50.6534 51.5674 0.0000 0.0000 0.0000
# 2 50.6534 178.1604 24.3938 0.0000 0.0000 0.0000
# 3 51.5674 24.3938 121.5413 0.0000 0.0000 0.0000
# 4 0.0000 0.0000 0.0000 24.1945 0.0000 0.0000
# 5 0.0000 0.0000 0.0000 0.0000 32.3465 0.0000
# 6 0.0000 0.0000 0.0000 0.0000 0.0000 35.1676
#
#
#
# Elastic Compliance Matrix: (Units=1/GPa)
#
#
# Indices 1 2 3 4 5 6 
#
# 1 0.014422 -0.003355 -0.005445 0.000000 0.000000 0.000000
# 2 -0.003355 0.006552 0.000108 0.000000 0.000000 0.000000
# 3 -0.005445 0.000108 0.010516 0.000000 0.000000 0.000000
# 4 0.000000 0.000000 0.000000 0.041332 0.000000 0.000000
# 5 0.000000 0.000000 0.000000 0.000000 0.030915 0.000000
# 6 0.000000 0.000000 0.000000 0.000000 0.000000 0.028435
#
#
# Mechanical properties :
#
#
# Convention : Reuss Voigt Hill
#
# Bulk Modulus (GPa) = 70.89108 72.61393 71.75250
# Shear Modulus (GPa) = 32.41333 36.58718 34.50026
#
# Velocity S-wave (km/s) = 3.59404 3.81843 3.70793
# Velocity P-wave (km/s) = 6.74342 6.95544 6.85025
#
# Compressibility (1/GPa) = 0.01410615
#
# Stress axis : x y z
#
# Youngs Moduli (GPa) = 69.34049 152.62839 95.09036
#
# Poissons Ratio (x) = 0.51202 0.51781
# Poissons Ratio (y) = 0.23261 -0.01030
# Poissons Ratio (z) = 0.37759 -0.01653
#
# Static dielectric constant tensor:
#      x y z
#    x 2.129230 0.000000 0.000000 
#    y 0.000000 2.067510 0.000000 
#    z 0.000000 0.000000 1.932110 
# 
# From -- ./inp_files/1058.got.cif
#   From: 2010.05.17/outbox.cif.g08.bks.cpg/sg62_1_cif.got.tgz:1058.got - 2010.06.03 15:25:27.
