data_PCOD9466232
_publ_section_title
;
Structure prediction by ZEFSAII (Michael W. Deem and Ramdas Pophale) SiO2 
 PCOD9466232
Probable space group: P N M A
;
_chemical_formula_sum "Si O2"
_cell_formula_units_Z 56
_cell_length_a 19.747470
_cell_length_b 8.937982
_cell_length_c 17.442828
_cell_angle_alpha 90.000000
_cell_angle_beta 90.000000
_cell_angle_gamma 90.000000
_cell_volume 3078.703297
_symmetry_space_group_name_H-M "P N M A"
_symmetry_group_IT_number 62
_symmetry_cell_setting 'orthorhombic'
loop_
_space_group_symop_operation_xyz
x,y,z
1/2-x,-y,1/2+z
1/2+x,1/2-y,1/2-z
-x,1/2+y,-z
-x,-y,-z
1/2+x,y,1/2-z
1/2-x,1/2+y,1/2+z
x,1/2-y,z
loop_
_atom_site_type_symbol
_atom_site_label
_atom_site_fract_x
_atom_site_fract_y
_atom_site_fract_z
Si Si1 0.438102 0.420240 0.404073
Si Si2 0.928210 0.419828 0.911249
Si Si3 0.653761 0.419887 0.834592
Si Si4 0.805213 0.428592 0.180069
Si Si5 0.074233 0.430959 0.512178
Si Si6 0.716101 0.923056 0.440394
Si Si7 0.798918 0.428445 0.574988
O O1 0.441451 0.250000 0.377365
O O2 0.506399 0.500262 0.377923
O O3 0.436984 0.420349 0.496313
O O4 0.367162 0.481892 0.374380
O O5 0.927711 0.250000 0.883237
O O6 0.852810 0.483184 0.902870
O O7 0.636993 0.250000 0.808631
O O8 0.667157 0.527421 0.763572
O O9 0.600789 0.465348 0.901152
O O10 0.724969 0.413916 0.878834
O O11 0.796048 0.250000 0.172691
O O12 0.736115 0.508213 0.152294
O O13 0.073785 0.250000 0.504980
O O14 0.130150 0.497727 0.452921
O O15 0.000000 0.500000 0.500000
O O16 0.703164 0.750000 0.467871
O O17 0.745679 0.020767 0.509078
O O18 0.805811 0.250000 0.578304
#
# Coordination Sequence:
#
# PCOD9466232 Si02
#       7
#     8   8   8   8   8   8   8
#     4   9  18  30  46  71 103 137 173 212 257 311
#     4   9  16  29  49  72 100 133 170 212 260 311
#     4   9  20  36  56  81 110 143 181 229 281 333
#     4  11  21  36  54  76 111 150 185 228 281 337
#     4  10  21  40  64  88 116 148 190 241 289 342
#     4   9  17  34  54  75 106 140 175 220 273 325
#     4  11  21  33  56  85 110 141 186 232 279 336
#
# _framework density 18.189475999999999
#
# number of rings (size 3 to 8) (size 9 to 14) (size 15 to 20)
#    0.000    2.286    1.429    3.000    0.000    4.571 
#    0.000    1.429    0.000    5.143    0.000    0.000 
#    0.000    0.000    0.000    0.000    0.000    0.000 
#
# Total GULP energy -311884.730667 kJ/mol
# GULP energy per Si atom -5569.370190 kJ/mol
# Density = 1.814808 g / cm^3
# Si number density = 18.189476 Si / 1000 Ang^3
#
#
#
# Elastic Constant Matrix: (Units=GPa)
#
#
# Indices 1 2 3 4 5 6 
#
# 1 155.7043 51.2631 34.7120 0.0000 0.0000 0.0000
# 2 51.2631 73.5602 32.1592 0.0000 0.0000 0.0000
# 3 34.7120 32.1592 47.7755 0.0000 0.0000 0.0000
# 4 0.0000 0.0000 0.0000 21.2958 0.0000 0.0000
# 5 0.0000 0.0000 0.0000 0.0000 11.0503 0.0000
# 6 0.0000 0.0000 0.0000 0.0000 0.0000 30.6814
#
#
#
# Elastic Compliance Matrix: (Units=1/GPa)
#
#
# Indices 1 2 3 4 5 6 
#
# 1 0.008659 -0.004653 -0.003159 0.000000 0.000000 0.000000
# 2 -0.004653 0.021764 -0.011269 0.000000 0.000000 0.000000
# 3 -0.003159 -0.011269 0.030812 0.000000 0.000000 0.000000
# 4 0.000000 0.000000 0.000000 0.046958 0.000000 0.000000
# 5 0.000000 0.000000 0.000000 0.000000 0.090496 0.000000
# 6 0.000000 0.000000 0.000000 0.000000 0.000000 0.032593
#
#
# Mechanical properties :
#
#
# Convention : Reuss Voigt Hill
#
# Bulk Modulus (GPa) = 43.34234 57.03430 50.18832
# Shear Modulus (GPa) = 18.04190 23.19922 20.62056
#
# Velocity S-wave (km/s) = 3.15284 3.57518 3.37063
# Velocity P-wave (km/s) = 6.09375 6.96177 6.54217
#
# Compressibility (1/GPa) = 0.02307213
#
# Stress axis : x y z
#
# Youngs Moduli (GPa) = 115.49203 45.94846 32.45500
#
# Poissons Ratio (x) = 0.21380 0.10252
# Poissons Ratio (y) = 0.53739 0.36573
# Poissons Ratio (z) = 0.36483 0.51779
#
# Static dielectric constant tensor:
#      x y z
#    x 1.653160 0.000000 0.000000 
#    y 0.000000 1.639440 0.000000 
#    z 0.000000 0.000000 1.640990 
# 
# From -- ./inp_files/24639.got.cif
#   From: 2010.05.17/outbox.cif.g08.bks.cpg/sg62_13_cif.got.tgz:24639.got - 2010.06.03 15:25:27.
