data_PCOD9466953
_publ_section_title
;
Structure prediction by ZEFSAII (Michael W. Deem and Ramdas Pophale) SiO2 
 PCOD9466953
Probable space group: P N M A
;
_chemical_formula_sum "Si O2"
_cell_formula_units_Z 40
_cell_length_a 8.084190
_cell_length_b 24.542909
_cell_length_c 8.397438
_cell_angle_alpha 90.000000
_cell_angle_beta 90.000000
_cell_angle_gamma 90.000000
_cell_volume 1666.131807
_symmetry_space_group_name_H-M "P N M A"
_symmetry_group_IT_number 62
_symmetry_cell_setting 'orthorhombic'
loop_
_space_group_symop_operation_xyz
x,y,z
1/2-x,-y,1/2+z
1/2+x,1/2-y,1/2-z
-x,1/2+y,-z
-x,-y,-z
1/2+x,y,1/2-z
1/2-x,1/2+y,1/2+z
x,1/2-y,z
loop_
_atom_site_type_symbol
_atom_site_label
_atom_site_fract_x
_atom_site_fract_y
_atom_site_fract_z
Si Si1 0.315812 0.314129 0.412262
Si Si2 0.547864 0.050788 0.864791
Si Si3 0.885329 0.873607 0.059478
Si Si4 0.438795 0.149590 0.065017
Si Si5 0.864262 0.519117 0.876439
O O1 0.348995 0.250000 0.407368
O O2 0.441761 0.342936 0.534619
O O3 0.370736 0.339158 0.241833
O O4 0.120415 0.322767 0.445752
O O5 0.603657 0.092109 0.722260
O O6 0.422637 0.007503 0.787707
O O7 0.701720 0.014556 0.912216
O O8 0.480112 0.088672 0.004355
O O9 0.720661 0.836347 0.046885
O O10 0.861493 0.916627 0.911258
O O11 0.000000 0.500000 0.000000
#
# Coordination Sequence:
#
# PCOD9466953 Si02
#       5
#     8   8   8   8   8
#     4  12  28  49  74 106 143 191 256 312 373 435
#     4  11  23  47  72 108 149 189 245 295 359 442
#     4  11  26  47  74 105 151 195 243 300 364 435
#     4  12  25  45  78 102 148 191 242 305 368 435
#     4  10  23  40  66 107 147 188 229 286 360 438
#
# _framework density 24.007702999999999
#
# number of rings (size 3 to 8) (size 9 to 14) (size 15 to 20)
#    0.000    0.800    4.000    3.000    2.800    4.800 
#    0.000    2.000    0.000    0.000    0.000    0.000 
#    0.000    0.000    0.000    0.000    0.000    0.000 
#
# Total GULP energy -223572.939160 kJ/mol
# GULP energy per Si atom -5589.323479 kJ/mol
# Density = 2.395306 g / cm^3
# Si number density = 24.007703 Si / 1000 Ang^3
#
#
#
# Elastic Constant Matrix: (Units=GPa)
#
#
# Indices 1 2 3 4 5 6 
#
# 1 173.8083 43.6653 49.1095 0.0000 0.0000 0.0000
# 2 43.6653 114.5295 66.6934 0.0000 0.0000 0.0000
# 3 49.1095 66.6934 95.5811 0.0000 0.0000 0.0000
# 4 0.0000 0.0000 0.0000 9.8011 0.0000 0.0000
# 5 0.0000 0.0000 0.0000 0.0000 38.6798 0.0000
# 6 0.0000 0.0000 0.0000 0.0000 0.0000 32.5656
#
#
#
# Elastic Compliance Matrix: (Units=1/GPa)
#
#
# Indices 1 2 3 4 5 6 
#
# 1 0.006790 -0.000939 -0.002834 0.000000 0.000000 0.000000
# 2 -0.000939 0.014837 -0.009871 0.000000 0.000000 0.000000
# 3 -0.002834 -0.009871 0.018806 0.000000 0.000000 0.000000
# 4 0.000000 0.000000 0.000000 0.102030 0.000000 0.000000
# 5 0.000000 0.000000 0.000000 0.000000 0.025853 0.000000
# 6 0.000000 0.000000 0.000000 0.000000 0.000000 0.030707
#
#
# Mechanical properties :
#
#
# Convention : Reuss Voigt Hill
#
# Bulk Modulus (GPa) = 76.06378 78.09503 77.07940
# Shear Modulus (GPa) = 21.67401 31.17268 26.42335
#
# Velocity S-wave (km/s) = 3.00791 3.60730 3.32116
# Velocity P-wave (km/s) = 6.61931 7.06753 6.84709
#
# Compressibility (1/GPa) = 0.01314686
#
# Stress axis : x y z
#
# Youngs Moduli (GPa) = 147.27684 67.39857 53.17532
#
# Poissons Ratio (x) = 0.06326 0.15069
# Poissons Ratio (y) = 0.13822 0.52487
# Poissons Ratio (z) = 0.41735 0.66527
#
# Static dielectric constant tensor:
#      x y z
#    x 2.028620 0.000000 0.000000 
#    y 0.000000 1.890230 0.000000 
#    z 0.000000 0.000000 1.920050 
# 
# From -- ./inp_files/4271.got.cif
#   From: 2010.05.17/outbox.cif.g08.bks.cpg/sg62_3_cif.got.tgz:4271.got - 2010.06.03 15:25:27.
