data_PCOD9466785
_publ_section_title
;
Structure prediction by ZEFSAII (Michael W. Deem and Ramdas Pophale) SiO2 
 PCOD9466785
Probable space group: P N M A
;
_chemical_formula_sum "Si O2"
_cell_formula_units_Z 64
_cell_length_a 16.958347
_cell_length_b 8.774249
_cell_length_c 22.624530
_cell_angle_alpha 90.000000
_cell_angle_beta 90.000000
_cell_angle_gamma 90.000000
_cell_volume 3366.456743
_symmetry_space_group_name_H-M "P N M A"
_symmetry_group_IT_number 62
_symmetry_cell_setting 'orthorhombic'
loop_
_space_group_symop_operation_xyz
x,y,z
1/2-x,-y,1/2+z
1/2+x,1/2-y,1/2-z
-x,1/2+y,-z
-x,-y,-z
1/2+x,y,1/2-z
1/2-x,1/2+y,1/2+z
x,1/2-y,z
loop_
_atom_site_type_symbol
_atom_site_label
_atom_site_fract_x
_atom_site_fract_y
_atom_site_fract_z
Si Si1 0.999784 0.066391 0.934554
Si Si2 0.587799 0.567020 0.764388
Si Si3 0.848799 0.933341 0.143686
Si Si4 0.179649 0.433015 0.381760
Si Si5 0.822530 0.432060 0.386048
Si Si6 0.912490 0.932460 0.498252
Si Si7 0.911977 0.433175 0.730411
Si Si8 0.846626 0.433579 0.858949
O O1 0.999426 0.250000 0.937761
O O2 0.921711 0.020006 0.898468
O O3 0.077665 0.021836 0.897926
O O4 0.000000 0.000000 0.000000
O O5 0.584182 0.750000 0.759144
O O6 0.634135 0.498247 0.708777
O O7 0.631674 0.528487 0.825501
O O8 0.500034 0.498848 0.765223
O O9 0.845221 0.750000 0.146402
O O10 0.767188 0.998907 0.119528
O O11 0.183310 0.250000 0.377553
O O12 0.134276 0.474040 0.441978
O O13 0.132176 0.498226 0.325896
O O14 0.823903 0.250000 0.392429
O O15 0.866196 0.506121 0.441517
O O16 0.733357 0.490013 0.380425
O O17 0.917242 0.750000 0.495502
O O18 0.000000 0.000000 0.500000
O O19 0.915633 0.250000 0.725985
O O20 0.865917 0.471798 0.790875
O O21 0.838787 0.250000 0.862897
#
# Coordination Sequence:
#
# PCOD9466785 Si02
#       8
#     8   8   8   8   8   8   8   8
#     4  10  23  42  63  91 127 164 208 256 308 371
#     4  11  23  40  63  93 129 166 206 260 317 369
#     4  11  23  42  65  93 126 165 212 259 308 374
#     4  11  25  42  62  93 128 162 206 261 316 372
#     4  11  25  41  62  93 126 162 209 259 308 369
#     4  11  25  45  67  92 126 166 207 255 311 372
#     4  11  22  40  66  94 125 166 211 257 312 375
#     4  10  22  42  63  90 126 162 205 256 308 367
#
# _framework density 19.011085000000001
#
# number of rings (size 3 to 8) (size 9 to 14) (size 15 to 20)
#    0.000    1.250    1.250    3.750    1.750   11.500 
#    0.000    0.000    0.000    0.000    0.000    0.000 
#    0.000    0.000    0.000    0.000    0.000    0.000 
#
# Total GULP energy -358060.388842 kJ/mol
# GULP energy per Si atom -5594.693576 kJ/mol
# Density = 1.896782 g / cm^3
# Si number density = 19.011085 Si / 1000 Ang^3
#
#
#
# Elastic Constant Matrix: (Units=GPa)
#
#
# Indices 1 2 3 4 5 6 
#
# 1 198.2105 63.0071 115.0167 0.0000 0.0000 0.0000
# 2 63.0071 52.7248 71.8165 0.0000 0.0000 0.0000
# 3 115.0167 71.8165 204.6951 0.0000 0.0000 0.0000
# 4 0.0000 0.0000 0.0000 35.9687 0.0000 0.0000
# 5 0.0000 0.0000 0.0000 0.0000 8.4501 0.0000
# 6 0.0000 0.0000 0.0000 0.0000 0.0000 41.0172
#
#
#
# Elastic Compliance Matrix: (Units=1/GPa)
#
#
# Indices 1 2 3 4 5 6 
#
# 1 0.008700 -0.007160 -0.002377 0.000000 0.000000 0.000000
# 2 -0.007160 0.042218 -0.010789 0.000000 0.000000 0.000000
# 3 -0.002377 -0.010789 0.010006 0.000000 0.000000 0.000000
# 4 0.000000 0.000000 0.000000 0.027802 0.000000 0.000000
# 5 0.000000 0.000000 0.000000 0.000000 0.118342 0.000000
# 6 0.000000 0.000000 0.000000 0.000000 0.000000 0.024380
#
#
# Mechanical properties :
#
#
# Convention : Reuss Voigt Hill
#
# Bulk Modulus (GPa) = 49.32521 106.14565 77.73543
# Shear Modulus (GPa) = 17.93035 30.80654 24.36845
#
# Velocity S-wave (km/s) = 3.07441 4.02985 3.58411
# Velocity P-wave (km/s) = 6.21325 8.80952 7.62273
#
# Compressibility (1/GPa) = 0.02027361
#
# Stress axis : x y z
#
# Youngs Moduli (GPa) = 114.94076 23.68644 99.93954
#
# Poissons Ratio (x) = 0.16959 0.23752
# Poissons Ratio (y) = 0.82293 1.07826
# Poissons Ratio (z) = 0.27317 0.25556
#
# Static dielectric constant tensor:
#      x y z
#    x 1.636100 0.000000 0.000000 
#    y 0.000000 1.639820 0.000000 
#    z 0.000000 0.000000 1.630790 
# 
# From -- ./inp_files/29847.got.cif
#   From: 2010.05.17/outbox.cif.g08.bks.cpg/sg62_15_cif.got.tgz:29847.got - 2010.06.03 15:25:27.
