data_PCOD9466196
_publ_section_title
;
Structure prediction by ZEFSAII (Michael W. Deem and Ramdas Pophale) SiO2 
 PCOD9466196
Probable space group: P N M A
;
_chemical_formula_sum "Si O2"
_cell_formula_units_Z 64
_cell_length_a 5.662471
_cell_length_b 18.118138
_cell_length_c 27.767388
_cell_angle_alpha 90.000000
_cell_angle_beta 90.000000
_cell_angle_gamma 90.000000
_cell_volume 2848.751605
_symmetry_space_group_name_H-M "P N M A"
_symmetry_group_IT_number 62
_symmetry_cell_setting 'orthorhombic'
loop_
_space_group_symop_operation_xyz
x,y,z
1/2-x,-y,1/2+z
1/2+x,1/2-y,1/2-z
-x,1/2+y,-z
-x,-y,-z
1/2+x,y,1/2-z
1/2-x,1/2+y,1/2+z
x,1/2-y,z
loop_
_atom_site_type_symbol
_atom_site_label
_atom_site_fract_x
_atom_site_fract_y
_atom_site_fract_z
Si Si1 0.339502 0.040948 0.946464
Si Si2 0.545250 0.590227 0.370200
Si Si3 0.335105 0.412139 0.275164
Si Si4 0.680357 0.166102 0.950785
Si Si5 0.224103 0.947104 0.611559
Si Si6 0.619541 0.896365 0.538506
Si Si7 0.324258 0.590904 0.273463
Si Si8 0.357332 0.837001 0.866326
O O1 0.138841 0.068548 0.911076
O O2 0.469500 0.111941 0.966886
O O3 0.523498 0.995168 0.914448
O O4 0.226094 0.976034 0.977812
O O5 0.731979 0.641414 0.397859
O O6 0.658326 0.510807 0.355938
O O7 0.404172 0.621315 0.325324
O O8 0.586128 0.389965 0.251116
O O9 0.320818 0.501385 0.276204
O O10 0.316158 0.376486 0.328389
O O11 0.607209 0.250000 0.950896
O O12 0.884126 0.151973 0.990616
O O13 0.388678 0.915578 0.569304
O O14 0.104266 0.880220 0.639380
O O15 0.776969 0.854701 0.578860
O O16 0.554420 0.611628 0.240624
O O17 0.370731 0.750000 0.858595
#
# Coordination Sequence:
#
# PCOD9466196 Si02
#       8
#     8   8   8   8   8   8   8   8
#     4   9  20  38  64  87 121 162 211 264 321 382
#     4  10  22  39  63  93 127 161 211 273 338 395
#     4  10  23  40  62  90 127 170 222 277 336 395
#     4  11  24  39  61  93 132 171 211 265 338 415
#     4   9  20  37  61  85 119 159 213 264 319 379
#     4  10  21  40  62  90 124 168 224 274 326 391
#     4  10  22  37  68 100 125 160 215 277 333 394
#     4  11  24  38  57  85 124 173 219 273 334 399
#
# _framework density 22.465980999999999
#
# number of rings (size 3 to 8) (size 9 to 14) (size 15 to 20)
#    0.000    2.000    0.000    3.000   10.500    8.500 
#    0.000    0.000    0.000    0.750    0.000    0.000 
#    0.000    0.000    0.000    0.000    0.000    0.000 
#
# Total GULP energy -357261.969521 kJ/mol
# GULP energy per Si atom -5582.218274 kJ/mol
# Density = 2.241485 g / cm^3
# Si number density = 22.465981 Si / 1000 Ang^3
#
#
#
# Elastic Constant Matrix: (Units=GPa)
#
#
# Indices 1 2 3 4 5 6 
#
# 1 81.5519 27.9323 1.8084 0.0000 0.0000 0.0000
# 2 27.9323 47.0975 25.0902 0.0000 0.0000 0.0000
# 3 1.8084 25.0902 69.5704 0.0000 0.0000 0.0000
# 4 0.0000 0.0000 0.0000 15.8919 0.0000 0.0000
# 5 0.0000 0.0000 0.0000 0.0000 29.3717 0.0000
# 6 0.0000 0.0000 0.0000 0.0000 0.0000 9.9226
#
#
#
# Elastic Compliance Matrix: (Units=1/GPa)
#
#
# Indices 1 2 3 4 5 6 
#
# 1 0.016143 -0.011574 0.003755 0.000000 0.000000 0.000000
# 2 -0.011574 0.034580 -0.012170 0.000000 0.000000 0.000000
# 3 0.003755 -0.012170 0.018666 0.000000 0.000000 0.000000
# 4 0.000000 0.000000 0.000000 0.062925 0.000000 0.000000
# 5 0.000000 0.000000 0.000000 0.000000 0.034046 0.000000
# 6 0.000000 0.000000 0.000000 0.000000 0.000000 0.100780
#
#
# Mechanical properties :
#
#
# Convention : Reuss Voigt Hill
#
# Bulk Modulus (GPa) = 34.00321 34.20905 34.10613
# Shear Modulus (GPa) = 15.77669 20.59652 18.18661
#
# Velocity S-wave (km/s) = 2.65287 3.03113 2.84829
# Velocity P-wave (km/s) = 4.95499 5.24504 5.10208
#
# Compressibility (1/GPa) = 0.02940899
#
# Stress axis : x y z
#
# Youngs Moduli (GPa) = 61.94579 28.91810 53.57470
#
# Poissons Ratio (x) = 0.33470 -0.20115
# Poissons Ratio (y) = 0.71697 0.65202
# Poissons Ratio (z) = -0.23258 0.35194
#
# Static dielectric constant tensor:
#      x y z
#    x 1.936030 0.000000 0.000000 
#    y 0.000000 1.793430 0.000000 
#    z 0.000000 0.000000 1.889990 
# 
# From -- ./inp_files/31706.got.cif
#   From: 2010.05.17/outbox.cif.g08.bks.cpg/sg62_16_cif.got.tgz:31706.got - 2010.06.03 15:25:27.
