data_PCOD9466930
_publ_section_title
;
Structure prediction by ZEFSAII (Michael W. Deem and Ramdas Pophale) SiO2 
 PCOD9466930
Probable space group: P N M A
;
_chemical_formula_sum "Si O2"
_cell_formula_units_Z 48
_cell_length_a 8.245753
_cell_length_b 15.626097
_cell_length_c 20.033159
_cell_angle_alpha 90.000000
_cell_angle_beta 90.000000
_cell_angle_gamma 90.000000
_cell_volume 2581.251226
_symmetry_space_group_name_H-M "P N M A"
_symmetry_group_IT_number 62
_symmetry_cell_setting 'orthorhombic'
loop_
_space_group_symop_operation_xyz
x,y,z
1/2-x,-y,1/2+z
1/2+x,1/2-y,1/2-z
-x,1/2+y,-z
-x,-y,-z
1/2+x,y,1/2-z
1/2-x,1/2+y,1/2+z
x,1/2-y,z
loop_
_atom_site_type_symbol
_atom_site_label
_atom_site_fract_x
_atom_site_fract_y
_atom_site_fract_z
Si Si1 0.138370 0.553858 0.270767
Si Si2 0.630272 0.150411 0.954068
Si Si3 0.020264 0.901764 0.021392
Si Si4 0.858723 0.003688 0.349338
Si Si5 0.926199 0.851134 0.167274
Si Si6 0.688824 0.846907 0.954367
O O1 0.233502 0.508025 0.211061
O O2 0.255576 0.603697 0.320502
O O3 0.030962 0.488753 0.312852
O O4 0.027662 0.623383 0.232758
O O5 0.635533 0.250000 0.932303
O O6 0.797857 0.131438 0.994763
O O7 0.631600 0.082934 0.893551
O O8 0.464814 0.137670 0.996223
O O9 0.005332 0.889533 0.100941
O O10 0.863449 0.854691 0.990637
O O11 0.000000 0.000000 0.000000
O O12 0.817885 0.081540 0.397488
O O13 0.913103 0.750000 0.159919
O O14 0.671265 0.750000 0.929007
#
# Coordination Sequence:
#
# PCOD9466930 Si02
#       6
#     8   8   8   8   8   8
#     4  10  23  36  59  83 116 164 201 243 304 359
#     4  11  23  39  64  96 126 160 201 250 311 371
#     4  12  23  38  63  91 127 162 197 253 311 363
#     4  11  22  42  60  86 123 158 203 254 301 364
#     4  11  21  36  55  86 121 156 201 245 297 368
#     4  11  24  42  65  92 121 161 207 256 310 363
#
# _framework density 18.595634
#
# number of rings (size 3 to 8) (size 9 to 14) (size 15 to 20)
#    0.000    1.000    3.333    3.500    2.333    4.667 
#    0.000    0.833    0.000    0.000    0.000    0.000 
#    0.000    0.000    0.000    0.000    0.000    0.000 
#
# Total GULP energy -268027.158762 kJ/mol
# GULP energy per Si atom -5583.899141 kJ/mol
# Density = 1.855331 g / cm^3
# Si number density = 18.595634 Si / 1000 Ang^3
#
#
#
# Elastic Constant Matrix: (Units=GPa)
#
#
# Indices 1 2 3 4 5 6 
#
# 1 113.4726 16.7170 20.1761 0.0000 0.0000 0.0000
# 2 16.7170 82.9103 30.4868 0.0000 0.0000 0.0000
# 3 20.1761 30.4868 52.1302 0.0000 0.0000 0.0000
# 4 0.0000 0.0000 0.0000 3.4765 0.0000 0.0000
# 5 0.0000 0.0000 0.0000 0.0000 39.6555 0.0000
# 6 0.0000 0.0000 0.0000 0.0000 0.0000 17.2902
#
#
#
# Elastic Compliance Matrix: (Units=1/GPa)
#
#
# Indices 1 2 3 4 5 6 
#
# 1 0.009497 -0.000718 -0.003256 0.000000 0.000000 0.000000
# 2 -0.000718 0.015420 -0.008740 0.000000 0.000000 0.000000
# 3 -0.003256 -0.008740 0.025554 0.000000 0.000000 0.000000
# 4 0.000000 0.000000 0.000000 0.287647 0.000000 0.000000
# 5 0.000000 0.000000 0.000000 0.000000 0.025217 0.000000
# 6 0.000000 0.000000 0.000000 0.000000 0.000000 0.057836
#
#
# Mechanical properties :
#
#
# Convention : Reuss Voigt Hill
#
# Bulk Modulus (GPa) = 39.92994 42.58589 41.25791
# Shear Modulus (GPa) = 10.99028 24.15998 17.57513
#
# Velocity S-wave (km/s) = 2.43372 3.60839 3.07762
# Velocity P-wave (km/s) = 5.42371 6.34913 5.90458
#
# Compressibility (1/GPa) = 0.02504387
#
# Stress axis : x y z
#
# Youngs Moduli (GPa) = 105.29225 64.85217 39.13238
#
# Poissons Ratio (x) = 0.04654 0.12742
# Poissons Ratio (y) = 0.07556 0.34202
# Poissons Ratio (z) = 0.34284 0.56681
#
# Static dielectric constant tensor:
#      x y z
#    x 1.716570 0.000000 0.000000 
#    y 0.000000 1.608910 0.000000 
#    z 0.000000 0.000000 1.607730 
# 
# From -- ./inp_files/22211.got.cif
#   From: 2010.05.17/outbox.cif.g08.bks.cpg/sg62_12_cif.got.tgz:22211.got - 2010.06.03 15:25:27.
