data_PCOD9466318
_publ_section_title
;
Structure prediction by ZEFSAII (Michael W. Deem and Ramdas Pophale) SiO2 
 PCOD9466318
Probable space group: P N M A
;
_chemical_formula_sum "Si O2"
_cell_formula_units_Z 40
_cell_length_a 4.917928
_cell_length_b 17.605672
_cell_length_c 19.250477
_cell_angle_alpha 90.000000
_cell_angle_beta 90.000000
_cell_angle_gamma 90.000000
_cell_volume 1666.772276
_symmetry_space_group_name_H-M "P N M A"
_symmetry_group_IT_number 62
_symmetry_cell_setting 'orthorhombic'
loop_
_space_group_symop_operation_xyz
x,y,z
1/2-x,-y,1/2+z
1/2+x,1/2-y,1/2-z
-x,1/2+y,-z
-x,-y,-z
1/2+x,y,1/2-z
1/2-x,1/2+y,1/2+z
x,1/2-y,z
loop_
_atom_site_type_symbol
_atom_site_label
_atom_site_fract_x
_atom_site_fract_y
_atom_site_fract_z
Si Si1 0.263179 0.128826 0.111276
Si Si2 0.269753 0.041785 0.424237
Si Si3 0.466371 0.750000 0.713057
Si Si4 0.894770 0.899793 0.425090
Si Si5 0.424867 0.159452 0.703652
Si Si6 0.847493 0.250000 0.510193
O O1 0.571444 0.101124 0.115429
O O2 0.148641 0.176360 0.174675
O O3 0.073368 0.056121 0.100152
O O4 0.238686 0.183875 0.044708
O O5 0.247627 0.068583 0.504553
O O6 0.135288 0.960389 0.413295
O O7 0.790453 0.750000 0.716132
O O8 0.021270 0.817497 0.441674
O O9 0.689158 0.886142 0.361736
O O10 0.727083 0.143808 0.730672
O O11 0.409213 0.250000 0.687952
#
# Coordination Sequence:
#
# PCOD9466318 Si02
#       6
#     8   8   4   8   8   4
#     4  10  22  42  58  93 126 158 200 261 316 376
#     4  10  23  39  64  90 131 156 204 264 324 373
#     4  11  22  40  68  92 121 166 210 252 302 377
#     4  10  21  41  63  94 119 169 208 260 317 374
#     4  10  22  40  58  85 121 160 206 251 293 364
#     4   9  20  36  64  86 115 154 204 252 310 355
#
# _framework density 23.998477999999999
#
# number of rings (size 3 to 8) (size 9 to 14) (size 15 to 20)
#    0.000    2.000    1.000    1.200    0.000   19.200 
#    3.600    6.000    0.000    0.000    0.000    0.000 
#    0.000    0.000    0.000    0.000    0.000    0.000 
#
# Total GULP energy -222903.314644 kJ/mol
# GULP energy per Si atom -5572.582866 kJ/mol
# Density = 2.394386 g / cm^3
# Si number density = 23.998478 Si / 1000 Ang^3
#
#
#
# Elastic Constant Matrix: (Units=GPa)
#
#
# Indices 1 2 3 4 5 6 
#
# 1 80.5947 8.3770 4.3294 0.0000 0.0000 0.0000
# 2 8.3770 138.6524 24.1411 0.0000 0.0000 0.0000
# 3 4.3294 24.1411 40.3548 0.0000 0.0000 0.0000
# 4 0.0000 0.0000 0.0000 43.4651 0.0000 0.0000
# 5 0.0000 0.0000 0.0000 0.0000 20.0027 0.0000
# 6 0.0000 0.0000 0.0000 0.0000 0.0000 19.1401
#
#
#
# Elastic Compliance Matrix: (Units=1/GPa)
#
#
# Indices 1 2 3 4 5 6 
#
# 1 0.012522 -0.000583 -0.000994 0.000000 0.000000 0.000000
# 2 -0.000583 0.008078 -0.004770 0.000000 0.000000 0.000000
# 3 -0.000994 -0.004770 0.027740 0.000000 0.000000 0.000000
# 4 0.000000 0.000000 0.000000 0.023007 0.000000 0.000000
# 5 0.000000 0.000000 0.000000 0.000000 0.049993 0.000000
# 6 0.000000 0.000000 0.000000 0.000000 0.000000 0.052246
#
#
# Mechanical properties :
#
#
# Convention : Reuss Voigt Hill
#
# Bulk Modulus (GPa) = 28.05454 37.03300 32.54377
# Shear Modulus (GPa) = 25.23168 31.37188 28.30178
#
# Velocity S-wave (km/s) = 3.24603 3.61951 3.43784
# Velocity P-wave (km/s) = 5.07587 5.73870 5.41743
#
# Compressibility (1/GPa) = 0.03564486
#
# Stress axis : x y z
#
# Youngs Moduli (GPa) = 79.86064 123.79273 36.04863
#
# Poissons Ratio (x) = 0.07222 0.03585
# Poissons Ratio (y) = 0.04659 0.17195
# Poissons Ratio (z) = 0.07941 0.59047
#
# Static dielectric constant tensor:
#      x y z
#    x 1.907070 0.000000 0.000000 
#    y 0.000000 1.888510 0.000000 
#    z 0.000000 0.000000 1.954780 
# 
# From -- ./inp_files/21514.got.cif
#   From: 2010.05.17/outbox.cif.g08.bks.cpg/sg62_11_cif.got.tgz:21514.got - 2010.06.03 15:25:27.
