data_PCOD9466536
_publ_section_title
;
Structure prediction by ZEFSAII (Michael W. Deem and Ramdas Pophale) SiO2 
 PCOD9466536
Probable space group: P N M A
;
_chemical_formula_sum "Si O2"
_cell_formula_units_Z 52
_cell_length_a 22.985419
_cell_length_b 11.652600
_cell_length_c 8.625912
_cell_angle_alpha 90.000000
_cell_angle_beta 90.000000
_cell_angle_gamma 90.000000
_cell_volume 2310.363351
_symmetry_space_group_name_H-M "P N M A"
_symmetry_group_IT_number 62
_symmetry_cell_setting 'orthorhombic'
loop_
_space_group_symop_operation_xyz
x,y,z
1/2-x,-y,1/2+z
1/2+x,1/2-y,1/2-z
-x,1/2+y,-z
-x,-y,-z
1/2+x,y,1/2-z
1/2-x,1/2+y,1/2+z
x,1/2-y,z
loop_
_atom_site_type_symbol
_atom_site_label
_atom_site_fract_x
_atom_site_fract_y
_atom_site_fract_z
Si Si1 0.869994 0.620752 0.956980
Si Si2 0.846372 0.478073 0.251455
Si Si3 0.004100 0.624189 0.852052
Si Si4 0.680544 0.750000 0.559880
Si Si5 0.126182 0.879359 0.441461
Si Si6 0.214893 0.557516 0.194364
Si Si7 0.982392 0.120247 0.789857
O O1 0.849045 0.750000 0.969460
O O2 0.872205 0.565027 0.126174
O O3 0.934641 0.622366 0.885405
O O4 0.825477 0.549436 0.853851
O O5 0.844129 0.352883 0.173108
O O6 0.876944 0.466990 0.417672
O O7 0.780548 0.519130 0.283448
O O8 0.017718 0.750000 0.781976
O O9 0.014498 0.502586 0.768406
O O10 0.032055 0.621477 0.025058
O O11 0.705850 0.849478 0.439748
O O12 0.123230 0.750000 0.500709
O O13 0.187027 0.895843 0.352675
O O14 0.075302 0.888318 0.313743
O O15 0.007939 0.250000 0.761456
#
# Coordination Sequence:
#
# PCOD9466536 Si02
#       7
#     8   8   8   4   8   8   8
#     4  10  22  39  57  80 114 154 188 225 294 347
#     4  11  24  37  55  81 115 151 189 240 282 334
#     4   9  17  35  56  84 115 146 188 239 284 346
#     4  10  22  40  56  78 108 148 194 234 280 328
#     4  11  20  37  58  85 113 145 191 243 285 331
#     4  11  22  37  59  81 109 152 197 231 277 339
#     4   9  18  31  59  87 111 144 191 240 288 331
#
# _framework density 22.507280999999999
#
# number of rings (size 3 to 8) (size 9 to 14) (size 15 to 20)
#    0.000    1.846    3.077    1.846    2.154    1.231 
#    0.000    1.538    0.000    0.000    0.000    0.000 
#    0.000    0.000    0.000    0.000    0.000    0.000 
#
# Total GULP energy -289513.651306 kJ/mol
# GULP energy per Si atom -5567.570217 kJ/mol
# Density = 2.245605 g / cm^3
# Si number density = 22.507281 Si / 1000 Ang^3
#
#
#
# Elastic Constant Matrix: (Units=GPa)
#
#
# Indices 1 2 3 4 5 6 
#
# 1 89.5528 26.5829 34.9606 0.0000 0.0000 0.0000
# 2 26.5829 189.2736 23.6403 0.0000 0.0000 0.0000
# 3 34.9606 23.6403 25.5924 0.0000 0.0000 0.0000
# 4 0.0000 0.0000 0.0000 28.8639 0.0000 0.0000
# 5 0.0000 0.0000 0.0000 0.0000 19.2424 0.0000
# 6 0.0000 0.0000 0.0000 0.0000 0.0000 8.4425
#
#
#
# Elastic Compliance Matrix: (Units=1/GPa)
#
#
# Indices 1 2 3 4 5 6 
#
# 1 0.024039 0.000820 -0.033595 0.000000 0.000000 0.000000
# 2 0.000820 0.006000 -0.006663 0.000000 0.000000 0.000000
# 3 -0.033595 -0.006663 0.091122 0.000000 0.000000 0.000000
# 4 0.000000 0.000000 0.000000 0.034645 0.000000 0.000000
# 5 0.000000 0.000000 0.000000 0.000000 0.051969 0.000000
# 6 0.000000 0.000000 0.000000 0.000000 0.000000 0.118449
#
#
# Mechanical properties :
#
#
# Convention : Reuss Voigt Hill
#
# Bulk Modulus (GPa) = 23.64942 52.75405 38.20173
# Shear Modulus (GPa) = 11.92763 25.92542 18.92652
#
# Velocity S-wave (km/s) = 2.30455 3.39760 2.90299
# Velocity P-wave (km/s) = 4.19661 6.23547 5.31473
#
# Compressibility (1/GPa) = 0.04228434
#
# Stress axis : x y z
#
# Youngs Moduli (GPa) = 41.59991 166.65603 10.97432
#
# Poissons Ratio (x) = -0.13665 0.36869
# Poissons Ratio (y) = -0.03411 0.07312
# Poissons Ratio (z) = 1.39756 1.11039
#
# Static dielectric constant tensor:
#      x y z
#    x 1.893370 0.000000 0.000000 
#    y 0.000000 1.850050 0.000000 
#    z 0.000000 0.000000 1.819340 
# 
# From -- ./inp_files/9807.got.cif
#   From: 2010.05.17/outbox.cif.g08.bks.cpg/sg62_5_cif.got.tgz:9807.got - 2010.06.03 15:25:27.
