data_PCOD9466010
_publ_section_title
;
Structure prediction by ZEFSAII (Michael W. Deem and Ramdas Pophale) SiO2 
 PCOD9466010
Probable space group: P N M A
;
_chemical_formula_sum "Si O2"
_cell_formula_units_Z 48
_cell_length_a 8.744719
_cell_length_b 16.229409
_cell_length_c 16.755176
_cell_angle_alpha 90.000000
_cell_angle_beta 90.000000
_cell_angle_gamma 90.000000
_cell_volume 2377.921742
_symmetry_space_group_name_H-M "P N M A"
_symmetry_group_IT_number 62
_symmetry_cell_setting 'orthorhombic'
loop_
_space_group_symop_operation_xyz
x,y,z
1/2-x,-y,1/2+z
1/2+x,1/2-y,1/2-z
-x,1/2+y,-z
-x,-y,-z
1/2+x,y,1/2-z
1/2-x,1/2+y,1/2+z
x,1/2-y,z
loop_
_atom_site_type_symbol
_atom_site_label
_atom_site_fract_x
_atom_site_fract_y
_atom_site_fract_z
Si Si1 0.476587 0.156701 0.781151
Si Si2 0.306832 0.497294 0.844428
Si Si3 0.438838 0.404378 0.249882
Si Si4 0.702108 0.656148 0.368558
Si Si5 0.810547 0.658007 0.867569
Si Si6 0.820402 0.999837 0.980394
O O1 0.425399 0.250000 0.797130
O O2 0.446366 0.143374 0.687203
O O3 0.649638 0.150181 0.811271
O O4 0.370310 0.092690 0.826357
O O5 0.159221 0.523703 0.792596
O O6 0.439636 0.557115 0.811376
O O7 0.270895 0.504229 0.937198
O O8 0.532128 0.358267 0.319202
O O9 0.321871 0.350070 0.199066
O O10 0.698708 0.750000 0.401300
O O11 0.713305 0.582071 0.430124
O O12 0.810181 0.750000 0.902611
O O13 0.788221 0.582906 0.929410
O O14 0.000000 0.000000 0.000000
#
# Coordination Sequence:
#
# PCOD9466010 Si02
#       6
#     8   8   8   8   8   8
#     4  10  21  38  66  96 124 167 215 264 313 371
#     4  11  22  41  66  91 128 167 212 263 313 388
#     4  10  22  42  68  90 120 169 218 262 312 371
#     4  10  23  43  66  95 130 166 214 262 314 379
#     4  11  23  42  66  95 128 165 215 266 314 379
#     4  12  26  41  61  96 130 171 207 256 332 376
#
# _framework density 20.185694999999999
#
# number of rings (size 3 to 8) (size 9 to 14) (size 15 to 20)
#    0.000    1.333    1.667    4.500    2.333    4.000 
#    0.000    3.333    0.000    0.000    0.000    0.000 
#    0.000    0.000    0.000    0.000    0.000    0.000 
#
# Total GULP energy -268295.844340 kJ/mol
# GULP energy per Si atom -5589.496757 kJ/mol
# Density = 2.013975 g / cm^3
# Si number density = 20.185695 Si / 1000 Ang^3
#
#
#
# Elastic Constant Matrix: (Units=GPa)
#
#
# Indices 1 2 3 4 5 6 
#
# 1 68.7078 18.3799 9.2539 0.0000 0.0000 0.0000
# 2 18.3799 137.9504 45.4049 0.0000 0.0000 0.0000
# 3 9.2539 45.4049 74.5729 0.0000 0.0000 0.0000
# 4 0.0000 0.0000 0.0000 8.1183 0.0000 0.0000
# 5 0.0000 0.0000 0.0000 0.0000 27.8376 0.0000
# 6 0.0000 0.0000 0.0000 0.0000 0.0000 22.1943
#
#
#
# Elastic Compliance Matrix: (Units=1/GPa)
#
#
# Indices 1 2 3 4 5 6 
#
# 1 0.015132 -0.001748 -0.000813 0.000000 0.000000 0.000000
# 2 -0.001748 0.009268 -0.005426 0.000000 0.000000 0.000000
# 3 -0.000813 -0.005426 0.016814 0.000000 0.000000 0.000000
# 4 0.000000 0.000000 0.000000 0.123179 0.000000 0.000000
# 5 0.000000 0.000000 0.000000 0.000000 0.035923 0.000000
# 6 0.000000 0.000000 0.000000 0.000000 0.000000 0.045057
#
#
# Mechanical properties :
#
#
# Convention : Reuss Voigt Hill
#
# Bulk Modulus (GPa) = 39.62163 47.47871 43.55017
# Shear Modulus (GPa) = 18.53501 25.50953 22.02227
#
# Velocity S-wave (km/s) = 3.03351 3.55877 3.30659
# Velocity P-wave (km/s) = 5.65162 6.36070 6.01661
#
# Compressibility (1/GPa) = 0.02523874
#
# Stress axis : x y z
#
# Youngs Moduli (GPa) = 66.08677 107.90047 59.47343
#
# Poissons Ratio (x) = 0.18866 0.04836
# Poissons Ratio (y) = 0.11555 0.32270
# Poissons Ratio (z) = 0.05374 0.58545
#
# Static dielectric constant tensor:
#      x y z
#    x 1.731340 0.000000 0.000000 
#    y 0.000000 1.735890 0.000000 
#    z 0.000000 0.000000 1.723670 
# 
# From -- ./inp_files/22214.got.cif
#   From: 2010.05.17/outbox.cif.g08.bks.cpg/sg62_12_cif.got.tgz:22214.got - 2010.06.03 15:25:27.
