data_PCOD9466135
_publ_section_title
;
Structure prediction by ZEFSAII (Michael W. Deem and Ramdas Pophale) SiO2 
 PCOD9466135
Probable space group: P N M A
;
_chemical_formula_sum "Si O2"
_cell_formula_units_Z 64
_cell_length_a 12.281709
_cell_length_b 31.130855
_cell_length_c 7.724069
_cell_angle_alpha 90.000000
_cell_angle_beta 90.000000
_cell_angle_gamma 90.000000
_cell_volume 2953.221330
_symmetry_space_group_name_H-M "P N M A"
_symmetry_group_IT_number 62
_symmetry_cell_setting 'orthorhombic'
loop_
_space_group_symop_operation_xyz
x,y,z
1/2-x,-y,1/2+z
1/2+x,1/2-y,1/2-z
-x,1/2+y,-z
-x,-y,-z
1/2+x,y,1/2-z
1/2-x,1/2+y,1/2+z
x,1/2-y,z
loop_
_atom_site_type_symbol
_atom_site_label
_atom_site_fract_x
_atom_site_fract_y
_atom_site_fract_z
Si Si1 0.734998 0.839963 0.507644
Si Si2 0.769424 0.914968 0.010338
Si Si3 0.040932 0.626674 0.797686
Si Si4 0.454226 0.700693 0.891986
Si Si5 0.608449 0.652962 0.164680
Si Si6 0.999421 0.424029 0.855367
Si Si7 0.860015 0.915913 0.629371
Si Si8 0.392788 0.487800 0.895327
O O1 0.655497 0.849351 0.670269
O O2 0.831909 0.806702 0.538700
O O3 0.661739 0.828507 0.341383
O O4 0.798368 0.885901 0.492968
O O5 0.707415 0.872685 0.075071
O O6 0.871638 0.929632 0.127420
O O7 0.684785 0.953875 0.012862
O O8 0.816377 0.905956 0.821457
O O9 0.965236 0.668710 0.772145
O O10 0.988519 0.597329 0.644087
O O11 0.038456 0.593894 0.958577
O O12 0.474226 0.750000 0.851213
O O13 0.542210 0.683698 0.034894
O O14 0.527031 0.615841 0.231050
O O15 0.934697 0.465023 0.782012
O O16 0.837009 0.965985 0.614835
O O17 0.500000 0.500000 0.000000
#
# Coordination Sequence:
#
# PCOD9466135 Si02
#       8
#     8   8   8   8   8   8   8   8
#     4  10  22  40  70  89 126 173 215 260 334 401
#     4  10  22  38  61  84 124 170 219 263 319 377
#     4   9  21  42  66  90 123 171 215 266 322 399
#     4  11  24  41  66 100 131 159 209 274 337 409
#     4  10  21  39  65  91 124 165 214 265 319 399
#     4   9  21  41  60  88 122 172 221 260 318 381
#     4  10  23  38  60  91 125 172 222 266 318 385
#     4  11  26  34  59  92 132 167 217 282 315 364
#
# _framework density 21.671249
#
# number of rings (size 3 to 8) (size 9 to 14) (size 15 to 20)
#    0.000    2.000    0.000    1.500   12.250    5.000 
#    0.000    1.875    0.000    0.000    0.000    0.000 
#    0.000    0.000    0.000    0.000    0.000    0.000 
#
# Total GULP energy -356714.027984 kJ/mol
# GULP energy per Si atom -5573.656687 kJ/mol
# Density = 2.162192 g / cm^3
# Si number density = 21.671249 Si / 1000 Ang^3
#
#
#
# Elastic Constant Matrix: (Units=GPa)
#
#
# Indices 1 2 3 4 5 6 
#
# 1 77.7254 3.9247 6.3393 0.0000 0.0000 0.0000
# 2 3.9247 101.4797 -4.3905 0.0000 0.0000 0.0000
# 3 6.3393 -4.3905 50.1135 0.0000 0.0000 0.0000
# 4 0.0000 0.0000 0.0000 17.4586 0.0000 0.0000
# 5 0.0000 0.0000 0.0000 0.0000 32.6566 0.0000
# 6 0.0000 0.0000 0.0000 0.0000 0.0000 18.7003
#
#
#
# Elastic Compliance Matrix: (Units=1/GPa)
#
#
# Indices 1 2 3 4 5 6 
#
# 1 0.013034 -0.000578 -0.001699 0.000000 0.000000 0.000000
# 2 -0.000578 0.009917 0.000942 0.000000 0.000000 0.000000
# 3 -0.001699 0.000942 0.020252 0.000000 0.000000 0.000000
# 4 0.000000 0.000000 0.000000 0.057278 0.000000 0.000000
# 5 0.000000 0.000000 0.000000 0.000000 0.030622 0.000000
# 6 0.000000 0.000000 0.000000 0.000000 0.000000 0.053475
#
#
# Mechanical properties :
#
#
# Convention : Reuss Voigt Hill
#
# Bulk Modulus (GPa) = 24.67122 26.78506 25.72814
# Shear Modulus (GPa) = 24.90547 28.65944 26.78246
#
# Velocity S-wave (km/s) = 3.39372 3.64051 3.51928
# Velocity P-wave (km/s) = 5.17354 5.48249 5.33025
#
# Compressibility (1/GPa) = 0.04053307
#
# Stress axis : x y z
#
# Youngs Moduli (GPa) = 76.72493 100.83407 49.37737
#
# Poissons Ratio (x) = 0.05824 0.08391
# Poissons Ratio (y) = 0.04432 -0.04651
# Poissons Ratio (z) = 0.13038 -0.09498
#
# Static dielectric constant tensor:
#      x y z
#    x 1.904160 0.000000 0.000000 
#    y 0.000000 1.782330 0.000000 
#    z 0.000000 0.000000 1.874410 
# 
# From -- ./inp_files/5537.got.cif
#   From: 2010.05.17/outbox.cif.g08.bks.cpg/sg62_3_cif.got.tgz:5537.got - 2010.06.03 15:25:27.
