data_PCOD9466331
_publ_section_title
;
Structure prediction by ZEFSAII (Michael W. Deem and Ramdas Pophale) SiO2 
 PCOD9466331
Probable space group: P N M A
;
_chemical_formula_sum "Si O2"
_cell_formula_units_Z 56
_cell_length_a 14.731895
_cell_length_b 9.071837
_cell_length_c 21.128073
_cell_angle_alpha 90.000000
_cell_angle_beta 90.000000
_cell_angle_gamma 90.000000
_cell_volume 2823.668714
_symmetry_space_group_name_H-M "P N M A"
_symmetry_group_IT_number 62
_symmetry_cell_setting 'orthorhombic'
loop_
_space_group_symop_operation_xyz
x,y,z
1/2-x,-y,1/2+z
1/2+x,1/2-y,1/2-z
-x,1/2+y,-z
-x,-y,-z
1/2+x,y,1/2-z
1/2-x,1/2+y,1/2+z
x,1/2-y,z
loop_
_atom_site_type_symbol
_atom_site_label
_atom_site_fract_x
_atom_site_fract_y
_atom_site_fract_z
Si Si1 0.273431 0.924904 0.490620
Si Si2 0.111626 0.573946 0.735604
Si Si3 0.915232 0.573650 0.678738
Si Si4 0.794242 0.422922 0.783406
Si Si5 0.606638 0.074134 0.627902
Si Si6 0.911540 0.574044 0.529668
Si Si7 0.405621 0.423019 0.587934
O O1 0.260071 0.750000 0.496211
O O2 0.312195 0.957110 0.420455
O O3 0.179651 0.009462 0.500902
O O4 0.349325 0.979402 0.539455
O O5 0.119782 0.750000 0.734722
O O6 0.199078 0.501998 0.702995
O O7 0.112208 0.514362 0.807272
O O8 0.016062 0.533668 0.703311
O O9 0.903946 0.750000 0.686970
O O10 0.841585 0.492316 0.721851
O O11 0.907761 0.539848 0.604659
O O12 0.778385 0.250000 0.773055
O O13 0.861792 0.440615 0.842565
O O14 0.605503 0.250000 0.641567
O O15 0.511492 0.038765 0.593393
O O16 0.915525 0.750000 0.522152
O O17 0.000000 0.500000 0.500000
O O18 0.397878 0.250000 0.570250
#
# Coordination Sequence:
#
# PCOD9466331 Si02
#       7
#     8   8   8   8   8   8   8
#     4  11  24  40  63  92 124 166 210 257 311 369
#     4  11  23  38  62  93 126 163 203 253 310 368
#     4  10  23  43  65  92 124 161 204 256 310 364
#     4  11  23  39  63  93 126 165 207 255 309 370
#     4  10  21  41  64  93 128 163 209 255 305 371
#     4  11  25  45  66  91 125 164 212 262 312 373
#     4  10  22  40  62  92 127 163 206 257 310 367
#
# _framework density 19.832355
#
# number of rings (size 3 to 8) (size 9 to 14) (size 15 to 20)
#    0.000    1.429    1.429    3.000    2.000    6.857 
#    0.000    0.000    0.000    0.000    0.000    0.000 
#    0.000    0.000    0.000    0.000    0.000    0.000 
#
# Total GULP energy -313268.623679 kJ/mol
# GULP energy per Si atom -5594.082566 kJ/mol
# Density = 1.978722 g / cm^3
# Si number density = 19.832355 Si / 1000 Ang^3
#
#
#
# Elastic Constant Matrix: (Units=GPa)
#
#
# Indices 1 2 3 4 5 6 
#
# 1 102.9322 28.0899 0.2312 0.0000 0.0000 0.0000
# 2 28.0899 39.5582 22.6475 0.0000 0.0000 0.0000
# 3 0.2312 22.6475 35.9232 0.0000 0.0000 0.0000
# 4 0.0000 0.0000 0.0000 30.5098 0.0000 0.0000
# 5 0.0000 0.0000 0.0000 0.0000 20.8429 0.0000
# 6 0.0000 0.0000 0.0000 0.0000 0.0000 35.1760
#
#
#
# Elastic Compliance Matrix: (Units=1/GPa)
#
#
# Indices 1 2 3 4 5 6 
#
# 1 0.013881 -0.015343 0.009584 0.000000 0.000000 0.000000
# 2 -0.015343 0.056517 -0.035532 0.000000 0.000000 0.000000
# 3 0.009584 -0.035532 0.050176 0.000000 0.000000 0.000000
# 4 0.000000 0.000000 0.000000 0.032776 0.000000 0.000000
# 5 0.000000 0.000000 0.000000 0.000000 0.047978 0.000000
# 6 0.000000 0.000000 0.000000 0.000000 0.000000 0.028428
#
#
# Mechanical properties :
#
#
# Convention : Reuss Voigt Hill
#
# Bulk Modulus (GPa) = 26.32207 31.15009 28.73608
# Shear Modulus (GPa) = 15.38447 25.80206 20.59327
#
# Velocity S-wave (km/s) = 2.78821 3.61086 3.22587
# Velocity P-wave (km/s) = 4.86483 5.75545 5.32878
#
# Compressibility (1/GPa) = 0.03799093
#
# Stress axis : x y z
#
# Youngs Moduli (GPa) = 72.04209 17.69389 19.92975
#
# Poissons Ratio (x) = 0.27148 -0.19100
# Poissons Ratio (y) = 1.10537 0.70814
# Poissons Ratio (z) = -0.69044 0.62870
#
# Static dielectric constant tensor:
#      x y z
#    x 1.679840 0.000000 0.000000 
#    y 0.000000 1.657710 0.000000 
#    z 0.000000 0.000000 1.677500 
# 
# From -- ./inp_files/27104.got.cif
#   From: 2010.05.17/outbox.cif.g08.bks.cpg/sg62_14_cif.got.tgz:27104.got - 2010.06.03 15:25:27.
