data_PCOD9466097
_publ_section_title
;
Structure prediction by ZEFSAII (Michael W. Deem and Ramdas Pophale) SiO2 
 PCOD9466097
Probable space group: P N M A
;
_chemical_formula_sum "Si O2"
_cell_formula_units_Z 32
_cell_length_a 5.427172
_cell_length_b 18.733401
_cell_length_c 12.228750
_cell_angle_alpha 90.000000
_cell_angle_beta 90.000000
_cell_angle_gamma 90.000000
_cell_volume 1243.289545
_symmetry_space_group_name_H-M "P N M A"
_symmetry_group_IT_number 62
_symmetry_cell_setting 'orthorhombic'
loop_
_space_group_symop_operation_xyz
x,y,z
1/2-x,-y,1/2+z
1/2+x,1/2-y,1/2-z
-x,1/2+y,-z
-x,-y,-z
1/2+x,y,1/2-z
1/2-x,1/2+y,1/2+z
x,1/2-y,z
loop_
_atom_site_type_symbol
_atom_site_label
_atom_site_fract_x
_atom_site_fract_y
_atom_site_fract_z
Si Si1 0.439662 0.355238 0.215864
Si Si2 0.283039 0.665891 0.478125
Si Si3 0.625577 0.939128 0.572955
Si Si4 0.572153 0.950490 0.183172
O O1 0.707159 0.322073 0.223743
O O2 0.364688 0.349227 0.090180
O O3 0.480893 0.420919 0.305156
O O4 0.296454 0.750000 0.456226
O O5 0.553282 0.630853 0.503187
O O6 0.142724 0.619186 0.387778
O O7 0.500000 0.000000 0.500000
O O8 0.878171 0.978808 0.607982
O O9 0.293100 0.948560 0.226410
#
# Coordination Sequence:
#
# PCOD9466097 Si02
#       4
#     8   8   8   8
#     4  10  21  39  62  94 131 168 213 268 331 397
#     4  10  23  42  67 100 138 181 229 285 351 420
#     4   9  20  41  68  98 132 173 223 277 339 409
#     4  11  24  44  69  96 132 180 235 290 343 410
#
# _framework density 25.738168999999999
#
# number of rings (size 3 to 8) (size 9 to 14) (size 15 to 20)
#    0.000    2.000    0.000    3.000    0.000   11.000 
#    0.000   18.750    0.000    0.000    0.000    0.000 
#    0.000    0.000    0.000    0.000    0.000    0.000 
#
# Total GULP energy -178222.311813 kJ/mol
# GULP energy per Si atom -5569.447244 kJ/mol
# Density = 2.567959 g / cm^3
# Si number density = 25.738169 Si / 1000 Ang^3
#
#
#
# Elastic Constant Matrix: (Units=GPa)
#
#
# Indices 1 2 3 4 5 6 
#
# 1 155.7151 32.6574 55.4274 0.0000 0.0000 0.0000
# 2 32.6574 178.8102 24.6332 0.0000 0.0000 0.0000
# 3 55.4274 24.6332 74.8408 0.0000 0.0000 0.0000
# 4 0.0000 0.0000 0.0000 122.9684 0.0000 0.0000
# 5 0.0000 0.0000 0.0000 0.0000 63.8359 0.0000
# 6 0.0000 0.0000 0.0000 0.0000 0.0000 -32.0540
#
#
#
# Elastic Compliance Matrix: (Units=1/GPa)
#
#
# Indices 1 2 3 4 5 6 
#
# 1 0.008815 -0.000744 -0.006283 0.000000 0.000000 0.000000
# 2 -0.000744 0.005921 -0.001398 0.000000 0.000000 0.000000
# 3 -0.006283 -0.001398 0.018475 0.000000 0.000000 0.000000
# 4 0.000000 0.000000 0.000000 0.008132 0.000000 0.000000
# 5 0.000000 0.000000 0.000000 0.000000 0.015665 0.000000
# 6 0.000000 0.000000 0.000000 0.000000 0.000000 -0.031197
#
#
# Mechanical properties :
#
#
# Convention : Reuss Voigt Hill
#
# Bulk Modulus (GPa) = 61.12279 70.53355 65.82817
# Shear Modulus (GPa) = 103.91933 50.72660 77.32297
#
# Velocity S-wave (km/s) = 6.36107 4.44427 5.48702
# Velocity P-wave (km/s) = 8.81762 7.33479 8.11016
#
# Compressibility (1/GPa) = 0.01636051
#
# Stress axis : x y z
#
# Youngs Moduli (GPa) = 113.44818 168.89054 54.12709
#
# Poissons Ratio (x) = 0.12570 0.34009
# Poissons Ratio (y) = 0.08444 0.07565
# Poissons Ratio (z) = 0.71281 0.23604
#
# Static dielectric constant tensor:
#      x y z
#    x 2.114880 0.000000 0.000000 
#    y 0.000000 2.145300 0.000000 
#    z 0.000000 0.000000 2.043750 
# 
# From -- ./inp_files/16078.got.cif
#   From: 2010.05.17/outbox.cif.g08.bks.cpg/sg62_9_cif.got.tgz:16078.got - 2010.06.03 15:25:27.
