data_PCOD9466235
_publ_section_title
;
Structure prediction by ZEFSAII (Michael W. Deem and Ramdas Pophale) SiO2 
 PCOD9466235
Probable space group: P N M A
;
_chemical_formula_sum "Si O2"
_cell_formula_units_Z 48
_cell_length_a 18.625390
_cell_length_b 7.732705
_cell_length_c 17.677312
_cell_angle_alpha 90.000000
_cell_angle_beta 90.000000
_cell_angle_gamma 90.000000
_cell_volume 2545.968610
_symmetry_space_group_name_H-M "P N M A"
_symmetry_group_IT_number 62
_symmetry_cell_setting 'orthorhombic'
loop_
_space_group_symop_operation_xyz
x,y,z
1/2-x,-y,1/2+z
1/2+x,1/2-y,1/2-z
-x,1/2+y,-z
-x,-y,-z
1/2+x,y,1/2-z
1/2-x,1/2+y,1/2+z
x,1/2-y,z
loop_
_atom_site_type_symbol
_atom_site_label
_atom_site_fract_x
_atom_site_fract_y
_atom_site_fract_z
Si Si1 0.237285 0.750000 0.265430
Si Si2 0.591499 0.250000 0.725949
Si Si3 0.393937 0.956948 0.532209
Si Si4 0.459828 0.053226 0.380279
Si Si5 0.265980 0.956236 0.644575
Si Si6 0.641509 0.750000 0.085935
Si Si7 0.472858 0.750000 0.106505
Si Si8 0.879802 0.443596 0.443419
O O1 0.322628 0.750000 0.277722
O O2 0.220076 0.580050 0.215367
O O3 0.194252 0.750000 0.343766
O O4 0.563055 0.418945 0.682748
O O5 0.561473 0.250000 0.810395
O O6 0.395258 0.750000 0.519149
O O7 0.463278 0.998275 0.583756
O O8 0.322891 0.998994 0.578669
O O9 0.405143 0.042989 0.451122
O O10 0.464369 0.250000 0.352648
O O11 0.272505 0.750000 0.661090
O O12 0.186393 0.987858 0.611524
O O13 0.558426 0.750000 0.110332
O O14 0.650321 0.587540 0.028301
O O15 0.441367 0.583129 0.063962
O O16 0.906350 0.250000 0.422619
#
# Coordination Sequence:
#
# PCOD9466235 Si02
#       8
#     4   4   8   8   8   4   4   8
#     4  12  26  44  60  98 128 164 202 262 325 373
#     4  12  26  38  62  90 135 161 207 263 314 380
#     4   9  19  37  63  88 125 166 213 253 296 379
#     4  10  22  37  57  94 125 168 208 251 307 368
#     4  10  21  40  64  88 126 167 202 255 318 379
#     4  10  26  42  70  95 127 154 227 269 300 371
#     4  12  22  46  66  93 122 177 204 274 325 356
#     4   9  21  42  67  93 118 166 216 259 309 376
#
# _framework density 18.853335999999999
#
# number of rings (size 3 to 8) (size 9 to 14) (size 15 to 20)
#    0.500    1.333    2.500    0.500    7.000    1.333 
#    1.500    0.000    0.000    0.000    0.000    0.000 
#    0.000    0.000    0.000    0.000    0.000    0.000 
#
# Total GULP energy -267907.041637 kJ/mol
# GULP energy per Si atom -5581.396701 kJ/mol
# Density = 1.881042 g / cm^3
# Si number density = 18.853336 Si / 1000 Ang^3
#
#
#
# Elastic Constant Matrix: (Units=GPa)
#
#
# Indices 1 2 3 4 5 6 
#
# 1 24.8448 18.8097 25.2148 0.0000 0.0000 0.0000
# 2 18.8097 66.0092 44.8063 0.0000 0.0000 0.0000
# 3 25.2148 44.8063 104.6875 0.0000 0.0000 0.0000
# 4 0.0000 0.0000 0.0000 30.1068 0.0000 0.0000
# 5 0.0000 0.0000 0.0000 0.0000 31.6451 0.0000
# 6 0.0000 0.0000 0.0000 0.0000 0.0000 26.6442
#
#
#
# Elastic Compliance Matrix: (Units=1/GPa)
#
#
# Indices 1 2 3 4 5 6 
#
# 1 0.057475 -0.009840 -0.009632 0.000000 0.000000 0.000000
# 2 -0.009840 0.023038 -0.007490 0.000000 0.000000 0.000000
# 3 -0.009632 -0.007490 0.015078 0.000000 0.000000 0.000000
# 4 0.000000 0.000000 0.000000 0.033215 0.000000 0.000000
# 5 0.000000 0.000000 0.000000 0.000000 0.031600 0.000000
# 6 0.000000 0.000000 0.000000 0.000000 0.000000 0.037532
#
#
# Mechanical properties :
#
#
# Convention : Reuss Voigt Hill
#
# Bulk Modulus (GPa) = 23.99995 41.46701 32.73348
# Shear Modulus (GPa) = 18.81471 24.79327 21.80399
#
# Velocity S-wave (km/s) = 3.16246 3.63031 3.40443
# Velocity P-wave (km/s) = 5.10807 6.29400 5.73179
#
# Compressibility (1/GPa) = 0.04166676
#
# Stress axis : x y z
#
# Youngs Moduli (GPa) = 17.39895 43.40747 66.32240
#
# Poissons Ratio (x) = 0.42712 0.63880
# Poissons Ratio (y) = 0.17120 0.49676
# Poissons Ratio (z) = 0.16758 0.32512
#
# Static dielectric constant tensor:
#      x y z
#    x 1.645020 0.000000 0.000000 
#    y 0.000000 1.616930 0.000000 
#    z 0.000000 0.000000 1.641650 
# 
# From -- ./inp_files/19726.got.cif
#   From: 2010.05.17/outbox.cif.g08.bks.cpg/sg62_10_cif.got.tgz:19726.got - 2010.06.03 15:25:27.
