data_PCOD9466756
_publ_section_title
;
Structure prediction by ZEFSAII (Michael W. Deem and Ramdas Pophale) SiO2 
 PCOD9466756
Probable space group: P N M A
;
_chemical_formula_sum "Si O2"
_cell_formula_units_Z 40
_cell_length_a 12.386732
_cell_length_b 8.906796
_cell_length_c 18.982562
_cell_angle_alpha 90.000000
_cell_angle_beta 90.000000
_cell_angle_gamma 90.000000
_cell_volume 2094.271939
_symmetry_space_group_name_H-M "P N M A"
_symmetry_group_IT_number 62
_symmetry_cell_setting 'orthorhombic'
loop_
_space_group_symop_operation_xyz
x,y,z
1/2-x,-y,1/2+z
1/2+x,1/2-y,1/2-z
-x,1/2+y,-z
-x,-y,-z
1/2+x,y,1/2-z
1/2-x,1/2+y,1/2+z
x,1/2-y,z
loop_
_atom_site_type_symbol
_atom_site_label
_atom_site_fract_x
_atom_site_fract_y
_atom_site_fract_z
Si Si1 0.955488 0.929583 0.170235
Si Si2 0.308818 0.428411 0.613851
Si Si3 0.193445 0.071163 0.961787
Si Si4 0.443990 0.428731 0.931391
Si Si5 0.096391 0.928665 0.681896
O O1 0.941970 0.750000 0.181029
O O2 0.888904 0.970258 0.100124
O O3 0.081555 0.959695 0.156502
O O4 0.913008 0.015200 0.238298
O O5 0.289117 0.250000 0.615115
O O6 0.324763 0.482402 0.533773
O O7 0.206650 0.512122 0.646874
O O8 0.182034 0.250000 0.975695
O O9 0.316068 0.044941 0.936318
O O10 0.462637 0.250000 0.931135
O O11 0.498725 0.501034 0.863259
O O12 0.500000 0.500000 0.000000
O O13 0.092495 0.750000 0.677576
#
# Coordination Sequence:
#
# PCOD9466756 Si02
#       5
#     8   8   8   8   8
#     4  10  24  44  65  93 127 167 210 259 321 377
#     4  11  23  41  67  93 126 166 208 259 313 378
#     4  10  22  41  67  95 126 162 207 260 315 377
#     4  11  22  39  64  94 126 164 208 257 311 372
#     4  12  26  42  62  92 129 168 212 263 313 372
#
# _framework density 19.099715
#
# number of rings (size 3 to 8) (size 9 to 14) (size 15 to 20)
#    0.000    1.200    2.000    3.600    2.800    3.200 
#    0.000    0.000    0.000    0.000    0.000    0.000 
#    0.000    0.000    0.000    0.000    0.000    0.000 
#
# Total GULP energy -223776.605154 kJ/mol
# GULP energy per Si atom -5594.415129 kJ/mol
# Density = 1.905624 g / cm^3
# Si number density = 19.099715 Si / 1000 Ang^3
#
#
#
# Elastic Constant Matrix: (Units=GPa)
#
#
# Indices 1 2 3 4 5 6 
#
# 1 26.7022 24.9295 10.1369 0.0000 0.0000 0.0000
# 2 24.9295 66.2382 40.9932 0.0000 0.0000 0.0000
# 3 10.1369 40.9932 102.1386 0.0000 0.0000 0.0000
# 4 0.0000 0.0000 0.0000 41.2270 0.0000 0.0000
# 5 0.0000 0.0000 0.0000 0.0000 26.2703 0.0000
# 6 0.0000 0.0000 0.0000 0.0000 0.0000 18.9879
#
#
#
# Elastic Compliance Matrix: (Units=1/GPa)
#
#
# Indices 1 2 3 4 5 6 
#
# 1 0.058979 -0.024713 0.004065 0.000000 0.000000 0.000000
# 2 -0.024713 0.030441 -0.009765 0.000000 0.000000 0.000000
# 3 0.004065 -0.009765 0.013306 0.000000 0.000000 0.000000
# 4 0.000000 0.000000 0.000000 0.024256 0.000000 0.000000
# 5 0.000000 0.000000 0.000000 0.000000 0.038066 0.000000
# 6 0.000000 0.000000 0.000000 0.000000 0.000000 0.052665
#
#
# Mechanical properties :
#
#
# Convention : Reuss Voigt Hill
#
# Bulk Modulus (GPa) = 23.86582 38.57759 31.22170
# Shear Modulus (GPa) = 17.09358 25.23166 21.16262
#
# Velocity S-wave (km/s) = 2.99484 3.63857 3.33229
# Velocity P-wave (km/s) = 4.94786 6.15582 5.58459
#
# Compressibility (1/GPa) = 0.04190093
#
# Stress axis : x y z
#
# Youngs Moduli (GPa) = 16.95505 32.84990 75.15226
#
# Poissons Ratio (x) = 0.81183 -0.30551
# Poissons Ratio (y) = 0.41902 0.73386
# Poissons Ratio (z) = -0.06893 0.32078
#
# Static dielectric constant tensor:
#      x y z
#    x 1.646290 0.000000 0.000000 
#    y 0.000000 1.637770 0.000000 
#    z 0.000000 0.000000 1.629040 
# 
# From -- ./inp_files/22784.got.cif
#   From: 2010.05.17/outbox.cif.g08.bks.cpg/sg62_12_cif.got.tgz:22784.got - 2010.06.03 15:25:27.
