data_PCOD9466591
_publ_section_title
;
Structure prediction by ZEFSAII (Michael W. Deem and Ramdas Pophale) SiO2 
 PCOD9466591
Probable space group: P N M A
;
_chemical_formula_sum "Si O2"
_cell_formula_units_Z 56
_cell_length_a 11.409940
_cell_length_b 12.783350
_cell_length_c 21.173943
_cell_angle_alpha 90.000000
_cell_angle_beta 90.000000
_cell_angle_gamma 90.000000
_cell_volume 3088.373235
_symmetry_space_group_name_H-M "P N M A"
_symmetry_group_IT_number 62
_symmetry_cell_setting 'orthorhombic'
loop_
_space_group_symop_operation_xyz
x,y,z
1/2-x,-y,1/2+z
1/2+x,1/2-y,1/2-z
-x,1/2+y,-z
-x,-y,-z
1/2+x,y,1/2-z
1/2-x,1/2+y,1/2+z
x,1/2-y,z
loop_
_atom_site_type_symbol
_atom_site_label
_atom_site_fract_x
_atom_site_fract_y
_atom_site_fract_z
Si Si1 0.141558 0.872304 0.530099
Si Si2 0.969320 0.750000 0.216324
Si Si3 0.444734 0.869890 0.869964
Si Si4 0.278395 0.450114 0.897509
Si Si5 0.667039 0.370262 0.360180
Si Si6 0.043857 0.473779 0.846410
Si Si7 0.134015 0.630736 0.742277
Si Si8 0.198451 0.750000 0.306274
O O1 0.132060 0.750000 0.513419
O O2 0.167033 0.932142 0.466119
O O3 0.247190 0.881986 0.580130
O O4 0.025999 0.899141 0.570033
O O5 0.986033 0.857620 0.177565
O O6 0.826108 0.750000 0.231078
O O7 0.075684 0.750000 0.267519
O O8 0.405974 0.750000 0.877009
O O9 0.528989 0.874265 0.809125
O O10 0.339244 0.949522 0.866790
O O11 0.138912 0.464180 0.901724
O O12 0.299115 0.351499 0.851474
O O13 0.622556 0.250000 0.359538
O O14 0.567515 0.456474 0.362357
O O15 0.746830 0.383170 0.297553
O O16 0.109697 0.539321 0.791349
O O17 0.134463 0.750000 0.768476
#
# Coordination Sequence:
#
# PCOD9466591 Si02
#       8
#     8   4   8   8   8   8   8   4
#     4   9  18  38  60  78 109 146 190 237 279 344
#     4  10  24  38  56  80 126 152 200 232 280 340
#     4   9  19  34  57  85 112 143 178 236 286 333
#     4  11  21  35  58  83 112 147 192 227 287 330
#     4   9  20  37  58  82 106 144 186 231 291 336
#     4  11  23  35  55  83 115 151 184 232 275 350
#     4   9  19  35  56  83 112 140 181 227 287 337
#     4  10  22  40  58  88 110 166 194 238 278 340
#
# _framework density 18.132524
#
# number of rings (size 3 to 8) (size 9 to 14) (size 15 to 20)
#    0.000    2.286    0.714    3.429    6.000    1.714 
#    0.000    0.000    1.571    0.000    0.000    0.000 
#    0.000    0.000    0.000    0.000    0.000    0.000 
#
# Total GULP energy -312317.257105 kJ/mol
# GULP energy per Si atom -5577.093877 kJ/mol
# Density = 1.809125 g / cm^3
# Si number density = 18.132524 Si / 1000 Ang^3
#
#
#
# Elastic Constant Matrix: (Units=GPa)
#
#
# Indices 1 2 3 4 5 6 
#
# 1 82.4573 53.2965 10.9407 0.0000 0.0000 0.0000
# 2 53.2965 108.4826 16.3089 0.0000 0.0000 0.0000
# 3 10.9407 16.3089 27.9699 0.0000 0.0000 0.0000
# 4 0.0000 0.0000 0.0000 11.5615 0.0000 0.0000
# 5 0.0000 0.0000 0.0000 0.0000 2.5155 0.0000
# 6 0.0000 0.0000 0.0000 0.0000 0.0000 34.7369
#
#
#
# Elastic Compliance Matrix: (Units=1/GPa)
#
#
# Indices 1 2 3 4 5 6 
#
# 1 0.017877 -0.008475 -0.002051 0.000000 0.000000 0.000000
# 2 -0.008475 0.014121 -0.004919 0.000000 0.000000 0.000000
# 3 -0.002051 -0.004919 0.039423 0.000000 0.000000 0.000000
# 4 0.000000 0.000000 0.000000 0.086494 0.000000 0.000000
# 5 0.000000 0.000000 0.000000 0.000000 0.397533 0.000000
# 6 0.000000 0.000000 0.000000 0.000000 0.000000 0.028788
#
#
# Mechanical properties :
#
#
# Convention : Reuss Voigt Hill
#
# Bulk Modulus (GPa) = 24.67195 42.22243 33.44719
# Shear Modulus (GPa) = 7.95371 18.98701 13.47036
#
# Velocity S-wave (km/s) = 2.09665 3.23944 2.72855
# Velocity P-wave (km/s) = 4.41557 6.10966 5.33035
#
# Compressibility (1/GPa) = 0.04053186
#
# Stress axis : x y z
#
# Youngs Moduli (GPa) = 55.93712 70.81647 25.36566
#
# Poissons Ratio (x) = 0.60013 0.05204
# Poissons Ratio (y) = 0.47404 0.12477
# Poissons Ratio (z) = 0.11475 0.34834
#
# Static dielectric constant tensor:
#      x y z
#    x 1.637470 0.000000 0.000000 
#    y 0.000000 1.601080 0.000000 
#    z 0.000000 0.000000 1.612090 
# 
# From -- ./inp_files/26654.got.cif
#   From: 2010.05.17/outbox.cif.g08.bks.cpg/sg62_14_cif.got.tgz:26654.got - 2010.06.03 15:25:27.
