data_PCOD9466498
_publ_section_title
;
Structure prediction by ZEFSAII (Michael W. Deem and Ramdas Pophale) SiO2 
 PCOD9466498
Probable space group: P N M A
;
_chemical_formula_sum "Si O2"
_cell_formula_units_Z 48
_cell_length_a 9.104235
_cell_length_b 19.874110
_cell_length_c 14.177951
_cell_angle_alpha 90.000000
_cell_angle_beta 90.000000
_cell_angle_gamma 90.000000
_cell_volume 2565.338149
_symmetry_space_group_name_H-M "P N M A"
_symmetry_group_IT_number 62
_symmetry_cell_setting 'orthorhombic'
loop_
_space_group_symop_operation_xyz
x,y,z
1/2-x,-y,1/2+z
1/2+x,1/2-y,1/2-z
-x,1/2+y,-z
-x,-y,-z
1/2+x,y,1/2-z
1/2-x,1/2+y,1/2+z
x,1/2-y,z
loop_
_atom_site_type_symbol
_atom_site_label
_atom_site_fract_x
_atom_site_fract_y
_atom_site_fract_z
Si Si1 0.050531 0.170890 0.480973
Si Si2 0.114455 0.675027 0.913782
Si Si3 0.103118 0.051657 0.050717
Si Si4 0.900746 0.449372 0.563450
Si Si5 0.804222 0.967328 0.747437
Si Si6 0.551402 0.873408 0.782269
O O1 0.037977 0.250000 0.503100
O O2 0.222264 0.157704 0.453037
O O3 0.993788 0.119898 0.561540
O O4 0.949995 0.154577 0.388071
O O5 0.078833 0.750000 0.948163
O O6 0.106557 0.675079 0.799577
O O7 0.992544 0.619372 0.938072
O O8 0.145446 0.014728 0.148266
O O9 0.250063 0.063527 0.992158
O O10 0.000000 0.000000 0.000000
O O11 0.851594 0.483987 0.662408
O O12 0.000000 0.500000 0.500000
O O13 0.636303 0.943977 0.760923
O O14 0.884283 0.895709 0.732012
#
# Coordination Sequence:
#
# PCOD9466498 Si02
#       6
#     8   8   8   8   8   8
#     4  11  22  36  57  86 124 166 206 257 320 384
#     4  10  22  38  56  85 126 161 199 254 318 385
#     4  11  23  38  61  88 121 159 205 251 307 363
#     4  12  21  38  60  86 125 162 209 256 308 375
#     4  11  21  35  59  87 120 156 201 253 305 366
#     4  11  18  36  54  84 118 156 198 244 321 374
#
# _framework density 18.710984
#
# number of rings (size 3 to 8) (size 9 to 14) (size 15 to 20)
#    0.000    1.000    5.000    3.500    0.000    0.667 
#    0.000    0.000    0.000    1.000    0.000    5.833 
#    0.000    0.000    0.000    0.000    0.000    0.000 
#
# Total GULP energy -267314.452480 kJ/mol
# GULP energy per Si atom -5569.051093 kJ/mol
# Density = 1.866840 g / cm^3
# Si number density = 18.710984 Si / 1000 Ang^3
#
#
#
# Elastic Constant Matrix: (Units=GPa)
#
#
# Indices 1 2 3 4 5 6 
#
# 1 116.7917 58.3417 38.4920 0.0000 0.0000 0.0000
# 2 58.3417 95.1811 39.9902 0.0000 0.0000 0.0000
# 3 38.4920 39.9902 83.3223 0.0000 0.0000 0.0000
# 4 0.0000 0.0000 0.0000 27.2564 0.0000 0.0000
# 5 0.0000 0.0000 0.0000 0.0000 25.9131 0.0000
# 6 0.0000 0.0000 0.0000 0.0000 0.0000 26.0168
#
#
#
# Elastic Compliance Matrix: (Units=1/GPa)
#
#
# Indices 1 2 3 4 5 6 
#
# 1 0.012805 -0.006718 -0.002691 0.000000 0.000000 0.000000
# 2 -0.006718 0.016685 -0.004904 0.000000 0.000000 0.000000
# 3 -0.002691 -0.004904 0.015599 0.000000 0.000000 0.000000
# 4 0.000000 0.000000 0.000000 0.036689 0.000000 0.000000
# 5 0.000000 0.000000 0.000000 0.000000 0.038591 0.000000
# 6 0.000000 0.000000 0.000000 0.000000 0.000000 0.038437
#
#
# Mechanical properties :
#
#
# Convention : Reuss Voigt Hill
#
# Bulk Modulus (GPa) = 60.74858 63.21589 61.98223
# Shear Modulus (GPa) = 25.91762 26.40200 26.15981
#
# Velocity S-wave (km/s) = 3.72581 3.76046 3.74317
# Velocity P-wave (km/s) = 7.14466 7.26041 7.20277
#
# Compressibility (1/GPa) = 0.01646129
#
# Stress axis : x y z
#
# Youngs Moduli (GPa) = 78.09284 59.93469 64.10864
#
# Poissons Ratio (x) = 0.40266 0.17252
# Poissons Ratio (y) = 0.52466 0.31440
# Poissons Ratio (z) = 0.21016 0.29393
#
# Static dielectric constant tensor:
#      x y z
#    x 1.730950 0.000000 0.000000 
#    y 0.000000 1.634280 0.000000 
#    z 0.000000 0.000000 1.696960 
# 
# From -- ./inp_files/17080.got.cif
#   From: 2010.05.17/outbox.cif.g08.bks.cpg/sg62_9_cif.got.tgz:17080.got - 2010.06.03 15:25:27.
