data_PCOD9466946
_publ_section_title
;
Structure prediction by ZEFSAII (Michael W. Deem and Ramdas Pophale) SiO2 
 PCOD9466946
Probable space group: P N M A
;
_chemical_formula_sum "Si O2"
_cell_formula_units_Z 24
_cell_length_a 9.184065
_cell_length_b 17.032521
_cell_length_c 5.061569
_cell_angle_alpha 90.000000
_cell_angle_beta 90.000000
_cell_angle_gamma 90.000000
_cell_volume 791.770002
_symmetry_space_group_name_H-M "P N M A"
_symmetry_group_IT_number 62
_symmetry_cell_setting 'orthorhombic'
loop_
_space_group_symop_operation_xyz
x,y,z
1/2-x,-y,1/2+z
1/2+x,1/2-y,1/2-z
-x,1/2+y,-z
-x,-y,-z
1/2+x,y,1/2-z
1/2-x,1/2+y,1/2+z
x,1/2-y,z
loop_
_atom_site_type_symbol
_atom_site_label
_atom_site_fract_x
_atom_site_fract_y
_atom_site_fract_z
Si Si1 0.072293 0.750000 0.643858
Si Si2 0.188929 0.250000 0.693588
Si Si3 0.939395 0.417986 0.291257
Si Si4 0.817629 0.918149 0.076418
O O1 0.899166 0.750000 0.587132
O O2 0.158303 0.750000 0.363713
O O3 0.111033 0.829995 0.798114
O O4 0.136144 0.337127 0.788934
O O5 0.857975 0.419114 0.572766
O O6 0.107528 0.416566 0.214522
O O7 0.876066 0.499890 0.185781
#
# Coordination Sequence:
#
# PCOD9466946 Si02
#       4
#     4   4   8   8
#     4  10  23  42  64  90 123 160 200 254 303 358
#     4  10  23  40  62  92 121 158 204 248 305 360
#     4  10  23  41  63  90 124 161 202 249 302 358
#     4  10  23  41  62  92 123 160 204 249 303 360
#
# _framework density 30.311828999999999
#
# number of rings (size 3 to 8) (size 9 to 14) (size 15 to 20)
#    0.000    2.000    0.000    1.000    0.000   18.667 
#    0.000    1.667    0.000    0.000    0.000    0.000 
#    0.000    0.000    0.000    0.000    0.000    0.000 
#
# Total GULP energy -133611.837950 kJ/mol
# GULP energy per Si atom -5567.159915 kJ/mol
# Density = 3.024284 g / cm^3
# Si number density = 30.311829 Si / 1000 Ang^3
#
#
#
# Elastic Constant Matrix: (Units=GPa)
#
#
# Indices 1 2 3 4 5 6 
#
# 1 163.1770 63.8683 31.2734 0.0000 0.0000 0.0000
# 2 63.8683 351.9850 61.7405 0.0000 0.0000 0.0000
# 3 31.2734 61.7405 61.1445 0.0000 0.0000 0.0000
# 4 0.0000 0.0000 0.0000 58.2721 0.0000 0.0000
# 5 0.0000 0.0000 0.0000 0.0000 49.5232 0.0000
# 6 0.0000 0.0000 0.0000 0.0000 0.0000 54.0850
#
#
#
# Elastic Compliance Matrix: (Units=1/GPa)
#
#
# Indices 1 2 3 4 5 6 
#
# 1 0.006965 -0.000776 -0.002778 0.000000 0.000000 0.000000
# 2 -0.000776 0.003539 -0.003176 0.000000 0.000000 0.000000
# 3 -0.002778 -0.003176 0.020983 0.000000 0.000000 0.000000
# 4 0.000000 0.000000 0.000000 0.017161 0.000000 0.000000
# 5 0.000000 0.000000 0.000000 0.000000 0.020193 0.000000
# 6 0.000000 0.000000 0.000000 0.000000 0.000000 0.018489
#
#
# Mechanical properties :
#
#
# Convention : Reuss Voigt Hill
#
# Bulk Modulus (GPa) = 55.47959 98.89676 77.18818
# Shear Modulus (GPa) = 46.81646 60.33768 53.57707
#
# Velocity S-wave (km/s) = 3.93427 4.46642 4.20876
# Velocity P-wave (km/s) = 6.24345 7.70038 7.00987
#
# Compressibility (1/GPa) = 0.01802465
#
# Stress axis : x y z
#
# Youngs Moduli (GPa) = 143.58194 282.55862 47.65750
#
# Poissons Ratio (x) = 0.21939 0.13240
# Poissons Ratio (y) = 0.11148 0.15138
# Poissons Ratio (z) = 0.39890 0.89754
#
# Static dielectric constant tensor:
#      x y z
#    x 2.329460 0.000000 0.000000 
#    y 0.000000 2.283080 0.000000 
#    z 0.000000 0.000000 2.492700 
# 
# From -- ./inp_files/363.got.cif
#   From: 2010.05.17/outbox.cif.g08.bks.cpg/sg62_1_cif.got.tgz:363.got - 2010.06.03 15:25:27.
