data_PCOD9466040
_publ_section_title
;
Structure prediction by ZEFSAII (Michael W. Deem and Ramdas Pophale) SiO2 
 PCOD9466040
Probable space group: P N M A
;
_chemical_formula_sum "Si O2"
_cell_formula_units_Z 64
_cell_length_a 14.961543
_cell_length_b 9.356946
_cell_length_c 23.232658
_cell_angle_alpha 90.000000
_cell_angle_beta 90.000000
_cell_angle_gamma 90.000000
_cell_volume 3252.440854
_symmetry_space_group_name_H-M "P N M A"
_symmetry_group_IT_number 62
_symmetry_cell_setting 'orthorhombic'
loop_
_space_group_symop_operation_xyz
x,y,z
1/2-x,-y,1/2+z
1/2+x,1/2-y,1/2-z
-x,1/2+y,-z
-x,-y,-z
1/2+x,y,1/2-z
1/2-x,1/2+y,1/2+z
x,1/2-y,z
loop_
_atom_site_type_symbol
_atom_site_label
_atom_site_fract_x
_atom_site_fract_y
_atom_site_fract_z
Si Si1 0.770705 0.922835 0.444184
Si Si2 0.050922 0.584764 0.771303
Si Si3 0.923150 0.580076 0.533967
Si Si4 0.323316 0.922408 0.182480
Si Si5 0.591696 0.915804 0.497341
Si Si6 0.358567 0.087761 0.864459
Si Si7 0.814963 0.090378 0.121336
Si Si8 0.624207 0.913638 0.272162
O O1 0.765124 0.750000 0.441593
O O2 0.831665 0.955571 0.499389
O O3 0.816941 0.967203 0.384521
O O4 0.669140 0.973317 0.454501
O O5 0.037672 0.750000 0.754673
O O6 0.100957 0.499488 0.720046
O O7 0.116405 0.580340 0.826174
O O8 0.957233 0.514193 0.789615
O O9 0.934666 0.750000 0.533320
O O10 0.918108 0.517508 0.597780
O O11 0.000000 0.500000 0.500000
O O12 0.336974 0.750000 0.185688
O O13 0.224138 0.953827 0.207947
O O14 0.574106 0.750000 0.482523
O O15 0.635264 0.919430 0.560719
O O16 0.500000 0.000000 0.500000
O O17 0.369777 0.250000 0.885200
O O18 0.378061 0.084135 0.797055
O O19 0.258220 0.031479 0.872400
O O20 0.771893 0.250000 0.123482
O O21 0.609081 0.750000 0.292028
#
# Coordination Sequence:
#
# PCOD9466040 Si02
#       8
#     8   8   8   8   8   8   8   8
#     4   9  20  39  62  83 116 159 194 234 294 352
#     4  11  24  39  60  90 120 156 197 243 302 358
#     4  11  23  41  62  89 123 160 199 247 302 358
#     4  10  21  41  63  86 117 157 201 245 291 349
#     4  10  21  39  60  87 117 154 195 236 290 347
#     4  11  22  39  63  90 115 153 207 253 297 353
#     4  10  21  40  62  84 119 158 195 245 303 355
#     4  10  23  40  61  87 118 157 200 245 295 354
#
# _framework density 19.677530000000001
#
# number of rings (size 3 to 8) (size 9 to 14) (size 15 to 20)
#    0.000    1.750    2.500    1.125    3.500    2.500 
#    0.000    1.250    0.000    0.000    0.000    0.000 
#    0.000    0.000    0.000    0.000    0.000    0.000 
#
# Total GULP energy -357419.093552 kJ/mol
# GULP energy per Si atom -5584.673337 kJ/mol
# Density = 1.963274 g / cm^3
# Si number density = 19.677530 Si / 1000 Ang^3
#
#
#
# Elastic Constant Matrix: (Units=GPa)
#
#
# Indices 1 2 3 4 5 6 
#
# 1 50.7123 26.7978 -24.2908 0.0000 0.0000 0.0000
# 2 26.7978 66.2467 2.9201 0.0000 0.0000 0.0000
# 3 -24.2908 2.9201 38.0635 0.0000 0.0000 0.0000
# 4 0.0000 0.0000 0.0000 24.2518 0.0000 0.0000
# 5 0.0000 0.0000 0.0000 0.0000 20.9562 0.0000
# 6 0.0000 0.0000 0.0000 0.0000 0.0000 34.4809
#
#
#
# Elastic Compliance Matrix: (Units=1/GPa)
#
#
# Indices 1 2 3 4 5 6 
#
# 1 0.043920 -0.019066 0.029491 0.000000 0.000000 0.000000
# 2 -0.019066 0.023423 -0.013964 0.000000 0.000000 0.000000
# 3 0.029491 -0.013964 0.046163 0.000000 0.000000 0.000000
# 4 0.000000 0.000000 0.000000 0.041234 0.000000 0.000000
# 5 0.000000 0.000000 0.000000 0.000000 0.047719 0.000000
# 6 0.000000 0.000000 0.000000 0.000000 0.000000 0.029002
#
#
# Mechanical properties :
#
#
# Convention : Reuss Voigt Hill
#
# Bulk Modulus (GPa) = 9.39604 18.43074 13.91339
# Shear Modulus (GPa) = 18.24707 25.91081 22.07894
#
# Velocity S-wave (km/s) = 3.04847 3.63267 3.35332
# Velocity P-wave (km/s) = 4.14443 5.19440 4.69883
#
# Compressibility (1/GPa) = 0.10642779
#
# Stress axis : x y z
#
# Youngs Moduli (GPa) = 22.76848 42.69260 21.66214
#
# Poissons Ratio (x) = 0.81399 -0.63884
# Poissons Ratio (y) = 0.43411 0.30250
# Poissons Ratio (z) = -0.67147 0.59618
#
# Static dielectric constant tensor:
#      x y z
#    x 1.698530 0.000000 0.000000 
#    y 0.000000 1.675050 0.000000 
#    z 0.000000 0.000000 1.694540 
# 
# From -- ./inp_files/29759.got.cif
#   From: 2010.05.17/outbox.cif.g08.bks.cpg/sg62_15_cif.got.tgz:29759.got - 2010.06.03 15:25:27.
