data_PCOD9466515
_publ_section_title
;
Structure prediction by ZEFSAII (Michael W. Deem and Ramdas Pophale) SiO2 
 PCOD9466515
Probable space group: P N M A
;
_chemical_formula_sum "Si O2"
_cell_formula_units_Z 64
_cell_length_a 28.043777
_cell_length_b 17.747559
_cell_length_c 6.784172
_cell_angle_alpha 90.000000
_cell_angle_beta 90.000000
_cell_angle_gamma 90.000000
_cell_volume 3376.540659
_symmetry_space_group_name_H-M "P N M A"
_symmetry_group_IT_number 62
_symmetry_cell_setting 'orthorhombic'
loop_
_space_group_symop_operation_xyz
x,y,z
1/2-x,-y,1/2+z
1/2+x,1/2-y,1/2-z
-x,1/2+y,-z
-x,-y,-z
1/2+x,y,1/2-z
1/2-x,1/2+y,1/2+z
x,1/2-y,z
loop_
_atom_site_type_symbol
_atom_site_label
_atom_site_fract_x
_atom_site_fract_y
_atom_site_fract_z
Si Si1 0.258694 0.663685 0.881785
Si Si2 0.804876 0.555983 0.307302
Si Si3 0.664272 0.835690 0.353052
Si Si4 0.015374 0.339679 0.055819
Si Si5 0.409658 0.923166 0.297414
Si Si6 0.778560 0.407642 0.508245
Si Si7 0.925909 0.062030 0.933273
Si Si8 0.540847 0.050285 0.100775
O O1 0.274754 0.750000 0.887389
O O2 0.250056 0.636872 0.659709
O O3 0.293016 0.611685 0.011983
O O4 0.207426 0.659079 0.991099
O O5 0.852677 0.580257 0.196484
O O6 0.808032 0.473051 0.399997
O O7 0.760259 0.556703 0.157397
O O8 0.646578 0.750000 0.350312
O O9 0.622628 0.892189 0.411458
O O10 0.687122 0.856949 0.142157
O O11 0.009634 0.250000 0.069714
O O12 0.021296 0.381322 0.266171
O O13 0.061814 0.362590 0.927355
O O14 0.970223 0.381046 0.954106
O O15 0.424910 0.005026 0.382199
O O16 0.425884 0.918871 0.071867
O O17 0.932455 0.006830 0.747703
O O18 0.500000 0.000000 0.000000
#
# Coordination Sequence:
#
# PCOD9466515 Si02
#       8
#     8   8   8   8   8   8   8   8
#     4  10  22  40  59  85 124 160 197 252 307 362
#     4  11  23  37  64  90 118 160 211 249 298 363
#     4  10  22  38  60  93 127 157 195 250 318 371
#     4  11  24  41  62  91 127 163 207 263 315 365
#     4  11  23  40  63  90 123 162 208 260 305 368
#     4  11  21  39  61  90 122 161 205 250 300 363
#     4  11  21  38  66  91 123 161 207 255 310 371
#     4  11  20  42  64  88 116 165 208 246 306 375
#
# _framework density 18.954308000000001
#
# number of rings (size 3 to 8) (size 9 to 14) (size 15 to 20)
#    0.000    1.250    3.750    3.000    1.750    3.500 
#    0.000    1.250    0.000    0.000    0.000    0.000 
#    0.000    0.000    0.000    0.000    0.000    0.000 
#
# Total GULP energy -357568.578710 kJ/mol
# GULP energy per Si atom -5587.009042 kJ/mol
# Density = 1.891117 g / cm^3
# Si number density = 18.954308 Si / 1000 Ang^3
#
#
#
# Elastic Constant Matrix: (Units=GPa)
#
#
# Indices 1 2 3 4 5 6 
#
# 1 39.2007 -0.3443 -3.4254 0.0000 0.0000 0.0000
# 2 -0.3443 97.2991 23.6400 0.0000 0.0000 0.0000
# 3 -3.4254 23.6400 87.5048 0.0000 0.0000 0.0000
# 4 0.0000 0.0000 0.0000 18.3118 0.0000 0.0000
# 5 0.0000 0.0000 0.0000 0.0000 22.4024 0.0000
# 6 0.0000 0.0000 0.0000 0.0000 0.0000 21.6517
#
#
#
# Elastic Compliance Matrix: (Units=1/GPa)
#
#
# Indices 1 2 3 4 5 6 
#
# 1 0.025600 -0.000164 0.001046 0.000000 0.000000 0.000000
# 2 -0.000164 0.011001 -0.002978 0.000000 0.000000 0.000000
# 3 0.001046 -0.002978 0.012274 0.000000 0.000000 0.000000
# 4 0.000000 0.000000 0.000000 0.054610 0.000000 0.000000
# 5 0.000000 0.000000 0.000000 0.000000 0.044638 0.000000
# 6 0.000000 0.000000 0.000000 0.000000 0.000000 0.046186
#
#
# Mechanical properties :
#
#
# Convention : Reuss Voigt Hill
#
# Bulk Modulus (GPa) = 22.38005 29.30501 25.84253
# Shear Modulus (GPa) = 23.43098 26.08214 24.75656
#
# Velocity S-wave (km/s) = 3.51975 3.71354 3.61795
# Velocity P-wave (km/s) = 5.32459 5.82079 5.57821
#
# Compressibility (1/GPa) = 0.04468265
#
# Stress axis : x y z
#
# Youngs Moduli (GPa) = 39.06294 90.90392 81.47632
#
# Poissons Ratio (x) = 0.01487 -0.08525
# Poissons Ratio (y) = 0.00639 0.24266
# Poissons Ratio (z) = -0.04087 0.27074
#
# Static dielectric constant tensor:
#      x y z
#    x 1.646280 0.000000 0.000000 
#    y 0.000000 1.640600 0.000000 
#    z 0.000000 0.000000 1.666910 
# 
# From -- ./inp_files/3686.got.cif
#   From: 2010.05.17/outbox.cif.g08.bks.cpg/sg62_2_cif.got.tgz:3686.got - 2010.06.03 15:25:27.
