data_PCOD9466229
_publ_section_title
;
Structure prediction by ZEFSAII (Michael W. Deem and Ramdas Pophale) SiO2 
 PCOD9466229
Probable space group: P N M A
;
_chemical_formula_sum "Si O2"
_cell_formula_units_Z 64
_cell_length_a 24.336002
_cell_length_b 8.814556
_cell_length_c 15.549104
_cell_angle_alpha 90.000000
_cell_angle_beta 90.000000
_cell_angle_gamma 90.000000
_cell_volume 3335.454664
_symmetry_space_group_name_H-M "P N M A"
_symmetry_group_IT_number 62
_symmetry_cell_setting 'orthorhombic'
loop_
_space_group_symop_operation_xyz
x,y,z
1/2-x,-y,1/2+z
1/2+x,1/2-y,1/2-z
-x,1/2+y,-z
-x,-y,-z
1/2+x,y,1/2-z
1/2-x,1/2+y,1/2+z
x,1/2-y,z
loop_
_atom_site_type_symbol
_atom_site_label
_atom_site_fract_x
_atom_site_fract_y
_atom_site_fract_z
Si Si1 0.922785 0.064932 0.247875
Si Si2 0.383342 0.073312 0.653691
Si Si3 0.704710 0.933036 0.730825
Si Si4 0.879711 0.572476 0.666445
Si Si5 0.498048 0.070176 0.094715
Si Si6 0.219892 0.928514 0.416985
Si Si7 0.775765 0.571758 0.899927
Si Si8 0.003931 0.069232 0.094818
O O1 0.924599 0.250000 0.249535
O O2 0.859082 0.020800 0.240117
O O3 0.952839 0.013217 0.336074
O O4 0.958143 0.016804 0.164254
O O5 0.395602 0.250000 0.644651
O O6 0.367812 0.029211 0.750739
O O7 0.331075 0.025255 0.597966
O O8 0.436852 0.976823 0.631117
O O9 0.706243 0.750000 0.719125
O O10 0.738298 0.967983 0.817854
O O11 0.735673 0.011014 0.651602
O O12 0.872288 0.750000 0.687797
O O13 0.835975 0.521729 0.595844
O O14 0.942091 0.548837 0.637099
O O15 0.488877 0.250000 0.084615
O O16 0.500000 0.000000 0.000000
O O17 0.209762 0.750000 0.402171
O O18 0.242491 0.947462 0.512680
O O19 0.790777 0.750000 0.891312
O O20 0.999301 0.250000 0.088449
O O21 0.000000 0.000000 0.000000
#
# Coordination Sequence:
#
# PCOD9466229 Si02
#       8
#     8   8   8   8   8   8   8   8
#     4   9  20  40  63  86 120 163 204 245 300 367
#     4  12  24  40  65  93 121 160 213 264 310 366
#     4  10  21  40  64  86 118 167 206 246 305 367
#     4  11  22  41  65  89 123 165 205 255 314 367
#     4  10  22  40  63  91 122 160 202 249 303 361
#     4  11  24  40  61  94 125 158 204 256 305 366
#     4  10  23  41  62  89 125 165 202 250 316 371
#     4  11  23  42  64  92 128 164 207 256 310 373
#
# _framework density 19.187788999999999
#
# number of rings (size 3 to 8) (size 9 to 14) (size 15 to 20)
#    0.000    1.500    2.500    2.250    3.500    2.000 
#    0.000    1.250    0.000    0.000    0.000    0.000 
#    0.000    0.000    0.000    0.000    0.000    0.000 
#
# Total GULP energy -357579.694480 kJ/mol
# GULP energy per Si atom -5587.182726 kJ/mol
# Density = 1.914412 g / cm^3
# Si number density = 19.187789 Si / 1000 Ang^3
#
#
#
# Elastic Constant Matrix: (Units=GPa)
#
#
# Indices 1 2 3 4 5 6 
#
# 1 66.6922 13.4735 3.7391 0.0000 0.0000 0.0000
# 2 13.4735 25.2983 17.2450 0.0000 0.0000 0.0000
# 3 3.7391 17.2450 77.6156 0.0000 0.0000 0.0000
# 4 0.0000 0.0000 0.0000 30.7806 0.0000 0.0000
# 5 0.0000 0.0000 0.0000 0.0000 19.9067 0.0000
# 6 0.0000 0.0000 0.0000 0.0000 0.0000 23.5158
#
#
#
# Elastic Compliance Matrix: (Units=1/GPa)
#
#
# Indices 1 2 3 4 5 6 
#
# 1 0.016930 -0.009971 0.001400 0.000000 0.000000 0.000000
# 2 -0.009971 0.052456 -0.011175 0.000000 0.000000 0.000000
# 3 0.001400 -0.011175 0.015299 0.000000 0.000000 0.000000
# 4 0.000000 0.000000 0.000000 0.032488 0.000000 0.000000
# 5 0.000000 0.000000 0.000000 0.000000 0.050234 0.000000
# 6 0.000000 0.000000 0.000000 0.000000 0.000000 0.042525
#
#
# Mechanical properties :
#
#
# Convention : Reuss Voigt Hill
#
# Bulk Modulus (GPa) = 22.12678 26.50236 24.31457
# Shear Modulus (GPa) = 18.90442 23.85053 21.37747
#
# Velocity S-wave (km/s) = 3.14225 3.52945 3.34146
# Velocity P-wave (km/s) = 4.97209 5.51828 5.25229
#
# Compressibility (1/GPa) = 0.04519411
#
# Stress axis : x y z
#
# Youngs Moduli (GPa) = 59.06621 19.06363 65.36214
#
# Poissons Ratio (x) = 0.19008 -0.09149
# Poissons Ratio (y) = 0.58894 0.73039
# Poissons Ratio (z) = -0.08268 0.21303
#
# Static dielectric constant tensor:
#      x y z
#    x 1.672130 0.000000 0.000000 
#    y 0.000000 1.656220 0.000000 
#    z 0.000000 0.000000 1.684730 
# 
# From -- ./inp_files/20901.got.cif
#   From: 2010.05.17/outbox.cif.g08.bks.cpg/sg62_11_cif.got.tgz:20901.got - 2010.06.03 15:25:27.
