data_PCOD9466465
_publ_section_title
;
Structure prediction by ZEFSAII (Michael W. Deem and Ramdas Pophale) SiO2 
 PCOD9466465
Probable space group: P N M A
;
_chemical_formula_sum "Si O2"
_cell_formula_units_Z 32
_cell_length_a 7.663403
_cell_length_b 11.354084
_cell_length_c 15.386679
_cell_angle_alpha 90.000000
_cell_angle_beta 90.000000
_cell_angle_gamma 90.000000
_cell_volume 1338.809117
_symmetry_space_group_name_H-M "P N M A"
_symmetry_group_IT_number 62
_symmetry_cell_setting 'orthorhombic'
loop_
_space_group_symop_operation_xyz
x,y,z
1/2-x,-y,1/2+z
1/2+x,1/2-y,1/2-z
-x,1/2+y,-z
-x,-y,-z
1/2+x,y,1/2-z
1/2-x,1/2+y,1/2+z
x,1/2-y,z
loop_
_atom_site_type_symbol
_atom_site_label
_atom_site_fract_x
_atom_site_fract_y
_atom_site_fract_z
Si Si1 0.277735 0.250000 0.891608
Si Si2 0.577273 0.750000 0.281304
Si Si3 0.437947 0.386584 0.303878
Si Si4 0.796434 0.999253 0.031071
Si Si5 0.226017 0.018167 0.653618
O O1 0.435179 0.250000 0.823007
O O2 0.263534 0.368235 0.945969
O O3 0.106063 0.250000 0.830081
O O4 0.680066 0.634212 0.310957
O O5 0.416588 0.250000 0.282877
O O6 0.303088 0.425572 0.380042
O O7 0.629933 0.413529 0.340665
O O8 0.416584 0.471466 0.220632
O O9 0.687183 0.040401 0.947458
O O10 0.000000 0.000000 0.000000
#
# Coordination Sequence:
#
# PCOD9466465 Si02
#       5
#     4   4   8   8   8
#     4  12  22  40  66  89 125 159 211 256 300 367
#     4  12  20  40  64  91 123 157 207 258 304 357
#     4  11  23  39  60  89 121 157 199 247 303 364
#     4  10  22  36  62  91 115 160 206 244 298 362
#     4  11  23  39  63  87 120 160 200 251 304 359
#
# _framework density 23.901838999999999
#
# number of rings (size 3 to 8) (size 9 to 14) (size 15 to 20)
#    0.000    1.000    7.500    0.750   10.500    0.000 
#    0.000    1.250    0.000    0.000    0.000    0.000 
#    0.000    0.000    0.000    0.000    0.000    0.000 
#
# Total GULP energy -179089.023012 kJ/mol
# GULP energy per Si atom -5596.531969 kJ/mol
# Density = 2.384744 g / cm^3
# Si number density = 23.901839 Si / 1000 Ang^3
#
#
#
# Elastic Constant Matrix: (Units=GPa)
#
#
# Indices 1 2 3 4 5 6 
#
# 1 52.1774 11.3386 27.5441 0.0000 0.0000 0.0000
# 2 11.3386 118.5704 10.2030 0.0000 0.0000 0.0000
# 3 27.5441 10.2030 97.0565 0.0000 0.0000 0.0000
# 4 0.0000 0.0000 0.0000 17.9457 0.0000 0.0000
# 5 0.0000 0.0000 0.0000 0.0000 40.1601 0.0000
# 6 0.0000 0.0000 0.0000 0.0000 0.0000 22.3506
#
#
#
# Elastic Compliance Matrix: (Units=1/GPa)
#
#
# Indices 1 2 3 4 5 6 
#
# 1 0.022855 -0.001642 -0.006314 0.000000 0.000000 0.000000
# 2 -0.001642 0.008629 -0.000441 0.000000 0.000000 0.000000
# 3 -0.006314 -0.000441 0.012141 0.000000 0.000000 0.000000
# 4 0.000000 0.000000 0.000000 0.055724 0.000000 0.000000
# 5 0.000000 0.000000 0.000000 0.000000 0.024900 0.000000
# 6 0.000000 0.000000 0.000000 0.000000 0.000000 0.044741
#
#
# Mechanical properties :
#
#
# Convention : Reuss Voigt Hill
#
# Bulk Modulus (GPa) = 37.26942 40.66396 38.96669
# Shear Modulus (GPa) = 25.67678 30.67253 28.17465
#
# Velocity S-wave (km/s) = 3.28115 3.58616 3.43704
# Velocity P-wave (km/s) = 5.47550 5.84784 5.66473
#
# Compressibility (1/GPa) = 0.02683165
#
# Stress axis : x y z
#
# Youngs Moduli (GPa) = 43.75386 115.89091 82.36298
#
# Poissons Ratio (x) = 0.19033 0.52000
# Poissons Ratio (y) = 0.07186 0.03632
# Poissons Ratio (z) = 0.27624 0.05111
#
# Static dielectric constant tensor:
#      x y z
#    x 2.013240 0.000000 0.000000 
#    y 0.000000 1.832530 0.000000 
#    z 0.000000 0.000000 1.978530 
# 
# From -- ./inp_files/11788.got.cif
#   From: 2010.05.17/outbox.cif.g08.bks.cpg/sg62_6_cif.got.tgz:11788.got - 2010.06.03 15:25:27.
