data_PCOD9466481
_publ_section_title
;
Structure prediction by ZEFSAII (Michael W. Deem and Ramdas Pophale) SiO2 
 PCOD9466481
Probable space group: P N M A
;
_chemical_formula_sum "Si O2"
_cell_formula_units_Z 48
_cell_length_a 8.184948
_cell_length_b 14.622857
_cell_length_c 18.683230
_cell_angle_alpha 90.000000
_cell_angle_beta 90.000000
_cell_angle_gamma 90.000000
_cell_volume 2236.145805
_symmetry_space_group_name_H-M "P N M A"
_symmetry_group_IT_number 62
_symmetry_cell_setting 'orthorhombic'
loop_
_space_group_symop_operation_xyz
x,y,z
1/2-x,-y,1/2+z
1/2+x,1/2-y,1/2-z
-x,1/2+y,-z
-x,-y,-z
1/2+x,y,1/2-z
1/2-x,1/2+y,1/2+z
x,1/2-y,z
loop_
_atom_site_type_symbol
_atom_site_label
_atom_site_fract_x
_atom_site_fract_y
_atom_site_fract_z
Si Si1 0.740625 0.750000 0.195665
Si Si2 0.252704 0.932635 0.528538
Si Si3 0.401467 0.250000 0.963254
Si Si4 0.255458 0.954605 0.293770
Si Si5 0.223001 0.750000 0.988860
Si Si6 0.721087 0.750000 0.359058
Si Si7 0.888009 0.946052 0.353108
Si Si8 0.101760 0.929105 0.912662
O O1 0.825924 0.649479 0.195403
O O2 0.657682 0.750000 0.275993
O O3 0.638989 0.750000 0.121781
O O4 0.176904 0.841140 0.496929
O O5 0.409499 0.914588 0.578190
O O6 0.130113 0.994097 0.575715
O O7 0.328626 0.991641 0.464413
O O8 0.588788 0.250000 0.988028
O O9 0.269490 0.978114 0.210609
O O10 0.070996 0.948985 0.322814
O O11 0.350847 0.032529 0.335923
O O12 0.121923 0.750000 0.065302
O O13 0.184620 0.837833 0.941701
O O14 0.824358 0.843336 0.365117
#
# Coordination Sequence:
#
# PCOD9466481 Si02
#       8
#     4   8   4   8   4   4   8   8
#     4  10  22  37  59  94 129 166 205 253 307 369
#     4  11  24  41  61  91 126 165 207 255 307 365
#     4  12  23  41  66  94 124 164 210 257 307 365
#     4  11  22  40  63  92 126 166 208 256 309 368
#     4  12  23  41  66  94 124 164 210 257 307 365
#     4  10  22  37  59  94 129 166 205 253 307 369
#     4  11  22  40  63  92 126 166 208 256 309 368
#     4  11  24  41  61  91 126 165 207 255 307 365
#
# _framework density 21.465506999999999
#
# number of rings (size 3 to 8) (size 9 to 14) (size 15 to 20)
#    0.000    1.000    3.333    4.000    0.000    1.333 
#    0.000    6.667    0.000    0.000    0.000    0.000 
#    0.000    0.000    0.000    0.000    0.000    0.000 
#
# Total GULP energy -268242.326196 kJ/mol
# GULP energy per Si atom -5588.381796 kJ/mol
# Density = 2.141665 g / cm^3
# Si number density = 21.465507 Si / 1000 Ang^3
#
#
#
# Elastic Constant Matrix: (Units=GPa)
#
#
# Indices 1 2 3 4 5 6 
#
# 1 65.7434 34.0080 10.9091 0.0000 0.0000 0.0000
# 2 34.0080 126.6411 64.6752 0.0000 0.0000 0.0000
# 3 10.9091 64.6752 105.1387 0.0000 0.0000 0.0000
# 4 0.0000 0.0000 0.0000 44.0821 0.0000 0.0000
# 5 0.0000 0.0000 0.0000 0.0000 28.2889 0.0000
# 6 0.0000 0.0000 0.0000 0.0000 0.0000 29.4438
#
#
#
# Elastic Compliance Matrix: (Units=1/GPa)
#
#
# Indices 1 2 3 4 5 6 
#
# 1 0.017847 -0.005609 0.001599 0.000000 0.000000 0.000000
# 2 -0.005609 0.013276 -0.007585 0.000000 0.000000 0.000000
# 3 0.001599 -0.007585 0.014011 0.000000 0.000000 0.000000
# 4 0.000000 0.000000 0.000000 0.022685 0.000000 0.000000
# 5 0.000000 0.000000 0.000000 0.000000 0.035350 0.000000
# 6 0.000000 0.000000 0.000000 0.000000 0.000000 0.033963
#
#
# Mechanical properties :
#
#
# Convention : Reuss Voigt Hill
#
# Bulk Modulus (GPa) = 45.57112 57.41198 51.49155
# Shear Modulus (GPa) = 29.82655 32.89170 31.35913
#
# Velocity S-wave (km/s) = 3.73166 3.91871 3.82633
# Velocity P-wave (km/s) = 6.31214 6.87599 6.60009
#
# Compressibility (1/GPa) = 0.02194372
#
# Stress axis : x y z
#
# Youngs Moduli (GPa) = 56.03250 75.32399 71.37242
#
# Poissons Ratio (x) = 0.42248 -0.11409
# Poissons Ratio (y) = 0.31428 0.54133
# Poissons Ratio (z) = -0.08957 0.57131
#
# Static dielectric constant tensor:
#      x y z
#    x 1.833630 0.000000 0.000000 
#    y 0.000000 1.746840 0.000000 
#    z 0.000000 0.000000 1.803040 
# 
# From -- ./inp_files/22268.got.cif
#   From: 2010.05.17/outbox.cif.g08.bks.cpg/sg62_12_cif.got.tgz:22268.got - 2010.06.03 15:25:27.
