data_PCOD9466155
_publ_section_title
;
Structure prediction by ZEFSAII (Michael W. Deem and Ramdas Pophale) SiO2 
 PCOD9466155
Probable space group: P N M A
;
_chemical_formula_sum "Si O2"
_cell_formula_units_Z 44
_cell_length_a 7.591666
_cell_length_b 9.267307
_cell_length_c 27.511280
_cell_angle_alpha 90.000000
_cell_angle_beta 90.000000
_cell_angle_gamma 90.000000
_cell_volume 1935.536832
_symmetry_space_group_name_H-M "P N M A"
_symmetry_group_IT_number 62
_symmetry_cell_setting 'orthorhombic'
loop_
_space_group_symop_operation_xyz
x,y,z
1/2-x,-y,1/2+z
1/2+x,1/2-y,1/2-z
-x,1/2+y,-z
-x,-y,-z
1/2+x,y,1/2-z
1/2-x,1/2+y,1/2+z
x,1/2-y,z
loop_
_atom_site_type_symbol
_atom_site_label
_atom_site_fract_x
_atom_site_fract_y
_atom_site_fract_z
Si Si1 0.567044 0.417003 0.086498
Si Si2 0.933616 0.077880 0.788298
Si Si3 0.786548 0.512587 0.954063
Si Si4 0.423308 0.080746 0.195314
Si Si5 0.066661 0.583667 0.876132
Si Si6 0.960105 0.750000 0.017109
O O1 0.549269 0.250000 0.070793
O O2 0.419649 0.505063 0.057719
O O3 0.519688 0.424474 0.143776
O O4 0.774014 0.452117 0.087142
O O5 0.942311 0.250000 0.781068
O O6 0.966862 0.987558 0.739420
O O7 0.064493 0.023940 0.830717
O O8 0.745434 0.022696 0.806671
O O9 0.884689 0.575564 0.905742
O O10 0.826326 0.626210 0.995754
O O11 0.895762 0.372268 0.966365
O O12 0.379030 0.250000 0.204908
O O13 0.091360 0.750000 0.859756
#
# Coordination Sequence:
#
# PCOD9466155 Si02
#       6
#     8   8   8   8   8   4
#     4  10  21  39  66  94 124 169 222 267 316 389
#     4  12  25  40  61  96 138 173 219 281 332 383
#     4  11  21  45  65  98 129 170 213 277 336 396
#     4  11  22  40  65  92 129 178 228 271 320 392
#     4  11  22  40  67  93 127 178 223 263 326 402
#     4  10  24  40  72  94 130 166 214 274 346 402
#
# _framework density 22.732713
#
# number of rings (size 3 to 8) (size 9 to 14) (size 15 to 20)
#    0.000    1.091    3.636    3.273    1.273    1.455 
#    3.273    5.455    0.000    0.000    0.000    0.000 
#    0.000    0.000    0.000    0.000    0.000    0.000 
#
# Total GULP energy -244960.117631 kJ/mol
# GULP energy per Si atom -5567.275401 kJ/mol
# Density = 2.268097 g / cm^3
# Si number density = 22.732713 Si / 1000 Ang^3
#
#
#
# Elastic Constant Matrix: (Units=GPa)
#
#
# Indices 1 2 3 4 5 6 
#
# 1 69.7419 -11.9273 6.1182 0.0000 0.0000 0.0000
# 2 -11.9273 121.8059 28.9256 0.0000 0.0000 0.0000
# 3 6.1182 28.9256 60.1920 0.0000 0.0000 0.0000
# 4 0.0000 0.0000 0.0000 -57.0281 0.0000 0.0000
# 5 0.0000 0.0000 0.0000 0.0000 44.0847 0.0000
# 6 0.0000 0.0000 0.0000 0.0000 0.0000 37.5644
#
#
#
# Elastic Compliance Matrix: (Units=1/GPa)
#
#
# Indices 1 2 3 4 5 6 
#
# 1 0.014909 0.002054 -0.002503 0.000000 0.000000 0.000000
# 2 0.002054 0.009550 -0.004798 0.000000 0.000000 0.000000
# 3 -0.002503 -0.004798 0.019174 0.000000 0.000000 0.000000
# 4 0.000000 0.000000 0.000000 -0.017535 0.000000 0.000000
# 5 0.000000 0.000000 0.000000 0.000000 0.022684 0.000000
# 6 0.000000 0.000000 0.000000 0.000000 0.000000 0.026621
#
#
# Mechanical properties :
#
#
# Convention : Reuss Voigt Hill
#
# Bulk Modulus (GPa) = 30.17484 33.10809 31.64147
# Shear Modulus (GPa) = 51.57667 20.16575 35.87121
#
# Velocity S-wave (km/s) = 4.76839 2.98162 3.97666
# Velocity P-wave (km/s) = 6.60449 5.14287 5.91897
#
# Compressibility (1/GPa) = 0.03314019
#
# Stress axis : x y z
#
# Youngs Moduli (GPa) = 67.07161 104.70761 52.15467
#
# Poissons Ratio (x) = -0.21510 0.13052
# Poissons Ratio (y) = -0.13778 0.25025
# Poissons Ratio (z) = 0.16786 0.50242
#
# Static dielectric constant tensor:
#      x y z
#    x 1.890080 0.000000 0.000000 
#    y 0.000000 1.782020 0.000000 
#    z 0.000000 0.000000 1.912790 
# 
# From -- ./inp_files/31845.got.cif
#   From: 2010.05.17/outbox.cif.g08.bks.cpg/sg62_16_cif.got.tgz:31845.got - 2010.06.03 15:25:27.
