data_PCOD9466578
_publ_section_title
;
Structure prediction by ZEFSAII (Michael W. Deem and Ramdas Pophale) SiO2 
 PCOD9466578
Probable space group: P N M A
;
_chemical_formula_sum "Si O2"
_cell_formula_units_Z 56
_cell_length_a 8.943213
_cell_length_b 14.120694
_cell_length_c 21.904451
_cell_angle_alpha 90.000000
_cell_angle_beta 90.000000
_cell_angle_gamma 90.000000
_cell_volume 2766.189886
_symmetry_space_group_name_H-M "P N M A"
_symmetry_group_IT_number 62
_symmetry_cell_setting 'orthorhombic'
loop_
_space_group_symop_operation_xyz
x,y,z
1/2-x,-y,1/2+z
1/2+x,1/2-y,1/2-z
-x,1/2+y,-z
-x,-y,-z
1/2+x,y,1/2-z
1/2-x,1/2+y,1/2+z
x,1/2-y,z
loop_
_atom_site_type_symbol
_atom_site_label
_atom_site_fract_x
_atom_site_fract_y
_atom_site_fract_z
Si Si1 0.291161 0.857211 0.694330
Si Si2 0.168288 0.361149 0.740277
Si Si3 0.342972 0.146633 0.617841
Si Si4 0.587172 0.447066 0.417349
Si Si5 0.772640 0.979664 0.135379
Si Si6 0.146537 0.145782 0.956237
Si Si7 0.017821 0.037563 0.292218
O O1 0.306552 0.750000 0.716415
O O2 0.339077 0.867589 0.624556
O O3 0.396675 0.928626 0.731757
O O4 0.124719 0.895885 0.701481
O O5 0.129117 0.250000 0.750019
O O6 0.302100 0.361158 0.689586
O O7 0.202390 0.415775 0.803540
O O8 0.041666 0.429307 0.711039
O O9 0.275924 0.250000 0.598964
O O10 0.514584 0.154050 0.594848
O O11 0.311467 0.042637 0.589949
O O12 0.422723 0.468072 0.388507
O O13 0.583533 0.410631 0.486175
O O14 0.728411 0.912226 0.079358
O O15 0.638807 0.047677 0.154398
O O16 0.192624 0.250000 0.974412
#
# Coordination Sequence:
#
# PCOD9466578 Si02
#       7
#     8   8   8   8   8   8   8
#     4  12  24  42  66  92 128 175 221 272 325 386
#     4  11  22  36  61  93 133 170 203 259 332 396
#     4   9  18  34  58  90 126 163 208 262 322 383
#     4  11  20  42  66  93 127 171 222 272 315 381
#     4  11  22  38  61  94 130 163 210 268 323 384
#     4  10  22  39  65  96 128 173 223 264 314 388
#     4  12  23  43  61  96 135 164 217 269 329 395
#
# _framework density 20.244453
#
# number of rings (size 3 to 8) (size 9 to 14) (size 15 to 20)
#    0.000    1.143    4.286    3.000    2.000    1.714 
#    0.000    2.857    0.000    1.714    0.000    0.000 
#    0.000    0.000    0.000    0.000    0.000    0.000 
#
# Total GULP energy -311910.807808 kJ/mol
# GULP energy per Si atom -5569.835854 kJ/mol
# Density = 2.019838 g / cm^3
# Si number density = 20.244453 Si / 1000 Ang^3
#
#
#
# Elastic Constant Matrix: (Units=GPa)
#
#
# Indices 1 2 3 4 5 6 
#
# 1 62.6478 19.8418 44.8321 0.0000 0.0000 0.0000
# 2 19.8418 86.3873 19.1430 0.0000 0.0000 0.0000
# 3 44.8321 19.1430 105.1679 0.0000 0.0000 0.0000
# 4 0.0000 0.0000 0.0000 23.2258 0.0000 0.0000
# 5 0.0000 0.0000 0.0000 0.0000 25.2607 0.0000
# 6 0.0000 0.0000 0.0000 0.0000 0.0000 17.3326
#
#
#
# Elastic Compliance Matrix: (Units=1/GPa)
#
#
# Indices 1 2 3 4 5 6 
#
# 1 0.023872 -0.003364 -0.009564 0.000000 0.000000 0.000000
# 2 -0.003364 0.012536 -0.000848 0.000000 0.000000 0.000000
# 3 -0.009564 -0.000848 0.013740 0.000000 0.000000 0.000000
# 4 0.000000 0.000000 0.000000 0.043056 0.000000 0.000000
# 5 0.000000 0.000000 0.000000 0.000000 0.039587 0.000000
# 6 0.000000 0.000000 0.000000 0.000000 0.000000 0.057695
#
#
# Mechanical properties :
#
#
# Convention : Reuss Voigt Hill
#
# Bulk Modulus (GPa) = 44.25425 46.87077 45.56251
# Shear Modulus (GPa) = 22.16613 24.52288 23.34450
#
# Velocity S-wave (km/s) = 3.31255 3.48420 3.39946
# Velocity P-wave (km/s) = 6.04467 6.27606 6.16145
#
# Compressibility (1/GPa) = 0.02259670
#
# Stress axis : x y z
#
# Youngs Moduli (GPa) = 41.89037 79.76857 72.78005
#
# Poissons Ratio (x) = 0.26831 0.69607
# Poissons Ratio (y) = 0.14090 0.06172
# Poissons Ratio (z) = 0.40064 0.06764
#
# Static dielectric constant tensor:
#      x y z
#    x 1.751590 0.000000 0.000000 
#    y 0.000000 1.794290 0.000000 
#    z 0.000000 0.000000 1.736330 
# 
# From -- ./inp_files/25991.got.cif
#   From: 2010.05.17/outbox.cif.g08.bks.cpg/sg62_13_cif.got.tgz:25991.got - 2010.06.03 15:25:27.
