data_PCOD9466350
_publ_section_title
;
Structure prediction by ZEFSAII (Michael W. Deem and Ramdas Pophale) SiO2 
 PCOD9466350
Probable space group: P N M A
;
_chemical_formula_sum "Si O2"
_cell_formula_units_Z 40
_cell_length_a 10.413389
_cell_length_b 8.880784
_cell_length_c 23.311822
_cell_angle_alpha 90.000000
_cell_angle_beta 90.000000
_cell_angle_gamma 90.000000
_cell_volume 2155.855349
_symmetry_space_group_name_H-M "P N M A"
_symmetry_group_IT_number 62
_symmetry_cell_setting 'orthorhombic'
loop_
_space_group_symop_operation_xyz
x,y,z
1/2-x,-y,1/2+z
1/2+x,1/2-y,1/2-z
-x,1/2+y,-z
-x,-y,-z
1/2+x,y,1/2-z
1/2-x,1/2+y,1/2+z
x,1/2-y,z
loop_
_atom_site_type_symbol
_atom_site_label
_atom_site_fract_x
_atom_site_fract_y
_atom_site_fract_z
Si Si1 0.501462 0.929901 0.301138
Si Si2 0.005957 0.071166 0.324190
Si Si3 0.357716 0.430492 0.497987
Si Si4 0.257188 0.569667 0.381687
Si Si5 0.752784 0.930019 0.377184
O O1 0.499689 0.750000 0.289421
O O2 0.378090 0.964921 0.340280
O O3 0.630319 0.963392 0.336866
O O4 0.498734 0.017042 0.241582
O O5 0.018703 0.250000 0.327074
O O6 0.128417 0.993862 0.353722
O O7 0.876964 0.017249 0.355750
O O8 0.500000 0.500000 0.500000
O O9 0.367707 0.250000 0.493584
O O10 0.284801 0.496886 0.443278
O O11 0.286066 0.465796 0.557573
O O12 0.249766 0.750000 0.387253
O O13 0.776601 0.750000 0.373346
#
# Coordination Sequence:
#
# PCOD9466350 Si02
#       5
#     8   8   8   8   8
#     4  10  21  41  66  90 120 164 210 249 301 372
#     4  12  26  40  58  93 129 162 204 257 313 359
#     4  11  22  40  66  95 124 157 205 257 306 367
#     4  11  23  42  66  92 123 166 208 251 309 369
#     4  10  22  42  65  90 121 164 207 246 301 370
#
# _framework density 18.554122
#
# number of rings (size 3 to 8) (size 9 to 14) (size 15 to 20)
#    0.000    1.200    2.000    4.200    0.000    9.600 
#    0.000    0.000    0.000    0.000    0.000    0.000 
#    0.000    0.000    0.000    0.000    0.000    0.000 
#
# Total GULP energy -223765.628779 kJ/mol
# GULP energy per Si atom -5594.140719 kJ/mol
# Density = 1.851189 g / cm^3
# Si number density = 18.554122 Si / 1000 Ang^3
#
#
#
# Elastic Constant Matrix: (Units=GPa)
#
#
# Indices 1 2 3 4 5 6 
#
# 1 136.4267 66.8956 73.7533 0.0000 0.0000 0.0000
# 2 66.8956 75.6687 82.8058 0.0000 0.0000 0.0000
# 3 73.7533 82.8058 171.5990 0.0000 0.0000 0.0000
# 4 0.0000 0.0000 0.0000 32.7300 0.0000 0.0000
# 5 0.0000 0.0000 0.0000 0.0000 9.5469 0.0000
# 6 0.0000 0.0000 0.0000 0.0000 0.0000 24.1563
#
#
#
# Elastic Compliance Matrix: (Units=1/GPa)
#
#
# Indices 1 2 3 4 5 6 
#
# 1 0.012939 -0.011343 -0.000088 0.000000 0.000000 0.000000
# 2 -0.011343 0.037947 -0.013436 0.000000 0.000000 0.000000
# 3 -0.000088 -0.013436 0.012349 0.000000 0.000000 0.000000
# 4 0.000000 0.000000 0.000000 0.030553 0.000000 0.000000
# 5 0.000000 0.000000 0.000000 0.000000 0.104746 0.000000
# 6 0.000000 0.000000 0.000000 0.000000 0.000000 0.041397
#
#
# Mechanical properties :
#
#
# Convention : Reuss Voigt Hill
#
# Bulk Modulus (GPa) = 74.06739 92.28933 83.17836
# Shear Modulus (GPa) = 16.99720 23.96929 20.48324
#
# Velocity S-wave (km/s) = 3.02998 3.59814 3.32621
# Velocity P-wave (km/s) = 7.22823 8.19212 7.72522
#
# Compressibility (1/GPa) = 0.01350122
#
# Stress axis : x y z
#
# Youngs Moduli (GPa) = 77.28326 26.35234 80.97891
#
# Poissons Ratio (x) = 0.29892 0.00709
# Poissons Ratio (y) = 0.87665 1.08805
# Poissons Ratio (z) = 0.00677 0.35408
#
# Static dielectric constant tensor:
#      x y z
#    x 1.606600 0.000000 0.000000 
#    y 0.000000 1.616670 0.000000 
#    z 0.000000 0.000000 1.610710 
# 
# From -- ./inp_files/26461.got.cif
#   From: 2010.05.17/outbox.cif.g08.bks.cpg/sg62_14_cif.got.tgz:26461.got - 2010.06.03 15:25:27.
