data_PCOD9466761
_publ_section_title
;
Structure prediction by ZEFSAII (Michael W. Deem and Ramdas Pophale) SiO2 
 PCOD9466761
Probable space group: P N M A
;
_chemical_formula_sum "Si O2"
_cell_formula_units_Z 40
_cell_length_a 10.579652
_cell_length_b 11.679862
_cell_length_c 14.898564
_cell_angle_alpha 90.000000
_cell_angle_beta 90.000000
_cell_angle_gamma 90.000000
_cell_volume 1840.998798
_symmetry_space_group_name_H-M "P N M A"
_symmetry_group_IT_number 62
_symmetry_cell_setting 'orthorhombic'
loop_
_space_group_symop_operation_xyz
x,y,z
1/2-x,-y,1/2+z
1/2+x,1/2-y,1/2-z
-x,1/2+y,-z
-x,-y,-z
1/2+x,y,1/2-z
1/2-x,1/2+y,1/2+z
x,1/2-y,z
loop_
_atom_site_type_symbol
_atom_site_label
_atom_site_fract_x
_atom_site_fract_y
_atom_site_fract_z
Si Si1 0.543599 0.120044 0.453297
Si Si2 0.780742 0.625622 0.665323
Si Si3 0.447187 0.878825 0.116490
Si Si4 0.693996 0.948356 0.013906
Si Si5 0.962609 0.434976 0.249022
O O1 0.496318 0.250000 0.478217
O O2 0.511929 0.096968 0.349421
O O3 0.500000 0.000000 0.500000
O O4 0.692930 0.122405 0.472764
O O5 0.756207 0.750000 0.626170
O O6 0.753745 0.527001 0.594594
O O7 0.682576 0.607791 0.747269
O O8 0.929154 0.619099 0.688252
O O9 0.399224 0.750000 0.120554
O O10 0.578067 0.882066 0.060209
O O11 0.463039 0.934448 0.215314
O O12 0.359230 0.965744 0.061449
#
# Coordination Sequence:
#
# PCOD9466761 Si02
#       5
#     8   8   8   8   8
#     4  12  25  43  67  96 132 176 225 282 341 401
#     4  11  21  39  64  94 132 173 220 276 332 399
#     4  10  22  42  66  96 133 175 221 275 339 408
#     4  10  22  41  67  97 128 171 225 274 335 401
#     4  11  24  40  62  96 131 172 222 273 337 401
#
# _framework density 21.727338
#
# number of rings (size 3 to 8) (size 9 to 14) (size 15 to 20)
#    0.000    1.200    2.000    4.200    0.000    1.600 
#    0.000   13.000    0.000    0.000    0.000    0.000 
#    0.000    0.000    0.000    0.000    0.000    0.000 
#
# Total GULP energy -222999.180616 kJ/mol
# GULP energy per Si atom -5574.979515 kJ/mol
# Density = 2.167789 g / cm^3
# Si number density = 21.727338 Si / 1000 Ang^3
#
#
#
# Elastic Constant Matrix: (Units=GPa)
#
#
# Indices 1 2 3 4 5 6 
#
# 1 94.4938 22.5638 2.0410 0.0000 0.0000 0.0000
# 2 22.5638 158.0782 31.6873 0.0000 0.0000 0.0000
# 3 2.0410 31.6873 45.2495 0.0000 0.0000 0.0000
# 4 0.0000 0.0000 0.0000 -8.0868 0.0000 0.0000
# 5 0.0000 0.0000 0.0000 0.0000 31.5404 0.0000
# 6 0.0000 0.0000 0.0000 0.0000 0.0000 -3.1533
#
#
#
# Elastic Compliance Matrix: (Units=1/GPa)
#
#
# Indices 1 2 3 4 5 6 
#
# 1 0.010975 -0.001707 0.000700 0.000000 0.000000 0.000000
# 2 -0.001707 0.007624 -0.005262 0.000000 0.000000 0.000000
# 3 0.000700 -0.005262 0.025753 0.000000 0.000000 0.000000
# 4 0.000000 0.000000 0.000000 -0.123659 0.000000 0.000000
# 5 0.000000 0.000000 0.000000 0.000000 0.031705 0.000000
# 6 0.000000 0.000000 0.000000 0.000000 0.000000 -0.317130
#
#
# Mechanical properties :
#
#
# Convention : Reuss Voigt Hill
#
# Bulk Modulus (GPa) = 31.43172 45.60062 38.51617
# Shear Modulus (GPa) = -14.63753 20.16204 2.76225
#
# Velocity S-wave (km/s) = -2.59837 3.04954 1.12875
# Velocity P-wave (km/s) = 2.34431 5.78212 4.41184
#
# Compressibility (1/GPa) = 0.03181500
#
# Stress axis : x y z
#
# Youngs Moduli (GPa) = 91.11473 131.15663 38.83016
#
# Poissons Ratio (x) = 0.22388 -0.02719
# Poissons Ratio (y) = 0.15553 0.20433
# Poissons Ratio (z) = -0.06381 0.69018
#
# Static dielectric constant tensor:
#      x y z
#    x 1.867680 0.000000 0.000000 
#    y 0.000000 1.827480 0.000000 
#    z 0.000000 0.000000 1.800620 
# 
# From -- ./inp_files/17808.got.cif
#   From: 2010.05.17/outbox.cif.g08.bks.cpg/sg62_9_cif.got.tgz:17808.got - 2010.06.03 15:25:27.
