data_PCOD9466877
_publ_section_title
;
Structure prediction by ZEFSAII (Michael W. Deem and Ramdas Pophale) SiO2 
 PCOD9466877
Probable space group: P N M A
;
_chemical_formula_sum "Si O2"
_cell_formula_units_Z 40
_cell_length_a 10.301226
_cell_length_b 17.095982
_cell_length_c 9.935419
_cell_angle_alpha 90.000000
_cell_angle_beta 90.000000
_cell_angle_gamma 90.000000
_cell_volume 1749.722410
_symmetry_space_group_name_H-M "P N M A"
_symmetry_group_IT_number 62
_symmetry_cell_setting 'orthorhombic'
loop_
_space_group_symop_operation_xyz
x,y,z
1/2-x,-y,1/2+z
1/2+x,1/2-y,1/2-z
-x,1/2+y,-z
-x,-y,-z
1/2+x,y,1/2-z
1/2-x,1/2+y,1/2+z
x,1/2-y,z
loop_
_atom_site_type_symbol
_atom_site_label
_atom_site_fract_x
_atom_site_fract_y
_atom_site_fract_z
Si Si1 0.031679 0.838350 0.014026
Si Si2 0.274339 0.926584 0.523358
Si Si3 0.759409 0.660321 0.703748
Si Si4 0.585853 0.840947 0.178380
Si Si5 0.607993 0.432632 0.985843
O O1 0.971838 0.750000 0.012006
O O2 0.093642 0.846384 0.161429
O O3 0.923325 0.903708 0.993443
O O4 0.137644 0.840543 0.897059
O O5 0.228526 0.883485 0.658859
O O6 0.195864 0.890225 0.397819
O O7 0.238331 0.017401 0.537604
O O8 0.795874 0.750000 0.729794
O O9 0.872361 0.615679 0.622521
O O10 0.596026 0.750000 0.139508
O O11 0.447234 0.875225 0.127936
O O12 0.500000 0.500000 0.000000
#
# Coordination Sequence:
#
# PCOD9466877 Si02
#       5
#     8   8   8   8   8
#     4  10  24  42  69 101 131 178 232 282 349 412
#     4  11  25  44  69 100 143 180 233 293 350 411
#     4  11  25  45  71 103 140 185 235 288 348 421
#     4  10  22  43  69  96 134 180 232 288 347 421
#     4  10  25  42  66  99 135 180 231 280 353 406
#
# _framework density 22.860769999999999
#
# number of rings (size 3 to 8) (size 9 to 14) (size 15 to 20)
#    0.000    1.600    0.000    2.400   11.200    2.400 
#    0.000    0.000    0.000    0.000    0.000    0.000 
#    0.000    0.000    0.000    0.000    0.000    0.000 
#
# Total GULP energy -223886.423528 kJ/mol
# GULP energy per Si atom -5597.160588 kJ/mol
# Density = 2.280874 g / cm^3
# Si number density = 22.860770 Si / 1000 Ang^3
#
#
#
# Elastic Constant Matrix: (Units=GPa)
#
#
# Indices 1 2 3 4 5 6 
#
# 1 51.0821 10.3765 8.6957 0.0000 0.0000 0.0000
# 2 10.3765 93.1986 2.5806 0.0000 0.0000 0.0000
# 3 8.6957 2.5806 111.5772 0.0000 0.0000 0.0000
# 4 0.0000 0.0000 0.0000 26.1767 0.0000 0.0000
# 5 0.0000 0.0000 0.0000 0.0000 43.1791 0.0000
# 6 0.0000 0.0000 0.0000 0.0000 0.0000 32.2777
#
#
#
# Elastic Compliance Matrix: (Units=1/GPa)
#
#
# Indices 1 2 3 4 5 6 
#
# 1 0.020287 -0.002216 -0.001530 0.000000 0.000000 0.000000
# 2 -0.002216 0.010979 -0.000081 0.000000 0.000000 0.000000
# 3 -0.001530 -0.000081 0.009084 0.000000 0.000000 0.000000
# 4 0.000000 0.000000 0.000000 0.038202 0.000000 0.000000
# 5 0.000000 0.000000 0.000000 0.000000 0.023159 0.000000
# 6 0.000000 0.000000 0.000000 0.000000 0.000000 0.030981
#
#
# Mechanical properties :
#
#
# Convention : Reuss Voigt Hill
#
# Bulk Modulus (GPa) = 30.58609 33.24040 31.91325
# Shear Modulus (GPa) = 33.05904 35.94037 34.49971
#
# Velocity S-wave (km/s) = 3.80689 3.96933 3.88896
# Velocity P-wave (km/s) = 5.72115 5.96484 5.84427
#
# Compressibility (1/GPa) = 0.03269460
#
# Stress axis : x y z
#
# Youngs Moduli (GPa) = 49.29274 91.08478 110.08969
#
# Poissons Ratio (x) = 0.20188 0.16841
# Poissons Ratio (y) = 0.10925 0.00894
# Poissons Ratio (z) = 0.07541 0.00740
#
# Static dielectric constant tensor:
#      x y z
#    x 1.913370 0.000000 0.000000 
#    y 0.000000 1.771650 0.000000 
#    z 0.000000 0.000000 1.759990 
# 
# From -- ./inp_files/5011.got.cif
#   From: 2010.05.17/outbox.cif.g08.bks.cpg/sg62_3_cif.got.tgz:5011.got - 2010.06.03 15:25:27.
