data_PCOD9466143
_publ_section_title
;
Structure prediction by ZEFSAII (Michael W. Deem and Ramdas Pophale) SiO2 
 PCOD9466143
Probable space group: P N M A
;
_chemical_formula_sum "Si O2"
_cell_formula_units_Z 40
_cell_length_a 12.571539
_cell_length_b 8.703820
_cell_length_c 18.978477
_cell_angle_alpha 90.000000
_cell_angle_beta 90.000000
_cell_angle_gamma 90.000000
_cell_volume 2076.632783
_symmetry_space_group_name_H-M "P N M A"
_symmetry_group_IT_number 62
_symmetry_cell_setting 'orthorhombic'
loop_
_space_group_symop_operation_xyz
x,y,z
1/2-x,-y,1/2+z
1/2+x,1/2-y,1/2-z
-x,1/2+y,-z
-x,-y,-z
1/2+x,y,1/2-z
1/2-x,1/2+y,1/2+z
x,1/2-y,z
loop_
_atom_site_type_symbol
_atom_site_label
_atom_site_fract_x
_atom_site_fract_y
_atom_site_fract_z
Si Si1 0.601278 0.564991 0.691399
Si Si2 0.558452 0.065014 0.431237
Si Si3 0.698243 0.565748 0.953982
Si Si4 0.962064 0.932316 0.339615
Si Si5 0.180392 0.433575 0.389688
O O1 0.596811 0.750000 0.701482
O O2 0.506271 0.518982 0.638386
O O3 0.589021 0.484182 0.765996
O O4 0.712254 0.528771 0.652870
O O5 0.554005 0.250000 0.435287
O O6 0.681976 0.019887 0.431437
O O7 0.500000 0.000000 0.500000
O O8 0.688821 0.750000 0.948904
O O9 0.612401 0.488968 0.903256
O O10 0.682122 0.513651 0.034262
O O11 0.974095 0.750000 0.342526
O O12 0.076588 0.011652 0.348284
O O13 0.177332 0.250000 0.399671
#
# Coordination Sequence:
#
# PCOD9466143 Si02
#       5
#     8   8   8   8   8
#     4  10  23  43  65  93 127 167 210 257 318 377
#     4  10  21  39  65  95 126 162 207 256 311 374
#     4  11  23  41  67  97 129 166 212 261 314 377
#     4  12  27  43  63  93 130 169 213 264 317 374
#     4  11  23  43  69  93 126 167 211 262 315 378
#
# _framework density 19.261951
#
# number of rings (size 3 to 8) (size 9 to 14) (size 15 to 20)
#    0.000    1.200    2.000    3.600    2.800    3.200 
#    0.000    0.000    0.000    0.000    0.000    0.000 
#    0.000    0.000    0.000    0.000    0.000    0.000 
#
# Total GULP energy -223771.261812 kJ/mol
# GULP energy per Si atom -5594.281545 kJ/mol
# Density = 1.921811 g / cm^3
# Si number density = 19.261951 Si / 1000 Ang^3
#
#
#
# Elastic Constant Matrix: (Units=GPa)
#
#
# Indices 1 2 3 4 5 6 
#
# 1 45.0530 12.8009 23.4403 0.0000 0.0000 0.0000
# 2 12.8009 18.1009 6.2212 0.0000 0.0000 0.0000
# 3 23.4403 6.2212 86.4342 0.0000 0.0000 0.0000
# 4 0.0000 0.0000 0.0000 38.8560 0.0000 0.0000
# 5 0.0000 0.0000 0.0000 0.0000 30.7445 0.0000
# 6 0.0000 0.0000 0.0000 0.0000 0.0000 25.3349
#
#
#
# Elastic Compliance Matrix: (Units=1/GPa)
#
#
# Indices 1 2 3 4 5 6 
#
# 1 0.031546 -0.019860 -0.007126 0.000000 0.000000 0.000000
# 2 -0.019860 0.069151 0.000409 0.000000 0.000000 0.000000
# 3 -0.007126 0.000409 0.013472 0.000000 0.000000 0.000000
# 4 0.000000 0.000000 0.000000 0.025736 0.000000 0.000000
# 5 0.000000 0.000000 0.000000 0.000000 0.032526 0.000000
# 6 0.000000 0.000000 0.000000 0.000000 0.000000 0.039471
#
#
# Mechanical properties :
#
#
# Convention : Reuss Voigt Hill
#
# Bulk Modulus (GPa) = 16.38945 26.05699 21.22322
# Shear Modulus (GPa) = 17.51953 26.12880 21.82417
#
# Velocity S-wave (km/s) = 3.01913 3.68706 3.36969
# Velocity P-wave (km/s) = 4.54761 5.62876 5.11682
#
# Compressibility (1/GPa) = 0.06101486
#
# Stress axis : x y z
#
# Youngs Moduli (GPa) = 31.69931 14.46120 74.22528
#
# Poissons Ratio (x) = 0.28721 0.52891
# Poissons Ratio (y) = 0.62956 -0.03035
# Poissons Ratio (z) = 0.22588 -0.00591
#
# Static dielectric constant tensor:
#      x y z
#    x 1.657580 0.000000 0.000000 
#    y 0.000000 1.649080 0.000000 
#    z 0.000000 0.000000 1.629330 
# 
# From -- ./inp_files/22771.got.cif
#   From: 2010.05.17/outbox.cif.g08.bks.cpg/sg62_12_cif.got.tgz:22771.got - 2010.06.03 15:25:27.
