data_PCOD9466945
_publ_section_title
;
Structure prediction by ZEFSAII (Michael W. Deem and Ramdas Pophale) SiO2 
 PCOD9466945
Probable space group: P N M A
;
_chemical_formula_sum "Si O2"
_cell_formula_units_Z 56
_cell_length_a 9.829539
_cell_length_b 20.805887
_cell_length_c 12.663552
_cell_angle_alpha 90.000000
_cell_angle_beta 90.000000
_cell_angle_gamma 90.000000
_cell_volume 2589.851863
_symmetry_space_group_name_H-M "P N M A"
_symmetry_group_IT_number 62
_symmetry_cell_setting 'orthorhombic'
loop_
_space_group_symop_operation_xyz
x,y,z
1/2-x,-y,1/2+z
1/2+x,1/2-y,1/2-z
-x,1/2+y,-z
-x,-y,-z
1/2+x,y,1/2-z
1/2-x,1/2+y,1/2+z
x,1/2-y,z
loop_
_atom_site_type_symbol
_atom_site_label
_atom_site_fract_x
_atom_site_fract_y
_atom_site_fract_z
Si Si1 0.253801 0.821786 0.806286
Si Si2 0.891743 0.677913 0.321874
Si Si3 0.858974 0.362280 0.541342
Si Si4 0.293488 0.114531 0.516145
Si Si5 0.937297 0.676479 0.074349
Si Si6 0.378253 0.995447 0.915180
Si Si7 0.479030 0.112756 0.191570
O O1 0.212485 0.750000 0.776128
O O2 0.150987 0.875540 0.763152
O O3 0.405672 0.837945 0.770243
O O4 0.255127 0.831650 0.932097
O O5 0.834103 0.750000 0.330393
O O6 0.787886 0.628655 0.376264
O O7 0.919423 0.665620 0.199477
O O8 0.033743 0.674027 0.384982
O O9 0.712877 0.330435 0.526514
O O10 0.834623 0.431384 0.597582
O O11 0.929561 0.371416 0.427443
O O12 0.452740 0.126330 0.530952
O O13 0.240205 0.048118 0.466240
O O14 0.985940 0.750000 0.058090
O O15 0.445610 0.956143 0.818215
O O16 0.500000 0.000000 0.000000
#
# Coordination Sequence:
#
# PCOD9466945 Si02
#       7
#     8   8   8   8   8   8   8
#     4  11  22  38  61  92 127 169 214 260 323 391
#     4  11  21  40  66  93 126 170 218 263 328 392
#     4  11  22  43  68  89 130 174 214 270 326 380
#     4  11  22  41  65  92 135 173 204 271 331 375
#     4  11  25  39  62 104 134 160 218 274 325 397
#     4   9  19  44  68  86 125 164 221 262 306 395
#     4  10  23  40  62  90 126 167 217 266 315 382
#
# _framework density 21.622858000000001
#
# number of rings (size 3 to 8) (size 9 to 14) (size 15 to 20)
#    0.000    1.429    4.286    3.000    2.000    4.571 
#    5.143    2.857    0.000    0.000    0.000    0.000 
#    0.000    0.000    0.000    0.000    0.000    0.000 
#
# Total GULP energy -312729.604740 kJ/mol
# GULP energy per Si atom -5584.457228 kJ/mol
# Density = 2.157364 g / cm^3
# Si number density = 21.622858 Si / 1000 Ang^3
#
#
#
# Elastic Constant Matrix: (Units=GPa)
#
#
# Indices 1 2 3 4 5 6 
#
# 1 105.0826 5.2043 7.2953 0.0000 0.0000 0.0000
# 2 5.2043 80.4127 11.7436 0.0000 0.0000 0.0000
# 3 7.2953 11.7436 27.5045 0.0000 0.0000 0.0000
# 4 0.0000 0.0000 0.0000 6.4696 0.0000 0.0000
# 5 0.0000 0.0000 0.0000 0.0000 27.6745 0.0000
# 6 0.0000 0.0000 0.0000 0.0000 0.0000 32.7232
#
#
#
# Elastic Compliance Matrix: (Units=1/GPa)
#
#
# Indices 1 2 3 4 5 6 
#
# 1 0.009700 -0.000269 -0.002458 0.000000 0.000000 0.000000
# 2 -0.000269 0.013270 -0.005595 0.000000 0.000000 0.000000
# 3 -0.002458 -0.005595 0.039398 0.000000 0.000000 0.000000
# 4 0.000000 0.000000 0.000000 0.154568 0.000000 0.000000
# 5 0.000000 0.000000 0.000000 0.000000 0.036134 0.000000
# 6 0.000000 0.000000 0.000000 0.000000 0.000000 0.030559
#
#
# Mechanical properties :
#
#
# Convention : Reuss Voigt Hill
#
# Bulk Modulus (GPa) = 21.86953 29.05402 25.46177
# Shear Modulus (GPa) = 15.84704 25.95725 20.90215
#
# Velocity S-wave (km/s) = 2.71012 3.46852 3.11250
# Velocity P-wave (km/s) = 4.46419 5.43201 4.97171
#
# Compressibility (1/GPa) = 0.04572572
#
# Stress axis : x y z
#
# Youngs Moduli (GPa) = 103.08975 75.35629 25.38174
#
# Poissons Ratio (x) = 0.02026 0.06239
# Poissons Ratio (y) = 0.02771 0.14200
# Poissons Ratio (z) = 0.25341 0.42160
#
# Static dielectric constant tensor:
#      x y z
#    x 1.783000 0.000000 0.000000 
#    y 0.000000 1.805900 0.000000 
#    z 0.000000 0.000000 1.800170 
# 
# From -- ./inp_files/17186.got.cif
#   From: 2010.05.17/outbox.cif.g08.bks.cpg/sg62_9_cif.got.tgz:17186.got - 2010.06.03 15:25:27.
