data_PCOD9466574
_publ_section_title
;
Structure prediction by ZEFSAII (Michael W. Deem and Ramdas Pophale) SiO2 
 PCOD9466574
Probable space group: P N M A
;
_chemical_formula_sum "Si O2"
_cell_formula_units_Z 56
_cell_length_a 14.751356
_cell_length_b 8.687027
_cell_length_c 21.258648
_cell_angle_alpha 90.000000
_cell_angle_beta 90.000000
_cell_angle_gamma 90.000000
_cell_volume 2724.198544
_symmetry_space_group_name_H-M "P N M A"
_symmetry_group_IT_number 62
_symmetry_cell_setting 'orthorhombic'
loop_
_space_group_symop_operation_xyz
x,y,z
1/2-x,-y,1/2+z
1/2+x,1/2-y,1/2-z
-x,1/2+y,-z
-x,-y,-z
1/2+x,y,1/2-z
1/2-x,1/2+y,1/2+z
x,1/2-y,z
loop_
_atom_site_type_symbol
_atom_site_label
_atom_site_fract_x
_atom_site_fract_y
_atom_site_fract_z
Si Si1 0.591692 0.565200 0.970590
Si Si2 0.798571 0.566803 0.213770
Si Si3 0.388558 0.933518 0.619597
Si Si4 0.918269 0.565882 0.092587
Si Si5 0.391731 0.564821 0.766776
Si Si6 0.281706 0.432467 0.509569
Si Si7 0.415830 0.435474 0.176159
O O1 0.593856 0.750000 0.975888
O O2 0.594154 0.523444 0.896629
O O3 0.500000 0.500000 0.000000
O O4 0.680762 0.493804 0.002177
O O5 0.793803 0.750000 0.216810
O O6 0.867222 0.524853 0.157623
O O7 0.698622 0.501244 0.202194
O O8 0.839062 0.502198 0.278569
O O9 0.374805 0.750000 0.615001
O O10 0.389984 0.977840 0.692980
O O11 0.485751 0.980730 0.591295
O O12 0.312145 0.018736 0.579615
O O13 0.932449 0.750000 0.090271
O O14 0.852897 0.513408 0.036752
O O15 0.388854 0.750000 0.770467
O O16 0.485663 0.513295 0.798171
O O17 0.286075 0.250000 0.501915
O O18 0.411628 0.250000 0.180929
#
# Coordination Sequence:
#
# PCOD9466574 Si02
#       7
#     8   8   8   8   8   8   8
#     4  11  25  45  68  96 130 169 217 267 316 376
#     4  11  24  39  62  96 130 165 207 265 321 371
#     4  11  22  41  67  96 128 167 210 261 318 381
#     4  11  24  42  63  94 130 166 211 264 321 381
#     4  10  22  39  64  93 125 166 208 252 308 380
#     4  12  26  43  65  92 127 172 215 263 318 378
#     4  10  22  43  67  93 125 167 211 255 310 379
#
# _framework density 20.556504
#
# number of rings (size 3 to 8) (size 9 to 14) (size 15 to 20)
#    0.000    1.143    1.429    4.286    2.000    8.000 
#    0.000    0.000    0.000    0.000    0.000    0.000 
#    0.000    0.000    0.000    0.000    0.000    0.000 
#
# Total GULP energy -313468.314725 kJ/mol
# GULP energy per Si atom -5597.648477 kJ/mol
# Density = 2.050972 g / cm^3
# Si number density = 20.556504 Si / 1000 Ang^3
#
#
#
# Elastic Constant Matrix: (Units=GPa)
#
#
# Indices 1 2 3 4 5 6 
#
# 1 99.0006 -4.7278 -8.3463 0.0000 0.0000 0.0000
# 2 -4.7278 13.3882 7.8054 0.0000 0.0000 0.0000
# 3 -8.3463 7.8054 47.2600 0.0000 0.0000 0.0000
# 4 0.0000 0.0000 0.0000 21.5833 0.0000 0.0000
# 5 0.0000 0.0000 0.0000 0.0000 25.2797 0.0000
# 6 0.0000 0.0000 0.0000 0.0000 0.0000 37.5144
#
#
#
# Elastic Compliance Matrix: (Units=1/GPa)
#
#
# Indices 1 2 3 4 5 6 
#
# 1 0.010352 0.002866 0.001355 0.000000 0.000000 0.000000
# 2 0.002866 0.083444 -0.013275 0.000000 0.000000 0.000000
# 3 0.001355 -0.013275 0.023591 0.000000 0.000000 0.000000
# 4 0.000000 0.000000 0.000000 0.046332 0.000000 0.000000
# 5 0.000000 0.000000 0.000000 0.000000 0.039557 0.000000
# 6 0.000000 0.000000 0.000000 0.000000 0.000000 0.026656
#
#
# Mechanical properties :
#
#
# Convention : Reuss Voigt Hill
#
# Bulk Modulus (GPa) = 10.07274 16.56795 13.32035
# Shear Modulus (GPa) = 17.78499 27.86997 22.82748
#
# Velocity S-wave (km/s) = 2.94458 3.68608 3.33599
# Velocity P-wave (km/s) = 4.05850 5.11795 4.61870
#
# Compressibility (1/GPa) = 0.09927780
#
# Stress axis : x y z
#
# Youngs Moduli (GPa) = 96.59946 11.98406 42.38833
#
# Poissons Ratio (x) = -0.03434 -0.05743
# Poissons Ratio (y) = -0.27682 0.56273
# Poissons Ratio (z) = -0.13088 0.15909
#
# Static dielectric constant tensor:
#      x y z
#    x 1.716490 0.000000 0.000000 
#    y 0.000000 1.704150 0.000000 
#    z 0.000000 0.000000 1.736310 
# 
# From -- ./inp_files/27105.got.cif
#   From: 2010.05.17/outbox.cif.g08.bks.cpg/sg62_14_cif.got.tgz:27105.got - 2010.06.03 15:25:27.
