data_PCOD9466505
_publ_section_title
;
Structure prediction by ZEFSAII (Michael W. Deem and Ramdas Pophale) SiO2 
 PCOD9466505
Probable space group: P N M A
;
_chemical_formula_sum "Si O2"
_cell_formula_units_Z 36
_cell_length_a 22.319277
_cell_length_b 10.136840
_cell_length_c 9.161166
_cell_angle_alpha 90.000000
_cell_angle_beta 90.000000
_cell_angle_gamma 90.000000
_cell_volume 2072.685773
_symmetry_space_group_name_H-M "P N M A"
_symmetry_group_IT_number 62
_symmetry_cell_setting 'orthorhombic'
loop_
_space_group_symop_operation_xyz
x,y,z
1/2-x,-y,1/2+z
1/2+x,1/2-y,1/2-z
-x,1/2+y,-z
-x,-y,-z
1/2+x,y,1/2-z
1/2-x,1/2+y,1/2+z
x,1/2-y,z
loop_
_atom_site_type_symbol
_atom_site_label
_atom_site_fract_x
_atom_site_fract_y
_atom_site_fract_z
Si Si1 0.039760 0.750000 0.339364
Si Si2 0.832464 0.477619 0.915672
Si Si3 0.759492 0.750000 0.914837
Si Si4 0.682983 0.750000 0.203804
Si Si5 0.966445 0.250000 0.313382
Si Si6 0.163237 0.750000 0.839571
Si Si7 0.471309 0.994711 0.659857
O O1 0.111324 0.750000 0.314180
O O2 0.029777 0.750000 0.511810
O O3 0.014914 0.876511 0.255445
O O4 0.798021 0.615626 0.928902
O O5 0.802136 0.381530 0.795442
O O6 0.899889 0.510456 0.863874
O O7 0.836391 0.380994 0.057354
O O8 0.720776 0.750000 0.765945
O O9 0.713816 0.750000 0.049145
O O10 0.897920 0.250000 0.255116
O O11 0.000813 0.374201 0.246778
O O12 0.500000 0.000000 0.500000
#
# Coordination Sequence:
#
# PCOD9466505 Si02
#       7
#     4   8   4   4   4   4   8
#     4  10  22  38  58  86 119 154 194 242 298 350
#     4  10  22  39  59  87 115 152 199 241 288 349
#     4  12  21  37  61  85 115 149 199 246 288 342
#     4   9  20  38  57  79 115 156 185 234 301 345
#     4  12  21  38  59  89 121 155 193 245 301 347
#     4  11  22  39  61  85 116 160 195 235 296 358
#     4  11  21  38  64  87 117 158 198 241 295 358
#
# _framework density 17.368767999999999
#
# number of rings (size 3 to 8) (size 9 to 14) (size 15 to 20)
#    0.000    1.333    3.333    4.000    0.000    0.000 
#    0.000    0.000    0.000    0.000    0.000    0.000 
#    0.000    0.000    0.000    0.000    0.000    0.000 
#
# Total GULP energy -200914.788068 kJ/mol
# GULP energy per Si atom -5580.966335 kJ/mol
# Density = 1.732924 g / cm^3
# Si number density = 17.368768 Si / 1000 Ang^3
#
#
#
# Elastic Constant Matrix: (Units=GPa)
#
#
# Indices 1 2 3 4 5 6 
#
# 1 57.9501 55.2014 28.5610 0.0000 0.0000 0.0000
# 2 55.2014 189.0601 79.8691 0.0000 0.0000 0.0000
# 3 28.5610 79.8691 146.3596 0.0000 0.0000 0.0000
# 4 0.0000 0.0000 0.0000 27.7014 0.0000 0.0000
# 5 0.0000 0.0000 0.0000 0.0000 31.9908 0.0000
# 6 0.0000 0.0000 0.0000 0.0000 0.0000 32.3115
#
#
#
# Elastic Compliance Matrix: (Units=1/GPa)
#
#
# Indices 1 2 3 4 5 6 
#
# 1 0.024045 -0.006548 -0.001119 0.000000 0.000000 0.000000
# 2 -0.006548 0.008657 -0.003446 0.000000 0.000000 0.000000
# 3 -0.001119 -0.003446 0.008932 0.000000 0.000000 0.000000
# 4 0.000000 0.000000 0.000000 0.036099 0.000000 0.000000
# 5 0.000000 0.000000 0.000000 0.000000 0.031259 0.000000
# 6 0.000000 0.000000 0.000000 0.000000 0.000000 0.030949
#
#
# Mechanical properties :
#
#
# Convention : Reuss Voigt Hill
#
# Bulk Modulus (GPa) = 51.52761 80.07031 65.79896
# Shear Modulus (GPa) = 29.64957 33.71663 31.68310
#
# Velocity S-wave (km/s) = 4.13614 4.41071 4.27563
# Velocity P-wave (km/s) = 7.24855 8.49349 7.89560
#
# Compressibility (1/GPa) = 0.01940707
#
# Stress axis : x y z
#
# Youngs Moduli (GPa) = 41.58857 115.51155 111.96202
#
# Poissons Ratio (x) = 0.75636 0.12528
# Poissons Ratio (y) = 0.27232 0.38587
# Poissons Ratio (z) = 0.04654 0.39811
#
# Static dielectric constant tensor:
#      x y z
#    x 1.569230 0.000000 0.000000 
#    y 0.000000 1.477550 0.000000 
#    z 0.000000 0.000000 1.584380 
# 
# From -- ./inp_files/8351.got.cif
#   From: 2010.05.17/outbox.cif.g08.bks.cpg/sg62_5_cif.got.tgz:8351.got - 2010.06.03 15:25:27.
