data_PCOD9466022
_publ_section_title
;
Structure prediction by ZEFSAII (Michael W. Deem and Ramdas Pophale) SiO2 
 PCOD9466022
Probable space group: P N M A
;
_chemical_formula_sum "Si O2"
_cell_formula_units_Z 64
_cell_length_a 15.574976
_cell_length_b 11.540782
_cell_length_c 19.286742
_cell_angle_alpha 90.000000
_cell_angle_beta 90.000000
_cell_angle_gamma 90.000000
_cell_volume 3466.741780
_symmetry_space_group_name_H-M "P N M A"
_symmetry_group_IT_number 62
_symmetry_cell_setting 'orthorhombic'
loop_
_space_group_symop_operation_xyz
x,y,z
1/2-x,-y,1/2+z
1/2+x,1/2-y,1/2-z
-x,1/2+y,-z
-x,-y,-z
1/2+x,y,1/2-z
1/2-x,1/2+y,1/2+z
x,1/2-y,z
loop_
_atom_site_type_symbol
_atom_site_label
_atom_site_fract_x
_atom_site_fract_y
_atom_site_fract_z
Si Si1 0.950072 0.379784 0.017487
Si Si2 0.784951 0.980861 0.239934
Si Si3 0.347851 0.621199 0.122212
Si Si4 0.946805 0.116791 0.183088
Si Si5 0.978162 0.389034 0.550106
Si Si6 0.703233 0.499655 0.460676
Si Si7 0.218370 0.886093 0.405478
Si Si8 0.137943 0.112329 0.176255
O O1 0.987338 0.250000 0.002265
O O2 0.934942 0.383543 0.099967
O O3 0.860845 0.394622 0.976325
O O4 0.000000 0.500000 0.000000
O O5 0.869399 0.051778 0.219038
O O6 0.711609 0.057292 0.276748
O O7 0.817004 0.893185 0.299186
O O8 0.745817 0.929362 0.169972
O O9 0.327433 0.750000 0.097700
O O10 0.448655 0.603421 0.109216
O O11 0.292198 0.535744 0.075036
O O12 0.945671 0.250000 0.206500
O O13 0.042652 0.068633 0.195741
O O14 0.981886 0.250000 0.524679
O O15 0.000000 0.500000 0.500000
O O16 0.882147 0.407328 0.578252
O O17 0.725040 0.442663 0.533885
O O18 0.656848 0.418969 0.403890
O O19 0.232523 0.750000 0.408570
O O20 0.138311 0.250000 0.183400
#
# Coordination Sequence:
#
# PCOD9466022 Si02
#       8
#     8   8   8   8   8   8   8   8
#     4  11  22  38  61  91 123 157 199 253 311 369
#     4  11  23  39  61  85 126 161 212 247 322 373
#     4  10  22  40  62  85 120 161 204 255 309 372
#     4  10  21  39  59  84 120 158 204 254 302 365
#     4  10  21  41  64  92 124 162 209 262 318 374
#     4  11  20  38  63  89 120 154 204 252 312 373
#     4  11  23  38  61  92 127 161 206 264 321 377
#     4  10  22  39  60  86 121 163 205 254 310 369
#
# _framework density 18.461138999999999
#
# number of rings (size 3 to 8) (size 9 to 14) (size 15 to 20)
#    0.000    1.500    3.750    1.500    1.750    0.500 
#    0.000    1.875    0.000    0.000    0.000    0.000 
#    0.000    0.000    0.000    0.000    0.000    0.000 
#
# Total GULP energy -356652.348192 kJ/mol
# GULP energy per Si atom -5572.692941 kJ/mol
# Density = 1.841912 g / cm^3
# Si number density = 18.461139 Si / 1000 Ang^3
#
#
#
# Elastic Constant Matrix: (Units=GPa)
#
#
# Indices 1 2 3 4 5 6 
#
# 1 99.8439 42.6687 28.6102 0.0000 0.0000 0.0000
# 2 42.6687 89.0790 35.8078 0.0000 0.0000 0.0000
# 3 28.6102 35.8078 94.0455 0.0000 0.0000 0.0000
# 4 0.0000 0.0000 0.0000 20.6674 0.0000 0.0000
# 5 0.0000 0.0000 0.0000 0.0000 28.7507 0.0000
# 6 0.0000 0.0000 0.0000 0.0000 0.0000 27.8522
#
#
#
# Elastic Compliance Matrix: (Units=1/GPa)
#
#
# Indices 1 2 3 4 5 6 
#
# 1 0.012861 -0.005416 -0.001850 0.000000 0.000000 0.000000
# 2 -0.005416 0.015536 -0.004268 0.000000 0.000000 0.000000
# 3 -0.001850 -0.004268 0.012821 0.000000 0.000000 0.000000
# 4 0.000000 0.000000 0.000000 0.048385 0.000000 0.000000
# 5 0.000000 0.000000 0.000000 0.000000 0.034782 0.000000
# 6 0.000000 0.000000 0.000000 0.000000 0.000000 0.035904
#
#
# Mechanical properties :
#
#
# Convention : Reuss Voigt Hill
#
# Bulk Modulus (GPa) = 55.09900 55.23798 55.16849
# Shear Modulus (GPa) = 26.39831 27.17951 26.78891
#
# Velocity S-wave (km/s) = 3.78556 3.84116 3.81346
# Velocity P-wave (km/s) = 7.00128 7.04690 7.02413
#
# Compressibility (1/GPa) = 0.01814915
#
# Stress axis : x y z
#
# Youngs Moduli (GPa) = 77.75731 64.36691 77.99812
#
# Poissons Ratio (x) = 0.34864 0.14430
# Poissons Ratio (y) = 0.42117 0.33286
# Poissons Ratio (z) = 0.14386 0.27469
#
# Static dielectric constant tensor:
#      x y z
#    x 1.671590 0.000000 0.000000 
#    y 0.000000 1.592070 0.000000 
#    z 0.000000 0.000000 1.620150 
# 
# From -- ./inp_files/24055.got.cif
#   From: 2010.05.17/outbox.cif.g08.bks.cpg/sg62_13_cif.got.tgz:24055.got - 2010.06.03 15:25:27.
