data_PCOD9466392
_publ_section_title
;
Structure prediction by ZEFSAII (Michael W. Deem and Ramdas Pophale) SiO2 
 PCOD9466392
Probable space group: P N M A
;
_chemical_formula_sum "Si O2"
_cell_formula_units_Z 56
_cell_length_a 14.658468
_cell_length_b 8.054096
_cell_length_c 21.397517
_cell_angle_alpha 90.000000
_cell_angle_beta 90.000000
_cell_angle_gamma 90.000000
_cell_volume 2526.206017
_symmetry_space_group_name_H-M "P N M A"
_symmetry_group_IT_number 62
_symmetry_cell_setting 'orthorhombic'
loop_
_space_group_symop_operation_xyz
x,y,z
1/2-x,-y,1/2+z
1/2+x,1/2-y,1/2-z
-x,1/2+y,-z
-x,-y,-z
1/2+x,y,1/2-z
1/2-x,1/2+y,1/2+z
x,1/2-y,z
loop_
_atom_site_type_symbol
_atom_site_label
_atom_site_fract_x
_atom_site_fract_y
_atom_site_fract_z
Si Si1 0.904951 0.946755 0.235136
Si Si2 0.406655 0.946985 0.674821
Si Si3 0.212494 0.942650 0.504873
Si Si4 0.618266 0.057575 0.877021
Si Si5 0.922983 0.556910 0.597224
Si Si6 0.592739 0.450804 0.466534
Si Si7 0.790771 0.548875 0.709934
O O1 0.921211 0.750000 0.237976
O O2 0.889619 0.007632 0.306291
O O3 0.810708 0.982885 0.199798
O O4 0.993388 0.026469 0.204139
O O5 0.390477 0.750000 0.670645
O O6 0.404380 0.015151 0.604721
O O7 0.332252 0.012682 0.724111
O O8 0.207788 0.750000 0.486467
O O9 0.315614 0.006318 0.498046
O O10 0.185408 0.959793 0.577521
O O11 0.139100 0.038199 0.463692
O O12 0.646403 0.250000 0.875400
O O13 0.516604 0.042655 0.905195
O O14 0.947206 0.750000 0.606355
O O15 0.861177 0.500457 0.655646
O O16 0.500000 0.500000 0.500000
O O17 0.596812 0.250000 0.464636
O O18 0.787106 0.750000 0.710317
#
# Coordination Sequence:
#
# PCOD9466392 Si02
#       7
#     8   8   8   8   8   8   8
#     4  11  24  38  61  94 127 160 199 254 313 365
#     4  10  21  42  66  90 120 160 209 252 299 366
#     4  11  24  42  64  90 125 166 208 258 311 367
#     4  11  23  41  63  93 128 164 206 253 310 373
#     4  11  23  40  64  93 124 163 208 256 310 368
#     4  10  24  43  65  91 122 162 208 256 305 363
#     4  10  22  40  64  91 123 164 209 255 305 370
#
# _framework density 22.167631
#
# number of rings (size 3 to 8) (size 9 to 14) (size 15 to 20)
#    0.000    1.429    1.429    3.000    2.000    6.286 
#    0.000    0.000    0.000    0.000    0.000    0.000 
#    0.000    0.000    0.000    0.000    0.000    0.000 
#
# Total GULP energy -313317.292040 kJ/mol
# GULP energy per Si atom -5594.951644 kJ/mol
# Density = 2.211718 g / cm^3
# Si number density = 22.167631 Si / 1000 Ang^3
#
#
#
# Elastic Constant Matrix: (Units=GPa)
#
#
# Indices 1 2 3 4 5 6 
#
# 1 96.9850 -9.2375 -5.0651 0.0000 0.0000 0.0000
# 2 -9.2375 21.5578 -1.5398 0.0000 0.0000 0.0000
# 3 -5.0651 -1.5398 55.9369 0.0000 0.0000 0.0000
# 4 0.0000 0.0000 0.0000 23.8541 0.0000 0.0000
# 5 0.0000 0.0000 0.0000 0.0000 22.3840 0.0000
# 6 0.0000 0.0000 0.0000 0.0000 0.0000 20.1999
#
#
#
# Elastic Compliance Matrix: (Units=1/GPa)
#
#
# Indices 1 2 3 4 5 6 
#
# 1 0.010818 0.004715 0.001109 0.000000 0.000000 0.000000
# 2 0.004715 0.048533 0.001763 0.000000 0.000000 0.000000
# 3 0.001109 0.001763 0.018026 0.000000 0.000000 0.000000
# 4 0.000000 0.000000 0.000000 0.041922 0.000000 0.000000
# 5 0.000000 0.000000 0.000000 0.000000 0.044675 0.000000
# 6 0.000000 0.000000 0.000000 0.000000 0.000000 0.049505
#
#
# Mechanical properties :
#
#
# Convention : Reuss Voigt Hill
#
# Bulk Modulus (GPa) = 10.80484 15.86611 13.33547
# Shear Modulus (GPa) = 21.81929 25.97575 23.89752
#
# Velocity S-wave (km/s) = 3.14074 3.42685 3.28691
# Velocity P-wave (km/s) = 4.24700 4.77814 4.52038
#
# Compressibility (1/GPa) = 0.09255110
#
# Stress axis : x y z
#
# Youngs Moduli (GPa) = 92.43969 20.60450 55.47463
#
# Poissons Ratio (x) = -0.09714 -0.06154
# Poissons Ratio (y) = -0.43582 -0.09780
# Poissons Ratio (z) = -0.10255 -0.03632
#
# Static dielectric constant tensor:
#      x y z
#    x 1.784300 0.000000 0.000000 
#    y 0.000000 1.772400 0.000000 
#    z 0.000000 0.000000 1.828540 
# 
# From -- ./inp_files/27135.got.cif
#   From: 2010.05.17/outbox.cif.g08.bks.cpg/sg62_14_cif.got.tgz:27135.got - 2010.06.03 15:25:27.
