data_PCOD9466370
_publ_section_title
;
Structure prediction by ZEFSAII (Michael W. Deem and Ramdas Pophale) SiO2 
 PCOD9466370
Probable space group: P N M A
;
_chemical_formula_sum "Si O2"
_cell_formula_units_Z 48
_cell_length_a 12.049277
_cell_length_b 19.602716
_cell_length_c 7.580020
_cell_angle_alpha 90.000000
_cell_angle_beta 90.000000
_cell_angle_gamma 90.000000
_cell_volume 1790.389771
_symmetry_space_group_name_H-M "P N M A"
_symmetry_group_IT_number 62
_symmetry_cell_setting 'orthorhombic'
loop_
_space_group_symop_operation_xyz
x,y,z
1/2-x,-y,1/2+z
1/2+x,1/2-y,1/2-z
-x,1/2+y,-z
-x,-y,-z
1/2+x,y,1/2-z
1/2-x,1/2+y,1/2+z
x,1/2-y,z
loop_
_atom_site_type_symbol
_atom_site_label
_atom_site_fract_x
_atom_site_fract_y
_atom_site_fract_z
Si Si1 0.863592 0.675786 0.482569
Si Si2 0.878700 0.971308 0.304581
Si Si3 0.373301 0.146727 0.408108
Si Si4 0.671743 0.606594 0.980973
Si Si5 0.116052 0.174601 0.102842
Si Si6 0.376499 0.448230 0.695135
O O1 0.906849 0.750000 0.420908
O O2 0.884237 0.606519 0.377118
O O3 0.731473 0.681448 0.505910
O O4 0.896924 0.664518 0.687252
O O5 0.745212 0.979482 0.253660
O O6 0.000700 0.979561 0.213638
O O7 0.879160 0.032035 0.447593
O O8 0.361483 0.147586 0.196031
O O9 0.492331 0.171946 0.466642
O O10 0.364415 0.071015 0.489458
O O11 0.804529 0.617362 0.977095
O O12 0.627609 0.619379 0.176858
O O13 0.164627 0.250000 0.070785
#
# Coordination Sequence:
#
# PCOD9466370 Si02
#       6
#     8   8   8   8   8   8
#     4   9  20  41  66  98 137 181 231 285 349 416
#     4  11  25  42  69 100 139 185 232 287 350 412
#     4  10  22  41  67  98 132 180 228 285 347 413
#     4  11  25  41  68  97 142 178 232 285 351 415
#     4  10  21  41  69 100 135 181 235 289 349 418
#     4  11  25  44  66 103 136 181 231 282 349 408
#
# _framework density 26.809805000000001
#
# number of rings (size 3 to 8) (size 9 to 14) (size 15 to 20)
#    0.000    1.667    0.000    3.000    9.333    1.333 
#    0.000   12.500    0.000    0.000    0.000    0.000 
#    0.000    0.000    0.000    0.000    0.000    0.000 
#
# Total GULP energy -267563.964198 kJ/mol
# GULP energy per Si atom -5574.249254 kJ/mol
# Density = 2.674879 g / cm^3
# Si number density = 26.809805 Si / 1000 Ang^3
#
#
#
# Elastic Constant Matrix: (Units=GPa)
#
#
# Indices 1 2 3 4 5 6 
#
# 1 214.5091 29.7663 22.6569 0.0000 0.0000 0.0000
# 2 29.7663 89.5578 2.3131 0.0000 0.0000 0.0000
# 3 22.6569 2.3131 66.5777 0.0000 0.0000 0.0000
# 4 0.0000 0.0000 0.0000 -20.3421 0.0000 0.0000
# 5 0.0000 0.0000 0.0000 0.0000 8.2247 0.0000
# 6 0.0000 0.0000 0.0000 0.0000 0.0000 21.0585
#
#
#
# Elastic Compliance Matrix: (Units=1/GPa)
#
#
# Indices 1 2 3 4 5 6 
#
# 1 0.005066 -0.001641 -0.001667 0.000000 0.000000 0.000000
# 2 -0.001641 0.011707 0.000152 0.000000 0.000000 0.000000
# 3 -0.001667 0.000152 0.015582 0.000000 0.000000 0.000000
# 4 0.000000 0.000000 0.000000 -0.049159 0.000000 0.000000
# 5 0.000000 0.000000 0.000000 0.000000 0.121585 0.000000
# 6 0.000000 0.000000 0.000000 0.000000 0.000000 0.047487
#
#
# Mechanical properties :
#
#
# Convention : Reuss Voigt Hill
#
# Bulk Modulus (GPa) = 38.39783 53.34636 45.87209
# Shear Modulus (GPa) = 29.89350 22.84876 26.37113
#
# Velocity S-wave (km/s) = 3.34282 2.92251 3.13970
# Velocity P-wave (km/s) = 5.40857 5.59726 5.50372
#
# Compressibility (1/GPa) = 0.02604314
#
# Stress axis : x y z
#
# Youngs Moduli (GPa) = 197.41327 85.41654 64.17658
#
# Poissons Ratio (x) = 0.14013 0.10697
# Poissons Ratio (y) = 0.32387 -0.00973
# Poissons Ratio (z) = 0.32906 -0.01294
#
# Static dielectric constant tensor:
#      x y z
#    x 2.093640 0.000000 0.000000 
#    y 0.000000 2.192750 0.000000 
#    z 0.000000 0.000000 2.250200 
# 
# From -- ./inp_files/5299.got.cif
#   From: 2010.05.17/outbox.cif.g08.bks.cpg/sg62_3_cif.got.tgz:5299.got - 2010.06.03 15:25:27.
