data_PCOD9466653
_publ_section_title
;
Structure prediction by ZEFSAII (Michael W. Deem and Ramdas Pophale) SiO2 
 PCOD9466653
Probable space group: P N M A
;
_chemical_formula_sum "Si O2"
_cell_formula_units_Z 48
_cell_length_a 15.975337
_cell_length_b 10.354957
_cell_length_c 13.748419
_cell_angle_alpha 90.000000
_cell_angle_beta 90.000000
_cell_angle_gamma 90.000000
_cell_volume 2274.317471
_symmetry_space_group_name_H-M "P N M A"
_symmetry_group_IT_number 62
_symmetry_cell_setting 'orthorhombic'
loop_
_space_group_symop_operation_xyz
x,y,z
1/2-x,-y,1/2+z
1/2+x,1/2-y,1/2-z
-x,1/2+y,-z
-x,-y,-z
1/2+x,y,1/2-z
1/2-x,1/2+y,1/2+z
x,1/2-y,z
loop_
_atom_site_type_symbol
_atom_site_label
_atom_site_fract_x
_atom_site_fract_y
_atom_site_fract_z
Si Si1 0.395802 0.250000 0.373811
Si Si2 0.617535 0.250000 0.574965
Si Si3 0.889937 0.394394 0.553208
Si Si4 0.596200 0.250000 0.348287
Si Si5 0.842131 0.022008 0.770073
Si Si6 0.083215 0.750000 0.100578
Si Si7 0.586492 0.394576 0.905166
Si Si8 0.843860 0.979430 0.214452
O O1 0.495391 0.250000 0.353432
O O2 0.384576 0.250000 0.489940
O O3 0.357703 0.378595 0.327095
O O4 0.628896 0.250000 0.459476
O O5 0.517528 0.250000 0.594849
O O6 0.654287 0.376049 0.627603
O O7 0.857789 0.250000 0.531985
O O8 0.862653 0.439844 0.659352
O O9 0.868169 0.500156 0.472324
O O10 0.990975 0.386657 0.558371
O O11 0.626770 0.379074 0.295222
O O12 0.884767 0.124601 0.841881
O O13 0.742084 0.029701 0.773892
O O14 0.622857 0.250000 0.910508
O O15 0.586345 0.440465 0.793554
#
# Coordination Sequence:
#
# PCOD9466653 Si02
#       8
#     4   4   8   4   8   4   8   8
#     4  11  25  44  71  99 129 173 224 275 322 390
#     4  11  23  44  71  97 129 177 228 269 320 388
#     4  10  22  40  64  92 125 171 219 262 313 380
#     4  11  25  44  71  99 129 173 224 275 322 390
#     4  12  25  43  64 100 135 170 212 269 339 390
#     4  11  23  44  71  97 129 177 228 269 320 388
#     4  10  22  40  64  92 125 171 219 262 313 380
#     4  12  25  43  64 100 135 170 212 269 339 390
#
# _framework density 21.105233999999999
#
# number of rings (size 3 to 8) (size 9 to 14) (size 15 to 20)
#    0.000    1.000    1.667    5.000    2.333    5.333 
#    0.000    0.000    0.000    0.000    0.000    0.000 
#    0.000    0.000    0.000    0.000    0.000    0.000 
#
# Total GULP energy -268594.273193 kJ/mol
# GULP energy per Si atom -5595.714025 kJ/mol
# Density = 2.105720 g / cm^3
# Si number density = 21.105234 Si / 1000 Ang^3
#
#
#
# Elastic Constant Matrix: (Units=GPa)
#
#
# Indices 1 2 3 4 5 6 
#
# 1 39.0089 15.9500 1.7308 0.0000 0.0000 0.0000
# 2 15.9500 210.3432 69.0518 0.0000 0.0000 0.0000
# 3 1.7308 69.0518 99.4473 0.0000 0.0000 0.0000
# 4 0.0000 0.0000 0.0000 29.9577 0.0000 0.0000
# 5 0.0000 0.0000 0.0000 0.0000 -76.2865 0.0000
# 6 0.0000 0.0000 0.0000 0.0000 0.0000 147.9336
#
#
#
# Elastic Compliance Matrix: (Units=1/GPa)
#
#
# Indices 1 2 3 4 5 6 
#
# 1 0.026568 -0.002413 0.001213 0.000000 0.000000 0.000000
# 2 -0.002413 0.006377 -0.004386 0.000000 0.000000 0.000000
# 3 0.001213 -0.004386 0.013080 0.000000 0.000000 0.000000
# 4 0.000000 0.000000 0.000000 0.033380 0.000000 0.000000
# 5 0.000000 0.000000 0.000000 0.000000 -0.013108 0.000000
# 6 0.000000 0.000000 0.000000 0.000000 0.000000 0.006760
#
#
# Mechanical properties :
#
#
# Convention : Reuss Voigt Hill
#
# Bulk Modulus (GPa) = 28.69179 58.02939 43.36059
# Shear Modulus (GPa) = 52.16738 37.79208 44.97973
#
# Velocity S-wave (km/s) = 4.97709 4.23620 4.62151
# Velocity P-wave (km/s) = 6.83028 7.17510 7.00481
#
# Compressibility (1/GPa) = 0.03485318
#
# Stress axis : x y z
#
# Youngs Moduli (GPa) = 37.63945 156.81655 76.45387
#
# Poissons Ratio (x) = 0.37836 -0.09273
# Poissons Ratio (y) = 0.09082 0.33531
# Poissons Ratio (z) = -0.04565 0.68777
#
# Static dielectric constant tensor:
#      x y z
#    x 1.787830 0.000000 0.000000 
#    y 0.000000 1.732040 0.000000 
#    z 0.000000 0.000000 1.724860 
# 
# From -- ./inp_files/19720.got.cif
#   From: 2010.05.17/outbox.cif.g08.bks.cpg/sg62_10_cif.got.tgz:19720.got - 2010.06.03 15:25:27.
