data_PCOD9466012
_publ_section_title
;
Structure prediction by ZEFSAII (Michael W. Deem and Ramdas Pophale) SiO2 
 PCOD9466012
Probable space group: P N M A
;
_chemical_formula_sum "Si O2"
_cell_formula_units_Z 64
_cell_length_a 14.965554
_cell_length_b 18.114177
_cell_length_c 11.661520
_cell_angle_alpha 90.000000
_cell_angle_beta 90.000000
_cell_angle_gamma 90.000000
_cell_volume 3161.306228
_symmetry_space_group_name_H-M "P N M A"
_symmetry_group_IT_number 62
_symmetry_cell_setting 'orthorhombic'
loop_
_space_group_symop_operation_xyz
x,y,z
1/2-x,-y,1/2+z
1/2+x,1/2-y,1/2-z
-x,1/2+y,-z
-x,-y,-z
1/2+x,y,1/2-z
1/2-x,1/2+y,1/2+z
x,1/2-y,z
loop_
_atom_site_type_symbol
_atom_site_label
_atom_site_fract_x
_atom_site_fract_y
_atom_site_fract_z
Si Si1 0.220848 0.396087 0.485112
Si Si2 0.318138 0.576265 0.240906
Si Si3 0.977850 0.081836 0.786861
Si Si4 0.911104 0.336579 0.990017
Si Si5 0.470987 0.583403 0.666360
Si Si6 0.310413 0.830880 0.758605
Si Si7 0.860003 0.092662 0.325317
Si Si8 0.340378 0.060058 0.913496
O O1 0.202468 0.386175 0.619087
O O2 0.327026 0.386250 0.472503
O O3 0.179809 0.338980 0.395280
O O4 0.184951 0.475544 0.444570
O O5 0.417794 0.598298 0.275902
O O6 0.323128 0.488087 0.213625
O O7 0.243117 0.589017 0.337372
O O8 0.929355 0.145390 0.857610
O O9 0.927736 0.066830 0.666678
O O10 0.970247 0.004065 0.854714
O O11 0.895214 0.250000 0.010126
O O12 0.994082 0.367894 0.061623
O O13 0.372876 0.608652 0.700628
O O14 0.541729 0.597740 0.769902
O O15 0.337675 0.750000 0.720306
O O16 0.208522 0.847843 0.724948
O O17 0.857578 0.096629 0.463021
#
# Coordination Sequence:
#
# PCOD9466012 Si02
#       8
#     8   8   8   8   8   8   8   8
#     4  11  21  39  66  89 126 165 208 257 312 379
#     4  10  21  38  66  97 121 161 211 261 316 371
#     4  11  23  41  68  97 125 168 213 267 315 374
#     4  12  25  43  65  94 132 170 210 263 321 380
#     4  11  23  41  63  97 125 166 214 263 314 374
#     4  12  24  40  62  91 128 170 210 258 321 381
#     4  10  23  38  63  92 129 158 203 268 320 368
#     4  11  21  40  65  98 126 156 213 269 314 374
#
# _framework density 20.244795
#
# number of rings (size 3 to 8) (size 9 to 14) (size 15 to 20)
#    0.000    1.000    5.000    1.875    5.250    2.000 
#    0.000    1.875    0.000    0.000    0.000    0.000 
#    0.000    0.000    0.000    0.000    0.000    0.000 
#
# Total GULP energy -357504.826897 kJ/mol
# GULP energy per Si atom -5586.012920 kJ/mol
# Density = 2.019872 g / cm^3
# Si number density = 20.244795 Si / 1000 Ang^3
#
#
#
# Elastic Constant Matrix: (Units=GPa)
#
#
# Indices 1 2 3 4 5 6 
#
# 1 60.6339 -1.8220 -5.0813 0.0000 0.0000 0.0000
# 2 -1.8220 31.9551 14.2315 0.0000 0.0000 0.0000
# 3 -5.0813 14.2315 89.5929 0.0000 0.0000 0.0000
# 4 0.0000 0.0000 0.0000 17.4285 0.0000 0.0000
# 5 0.0000 0.0000 0.0000 0.0000 27.8898 0.0000
# 6 0.0000 0.0000 0.0000 0.0000 0.0000 5.6675
#
#
#
# Elastic Compliance Matrix: (Units=1/GPa)
#
#
# Indices 1 2 3 4 5 6 
#
# 1 0.016581 0.000567 0.000850 0.000000 0.000000 0.000000
# 2 0.000567 0.033696 -0.005320 0.000000 0.000000 0.000000
# 3 0.000850 -0.005320 0.012055 0.000000 0.000000 0.000000
# 4 0.000000 0.000000 0.000000 0.057377 0.000000 0.000000
# 5 0.000000 0.000000 0.000000 0.000000 0.035855 0.000000
# 6 0.000000 0.000000 0.000000 0.000000 0.000000 0.176446
#
#
# Mechanical properties :
#
#
# Convention : Reuss Voigt Hill
#
# Bulk Modulus (GPa) = 18.34027 21.87091 20.10559
# Shear Modulus (GPa) = 13.96683 21.85408 17.91046
#
# Velocity S-wave (km/s) = 2.62944 3.28913 2.97761
# Velocity P-wave (km/s) = 4.27756 5.02505 4.66630
#
# Compressibility (1/GPa) = 0.05452483
#
# Stress axis : x y z
#
# Youngs Moduli (GPa) = 60.31101 29.67743 82.95358
#
# Poissons Ratio (x) = -0.01682 -0.07054
# Poissons Ratio (y) = -0.03418 0.44134
# Poissons Ratio (z) = -0.05129 0.15789
#
# Static dielectric constant tensor:
#      x y z
#    x 1.716120 0.000000 0.000000 
#    y 0.000000 1.701420 0.000000 
#    z 0.000000 0.000000 1.746890 
# 
# From -- ./inp_files/13622.got.cif
#   From: 2010.05.17/outbox.cif.g08.bks.cpg/sg62_7_cif.got.tgz:13622.got - 2010.06.03 15:25:27.
