data_PCOD9466074
_publ_section_title
;
Structure prediction by ZEFSAII (Michael W. Deem and Ramdas Pophale) SiO2 
 PCOD9466074
Probable space group: P N M A
;
_chemical_formula_sum "Si O2"
_cell_formula_units_Z 48
_cell_length_a 8.076412
_cell_length_b 17.133146
_cell_length_c 14.352758
_cell_angle_alpha 90.000000
_cell_angle_beta 90.000000
_cell_angle_gamma 90.000000
_cell_volume 1986.053501
_symmetry_space_group_name_H-M "P N M A"
_symmetry_group_IT_number 62
_symmetry_cell_setting 'orthorhombic'
loop_
_space_group_symop_operation_xyz
x,y,z
1/2-x,-y,1/2+z
1/2+x,1/2-y,1/2-z
-x,1/2+y,-z
-x,-y,-z
1/2+x,y,1/2-z
1/2-x,1/2+y,1/2+z
x,1/2-y,z
loop_
_atom_site_type_symbol
_atom_site_label
_atom_site_fract_x
_atom_site_fract_y
_atom_site_fract_z
Si Si1 0.760322 0.912072 0.375195
Si Si2 0.403563 0.416438 0.125454
Si Si3 0.587256 0.658849 0.540939
Si Si4 0.404277 0.841906 0.726583
Si Si5 0.445109 0.161249 0.768804
Si Si6 0.220937 0.660852 0.456707
O O1 0.712001 0.892595 0.480962
O O2 0.596121 0.899469 0.312266
O O3 0.890310 0.852474 0.329046
O O4 0.840350 0.996245 0.363697
O O5 0.566138 0.394436 0.182800
O O6 0.265739 0.360927 0.174026
O O7 0.395968 0.395004 0.016967
O O8 0.636804 0.750000 0.535921
O O9 0.544796 0.640392 0.648066
O O10 0.408816 0.650761 0.489781
O O11 0.410755 0.750000 0.749108
O O12 0.444018 0.250000 0.732019
O O13 0.302930 0.151054 0.847319
O O14 0.172772 0.750000 0.478720
#
# Coordination Sequence:
#
# PCOD9466074 Si02
#       6
#     8   8   8   8   8   8
#     4  12  24  37  58  88 120 151 189 242 296 341
#     4  11  23  38  59  89 122 151 186 239 297 343
#     4   9  19  37  59  82 110 150 197 238 281 339
#     4  10  21  39  62  85 114 155 198 235 279 344
#     4  11  23  39  59  82 113 156 201 238 279 341
#     4   9  20  39  61  83 111 151 195 237 284 341
#
# _framework density 24.168533
#
# number of rings (size 3 to 8) (size 9 to 14) (size 15 to 20)
#    0.000    1.667    0.000    6.000    0.000    7.333 
#    0.000    1.667    0.000    0.000    0.000    0.000 
#    0.000    0.000    0.000    0.000    0.000    0.000 
#
# Total GULP energy -268721.764577 kJ/mol
# GULP energy per Si atom -5598.370095 kJ/mol
# Density = 2.411352 g / cm^3
# Si number density = 24.168533 Si / 1000 Ang^3
#
#
#
# Elastic Constant Matrix: (Units=GPa)
#
#
# Indices 1 2 3 4 5 6 
#
# 1 43.4868 -7.0228 -5.9530 0.0000 0.0000 0.0000
# 2 -7.0228 35.7048 19.8838 0.0000 0.0000 0.0000
# 3 -5.9530 19.8838 84.4596 0.0000 0.0000 0.0000
# 4 0.0000 0.0000 0.0000 14.8166 0.0000 0.0000
# 5 0.0000 0.0000 0.0000 0.0000 36.3862 0.0000
# 6 0.0000 0.0000 0.0000 0.0000 0.0000 22.7835
#
#
#
# Elastic Compliance Matrix: (Units=1/GPa)
#
#
# Indices 1 2 3 4 5 6 
#
# 1 0.023782 0.004309 0.000662 0.000000 0.000000 0.000000
# 2 0.004309 0.033014 -0.007469 0.000000 0.000000 0.000000
# 3 0.000662 -0.007469 0.013645 0.000000 0.000000 0.000000
# 4 0.000000 0.000000 0.000000 0.067492 0.000000 0.000000
# 5 0.000000 0.000000 0.000000 0.000000 0.027483 0.000000
# 6 0.000000 0.000000 0.000000 0.000000 0.000000 0.043891
#
#
# Mechanical properties :
#
#
# Convention : Reuss Voigt Hill
#
# Bulk Modulus (GPa) = 15.27985 19.71860 17.49922
# Shear Modulus (GPa) = 21.17585 25.24681 23.21133
#
# Velocity S-wave (km/s) = 2.96324 3.23556 3.10239
# Velocity P-wave (km/s) = 4.24778 4.70478 4.48211
#
# Compressibility (1/GPa) = 0.06544568
#
# Stress axis : x y z
#
# Youngs Moduli (GPa) = 42.04864 30.28994 73.28738
#
# Poissons Ratio (x) = -0.13052 -0.04850
# Poissons Ratio (y) = -0.18119 0.54736
# Poissons Ratio (z) = -0.02783 0.22622
#
# Static dielectric constant tensor:
#      x y z
#    x 2.029980 0.000000 0.000000 
#    y 0.000000 1.845400 0.000000 
#    z 0.000000 0.000000 1.943240 
# 
# From -- ./inp_files/16953.got.cif
#   From: 2010.05.17/outbox.cif.g08.bks.cpg/sg62_9_cif.got.tgz:16953.got - 2010.06.03 15:25:27.
