data_PCOD9466657
_publ_section_title
;
Structure prediction by ZEFSAII (Michael W. Deem and Ramdas Pophale) SiO2 
 PCOD9466657
Probable space group: P N M A
;
_chemical_formula_sum "Si O2"
_cell_formula_units_Z 48
_cell_length_a 12.549901
_cell_length_b 9.360722
_cell_length_c 18.592494
_cell_angle_alpha 90.000000
_cell_angle_beta 90.000000
_cell_angle_gamma 90.000000
_cell_volume 2184.174324
_symmetry_space_group_name_H-M "P N M A"
_symmetry_group_IT_number 62
_symmetry_cell_setting 'orthorhombic'
loop_
_space_group_symop_operation_xyz
x,y,z
1/2-x,-y,1/2+z
1/2+x,1/2-y,1/2-z
-x,1/2+y,-z
-x,-y,-z
1/2+x,y,1/2-z
1/2-x,1/2+y,1/2+z
x,1/2-y,z
loop_
_atom_site_type_symbol
_atom_site_label
_atom_site_fract_x
_atom_site_fract_y
_atom_site_fract_z
Si Si1 0.704361 0.916880 0.399609
Si Si2 0.810865 0.088503 0.178793
Si Si3 0.076344 0.510435 0.678521
Si Si4 0.374445 0.406753 0.753260
Si Si5 0.571439 0.088937 0.054300
Si Si6 0.292634 0.921826 0.453802
O O1 0.700263 0.750000 0.420394
O O2 0.626368 0.938627 0.331625
O O3 0.822176 0.951514 0.366155
O O4 0.678305 0.016440 0.467610
O O5 0.795213 0.250000 0.152268
O O6 0.881798 0.088679 0.250512
O O7 0.700864 0.021387 0.208588
O O8 0.854647 0.989021 0.114387
O O9 0.990043 0.402153 0.711515
O O10 0.002347 0.597496 0.624398
O O11 0.322401 0.250000 0.761731
O O12 0.596498 0.250000 0.029904
O O13 0.676604 0.992888 0.059972
O O14 0.500000 0.000000 0.000000
O O15 0.291253 0.750000 0.452954
#
# Coordination Sequence:
#
# PCOD9466657 Si02
#       6
#     8   8   8   8   8   8
#     4  10  22  40  64  93 129 168 208 261 318 377
#     4  11  24  41  63  92 128 168 214 263 316 379
#     4  11  23  39  67  96 130 165 211 258 317 379
#     4  10  22  40  64  95 129 166 210 260 318 380
#     4  12  24  38  61  94 128 163 205 257 320 380
#     4  12  25  41  62  90 127 168 213 263 318 376
#
# _framework density 21.976268000000001
#
# number of rings (size 3 to 8) (size 9 to 14) (size 15 to 20)
#    0.000    1.000    3.333    3.500    0.000    6.667 
#    0.000    0.833    0.000    0.000    0.000    0.000 
#    0.000    0.000    0.000    0.000    0.000    0.000 
#
# Total GULP energy -267902.313193 kJ/mol
# GULP energy per Si atom -5581.298192 kJ/mol
# Density = 2.192625 g / cm^3
# Si number density = 21.976268 Si / 1000 Ang^3
#
#
#
# Elastic Constant Matrix: (Units=GPa)
#
#
# Indices 1 2 3 4 5 6 
#
# 1 15.5846 0.0259 7.1781 0.0000 0.0000 0.0000
# 2 0.0259 189.9035 72.7873 0.0000 0.0000 0.0000
# 3 7.1781 72.7873 155.5520 0.0000 0.0000 0.0000
# 4 0.0000 0.0000 0.0000 16.3006 0.0000 0.0000
# 5 0.0000 0.0000 0.0000 0.0000 44.7942 0.0000
# 6 0.0000 0.0000 0.0000 0.0000 0.0000 12.3042
#
#
#
# Elastic Compliance Matrix: (Units=1/GPa)
#
#
# Indices 1 2 3 4 5 6 
#
# 1 0.065867 0.001409 -0.003699 0.000000 0.000000 0.000000
# 2 0.001409 0.006447 -0.003082 0.000000 0.000000 0.000000
# 3 -0.003699 -0.003082 0.008041 0.000000 0.000000 0.000000
# 4 0.000000 0.000000 0.000000 0.061348 0.000000 0.000000
# 5 0.000000 0.000000 0.000000 0.000000 0.022324 0.000000
# 6 0.000000 0.000000 0.000000 0.000000 0.000000 0.081273
#
#
# Mechanical properties :
#
#
# Convention : Reuss Voigt Hill
#
# Bulk Modulus (GPa) = 14.36532 57.89140 36.12836
# Shear Modulus (GPa) = 17.90526 33.41639 25.66082
#
# Velocity S-wave (km/s) = 2.85749 3.90368 3.42081
# Velocity P-wave (km/s) = 4.17587 6.83507 5.66375
#
# Compressibility (1/GPa) = 0.06961211
#
# Stress axis : x y z
#
# Youngs Moduli (GPa) = 15.18206 155.11592 124.35658
#
# Poissons Ratio (x) = -0.21851 0.45996
# Poissons Ratio (y) = -0.02139 0.38322
# Poissons Ratio (z) = 0.05615 0.47801
#
# Static dielectric constant tensor:
#      x y z
#    x 1.867610 0.000000 0.000000 
#    y 0.000000 1.859090 0.000000 
#    z 0.000000 0.000000 1.923740 
# 
# From -- ./inp_files/23737.got.cif
#   From: 2010.05.17/outbox.cif.g08.bks.cpg/sg62_12_cif.got.tgz:23737.got - 2010.06.03 15:25:27.
