data_PCOD9466712
_publ_section_title
;
Structure prediction by ZEFSAII (Michael W. Deem and Ramdas Pophale) SiO2 
 PCOD9466712
Probable space group: P N M A
;
_chemical_formula_sum "Si O2"
_cell_formula_units_Z 48
_cell_length_a 9.739785
_cell_length_b 7.665302
_cell_length_c 32.473794
_cell_angle_alpha 90.000000
_cell_angle_beta 90.000000
_cell_angle_gamma 90.000000
_cell_volume 2424.441289
_symmetry_space_group_name_H-M "P N M A"
_symmetry_group_IT_number 62
_symmetry_cell_setting 'orthorhombic'
loop_
_space_group_symop_operation_xyz
x,y,z
1/2-x,-y,1/2+z
1/2+x,1/2-y,1/2-z
-x,1/2+y,-z
-x,-y,-z
1/2+x,y,1/2-z
1/2-x,1/2+y,1/2+z
x,1/2-y,z
loop_
_atom_site_type_symbol
_atom_site_label
_atom_site_fract_x
_atom_site_fract_y
_atom_site_fract_z
Si Si1 0.133105 0.959086 0.674006
Si Si2 0.253402 0.750000 0.234094
Si Si3 0.534811 0.053495 0.953936
Si Si4 0.434899 0.462470 0.369436
Si Si5 0.124019 0.449527 0.374978
Si Si6 0.298421 0.544590 0.588687
Si Si7 0.964387 0.750000 0.198091
O O1 0.130995 0.750000 0.683242
O O2 0.983081 0.022955 0.658375
O O3 0.229068 0.982054 0.633630
O O4 0.190109 0.079398 0.710016
O O5 0.089491 0.750000 0.230338
O O6 0.319442 0.750000 0.278879
O O7 0.488800 0.250000 0.947531
O O8 0.454214 0.949915 0.918625
O O9 0.696739 0.041280 0.943953
O O10 0.500000 0.000000 0.000000
O O11 0.445573 0.250000 0.363321
O O12 0.278307 0.516612 0.378749
O O13 0.543823 0.507887 0.405341
O O14 0.475983 0.577288 0.329993
O O15 0.141434 0.250000 0.361814
O O16 0.293829 0.750000 0.579803
#
# Coordination Sequence:
#
# PCOD9466712 Si02
#       7
#     8   4   8   8   8   8   4
#     4   9  19  37  61  83 112 153 201 243 297 361
#     4  12  26  40  58  88 120 158 200 260 312 352
#     4  11  22  35  58  90 124 157 193 243 300 356
#     4  10  22  41  63  87 118 158 204 253 299 361
#     4   9  20  37  60  88 115 152 201 249 293 353
#     4   9  18  36  61  84 110 153 200 246 293 357
#     4  12  28  40  60  88 126 154 210 256 308 364
#
# _framework density 19.798376999999999
#
# number of rings (size 3 to 8) (size 9 to 14) (size 15 to 20)
#    0.000    2.000    1.667    2.500    9.333    0.667 
#    0.000    0.833    0.000    0.000    0.000    0.000 
#    0.000    0.000    0.000    0.000    0.000    0.000 
#
# Total GULP energy -267624.714374 kJ/mol
# GULP energy per Si atom -5575.514883 kJ/mol
# Density = 1.975331 g / cm^3
# Si number density = 19.798377 Si / 1000 Ang^3
#
#
#
# Elastic Constant Matrix: (Units=GPa)
#
#
# Indices 1 2 3 4 5 6 
#
# 1 123.2494 4.7796 -5.4644 0.0000 0.0000 0.0000
# 2 4.7796 48.6317 -2.2767 0.0000 0.0000 0.0000
# 3 -5.4644 -2.2767 20.5626 0.0000 0.0000 0.0000
# 4 0.0000 0.0000 0.0000 18.6565 0.0000 0.0000
# 5 0.0000 0.0000 0.0000 0.0000 16.9557 0.0000
# 6 0.0000 0.0000 0.0000 0.0000 0.0000 18.4114
#
#
#
# Elastic Compliance Matrix: (Units=1/GPa)
#
#
# Indices 1 2 3 4 5 6 
#
# 1 0.008235 -0.000711 0.002110 0.000000 0.000000 0.000000
# 2 -0.000711 0.020731 0.002107 0.000000 0.000000 0.000000
# 3 0.002110 0.002107 0.049426 0.000000 0.000000 0.000000
# 4 0.000000 0.000000 0.000000 0.053601 0.000000 0.000000
# 5 0.000000 0.000000 0.000000 0.000000 0.058977 0.000000
# 6 0.000000 0.000000 0.000000 0.000000 0.000000 0.054314
#
#
# Mechanical properties :
#
#
# Convention : Reuss Voigt Hill
#
# Bulk Modulus (GPa) = 11.70919 20.72452 16.21686
# Shear Modulus (GPa) = 18.74483 23.83173 21.28828
#
# Velocity S-wave (km/s) = 3.08033 3.47323 3.28266
# Velocity P-wave (km/s) = 4.31025 5.15509 4.75149
#
# Compressibility (1/GPa) = 0.08540299
#
# Stress axis : x y z
#
# Youngs Moduli (GPa) = 121.43705 48.23650 20.23233
#
# Poissons Ratio (x) = 0.03427 -0.04268
# Poissons Ratio (y) = 0.08629 -0.04262
# Poissons Ratio (z) = -0.25619 -0.10161
#
# Static dielectric constant tensor:
#      x y z
#    x 1.750830 0.000000 0.000000 
#    y 0.000000 1.693410 0.000000 
#    z 0.000000 0.000000 1.599880 
# 
# From -- ./inp_files/32104.got.cif
#   From: 2010.05.17/outbox.cif.g08.bks.cpg/sg62_17_cif.got.tgz:32104.got - 2010.06.03 15:25:27.
