data_PCOD9466001
_publ_section_title
;
Structure prediction by ZEFSAII (Michael W. Deem and Ramdas Pophale) SiO2 
 PCOD9466001
Probable space group: P N M A
;
_chemical_formula_sum "Si O2"
_cell_formula_units_Z 36
_cell_length_a 5.212512
_cell_length_b 11.176733
_cell_length_c 23.659326
_cell_angle_alpha 90.000000
_cell_angle_beta 90.000000
_cell_angle_gamma 90.000000
_cell_volume 1378.365240
_symmetry_space_group_name_H-M "P N M A"
_symmetry_group_IT_number 62
_symmetry_cell_setting 'orthorhombic'
loop_
_space_group_symop_operation_xyz
x,y,z
1/2-x,-y,1/2+z
1/2+x,1/2-y,1/2-z
-x,1/2+y,-z
-x,-y,-z
1/2+x,y,1/2-z
1/2-x,1/2+y,1/2+z
x,1/2-y,z
loop_
_atom_site_type_symbol
_atom_site_label
_atom_site_fract_x
_atom_site_fract_y
_atom_site_fract_z
Si Si1 0.120418 0.879650 0.872617
Si Si2 0.154511 0.121325 0.497056
Si Si3 0.316858 0.117355 0.622809
Si Si4 0.074198 0.250000 0.288558
Si Si5 0.447704 0.392688 0.782736
O O1 0.979666 0.750000 0.865111
O O2 0.363895 0.860328 0.830912
O O3 0.196933 0.882465 0.938153
O O4 0.971296 0.999988 0.860375
O O5 0.009103 0.250000 0.497180
O O6 0.312176 0.120896 0.555147
O O7 0.000000 0.000000 0.500000
O O8 0.412231 0.250000 0.641756
O O9 0.036639 0.102235 0.651549
O O10 0.806365 0.250000 0.256924
O O11 0.690735 0.439948 0.746733
O O12 0.426921 0.250000 0.773498
#
# Coordination Sequence:
#
# PCOD9466001 Si02
#       5
#     8   8   8   4   8
#     4   9  22  42  63  96 137 181 241 296 362 423
#     4  10  22  40  63  98 140 184 240 294 368 433
#     4  10  21  38  64  97 133 181 239 292 363 436
#     4  10  24  46  74 104 142 196 254 302 360 434
#     4   9  19  36  58  88 129 173 217 275 339 407
#
# _framework density 26.117899000000001
#
# number of rings (size 3 to 8) (size 9 to 14) (size 15 to 20)
#    0.667    1.778    0.000    0.667    0.000    7.111 
#    0.000    4.444    0.000    0.000    0.000    0.000 
#    0.000    0.000    0.000    0.000    0.000    0.000 
#
# Total GULP energy -201167.402378 kJ/mol
# GULP energy per Si atom -5587.983399 kJ/mol
# Density = 2.605845 g / cm^3
# Si number density = 26.117899 Si / 1000 Ang^3
#
#
#
# Elastic Constant Matrix: (Units=GPa)
#
#
# Indices 1 2 3 4 5 6 
#
# 1 88.3544 36.4919 36.3144 0.0000 0.0000 0.0000
# 2 36.4919 236.2352 6.1570 0.0000 0.0000 0.0000
# 3 36.3144 6.1570 200.2186 0.0000 0.0000 0.0000
# 4 0.0000 0.0000 0.0000 16.9874 0.0000 0.0000
# 5 0.0000 0.0000 0.0000 0.0000 30.6048 0.0000
# 6 0.0000 0.0000 0.0000 0.0000 0.0000 36.6135
#
#
#
# Elastic Compliance Matrix: (Units=1/GPa)
#
#
# Indices 1 2 3 4 5 6 
#
# 1 0.013078 -0.001960 -0.002312 0.000000 0.000000 0.000000
# 2 -0.001960 0.004530 0.000216 0.000000 0.000000 0.000000
# 3 -0.002312 0.000216 0.005407 0.000000 0.000000 0.000000
# 4 0.000000 0.000000 0.000000 0.058867 0.000000 0.000000
# 5 0.000000 0.000000 0.000000 0.000000 0.032675 0.000000
# 6 0.000000 0.000000 0.000000 0.000000 0.000000 0.027312
#
#
# Mechanical properties :
#
#
# Convention : Reuss Voigt Hill
#
# Bulk Modulus (GPa) = 67.09517 75.85940 71.47729
# Shear Modulus (GPa) = 32.26886 46.56411 39.41649
#
# Velocity S-wave (km/s) = 3.51879 4.22695 3.88903
# Velocity P-wave (km/s) = 6.50033 7.27536 6.89874
#
# Compressibility (1/GPa) = 0.01490420
#
# Stress axis : x y z
#
# Youngs Moduli (GPa) = 76.46643 220.74152 184.93964
#
# Poissons Ratio (x) = 0.43263 0.42752
# Poissons Ratio (y) = 0.14987 -0.03998
# Poissons Ratio (z) = 0.17677 -0.04772
#
# Static dielectric constant tensor:
#      x y z
#    x 2.106080 0.000000 0.000000 
#    y 0.000000 2.064660 0.000000 
#    z 0.000000 0.000000 2.082960 
# 
# From -- ./inp_files/28158.got.cif
#   From: 2010.05.17/outbox.cif.g08.bks.cpg/sg62_15_cif.got.tgz:28158.got - 2010.06.03 15:25:27.
