data_PCOD9466777
_publ_section_title
;
Structure prediction by ZEFSAII (Michael W. Deem and Ramdas Pophale) SiO2 
 PCOD9466777
Probable space group: P N M A
;
_chemical_formula_sum "Si O2"
_cell_formula_units_Z 60
_cell_length_a 8.527220
_cell_length_b 30.790980
_cell_length_c 10.568927
_cell_angle_alpha 90.000000
_cell_angle_beta 90.000000
_cell_angle_gamma 90.000000
_cell_volume 2774.992909
_symmetry_space_group_name_H-M "P N M A"
_symmetry_group_IT_number 62
_symmetry_cell_setting 'orthorhombic'
loop_
_space_group_symop_operation_xyz
x,y,z
1/2-x,-y,1/2+z
1/2+x,1/2-y,1/2-z
-x,1/2+y,-z
-x,-y,-z
1/2+x,y,1/2-z
1/2-x,1/2+y,1/2+z
x,1/2-y,z
loop_
_atom_site_type_symbol
_atom_site_label
_atom_site_fract_x
_atom_site_fract_y
_atom_site_fract_z
Si Si1 0.412796 0.164565 0.769717
Si Si2 0.670513 0.899752 0.651266
Si Si3 0.852312 0.700655 0.065749
Si Si4 0.807982 0.182697 0.318096
Si Si5 0.086756 0.250000 0.328961
Si Si6 0.105284 0.487538 0.618374
Si Si7 0.398665 0.539061 0.688496
Si Si8 0.817019 0.613190 0.388428
O O1 0.295730 0.197224 0.839546
O O2 0.501691 0.184368 0.648441
O O3 0.307645 0.125051 0.719595
O O4 0.540324 0.145989 0.865680
O O5 0.640843 0.862140 0.753595
O O6 0.798128 0.932759 0.710787
O O7 0.514224 0.927102 0.621069
O O8 0.740131 0.880172 0.524177
O O9 0.880901 0.750000 0.023960
O O10 0.805265 0.675010 0.939273
O O11 0.954928 0.211864 0.360245
O O12 0.712138 0.212071 0.218325
O O13 0.270904 0.512675 0.609184
O O14 0.131160 0.436377 0.623463
O O15 0.000000 0.500000 0.500000
O O16 0.011551 0.505381 0.739564
#
# Coordination Sequence:
#
# PCOD9466777 Si02
#       8
#     8   8   8   8   4   8   8   8
#     4  10  26  43  66  96 127 183 223 276 327 398
#     4  11  24  40  66 101 128 174 214 283 337 401
#     4  11  23  46  68  95 134 174 226 276 331 399
#     4  11  24  39  68  96 137 166 220 273 344 394
#     4  10  22  42  58 100 124 176 212 262 344 396
#     4  11  22  45  67  95 130 176 215 274 329 402
#     4  10  24  42  65  98 132 167 224 265 345 392
#     4  11  24  45  65  94 134 171 231 269 335 396
#
# _framework density 21.621676000000001
#
# number of rings (size 3 to 8) (size 9 to 14) (size 15 to 20)
#    0.000    1.333    2.667    2.000    7.467    0.533 
#    4.800    0.000    0.000    0.000    0.000    0.000 
#    0.000    0.000    0.000    0.000    0.000    0.000 
#
# Total GULP energy -334501.240658 kJ/mol
# GULP energy per Si atom -5575.020678 kJ/mol
# Density = 2.157246 g / cm^3
# Si number density = 21.621676 Si / 1000 Ang^3
#
#
#
# Elastic Constant Matrix: (Units=GPa)
#
#
# Indices 1 2 3 4 5 6 
#
# 1 78.2684 16.7903 0.6735 0.0000 0.0000 0.0000
# 2 16.7903 84.7865 19.6958 0.0000 0.0000 0.0000
# 3 0.6735 19.6958 35.5825 0.0000 0.0000 0.0000
# 4 0.0000 0.0000 0.0000 15.4606 0.0000 0.0000
# 5 0.0000 0.0000 0.0000 0.0000 22.0282 0.0000
# 6 0.0000 0.0000 0.0000 0.0000 0.0000 11.9262
#
#
#
# Elastic Compliance Matrix: (Units=1/GPa)
#
#
# Indices 1 2 3 4 5 6 
#
# 1 0.013403 -0.002978 0.001395 0.000000 0.000000 0.000000
# 2 -0.002978 0.014196 -0.007802 0.000000 0.000000 0.000000
# 3 0.001395 -0.007802 0.032396 0.000000 0.000000 0.000000
# 4 0.000000 0.000000 0.000000 0.064681 0.000000 0.000000
# 5 0.000000 0.000000 0.000000 0.000000 0.045396 0.000000
# 6 0.000000 0.000000 0.000000 0.000000 0.000000 0.083849
#
#
# Mechanical properties :
#
#
# Convention : Reuss Voigt Hill
#
# Bulk Modulus (GPa) = 24.25693 30.32852 27.29273
# Shear Modulus (GPa) = 17.45604 20.64818 19.05211
#
# Velocity S-wave (km/s) = 2.84446 3.09362 2.97165
# Velocity P-wave (km/s) = 4.69373 5.17861 4.94212
#
# Compressibility (1/GPa) = 0.04122533
#
# Stress axis : x y z
#
# Youngs Moduli (GPa) = 74.60757 70.44005 30.86825
#
# Poissons Ratio (x) = 0.20979 -0.04306
# Poissons Ratio (y) = 0.22221 0.24083
# Poissons Ratio (z) = -0.10407 0.54955
#
# Static dielectric constant tensor:
#      x y z
#    x 1.798480 0.000000 0.000000 
#    y 0.000000 1.758260 0.000000 
#    z 0.000000 0.000000 1.790050 
# 
# From -- ./inp_files/11525.got.cif
#   From: 2010.05.17/outbox.cif.g08.bks.cpg/sg62_6_cif.got.tgz:11525.got - 2010.06.03 15:25:27.
