data_PCOD9466220
_publ_section_title
;
Structure prediction by ZEFSAII (Michael W. Deem and Ramdas Pophale) SiO2 
 PCOD9466220
Probable space group: P N M A
;
_chemical_formula_sum "Si O2"
_cell_formula_units_Z 48
_cell_length_a 26.788662
_cell_length_b 15.164138
_cell_length_c 5.109169
_cell_angle_alpha 90.000000
_cell_angle_beta 90.000000
_cell_angle_gamma 90.000000
_cell_volume 2075.482229
_symmetry_space_group_name_H-M "P N M A"
_symmetry_group_IT_number 62
_symmetry_cell_setting 'orthorhombic'
loop_
_space_group_symop_operation_xyz
x,y,z
1/2-x,-y,1/2+z
1/2+x,1/2-y,1/2-z
-x,1/2+y,-z
-x,-y,-z
1/2+x,y,1/2-z
1/2-x,1/2+y,1/2+z
x,1/2-y,z
loop_
_atom_site_type_symbol
_atom_site_label
_atom_site_fract_x
_atom_site_fract_y
_atom_site_fract_z
Si Si1 0.059117 0.349474 0.113414
Si Si2 0.998042 0.399671 0.604400
Si Si3 0.869587 0.001106 0.020488
Si Si4 0.817214 0.346248 0.691283
Si Si5 0.769855 0.953933 0.273111
Si Si6 0.094566 0.653078 0.672952
O O1 0.075593 0.250000 0.050219
O O2 0.021187 0.382646 0.887407
O O3 0.031227 0.349706 0.389242
O O4 0.103147 0.421183 0.120797
O O5 0.000000 0.500000 0.500000
O O6 0.942020 0.362603 0.572421
O O7 0.840378 0.070897 0.841559
O O8 0.828457 0.960541 0.217783
O O9 0.909812 0.065108 0.157603
O O10 0.826898 0.250000 0.810350
O O11 0.758436 0.365137 0.685463
O O12 0.847759 0.346213 0.420652
O O13 0.743990 0.024086 0.072066
O O14 0.082599 0.750000 0.784461
#
# Coordination Sequence:
#
# PCOD9466220 Si02
#       6
#     8   8   8   8   8   8
#     4  12  27  45  67  99 140 178 227 275 328 400
#     4  12  25  46  68  97 131 182 224 279 335 394
#     4  11  23  40  67  92 134 174 222 264 342 387
#     4  10  22  40  64  98 131 169 220 277 328 391
#     4  10  21  40  63  90 125 169 211 266 327 389
#     4  11  22  38  64  95 128 170 221 276 330 389
#
# _framework density 23.127154000000001
#
# number of rings (size 3 to 8) (size 9 to 14) (size 15 to 20)
#    0.000    1.000    3.333    3.500    2.333    0.667 
#    0.000    0.000    0.000    1.000    0.000    0.000 
#    0.000    0.000    0.000    0.000    0.000    0.000 
#
# Total GULP energy -268205.308760 kJ/mol
# GULP energy per Si atom -5587.610599 kJ/mol
# Density = 2.307452 g / cm^3
# Si number density = 23.127154 Si / 1000 Ang^3
#
#
#
# Elastic Constant Matrix: (Units=GPa)
#
#
# Indices 1 2 3 4 5 6 
#
# 1 78.1156 42.1381 15.2980 0.0000 0.0000 0.0000
# 2 42.1381 162.2635 -3.2368 0.0000 0.0000 0.0000
# 3 15.2980 -3.2368 46.7242 0.0000 0.0000 0.0000
# 4 0.0000 0.0000 0.0000 25.2958 0.0000 0.0000
# 5 0.0000 0.0000 0.0000 0.0000 33.6869 0.0000
# 6 0.0000 0.0000 0.0000 0.0000 0.0000 18.9489
#
#
#
# Elastic Compliance Matrix: (Units=1/GPa)
#
#
# Indices 1 2 3 4 5 6 
#
# 1 0.016236 -0.004328 -0.005616 0.000000 0.000000 0.000000
# 2 -0.004328 0.007325 0.001925 0.000000 0.000000 0.000000
# 3 -0.005616 0.001925 0.023374 0.000000 0.000000 0.000000
# 4 0.000000 0.000000 0.000000 0.039532 0.000000 0.000000
# 5 0.000000 0.000000 0.000000 0.000000 0.029685 0.000000
# 6 0.000000 0.000000 0.000000 0.000000 0.000000 0.052773
#
#
# Mechanical properties :
#
#
# Convention : Reuss Voigt Hill
#
# Bulk Modulus (GPa) = 32.36607 43.94465 38.15536
# Shear Modulus (GPa) = 25.60633 31.11327 28.35980
#
# Velocity S-wave (km/s) = 3.33107 3.67183 3.50559
# Velocity P-wave (km/s) = 5.36842 6.08433 5.73755
#
# Compressibility (1/GPa) = 0.03089655
#
# Stress axis : x y z
#
# Youngs Moduli (GPa) = 61.59077 136.51419 42.78230
#
# Poissons Ratio (x) = 0.59089 0.24025
# Poissons Ratio (y) = 0.26659 -0.08234
# Poissons Ratio (z) = 0.34588 -0.26274
#
# Static dielectric constant tensor:
#      x y z
#    x 1.911060 0.000000 0.000000 
#    y 0.000000 1.885800 0.000000 
#    z 0.000000 0.000000 1.910780 
# 
# From -- ./inp_files/3179.got.cif
#   From: 2010.05.17/outbox.cif.g08.bks.cpg/sg62_2_cif.got.tgz:3179.got - 2010.06.03 15:25:27.
