data_PCOD9466825
_publ_section_title
;
Structure prediction by ZEFSAII (Michael W. Deem and Ramdas Pophale) SiO2 
 PCOD9466825
Probable space group: P N M A
;
_chemical_formula_sum "Si O2"
_cell_formula_units_Z 40
_cell_length_a 13.709552
_cell_length_b 13.612398
_cell_length_c 8.858672
_cell_angle_alpha 90.000000
_cell_angle_beta 90.000000
_cell_angle_gamma 90.000000
_cell_volume 1653.204290
_symmetry_space_group_name_H-M "P N M A"
_symmetry_group_IT_number 62
_symmetry_cell_setting 'orthorhombic'
loop_
_space_group_symop_operation_xyz
x,y,z
1/2-x,-y,1/2+z
1/2+x,1/2-y,1/2-z
-x,1/2+y,-z
-x,-y,-z
1/2+x,y,1/2-z
1/2-x,1/2+y,1/2+z
x,1/2-y,z
loop_
_atom_site_type_symbol
_atom_site_label
_atom_site_fract_x
_atom_site_fract_y
_atom_site_fract_z
Si Si1 0.280243 0.137624 0.017361
Si Si2 0.699034 0.523306 0.670995
Si Si3 0.980085 0.084789 0.622684
Si Si4 0.601016 0.635794 0.423253
Si Si5 0.317196 0.855532 0.024836
O O1 0.252875 0.250000 0.058416
O O2 0.386153 0.142211 0.938267
O O3 0.202486 0.083892 0.906674
O O4 0.297240 0.062242 0.158583
O O5 0.613653 0.585245 0.586543
O O6 0.955477 0.427208 0.799324
O O7 0.084746 0.137190 0.616521
O O8 0.802147 0.935009 0.605121
O O9 0.000000 0.000000 0.500000
O O10 0.568820 0.750000 0.428388
O O11 0.717104 0.637435 0.379959
O O12 0.313356 0.750000 0.947671
#
# Coordination Sequence:
#
# PCOD9466825 Si02
#       5
#     8   8   8   8   8
#     4  12  24  41  70 103 140 189 238 294 361 422
#     4  10  22  42  69  98 139 184 235 290 349 419
#     4  12  22  38  65 100 138 187 235 292 355 424
#     4   9  19  39  67  98 136 183 231 286 349 411
#     4   9  19  37  65  95 133 183 234 280 345 421
#
# _framework density 24.195436000000001
#
# number of rings (size 3 to 8) (size 9 to 14) (size 15 to 20)
#    1.200    0.400    2.000    4.200    0.000    0.000 
#    0.000    2.000    4.400    0.000    0.000    0.000 
#    0.000    0.000    0.000    0.000    0.000    0.000 
#
# Total GULP energy -222706.065630 kJ/mol
# GULP energy per Si atom -5567.651641 kJ/mol
# Density = 2.414037 g / cm^3
# Si number density = 24.195436 Si / 1000 Ang^3
#
#
#
# Elastic Constant Matrix: (Units=GPa)
#
#
# Indices 1 2 3 4 5 6 
#
# 1 76.2953 12.9243 16.4672 0.0000 0.0000 0.0000
# 2 12.9243 138.3226 45.7192 0.0000 0.0000 0.0000
# 3 16.4672 45.7192 140.8777 0.0000 0.0000 0.0000
# 4 0.0000 0.0000 0.0000 10.3108 0.0000 0.0000
# 5 0.0000 0.0000 0.0000 0.0000 44.8987 0.0000
# 6 0.0000 0.0000 0.0000 0.0000 0.0000 26.4771
#
#
#
# Elastic Compliance Matrix: (Units=1/GPa)
#
#
# Indices 1 2 3 4 5 6 
#
# 1 0.013531 -0.000831 -0.001312 0.000000 0.000000 0.000000
# 2 -0.000831 0.008149 -0.002548 0.000000 0.000000 0.000000
# 3 -0.001312 -0.002548 0.008078 0.000000 0.000000 0.000000
# 4 0.000000 0.000000 0.000000 0.096985 0.000000 0.000000
# 5 0.000000 0.000000 0.000000 0.000000 0.022272 0.000000
# 6 0.000000 0.000000 0.000000 0.000000 0.000000 0.037768
#
#
# Mechanical properties :
#
#
# Convention : Reuss Voigt Hill
#
# Bulk Modulus (GPa) = 49.07246 56.19077 52.63161
# Shear Modulus (GPa) = 24.63566 35.02965 29.83265
#
# Velocity S-wave (km/s) = 3.19438 3.80910 3.51520
# Velocity P-wave (km/s) = 5.82504 6.52838 6.18671
#
# Compressibility (1/GPa) = 0.02037803
#
# Stress axis : x y z
#
# Youngs Moduli (GPa) = 73.90511 122.71267 123.78560
#
# Poissons Ratio (x) = 0.10192 0.16242
# Poissons Ratio (y) = 0.06139 0.31535
# Poissons Ratio (z) = 0.09697 0.31262
#
# Static dielectric constant tensor:
#      x y z
#    x 1.921180 0.000000 0.000000 
#    y 0.000000 2.050090 0.000000 
#    z 0.000000 0.000000 1.953470 
# 
# From -- ./inp_files/8534.got.cif
#   From: 2010.05.17/outbox.cif.g08.bks.cpg/sg62_5_cif.got.tgz:8534.got - 2010.06.03 15:25:27.
