data_PCOD9466379
_publ_section_title
;
Structure prediction by ZEFSAII (Michael W. Deem and Ramdas Pophale) SiO2 
 PCOD9466379
Probable space group: P N M A
;
_chemical_formula_sum "Si O2"
_cell_formula_units_Z 28
_cell_length_a 19.674262
_cell_length_b 5.253386
_cell_length_c 13.156310
_cell_angle_alpha 90.000000
_cell_angle_beta 90.000000
_cell_angle_gamma 90.000000
_cell_volume 1359.790057
_symmetry_space_group_name_H-M "P N M A"
_symmetry_group_IT_number 62
_symmetry_cell_setting 'orthorhombic'
loop_
_space_group_symop_operation_xyz
x,y,z
1/2-x,-y,1/2+z
1/2+x,1/2-y,1/2-z
-x,1/2+y,-z
-x,-y,-z
1/2+x,y,1/2-z
1/2-x,1/2+y,1/2+z
x,1/2-y,z
loop_
_atom_site_type_symbol
_atom_site_label
_atom_site_fract_x
_atom_site_fract_y
_atom_site_fract_z
Si Si1 0.491315 0.250000 0.430781
Si Si2 0.834206 0.250000 0.125616
Si Si3 0.463626 0.750000 0.124634
Si Si4 0.298641 0.250000 0.609064
Si Si5 0.172792 0.250000 0.746192
Si Si6 0.127690 0.250000 0.195441
Si Si7 0.555146 0.250000 0.109367
O O1 0.500000 0.500000 0.500000
O O2 0.416182 0.250000 0.384844
O O3 0.550976 0.250000 0.348316
O O4 0.813875 0.500737 0.186938
O O5 0.805156 0.250000 0.012061
O O6 0.404713 0.750000 0.207642
O O7 0.510486 0.500737 0.132095
O O8 0.431419 0.750000 0.011238
O O9 0.222265 0.250000 0.649900
O O10 0.335609 0.499833 0.653334
O O11 0.119895 0.250000 0.317029
#
# Coordination Sequence:
#
# PCOD9466379 Si02
#       7
#     4   4   4   4   4   4   4
#     4  12  21  38  68 100 130 167 204 280 340 380
#     4  12  25  46  67  97 132 170 220 275 332 391
#     4  10  21  42  62  98 123 168 213 266 319 385
#     4  12  27  44  63  94 133 171 221 263 317 398
#     4  12  26  43  68  90 132 180 219 260 325 398
#     4  12  22  42  65  99 132 167 214 273 334 391
#     4  10  22  39  69  92 130 159 213 273 323 377
#
# _framework density 20.591412999999999
#
# number of rings (size 3 to 8) (size 9 to 14) (size 15 to 20)
#    0.000    0.571    2.857    6.000    0.000    2.286 
#    0.000    0.000    0.000    0.000    0.000    0.000 
#    0.000    0.000    0.000    0.000    0.000    0.000 
#
# Total GULP energy -156805.337914 kJ/mol
# GULP energy per Si atom -5600.190640 kJ/mol
# Density = 2.054455 g / cm^3
# Si number density = 20.591413 Si / 1000 Ang^3
#
#
#
# Elastic Constant Matrix: (Units=GPa)
#
#
# Indices 1 2 3 4 5 6 
#
# 1 46.3180 18.0397 12.2823 0.0000 0.0000 0.0000
# 2 18.0397 194.0187 60.2325 0.0000 0.0000 0.0000
# 3 12.2823 60.2325 105.3112 0.0000 0.0000 0.0000
# 4 0.0000 0.0000 0.0000 22.0179 0.0000 0.0000
# 5 0.0000 0.0000 0.0000 0.0000 34.0637 0.0000
# 6 0.0000 0.0000 0.0000 0.0000 0.0000 214.1994
#
#
#
# Elastic Compliance Matrix: (Units=1/GPa)
#
#
# Indices 1 2 3 4 5 6 
#
# 1 0.022663 -0.001564 -0.001748 0.000000 0.000000 0.000000
# 2 -0.001564 0.006375 -0.003464 0.000000 0.000000 0.000000
# 3 -0.001748 -0.003464 0.011681 0.000000 0.000000 0.000000
# 4 0.000000 0.000000 0.000000 0.045418 0.000000 0.000000
# 5 0.000000 0.000000 0.000000 0.000000 0.029357 0.000000
# 6 0.000000 0.000000 0.000000 0.000000 0.000000 0.004669
#
#
# Mechanical properties :
#
#
# Convention : Reuss Voigt Hill
#
# Bulk Modulus (GPa) = 36.81148 58.52856 47.67002
# Shear Modulus (GPa) = 35.02157 71.06243 53.04200
#
# Velocity S-wave (km/s) = 4.12853 5.88095 5.08087
# Velocity P-wave (km/s) = 6.37513 8.63711 7.59085
#
# Compressibility (1/GPa) = 0.02716544
#
# Stress axis : x y z
#
# Youngs Moduli (GPa) = 44.12516 156.86586 85.61205
#
# Poissons Ratio (x) = 0.24540 0.14968
# Poissons Ratio (y) = 0.06903 0.29653
# Poissons Ratio (z) = 0.07715 0.54333
#
# Static dielectric constant tensor:
#      x y z
#    x 1.698590 0.000000 0.000000 
#    y 0.000000 1.686520 0.000000 
#    z 0.000000 0.000000 1.734130 
# 
# From -- ./inp_files/13753.got.cif
#   From: 2010.05.17/outbox.cif.g08.bks.cpg/sg62_7_cif.got.tgz:13753.got - 2010.06.03 15:25:27.
