data_PCOD9466801
_publ_section_title
;
Structure prediction by ZEFSAII (Michael W. Deem and Ramdas Pophale) SiO2 
 PCOD9466801
Probable space group: P N M A
;
_chemical_formula_sum "Si O2"
_cell_formula_units_Z 28
_cell_length_a 4.845156
_cell_length_b 11.352788
_cell_length_c 18.316892
_cell_angle_alpha 90.000000
_cell_angle_beta 90.000000
_cell_angle_gamma 90.000000
_cell_volume 1007.539491
_symmetry_space_group_name_H-M "P N M A"
_symmetry_group_IT_number 62
_symmetry_cell_setting 'orthorhombic'
loop_
_space_group_symop_operation_xyz
x,y,z
1/2-x,-y,1/2+z
1/2+x,1/2-y,1/2-z
-x,1/2+y,-z
-x,-y,-z
1/2+x,y,1/2-z
1/2-x,1/2+y,1/2+z
x,1/2-y,z
loop_
_atom_site_type_symbol
_atom_site_label
_atom_site_fract_x
_atom_site_fract_y
_atom_site_fract_z
Si Si1 0.068340 0.250000 0.298569
Si Si2 0.702964 0.609954 0.208602
Si Si3 0.675457 0.378472 0.931865
Si Si4 0.799639 0.125205 0.424524
O O1 0.381184 0.250000 0.273644
O O2 0.974436 0.142735 0.350268
O O3 0.500847 0.560322 0.271659
O O4 0.741810 0.750000 0.220759
O O5 0.555327 0.605561 0.130929
O O6 0.811451 0.250000 0.919512
O O7 0.847933 0.499420 0.927793
O O8 0.515388 0.374995 0.008554
O O9 0.637115 0.250000 0.431201
#
# Coordination Sequence:
#
# PCOD9466801 Si02
#       4
#     4   8   8   8
#     4  10  22  42  66  92 126 168 218 264 316 384
#     4   9  18  32  52  81 115 152 191 240 302 358
#     4   9  16  33  60  88 126 161 209 260 313 382
#     4   8  18  35  58  89 119 167 210 256 317 374
#
# _framework density 27.790476000000002
#
# number of rings (size 3 to 8) (size 9 to 14) (size 15 to 20)
#    0.857    2.286    0.000    0.000    0.000    2.286 
#    0.000    2.857    0.000    6.857    0.000    0.000 
#    0.000    0.000    0.000    0.000    0.000    0.000 
#
# Total GULP energy -156457.187183 kJ/mol
# GULP energy per Si atom -5587.756685 kJ/mol
# Density = 2.772722 g / cm^3
# Si number density = 27.790476 Si / 1000 Ang^3
#
#
#
# Elastic Constant Matrix: (Units=GPa)
#
#
# Indices 1 2 3 4 5 6 
#
# 1 80.5523 5.6845 29.7797 0.0000 0.0000 0.0000
# 2 5.6845 271.1283 2.1062 0.0000 0.0000 0.0000
# 3 29.7797 2.1062 172.6661 0.0000 0.0000 0.0000
# 4 0.0000 0.0000 0.0000 24.9304 0.0000 0.0000
# 5 0.0000 0.0000 0.0000 0.0000 47.3239 0.0000
# 6 0.0000 0.0000 0.0000 0.0000 0.0000 -5.1012
#
#
#
# Elastic Compliance Matrix: (Units=1/GPa)
#
#
# Indices 1 2 3 4 5 6 
#
# 1 0.013278 -0.000261 -0.002287 0.000000 0.000000 0.000000
# 2 -0.000261 0.003694 0.000000 0.000000 0.000000 0.000000
# 3 -0.002287 0.000000 0.006186 0.000000 0.000000 0.000000
# 4 0.000000 0.000000 0.000000 0.040112 0.000000 0.000000
# 5 0.000000 0.000000 0.000000 0.000000 0.021131 0.000000
# 6 0.000000 0.000000 0.000000 0.000000 0.000000 -0.196033
#
#
# Mechanical properties :
#
#
# Convention : Reuss Voigt Hill
#
# Bulk Modulus (GPa) = 55.36309 66.60975 60.98642
# Shear Modulus (GPa) = -49.74322 45.88237 -1.93042
#
# Velocity S-wave (km/s) = -4.23536 4.06767 -0.83435
# Velocity P-wave (km/s) = 1.98816 6.78836 4.58961
#
# Compressibility (1/GPa) = 0.01806258
#
# Stress axis : x y z
#
# Youngs Moduli (GPa) = 75.31170 270.72718 161.65672
#
# Poissons Ratio (x) = 0.07056 0.36969
# Poissons Ratio (y) = 0.01963 0.00002
# Poissons Ratio (z) = 0.17223 0.00003
#
# Static dielectric constant tensor:
#      x y z
#    x 2.018950 0.000000 0.000000 
#    y 0.000000 2.300220 0.000000 
#    z 0.000000 0.000000 2.116390 
# 
# From -- ./inp_files/25088.got.cif
#   From: 2010.05.17/outbox.cif.g08.bks.cpg/sg62_13_cif.got.tgz:25088.got - 2010.06.03 15:25:27.
