data_PCOD9466775
_publ_section_title
;
Structure prediction by ZEFSAII (Michael W. Deem and Ramdas Pophale) SiO2 
 PCOD9466775
Probable space group: P N M A
;
_chemical_formula_sum "Si O2"
_cell_formula_units_Z 40
_cell_length_a 14.277559
_cell_length_b 21.785003
_cell_length_c 5.031144
_cell_angle_alpha 90.000000
_cell_angle_beta 90.000000
_cell_angle_gamma 90.000000
_cell_volume 1564.870254
_symmetry_space_group_name_H-M "P N M A"
_symmetry_group_IT_number 62
_symmetry_cell_setting 'orthorhombic'
loop_
_space_group_symop_operation_xyz
x,y,z
1/2-x,-y,1/2+z
1/2+x,1/2-y,1/2-z
-x,1/2+y,-z
-x,-y,-z
1/2+x,y,1/2-z
1/2-x,1/2+y,1/2+z
x,1/2-y,z
loop_
_atom_site_type_symbol
_atom_site_label
_atom_site_fract_x
_atom_site_fract_y
_atom_site_fract_z
Si Si1 0.121506 0.493564 0.436219
Si Si2 0.850172 0.821699 0.928753
Si Si3 0.046741 0.369650 0.574364
Si Si4 0.172579 0.934633 0.937455
Si Si5 0.347555 0.178491 0.804894
O O1 0.953515 0.558151 0.491224
O O2 0.219231 0.454784 0.453826
O O3 0.117546 0.521324 0.143647
O O4 0.138535 0.547253 0.647804
O O5 0.868325 0.750000 0.979767
O O6 0.912904 0.860972 0.130459
O O7 0.742189 0.833374 0.005867
O O8 0.882706 0.837508 0.633176
O O9 0.946866 0.336582 0.561034
O O10 0.159770 0.866911 0.053481
O O11 0.344473 0.250000 0.726773
#
# Coordination Sequence:
#
# PCOD9466775 Si02
#       5
#     8   8   8   8   8
#     4  10  22  41  72 102 138 187 234 299 355 426
#     4  11  25  45  69 102 149 194 238 301 359 422
#     4  12  25  46  74 107 144 191 246 297 367 430
#     4  10  22  42  69 104 138 185 240 290 358 427
#     4  11  26  46  74 109 148 195 246 297 361 442
#
# _framework density 25.561226000000001
#
# number of rings (size 3 to 8) (size 9 to 14) (size 15 to 20)
#    0.000    1.200    2.000    3.000    5.600    4.800 
#    0.000    5.000    0.000    0.000    0.000    0.000 
#    0.000    0.000    0.000    0.000    0.000    0.000 
#
# Total GULP energy -224571.306795 kJ/mol
# GULP energy per Si atom -5614.282670 kJ/mol
# Density = 2.550305 g / cm^3
# Si number density = 25.561226 Si / 1000 Ang^3
#
#
#
# Elastic Constant Matrix: (Units=GPa)
#
#
# Indices 1 2 3 4 5 6 
#
# 1 129.1785 28.2124 0.2715 0.0000 0.0000 0.0000
# 2 28.2124 164.9007 -5.7803 0.0000 0.0000 0.0000
# 3 0.2715 -5.7803 28.5876 0.0000 0.0000 0.0000
# 4 0.0000 0.0000 0.0000 36.4646 0.0000 0.0000
# 5 0.0000 0.0000 0.0000 0.0000 8.8247 0.0000
# 6 0.0000 0.0000 0.0000 0.0000 0.0000 40.2399
#
#
#
# Elastic Compliance Matrix: (Units=1/GPa)
#
#
# Indices 1 2 3 4 5 6 
#
# 1 0.008045 -0.001389 -0.000357 0.000000 0.000000 0.000000
# 2 -0.001389 0.006347 0.001297 0.000000 0.000000 0.000000
# 3 -0.000357 0.001297 0.035246 0.000000 0.000000 0.000000
# 4 0.000000 0.000000 0.000000 0.027424 0.000000 0.000000
# 5 0.000000 0.000000 0.000000 0.000000 0.113319 0.000000
# 6 0.000000 0.000000 0.000000 0.000000 0.000000 0.024851
#
#
# Mechanical properties :
#
#
# Convention : Reuss Voigt Hill
#
# Bulk Modulus (GPa) = 20.51737 40.89711 30.70724
# Shear Modulus (GPa) = 21.51670 37.10339 29.31005
#
# Velocity S-wave (km/s) = 2.90448 3.81405 3.38991
# Velocity P-wave (km/s) = 4.39228 5.95235 5.23080
#
# Compressibility (1/GPa) = 0.04873919
#
# Stress axis : x y z
#
# Youngs Moduli (GPa) = 124.29577 157.54628 28.37219
#
# Poissons Ratio (x) = 0.21883 0.01014
# Poissons Ratio (y) = 0.17264 -0.03679
# Poissons Ratio (z) = 0.04440 -0.20427
#
# Static dielectric constant tensor:
#      x y z
#    x 2.060920 0.000000 0.000000 
#    y 0.000000 1.995570 0.000000 
#    z 0.000000 0.000000 1.925420 
# 
# From -- ./inp_files/1036.got.cif
#   From: 2010.05.17/outbox.cif.g08.bks.cpg/sg62_1_cif.got.tgz:1036.got - 2010.06.03 15:25:27.
