data_PCOD9466722
_publ_section_title
;
Structure prediction by ZEFSAII (Michael W. Deem and Ramdas Pophale) SiO2 
 PCOD9466722
Probable space group: P N M A
;
_chemical_formula_sum "Si O2"
_cell_formula_units_Z 48
_cell_length_a 16.301072
_cell_length_b 15.913284
_cell_length_c 8.683412
_cell_angle_alpha 90.000000
_cell_angle_beta 90.000000
_cell_angle_gamma 90.000000
_cell_volume 2252.508231
_symmetry_space_group_name_H-M "P N M A"
_symmetry_group_IT_number 62
_symmetry_cell_setting 'orthorhombic'
loop_
_space_group_symop_operation_xyz
x,y,z
1/2-x,-y,1/2+z
1/2+x,1/2-y,1/2-z
-x,1/2+y,-z
-x,-y,-z
1/2+x,y,1/2-z
1/2-x,1/2+y,1/2+z
x,1/2-y,z
loop_
_atom_site_type_symbol
_atom_site_label
_atom_site_fract_x
_atom_site_fract_y
_atom_site_fract_z
Si Si1 0.265732 0.750000 0.676886
Si Si2 0.452402 0.590848 0.186331
Si Si3 0.198277 0.750000 0.008269
Si Si4 0.982935 0.090802 0.352866
Si Si5 0.952064 0.750000 0.819401
Si Si6 0.201618 0.585905 0.514845
Si Si7 0.016628 0.750000 0.143447
Si Si8 0.763209 0.913515 0.320412
O O1 0.206739 0.750000 0.824858
O O2 0.358657 0.750000 0.736913
O O3 0.249154 0.667169 0.577110
O O4 0.488664 0.499721 0.228392
O O5 0.502298 0.667709 0.254996
O O6 0.357667 0.596166 0.233767
O O7 0.457062 0.593895 0.000150
O O8 0.105182 0.750000 0.065730
O O9 0.240027 0.666308 0.076423
O O10 0.891348 0.094206 0.423420
O O11 0.002494 0.167691 0.243168
O O12 0.952431 0.750000 0.003417
O O13 0.207059 0.582942 0.330868
O O14 0.239048 0.500280 0.584592
#
# Coordination Sequence:
#
# PCOD9466722 Si02
#       8
#     4   8   4   8   4   8   4   8
#     4  12  25  42  63  92 126 162 206 256 307 368
#     4  10  22  41  64  90 122 161 207 250 299 362
#     4  12  24  38  62  92 126 162 204 254 308 366
#     4  10  22  42  65  89 121 167 208 243 300 376
#     4  12  25  40  63  90 124 162 202 254 309 364
#     4  11  23  41  65  91 125 164 207 255 307 364
#     4  12  24  38  60  94 126 156 200 258 308 352
#     4  11  23  41  65  93 125 164 206 255 307 363
#
# _framework density 21.309577000000001
#
# number of rings (size 3 to 8) (size 9 to 14) (size 15 to 20)
#    0.000    1.000    0.000    7.000    0.000    6.000 
#    0.000    0.000    0.000    0.000    0.000    0.000 
#    0.000    0.000    0.000    0.000    0.000    0.000 
#
# Total GULP energy -268748.117712 kJ/mol
# GULP energy per Si atom -5598.919119 kJ/mol
# Density = 2.126108 g / cm^3
# Si number density = 21.309577 Si / 1000 Ang^3
#
#
#
# Elastic Constant Matrix: (Units=GPa)
#
#
# Indices 1 2 3 4 5 6 
#
# 1 63.3886 21.6721 -13.5961 0.0000 0.0000 0.0000
# 2 21.6721 173.4564 32.3003 0.0000 0.0000 0.0000
# 3 -13.5961 32.3003 42.4280 0.0000 0.0000 0.0000
# 4 0.0000 0.0000 0.0000 9.9160 0.0000 0.0000
# 5 0.0000 0.0000 0.0000 0.0000 33.7304 0.0000
# 6 0.0000 0.0000 0.0000 0.0000 0.0000 -84.3563
#
#
#
# Elastic Compliance Matrix: (Units=1/GPa)
#
#
# Indices 1 2 3 4 5 6 
#
# 1 0.019178 -0.004125 0.009286 0.000000 0.000000 0.000000
# 2 -0.004125 0.007605 -0.007112 0.000000 0.000000 0.000000
# 3 0.009286 -0.007112 0.031959 0.000000 0.000000 0.000000
# 4 0.000000 0.000000 0.000000 0.100847 0.000000 0.000000
# 5 0.000000 0.000000 0.000000 0.000000 0.029647 0.000000
# 6 0.000000 0.000000 0.000000 0.000000 0.000000 -0.011854
#
#
# Mechanical properties :
#
#
# Convention : Reuss Voigt Hill
#
# Bulk Modulus (GPa) = 18.23471 40.00285 29.11878
# Shear Modulus (GPa) = 25.05472 7.78447 16.41960
#
# Velocity S-wave (km/s) = 3.43264 1.91337 2.77885
# Velocity P-wave (km/s) = 4.92812 4.86768 4.89799
#
# Compressibility (1/GPa) = 0.05484046
#
# Stress axis : x y z
#
# Youngs Moduli (GPa) = 52.14331 131.49493 31.28999
#
# Poissons Ratio (x) = 0.54247 -0.29057
# Poissons Ratio (y) = 0.21511 0.22252
# Poissons Ratio (z) = -0.48421 0.93513
#
# Static dielectric constant tensor:
#      x y z
#    x 1.786480 0.000000 0.000000 
#    y 0.000000 1.748010 0.000000 
#    z 0.000000 0.000000 1.734970 
# 
# From -- ./inp_files/7694.got.cif
#   From: 2010.05.17/outbox.cif.g08.bks.cpg/sg62_4_cif.got.tgz:7694.got - 2010.06.03 15:25:27.
