data_PCOD9466563
_publ_section_title
;
Structure prediction by ZEFSAII (Michael W. Deem and Ramdas Pophale) SiO2 
 PCOD9466563
Probable space group: P N M A
;
_chemical_formula_sum "Si O2"
_cell_formula_units_Z 40
_cell_length_a 4.739646
_cell_length_b 18.271324
_cell_length_c 18.060025
_cell_angle_alpha 90.000000
_cell_angle_beta 90.000000
_cell_angle_gamma 90.000000
_cell_volume 1563.991080
_symmetry_space_group_name_H-M "P N M A"
_symmetry_group_IT_number 62
_symmetry_cell_setting 'orthorhombic'
loop_
_space_group_symop_operation_xyz
x,y,z
1/2-x,-y,1/2+z
1/2+x,1/2-y,1/2-z
-x,1/2+y,-z
-x,-y,-z
1/2+x,y,1/2-z
1/2-x,1/2+y,1/2+z
x,1/2-y,z
loop_
_atom_site_type_symbol
_atom_site_label
_atom_site_fract_x
_atom_site_fract_y
_atom_site_fract_z
Si Si1 0.139206 0.879284 0.699230
Si Si2 0.526679 0.024370 0.402854
Si Si3 0.291891 0.335693 0.700281
Si Si4 0.498250 0.426770 0.927609
Si Si5 0.830795 0.831211 0.953481
O O1 0.823871 0.868132 0.727072
O O2 0.281802 0.954963 0.669074
O O3 0.181157 0.829706 0.626877
O O4 0.446061 0.104130 0.435770
O O5 0.260086 0.973294 0.392787
O O6 0.764663 0.985859 0.453869
O O7 0.109952 0.349172 0.774572
O O8 0.259196 0.250000 0.681770
O O9 0.176588 0.382872 0.633618
O O10 0.366221 0.367448 0.983838
O O11 0.928304 0.750000 0.973811
#
# Coordination Sequence:
#
# PCOD9466563 Si02
#       5
#     8   8   8   8   8
#     4  10  23  42  65  94 130 172 219 268 324 385
#     4  10  25  40  68  93 133 166 220 272 328 387
#     4  10  22  39  61  93 132 171 214 267 326 392
#     4  12  22  44  68  98 131 173 217 275 328 398
#     4  10  25  45  70  98 133 180 224 274 335 396
#
# _framework density 25.575596000000001
#
# number of rings (size 3 to 8) (size 9 to 14) (size 15 to 20)
#    1.200    0.400    0.000    4.200    0.000    7.200 
#    0.000   10.000    0.000    0.000    0.000    0.000 
#    0.000    0.000    0.000    0.000    0.000    0.000 
#
# Total GULP energy -223414.449461 kJ/mol
# GULP energy per Si atom -5585.361237 kJ/mol
# Density = 2.551739 g / cm^3
# Si number density = 25.575596 Si / 1000 Ang^3
#
#
#
# Elastic Constant Matrix: (Units=GPa)
#
#
# Indices 1 2 3 4 5 6 
#
# 1 99.7991 32.4790 -21.1016 0.0000 0.0000 0.0000
# 2 32.4790 162.5653 39.7330 0.0000 0.0000 0.0000
# 3 -21.1016 39.7330 38.9121 0.0000 0.0000 0.0000
# 4 0.0000 0.0000 0.0000 30.6551 0.0000 0.0000
# 5 0.0000 0.0000 0.0000 0.0000 34.7765 0.0000
# 6 0.0000 0.0000 0.0000 0.0000 0.0000 12.5492
#
#
#
# Elastic Compliance Matrix: (Units=1/GPa)
#
#
# Indices 1 2 3 4 5 6 
#
# 1 0.015521 -0.006873 0.015435 0.000000 0.000000 0.000000
# 2 -0.006873 0.011241 -0.015206 0.000000 0.000000 0.000000
# 3 0.015435 -0.015206 0.049595 0.000000 0.000000 0.000000
# 4 0.000000 0.000000 0.000000 0.032621 0.000000 0.000000
# 5 0.000000 0.000000 0.000000 0.000000 0.028755 0.000000
# 6 0.000000 0.000000 0.000000 0.000000 0.000000 0.079686
#
#
# Mechanical properties :
#
#
# Convention : Reuss Voigt Hill
#
# Bulk Modulus (GPa) = 15.85555 44.83302 30.34429
# Shear Modulus (GPa) = 19.86255 32.27393 26.06824
#
# Velocity S-wave (km/s) = 2.78982 3.55618 3.19605
# Velocity P-wave (km/s) = 4.07313 5.86767 5.05074
#
# Compressibility (1/GPa) = 0.06306939
#
# Stress axis : x y z
#
# Youngs Moduli (GPa) = 64.43037 88.95983 20.16314
#
# Poissons Ratio (x) = 0.61146 -0.31122
# Poissons Ratio (y) = 0.44286 0.30659
# Poissons Ratio (z) = -0.99449 1.35268
#
# Static dielectric constant tensor:
#      x y z
#    x 1.977350 0.000000 0.000000 
#    y 0.000000 2.066250 0.000000 
#    z 0.000000 0.000000 2.083380 
# 
# From -- ./inp_files/21501.got.cif
#   From: 2010.05.17/outbox.cif.g08.bks.cpg/sg62_11_cif.got.tgz:21501.got - 2010.06.03 15:25:27.
