data_PCOD9466704
_publ_section_title
;
Structure prediction by ZEFSAII (Michael W. Deem and Ramdas Pophale) SiO2 
 PCOD9466704
Probable space group: P N M A
;
_chemical_formula_sum "Si O2"
_cell_formula_units_Z 64
_cell_length_a 26.373541
_cell_length_b 8.747200
_cell_length_c 14.995456
_cell_angle_alpha 90.000000
_cell_angle_beta 90.000000
_cell_angle_gamma 90.000000
_cell_volume 3459.371291
_symmetry_space_group_name_H-M "P N M A"
_symmetry_group_IT_number 62
_symmetry_cell_setting 'orthorhombic'
loop_
_space_group_symop_operation_xyz
x,y,z
1/2-x,-y,1/2+z
1/2+x,1/2-y,1/2-z
-x,1/2+y,-z
-x,-y,-z
1/2+x,y,1/2-z
1/2-x,1/2+y,1/2+z
x,1/2-y,z
loop_
_atom_site_type_symbol
_atom_site_label
_atom_site_fract_x
_atom_site_fract_y
_atom_site_fract_z
Si Si1 0.215827 0.567433 0.002215
Si Si2 0.501189 0.066947 0.100665
Si Si3 0.861447 0.933843 0.854651
Si Si4 0.106204 0.931698 0.330883
Si Si5 0.828108 0.068077 0.491421
Si Si6 0.360212 0.934351 0.362488
Si Si7 0.603888 0.433421 0.834102
Si Si8 0.555363 0.067450 0.496358
O O1 0.216255 0.750000 0.006222
O O2 0.184138 0.501485 0.086232
O O3 0.272263 0.501658 0.003650
O O4 0.186570 0.511898 0.913112
O O5 0.500797 0.250000 0.095689
O O6 0.552090 0.009378 0.149080
O O7 0.451136 0.008194 0.151415
O O8 0.500000 0.000000 0.000000
O O9 0.857030 0.750000 0.853216
O O10 0.912645 0.975857 0.908886
O O11 0.867141 0.999779 0.756270
O O12 0.098754 0.750000 0.319940
O O13 0.141716 0.956980 0.416625
O O14 0.825265 0.250000 0.475883
O O15 0.860211 0.990063 0.413273
O O16 0.353808 0.750000 0.369223
O O17 0.370489 0.974537 0.260319
O O18 0.409958 0.977514 0.419652
O O19 0.598248 0.250000 0.836973
O O20 0.551500 0.250000 0.497263
O O21 0.500000 0.000000 0.500000
#
# Coordination Sequence:
#
# PCOD9466704 Si02
#       8
#     8   8   8   8   8   8   8   8
#     4  11  23  41  66  92 120 159 205 256 308 366
#     4  12  24  40  62  89 126 167 207 254 309 363
#     4  10  22  41  62  88 123 161 202 252 309 367
#     4  11  24  41  63  92 124 163 209 254 308 369
#     4  11  24  42  64  89 122 162 204 257 311 366
#     4   9  21  41  61  86 122 161 200 249 307 363
#     4  11  23  40  64  93 125 163 208 254 305 369
#     4   9  19  35  55  83 116 155 197 243 297 355
#
# _framework density 18.500471000000001
#
# number of rings (size 3 to 8) (size 9 to 14) (size 15 to 20)
#    0.000    1.500    1.250    4.500    1.750    6.000 
#    0.000    1.250    0.000    0.000    0.000    0.000 
#    0.000    0.000    0.000    0.000    0.000    0.000 
#
# Total GULP energy -357735.746045 kJ/mol
# GULP energy per Si atom -5589.621032 kJ/mol
# Density = 1.845836 g / cm^3
# Si number density = 18.500471 Si / 1000 Ang^3
#
#
#
# Elastic Constant Matrix: (Units=GPa)
#
#
# Indices 1 2 3 4 5 6 
#
# 1 151.3286 68.5267 51.4961 0.0000 0.0000 0.0000
# 2 68.5267 101.2158 73.1567 0.0000 0.0000 0.0000
# 3 51.4961 73.1567 134.8747 0.0000 0.0000 0.0000
# 4 0.0000 0.0000 0.0000 23.0890 0.0000 0.0000
# 5 0.0000 0.0000 0.0000 0.0000 -12.5796 0.0000
# 6 0.0000 0.0000 0.0000 0.0000 0.0000 33.6172
#
#
#
# Elastic Compliance Matrix: (Units=1/GPa)
#
#
# Indices 1 2 3 4 5 6 
#
# 1 0.009534 -0.006290 -0.000229 0.000000 0.000000 0.000000
# 2 -0.006290 0.020400 -0.008664 0.000000 0.000000 0.000000
# 3 -0.000229 -0.008664 0.012201 0.000000 0.000000 0.000000
# 4 0.000000 0.000000 0.000000 0.043311 0.000000 0.000000
# 5 0.000000 0.000000 0.000000 0.000000 -0.079494 0.000000
# 6 0.000000 0.000000 0.000000 0.000000 0.000000 0.029747
#
#
# Mechanical properties :
#
#
# Convention : Reuss Voigt Hill
#
# Bulk Modulus (GPa) = 84.95416 85.97536 85.46476
# Shear Modulus (GPa) = 71.44227 21.77462 46.60844
#
# Velocity S-wave (km/s) = 6.22096 3.43443 5.02472
# Velocity P-wave (km/s) = 9.88029 7.89303 8.94204
#
# Compressibility (1/GPa) = 0.01177105
#
# Stress axis : x y z
#
# Youngs Moduli (GPa) = 104.88643 49.01917 81.96167
#
# Poissons Ratio (x) = 0.30832 0.01874
# Poissons Ratio (y) = 0.65970 0.71009
# Poissons Ratio (z) = 0.02398 0.42469
#
# Static dielectric constant tensor:
#      x y z
#    x 1.605800 0.000000 0.000000 
#    y 0.000000 1.621750 0.000000 
#    z 0.000000 0.000000 1.570790 
# 
# From -- ./inp_files/20938.got.cif
#   From: 2010.05.17/outbox.cif.g08.bks.cpg/sg62_11_cif.got.tgz:20938.got - 2010.06.03 15:25:27.
