data_PCOD9466616
_publ_section_title
;
Structure prediction by ZEFSAII (Michael W. Deem and Ramdas Pophale) SiO2 
 PCOD9466616
Probable space group: P N M A
;
_chemical_formula_sum "Si O2"
_cell_formula_units_Z 48
_cell_length_a 9.695065
_cell_length_b 8.475723
_cell_length_c 29.063512
_cell_angle_alpha 90.000000
_cell_angle_beta 90.000000
_cell_angle_gamma 90.000000
_cell_volume 2388.226828
_symmetry_space_group_name_H-M "P N M A"
_symmetry_group_IT_number 62
_symmetry_cell_setting 'orthorhombic'
loop_
_space_group_symop_operation_xyz
x,y,z
1/2-x,-y,1/2+z
1/2+x,1/2-y,1/2-z
-x,1/2+y,-z
-x,-y,-z
1/2+x,y,1/2-z
1/2-x,1/2+y,1/2+z
x,1/2-y,z
loop_
_atom_site_type_symbol
_atom_site_label
_atom_site_fract_x
_atom_site_fract_y
_atom_site_fract_z
Si Si1 0.192064 0.559905 0.719789
Si Si2 0.991977 0.058771 0.640017
Si Si3 0.502887 0.559376 0.696217
Si Si4 0.902128 0.937997 0.459859
Si Si5 0.813182 0.559657 0.118144
Si Si6 0.850594 0.561126 0.012499
O O1 0.198233 0.750000 0.721795
O O2 0.089155 0.510399 0.679125
O O3 0.348876 0.503945 0.710292
O O4 0.117321 0.504725 0.766586
O O5 0.996333 0.250000 0.642582
O O6 0.049493 0.008015 0.590223
O O7 0.831424 0.009592 0.641548
O O8 0.500469 0.750000 0.696559
O O9 0.557225 0.503449 0.646755
O O10 0.909319 0.750000 0.459588
O O11 0.752421 0.994318 0.474550
O O12 0.000000 0.000000 0.500000
O O13 0.817348 0.750000 0.118651
O O14 0.812558 0.509951 0.064618
O O15 0.844072 0.750000 0.011763
O O16 0.000000 0.500000 0.000000
#
# Coordination Sequence:
#
# PCOD9466616 Si02
#       6
#     8   8   8   8   8   8
#     4  10  22  40  62  90 120 153 195 246 298 355
#     4  10  22  40  61  87 120 157 199 244 297 357
#     4  10  22  40  62  89 120 153 196 246 298 356
#     4  11  22  40  63  90 123 164 208 253 301 357
#     4  10  22  41  61  85 120 159 198 245 298 356
#     4  11  24  42  61  88 125 164 208 255 304 362
#
# _framework density 20.098593000000001
#
# number of rings (size 3 to 8) (size 9 to 14) (size 15 to 20)
#    0.000    1.667    1.667    2.000    2.333    6.000 
#    0.000    0.000    0.000    0.000    0.000    0.000 
#    0.000    0.000    0.000    0.000    0.000    0.000 
#
# Total GULP energy -268184.269430 kJ/mol
# GULP energy per Si atom -5587.172280 kJ/mol
# Density = 2.005285 g / cm^3
# Si number density = 20.098593 Si / 1000 Ang^3
#
#
#
# Elastic Constant Matrix: (Units=GPa)
#
#
# Indices 1 2 3 4 5 6 
#
# 1 116.0810 4.0336 8.6898 0.0000 0.0000 0.0000
# 2 4.0336 7.0315 5.0903 0.0000 0.0000 0.0000
# 3 8.6898 5.0903 68.6019 0.0000 0.0000 0.0000
# 4 0.0000 0.0000 0.0000 31.6833 0.0000 0.0000
# 5 0.0000 0.0000 0.0000 0.0000 40.8211 0.0000
# 6 0.0000 0.0000 0.0000 0.0000 0.0000 32.6113
#
#
#
# Elastic Compliance Matrix: (Units=1/GPa)
#
#
# Indices 1 2 3 4 5 6 
#
# 1 0.008830 -0.004497 -0.000785 0.000000 0.000000 0.000000
# 2 -0.004497 0.152581 -0.010752 0.000000 0.000000 0.000000
# 3 -0.000785 -0.010752 0.015474 0.000000 0.000000 0.000000
# 4 0.000000 0.000000 0.000000 0.031562 0.000000 0.000000
# 5 0.000000 0.000000 0.000000 0.000000 0.024497 0.000000
# 6 0.000000 0.000000 0.000000 0.000000 0.000000 0.030664
#
#
# Mechanical properties :
#
#
# Convention : Reuss Voigt Hill
#
# Bulk Modulus (GPa) = 6.90527 25.26020 16.08274
# Shear Modulus (GPa) = 14.53709 32.61652 23.57681
#
# Velocity S-wave (km/s) = 2.69232 4.03280 3.42871
# Velocity P-wave (km/s) = 3.62049 5.85492 4.86765
#
# Compressibility (1/GPa) = 0.14481692
#
# Stress axis : x y z
#
# Youngs Moduli (GPa) = 113.25432 6.55392 64.62425
#
# Poissons Ratio (x) = 0.02947 0.05072
# Poissons Ratio (y) = 0.50931 0.69483
# Poissons Ratio (z) = 0.08888 0.07047
#
# Static dielectric constant tensor:
#      x y z
#    x 1.816690 0.000000 0.000000 
#    y 0.000000 1.689350 0.000000 
#    z 0.000000 0.000000 1.712290 
# 
# From -- ./inp_files/31978.got.cif
#   From: 2010.05.17/outbox.cif.g08.bks.cpg/sg62_16_cif.got.tgz:31978.got - 2010.06.03 15:25:27.
