data_PCOD9466884
_publ_section_title
;
Structure prediction by ZEFSAII (Michael W. Deem and Ramdas Pophale) SiO2 
 PCOD9466884
Probable space group: P N M A
;
_chemical_formula_sum "Si O2"
_cell_formula_units_Z 40
_cell_length_a 11.182702
_cell_length_b 27.539003
_cell_length_c 5.117869
_cell_angle_alpha 90.000000
_cell_angle_beta 90.000000
_cell_angle_gamma 90.000000
_cell_volume 1576.101312
_symmetry_space_group_name_H-M "P N M A"
_symmetry_group_IT_number 62
_symmetry_cell_setting 'orthorhombic'
loop_
_space_group_symop_operation_xyz
x,y,z
1/2-x,-y,1/2+z
1/2+x,1/2-y,1/2-z
-x,1/2+y,-z
-x,-y,-z
1/2+x,y,1/2-z
1/2-x,1/2+y,1/2+z
x,1/2-y,z
loop_
_atom_site_type_symbol
_atom_site_label
_atom_site_fract_x
_atom_site_fract_y
_atom_site_fract_z
Si Si1 0.073979 0.623733 0.969791
Si Si2 0.096917 0.429915 0.409771
Si Si3 0.110814 0.335736 0.691359
Si Si4 0.254241 0.803975 0.705514
Si Si5 0.091301 0.524758 0.204810
O O1 0.159074 0.654988 0.786421
O O2 0.955562 0.603712 0.820920
O O3 0.133861 0.573826 0.067355
O O4 0.024251 0.658252 0.201353
O O5 0.143381 0.391430 0.619348
O O6 0.165592 0.477854 0.304740
O O7 0.980708 0.453003 0.550553
O O8 0.142102 0.307020 0.428395
O O9 0.189460 0.314426 0.924274
O O10 0.201423 0.750000 0.711743
O O11 0.000000 0.500000 0.000000
#
# Coordination Sequence:
#
# PCOD9466884 Si02
#       5
#     8   8   8   8   8
#     4  10  22  43  74  98 139 185 227 290 356 411
#     4   9  17  38  69  96 135 180 217 276 352 414
#     4  11  24  46  70  98 139 179 227 295 354 415
#     4  12  28  45  68 102 137 183 244 295 343 412
#     4   8  16  32  68  99 131 177 220 272 349 415
#
# _framework density 25.379079000000001
#
# number of rings (size 3 to 8) (size 9 to 14) (size 15 to 20)
#    0.000    2.000    2.000    0.600    5.600    1.600 
#    0.000    0.000   26.400    0.000    0.000    0.000 
#    0.000    0.000    0.000    0.000    0.000    0.000 
#
# Total GULP energy -223301.406464 kJ/mol
# GULP energy per Si atom -5582.535162 kJ/mol
# Density = 2.532132 g / cm^3
# Si number density = 25.379079 Si / 1000 Ang^3
#
#
#
# Elastic Constant Matrix: (Units=GPa)
#
#
# Indices 1 2 3 4 5 6 
#
# 1 27.6007 11.1400 11.8740 0.0000 0.0000 0.0000
# 2 11.1400 182.8147 34.7354 0.0000 0.0000 0.0000
# 3 11.8740 34.7354 129.9112 0.0000 0.0000 0.0000
# 4 0.0000 0.0000 0.0000 39.4349 0.0000 0.0000
# 5 0.0000 0.0000 0.0000 0.0000 19.5249 0.0000
# 6 0.0000 0.0000 0.0000 0.0000 0.0000 33.9854
#
#
#
# Elastic Compliance Matrix: (Units=1/GPa)
#
#
# Indices 1 2 3 4 5 6 
#
# 1 0.038241 -0.001755 -0.003026 0.000000 0.000000 0.000000
# 2 -0.001755 0.005843 -0.001402 0.000000 0.000000 0.000000
# 3 -0.003026 -0.001402 0.008349 0.000000 0.000000 0.000000
# 4 0.000000 0.000000 0.000000 0.025358 0.000000 0.000000
# 5 0.000000 0.000000 0.000000 0.000000 0.051217 0.000000
# 6 0.000000 0.000000 0.000000 0.000000 0.000000 0.029424
#
#
# Mechanical properties :
#
#
# Convention : Reuss Voigt Hill
#
# Bulk Modulus (GPa) = 24.95812 50.64727 37.80269
# Shear Modulus (GPa) = 27.15107 37.42754 32.28930
#
# Velocity S-wave (km/s) = 3.27436 3.84440 3.57077
# Velocity P-wave (km/s) = 4.91434 6.30123 5.65050
#
# Compressibility (1/GPa) = 0.04006713
#
# Stress axis : x y z
#
# Youngs Moduli (GPa) = 26.14981 171.13448 119.77499
#
# Poissons Ratio (x) = 0.30040 0.36243
# Poissons Ratio (y) = 0.04590 0.16792
# Poissons Ratio (z) = 0.07913 0.23992
#
# Static dielectric constant tensor:
#      x y z
#    x 2.088340 0.000000 0.000000 
#    y 0.000000 2.047280 0.000000 
#    z 0.000000 0.000000 2.068030 
# 
# From -- ./inp_files/607.got.cif
#   From: 2010.05.17/outbox.cif.g08.bks.cpg/sg62_1_cif.got.tgz:607.got - 2010.06.03 15:25:27.
