data_PCOD9466892
_publ_section_title
;
Structure prediction by ZEFSAII (Michael W. Deem and Ramdas Pophale) SiO2 
 PCOD9466892
Probable space group: P N M A
;
_chemical_formula_sum "Si O2"
_cell_formula_units_Z 64
_cell_length_a 9.518783
_cell_length_b 23.067563
_cell_length_c 14.896713
_cell_angle_alpha 90.000000
_cell_angle_beta 90.000000
_cell_angle_gamma 90.000000
_cell_volume 3270.947642
_symmetry_space_group_name_H-M "P N M A"
_symmetry_group_IT_number 62
_symmetry_cell_setting 'orthorhombic'
loop_
_space_group_symop_operation_xyz
x,y,z
1/2-x,-y,1/2+z
1/2+x,1/2-y,1/2-z
-x,1/2+y,-z
-x,-y,-z
1/2+x,y,1/2-z
1/2-x,1/2+y,1/2+z
x,1/2-y,z
loop_
_atom_site_type_symbol
_atom_site_label
_atom_site_fract_x
_atom_site_fract_y
_atom_site_fract_z
Si Si1 0.466493 0.887898 0.167053
Si Si2 0.185725 0.406148 0.356267
Si Si3 0.826624 0.916825 0.846659
Si Si4 0.075239 0.510559 0.905462
Si Si5 0.547161 0.182590 0.016105
Si Si6 0.198300 0.112831 0.842596
Si Si7 0.565697 0.513421 0.903025
Si Si8 0.288760 0.682380 0.525146
O O1 0.434768 0.849968 0.078857
O O2 0.388444 0.866705 0.256029
O O3 0.635281 0.890371 0.177856
O O4 0.414050 0.952981 0.147090
O O5 0.228084 0.400911 0.252277
O O6 0.302637 0.441718 0.410479
O O7 0.140061 0.348596 0.408318
O O8 0.048270 0.446256 0.356534
O O9 0.708667 0.950651 0.903994
O O10 0.861207 0.858487 0.901038
O O11 0.956965 0.960670 0.842868
O O12 0.140809 0.450888 0.869296
O O13 0.000000 0.500000 0.000000
O O14 0.581044 0.250000 0.007694
O O15 0.380670 0.177649 0.039040
O O16 0.180577 0.155165 0.927595
O O17 0.500000 0.500000 0.000000
O O18 0.326576 0.750000 0.530149
#
# Coordination Sequence:
#
# PCOD9466892 Si02
#       8
#     8   8   8   8   8   8   8   8
#     4  11  23  39  66  94 130 163 215 264 328 387
#     4  12  23  40  65  95 129 167 213 267 317 386
#     4  12  24  40  64  97 130 167 214 264 323 387
#     4  12  25  39  61  97 140 165 203 267 335 387
#     4  10  23  43  67  90 120 172 225 264 310 382
#     4  11  23  41  63  98 126 169 209 269 329 389
#     4  12  21  40  65  93 125 171 213 255 323 397
#     4  10  22  44  67  88 122 174 224 263 318 382
#
# _framework density 19.566196000000001
#
# number of rings (size 3 to 8) (size 9 to 14) (size 15 to 20)
#    0.000    0.750    5.000    3.750    1.750    1.000 
#    0.000    0.625    0.000    0.000    0.000    0.000 
#    0.000    0.000    0.000    0.000    0.000    0.000 
#
# Total GULP energy -357806.959183 kJ/mol
# GULP energy per Si atom -5590.733737 kJ/mol
# Density = 1.952166 g / cm^3
# Si number density = 19.566196 Si / 1000 Ang^3
#
#
#
# Elastic Constant Matrix: (Units=GPa)
#
#
# Indices 1 2 3 4 5 6 
#
# 1 64.9657 37.1865 25.7512 0.0000 0.0000 0.0000
# 2 37.1865 129.4369 36.6185 0.0000 0.0000 0.0000
# 3 25.7512 36.6185 95.3427 0.0000 0.0000 0.0000
# 4 0.0000 0.0000 0.0000 4.5349 0.0000 0.0000
# 5 0.0000 0.0000 0.0000 0.0000 28.2404 0.0000
# 6 0.0000 0.0000 0.0000 0.0000 0.0000 23.9794
#
#
#
# Elastic Compliance Matrix: (Units=1/GPa)
#
#
# Indices 1 2 3 4 5 6 
#
# 1 0.019398 -0.004589 -0.003477 0.000000 0.000000 0.000000
# 2 -0.004589 0.009753 -0.002506 0.000000 0.000000 0.000000
# 3 -0.003477 -0.002506 0.012390 0.000000 0.000000 0.000000
# 4 0.000000 0.000000 0.000000 0.220510 0.000000 0.000000
# 5 0.000000 0.000000 0.000000 0.000000 0.035410 0.000000
# 6 0.000000 0.000000 0.000000 0.000000 0.000000 0.041703
#
#
# Mechanical properties :
#
#
# Convention : Reuss Voigt Hill
#
# Bulk Modulus (GPa) = 49.02783 54.31752 51.67268
# Shear Modulus (GPa) = 13.61998 24.03021 18.82510
#
# Velocity S-wave (km/s) = 2.64123 3.50830 3.10518
# Velocity P-wave (km/s) = 5.86628 6.65072 6.27078
#
# Compressibility (1/GPa) = 0.02039658
#
# Stress axis : x y z
#
# Youngs Moduli (GPa) = 51.55248 102.52884 80.70947
#
# Poissons Ratio (x) = 0.47054 0.28059
# Poissons Ratio (y) = 0.23659 0.20229
# Poissons Ratio (z) = 0.17922 0.25698
#
# Static dielectric constant tensor:
#      x y z
#    x 1.697750 0.000000 0.000000 
#    y 0.000000 1.671010 0.000000 
#    z 0.000000 0.000000 1.720240 
# 
# From -- ./inp_files/17358.got.cif
#   From: 2010.05.17/outbox.cif.g08.bks.cpg/sg62_9_cif.got.tgz:17358.got - 2010.06.03 15:25:27.
