data_PCOD9466919
_publ_section_title
;
Structure prediction by ZEFSAII (Michael W. Deem and Ramdas Pophale) SiO2 
 PCOD9466919
Probable space group: P N M A
;
_chemical_formula_sum "Si O2"
_cell_formula_units_Z 40
_cell_length_a 9.362279
_cell_length_b 13.707154
_cell_length_c 14.141468
_cell_angle_alpha 90.000000
_cell_angle_beta 90.000000
_cell_angle_gamma 90.000000
_cell_volume 1814.777417
_symmetry_space_group_name_H-M "P N M A"
_symmetry_group_IT_number 62
_symmetry_cell_setting 'orthorhombic'
loop_
_space_group_symop_operation_xyz
x,y,z
1/2-x,-y,1/2+z
1/2+x,1/2-y,1/2-z
-x,1/2+y,-z
-x,-y,-z
1/2+x,y,1/2-z
1/2-x,1/2+y,1/2+z
x,1/2-y,z
loop_
_atom_site_type_symbol
_atom_site_label
_atom_site_fract_x
_atom_site_fract_y
_atom_site_fract_z
Si Si1 0.162397 0.470653 0.978551
Si Si2 0.521777 0.360852 0.836912
Si Si3 0.602555 0.138350 0.047036
Si Si4 0.247528 0.043541 0.775491
Si Si5 0.184817 0.864898 0.653835
O O1 0.268965 0.562794 0.962832
O O2 0.173868 0.424308 0.873909
O O3 0.223776 0.406172 0.064826
O O4 0.000000 0.500000 0.000000
O O5 0.489560 0.250000 0.811475
O O6 0.679316 0.391023 0.806395
O O7 0.412305 0.431952 0.786477
O O8 0.513642 0.370963 0.949314
O O9 0.654152 0.250000 0.053593
O O10 0.482351 0.122213 0.126478
O O11 0.220484 0.932589 0.743477
O O12 0.211647 0.750000 0.667996
#
# Coordination Sequence:
#
# PCOD9466919 Si02
#       5
#     8   8   8   8   8
#     4  12  25  43  66 100 143 179 223 290 354 409
#     4  11  23  42  69 100 133 176 232 286 340 406
#     4  10  22  45  73  94 128 185 238 281 341 416
#     4  12  24  41  69 102 136 180 229 284 347 414
#     4  11  24  46  72  99 138 187 235 286 350 422
#
# _framework density 22.041270000000001
#
# number of rings (size 3 to 8) (size 9 to 14) (size 15 to 20)
#    0.000    0.800    4.000    3.600    0.000    2.400 
#    0.000    5.000    0.000    0.000    0.000    0.000 
#    0.000    0.000    0.000    0.000    0.000    0.000 
#
# Total GULP energy -223743.072897 kJ/mol
# GULP energy per Si atom -5593.576822 kJ/mol
# Density = 2.199110 g / cm^3
# Si number density = 22.041270 Si / 1000 Ang^3
#
#
#
# Elastic Constant Matrix: (Units=GPa)
#
#
# Indices 1 2 3 4 5 6 
#
# 1 83.4576 51.4603 -6.4795 0.0000 0.0000 0.0000
# 2 51.4603 124.6073 20.5614 0.0000 0.0000 0.0000
# 3 -6.4795 20.5614 64.7675 0.0000 0.0000 0.0000
# 4 0.0000 0.0000 0.0000 33.7437 0.0000 0.0000
# 5 0.0000 0.0000 0.0000 0.0000 30.7048 0.0000
# 6 0.0000 0.0000 0.0000 0.0000 0.0000 24.4379
#
#
#
# Elastic Compliance Matrix: (Units=1/GPa)
#
#
# Indices 1 2 3 4 5 6 
#
# 1 0.017078 -0.007740 0.004166 0.000000 0.000000 0.000000
# 2 -0.007740 0.011977 -0.004577 0.000000 0.000000 0.000000
# 3 0.004166 -0.004577 0.017310 0.000000 0.000000 0.000000
# 4 0.000000 0.000000 0.000000 0.029635 0.000000 0.000000
# 5 0.000000 0.000000 0.000000 0.000000 0.032568 0.000000
# 6 0.000000 0.000000 0.000000 0.000000 0.000000 0.040920
#
#
# Mechanical properties :
#
#
# Convention : Reuss Voigt Hill
#
# Bulk Modulus (GPa) = 33.26404 44.87964 39.07184
# Shear Modulus (GPa) = 28.43954 31.59663 30.01808
#
# Velocity S-wave (km/s) = 3.59595 3.79029 3.69440
# Velocity P-wave (km/s) = 5.68908 6.28975 5.99694
#
# Compressibility (1/GPa) = 0.03006249
#
# Stress axis : x y z
#
# Youngs Moduli (GPa) = 58.55374 83.49307 57.77163
#
# Poissons Ratio (x) = 0.64627 -0.24067
# Poissons Ratio (y) = 0.45323 0.26440
# Poissons Ratio (z) = -0.24393 0.38212
#
# Static dielectric constant tensor:
#      x y z
#    x 1.783000 0.000000 0.000000 
#    y 0.000000 1.816480 0.000000 
#    z 0.000000 0.000000 1.833370 
# 
# From -- ./inp_files/16650.got.cif
#   From: 2010.05.17/outbox.cif.g08.bks.cpg/sg62_9_cif.got.tgz:16650.got - 2010.06.03 15:25:27.
