data_PCOD9466846
_publ_section_title
;
Structure prediction by ZEFSAII (Michael W. Deem and Ramdas Pophale) SiO2 
 PCOD9466846
Probable space group: P N M A
;
_chemical_formula_sum "Si O2"
_cell_formula_units_Z 48
_cell_length_a 14.293160
_cell_length_b 27.369782
_cell_length_c 5.934375
_cell_angle_alpha 90.000000
_cell_angle_beta 90.000000
_cell_angle_gamma 90.000000
_cell_volume 2321.531496
_symmetry_space_group_name_H-M "P N M A"
_symmetry_group_IT_number 62
_symmetry_cell_setting 'orthorhombic'
loop_
_space_group_symop_operation_xyz
x,y,z
1/2-x,-y,1/2+z
1/2+x,1/2-y,1/2-z
-x,1/2+y,-z
-x,-y,-z
1/2+x,y,1/2-z
1/2-x,1/2+y,1/2+z
x,1/2-y,z
loop_
_atom_site_type_symbol
_atom_site_label
_atom_site_fract_x
_atom_site_fract_y
_atom_site_fract_z
Si Si1 0.564058 0.625036 0.388370
Si Si2 0.910847 0.870439 0.729539
Si Si3 0.950608 0.193442 0.500829
Si Si4 0.202826 0.508114 0.768280
Si Si5 0.034409 0.047825 0.626224
Si Si6 0.196405 0.877713 0.743428
O O1 0.484125 0.617790 0.574794
O O2 0.540500 0.673958 0.253749
O O3 0.551221 0.576942 0.237879
O O4 0.665005 0.631006 0.498595
O O5 0.920184 0.913175 0.544312
O O6 0.804236 0.867585 0.803372
O O7 0.952784 0.821231 0.620952
O O8 0.928739 0.250000 0.479715
O O9 0.870553 0.157995 0.397700
O O10 0.248719 0.493236 0.520279
O O11 0.114049 0.472230 0.792613
O O12 0.176919 0.564595 0.719549
O O13 0.000000 0.000000 0.500000
#
# Coordination Sequence:
#
# PCOD9466846 Si02
#       6
#     8   8   8   8   8   8
#     4  10  23  41  64  90 134 175 229 292 354 425
#     4  10  22  43  64  93 130 176 222 286 351 424
#     4  10  24  44  67  98 129 173 235 300 370 430
#     4  12  26  41  67 103 146 190 241 285 352 435
#     4  11  23  37  61  92 135 184 229 283 345 416
#     4  11  24  42  69  98 138 180 237 294 355 434
#
# _framework density 20.676005
#
# number of rings (size 3 to 8) (size 9 to 14) (size 15 to 20)
#    0.000    1.333    1.667    4.000    4.667    7.333 
#    0.000    1.667    0.000    0.000    0.000    0.000 
#    0.000    0.000    0.000    0.000    0.000    0.000 
#
# Total GULP energy -267754.621281 kJ/mol
# GULP energy per Si atom -5578.221277 kJ/mol
# Density = 2.062895 g / cm^3
# Si number density = 20.676005 Si / 1000 Ang^3
#
#
#
# Elastic Constant Matrix: (Units=GPa)
#
#
# Indices 1 2 3 4 5 6 
#
# 1 60.0485 15.5648 -0.3934 0.0000 0.0000 0.0000
# 2 15.5648 134.2340 15.8642 0.0000 0.0000 0.0000
# 3 -0.3934 15.8642 47.2639 0.0000 0.0000 0.0000
# 4 0.0000 0.0000 0.0000 7.0780 0.0000 0.0000
# 5 0.0000 0.0000 0.0000 0.0000 27.2743 0.0000
# 6 0.0000 0.0000 0.0000 0.0000 0.0000 23.1763
#
#
#
# Elastic Compliance Matrix: (Units=1/GPa)
#
#
# Indices 1 2 3 4 5 6 
#
# 1 0.017202 -0.002095 0.000846 0.000000 0.000000 0.000000
# 2 -0.002095 0.008012 -0.002707 0.000000 0.000000 0.000000
# 3 0.000846 -0.002707 0.022073 0.000000 0.000000 0.000000
# 4 0.000000 0.000000 0.000000 0.141283 0.000000 0.000000
# 5 0.000000 0.000000 0.000000 0.000000 0.036665 0.000000
# 6 0.000000 0.000000 0.000000 0.000000 0.000000 0.043148
#
#
# Mechanical properties :
#
#
# Convention : Reuss Voigt Hill
#
# Bulk Modulus (GPa) = 25.39542 33.73528 29.56535
# Shear Modulus (GPa) = 17.27600 25.53977 21.40788
#
# Velocity S-wave (km/s) = 2.89374 3.51841 3.22125
# Velocity P-wave (km/s) = 4.84502 5.73212 5.30713
#
# Compressibility (1/GPa) = 0.03937717
#
# Stress axis : x y z
#
# Youngs Moduli (GPa) = 58.13387 124.80565 45.30338
#
# Poissons Ratio (x) = 0.26142 -0.03834
# Poissons Ratio (y) = 0.12177 0.12263
# Poissons Ratio (z) = -0.04920 0.33783
#
# Static dielectric constant tensor:
#      x y z
#    x 1.770450 0.000000 0.000000 
#    y 0.000000 1.687830 0.000000 
#    z 0.000000 0.000000 1.847740 
# 
# From -- ./inp_files/1134.got.cif
#   From: 2010.05.17/outbox.cif.g08.bks.cpg/sg62_1_cif.got.tgz:1134.got - 2010.06.03 15:25:27.
