data_PCOD9466272
_publ_section_title
;
Structure prediction by ZEFSAII (Michael W. Deem and Ramdas Pophale) SiO2 
 PCOD9466272
Probable space group: P N M A
;
_chemical_formula_sum "Si O2"
_cell_formula_units_Z 64
_cell_length_a 13.106741
_cell_length_b 8.999650
_cell_length_c 28.311003
_cell_angle_alpha 90.000000
_cell_angle_beta 90.000000
_cell_angle_gamma 90.000000
_cell_volume 3339.454981
_symmetry_space_group_name_H-M "P N M A"
_symmetry_group_IT_number 62
_symmetry_cell_setting 'orthorhombic'
loop_
_space_group_symop_operation_xyz
x,y,z
1/2-x,-y,1/2+z
1/2+x,1/2-y,1/2-z
-x,1/2+y,-z
-x,-y,-z
1/2+x,y,1/2-z
1/2-x,1/2+y,1/2+z
x,1/2-y,z
loop_
_atom_site_type_symbol
_atom_site_label
_atom_site_fract_x
_atom_site_fract_y
_atom_site_fract_z
Si Si1 0.781757 0.572671 0.623613
Si Si2 0.624935 0.576766 0.451260
Si Si3 0.281868 0.082347 0.695269
Si Si4 0.005469 0.572074 0.359738
Si Si5 0.414734 0.424352 0.436569
Si Si6 0.705451 0.574178 0.893332
Si Si7 0.996469 0.420744 0.752614
Si Si8 0.676758 0.579299 0.723205
O O1 0.795955 0.750000 0.615877
O O2 0.685745 0.522908 0.591606
O O3 0.744066 0.551033 0.677415
O O4 0.889482 0.490634 0.618227
O O5 0.633368 0.750000 0.438360
O O6 0.521294 0.509437 0.428558
O O7 0.609780 0.565201 0.507670
O O8 0.727580 0.492784 0.435819
O O9 0.260786 0.250000 0.678556
O O10 0.385739 0.079518 0.724108
O O11 0.273268 0.970935 0.652069
O O12 0.201781 0.029001 0.733948
O O13 0.001578 0.750000 0.364382
O O14 0.904961 0.499878 0.383223
O O15 0.008040 0.538253 0.303092
O O16 0.429695 0.250000 0.424681
O O17 0.693767 0.750000 0.897731
O O18 0.034269 0.250000 0.756428
O O19 0.059747 0.537302 0.783919
O O20 0.690046 0.750000 0.737178
#
# Coordination Sequence:
#
# PCOD9466272 Si02
#       8
#     8   8   8   8   8   8   8   8
#     4  10  22  39  59  88 121 156 196 241 291 348
#     4  10  21  40  66  93 120 153 193 241 297 355
#     4  11  22  38  56  80 114 154 199 242 289 342
#     4  11  22  39  60  84 116 158 201 244 292 345
#     4   9  20  41  66  92 123 155 191 240 296 351
#     4  12  25  40  60  87 118 155 198 246 299 354
#     4  10  22  37  54  76 112 155 195 243 290 336
#     4  11  22  34  54  83 116 155 196 236 285 343
#
# _framework density 19.164802999999999
#
# number of rings (size 3 to 8) (size 9 to 14) (size 15 to 20)
#    0.000    1.500    2.500    2.625    1.750    3.000 
#    0.000    0.625    0.000    0.000    0.000    0.000 
#    0.000    0.000    0.000    0.000    0.000    0.000 
#
# Total GULP energy -357165.881702 kJ/mol
# GULP energy per Si atom -5580.716902 kJ/mol
# Density = 1.912118 g / cm^3
# Si number density = 19.164803 Si / 1000 Ang^3
#
#
#
# Elastic Constant Matrix: (Units=GPa)
#
#
# Indices 1 2 3 4 5 6 
#
# 1 104.5577 50.6635 18.4832 0.0000 0.0000 0.0000
# 2 50.6635 71.8868 19.5219 0.0000 0.0000 0.0000
# 3 18.4832 19.5219 15.2120 0.0000 0.0000 0.0000
# 4 0.0000 0.0000 0.0000 22.6229 0.0000 0.0000
# 5 0.0000 0.0000 0.0000 0.0000 32.7412 0.0000
# 6 0.0000 0.0000 0.0000 0.0000 0.0000 37.3871
#
#
#
# Elastic Compliance Matrix: (Units=1/GPa)
#
#
# Indices 1 2 3 4 5 6 
#
# 1 0.015015 -0.008638 -0.007158 0.000000 0.000000 0.000000
# 2 -0.008638 0.026322 -0.023283 0.000000 0.000000 0.000000
# 3 -0.007158 -0.023283 0.104315 0.000000 0.000000 0.000000
# 4 0.000000 0.000000 0.000000 0.044203 0.000000 0.000000
# 5 0.000000 0.000000 0.000000 0.000000 0.030543 0.000000
# 6 0.000000 0.000000 0.000000 0.000000 0.000000 0.026747
#
#
# Mechanical properties :
#
#
# Convention : Reuss Voigt Hill
#
# Bulk Modulus (GPa) = 14.81654 40.99930 27.90792
# Shear Modulus (GPa) = 14.37600 25.41611 19.89606
#
# Velocity S-wave (km/s) = 2.74181 3.64564 3.22554
# Velocity P-wave (km/s) = 4.21560 6.25782 5.33534
#
# Compressibility (1/GPa) = 0.06749214
#
# Stress axis : x y z
#
# Youngs Moduli (GPa) = 66.59921 37.99151 9.58634
#
# Poissons Ratio (x) = 0.32818 0.06862
# Poissons Ratio (y) = 0.57530 0.22320
# Poissons Ratio (z) = 0.47674 0.88457
#
# Static dielectric constant tensor:
#      x y z
#    x 1.724030 0.000000 0.000000 
#    y 0.000000 1.656400 0.000000 
#    z 0.000000 0.000000 1.667820 
# 
# From -- ./inp_files/32534.got.cif
#   From: 2010.05.17/outbox.cif.g08.bks.cpg/sg62_17_cif.got.tgz:32534.got - 2010.06.03 15:25:27.
