data_PCOD9466252
_publ_section_title
;
Structure prediction by ZEFSAII (Michael W. Deem and Ramdas Pophale) SiO2 
 PCOD9466252
Probable space group: P N M A
;
_chemical_formula_sum "Si O2"
_cell_formula_units_Z 40
_cell_length_a 9.108298
_cell_length_b 13.554978
_cell_length_c 16.123153
_cell_angle_alpha 90.000000
_cell_angle_beta 90.000000
_cell_angle_gamma 90.000000
_cell_volume 1990.609276
_symmetry_space_group_name_H-M "P N M A"
_symmetry_group_IT_number 62
_symmetry_cell_setting 'orthorhombic'
loop_
_space_group_symop_operation_xyz
x,y,z
1/2-x,-y,1/2+z
1/2+x,1/2-y,1/2-z
-x,1/2+y,-z
-x,-y,-z
1/2+x,y,1/2-z
1/2-x,1/2+y,1/2+z
x,1/2-y,z
loop_
_atom_site_type_symbol
_atom_site_label
_atom_site_fract_x
_atom_site_fract_y
_atom_site_fract_z
Si Si1 0.165760 0.636646 0.462053
Si Si2 0.523916 0.365705 0.279822
Si Si3 0.681682 0.562554 0.849094
Si Si4 0.819801 0.638008 0.424617
Si Si5 0.629889 0.536898 0.561540
O O1 0.210941 0.750000 0.449069
O O2 0.179015 0.608680 0.559207
O O3 0.269777 0.557850 0.417023
O O4 0.994496 0.627228 0.439401
O O5 0.493393 0.250000 0.272934
O O6 0.694684 0.383504 0.296074
O O7 0.470119 0.419937 0.197298
O O8 0.440206 0.411883 0.358905
O O9 0.720341 0.447614 0.859965
O O10 0.788020 0.750000 0.399690
O O11 0.732289 0.610805 0.508495
O O12 0.500000 0.500000 0.500000
#
# Coordination Sequence:
#
# PCOD9466252 Si02
#       5
#     8   8   8   8   8
#     4  10  21  40  65  91 122 161 205 251 304 360
#     4  12  25  40  61  89 125 161 198 250 312 365
#     4  11  24  41  59  91 125 158 202 251 303 366
#     4  10  22  42  66  88 120 165 208 250 304 364
#     4  11  21  38  62  91 121 157 204 259 295 360
#
# _framework density 20.094349000000001
#
# number of rings (size 3 to 8) (size 9 to 14) (size 15 to 20)
#    0.000    1.200    4.000    4.800    5.600    0.800 
#    0.000    2.000    0.000    0.000    0.000    0.000 
#    0.000    0.000    0.000    0.000    0.000    0.000 
#
# Total GULP energy -223625.242514 kJ/mol
# GULP energy per Si atom -5590.631063 kJ/mol
# Density = 2.004861 g / cm^3
# Si number density = 20.094349 Si / 1000 Ang^3
#
#
#
# Elastic Constant Matrix: (Units=GPa)
#
#
# Indices 1 2 3 4 5 6 
#
# 1 47.8253 11.3973 -9.8905 0.0000 0.0000 0.0000
# 2 11.3973 129.6914 4.5793 0.0000 0.0000 0.0000
# 3 -9.8905 4.5793 12.6144 0.0000 0.0000 0.0000
# 4 0.0000 0.0000 0.0000 14.4786 0.0000 0.0000
# 5 0.0000 0.0000 0.0000 0.0000 31.1310 0.0000
# 6 0.0000 0.0000 0.0000 0.0000 0.0000 34.4458
#
#
#
# Elastic Compliance Matrix: (Units=1/GPa)
#
#
# Indices 1 2 3 4 5 6 
#
# 1 0.026099 -0.003055 0.021572 0.000000 0.000000 0.000000
# 2 -0.003055 0.008168 -0.005361 0.000000 0.000000 0.000000
# 3 0.021572 -0.005361 0.098135 0.000000 0.000000 0.000000
# 4 0.000000 0.000000 0.000000 0.069068 0.000000 0.000000
# 5 0.000000 0.000000 0.000000 0.000000 0.032122 0.000000
# 6 0.000000 0.000000 0.000000 0.000000 0.000000 0.029031
#
#
# Mechanical properties :
#
#
# Convention : Reuss Voigt Hill
#
# Bulk Modulus (GPa) = 6.30063 22.47814 14.38938
# Shear Modulus (GPa) = 17.28817 28.28075 22.78446
#
# Velocity S-wave (km/s) = 2.93635 3.75560 3.37096
# Velocity P-wave (km/s) = 3.82604 5.47874 4.72521
#
# Compressibility (1/GPa) = 0.15871431
#
# Stress axis : x y z
#
# Youngs Moduli (GPa) = 38.31592 122.42311 10.19009
#
# Poissons Ratio (x) = 0.37404 -0.21982
# Poissons Ratio (y) = 0.11707 0.05463
# Poissons Ratio (z) = -0.82656 0.65629
#
# Static dielectric constant tensor:
#      x y z
#    x 1.742110 0.000000 0.000000 
#    y 0.000000 1.709150 0.000000 
#    z 0.000000 0.000000 1.674980 
# 
# From -- ./inp_files/16642.got.cif
#   From: 2010.05.17/outbox.cif.g08.bks.cpg/sg62_9_cif.got.tgz:16642.got - 2010.06.03 15:25:27.
