data_PCOD9466816
_publ_section_title
;
Structure prediction by ZEFSAII (Michael W. Deem and Ramdas Pophale) SiO2 
 PCOD9466816
Probable space group: P N M A
;
_chemical_formula_sum "Si O2"
_cell_formula_units_Z 64
_cell_length_a 30.611851
_cell_length_b 8.656660
_cell_length_c 12.112586
_cell_angle_alpha 90.000000
_cell_angle_beta 90.000000
_cell_angle_gamma 90.000000
_cell_volume 3209.791516
_symmetry_space_group_name_H-M "P N M A"
_symmetry_group_IT_number 62
_symmetry_cell_setting 'orthorhombic'
loop_
_space_group_symop_operation_xyz
x,y,z
1/2-x,-y,1/2+z
1/2+x,1/2-y,1/2-z
-x,1/2+y,-z
-x,-y,-z
1/2+x,y,1/2-z
1/2-x,1/2+y,1/2+z
x,1/2-y,z
loop_
_atom_site_type_symbol
_atom_site_label
_atom_site_fract_x
_atom_site_fract_y
_atom_site_fract_z
Si Si1 0.956277 0.435795 0.554242
Si Si2 0.175886 0.927179 0.234173
Si Si3 0.374022 0.935689 0.081904
Si Si4 0.378992 0.065418 0.329386
Si Si5 0.306959 0.567330 0.495151
Si Si6 0.425400 0.428473 0.712475
Si Si7 0.213436 0.068227 0.447597
Si Si8 0.048346 0.431735 0.987229
O O1 0.955121 0.250000 0.548592
O O2 0.914066 0.501315 0.491037
O O3 0.954537 0.478234 0.684048
O O4 0.000000 0.500000 0.500000
O O5 0.191204 0.750000 0.246095
O O6 0.124129 0.930110 0.255415
O O7 0.199312 0.035010 0.322232
O O8 0.182299 0.984225 0.110149
O O9 0.376648 0.750000 0.085630
O O10 0.377125 0.002360 0.205090
O O11 0.327699 0.976468 0.024713
O O12 0.376945 0.250000 0.329352
O O13 0.338602 0.998732 0.400397
O O14 0.422944 0.011335 0.392166
O O15 0.314085 0.750000 0.504367
O O16 0.256680 0.528639 0.470850
O O17 0.435840 0.250000 0.681674
O O18 0.429255 0.532374 0.604853
O O19 0.222427 0.250000 0.464148
O O20 0.046645 0.250000 0.966066
O O21 0.000000 0.500000 0.000000
#
# Coordination Sequence:
#
# PCOD9466816 Si02
#       8
#     8   8   8   8   8   8   8   8
#     4  11  24  43  67  97 133 174 220 269 326 388
#     4  11  22  42  70  97 131 170 217 272 329 389
#     4  11  25  45  68  96 133 173 219 271 330 394
#     4  12  26  46  69  95 133 174 220 272 332 393
#     4  12  26  44  68  98 133 173 221 271 330 393
#     4  10  22  42  68  95 130 171 216 270 327 384
#     4  11  25  44  68  98 133 173 220 270 327 392
#     4  12  26  44  69  98 133 173 221 270 328 390
#
# _framework density 19.938988999999999
#
# number of rings (size 3 to 8) (size 9 to 14) (size 15 to 20)
#    0.000    0.750    2.500    4.875    3.500    3.000 
#    0.000    0.000    0.000    0.000    0.000    0.000 
#    0.000    0.000    0.000    0.000    0.000    0.000 
#
# Total GULP energy -358133.693684 kJ/mol
# GULP energy per Si atom -5595.838964 kJ/mol
# Density = 1.989361 g / cm^3
# Si number density = 19.938989 Si / 1000 Ang^3
#
#
#
# Elastic Constant Matrix: (Units=GPa)
#
#
# Indices 1 2 3 4 5 6 
#
# 1 80.3113 15.1448 7.8889 0.0000 0.0000 0.0000
# 2 15.1448 74.0572 8.2186 0.0000 0.0000 0.0000
# 3 7.8889 8.2186 85.2068 0.0000 0.0000 0.0000
# 4 0.0000 0.0000 0.0000 33.6892 0.0000 0.0000
# 5 0.0000 0.0000 0.0000 0.0000 30.6223 0.0000
# 6 0.0000 0.0000 0.0000 0.0000 0.0000 35.0078
#
#
#
# Elastic Compliance Matrix: (Units=1/GPa)
#
#
# Indices 1 2 3 4 5 6 
#
# 1 0.013028 -0.002558 -0.000960 0.000000 0.000000 0.000000
# 2 -0.002558 0.014151 -0.001128 0.000000 0.000000 0.000000
# 3 -0.000960 -0.001128 0.011934 0.000000 0.000000 0.000000
# 4 0.000000 0.000000 0.000000 0.029683 0.000000 0.000000
# 5 0.000000 0.000000 0.000000 0.000000 0.032656 0.000000
# 6 0.000000 0.000000 0.000000 0.000000 0.000000 0.028565
#
#
# Mechanical properties :
#
#
# Convention : Reuss Voigt Hill
#
# Bulk Modulus (GPa) = 33.53185 33.56444 33.54815
# Shear Modulus (GPa) = 33.50105 33.75206 33.62655
#
# Velocity S-wave (km/s) = 4.10344 4.11879 4.11112
# Velocity P-wave (km/s) = 6.26935 6.28405 6.27671
#
# Compressibility (1/GPa) = 0.02982239
#
# Stress axis : x y z
#
# Youngs Moduli (GPa) = 76.75695 70.66466 83.79553
#
# Poissons Ratio (x) = 0.18075 0.08040
# Poissons Ratio (y) = 0.19633 0.09453
# Poissons Ratio (z) = 0.07365 0.07972
#
# Static dielectric constant tensor:
#      x y z
#    x 1.941350 0.000000 0.000000 
#    y 0.000000 1.674010 0.000000 
#    z 0.000000 0.000000 1.675860 
# 
# From -- ./inp_files/15754.got.cif
#   From: 2010.05.17/outbox.cif.g08.bks.cpg/sg62_8_cif.got.tgz:15754.got - 2010.06.03 15:25:27.
