data_PCOD9466949
_publ_section_title
;
Structure prediction by ZEFSAII (Michael W. Deem and Ramdas Pophale) SiO2 
 PCOD9466949
Probable space group: P N M A
;
_chemical_formula_sum "Si O2"
_cell_formula_units_Z 56
_cell_length_a 14.749077
_cell_length_b 8.862690
_cell_length_c 21.338496
_cell_angle_alpha 90.000000
_cell_angle_beta 90.000000
_cell_angle_gamma 90.000000
_cell_volume 2789.293453
_symmetry_space_group_name_H-M "P N M A"
_symmetry_group_IT_number 62
_symmetry_cell_setting 'orthorhombic'
loop_
_space_group_symop_operation_xyz
x,y,z
1/2-x,-y,1/2+z
1/2+x,1/2-y,1/2-z
-x,1/2+y,-z
-x,-y,-z
1/2+x,y,1/2-z
1/2-x,1/2+y,1/2+z
x,1/2-y,z
loop_
_atom_site_type_symbol
_atom_site_label
_atom_site_fract_x
_atom_site_fract_y
_atom_site_fract_z
Si Si1 0.914979 0.069694 0.464323
Si Si2 0.420357 0.569227 0.173205
Si Si3 0.892187 0.070518 0.881361
Si Si4 0.786127 0.929516 0.989143
Si Si5 0.302866 0.071586 0.281759
Si Si6 0.416626 0.071160 0.407882
Si Si7 0.114188 0.930404 0.266517
O O1 0.923610 0.250000 0.461882
O O2 0.819631 0.034259 0.498152
O O3 0.910145 0.004552 0.394399
O O4 0.000000 0.000000 0.500000
O O5 0.414979 0.750000 0.168127
O O6 0.345176 0.512525 0.222038
O O7 0.519275 0.528484 0.201301
O O8 0.880860 0.250000 0.888958
O O9 0.890369 0.034721 0.807586
O O10 0.816088 0.983094 0.920165
O O11 0.989109 0.017917 0.908030
O O12 0.798648 0.750000 0.995150
O O13 0.850450 0.014636 0.037739
O O14 0.301407 0.250000 0.269863
O O15 0.366535 0.043191 0.341730
O O16 0.201698 0.012652 0.293996
O O17 0.433866 0.250000 0.414167
O O18 0.125767 0.750000 0.273067
#
# Coordination Sequence:
#
# PCOD9466949 Si02
#       7
#     8   8   8   8   8   8   8
#     4  11  26  46  68  96 129 171 218 267 322 378
#     4  11  23  43  68  96 129 169 213 262 318 380
#     4  11  22  41  66  95 128 167 210 258 316 379
#     4  11  25  43  64  91 126 169 213 262 317 378
#     4  11  24  40  63  96 130 168 212 265 322 378
#     4  11  24  41  63  94 128 166 211 261 319 378
#     4  10  23  40  64  94 126 167 210 256 315 379
#
# _framework density 20.076768000000001
#
# number of rings (size 3 to 8) (size 9 to 14) (size 15 to 20)
#    0.000    1.143    1.429    3.857    2.000    8.571 
#    0.000    0.000    0.000    0.000    0.000    0.000 
#    0.000    0.000    0.000    0.000    0.000    0.000 
#
# Total GULP energy -313440.757438 kJ/mol
# GULP energy per Si atom -5597.156383 kJ/mol
# Density = 2.003107 g / cm^3
# Si number density = 20.076768 Si / 1000 Ang^3
#
#
#
# Elastic Constant Matrix: (Units=GPa)
#
#
# Indices 1 2 3 4 5 6 
#
# 1 87.0439 13.9432 -7.0024 0.0000 0.0000 0.0000
# 2 13.9432 18.7777 8.7945 0.0000 0.0000 0.0000
# 3 -7.0024 8.7945 38.2207 0.0000 0.0000 0.0000
# 4 0.0000 0.0000 0.0000 28.2639 0.0000 0.0000
# 5 0.0000 0.0000 0.0000 0.0000 20.4697 0.0000
# 6 0.0000 0.0000 0.0000 0.0000 0.0000 33.6721
#
#
#
# Elastic Compliance Matrix: (Units=1/GPa)
#
#
# Indices 1 2 3 4 5 6 
#
# 1 0.014021 -0.013017 0.005564 0.000000 0.000000 0.000000
# 2 -0.013017 0.071772 -0.018900 0.000000 0.000000 0.000000
# 3 0.005564 -0.018900 0.031532 0.000000 0.000000 0.000000
# 4 0.000000 0.000000 0.000000 0.035381 0.000000 0.000000
# 5 0.000000 0.000000 0.000000 0.000000 0.048853 0.000000
# 6 0.000000 0.000000 0.000000 0.000000 0.000000 0.029698
#
#
# Mechanical properties :
#
#
# Convention : Reuss Voigt Hill
#
# Bulk Modulus (GPa) = 15.47511 19.50144 17.48828
# Shear Modulus (GPa) = 16.36647 25.03493 20.70070
#
# Velocity S-wave (km/s) = 2.85826 3.53506 3.21452
# Velocity P-wave (km/s) = 4.31481 5.13778 4.74417
#
# Compressibility (1/GPa) = 0.06461988
#
# Stress axis : x y z
#
# Youngs Moduli (GPa) = 71.32038 13.93298 31.71384
#
# Poissons Ratio (x) = 0.18137 -0.17646
# Poissons Ratio (y) = 0.92840 0.59938
# Poissons Ratio (z) = -0.39683 0.26333
#
# Static dielectric constant tensor:
#      x y z
#    x 1.699300 0.000000 0.000000 
#    y 0.000000 1.679390 0.000000 
#    z 0.000000 0.000000 1.691110 
# 
# From -- ./inp_files/27294.got.cif
#   From: 2010.05.17/outbox.cif.g08.bks.cpg/sg62_14_cif.got.tgz:27294.got - 2010.06.03 15:25:27.
