data_PCOD9466546
_publ_section_title
;
Structure prediction by ZEFSAII (Michael W. Deem and Ramdas Pophale) SiO2 
 PCOD9466546
Probable space group: P N M A
;
_chemical_formula_sum "Si O2"
_cell_formula_units_Z 64
_cell_length_a 8.342876
_cell_length_b 33.159023
_cell_length_c 11.227885
_cell_angle_alpha 90.000000
_cell_angle_beta 90.000000
_cell_angle_gamma 90.000000
_cell_volume 3106.100264
_symmetry_space_group_name_H-M "P N M A"
_symmetry_group_IT_number 62
_symmetry_cell_setting 'orthorhombic'
loop_
_space_group_symop_operation_xyz
x,y,z
1/2-x,-y,1/2+z
1/2+x,1/2-y,1/2-z
-x,1/2+y,-z
-x,-y,-z
1/2+x,y,1/2-z
1/2-x,1/2+y,1/2+z
x,1/2-y,z
loop_
_atom_site_type_symbol
_atom_site_label
_atom_site_fract_x
_atom_site_fract_y
_atom_site_fract_z
Si Si1 0.219634 0.703795 0.664261
Si Si2 0.968021 0.049368 0.321758
Si Si3 0.547537 0.915866 0.199199
Si Si4 0.045474 0.627185 0.044278
Si Si5 0.754098 0.529270 0.342772
Si Si6 0.589708 0.795329 0.580812
Si Si7 0.319212 0.376566 0.034856
Si Si8 0.675685 0.943870 0.580329
O O1 0.157870 0.750000 0.646692
O O2 0.407074 0.704402 0.630348
O O3 0.143195 0.668042 0.585348
O O4 0.195363 0.693723 0.803566
O O5 0.887396 0.089439 0.376304
O O6 0.958625 0.050680 0.179345
O O7 0.148950 0.046191 0.368293
O O8 0.855307 0.011264 0.349328
O O9 0.537499 0.890935 0.322674
O O10 0.381016 0.934003 0.154708
O O11 0.650668 0.956469 0.229414
O O12 0.614720 0.888053 0.095221
O O13 0.872317 0.621125 0.982911
O O14 0.168493 0.601841 0.964513
O O15 0.094253 0.673390 0.027304
O O16 0.647065 0.531095 0.460595
O O17 0.630685 0.750000 0.544072
#
# Coordination Sequence:
#
# PCOD9466546 Si02
#       8
#     8   8   8   8   8   8   8   8
#     4   9  19  36  59  87 119 152 186 238 297 356
#     4  12  24  38  61  85 119 154 202 253 302 350
#     4  11  22  41  60  84 115 163 199 251 297 355
#     4  10  22  39  60  86 117 155 202 240 302 360
#     4  11  24  41  61  81 119 157 205 247 304 351
#     4   9  18  36  60  88 120 152 190 239 296 354
#     4  11  22  38  61  86 117 156 201 246 300 358
#     4  11  24  39  57  87 115 153 196 248 296 356
#
# _framework density 20.604616
#
# number of rings (size 3 to 8) (size 9 to 14) (size 15 to 20)
#    0.000    1.500    2.500    2.625    1.750    3.000 
#    0.000    3.750    0.000    0.000    0.000    0.000 
#    0.000    0.000    0.000    0.000    0.000    0.000 
#
# Total GULP energy -357289.994483 kJ/mol
# GULP energy per Si atom -5582.656164 kJ/mol
# Density = 2.055772 g / cm^3
# Si number density = 20.604616 Si / 1000 Ang^3
#
#
#
# Elastic Constant Matrix: (Units=GPa)
#
#
# Indices 1 2 3 4 5 6 
#
# 1 32.2909 12.7029 2.7650 0.0000 0.0000 0.0000
# 2 12.7029 114.8576 50.4774 0.0000 0.0000 0.0000
# 3 2.7650 50.4774 84.2893 0.0000 0.0000 0.0000
# 4 0.0000 0.0000 0.0000 20.3953 0.0000 0.0000
# 5 0.0000 0.0000 0.0000 0.0000 31.1646 0.0000
# 6 0.0000 0.0000 0.0000 0.0000 0.0000 23.9411
#
#
#
# Elastic Compliance Matrix: (Units=1/GPa)
#
#
# Indices 1 2 3 4 5 6 
#
# 1 0.032512 -0.004244 0.001475 0.000000 0.000000 0.000000
# 2 -0.004244 0.012370 -0.007269 0.000000 0.000000 0.000000
# 3 0.001475 -0.007269 0.016169 0.000000 0.000000 0.000000
# 4 0.000000 0.000000 0.000000 0.049031 0.000000 0.000000
# 5 0.000000 0.000000 0.000000 0.000000 0.032088 0.000000
# 6 0.000000 0.000000 0.000000 0.000000 0.000000 0.041769
#
#
# Mechanical properties :
#
#
# Convention : Reuss Voigt Hill
#
# Bulk Modulus (GPa) = 24.40511 40.36981 32.38746
# Shear Modulus (GPa) = 22.97030 26.13301 24.55166
#
# Velocity S-wave (km/s) = 3.34250 3.56520 3.45564
# Velocity P-wave (km/s) = 5.17365 6.04836 5.62802
#
# Compressibility (1/GPa) = 0.04097502
#
# Stress axis : x y z
#
# Youngs Moduli (GPa) = 30.75814 80.83882 61.84852
#
# Poissons Ratio (x) = 0.34307 -0.09123
# Poissons Ratio (y) = 0.13054 0.44957
# Poissons Ratio (z) = -0.04537 0.58760
#
# Static dielectric constant tensor:
#      x y z
#    x 1.765890 0.000000 0.000000 
#    y 0.000000 1.768590 0.000000 
#    z 0.000000 0.000000 1.750470 
# 
# From -- ./inp_files/11541.got.cif
#   From: 2010.05.17/outbox.cif.g08.bks.cpg/sg62_6_cif.got.tgz:11541.got - 2010.06.03 15:25:27.
