data_PCOD9466533
_publ_section_title
;
Structure prediction by ZEFSAII (Michael W. Deem and Ramdas Pophale) SiO2 
 PCOD9466533
Probable space group: P N M A
;
_chemical_formula_sum "Si O2"
_cell_formula_units_Z 20
_cell_length_a 11.024435
_cell_length_b 5.597885
_cell_length_c 13.680583
_cell_angle_alpha 90.000000
_cell_angle_beta 90.000000
_cell_angle_gamma 90.000000
_cell_volume 844.276923
_symmetry_space_group_name_H-M "P N M A"
_symmetry_group_IT_number 62
_symmetry_cell_setting 'orthorhombic'
loop_
_space_group_symop_operation_xyz
x,y,z
1/2-x,-y,1/2+z
1/2+x,1/2-y,1/2-z
-x,1/2+y,-z
-x,-y,-z
1/2+x,y,1/2-z
1/2-x,1/2+y,1/2+z
x,1/2-y,z
loop_
_atom_site_type_symbol
_atom_site_label
_atom_site_fract_x
_atom_site_fract_y
_atom_site_fract_z
Si Si1 0.037039 0.998925 0.113640
Si Si2 0.649296 0.250000 0.043764
Si Si3 0.643161 0.750000 0.943212
Si Si4 0.830550 0.250000 0.212968
O O1 0.098437 0.750000 0.139177
O O2 0.102049 0.250000 0.131560
O O3 0.912311 0.029024 0.173385
O O4 0.000000 0.000000 0.000000
O O5 0.503660 0.250000 0.043752
O O6 0.706383 0.250000 0.152308
O O7 0.688525 0.500190 0.991921
O O8 0.662107 0.750000 0.827852
#
# Coordination Sequence:
#
# PCOD9466533 Si02
#       4
#     8   4   4   4
#     4   8  16  30  50  83 122 146 185 257 307 343
#     4  10  24  45  62  93 129 168 209 263 306 390
#     4  10  24  45  65  88 133 168 208 256 323 377
#     4  10  22  38  69  87 124 166 215 247 321 385
#
# _framework density 23.688908999999999
#
# number of rings (size 3 to 8) (size 9 to 14) (size 15 to 20)
#    1.200    1.600    0.000    0.000    5.600    0.000 
#    7.200    0.000    0.000    0.000    0.000    0.000 
#    0.000    0.000    0.000    0.000    0.000    0.000 
#
# Total GULP energy -111504.166342 kJ/mol
# GULP energy per Si atom -5575.208317 kJ/mol
# Density = 2.363499 g / cm^3
# Si number density = 23.688909 Si / 1000 Ang^3
#
#
#
# Elastic Constant Matrix: (Units=GPa)
#
#
# Indices 1 2 3 4 5 6 
#
# 1 43.1301 26.4404 10.5162 0.0000 0.0000 0.0000
# 2 26.4404 263.0868 56.6161 0.0000 0.0000 0.0000
# 3 10.5162 56.6161 154.7363 0.0000 0.0000 0.0000
# 4 0.0000 0.0000 0.0000 13.8309 0.0000 0.0000
# 5 0.0000 0.0000 0.0000 0.0000 32.6370 0.0000
# 6 0.0000 0.0000 0.0000 0.0000 0.0000 20.6821
#
#
#
# Elastic Compliance Matrix: (Units=1/GPa)
#
#
# Indices 1 2 3 4 5 6 
#
# 1 0.024808 -0.002312 -0.000840 0.000000 0.000000 0.000000
# 2 -0.002312 0.004341 -0.001431 0.000000 0.000000 0.000000
# 3 -0.000840 -0.001431 0.007043 0.000000 0.000000 0.000000
# 4 0.000000 0.000000 0.000000 0.072302 0.000000 0.000000
# 5 0.000000 0.000000 0.000000 0.000000 0.030640 0.000000
# 6 0.000000 0.000000 0.000000 0.000000 0.000000 0.048351
#
#
# Mechanical properties :
#
#
# Convention : Reuss Voigt Hill
#
# Bulk Modulus (GPa) = 37.00204 72.01095 54.50650
# Shear Modulus (GPa) = 24.31175 37.92204 31.11690
#
# Velocity S-wave (km/s) = 3.20706 4.00538 3.62824
# Velocity P-wave (km/s) = 5.41918 7.20107 6.37271
#
# Compressibility (1/GPa) = 0.02702554
#
# Stress axis : x y z
#
# Youngs Moduli (GPa) = 40.30939 230.33775 141.97706
#
# Poissons Ratio (x) = 0.53265 0.11925
# Poissons Ratio (y) = 0.09321 0.20321
# Poissons Ratio (z) = 0.03386 0.32969
#
# Static dielectric constant tensor:
#      x y z
#    x 1.906700 0.000000 0.000000 
#    y 0.000000 1.984630 0.000000 
#    z 0.000000 0.000000 1.855170 
# 
# From -- ./inp_files/12649.got.cif
#   From: 2010.05.17/outbox.cif.g08.bks.cpg/sg62_7_cif.got.tgz:12649.got - 2010.06.03 15:25:27.
