data_PCOD9466758
_publ_section_title
;
Structure prediction by ZEFSAII (Michael W. Deem and Ramdas Pophale) SiO2 
 PCOD9466758
Probable space group: P N M A
;
_chemical_formula_sum "Si O2"
_cell_formula_units_Z 56
_cell_length_a 19.199826
_cell_length_b 8.229815
_cell_length_c 15.855550
_cell_angle_alpha 90.000000
_cell_angle_beta 90.000000
_cell_angle_gamma 90.000000
_cell_volume 2505.351565
_symmetry_space_group_name_H-M "P N M A"
_symmetry_group_IT_number 62
_symmetry_cell_setting 'orthorhombic'
loop_
_space_group_symop_operation_xyz
x,y,z
1/2-x,-y,1/2+z
1/2+x,1/2-y,1/2-z
-x,1/2+y,-z
-x,-y,-z
1/2+x,y,1/2-z
1/2-x,1/2+y,1/2+z
x,1/2-y,z
loop_
_atom_site_type_symbol
_atom_site_label
_atom_site_fract_x
_atom_site_fract_y
_atom_site_fract_z
Si Si1 0.767671 0.436755 0.498052
Si Si2 0.382678 0.436823 0.504477
Si Si3 0.147054 0.436791 0.660137
Si Si4 0.078359 0.553233 0.818989
Si Si5 0.350370 0.563469 0.841173
Si Si6 0.077880 0.443313 0.185555
Si Si7 0.489992 0.062185 0.906206
O O1 0.744950 0.250000 0.498395
O O2 0.700487 0.549809 0.496911
O O3 0.811338 0.469010 0.412501
O O4 0.810386 0.472790 0.583875
O O5 0.405235 0.250000 0.510713
O O6 0.408368 0.502257 0.414565
O O7 0.408569 0.525713 0.587716
O O8 0.170463 0.250000 0.659463
O O9 0.140076 0.500595 0.755755
O O10 0.066304 0.444342 0.632763
O O11 0.077055 0.750000 0.817566
O O12 0.000279 0.493401 0.795374
O O13 0.325321 0.750000 0.839965
O O14 0.359117 0.494159 0.745891
O O15 0.431631 0.552660 0.867067
O O16 0.077503 0.250000 0.199572
O O17 0.465459 0.250000 0.903326
O O18 0.500000 0.000000 0.000000
#
# Coordination Sequence:
#
# PCOD9466758 Si02
#       7
#     8   8   8   8   8   8   8
#     4  12  26  43  64  89 127 171 211 254 311 380
#     4  11  25  44  66  90 124 166 214 264 310 368
#     4  11  23  38  62  95 129 163 206 258 311 371
#     4  10  22  42  67  96 127 165 208 257 317 371
#     4  11  22  38  63  93 128 163 204 256 310 375
#     4  10  22  41  67  96 127 163 207 257 314 371
#     4  11  21  33  56  90 127 165 203 252 313 371
#
# _framework density 22.352150999999999
#
# number of rings (size 3 to 8) (size 9 to 14) (size 15 to 20)
#    0.000    1.143    2.857    3.429    0.000    5.143 
#    0.000    1.429    0.000    0.000    0.000    0.000 
#    0.000    0.000    0.000    0.000    0.000    0.000 
#
# Total GULP energy -312759.513953 kJ/mol
# GULP energy per Si atom -5584.991321 kJ/mol
# Density = 2.230128 g / cm^3
# Si number density = 22.352151 Si / 1000 Ang^3
#
#
#
# Elastic Constant Matrix: (Units=GPa)
#
#
# Indices 1 2 3 4 5 6 
#
# 1 39.5549 -15.4097 8.7087 0.0000 0.0000 0.0000
# 2 -15.4097 36.2637 0.7099 0.0000 0.0000 0.0000
# 3 8.7087 0.7099 141.7565 0.0000 0.0000 0.0000
# 4 0.0000 0.0000 0.0000 20.5734 0.0000 0.0000
# 5 0.0000 0.0000 0.0000 0.0000 18.4501 0.0000
# 6 0.0000 0.0000 0.0000 0.0000 0.0000 19.9065
#
#
#
# Elastic Compliance Matrix: (Units=1/GPa)
#
#
# Indices 1 2 3 4 5 6 
#
# 1 0.030832 0.013140 -0.001960 0.000000 0.000000 0.000000
# 2 0.013140 0.033178 -0.000973 0.000000 0.000000 0.000000
# 3 -0.001960 -0.000973 0.007180 0.000000 0.000000 0.000000
# 4 0.000000 0.000000 0.000000 0.048606 0.000000 0.000000
# 5 0.000000 0.000000 0.000000 0.000000 0.054200 0.000000
# 6 0.000000 0.000000 0.000000 0.000000 0.000000 0.050235
#
#
# Mechanical properties :
#
#
# Convention : Reuss Voigt Hill
#
# Bulk Modulus (GPa) = 10.91667 22.84366 16.88017
# Shear Modulus (GPa) = 21.33538 26.69043 24.01290
#
# Velocity S-wave (km/s) = 3.09287 3.45931 3.28121
# Velocity P-wave (km/s) = 4.20107 5.11838 4.68224
#
# Compressibility (1/GPa) = 0.09160303
#
# Stress axis : x y z
#
# Youngs Moduli (GPa) = 32.43398 30.14008 139.28292
#
# Poissons Ratio (x) = -0.39604 0.27299
# Poissons Ratio (y) = -0.42618 0.13558
# Poissons Ratio (z) = 0.06357 0.02934
#
# Static dielectric constant tensor:
#      x y z
#    x 1.815220 0.000000 0.000000 
#    y 0.000000 1.786000 0.000000 
#    z 0.000000 0.000000 1.910260 
# 
# From -- ./inp_files/20216.got.cif
#   From: 2010.05.17/outbox.cif.g08.bks.cpg/sg62_11_cif.got.tgz:20216.got - 2010.06.03 15:25:27.
