data_PCOD9466959
_publ_section_title
;
Structure prediction by ZEFSAII (Michael W. Deem and Ramdas Pophale) SiO2 
 PCOD9466959
Probable space group: P N M A
;
_chemical_formula_sum "Si O2"
_cell_formula_units_Z 44
_cell_length_a 5.411247
_cell_length_b 25.144357
_cell_length_c 14.342386
_cell_angle_alpha 90.000000
_cell_angle_beta 90.000000
_cell_angle_gamma 90.000000
_cell_volume 1951.458405
_symmetry_space_group_name_H-M "P N M A"
_symmetry_group_IT_number 62
_symmetry_cell_setting 'orthorhombic'
loop_
_space_group_symop_operation_xyz
x,y,z
1/2-x,-y,1/2+z
1/2+x,1/2-y,1/2-z
-x,1/2+y,-z
-x,-y,-z
1/2+x,y,1/2-z
1/2-x,1/2+y,1/2+z
x,1/2-y,z
loop_
_atom_site_type_symbol
_atom_site_label
_atom_site_fract_x
_atom_site_fract_y
_atom_site_fract_z
Si Si1 0.993957 0.627773 0.970392
Si Si2 0.493800 0.637145 0.090214
Si Si3 0.994744 0.973181 0.343891
Si Si4 0.005263 0.982549 0.864815
Si Si5 0.024677 0.250000 0.690253
Si Si6 0.058795 0.812727 0.792931
O O1 0.998873 0.577124 0.901056
O O2 0.007402 0.677806 0.900921
O O3 0.739742 0.629282 0.027937
O O4 0.240106 0.628760 0.032964
O O5 0.500025 0.590317 0.167965
O O6 0.494549 0.696036 0.131206
O O7 0.744158 0.988455 0.395649
O O8 0.992648 0.005909 0.246876
O O9 0.242126 0.990017 0.396368
O O10 0.290772 0.250000 0.740325
O O11 0.324894 0.835785 0.763601
O O12 0.072521 0.750000 0.772142
#
# Coordination Sequence:
#
# PCOD9466959 Si02
#       6
#     8   8   8   8   4   8
#     4  12  26  43  73 108 147 180 236 300 373 411
#     4  12  28  46  74 110 142 182 240 314 356 412
#     4  10  23  42  68  97 144 185 237 284 351 429
#     4  10  23  40  70  98 136 192 224 284 354 439
#     4  12  30  52  84 106 142 198 254 284 368 444
#     4  10  23  41  67  96 136 189 235 279 346 429
#
# _framework density 22.547241
#
# number of rings (size 3 to 8) (size 9 to 14) (size 15 to 20)
#    0.000    1.091    0.000    4.364   12.727    4.364 
#    0.000    0.000    0.000    0.000    0.000    0.000 
#    0.000    0.000    0.000    0.000    0.000    0.000 
#
# Total GULP energy -245923.096685 kJ/mol
# GULP energy per Si atom -5589.161288 kJ/mol
# Density = 2.249592 g / cm^3
# Si number density = 22.547241 Si / 1000 Ang^3
#
#
#
# Elastic Constant Matrix: (Units=GPa)
#
#
# Indices 1 2 3 4 5 6 
#
# 1 164.0706 29.0283 5.4170 0.0000 0.0000 0.0000
# 2 29.0283 110.5956 29.0425 0.0000 0.0000 0.0000
# 3 5.4170 29.0425 77.2319 0.0000 0.0000 0.0000
# 4 0.0000 0.0000 0.0000 44.8708 0.0000 0.0000
# 5 0.0000 0.0000 0.0000 0.0000 16.7358 0.0000
# 6 0.0000 0.0000 0.0000 0.0000 0.0000 26.4903
#
#
#
# Elastic Compliance Matrix: (Units=1/GPa)
#
#
# Indices 1 2 3 4 5 6 
#
# 1 0.006395 -0.001732 0.000203 0.000000 0.000000 0.000000
# 2 -0.001732 0.010502 -0.003828 0.000000 0.000000 0.000000
# 3 0.000203 -0.003828 0.014373 0.000000 0.000000 0.000000
# 4 0.000000 0.000000 0.000000 0.022286 0.000000 0.000000
# 5 0.000000 0.000000 0.000000 0.000000 0.059752 0.000000
# 6 0.000000 0.000000 0.000000 0.000000 0.000000 0.037750
#
#
# Mechanical properties :
#
#
# Convention : Reuss Voigt Hill
#
# Bulk Modulus (GPa) = 48.64710 53.20819 50.92765
# Shear Modulus (GPa) = 29.65203 36.84673 33.24938
#
# Velocity S-wave (km/s) = 3.63037 4.04691 3.84429
# Velocity P-wave (km/s) = 6.26061 6.74436 6.50699
#
# Compressibility (1/GPa) = 0.02055621
#
# Stress axis : x y z
#
# Youngs Moduli (GPa) = 156.38151 95.22373 69.57420
#
# Poissons Ratio (x) = 0.16489 -0.01410
# Poissons Ratio (y) = 0.27079 0.26630
# Poissons Ratio (z) = -0.03169 0.36448
#
# Static dielectric constant tensor:
#      x y z
#    x 1.864470 0.000000 0.000000 
#    y 0.000000 1.830680 0.000000 
#    z 0.000000 0.000000 0.440840 
# 
# From -- ./inp_files/16213.got.cif
#   From: 2010.05.17/outbox.cif.g08.bks.cpg/sg62_9_cif.got.tgz:16213.got - 2010.06.03 15:25:27.
