data_PCOD9466152
_publ_section_title
;
Structure prediction by ZEFSAII (Michael W. Deem and Ramdas Pophale) SiO2 
 PCOD9466152
Probable space group: P N M A
;
_chemical_formula_sum "Si O2"
_cell_formula_units_Z 48
_cell_length_a 19.973521
_cell_length_b 13.914158
_cell_length_c 9.041871
_cell_angle_alpha 90.000000
_cell_angle_beta 90.000000
_cell_angle_gamma 90.000000
_cell_volume 2512.869111
_symmetry_space_group_name_H-M "P N M A"
_symmetry_group_IT_number 62
_symmetry_cell_setting 'orthorhombic'
loop_
_space_group_symop_operation_xyz
x,y,z
1/2-x,-y,1/2+z
1/2+x,1/2-y,1/2-z
-x,1/2+y,-z
-x,-y,-z
1/2+x,y,1/2-z
1/2-x,1/2+y,1/2+z
x,1/2-y,z
loop_
_atom_site_type_symbol
_atom_site_label
_atom_site_fract_x
_atom_site_fract_y
_atom_site_fract_z
Si Si1 0.599183 0.491638 0.289992
Si Si2 0.021792 0.636769 0.756615
Si Si3 0.347505 0.452509 0.397115
Si Si4 0.518099 0.862551 0.094455
Si Si5 0.367261 0.639166 0.211837
Si Si6 0.798466 0.637399 0.606070
O O1 0.535516 0.425941 0.334554
O O2 0.631686 0.539998 0.432303
O O3 0.570870 0.571001 0.177263
O O4 0.652042 0.423739 0.208092
O O5 0.011327 0.750000 0.780578
O O6 0.094310 0.604863 0.811855
O O7 0.015193 0.617274 0.580684
O O8 0.346122 0.559827 0.329681
O O9 0.276434 0.401612 0.379526
O O10 0.534941 0.750000 0.111404
O O11 0.444611 0.877356 0.164611
O O12 0.360999 0.750000 0.262500
O O13 0.323916 0.627651 0.062820
O O14 0.802496 0.750000 0.644282
#
# Coordination Sequence:
#
# PCOD9466152 Si02
#       6
#     8   8   8   8   8   8
#     4  12  23  40  64  98 125 160 209 261 316 364
#     4  11  22  39  63  92 125 165 214 259 305 365
#     4  12  25  40  60  97 131 164 197 263 322 370
#     4  10  21  39  66  93 121 164 213 257 303 368
#     4  10  21  41  65  89 121 166 212 254 306 374
#     4  11  24  44  65  85 123 174 213 249 306 378
#
# _framework density 19.101671
#
# number of rings (size 3 to 8) (size 9 to 14) (size 15 to 20)
#    0.000    1.000    3.333    4.000    0.000    2.667 
#    0.000    0.833    0.000    0.000    0.000    0.000 
#    0.000    0.000    0.000    0.000    0.000    0.000 
#
# Total GULP energy -268549.489682 kJ/mol
# GULP energy per Si atom -5594.781035 kJ/mol
# Density = 1.905820 g / cm^3
# Si number density = 19.101671 Si / 1000 Ang^3
#
#
#
# Elastic Constant Matrix: (Units=GPa)
#
#
# Indices 1 2 3 4 5 6 
#
# 1 123.5607 32.8971 10.6861 0.0000 0.0000 0.0000
# 2 32.8971 71.8761 16.6539 0.0000 0.0000 0.0000
# 3 10.6861 16.6539 19.5999 0.0000 0.0000 0.0000
# 4 0.0000 0.0000 0.0000 17.5017 0.0000 0.0000
# 5 0.0000 0.0000 0.0000 0.0000 11.7380 0.0000
# 6 0.0000 0.0000 0.0000 0.0000 0.0000 36.1791
#
#
#
# Elastic Compliance Matrix: (Units=1/GPa)
#
#
# Indices 1 2 3 4 5 6 
#
# 1 0.009267 -0.003824 -0.001804 0.000000 0.000000 0.000000
# 2 -0.003824 0.018901 -0.013975 0.000000 0.000000 0.000000
# 3 -0.001804 -0.013975 0.063879 0.000000 0.000000 0.000000
# 4 0.000000 0.000000 0.000000 0.057137 0.000000 0.000000
# 5 0.000000 0.000000 0.000000 0.000000 0.085193 0.000000
# 6 0.000000 0.000000 0.000000 0.000000 0.000000 0.027640
#
#
# Mechanical properties :
#
#
# Convention : Reuss Voigt Hill
#
# Bulk Modulus (GPa) = 18.92446 37.27901 28.10174
# Shear Modulus (GPa) = 15.68199 23.40375 19.54287
#
# Velocity S-wave (km/s) = 2.86837 3.50411 3.20206
# Velocity P-wave (km/s) = 4.57152 5.99418 5.33053
#
# Compressibility (1/GPa) = 0.05284165
#
# Stress axis : x y z
#
# Youngs Moduli (GPa) = 107.90767 52.90725 15.65463
#
# Poissons Ratio (x) = 0.20230 0.02824
# Poissons Ratio (y) = 0.41259 0.21878
# Poissons Ratio (z) = 0.19463 0.73940
#
# Static dielectric constant tensor:
#      x y z
#    x 1.632450 0.000000 0.000000 
#    y 0.000000 1.664410 0.000000 
#    z 0.000000 0.000000 1.638670 
# 
# From -- ./inp_files/7610.got.cif
#   From: 2010.05.17/outbox.cif.g08.bks.cpg/sg62_4_cif.got.tgz:7610.got - 2010.06.03 15:25:27.
