data_PCOD9466208
_publ_section_title
;
Structure prediction by ZEFSAII (Michael W. Deem and Ramdas Pophale) SiO2 
 PCOD9466208
Probable space group: P N M A
;
_chemical_formula_sum "Si O2"
_cell_formula_units_Z 48
_cell_length_a 14.214521
_cell_length_b 8.945849
_cell_length_c 20.630948
_cell_angle_alpha 90.000000
_cell_angle_beta 90.000000
_cell_angle_gamma 90.000000
_cell_volume 2623.451122
_symmetry_space_group_name_H-M "P N M A"
_symmetry_group_IT_number 62
_symmetry_cell_setting 'orthorhombic'
loop_
_space_group_symop_operation_xyz
x,y,z
1/2-x,-y,1/2+z
1/2+x,1/2-y,1/2-z
-x,1/2+y,-z
-x,-y,-z
1/2+x,y,1/2-z
1/2-x,1/2+y,1/2+z
x,1/2-y,z
loop_
_atom_site_type_symbol
_atom_site_label
_atom_site_fract_x
_atom_site_fract_y
_atom_site_fract_z
Si Si1 0.544993 0.429184 0.436139
Si Si2 0.253469 0.574713 0.258617
Si Si3 0.454709 0.429853 0.063792
Si Si4 0.422612 0.571208 0.810404
Si Si5 0.249797 0.569632 0.615635
Si Si6 0.034031 0.074378 0.807944
O O1 0.500000 0.500000 0.500000
O O2 0.538807 0.250000 0.439245
O O3 0.655144 0.468177 0.423516
O O4 0.488890 0.491338 0.374361
O O5 0.229648 0.750000 0.254325
O O6 0.182112 0.492440 0.306848
O O7 0.247289 0.503201 0.186950
O O8 0.358306 0.560133 0.285956
O O9 0.455402 0.250000 0.057553
O O10 0.519037 0.470175 0.125664
O O11 0.346892 0.474995 0.079490
O O12 0.500000 0.500000 0.000000
O O13 0.422203 0.750000 0.804860
O O14 0.472897 0.500066 0.748356
O O15 0.247705 0.750000 0.623985
O O16 0.011427 0.250000 0.814200
#
# Coordination Sequence:
#
# PCOD9466208 Si02
#       6
#     8   8   8   8   8   8
#     4  11  24  41  64  91 124 167 206 257 313 368
#     4  11  23  37  61  94 126 161 204 257 307 362
#     4  10  23  41  62  89 123 161 204 254 306 367
#     4  11  22  38  62  91 122 160 205 253 307 366
#     4  10  21  40  63  87 119 162 207 250 309 372
#     4  11  23  39  61  92 124 159 206 256 305 363
#
# _framework density 18.296510000000001
#
# number of rings (size 3 to 8) (size 9 to 14) (size 15 to 20)
#    0.000    1.333    3.333    2.000    0.000    6.000 
#    0.000    5.000    0.000    0.000    0.000    0.000 
#    0.000    0.000    0.000    0.000    0.000    0.000 
#
# Total GULP energy -268231.046464 kJ/mol
# GULP energy per Si atom -5588.146801 kJ/mol
# Density = 1.825487 g / cm^3
# Si number density = 18.296510 Si / 1000 Ang^3
#
#
#
# Elastic Constant Matrix: (Units=GPa)
#
#
# Indices 1 2 3 4 5 6 
#
# 1 102.4724 44.3179 47.4180 0.0000 0.0000 0.0000
# 2 44.3179 56.2772 42.2026 0.0000 0.0000 0.0000
# 3 47.4180 42.2026 131.2266 0.0000 0.0000 0.0000
# 4 0.0000 0.0000 0.0000 36.5675 0.0000 0.0000
# 5 0.0000 0.0000 0.0000 0.0000 25.9629 0.0000
# 6 0.0000 0.0000 0.0000 0.0000 0.0000 33.1732
#
#
#
# Elastic Compliance Matrix: (Units=1/GPa)
#
#
# Indices 1 2 3 4 5 6 
#
# 1 0.015255 -0.010384 -0.002173 0.000000 0.000000 0.000000
# 2 -0.010384 0.030485 -0.006052 0.000000 0.000000 0.000000
# 3 -0.002173 -0.006052 0.010352 0.000000 0.000000 0.000000
# 4 0.000000 0.000000 0.000000 0.027347 0.000000 0.000000
# 5 0.000000 0.000000 0.000000 0.000000 0.038517 0.000000
# 6 0.000000 0.000000 0.000000 0.000000 0.000000 0.030145
#
#
# Mechanical properties :
#
#
# Convention : Reuss Voigt Hill
#
# Bulk Modulus (GPa) = 52.98125 61.98368 57.48247
# Shear Modulus (GPa) = 25.56135 29.54322 27.55229
#
# Velocity S-wave (km/s) = 3.74178 4.02268 3.88477
# Velocity P-wave (km/s) = 6.90564 7.45163 7.18382
#
# Compressibility (1/GPa) = 0.01887460
#
# Stress axis : x y z
#
# Youngs Moduli (GPa) = 65.55208 32.80351 96.60140
#
# Poissons Ratio (x) = 0.34062 0.20991
# Poissons Ratio (y) = 0.68068 0.58461
# Poissons Ratio (z) = 0.14244 0.19852
#
# Static dielectric constant tensor:
#      x y z
#    x 1.650600 0.000000 0.000000 
#    y 0.000000 1.613400 0.000000 
#    z 0.000000 0.000000 1.585980 
# 
# From -- ./inp_files/23691.got.cif
#   From: 2010.05.17/outbox.cif.g08.bks.cpg/sg62_12_cif.got.tgz:23691.got - 2010.06.03 15:25:27.
