data_PCOD9466662
_publ_section_title
;
Structure prediction by ZEFSAII (Michael W. Deem and Ramdas Pophale) SiO2 
 PCOD9466662
Probable space group: P N M A
;
_chemical_formula_sum "Si O2"
_cell_formula_units_Z 48
_cell_length_a 14.809479
_cell_length_b 27.289372
_cell_length_c 5.331983
_cell_angle_alpha 90.000000
_cell_angle_beta 90.000000
_cell_angle_gamma 90.000000
_cell_volume 2154.874976
_symmetry_space_group_name_H-M "P N M A"
_symmetry_group_IT_number 62
_symmetry_cell_setting 'orthorhombic'
loop_
_space_group_symop_operation_xyz
x,y,z
1/2-x,-y,1/2+z
1/2+x,1/2-y,1/2-z
-x,1/2+y,-z
-x,-y,-z
1/2+x,y,1/2-z
1/2-x,1/2+y,1/2+z
x,1/2-y,z
loop_
_atom_site_type_symbol
_atom_site_label
_atom_site_fract_x
_atom_site_fract_y
_atom_site_fract_z
Si Si1 0.182186 0.649053 0.285941
Si Si2 0.993351 0.695572 0.343845
Si Si3 0.393853 0.611346 0.861758
Si Si4 0.702617 0.586141 0.703818
Si Si5 0.841974 0.802857 0.983646
Si Si6 0.029012 0.528503 0.754015
O O1 0.190674 0.611354 0.520729
O O2 0.274294 0.680620 0.295611
O O3 0.098481 0.684677 0.334412
O O4 0.169298 0.621577 0.022583
O O5 0.976342 0.750000 0.464168
O O6 0.946914 0.645382 0.441542
O O7 0.944354 0.699926 0.077463
O O8 0.306229 0.575792 0.887195
O O9 0.343402 0.653905 0.710254
O O10 0.472476 0.579114 0.742499
O O11 0.635036 0.540372 0.723836
O O12 0.812340 0.750000 0.888117
O O13 0.000000 0.500000 0.500000
O O14 0.000000 0.500000 0.000000
#
# Coordination Sequence:
#
# PCOD9466662 Si02
#       6
#     8   8   8   8   8   8
#     4  11  22  41  67 101 139 182 221 271 337 402
#     4  11  22  39  66  99 138 184 230 273 334 415
#     4  11  24  44  70  95 141 181 229 283 357 411
#     4  11  24  44  73  97 135 180 221 281 350 411
#     4  10  22  40  65 102 141 183 231 277 332 415
#     4  12  28  46  73 102 133 173 234 296 348 416
#
# _framework density 22.275072999999999
#
# number of rings (size 3 to 8) (size 9 to 14) (size 15 to 20)
#    0.000    1.000    3.333    3.000    2.333    1.333 
#    0.000    1.667    0.000    0.000    0.000    0.000 
#    0.000    0.000    0.000    0.000    0.000    0.000 
#
# Total GULP energy -267337.360486 kJ/mol
# GULP energy per Si atom -5569.528343 kJ/mol
# Density = 2.222437 g / cm^3
# Si number density = 22.275073 Si / 1000 Ang^3
#
#
#
# Elastic Constant Matrix: (Units=GPa)
#
#
# Indices 1 2 3 4 5 6 
#
# 1 79.8590 -8.8926 -0.1488 0.0000 0.0000 0.0000
# 2 -8.8926 34.4248 19.3347 0.0000 0.0000 0.0000
# 3 -0.1488 19.3347 79.5299 0.0000 0.0000 0.0000
# 4 0.0000 0.0000 0.0000 33.0355 0.0000 0.0000
# 5 0.0000 0.0000 0.0000 0.0000 22.3793 0.0000
# 6 0.0000 0.0000 0.0000 0.0000 0.0000 22.3451
#
#
#
# Elastic Compliance Matrix: (Units=1/GPa)
#
#
# Indices 1 2 3 4 5 6 
#
# 1 0.012950 0.003859 -0.000914 0.000000 0.000000 0.000000
# 2 0.003859 0.034792 -0.008451 0.000000 0.000000 0.000000
# 3 -0.000914 -0.008451 0.014627 0.000000 0.000000 0.000000
# 4 0.000000 0.000000 0.000000 0.030270 0.000000 0.000000
# 5 0.000000 0.000000 0.000000 0.000000 0.044684 0.000000
# 6 0.000000 0.000000 0.000000 0.000000 0.000000 0.044752
#
#
# Mechanical properties :
#
#
# Convention : Reuss Voigt Hill
#
# Bulk Modulus (GPa) = 19.47194 23.82225 21.64710
# Shear Modulus (GPa) = 23.78599 27.78668 25.78633
#
# Velocity S-wave (km/s) = 3.27131 3.53573 3.40609
# Velocity P-wave (km/s) = 4.79888 5.23320 5.02073
#
# Compressibility (1/GPa) = 0.05135594
#
# Stress axis : x y z
#
# Youngs Moduli (GPa) = 77.21990 28.74209 68.36772
#
# Poissons Ratio (x) = -0.11090 0.06248
# Poissons Ratio (y) = -0.29795 0.57779
# Poissons Ratio (z) = 0.07057 0.24291
#
# Static dielectric constant tensor:
#      x y z
#    x 1.893850 0.000000 0.000000 
#    y 0.000000 1.492540 0.000000 
#    z 0.000000 0.000000 1.920960 
# 
# From -- ./inp_files/1128.got.cif
#   From: 2010.05.17/outbox.cif.g08.bks.cpg/sg62_1_cif.got.tgz:1128.got - 2010.06.03 15:25:27.
