data_PCOD9466124
_publ_section_title
;
Structure prediction by ZEFSAII (Michael W. Deem and Ramdas Pophale) SiO2 
 PCOD9466124
Probable space group: P N M A
;
_chemical_formula_sum "Si O2"
_cell_formula_units_Z 40
_cell_length_a 5.010964
_cell_length_b 11.772445
_cell_length_c 25.594412
_cell_angle_alpha 90.000000
_cell_angle_beta 90.000000
_cell_angle_gamma 90.000000
_cell_volume 1509.847588
_symmetry_space_group_name_H-M "P N M A"
_symmetry_group_IT_number 62
_symmetry_cell_setting 'orthorhombic'
loop_
_space_group_symop_operation_xyz
x,y,z
1/2-x,-y,1/2+z
1/2+x,1/2-y,1/2-z
-x,1/2+y,-z
-x,-y,-z
1/2+x,y,1/2-z
1/2-x,1/2+y,1/2+z
x,1/2-y,z
loop_
_atom_site_type_symbol
_atom_site_label
_atom_site_fract_x
_atom_site_fract_y
_atom_site_fract_z
Si Si1 0.656262 0.497860 0.154163
Si Si2 0.214774 0.750000 0.335271
Si Si3 0.609897 0.917918 0.041961
Si Si4 0.795957 0.750000 0.616714
Si Si5 0.778907 0.250000 0.903893
Si Si6 0.312794 0.750000 0.538303
Si Si7 0.739298 0.616018 0.787222
O O1 0.744384 0.616329 0.184056
O O2 0.720150 0.526592 0.094167
O O3 0.739524 0.362870 0.152792
O O4 0.341271 0.472610 0.167547
O O5 0.418001 0.750000 0.385062
O O6 0.903873 0.750000 0.351300
O O7 0.350052 0.852088 0.063856
O O8 0.805556 0.849097 0.004515
O O9 0.500000 0.000000 0.000000
O O10 0.565177 0.750000 0.574439
O O11 0.062409 0.750000 0.579610
O O12 0.502191 0.593740 0.745662
O O13 0.732831 0.750000 0.802131
#
# Coordination Sequence:
#
# PCOD9466124 Si02
#       7
#     8   4   8   4   4   4   8
#     4  11  24  46  69 105 133 189 224 289 338 422
#     4  10  24  41  68  91 139 173 229 269 347 397
#     4  10  21  39  64  90 140 179 232 272 334 392
#     4  12  26  41  70  97 137 175 250 272 331 396
#     4   9  22  40  56  89 125 188 220 269 328 388
#     4  11  26  42  58 101 135 190 225 292 316 401
#     4  10  23  45  73 103 135 170 221 290 353 408
#
# _framework density 26.492742
#
# number of rings (size 3 to 8) (size 9 to 14) (size 15 to 20)
#    0.000    1.600    3.000    0.600    2.800   12.000 
#    0.000    1.000    0.000    0.000    0.000    0.000 
#    0.000    0.000    0.000    0.000    0.000    0.000 
#
# Total GULP energy -222811.246532 kJ/mol
# GULP energy per Si atom -5570.281163 kJ/mol
# Density = 2.643244 g / cm^3
# Si number density = 26.492742 Si / 1000 Ang^3
#
#
#
# Elastic Constant Matrix: (Units=GPa)
#
#
# Indices 1 2 3 4 5 6 
#
# 1 103.5865 20.5523 23.6850 0.0000 0.0000 0.0000
# 2 20.5523 206.7114 19.3013 0.0000 0.0000 0.0000
# 3 23.6850 19.3013 82.8624 0.0000 0.0000 0.0000
# 4 0.0000 0.0000 0.0000 36.2386 0.0000 0.0000
# 5 0.0000 0.0000 0.0000 0.0000 54.1161 0.0000
# 6 0.0000 0.0000 0.0000 0.0000 0.0000 41.4291
#
#
#
# Elastic Compliance Matrix: (Units=1/GPa)
#
#
# Indices 1 2 3 4 5 6 
#
# 1 0.010449 -0.000777 -0.002806 0.000000 0.000000 0.000000
# 2 -0.000777 0.005003 -0.000943 0.000000 0.000000 0.000000
# 3 -0.002806 -0.000943 0.013090 0.000000 0.000000 0.000000
# 4 0.000000 0.000000 0.000000 0.027595 0.000000 0.000000
# 5 0.000000 0.000000 0.000000 0.000000 0.018479 0.000000
# 6 0.000000 0.000000 0.000000 0.000000 0.000000 0.024138
#
#
# Mechanical properties :
#
#
# Convention : Reuss Voigt Hill
#
# Bulk Modulus (GPa) = 51.30772 57.80415 54.55593
# Shear Modulus (GPa) = 43.74355 48.33154 46.03755
#
# Velocity S-wave (km/s) = 4.06785 4.27585 4.17315
# Velocity P-wave (km/s) = 6.43987 6.80025 6.62251
#
# Compressibility (1/GPa) = 0.01949025
#
# Stress axis : x y z
#
# Youngs Moduli (GPa) = 95.69863 199.88057 76.39463
#
# Poissons Ratio (x) = 0.15530 0.21435
# Poissons Ratio (y) = 0.07435 0.07206
# Poissons Ratio (z) = 0.26852 0.18854
#
# Static dielectric constant tensor:
#      x y z
#    x 2.156690 0.000000 0.000000 
#    y 0.000000 2.201490 0.000000 
#    z 0.000000 0.000000 2.008040 
# 
# From -- ./inp_files/30292.got.cif
#   From: 2010.05.17/outbox.cif.g08.bks.cpg/sg62_16_cif.got.tgz:30292.got - 2010.06.03 15:25:27.
