data_PCOD9466929
_publ_section_title
;
Structure prediction by ZEFSAII (Michael W. Deem and Ramdas Pophale) SiO2 
 PCOD9466929
Probable space group: P N M A
;
_chemical_formula_sum "Si O2"
_cell_formula_units_Z 48
_cell_length_a 6.225908
_cell_length_b 25.793146
_cell_length_c 17.085076
_cell_angle_alpha 90.000000
_cell_angle_beta 90.000000
_cell_angle_gamma 90.000000
_cell_volume 2743.619812
_symmetry_space_group_name_H-M "P N M A"
_symmetry_group_IT_number 62
_symmetry_cell_setting 'orthorhombic'
loop_
_space_group_symop_operation_xyz
x,y,z
1/2-x,-y,1/2+z
1/2+x,1/2-y,1/2-z
-x,1/2+y,-z
-x,-y,-z
1/2+x,y,1/2-z
1/2-x,1/2+y,1/2+z
x,1/2-y,z
loop_
_atom_site_type_symbol
_atom_site_label
_atom_site_fract_x
_atom_site_fract_y
_atom_site_fract_z
Si Si1 0.740949 0.103601 0.575034
Si Si2 0.645200 0.631101 0.312332
Si Si3 0.926139 0.532378 0.334329
Si Si4 0.976669 0.435169 0.228046
Si Si5 0.975490 0.310316 0.650483
Si Si6 0.388321 0.536962 0.563134
O O1 0.534591 0.110661 0.629481
O O2 0.697886 0.084651 0.487926
O O3 0.887103 0.060403 0.617346
O O4 0.855276 0.159099 0.582446
O O5 0.789507 0.579946 0.298248
O O6 0.582875 0.660118 0.232093
O O7 0.776298 0.675405 0.358177
O O8 0.994060 0.491521 0.268900
O O9 0.791135 0.498171 0.395462
O O10 0.731203 0.414339 0.254481
O O11 0.967193 0.442689 0.134658
O O12 0.929203 0.250000 0.655943
O O13 0.500000 0.500000 0.500000
#
# Coordination Sequence:
#
# PCOD9466929 Si02
#       6
#     8   8   8   8   8   8
#     4  11  23  36  53  81 107 150 197 242 289 346
#     4  11  22  33  53  75 106 146 204 239 287 345
#     4  10  23  35  53  77 116 157 194 232 279 352
#     4  10  23  36  54  76 111 159 193 228 280 340
#     4  11  24  37  54  76 107 152 203 251 292 342
#     4  11  21  34  54  81 116 150 192 238 290 343
#
# _framework density 17.495135999999999
#
# number of rings (size 3 to 8) (size 9 to 14) (size 15 to 20)
#    0.000    1.333    3.333    2.000   14.000    2.000 
#    0.000    0.000    0.000    0.000    0.000    0.000 
#    0.000    5.333    0.000    0.000    0.000    0.000 
#
# Total GULP energy -267347.516881 kJ/mol
# GULP energy per Si atom -5569.739935 kJ/mol
# Density = 1.745532 g / cm^3
# Si number density = 17.495136 Si / 1000 Ang^3
#
#
#
# Elastic Constant Matrix: (Units=GPa)
#
#
# Indices 1 2 3 4 5 6 
#
# 1 70.0001 21.4610 26.2429 0.0000 0.0000 0.0000
# 2 21.4610 87.0373 45.1347 0.0000 0.0000 0.0000
# 3 26.2429 45.1347 108.3595 0.0000 0.0000 0.0000
# 4 0.0000 0.0000 0.0000 17.9753 0.0000 0.0000
# 5 0.0000 0.0000 0.0000 0.0000 28.1303 0.0000
# 6 0.0000 0.0000 0.0000 0.0000 0.0000 10.3607
#
#
#
# Elastic Compliance Matrix: (Units=1/GPa)
#
#
# Indices 1 2 3 4 5 6 
#
# 1 0.016124 -0.002488 -0.002869 0.000000 0.000000 0.000000
# 2 -0.002488 0.015039 -0.005661 0.000000 0.000000 0.000000
# 3 -0.002869 -0.005661 0.012281 0.000000 0.000000 0.000000
# 4 0.000000 0.000000 0.000000 0.055632 0.000000 0.000000
# 5 0.000000 0.000000 0.000000 0.000000 0.035549 0.000000
# 6 0.000000 0.000000 0.000000 0.000000 0.000000 0.096519
#
#
# Mechanical properties :
#
#
# Convention : Reuss Voigt Hill
#
# Bulk Modulus (GPa) = 46.71218 50.11933 48.41575
# Shear Modulus (GPa) = 19.20745 22.79714 21.00230
#
# Velocity S-wave (km/s) = 3.31701 3.61370 3.46853
# Velocity P-wave (km/s) = 6.43647 6.79129 6.61626
#
# Compressibility (1/GPa) = 0.02140769
#
# Stress axis : x y z
#
# Youngs Moduli (GPa) = 62.01958 66.49522 81.42404
#
# Poissons Ratio (x) = 0.16545 0.23357
# Poissons Ratio (y) = 0.15432 0.46098
# Poissons Ratio (z) = 0.17791 0.37646
#
# Static dielectric constant tensor:
#      x y z
#    x 1.809470 0.000000 0.000000 
#    y 0.000000 1.570910 0.000000 
#    z 0.000000 0.000000 1.605810 
# 
# From -- ./inp_files/21597.got.cif
#   From: 2010.05.17/outbox.cif.g08.bks.cpg/sg62_11_cif.got.tgz:21597.got - 2010.06.03 15:25:27.
