data_PCOD9466005
_publ_section_title
;
Structure prediction by ZEFSAII (Michael W. Deem and Ramdas Pophale) SiO2 
 PCOD9466005
Probable space group: P N M A
;
_chemical_formula_sum "Si O2"
_cell_formula_units_Z 28
_cell_length_a 5.297275
_cell_length_b 9.818051
_cell_length_c 27.144249
_cell_angle_alpha 90.000000
_cell_angle_beta 90.000000
_cell_angle_gamma 90.000000
_cell_volume 1411.742969
_symmetry_space_group_name_H-M "P N M A"
_symmetry_group_IT_number 62
_symmetry_cell_setting 'orthorhombic'
loop_
_space_group_symop_operation_xyz
x,y,z
1/2-x,-y,1/2+z
1/2+x,1/2-y,1/2-z
-x,1/2+y,-z
-x,-y,-z
1/2+x,y,1/2-z
1/2-x,1/2+y,1/2+z
x,1/2-y,z
loop_
_atom_site_type_symbol
_atom_site_label
_atom_site_fract_x
_atom_site_fract_y
_atom_site_fract_z
Si Si1 0.612597 0.750000 0.217817
Si Si2 0.949937 0.482220 0.637721
Si Si3 0.942012 0.903157 0.899134
Si Si4 0.653746 0.096121 0.963093
O O1 0.387562 0.750000 0.257486
O O2 0.580414 0.618044 0.183192
O O3 0.702757 0.571087 0.628341
O O4 0.990053 0.397793 0.587176
O O5 0.207230 0.569452 0.637716
O O6 0.926032 0.750000 0.918345
O O7 0.896947 0.012474 0.942987
O O8 0.700748 0.250000 0.980963
O O9 0.500000 0.000000 0.000000
#
# Coordination Sequence:
#
# PCOD9466005 Si02
#       4
#     4   8   8   8
#     4  12  24  42  74 100 128 170 230 282 346 388
#     4  10  22  40  63  95 131 162 220 278 322 392
#     4  10  21  38  65  90 134 178 210 260 335 386
#     4  10  22  38  64  96 137 174 226 267 328 396
#
# _framework density 19.833637
#
# number of rings (size 3 to 8) (size 9 to 14) (size 15 to 20)
#    1.714    0.000    1.429    3.429    2.000    1.143 
#    0.000    0.000    0.000   17.143    0.000    0.000 
#    0.000    0.000    0.000    0.000    0.000    0.000 
#
# Total GULP energy -156011.491921 kJ/mol
# GULP energy per Si atom -5571.838997 kJ/mol
# Density = 1.978849 g / cm^3
# Si number density = 19.833637 Si / 1000 Ang^3
#
#
#
# Elastic Constant Matrix: (Units=GPa)
#
#
# Indices 1 2 3 4 5 6 
#
# 1 94.3190 14.9527 -16.3323 0.0000 0.0000 0.0000
# 2 14.9527 145.1571 13.0528 0.0000 0.0000 0.0000
# 3 -16.3323 13.0528 43.5004 0.0000 0.0000 0.0000
# 4 0.0000 0.0000 0.0000 25.6067 0.0000 0.0000
# 5 0.0000 0.0000 0.0000 0.0000 21.1101 0.0000
# 6 0.0000 0.0000 0.0000 0.0000 0.0000 14.8914
#
#
#
# Elastic Compliance Matrix: (Units=1/GPa)
#
#
# Indices 1 2 3 4 5 6 
#
# 1 0.011710 -0.001646 0.004891 0.000000 0.000000 0.000000
# 2 -0.001646 0.007311 -0.002812 0.000000 0.000000 0.000000
# 3 0.004891 -0.002812 0.025668 0.000000 0.000000 0.000000
# 4 0.000000 0.000000 0.000000 0.039052 0.000000 0.000000
# 5 0.000000 0.000000 0.000000 0.000000 0.047371 0.000000
# 6 0.000000 0.000000 0.000000 0.000000 0.000000 0.067153
#
#
# Mechanical properties :
#
#
# Convention : Reuss Voigt Hill
#
# Bulk Modulus (GPa) = 21.95151 34.03587 27.99369
# Shear Modulus (GPa) = 23.51995 30.40852 26.96423
#
# Velocity S-wave (km/s) = 3.44737 3.91983 3.69117
# Velocity P-wave (km/s) = 5.19015 6.13879 5.68429
#
# Compressibility (1/GPa) = 0.04555495
#
# Stress axis : x y z
#
# Youngs Moduli (GPa) = 85.39631 136.77087 38.95870
#
# Poissons Ratio (x) = 0.22513 -0.19053
# Poissons Ratio (y) = 0.14056 0.10955
# Poissons Ratio (z) = -0.41763 0.38459
#
# Static dielectric constant tensor:
#      x y z
#    x 1.716590 0.000000 0.000000 
#    y 0.000000 1.681200 0.000000 
#    z 0.000000 0.000000 1.687580 
# 
# From -- ./inp_files/28093.got.cif
#   From: 2010.05.17/outbox.cif.g08.bks.cpg/sg62_15_cif.got.tgz:28093.got - 2010.06.03 15:25:27.
