data_PCOD9466463
_publ_section_title
;
Structure prediction by ZEFSAII (Michael W. Deem and Ramdas Pophale) SiO2 
 PCOD9466463
Probable space group: P N M A
;
_chemical_formula_sum "Si O2"
_cell_formula_units_Z 48
_cell_length_a 5.260998
_cell_length_b 13.255206
_cell_length_c 30.985751
_cell_angle_alpha 90.000000
_cell_angle_beta 90.000000
_cell_angle_gamma 90.000000
_cell_volume 2160.810317
_symmetry_space_group_name_H-M "P N M A"
_symmetry_group_IT_number 62
_symmetry_cell_setting 'orthorhombic'
loop_
_space_group_symop_operation_xyz
x,y,z
1/2-x,-y,1/2+z
1/2+x,1/2-y,1/2-z
-x,1/2+y,-z
-x,-y,-z
1/2+x,y,1/2-z
1/2-x,1/2+y,1/2+z
x,1/2-y,z
loop_
_atom_site_type_symbol
_atom_site_label
_atom_site_fract_x
_atom_site_fract_y
_atom_site_fract_z
Si Si1 0.339309 0.568122 0.225005
Si Si2 0.924429 0.361443 0.637404
Si Si3 0.850731 0.365309 0.320802
Si Si4 0.651617 0.570133 0.627451
Si Si5 0.696917 0.558008 0.529785
Si Si6 0.513509 0.142563 0.955858
O O1 0.061199 0.595917 0.241483
O O2 0.410331 0.616282 0.179341
O O3 0.365488 0.447691 0.217053
O O4 0.808818 0.250000 0.640819
O O5 0.717443 0.450736 0.632696
O O6 0.098958 0.361224 0.594075
O O7 0.834344 0.250000 0.306245
O O8 0.598756 0.396217 0.347358
O O9 0.098315 0.378842 0.351458
O O10 0.615291 0.595416 0.576831
O O11 0.500000 0.500000 0.500000
O O12 0.806002 0.640553 0.497253
O O13 0.886421 0.466342 0.540452
O O14 0.365687 0.250000 0.958680
#
# Coordination Sequence:
#
# PCOD9466463 Si02
#       6
#     8   8   8   8   8   8
#     4  11  24  42  66  96 126 160 209 268 324 393
#     4   9  20  42  67  91 129 173 216 271 332 395
#     4  11  24  44  68  96 132 176 216 266 333 392
#     4  10  23  41  65  97 137 172 225 268 318 386
#     4  10  22  36  61  89 128 173 214 273 314 368
#     4   9  20  39  59  88 123 168 220 262 321 383
#
# _framework density 22.213888000000001
#
# number of rings (size 3 to 8) (size 9 to 14) (size 15 to 20)
#    0.000    2.000    0.000    2.500    9.333    3.333 
#    0.000    6.667    0.000    0.000    0.000    0.000 
#    0.000    0.000    0.000    0.000    0.000    0.000 
#
# Total GULP energy -267661.301920 kJ/mol
# GULP energy per Si atom -5576.277123 kJ/mol
# Density = 2.216333 g / cm^3
# Si number density = 22.213888 Si / 1000 Ang^3
#
#
#
# Elastic Constant Matrix: (Units=GPa)
#
#
# Indices 1 2 3 4 5 6 
#
# 1 78.5816 -4.3910 16.5329 0.0000 0.0000 0.0000
# 2 -4.3910 105.6831 -0.8101 0.0000 0.0000 0.0000
# 3 16.5329 -0.8101 88.9361 0.0000 0.0000 0.0000
# 4 0.0000 0.0000 0.0000 14.6401 0.0000 0.0000
# 5 0.0000 0.0000 0.0000 0.0000 22.6327 0.0000
# 6 0.0000 0.0000 0.0000 0.0000 0.0000 5.1281
#
#
#
# Elastic Compliance Matrix: (Units=1/GPa)
#
#
# Indices 1 2 3 4 5 6 
#
# 1 0.013274 0.000533 -0.002463 0.000000 0.000000 0.000000
# 2 0.000533 0.009484 -0.000013 0.000000 0.000000 0.000000
# 3 -0.002463 -0.000013 0.011702 0.000000 0.000000 0.000000
# 4 0.000000 0.000000 0.000000 0.068305 0.000000 0.000000
# 5 0.000000 0.000000 0.000000 0.000000 0.044184 0.000000
# 6 0.000000 0.000000 0.000000 0.000000 0.000000 0.195004
#
#
# Mechanical properties :
#
#
# Convention : Reuss Voigt Hill
#
# Bulk Modulus (GPa) = 32.70731 32.87382 32.79056
# Shear Modulus (GPa) = 14.04378 25.93813 19.99095
#
# Velocity S-wave (km/s) = 2.51710 3.42080 3.00314
# Velocity P-wave (km/s) = 4.81700 5.51665 5.17865
#
# Compressibility (1/GPa) = 0.03057421
#
# Stress axis : x y z
#
# Youngs Moduli (GPa) = 75.33804 105.43759 85.45764
#
# Poissons Ratio (x) = -0.05616 0.21045
# Poissons Ratio (y) = -0.04013 0.00108
# Poissons Ratio (z) = 0.18553 0.00133
#
# Static dielectric constant tensor:
#      x y z
#    x 1.705750 0.000000 0.000000 
#    y 0.000000 1.633100 0.000000 
#    z 0.000000 0.000000 1.971440 
# 
# From -- ./inp_files/31578.got.cif
#   From: 2010.05.17/outbox.cif.g08.bks.cpg/sg62_16_cif.got.tgz:31578.got - 2010.06.03 15:25:27.
