data_PCOD9466837
_publ_section_title
;
Structure prediction by ZEFSAII (Michael W. Deem and Ramdas Pophale) SiO2 
 PCOD9466837
Probable space group: P N M A
;
_chemical_formula_sum "Si O2"
_cell_formula_units_Z 32
_cell_length_a 8.783525
_cell_length_b 18.138137
_cell_length_c 8.202185
_cell_angle_alpha 90.000000
_cell_angle_beta 90.000000
_cell_angle_gamma 90.000000
_cell_volume 1306.745701
_symmetry_space_group_name_H-M "P N M A"
_symmetry_group_IT_number 62
_symmetry_cell_setting 'orthorhombic'
loop_
_space_group_symop_operation_xyz
x,y,z
1/2-x,-y,1/2+z
1/2+x,1/2-y,1/2-z
-x,1/2+y,-z
-x,-y,-z
1/2+x,y,1/2-z
1/2-x,1/2+y,1/2+z
x,1/2-y,z
loop_
_atom_site_type_symbol
_atom_site_label
_atom_site_fract_x
_atom_site_fract_y
_atom_site_fract_z
Si Si1 0.517087 0.750000 0.007439
Si Si2 0.996721 0.601744 0.075058
Si Si3 0.234058 0.992578 0.267676
Si Si4 0.972756 0.402167 0.313255
Si Si5 0.162465 0.250000 0.805519
O O1 0.361196 0.750000 0.111169
O O2 0.667166 0.750000 0.123412
O O3 0.522855 0.675633 0.902068
O O4 0.929046 0.678580 0.134545
O O5 0.144608 0.572123 0.172763
O O6 0.022314 0.608013 0.882485
O O7 0.131166 0.457596 0.873047
O O8 0.319920 0.052344 0.154073
O O9 0.111292 0.043876 0.358420
#
# Coordination Sequence:
#
# PCOD9466837 Si02
#       5
#     4   8   8   8   4
#     4  12  29  50  76 102 141 188 240 298 361 430
#     4  11  24  46  74 108 149 191 240 292 353 425
#     4  10  22  42  75 112 149 188 235 293 353 418
#     4  11  25  47  75 109 143 191 243 293 350 425
#     4  12  27  48  72 106 141 186 236 296 367 426
#
# _framework density 24.488318
#
# number of rings (size 3 to 8) (size 9 to 14) (size 15 to 20)
#    0.000    1.000    0.000    6.750    0.000    9.000 
#    0.000   13.750    0.000    0.000    0.000    0.000 
#    0.000    0.000    0.000    0.000    0.000    0.000 
#
# Total GULP energy -179390.232305 kJ/mol
# GULP energy per Si atom -5605.944760 kJ/mol
# Density = 2.443258 g / cm^3
# Si number density = 24.488318 Si / 1000 Ang^3
#
#
#
# Elastic Constant Matrix: (Units=GPa)
#
#
# Indices 1 2 3 4 5 6 
#
# 1 118.5318 25.6057 44.8863 0.0000 0.0000 0.0000
# 2 25.6057 163.1087 44.7004 0.0000 0.0000 0.0000
# 3 44.8863 44.7004 129.6040 0.0000 0.0000 0.0000
# 4 0.0000 0.0000 0.0000 32.5038 0.0000 0.0000
# 5 0.0000 0.0000 0.0000 0.0000 37.1727 0.0000
# 6 0.0000 0.0000 0.0000 0.0000 0.0000 20.8801
#
#
#
# Elastic Compliance Matrix: (Units=1/GPa)
#
#
# Indices 1 2 3 4 5 6 
#
# 1 0.009776 -0.000670 -0.003155 0.000000 0.000000 0.000000
# 2 -0.000670 0.006817 -0.002119 0.000000 0.000000 0.000000
# 3 -0.003155 -0.002119 0.009539 0.000000 0.000000 0.000000
# 4 0.000000 0.000000 0.000000 0.030766 0.000000 0.000000
# 5 0.000000 0.000000 0.000000 0.000000 0.026901 0.000000
# 6 0.000000 0.000000 0.000000 0.000000 0.000000 0.047893
#
#
# Mechanical properties :
#
#
# Convention : Reuss Voigt Hill
#
# Bulk Modulus (GPa) = 70.20306 71.29215 70.74760
# Shear Modulus (GPa) = 33.70923 37.84811 35.77867
#
# Velocity S-wave (km/s) = 3.71420 3.93562 3.82652
# Velocity P-wave (km/s) = 6.86469 7.05890 6.96247
#
# Compressibility (1/GPa) = 0.01424439
#
# Stress axis : x y z
#
# Youngs Moduli (GPa) = 102.29206 146.69619 104.83047
#
# Poissons Ratio (x) = 0.09831 0.33070
# Poissons Ratio (y) = 0.06855 0.22214
# Poissons Ratio (z) = 0.32269 0.31085
#
# Static dielectric constant tensor:
#      x y z
#    x 1.953470 0.000000 0.000000 
#    y 0.000000 1.939700 0.000000 
#    z 0.000000 0.000000 2.013960 
# 
# From -- ./inp_files/4986.got.cif
#   From: 2010.05.17/outbox.cif.g08.bks.cpg/sg62_3_cif.got.tgz:4986.got - 2010.06.03 15:25:27.
