data_PCOD9466720
_publ_section_title
;
Structure prediction by ZEFSAII (Michael W. Deem and Ramdas Pophale) SiO2 
 PCOD9466720
Probable space group: P N M A
;
_chemical_formula_sum "Si O2"
_cell_formula_units_Z 64
_cell_length_a 15.048314
_cell_length_b 8.638990
_cell_length_c 25.032266
_cell_angle_alpha 90.000000
_cell_angle_beta 90.000000
_cell_angle_gamma 90.000000
_cell_volume 3254.250506
_symmetry_space_group_name_H-M "P N M A"
_symmetry_group_IT_number 62
_symmetry_cell_setting 'orthorhombic'
loop_
_space_group_symop_operation_xyz
x,y,z
1/2-x,-y,1/2+z
1/2+x,1/2-y,1/2-z
-x,1/2+y,-z
-x,-y,-z
1/2+x,y,1/2-z
1/2-x,1/2+y,1/2+z
x,1/2-y,z
loop_
_atom_site_type_symbol
_atom_site_label
_atom_site_fract_x
_atom_site_fract_y
_atom_site_fract_z
Si Si1 0.046775 0.433146 0.126438
Si Si2 0.130625 0.064899 0.242608
Si Si3 0.405668 0.434154 0.520656
Si Si4 0.004212 0.064842 0.669067
Si Si5 0.166586 0.567484 0.732582
Si Si6 0.368511 0.931068 0.343659
Si Si7 0.052607 0.937015 0.449241
Si Si8 0.742967 0.064109 0.557389
O O1 0.029392 0.250000 0.120438
O O2 0.085858 0.461758 0.185074
O O3 0.109113 0.490872 0.078869
O O4 0.956007 0.529647 0.122604
O O5 0.133302 0.250000 0.251742
O O6 0.232186 0.007967 0.237075
O O7 0.071679 0.993067 0.289752
O O8 0.500000 0.500000 0.500000
O O9 0.411661 0.250000 0.524299
O O10 0.326739 0.482186 0.481246
O O11 0.001946 0.250000 0.669689
O O12 0.985219 0.011545 0.608466
O O13 0.099780 0.009399 0.690720
O O14 0.169269 0.750000 0.721537
O O15 0.127568 0.534742 0.791229
O O16 0.367276 0.750000 0.328963
O O17 0.285062 0.967049 0.381306
O O18 0.049034 0.750000 0.449958
O O19 0.156057 0.982541 0.452567
O O20 0.000000 0.000000 0.500000
O O21 0.734300 0.250000 0.550223
#
# Coordination Sequence:
#
# PCOD9466720 Si02
#       8
#     8   8   8   8   8   8   8   8
#     4  11  22  38  60  88 125 163 202 253 308 367
#     4  10  23  41  62  90 125 166 208 251 307 371
#     4  12  24  38  59  89 124 163 206 252 308 372
#     4  11  23  41  66  94 125 161 206 260 315 370
#     4  11  23  39  61  91 127 167 208 252 308 372
#     4  11  21  36  61  91 122 162 206 253 310 367
#     4  10  24  45  67  93 123 162 207 261 314 367
#     4  10  22  41  64  89 123 163 209 259 314 371
#
# _framework density 19.666588000000001
#
# number of rings (size 3 to 8) (size 9 to 14) (size 15 to 20)
#    0.000    1.250    2.500    3.375    0.000    5.500 
#    0.000    3.750    0.000    0.000    0.000    0.000 
#    0.000    0.000    0.000    0.000    0.000    0.000 
#
# Total GULP energy -357696.115072 kJ/mol
# GULP energy per Si atom -5589.001798 kJ/mol
# Density = 1.962183 g / cm^3
# Si number density = 19.666588 Si / 1000 Ang^3
#
#
#
# Elastic Constant Matrix: (Units=GPa)
#
#
# Indices 1 2 3 4 5 6 
#
# 1 114.7562 28.6161 52.6251 0.0000 0.0000 0.0000
# 2 28.6161 43.0150 37.9765 0.0000 0.0000 0.0000
# 3 52.6251 37.9765 122.8257 0.0000 0.0000 0.0000
# 4 0.0000 0.0000 0.0000 28.6407 0.0000 0.0000
# 5 0.0000 0.0000 0.0000 0.0000 30.8956 0.0000
# 6 0.0000 0.0000 0.0000 0.0000 0.0000 25.2689
#
#
#
# Elastic Compliance Matrix: (Units=1/GPa)
#
#
# Indices 1 2 3 4 5 6 
#
# 1 0.011450 -0.004520 -0.003508 0.000000 0.000000 0.000000
# 2 -0.004520 0.033761 -0.008502 0.000000 0.000000 0.000000
# 3 -0.003508 -0.008502 0.012273 0.000000 0.000000 0.000000
# 4 0.000000 0.000000 0.000000 0.034915 0.000000 0.000000
# 5 0.000000 0.000000 0.000000 0.000000 0.032367 0.000000
# 6 0.000000 0.000000 0.000000 0.000000 0.000000 0.039574
#
#
# Mechanical properties :
#
#
# Convention : Reuss Voigt Hill
#
# Bulk Modulus (GPa) = 40.94339 57.67027 49.30683
# Shear Modulus (GPa) = 24.32587 27.71964 26.02276
#
# Velocity S-wave (km/s) = 3.52079 3.75838 3.64152
# Velocity P-wave (km/s) = 6.11489 6.94417 6.54268
#
# Compressibility (1/GPa) = 0.02442396
#
# Stress axis : x y z
#
# Youngs Moduli (GPa) = 87.33573 29.62034 81.47648
#
# Poissons Ratio (x) = 0.13388 0.28585
# Poissons Ratio (y) = 0.39475 0.69270
# Poissons Ratio (z) = 0.30640 0.25183
#
# Static dielectric constant tensor:
#      x y z
#    x 1.720040 0.000000 0.000000 
#    y 0.000000 1.666680 0.000000 
#    z 0.000000 0.000000 1.694650 
# 
# From -- ./inp_files/29886.got.cif
#   From: 2010.05.17/outbox.cif.g08.bks.cpg/sg62_15_cif.got.tgz:29886.got - 2010.06.03 15:25:27.
