data_PCOD9466862
_publ_section_title
;
Structure prediction by ZEFSAII (Michael W. Deem and Ramdas Pophale) SiO2 
 PCOD9466862
Probable space group: P N M A
;
_chemical_formula_sum "Si O2"
_cell_formula_units_Z 48
_cell_length_a 12.098186
_cell_length_b 16.610631
_cell_length_c 12.008689
_cell_angle_alpha 90.000000
_cell_angle_beta 90.000000
_cell_angle_gamma 90.000000
_cell_volume 2413.248169
_symmetry_space_group_name_H-M "P N M A"
_symmetry_group_IT_number 62
_symmetry_cell_setting 'orthorhombic'
loop_
_space_group_symop_operation_xyz
x,y,z
1/2-x,-y,1/2+z
1/2+x,1/2-y,1/2-z
-x,1/2+y,-z
-x,-y,-z
1/2+x,y,1/2-z
1/2-x,1/2+y,1/2+z
x,1/2-y,z
loop_
_atom_site_type_symbol
_atom_site_label
_atom_site_fract_x
_atom_site_fract_y
_atom_site_fract_z
Si Si1 0.839702 0.079653 0.581260
Si Si2 0.214201 0.846597 0.181521
Si Si3 0.709429 0.102730 0.148826
Si Si4 0.924051 0.347237 0.029103
Si Si5 0.327705 0.652372 0.597513
Si Si6 0.428599 0.657797 0.049785
O O1 0.810015 0.124693 0.695741
O O2 0.761482 0.111845 0.483269
O O3 0.965237 0.101725 0.551371
O O4 0.820336 0.986707 0.608939
O O5 0.214216 0.750000 0.179104
O O6 0.334894 0.871383 0.136521
O O7 0.122901 0.874147 0.091240
O O8 0.836904 0.120120 0.118857
O O9 0.686781 0.120698 0.277104
O O10 0.633453 0.157392 0.068707
O O11 0.917854 0.250000 0.032273
O O12 0.049739 0.369192 0.053728
O O13 0.315963 0.750000 0.595779
O O14 0.461054 0.750000 0.077335
#
# Coordination Sequence:
#
# PCOD9466862 Si02
#       6
#     8   8   8   8   8   8
#     4  12  26  39  66  99 135 163 217 273 329 383
#     4   9  20  40  64  89 122 168 217 267 326 384
#     4  11  25  42  65  94 135 169 212 269 338 384
#     4   9  21  43  68  89 122 172 221 263 320 389
#     4  11  25  43  67  98 129 174 228 268 316 395
#     4  10  22  43  67  89 125 174 220 265 322 391
#
# _framework density 19.890204000000001
#
# number of rings (size 3 to 8) (size 9 to 14) (size 15 to 20)
#    0.000    1.667    0.000    4.500    9.333    2.000 
#    0.000    0.000    0.000    0.000    0.000    0.000 
#    0.000    0.000    0.000    0.000    0.000    0.000 
#
# Total GULP energy -268303.203197 kJ/mol
# GULP energy per Si atom -5589.650067 kJ/mol
# Density = 1.984493 g / cm^3
# Si number density = 19.890204 Si / 1000 Ang^3
#
#
#
# Elastic Constant Matrix: (Units=GPa)
#
#
# Indices 1 2 3 4 5 6 
#
# 1 117.9251 39.6753 58.2179 0.0000 0.0000 0.0000
# 2 39.6753 52.1853 20.0257 0.0000 0.0000 0.0000
# 3 58.2179 20.0257 110.9484 0.0000 0.0000 0.0000
# 4 0.0000 0.0000 0.0000 62.9446 0.0000 0.0000
# 5 0.0000 0.0000 0.0000 0.0000 9.7775 0.0000
# 6 0.0000 0.0000 0.0000 0.0000 0.0000 17.0365
#
#
#
# Elastic Compliance Matrix: (Units=1/GPa)
#
#
# Indices 1 2 3 4 5 6 
#
# 1 0.014314 -0.008596 -0.005960 0.000000 0.000000 0.000000
# 2 -0.008596 0.025750 -0.000137 0.000000 0.000000 0.000000
# 3 -0.005960 -0.000137 0.012165 0.000000 0.000000 0.000000
# 4 0.000000 0.000000 0.000000 0.015887 0.000000 0.000000
# 5 0.000000 0.000000 0.000000 0.000000 0.102275 0.000000
# 6 0.000000 0.000000 0.000000 0.000000 0.000000 0.058698
#
#
# Mechanical properties :
#
#
# Convention : Reuss Voigt Hill
#
# Bulk Modulus (GPa) = 43.77471 57.43298 50.60384
# Shear Modulus (GPa) = 18.79066 28.82770 23.80918
#
# Velocity S-wave (km/s) = 3.07696 3.81115 3.46357
# Velocity P-wave (km/s) = 5.88894 6.95012 6.44142
#
# Compressibility (1/GPa) = 0.02284424
#
# Stress axis : x y z
#
# Youngs Moduli (GPa) = 69.86117 38.83442 82.20205
#
# Poissons Ratio (x) = 0.33381 0.48989
# Poissons Ratio (y) = 0.60051 0.01129
# Poissons Ratio (z) = 0.41634 0.00533
#
# Static dielectric constant tensor:
#      x y z
#    x 1.677770 0.000000 0.000000 
#    y 0.000000 1.755060 0.000000 
#    z 0.000000 0.000000 1.675350 
# 
# From -- ./inp_files/12242.got.cif
#   From: 2010.05.17/outbox.cif.g08.bks.cpg/sg62_7_cif.got.tgz:12242.got - 2010.06.03 15:25:27.
