data_PCOD9466186
_publ_section_title
;
Structure prediction by ZEFSAII (Michael W. Deem and Ramdas Pophale) SiO2 
 PCOD9466186
Probable space group: P N M A
;
_chemical_formula_sum "Si O2"
_cell_formula_units_Z 64
_cell_length_a 31.489481
_cell_length_b 7.872556
_cell_length_c 12.218695
_cell_angle_alpha 90.000000
_cell_angle_beta 90.000000
_cell_angle_gamma 90.000000
_cell_volume 3029.047513
_symmetry_space_group_name_H-M "P N M A"
_symmetry_group_IT_number 62
_symmetry_cell_setting 'orthorhombic'
loop_
_space_group_symop_operation_xyz
x,y,z
1/2-x,-y,1/2+z
1/2+x,1/2-y,1/2-z
-x,1/2+y,-z
-x,-y,-z
1/2+x,y,1/2-z
1/2-x,1/2+y,1/2+z
x,1/2-y,z
loop_
_atom_site_type_symbol
_atom_site_label
_atom_site_fract_x
_atom_site_fract_y
_atom_site_fract_z
Si Si1 0.304074 0.457386 0.012017
Si Si2 0.291098 0.544735 0.557966
Si Si3 0.543275 0.045114 0.439889
Si Si4 0.625966 0.454386 0.572784
Si Si5 0.663856 0.951851 0.226637
Si Si6 0.048006 0.943286 0.519042
Si Si7 0.878612 0.455774 0.327247
Si Si8 0.427938 0.945043 0.786101
O O1 0.303564 0.250000 0.013892
O O2 0.255798 0.516184 0.026805
O O3 0.336865 0.513800 0.105868
O O4 0.321379 0.507480 0.893242
O O5 0.290745 0.750000 0.551959
O O6 0.329948 0.483569 0.481288
O O7 0.301987 0.491662 0.681095
O O8 0.546461 0.250000 0.433627
O O9 0.584518 0.982234 0.506652
O O10 0.544266 0.984632 0.313845
O O11 0.500000 0.000000 0.500000
O O12 0.625973 0.250000 0.563192
O O13 0.622683 0.497380 0.700478
O O14 0.655696 0.750000 0.224498
O O15 0.620248 0.045396 0.255866
O O16 0.044344 0.750000 0.553420
O O17 0.079496 0.023733 0.608867
O O18 0.069760 0.958241 0.400302
O O19 0.000000 0.000000 0.500000
O O20 0.878741 0.250000 0.334298
O O21 0.439894 0.750000 0.809161
#
# Coordination Sequence:
#
# PCOD9466186 Si02
#       8
#     8   8   8   8   8   8   8   8
#     4   9  20  39  61  85 119 158 193 240 302 352
#     4  10  21  40  62  85 120 160 195 244 302 353
#     4  10  23  41  60  86 118 153 196 242 295 351
#     4  10  22  40  59  85 120 157 196 241 293 353
#     4  11  21  38  63  90 119 155 202 252 298 355
#     4  11  24  42  63  90 123 158 200 249 301 356
#     4  10  22  41  60  84 120 158 195 242 295 350
#     4  11  22  41  65  89 119 157 200 248 302 359
#
# _framework density 21.128751999999999
#
# number of rings (size 3 to 8) (size 9 to 14) (size 15 to 20)
#    0.000    1.750    2.500    1.125    3.500    3.000 
#    0.000    1.250    0.000    0.000    0.000    0.000 
#    0.000    0.000    0.000    0.000    0.000    0.000 
#
# Total GULP energy -357498.918722 kJ/mol
# GULP energy per Si atom -5585.920605 kJ/mol
# Density = 2.108066 g / cm^3
# Si number density = 21.128752 Si / 1000 Ang^3
#
#
#
# Elastic Constant Matrix: (Units=GPa)
#
#
# Indices 1 2 3 4 5 6 
#
# 1 111.6367 8.2874 25.3680 0.0000 0.0000 0.0000
# 2 8.2874 22.3047 -7.4998 0.0000 0.0000 0.0000
# 3 25.3680 -7.4998 99.4861 0.0000 0.0000 0.0000
# 4 0.0000 0.0000 0.0000 27.4142 0.0000 0.0000
# 5 0.0000 0.0000 0.0000 0.0000 38.0118 0.0000
# 6 0.0000 0.0000 0.0000 0.0000 0.0000 20.4417
#
#
#
# Elastic Compliance Matrix: (Units=1/GPa)
#
#
# Indices 1 2 3 4 5 6 
#
# 1 0.009962 -0.004674 -0.002893 0.000000 0.000000 0.000000
# 2 -0.004674 0.048193 0.004825 0.000000 0.000000 0.000000
# 3 -0.002893 0.004825 0.011153 0.000000 0.000000 0.000000
# 4 0.000000 0.000000 0.000000 0.036477 0.000000 0.000000
# 5 0.000000 0.000000 0.000000 0.000000 0.026308 0.000000
# 6 0.000000 0.000000 0.000000 0.000000 0.000000 0.048920
#
#
# Mechanical properties :
#
#
# Convention : Reuss Voigt Hill
#
# Bulk Modulus (GPa) = 15.66806 31.74873 23.70840
# Shear Modulus (GPa) = 24.06505 30.99167 27.52836
#
# Velocity S-wave (km/s) = 3.37853 3.83404 3.61347
# Velocity P-wave (km/s) = 4.75929 5.88717 5.35302
#
# Compressibility (1/GPa) = 0.06382413
#
# Stress axis : x y z
#
# Youngs Moduli (GPa) = 100.38249 20.75007 89.66232
#
# Poissons Ratio (x) = 0.09699 0.25935
# Poissons Ratio (y) = 0.46919 -0.43261
# Poissons Ratio (z) = 0.29036 -0.10012
#
# Static dielectric constant tensor:
#      x y z
#    x 1.789100 0.000000 0.000000 
#    y 0.000000 1.771880 0.000000 
#    z 0.000000 0.000000 1.744740 
# 
# From -- ./inp_files/15802.got.cif
#   From: 2010.05.17/outbox.cif.g08.bks.cpg/sg62_8_cif.got.tgz:15802.got - 2010.06.03 15:25:27.
