data_PCOD9466305
_publ_section_title
;
Structure prediction by ZEFSAII (Michael W. Deem and Ramdas Pophale) SiO2 
 PCOD9466305
Probable space group: P N M A
;
_chemical_formula_sum "Si O2"
_cell_formula_units_Z 40
_cell_length_a 13.842393
_cell_length_b 9.621017
_cell_length_c 15.259640
_cell_angle_alpha 90.000000
_cell_angle_beta 90.000000
_cell_angle_gamma 90.000000
_cell_volume 2032.246785
_symmetry_space_group_name_H-M "P N M A"
_symmetry_group_IT_number 62
_symmetry_cell_setting 'orthorhombic'
loop_
_space_group_symop_operation_xyz
x,y,z
1/2-x,-y,1/2+z
1/2+x,1/2-y,1/2-z
-x,1/2+y,-z
-x,-y,-z
1/2+x,y,1/2-z
1/2-x,1/2+y,1/2+z
x,1/2-y,z
loop_
_atom_site_type_symbol
_atom_site_label
_atom_site_fract_x
_atom_site_fract_y
_atom_site_fract_z
Si Si1 0.362961 0.250000 0.653802
Si Si2 0.948095 0.750000 0.645011
Si Si3 0.367223 0.250000 0.259859
Si Si4 0.824127 0.250000 0.035864
Si Si5 0.211682 0.453838 0.735434
Si Si6 0.462042 0.750000 0.210017
Si Si7 0.576553 0.750000 0.028071
Si Si8 0.808728 0.992146 0.589060
O O1 0.387900 0.250000 0.551078
O O2 0.294420 0.381564 0.677730
O O3 0.455575 0.250000 0.716265
O O4 0.882643 0.888608 0.640102
O O5 0.024506 0.750000 0.723168
O O6 0.009728 0.750000 0.556055
O O7 0.368301 0.250000 0.366223
O O8 0.308864 0.383765 0.226549
O O9 0.756383 0.113642 0.033799
O O10 0.109973 0.379576 0.718595
O O11 0.245753 0.433743 0.835941
O O12 0.513070 0.750000 0.116278
O O13 0.638767 0.609145 0.032839
#
# Coordination Sequence:
#
# PCOD9466305 Si02
#       8
#     4   4   4   4   8   4   4   8
#     4  11  22  41  68  93 120 176 208 262 312 383
#     4  11  24  34  65  87 133 162 208 257 331 373
#     4  10  22  41  58  94 124 172 206 263 311 380
#     4   9  23  40  63  81 135 164 212 252 324 366
#     4  10  22  40  66  87 131 167 206 260 318 379
#     4  11  22  39  67  97 127 161 220 257 318 377
#     4  12  21  35  61 102 123 153 212 265 316 383
#     4  10  21  41  58  93 126 165 198 268 313 382
#
# _framework density 19.682648
#
# number of rings (size 3 to 8) (size 9 to 14) (size 15 to 20)
#    0.000    1.600    2.000    3.000    8.400    0.000 
#    0.000    4.000    0.000    0.000    0.000    0.000 
#    0.000    0.000    0.000    0.000    0.000    0.000 
#
# Total GULP energy -223474.230463 kJ/mol
# GULP energy per Si atom -5586.855762 kJ/mol
# Density = 1.963785 g / cm^3
# Si number density = 19.682648 Si / 1000 Ang^3
#
#
#
# Elastic Constant Matrix: (Units=GPa)
#
#
# Indices 1 2 3 4 5 6 
#
# 1 53.3112 14.0824 27.6847 0.0000 0.0000 0.0000
# 2 14.0824 106.9510 27.9140 0.0000 0.0000 0.0000
# 3 27.6847 27.9140 88.9409 0.0000 0.0000 0.0000
# 4 0.0000 0.0000 0.0000 7.4293 0.0000 0.0000
# 5 0.0000 0.0000 0.0000 0.0000 4.4728 0.0000
# 6 0.0000 0.0000 0.0000 0.0000 0.0000 18.3783
#
#
#
# Elastic Compliance Matrix: (Units=1/GPa)
#
#
# Indices 1 2 3 4 5 6 
#
# 1 0.022524 -0.001237 -0.006623 0.000000 0.000000 0.000000
# 2 -0.001237 0.010252 -0.002833 0.000000 0.000000 0.000000
# 3 -0.006623 -0.002833 0.014194 0.000000 0.000000 0.000000
# 4 0.000000 0.000000 0.000000 0.134603 0.000000 0.000000
# 5 0.000000 0.000000 0.000000 0.000000 0.223572 0.000000
# 6 0.000000 0.000000 0.000000 0.000000 0.000000 0.054412
#
#
# Mechanical properties :
#
#
# Convention : Reuss Voigt Hill
#
# Bulk Modulus (GPa) = 39.08544 43.17393 41.12969
# Shear Modulus (GPa) = 10.21513 18.02421 14.11967
#
# Velocity S-wave (km/s) = 2.28061 3.02940 2.68128
# Velocity P-wave (km/s) = 5.18033 5.84970 5.52516
#
# Compressibility (1/GPa) = 0.02558497
#
# Stress axis : x y z
#
# Youngs Moduli (GPa) = 44.39755 97.53931 70.45302
#
# Poissons Ratio (x) = 0.12068 0.46659
# Poissons Ratio (y) = 0.05493 0.19956
# Poissons Ratio (z) = 0.29403 0.27629
#
# Static dielectric constant tensor:
#      x y z
#    x 1.678230 0.000000 0.000000 
#    y 0.000000 1.652310 0.000000 
#    z 0.000000 0.000000 1.671620 
# 
# From -- ./inp_files/18705.got.cif
#   From: 2010.05.17/outbox.cif.g08.bks.cpg/sg62_10_cif.got.tgz:18705.got - 2010.06.03 15:25:27.
