data_PCOD9466700
_publ_section_title
;
Structure prediction by ZEFSAII (Michael W. Deem and Ramdas Pophale) SiO2 
 PCOD9466700
Probable space group: P N M A
;
_chemical_formula_sum "Si O2"
_cell_formula_units_Z 56
_cell_length_a 23.362711
_cell_length_b 8.536117
_cell_length_c 14.118391
_cell_angle_alpha 90.000000
_cell_angle_beta 90.000000
_cell_angle_gamma 90.000000
_cell_volume 2815.586026
_symmetry_space_group_name_H-M "P N M A"
_symmetry_group_IT_number 62
_symmetry_cell_setting 'orthorhombic'
loop_
_space_group_symop_operation_xyz
x,y,z
1/2-x,-y,1/2+z
1/2+x,1/2-y,1/2-z
-x,1/2+y,-z
-x,-y,-z
1/2+x,y,1/2-z
1/2-x,1/2+y,1/2+z
x,1/2-y,z
loop_
_atom_site_type_symbol
_atom_site_label
_atom_site_fract_x
_atom_site_fract_y
_atom_site_fract_z
Si Si1 0.838264 0.435043 0.233919
Si Si2 0.928094 0.560874 0.907705
Si Si3 0.177528 0.064033 0.563394
Si Si4 0.939911 0.562640 0.536400
Si Si5 0.059218 0.938701 0.887709
Si Si6 0.130256 0.060158 0.283163
Si Si7 0.758840 0.066043 0.610281
O O1 0.840115 0.250000 0.253788
O O2 0.817238 0.522646 0.327229
O O3 0.900618 0.490056 0.198420
O O4 0.794711 0.469926 0.149049
O O5 0.927521 0.750000 0.911572
O O6 0.886247 0.512967 0.822983
O O7 0.993176 0.510154 0.882471
O O8 0.916135 0.496692 0.011981
O O9 0.182170 0.250000 0.547589
O O10 0.114092 0.012846 0.528238
O O11 0.222944 0.979570 0.495889
O O12 0.942822 0.750000 0.532527
O O13 0.921245 0.520900 0.643682
O O14 0.000000 0.500000 0.500000
O O15 0.059767 0.750000 0.888159
O O16 0.137695 0.250000 0.286318
O O17 0.186913 0.981360 0.324460
O O18 0.747319 0.250000 0.617234
#
# Coordination Sequence:
#
# PCOD9466700 Si02
#       7
#     8   8   8   8   8   8   8
#     4  11  23  39  62  87 116 155 196 242 297 350
#     4   9  18  35  58  82 113 151 188 232 284 341
#     4  10  22  41  60  84 117 150 193 244 290 342
#     4   9  19  33  53  81 114 148 183 231 287 347
#     4   9  20  36  55  83 115 147 187 235 285 341
#     4   9  19  36  57  80 112 151 191 238 289 342
#     4  11  23  40  60  84 116 152 195 241 291 349
#
# _framework density 19.889286999999999
#
# number of rings (size 3 to 8) (size 9 to 14) (size 15 to 20)
#    0.000    2.286    0.000    3.000    2.000    5.714 
#    0.000    2.857    0.000    0.000    0.000    0.000 
#    0.000    0.000    0.000    0.000    0.000    0.000 
#
# Total GULP energy -312688.186872 kJ/mol
# GULP energy per Si atom -5583.717623 kJ/mol
# Density = 1.984402 g / cm^3
# Si number density = 19.889287 Si / 1000 Ang^3
#
#
#
# Elastic Constant Matrix: (Units=GPa)
#
#
# Indices 1 2 3 4 5 6 
#
# 1 15.5144 -7.4419 -0.7982 0.0000 0.0000 0.0000
# 2 -7.4419 14.6276 -2.4816 0.0000 0.0000 0.0000
# 3 -0.7982 -2.4816 67.6125 0.0000 0.0000 0.0000
# 4 0.0000 0.0000 0.0000 30.1633 0.0000 0.0000
# 5 0.0000 0.0000 0.0000 0.0000 18.6075 0.0000
# 6 0.0000 0.0000 0.0000 0.0000 0.0000 25.6837
#
#
#
# Elastic Compliance Matrix: (Units=1/GPa)
#
#
# Indices 1 2 3 4 5 6 
#
# 1 0.085726 0.044060 0.002629 0.000000 0.000000 0.000000
# 2 0.044060 0.091438 0.003876 0.000000 0.000000 0.000000
# 3 0.002629 0.003876 0.014963 0.000000 0.000000 0.000000
# 4 0.000000 0.000000 0.000000 0.033153 0.000000 0.000000
# 5 0.000000 0.000000 0.000000 0.000000 0.053742 0.000000
# 6 0.000000 0.000000 0.000000 0.000000 0.000000 0.038935
#
#
# Mechanical properties :
#
#
# Convention : Reuss Voigt Hill
#
# Bulk Modulus (GPa) = 3.40996 8.47901 5.94448
# Shear Modulus (GPa) = 15.89426 22.12266 19.00846
#
# Velocity S-wave (km/s) = 2.82997 3.33872 3.09482
# Velocity P-wave (km/s) = 3.52086 4.37437 3.97062
#
# Compressibility (1/GPa) = 0.29325870
#
# Stress axis : x y z
#
# Youngs Moduli (GPa) = 11.66501 10.93641 66.82943
#
# Poissons Ratio (x) = -0.48186 -0.17570
# Poissons Ratio (y) = -0.51396 -0.25904
# Poissons Ratio (z) = -0.03067 -0.04239
#
# Static dielectric constant tensor:
#      x y z
#    x 1.704620 0.000000 0.000000 
#    y 0.000000 1.674870 0.000000 
#    z 0.000000 0.000000 1.697850 
# 
# From -- ./inp_files/20279.got.cif
#   From: 2010.05.17/outbox.cif.g08.bks.cpg/sg62_11_cif.got.tgz:20279.got - 2010.06.03 15:25:27.
