data_PCOD9466613
_publ_section_title
;
Structure prediction by ZEFSAII (Michael W. Deem and Ramdas Pophale) SiO2 
 PCOD9466613
Probable space group: P N M A
;
_chemical_formula_sum "Si O2"
_cell_formula_units_Z 48
_cell_length_a 31.599593
_cell_length_b 8.796426
_cell_length_c 9.110008
_cell_angle_alpha 90.000000
_cell_angle_beta 90.000000
_cell_angle_gamma 90.000000
_cell_volume 2532.249540
_symmetry_space_group_name_H-M "P N M A"
_symmetry_group_IT_number 62
_symmetry_cell_setting 'orthorhombic'
loop_
_space_group_symop_operation_xyz
x,y,z
1/2-x,-y,1/2+z
1/2+x,1/2-y,1/2-z
-x,1/2+y,-z
-x,-y,-z
1/2+x,y,1/2-z
1/2-x,1/2+y,1/2+z
x,1/2-y,z
loop_
_atom_site_type_symbol
_atom_site_label
_atom_site_fract_x
_atom_site_fract_y
_atom_site_fract_z
Si Si1 0.124268 0.432616 0.922795
Si Si2 0.541146 0.931926 0.078277
Si Si3 0.541429 0.567403 0.422804
Si Si4 0.791433 0.933178 0.592999
Si Si5 0.876809 0.566892 0.420876
Si Si6 0.293854 0.067812 0.582138
O O1 0.123071 0.250000 0.933867
O O2 0.124657 0.474364 0.750680
O O3 0.083065 0.501635 0.000049
O O4 0.166102 0.494449 0.001478
O O5 0.539770 0.750000 0.067639
O O6 0.541487 0.973226 0.250427
O O7 0.500000 0.000000 0.000000
O O8 0.583192 0.993043 0.000164
O O9 0.500000 0.500000 0.500000
O O10 0.541100 0.750000 0.434849
O O11 0.791945 0.750000 0.611048
O O12 0.833320 0.976318 0.501931
O O13 0.749276 0.973627 0.502942
O O14 0.791664 0.009974 0.751442
O O15 0.880920 0.750000 0.429558
O O16 0.298002 0.250000 0.580509
#
# Coordination Sequence:
#
# PCOD9466613 Si02
#       6
#     8   8   8   8   8   8
#     4  11  23  40  62  88 120 158 198 243 295 351
#     4  11  24  40  60  87 118 152 193 241 292 348
#     4  11  24  41  61  89 121 155 198 245 295 352
#     4  10  22  40  61  86 119 158 196 240 295 349
#     4  10  22  40  61  86 117 154 197 241 289 348
#     4  11  23  39  61  90 121 155 199 246 292 350
#
# _framework density 18.955477999999999
#
# number of rings (size 3 to 8) (size 9 to 14) (size 15 to 20)
#    0.000    1.333    0.000    5.000    0.000   14.000 
#    0.000    0.000    0.000    0.000    0.000    0.000 
#    0.000    0.000    0.000    0.000    0.000    0.000 
#
# Total GULP energy -268554.406080 kJ/mol
# GULP energy per Si atom -5594.883460 kJ/mol
# Density = 1.891233 g / cm^3
# Si number density = 18.955478 Si / 1000 Ang^3
#
#
#
# Elastic Constant Matrix: (Units=GPa)
#
#
# Indices 1 2 3 4 5 6 
#
# 1 230.2251 72.2936 141.9005 0.0000 0.0000 0.0000
# 2 72.2936 50.1138 82.2096 0.0000 0.0000 0.0000
# 3 141.9005 82.2096 232.7657 0.0000 0.0000 0.0000
# 4 0.0000 0.0000 0.0000 36.9694 0.0000 0.0000
# 5 0.0000 0.0000 0.0000 0.0000 45.4512 0.0000
# 6 0.0000 0.0000 0.0000 0.0000 0.0000 36.5467
#
#
#
# Elastic Compliance Matrix: (Units=1/GPa)
#
#
# Indices 1 2 3 4 5 6 
#
# 1 0.008307 -0.008739 -0.001977 0.000000 0.000000 0.000000
# 2 -0.008739 0.056636 -0.014675 0.000000 0.000000 0.000000
# 3 -0.001977 -0.014675 0.010685 0.000000 0.000000 0.000000
# 4 0.000000 0.000000 0.000000 0.027049 0.000000 0.000000
# 5 0.000000 0.000000 0.000000 0.000000 0.022002 0.000000
# 6 0.000000 0.000000 0.000000 0.000000 0.000000 0.027362
#
#
# Mechanical properties :
#
#
# Convention : Reuss Voigt Hill
#
# Bulk Modulus (GPa) = 40.25206 122.87909 81.56558
# Shear Modulus (GPa) = 23.68485 38.24018 30.96252
#
# Velocity S-wave (km/s) = 3.53866 4.49639 4.04596
# Velocity P-wave (km/s) = 6.16257 9.58762 8.05915
#
# Compressibility (1/GPa) = 0.02484345
#
# Stress axis : x y z
#
# Youngs Moduli (GPa) = 120.38735 17.65664 93.59126
#
# Poissons Ratio (x) = 0.15430 0.18506
# Poissons Ratio (y) = 1.05208 1.37349
# Poissons Ratio (z) = 0.23805 0.25912
#
# Static dielectric constant tensor:
#      x y z
#    x 1.613490 0.000000 0.000000 
#    y 0.000000 1.640300 0.000000 
#    z 0.000000 0.000000 1.625370 
# 
# From -- ./inp_files/10230.got.cif
#   From: 2010.05.17/outbox.cif.g08.bks.cpg/sg62_6_cif.got.tgz:10230.got - 2010.06.03 15:25:27.
