data_PCOD9466237
_publ_section_title
;
Structure prediction by ZEFSAII (Michael W. Deem and Ramdas Pophale) SiO2 
 PCOD9466237
Probable space group: P N M A
;
_chemical_formula_sum "Si O2"
_cell_formula_units_Z 52
_cell_length_a 12.626090
_cell_length_b 16.779265
_cell_length_c 9.655669
_cell_angle_alpha 90.000000
_cell_angle_beta 90.000000
_cell_angle_gamma 90.000000
_cell_volume 2045.616336
_symmetry_space_group_name_H-M "P N M A"
_symmetry_group_IT_number 62
_symmetry_cell_setting 'orthorhombic'
loop_
_space_group_symop_operation_xyz
x,y,z
1/2-x,-y,1/2+z
1/2+x,1/2-y,1/2-z
-x,1/2+y,-z
-x,-y,-z
1/2+x,y,1/2-z
1/2-x,1/2+y,1/2+z
x,1/2-y,z
loop_
_atom_site_type_symbol
_atom_site_label
_atom_site_fract_x
_atom_site_fract_y
_atom_site_fract_z
Si Si1 0.917265 0.250000 0.818188
Si Si2 0.793028 0.593241 0.505587
Si Si3 0.899843 0.082865 0.480739
Si Si4 0.429170 0.895914 0.747010
Si Si5 0.963213 0.750000 0.949333
Si Si6 0.376844 0.989692 0.493473
Si Si7 0.781614 0.250000 0.551720
Si Si8 0.930449 0.609309 0.272435
O O1 0.994903 0.175269 0.791523
O O2 0.822598 0.250000 0.710739
O O3 0.919544 0.250000 0.981706
O O4 0.828438 0.497148 0.496191
O O5 0.848397 0.631555 0.635151
O O6 0.671607 0.576853 0.520448
O O7 0.833552 0.635391 0.369250
O O8 0.834807 0.166778 0.492423
O O9 0.966615 0.080654 0.337060
O O10 0.985932 0.078151 0.607043
O O11 0.457911 0.827169 0.644012
O O12 0.361835 0.956538 0.650307
O O13 0.845313 0.750000 0.027594
O O14 0.371502 0.938053 0.351957
O O15 0.500000 0.000000 0.500000
#
# Coordination Sequence:
#
# PCOD9466237 Si02
#       8
#     4   8   8   8   4   8   4   8
#     4  10  22  44  64  94 130 170 226 276 336 402
#     4  11  23  41  64  95 133 172 221 272 335 409
#     4  10  21  42  67  98 131 174 222 266 339 405
#     4  11  23  40  67  97 130 171 221 282 333 392
#     4  12  23  43  69 100 134 174 234 283 331 400
#     4  12  23  37  59  93 132 171 216 278 333 384
#     4  10  23  41  73  94 132 190 218 269 347 416
#     4  10  21  40  64  89 127 172 214 272 335 397
#
# _framework density 25.420210000000001
#
# number of rings (size 3 to 8) (size 9 to 14) (size 15 to 20)
#    0.000    1.231    1.538    6.000    0.000    3.077 
#    2.769    0.000    0.000    0.000    0.000    0.000 
#    0.000    0.000    0.000    0.000    0.000    0.000 
#
# Total GULP energy -289946.700523 kJ/mol
# GULP energy per Si atom -5575.898087 kJ/mol
# Density = 2.536235 g / cm^3
# Si number density = 25.420210 Si / 1000 Ang^3
#
#
#
# Elastic Constant Matrix: (Units=GPa)
#
#
# Indices 1 2 3 4 5 6 
#
# 1 57.0430 10.3028 27.8071 0.0000 0.0000 0.0000
# 2 10.3028 66.7395 -0.5869 0.0000 0.0000 0.0000
# 3 27.8071 -0.5869 143.0988 0.0000 0.0000 0.0000
# 4 0.0000 0.0000 0.0000 19.8108 0.0000 0.0000
# 5 0.0000 0.0000 0.0000 0.0000 32.9309 0.0000
# 6 0.0000 0.0000 0.0000 0.0000 0.0000 124.5671
#
#
#
# Elastic Compliance Matrix: (Units=1/GPa)
#
#
# Indices 1 2 3 4 5 6 
#
# 1 0.019995 -0.003121 -0.003898 0.000000 0.000000 0.000000
# 2 -0.003121 0.015471 0.000670 0.000000 0.000000 0.000000
# 3 -0.003898 0.000670 0.007748 0.000000 0.000000 0.000000
# 4 0.000000 0.000000 0.000000 0.050478 0.000000 0.000000
# 5 0.000000 0.000000 0.000000 0.000000 0.030367 0.000000
# 6 0.000000 0.000000 0.000000 0.000000 0.000000 0.008028
#
#
# Mechanical properties :
#
#
# Convention : Reuss Voigt Hill
#
# Bulk Modulus (GPa) = 32.76971 37.99190 35.38080
# Shear Modulus (GPa) = 32.26709 50.75231 41.50970
#
# Velocity S-wave (km/s) = 3.56666 4.47311 4.04535
# Velocity P-wave (km/s) = 5.46631 6.45416 5.98067
#
# Compressibility (1/GPa) = 0.03051599
#
# Stress axis : x y z
#
# Youngs Moduli (GPa) = 50.01355 64.63581 129.05851
#
# Poissons Ratio (x) = 0.20172 0.50309
# Poissons Ratio (y) = 0.15609 -0.08646
# Poissons Ratio (z) = 0.19496 -0.04330
#
# Static dielectric constant tensor:
#      x y z
#    x 2.217400 0.000000 0.000000 
#    y 0.000000 9.944450 0.000000 
#    z 0.000000 0.000000 1.933950 
# 
# From -- ./inp_files/6731.got.cif
#   From: 2010.05.17/outbox.cif.g08.bks.cpg/sg62_4_cif.got.tgz:6731.got - 2010.06.03 15:25:27.
