data_PCOD9466194
_publ_section_title
;
Structure prediction by ZEFSAII (Michael W. Deem and Ramdas Pophale) SiO2 
 PCOD9466194
Probable space group: P N M A
;
_chemical_formula_sum "Si O2"
_cell_formula_units_Z 64
_cell_length_a 9.262495
_cell_length_b 27.091635
_cell_length_c 12.767274
_cell_angle_alpha 90.000000
_cell_angle_beta 90.000000
_cell_angle_gamma 90.000000
_cell_volume 3203.770376
_symmetry_space_group_name_H-M "P N M A"
_symmetry_group_IT_number 62
_symmetry_cell_setting 'orthorhombic'
loop_
_space_group_symop_operation_xyz
x,y,z
1/2-x,-y,1/2+z
1/2+x,1/2-y,1/2-z
-x,1/2+y,-z
-x,-y,-z
1/2+x,y,1/2-z
1/2-x,1/2+y,1/2+z
x,1/2-y,z
loop_
_atom_site_type_symbol
_atom_site_label
_atom_site_fract_x
_atom_site_fract_y
_atom_site_fract_z
Si Si1 0.980433 0.883598 0.587794
Si Si2 0.797621 0.307111 0.330752
Si Si3 0.056907 0.192663 0.990650
Si Si4 0.257446 0.694166 0.912339
Si Si5 0.597733 0.387515 0.686810
Si Si6 0.831719 0.976590 0.694637
Si Si7 0.417300 0.083635 0.870120
Si Si8 0.511484 0.004910 0.623218
O O1 0.861114 0.846678 0.541258
O O2 0.899004 0.926944 0.648702
O O3 0.081231 0.848666 0.657926
O O4 0.071409 0.905440 0.492261
O O5 0.850906 0.250000 0.342247
O O6 0.681655 0.316182 0.422840
O O7 0.734479 0.310062 0.213911
O O8 0.068533 0.250000 0.958920
O O9 0.064275 0.157873 0.889467
O O10 0.905522 0.186065 0.050238
O O11 0.298890 0.750000 0.941366
O O12 0.767589 0.397174 0.677887
O O13 0.542527 0.388371 0.805911
O O14 0.519323 0.436699 0.644024
O O15 0.913210 0.024517 0.646009
O O16 0.661982 0.982280 0.668580
O O17 0.875788 0.981098 0.816469
O O18 0.500000 0.000000 0.500000
#
# Coordination Sequence:
#
# PCOD9466194 Si02
#       8
#     8   8   8   8   8   8   8   8
#     4  12  23  37  66  91 129 161 213 252 315 375
#     4  10  21  40  62  88 123 165 207 257 317 375
#     4  10  21  40  63  89 123 162 211 260 312 375
#     4  10  23  39  59  92 127 163 203 255 315 377
#     4  10  22  42  65  85 123 160 211 248 331 358
#     4  10  25  42  61  98 131 166 215 264 313 378
#     4  10  23  43  63  91 120 170 201 265 307 380
#     4  10  24  43  67  92 131 173 215 267 317 382
#
# _framework density 19.976464
#
# number of rings (size 3 to 8) (size 9 to 14) (size 15 to 20)
#    0.000    1.750    1.250    1.500    5.250    8.000 
#    0.000    1.875    0.000    0.000    0.000    0.000 
#    0.000    0.000    0.000    0.000    0.000    0.000 
#
# Total GULP energy -357397.969410 kJ/mol
# GULP energy per Si atom -5584.343272 kJ/mol
# Density = 1.993100 g / cm^3
# Si number density = 19.976464 Si / 1000 Ang^3
#
#
#
# Elastic Constant Matrix: (Units=GPa)
#
#
# Indices 1 2 3 4 5 6 
#
# 1 58.1133 26.5736 6.8629 0.0000 0.0000 0.0000
# 2 26.5736 74.4902 10.4311 0.0000 0.0000 0.0000
# 3 6.8629 10.4311 60.2374 0.0000 0.0000 0.0000
# 4 0.0000 0.0000 0.0000 20.9862 0.0000 0.0000
# 5 0.0000 0.0000 0.0000 0.0000 26.0225 0.0000
# 6 0.0000 0.0000 0.0000 0.0000 0.0000 203.0912
#
#
#
# Elastic Compliance Matrix: (Units=1/GPa)
#
#
# Indices 1 2 3 4 5 6 
#
# 1 0.020633 -0.007206 -0.001103 0.000000 0.000000 0.000000
# 2 -0.007206 0.016275 -0.001997 0.000000 0.000000 0.000000
# 3 -0.001103 -0.001997 0.017072 0.000000 0.000000 0.000000
# 4 0.000000 0.000000 0.000000 0.047650 0.000000 0.000000
# 5 0.000000 0.000000 0.000000 0.000000 0.038428 0.000000
# 6 0.000000 0.000000 0.000000 0.000000 0.000000 0.004924
#
#
# Mechanical properties :
#
#
# Convention : Reuss Voigt Hill
#
# Bulk Modulus (GPa) = 29.96889 31.17511 30.57200
# Shear Modulus (GPa) = 28.29354 59.95154 44.12254
#
# Velocity S-wave (km/s) = 3.76752 5.48418 4.70481
# Velocity P-wave (km/s) = 5.82754 7.46602 6.69708
#
# Compressibility (1/GPa) = 0.03336794
#
# Stress axis : x y z
#
# Youngs Moduli (GPa) = 48.46551 61.44388 58.57373
#
# Poissons Ratio (x) = 0.44278 0.06460
# Poissons Ratio (y) = 0.34925 0.11699
# Poissons Ratio (z) = 0.05345 0.12272
#
# Static dielectric constant tensor:
#      x y z
#    x 1.730050 0.000000 0.000000 
#    y 0.000000 1.701000 0.000000 
#    z 0.000000 0.000000 1.692090 
# 
# From -- ./inp_files/11573.got.cif
#   From: 2010.05.17/outbox.cif.g08.bks.cpg/sg62_6_cif.got.tgz:11573.got - 2010.06.03 15:25:27.
