data_PCOD9466677
_publ_section_title
;
Structure prediction by ZEFSAII (Michael W. Deem and Ramdas Pophale) SiO2 
 PCOD9466677
Probable space group: P N M A
;
_chemical_formula_sum "Si O2"
_cell_formula_units_Z 56
_cell_length_a 10.928915
_cell_length_b 16.562931
_cell_length_c 14.781659
_cell_angle_alpha 90.000000
_cell_angle_beta 90.000000
_cell_angle_gamma 90.000000
_cell_volume 2675.700009
_symmetry_space_group_name_H-M "P N M A"
_symmetry_group_IT_number 62
_symmetry_cell_setting 'orthorhombic'
loop_
_space_group_symop_operation_xyz
x,y,z
1/2-x,-y,1/2+z
1/2+x,1/2-y,1/2-z
-x,1/2+y,-z
-x,-y,-z
1/2+x,y,1/2-z
1/2-x,1/2+y,1/2+z
x,1/2-y,z
loop_
_atom_site_type_symbol
_atom_site_label
_atom_site_fract_x
_atom_site_fract_y
_atom_site_fract_z
Si Si1 0.029437 0.658136 0.165256
Si Si2 0.809773 0.567223 0.101338
Si Si3 0.296439 0.439965 0.234532
Si Si4 0.641615 0.160646 0.018131
Si Si5 0.696642 0.971104 0.436098
Si Si6 0.073442 0.659169 0.377908
Si Si7 0.451393 0.656081 0.781140
O O1 0.066763 0.750000 0.142430
O O2 0.105480 0.587530 0.117286
O O3 0.046897 0.647344 0.272328
O O4 0.890315 0.641484 0.137273
O O5 0.809509 0.502152 0.182196
O O6 0.670990 0.595323 0.087798
O O7 0.858989 0.536636 0.004615
O O8 0.282726 0.487519 0.139399
O O9 0.168748 0.390186 0.243388
O O10 0.418392 0.385354 0.238735
O O11 0.700368 0.250000 0.018194
O O12 0.733433 0.087995 0.005017
O O13 0.550269 0.155228 0.934097
O O14 0.567311 0.153820 0.110632
O O15 0.122680 0.750000 0.390112
O O16 0.451218 0.750000 0.752171
#
# Coordination Sequence:
#
# PCOD9466677 Si02
#       7
#     8   8   8   8   8   8   8
#     4  11  24  42  63  95 138 179 216 272 344 412
#     4  12  24  41  64  95 134 169 225 273 339 396
#     4  12  25  43  71 100 137 175 228 284 342 395
#     4  10  22  42  69  97 128 173 229 279 333 399
#     4  12  24  41  67  98 134 171 226 274 340 396
#     4  10  22  40  66  96 129 170 217 277 340 399
#     4  11  25  47  69  98 135 183 232 278 335 403
#
# _framework density 20.929103000000001
#
# number of rings (size 3 to 8) (size 9 to 14) (size 15 to 20)
#    0.000    0.857    2.857    4.286    2.000    1.143 
#    0.000    3.571    0.000    0.000    0.000    0.000 
#    0.000    0.000    0.000    0.000    0.000    0.000 
#
# Total GULP energy -312962.609565 kJ/mol
# GULP energy per Si atom -5588.618028 kJ/mol
# Density = 2.088147 g / cm^3
# Si number density = 20.929103 Si / 1000 Ang^3
#
#
#
# Elastic Constant Matrix: (Units=GPa)
#
#
# Indices 1 2 3 4 5 6 
#
# 1 57.4964 14.6948 -9.7543 0.0000 0.0000 0.0000
# 2 14.6948 64.6438 23.7426 0.0000 0.0000 0.0000
# 3 -9.7543 23.7426 70.3233 0.0000 0.0000 0.0000
# 4 0.0000 0.0000 0.0000 10.1791 0.0000 0.0000
# 5 0.0000 0.0000 0.0000 0.0000 27.8010 0.0000
# 6 0.0000 0.0000 0.0000 0.0000 0.0000 48.0599
#
#
#
# Elastic Compliance Matrix: (Units=1/GPa)
#
#
# Indices 1 2 3 4 5 6 
#
# 1 0.019830 -0.006299 0.004877 0.000000 0.000000 0.000000
# 2 -0.006299 0.019660 -0.007511 0.000000 0.000000 0.000000
# 3 0.004877 -0.007511 0.017433 0.000000 0.000000 0.000000
# 4 0.000000 0.000000 0.000000 0.098241 0.000000 0.000000
# 5 0.000000 0.000000 0.000000 0.000000 0.035970 0.000000
# 6 0.000000 0.000000 0.000000 0.000000 0.000000 0.020807
#
#
# Mechanical properties :
#
#
# Convention : Reuss Voigt Hill
#
# Bulk Modulus (GPa) = 25.60429 27.75886 26.68158
# Shear Modulus (GPa) = 20.59091 28.12669 24.35880
#
# Velocity S-wave (km/s) = 3.14003 3.66991 3.41526
# Velocity P-wave (km/s) = 5.04051 5.59014 5.32243
#
# Compressibility (1/GPa) = 0.03905596
#
# Stress axis : x y z
#
# Youngs Moduli (GPa) = 50.42939 50.86448 57.36404
#
# Poissons Ratio (x) = 0.32040 -0.27978
# Poissons Ratio (y) = 0.31766 0.43088
# Poissons Ratio (z) = -0.24595 0.38206
#
# Static dielectric constant tensor:
#      x y z
#    x 1.745930 0.000000 0.000000 
#    y 0.000000 1.790190 0.000000 
#    z 0.000000 0.000000 1.709940 
# 
# From -- ./inp_files/18069.got.cif
#   From: 2010.05.17/outbox.cif.g08.bks.cpg/sg62_10_cif.got.tgz:18069.got - 2010.06.03 15:25:27.
