data_PCOD9466471
_publ_section_title
;
Structure prediction by ZEFSAII (Michael W. Deem and Ramdas Pophale) SiO2 
 PCOD9466471
Probable space group: P N M A
;
_chemical_formula_sum "Si O2"
_cell_formula_units_Z 36
_cell_length_a 24.974176
_cell_length_b 7.695064
_cell_length_c 7.413113
_cell_angle_alpha 90.000000
_cell_angle_beta 90.000000
_cell_angle_gamma 90.000000
_cell_volume 1424.636360
_symmetry_space_group_name_H-M "P N M A"
_symmetry_group_IT_number 62
_symmetry_cell_setting 'orthorhombic'
loop_
_space_group_symop_operation_xyz
x,y,z
1/2-x,-y,1/2+z
1/2+x,1/2-y,1/2-z
-x,1/2+y,-z
-x,-y,-z
1/2+x,y,1/2-z
1/2-x,1/2+y,1/2+z
x,1/2-y,z
loop_
_atom_site_type_symbol
_atom_site_label
_atom_site_fract_x
_atom_site_fract_y
_atom_site_fract_z
Si Si1 0.321139 0.459373 0.664299
Si Si2 0.024523 0.435383 0.755011
Si Si3 0.702295 0.043786 0.741952
Si Si4 0.542703 0.250000 0.399213
Si Si5 0.612221 0.952207 0.019231
O O1 0.323567 0.250000 0.679892
O O2 0.263599 0.518875 0.742166
O O3 0.369098 0.531352 0.788646
O O4 0.320259 0.506327 0.455782
O O5 0.994860 0.250000 0.740706
O O6 0.986508 0.597707 0.777629
O O7 0.065482 0.457478 0.592076
O O8 0.056200 0.401632 0.943188
O O9 0.702507 0.250000 0.771407
O O10 0.665128 0.963140 0.894274
O O11 0.599546 0.750000 0.034877
#
# Coordination Sequence:
#
# PCOD9466471 Si02
#       5
#     8   8   8   4   8
#     4  10  22  37  53  76 110 151 191 233 280 328
#     4   9  16  30  52  83 113 141 186 230 278 344
#     4  11  22  36  54  77 108 150 193 233 280 331
#     4   8  16  30  52  82 112 140 180 234 284 338
#     4  11  21  35  56  84 113 148 190 234 279 336
#
# _framework density 25.269608999999999
#
# number of rings (size 3 to 8) (size 9 to 14) (size 15 to 20)
#    0.667    1.333    3.333    1.333    0.000    2.667 
#    0.000    0.000    0.000    0.000    0.000    9.333 
#    0.000    0.000    0.000    0.000    0.000    0.000 
#
# Total GULP energy -200480.045556 kJ/mol
# GULP energy per Si atom -5568.890154 kJ/mol
# Density = 2.521209 g / cm^3
# Si number density = 25.269609 Si / 1000 Ang^3
#
#
#
# Elastic Constant Matrix: (Units=GPa)
#
#
# Indices 1 2 3 4 5 6 
#
# 1 92.2101 4.5176 46.0069 0.0000 0.0000 0.0000
# 2 4.5176 110.3267 -19.7965 0.0000 0.0000 0.0000
# 3 46.0069 -19.7965 104.4025 0.0000 0.0000 0.0000
# 4 0.0000 0.0000 0.0000 -159.7438 0.0000 0.0000
# 5 0.0000 0.0000 0.0000 0.0000 49.6715 0.0000
# 6 0.0000 0.0000 0.0000 0.0000 0.0000 -11.4742
#
#
#
# Elastic Compliance Matrix: (Units=1/GPa)
#
#
# Indices 1 2 3 4 5 6 
#
# 1 0.014227 -0.001768 -0.006604 0.000000 0.000000 0.000000
# 2 -0.001768 0.009603 0.002600 0.000000 0.000000 0.000000
# 3 -0.006604 0.002600 0.012982 0.000000 0.000000 0.000000
# 4 0.000000 0.000000 0.000000 -0.006260 0.000000 0.000000
# 5 0.000000 0.000000 0.000000 0.000000 0.020132 0.000000
# 6 0.000000 0.000000 0.000000 0.000000 0.000000 -0.087152
#
#
# Mechanical properties :
#
#
# Convention : Reuss Voigt Hill
#
# Bulk Modulus (GPa) = 39.57779 40.93281 40.25530
# Shear Modulus (GPa) = -302.99094 -5.89523 -154.44308
#
# Velocity S-wave (km/s) = -10.96192 -1.52905 -7.82629
# Velocity P-wave (km/s) = 12.02173 3.62164 8.10573
#
# Compressibility (1/GPa) = 0.02526670
#
# Stress axis : x y z
#
# Youngs Moduli (GPa) = 70.29108 104.13558 77.03199
#
# Poissons Ratio (x) = 0.18407 0.50875
# Poissons Ratio (y) = 0.12425 -0.20027
# Poissons Ratio (z) = 0.46423 -0.27073
#
# Static dielectric constant tensor:
#      x y z
#    x 2.052130 0.000000 0.000000 
#    y 0.000000 1.905510 0.000000 
#    z 0.000000 0.000000 2.006720 
# 
# From -- ./inp_files/9999.got.cif
#   From: 2010.05.17/outbox.cif.g08.bks.cpg/sg62_5_cif.got.tgz:9999.got - 2010.06.03 15:25:27.
