data_PCOD9466269
_publ_section_title
;
Structure prediction by ZEFSAII (Michael W. Deem and Ramdas Pophale) SiO2 
 PCOD9466269
Probable space group: P N M A
;
_chemical_formula_sum "Si O2"
_cell_formula_units_Z 56
_cell_length_a 8.764351
_cell_length_b 17.684809
_cell_length_c 18.736086
_cell_angle_alpha 90.000000
_cell_angle_beta 90.000000
_cell_angle_gamma 90.000000
_cell_volume 2904.016014
_symmetry_space_group_name_H-M "P N M A"
_symmetry_group_IT_number 62
_symmetry_cell_setting 'orthorhombic'
loop_
_space_group_symop_operation_xyz
x,y,z
1/2-x,-y,1/2+z
1/2+x,1/2-y,1/2-z
-x,1/2+y,-z
-x,-y,-z
1/2+x,y,1/2-z
1/2-x,1/2+y,1/2+z
x,1/2-y,z
loop_
_atom_site_type_symbol
_atom_site_label
_atom_site_fract_x
_atom_site_fract_y
_atom_site_fract_z
Si Si1 0.433788 0.338381 0.073573
Si Si2 0.934273 0.390069 0.583587
Si Si3 0.431962 0.250000 0.670930
Si Si4 0.068021 0.250000 0.670938
Si Si5 0.066213 0.161619 0.073575
Si Si6 0.932459 0.961889 0.671727
Si Si7 0.065712 0.109929 0.916417
Si Si8 0.932466 0.461889 0.171728
O O1 0.477009 0.250000 0.071572
O O2 0.250001 0.342139 0.079255
O O3 0.507057 0.384262 0.138105
O O4 0.478675 0.377838 0.998766
O O5 0.977582 0.470028 0.618221
O O6 0.749992 0.382754 0.587425
O O7 0.008208 0.323372 0.629315
O O8 0.249992 0.250000 0.673967
O O9 0.499999 0.250000 0.749995
O O10 0.491768 0.323372 0.629306
O O11 0.022993 0.250000 0.071571
O O12 0.992949 0.115740 0.138109
O O13 0.021320 0.122157 0.998771
O O14 0.749997 0.960602 0.676212
O O15 0.999997 0.975321 0.749999
O O16 0.022407 0.029970 0.881780
#
# Coordination Sequence:
#
# PCOD9466269 Si02
#       8
#     8   8   4   4   8   8   8   8
#     4  10  21  40  66  91 122 161 199 249 310 366
#     4  10  21  41  64  89 123 160 200 250 307 365
#     4  12  24  36  58  90 125 164 203 248 298 360
#     4  12  24  36  58  90 125 164 203 248 298 360
#     4  10  21  40  66  91 122 161 199 249 310 366
#     4  11  24  40  62  90 123 162 206 255 304 361
#     4  10  21  41  64  89 123 160 200 250 307 365
#     4  11  24  40  62  90 123 162 206 255 304 361
#
# _framework density 19.283639999999998
#
# number of rings (size 3 to 8) (size 9 to 14) (size 15 to 20)
#    0.000    1.429    1.429    3.857    0.000    6.857 
#    0.000    0.000    0.000    0.000    0.000    0.000 
#    0.000    0.000    0.000    0.000    0.000    0.000 
#
# Total GULP energy -313127.827994 kJ/mol
# GULP energy per Si atom -5591.568357 kJ/mol
# Density = 1.923975 g / cm^3
# Si number density = 19.283640 Si / 1000 Ang^3
#
#
#
# Elastic Constant Matrix: (Units=GPa)
#
#
# Indices 1 2 3 4 5 6 
#
# 1 13.2046 29.5963 17.3423 0.0000 0.0000 0.0000
# 2 29.5963 126.0019 53.6682 0.0000 0.0000 0.0000
# 3 17.3423 53.6682 38.5954 0.0000 0.0000 0.0000
# 4 0.0000 0.0000 0.0000 -66.3368 0.0000 0.0000
# 5 0.0000 0.0000 0.0000 0.0000 23.3551 0.0000
# 6 0.0000 0.0000 0.0000 0.0000 0.0000 30.1084
#
#
#
# Elastic Compliance Matrix: (Units=1/GPa)
#
#
# Indices 1 2 3 4 5 6 
#
# 1 0.207154 -0.022102 -0.062348 0.000000 0.000000 0.000000
# 2 -0.022102 0.021823 -0.020415 0.000000 0.000000 0.000000
# 3 -0.062348 -0.020415 0.082312 0.000000 0.000000 0.000000
# 4 0.000000 0.000000 0.000000 -0.015075 0.000000 0.000000
# 5 0.000000 0.000000 0.000000 0.000000 0.042817 0.000000
# 6 0.000000 0.000000 0.000000 0.000000 0.000000 0.033213
#
#
# Mechanical properties :
#
#
# Convention : Reuss Voigt Hill
#
# Bulk Modulus (GPa) = 9.84637 42.11284 25.97961
# Shear Modulus (GPa) = 8.11915 2.57170 5.34542
#
# Velocity S-wave (km/s) = 2.05415 1.15608 1.66674
# Velocity P-wave (km/s) = 3.27768 4.86498 4.14797
#
# Compressibility (1/GPa) = 0.10156031
#
# Stress axis : x y z
#
# Youngs Moduli (GPa) = 4.82732 45.82299 12.14889
#
# Poissons Ratio (x) = 1.01278 0.75746
# Poissons Ratio (y) = 0.10669 0.24801
# Poissons Ratio (z) = 0.30097 0.93546
#
# Static dielectric constant tensor:
#      x y z
#    x 1.642820 0.000000 0.000000 
#    y 0.000000 1.652590 0.000000 
#    z 0.000000 0.000000 1.646130 
# 
# From -- ./inp_files/22445.got.cif
#   From: 2010.05.17/outbox.cif.g08.bks.cpg/sg62_12_cif.got.tgz:22445.got - 2010.06.03 15:25:27.
