data_PCOD9466093
_publ_section_title
;
Structure prediction by ZEFSAII (Michael W. Deem and Ramdas Pophale) SiO2 
 PCOD9466093
Probable space group: P N M A
;
_chemical_formula_sum "Si O2"
_cell_formula_units_Z 64
_cell_length_a 12.345167
_cell_length_b 8.028568
_cell_length_c 31.815637
_cell_angle_alpha 90.000000
_cell_angle_beta 90.000000
_cell_angle_gamma 90.000000
_cell_volume 3153.375451
_symmetry_space_group_name_H-M "P N M A"
_symmetry_group_IT_number 62
_symmetry_cell_setting 'orthorhombic'
loop_
_space_group_symop_operation_xyz
x,y,z
1/2-x,-y,1/2+z
1/2+x,1/2-y,1/2-z
-x,1/2+y,-z
-x,-y,-z
1/2+x,y,1/2-z
1/2-x,1/2+y,1/2+z
x,1/2-y,z
loop_
_atom_site_type_symbol
_atom_site_label
_atom_site_fract_x
_atom_site_fract_y
_atom_site_fract_z
Si Si1 0.392300 0.045845 0.625939
Si Si2 0.739514 0.059501 0.177179
Si Si3 0.359204 0.547889 0.121527
Si Si4 0.529032 0.052771 0.706460
Si Si5 0.465467 0.550445 0.453695
Si Si6 0.242796 0.555535 0.415015
Si Si7 0.481773 0.553156 0.952114
Si Si8 0.502808 0.946980 0.200204
O O1 0.394875 0.250000 0.626157
O O2 0.266389 0.996143 0.624169
O O3 0.453729 0.988008 0.668369
O O4 0.458116 0.989410 0.584493
O O5 0.735972 0.250000 0.191593
O O6 0.846093 0.972699 0.194854
O O7 0.747590 0.050168 0.127072
O O8 0.627856 0.971143 0.188820
O O9 0.361898 0.750000 0.121362
O O10 0.419676 0.490249 0.079249
O O11 0.427430 0.487383 0.162310
O O12 0.505183 0.250000 0.708731
O O13 0.512766 0.980932 0.753115
O O14 0.500000 0.500000 0.500000
O O15 0.470539 0.750000 0.451954
O O16 0.341405 0.502290 0.444667
O O17 0.259683 0.750000 0.403407
O O18 0.126059 0.536201 0.435534
O O19 0.463586 0.750000 0.950318
O O20 0.500000 0.500000 0.000000
O O21 0.478061 0.750000 0.202434
#
# Coordination Sequence:
#
# PCOD9466093 Si02
#       8
#     8   8   8   8   8   8   8   8
#     4   9  19  38  61  88 122 159 202 252 304 356
#     4  12  24  39  62  91 127 166 204 256 315 368
#     4  10  21  39  62  91 125 161 204 255 306 365
#     4  10  21  40  66  93 121 160 210 257 302 363
#     4  10  22  39  61  90 123 159 199 254 308 363
#     4  11  22  42  67  91 121 160 211 261 305 363
#     4  12  26  43  64  92 124 163 206 254 311 368
#     4  10  22  38  65  94 121 162 211 258 305 362
#
# _framework density 20.295712999999999
#
# number of rings (size 3 to 8) (size 9 to 14) (size 15 to 20)
#    0.000    1.500    2.500    2.625    3.500    1.500 
#    0.000    0.625    0.000    0.000    0.000    0.000 
#    0.000    0.000    0.000    0.000    0.000    0.000 
#
# Total GULP energy -357522.738172 kJ/mol
# GULP energy per Si atom -5586.292784 kJ/mol
# Density = 2.024952 g / cm^3
# Si number density = 20.295713 Si / 1000 Ang^3
#
#
#
# Elastic Constant Matrix: (Units=GPa)
#
#
# Indices 1 2 3 4 5 6 
#
# 1 3117.9975 -816.0159 3308.5405 0.0000 0.0000 0.0000
# 2 -816.0159 243.5617 -875.9869 0.0000 0.0000 0.0000
# 3 3308.5405 -875.9869 3689.7411 0.0000 0.0000 0.0000
# 4 0.0000 0.0000 0.0000 18.8203 0.0000 0.0000
# 5 0.0000 0.0000 0.0000 0.0000 -125.0609 0.0000
# 6 0.0000 0.0000 0.0000 0.0000 0.0000 3.7314
#
#
#
# Elastic Compliance Matrix: (Units=1/GPa)
#
#
# Indices 1 2 3 4 5 6 
#
# 1 0.007994 0.006857 -0.005541 0.000000 0.000000 0.000000
# 2 0.006857 0.033978 0.001918 0.000000 0.000000 0.000000
# 3 -0.005541 0.001918 0.005694 0.000000 0.000000 0.000000
# 4 0.000000 0.000000 0.000000 0.053134 0.000000 0.000000
# 5 0.000000 0.000000 0.000000 0.000000 -0.007996 0.000000
# 6 0.000000 0.000000 0.000000 0.000000 0.000000 0.267994
#
#
# Mechanical properties :
#
#
# Convention : Reuss Voigt Hill
#
# Bulk Modulus (GPa) = 18.47181 1142.70842 580.59011
# Shear Modulus (GPa) = 13.42733 341.81570 177.62151
#
# Velocity S-wave (km/s) = 2.57492 12.99166 9.36519
# Velocity P-wave (km/s) = 4.23809 28.09441 20.09051
#
# Compressibility (1/GPa) = 0.05413654
#
# Stress axis : x y z
#
# Youngs Moduli (GPa) = 125.08617 29.43071 175.61072
#
# Poissons Ratio (x) = -0.20182 0.97297
# Poissons Ratio (y) = -0.85778 -0.33678
# Poissons Ratio (z) = 0.69304 -0.05644
#
# Static dielectric constant tensor:
#      x y z
#    x 1.649840 0.000000 0.000000 
#    y 0.000000 1.742300 0.000000 
#    z 0.000000 0.000000 1.713130 
# 
# From -- ./inp_files/32562.got.cif
#   From: 2010.05.17/outbox.cif.g08.bks.cpg/sg62_17_cif.got.tgz:32562.got - 2010.06.03 15:25:27.
