data_PCOD9466514
_publ_section_title
;
Structure prediction by ZEFSAII (Michael W. Deem and Ramdas Pophale) SiO2 
 PCOD9466514
Probable space group: P N M A
;
_chemical_formula_sum "Si O2"
_cell_formula_units_Z 48
_cell_length_a 17.345804
_cell_length_b 8.781245
_cell_length_c 17.082290
_cell_angle_alpha 90.000000
_cell_angle_beta 90.000000
_cell_angle_gamma 90.000000
_cell_volume 2601.936057
_symmetry_space_group_name_H-M "P N M A"
_symmetry_group_IT_number 62
_symmetry_cell_setting 'orthorhombic'
loop_
_space_group_symop_operation_xyz
x,y,z
1/2-x,-y,1/2+z
1/2+x,1/2-y,1/2-z
-x,1/2+y,-z
-x,-y,-z
1/2+x,y,1/2-z
1/2-x,1/2+y,1/2+z
x,1/2-y,z
loop_
_atom_site_type_symbol
_atom_site_label
_atom_site_fract_x
_atom_site_fract_y
_atom_site_fract_z
Si Si1 0.414411 0.568771 0.001881
Si Si2 0.000010 0.066411 0.913502
Si Si3 0.180836 0.931348 0.645893
Si Si4 0.154816 0.566842 0.177158
Si Si5 0.678179 0.568145 0.141879
Si Si6 0.149326 0.066487 0.814674
O O1 0.418877 0.750000 0.007011
O O2 0.368197 0.504119 0.076277
O O3 0.500000 0.500000 0.000000
O O4 0.368592 0.519133 0.924005
O O5 0.000878 0.250000 0.917786
O O6 0.076138 0.019817 0.865754
O O7 0.922705 0.021709 0.867261
O O8 0.000000 0.000000 0.000000
O O9 0.177192 0.750000 0.641108
O O10 0.269516 0.986883 0.642964
O O11 0.150235 0.988808 0.729984
O O12 0.165234 0.750000 0.170564
O O13 0.150018 0.533183 0.269890
O O14 0.669548 0.750000 0.129158
O O15 0.769496 0.531932 0.142860
O O16 0.147493 0.250000 0.803007
#
# Coordination Sequence:
#
# PCOD9466514 Si02
#       6
#     8   8   8   8   8   8
#     4  12  26  42  62  90 123 157 200 251 305 361
#     4  10  22  38  60  92 124 160 201 246 298 351
#     4  11  23  40  63  91 120 157 204 251 302 357
#     4   9  20  40  63  89 122 162 201 243 301 360
#     4   9  19  38  62  89 121 158 201 247 301 360
#     4   9  20  40  64  89 122 163 200 243 302 359
#
# _framework density 18.447800000000001
#
# number of rings (size 3 to 8) (size 9 to 14) (size 15 to 20)
#    0.000    2.000    0.000    4.000    4.667    4.000 
#    0.000    0.000    0.000    0.000    0.000    0.000 
#    0.000    0.000    0.000    0.000    0.000    0.000 
#
# Total GULP energy -268204.851061 kJ/mol
# GULP energy per Si atom -5587.601064 kJ/mol
# Density = 1.840581 g / cm^3
# Si number density = 18.447800 Si / 1000 Ang^3
#
#
#
# Elastic Constant Matrix: (Units=GPa)
#
#
# Indices 1 2 3 4 5 6 
#
# 1 191.3394 81.6062 140.1426 0.0000 0.0000 0.0000
# 2 81.6062 90.0627 76.3108 0.0000 0.0000 0.0000
# 3 140.1426 76.3108 141.3125 0.0000 0.0000 0.0000
# 4 0.0000 0.0000 0.0000 38.0055 0.0000 0.0000
# 5 0.0000 0.0000 0.0000 0.0000 27.5005 0.0000
# 6 0.0000 0.0000 0.0000 0.0000 0.0000 28.5603
#
#
#
# Elastic Compliance Matrix: (Units=1/GPa)
#
#
# Indices 1 2 3 4 5 6 
#
# 1 0.019366 -0.002350 -0.017937 0.000000 0.000000 0.000000
# 2 -0.002350 0.020754 -0.008878 0.000000 0.000000 0.000000
# 3 -0.017937 -0.008878 0.029659 0.000000 0.000000 0.000000
# 4 0.000000 0.000000 0.000000 0.026312 0.000000 0.000000
# 5 0.000000 0.000000 0.000000 0.000000 0.036363 0.000000
# 6 0.000000 0.000000 0.000000 0.000000 0.000000 0.035014
#
#
# Mechanical properties :
#
#
# Convention : Reuss Voigt Hill
#
# Bulk Modulus (GPa) = 87.32644 113.20374 100.26509
# Shear Modulus (GPa) = 21.77590 27.12358 24.44974
#
# Velocity S-wave (km/s) = 3.43943 3.83859 3.64448
# Velocity P-wave (km/s) = 7.95064 9.00800 8.49578
#
# Compressibility (1/GPa) = 0.01145129
#
# Stress axis : x y z
#
# Youngs Moduli (GPa) = 51.63780 48.18274 33.71700
#
# Poissons Ratio (x) = 0.11321 0.60477
# Poissons Ratio (y) = 0.12132 0.29933
# Poissons Ratio (z) = 0.92621 0.42775
#
# Static dielectric constant tensor:
#      x y z
#    x 1.620170 0.000000 0.000000 
#    y 0.000000 1.623030 0.000000 
#    z 0.000000 0.000000 1.599620 
# 
# From -- ./inp_files/19622.got.cif
#   From: 2010.05.17/outbox.cif.g08.bks.cpg/sg62_10_cif.got.tgz:19622.got - 2010.06.03 15:25:27.
