data_PCOD9466163
_publ_section_title
;
Structure prediction by ZEFSAII (Michael W. Deem and Ramdas Pophale) SiO2 
 PCOD9466163
Probable space group: P N M A
;
_chemical_formula_sum "Si O2"
_cell_formula_units_Z 40
_cell_length_a 18.899856
_cell_length_b 14.002098
_cell_length_c 5.658880
_cell_angle_alpha 90.000000
_cell_angle_beta 90.000000
_cell_angle_gamma 90.000000
_cell_volume 1497.552625
_symmetry_space_group_name_H-M "P N M A"
_symmetry_group_IT_number 62
_symmetry_cell_setting 'orthorhombic'
loop_
_space_group_symop_operation_xyz
x,y,z
1/2-x,-y,1/2+z
1/2+x,1/2-y,1/2-z
-x,1/2+y,-z
-x,-y,-z
1/2+x,y,1/2-z
1/2-x,1/2+y,1/2+z
x,1/2-y,z
loop_
_atom_site_type_symbol
_atom_site_label
_atom_site_fract_x
_atom_site_fract_y
_atom_site_fract_z
Si Si1 0.545195 0.750000 0.473041
Si Si2 0.913903 0.750000 0.374772
Si Si3 0.586493 0.952606 0.623412
Si Si4 0.901365 0.543918 0.610435
Si Si5 0.253498 0.913126 0.877210
Si Si6 0.796910 0.250000 0.803437
Si Si7 0.204462 0.250000 0.041398
O O1 0.486393 0.750000 0.272159
O O2 0.547997 0.849822 0.610918
O O3 0.623030 0.750000 0.363454
O O4 0.908190 0.656448 0.540527
O O5 0.855340 0.750000 0.160370
O O6 0.672547 0.944551 0.641332
O O7 0.565668 0.997500 0.873824
O O8 0.574654 0.008394 0.372201
O O9 0.817086 0.512993 0.594040
O O10 0.244854 0.840278 0.094999
O O11 0.292178 0.848605 0.678896
O O12 0.787767 0.250000 0.529470
#
# Coordination Sequence:
#
# PCOD9466163 Si02
#       7
#     4   4   8   8   8   4   4
#     4  10  27  51  71 111 154 216 257 327 383 460
#     4  12  26  48  78 111 163 205 261 321 395 454
#     4  11  27  46  76 110 151 198 259 312 384 462
#     4  12  25  45  74 114 148 198 251 318 384 466
#     4  10  21  39  69 110 148 183 246 323 389 445
#     4   9  19  39  71 103 140 192 255 301 379 462
#     4  11  20  40  78 109 143 199 257 315 389 470
#
# _framework density 26.710246000000001
#
# number of rings (size 3 to 8) (size 9 to 14) (size 15 to 20)
#    0.000    1.200    2.000    3.600    5.600    3.200 
#    0.000    6.000    0.000    0.000    0.000    0.000 
#    0.000    0.000    0.000    0.000    0.000    0.000 
#
# Total GULP energy -223288.998997 kJ/mol
# GULP energy per Si atom -5582.224975 kJ/mol
# Density = 2.664945 g / cm^3
# Si number density = 26.710246 Si / 1000 Ang^3
#
#
#
# Elastic Constant Matrix: (Units=GPa)
#
#
# Indices 1 2 3 4 5 6 
#
# 1 131.2593 30.3935 75.2132 0.0000 0.0000 0.0000
# 2 30.3935 166.0071 110.5109 0.0000 0.0000 0.0000
# 3 75.2132 110.5109 188.2701 0.0000 0.0000 0.0000
# 4 0.0000 0.0000 0.0000 44.8540 0.0000 0.0000
# 5 0.0000 0.0000 0.0000 0.0000 45.8691 0.0000
# 6 0.0000 0.0000 0.0000 0.0000 0.0000 33.6413
#
#
#
# Elastic Compliance Matrix: (Units=1/GPa)
#
#
# Indices 1 2 3 4 5 6 
#
# 1 0.010066 0.001369 -0.004825 0.000000 0.000000 0.000000
# 2 0.001369 0.010074 -0.006460 0.000000 0.000000 0.000000
# 3 -0.004825 -0.006460 0.011031 0.000000 0.000000 0.000000
# 4 0.000000 0.000000 0.000000 0.022295 0.000000 0.000000
# 5 0.000000 0.000000 0.000000 0.000000 0.021801 0.000000
# 6 0.000000 0.000000 0.000000 0.000000 0.000000 0.029725
#
#
# Mechanical properties :
#
#
# Convention : Reuss Voigt Hill
#
# Bulk Modulus (GPa) = 88.19139 101.97464 95.08301
# Shear Modulus (GPa) = 38.87923 42.83416 40.85669
#
# Velocity S-wave (km/s) = 3.81936 4.00892 3.91529
# Velocity P-wave (km/s) = 7.24842 7.72590 7.49096
#
# Compressibility (1/GPa) = 0.01133898
#
# Stress axis : x y z
#
# Youngs Moduli (GPa) = 99.34117 99.26987 90.65399
#
# Poissons Ratio (x) = -0.13591 0.43741
# Poissons Ratio (y) = -0.13600 0.58562
# Poissons Ratio (z) = 0.47933 0.64127
#
# Static dielectric constant tensor:
#      x y z
#    x 2.118500 0.000000 0.000000 
#    y 0.000000 2.174700 0.000000 
#    z 0.000000 0.000000 2.139580 
# 
# From -- ./inp_files/2694.got.cif
#   From: 2010.05.17/outbox.cif.g08.bks.cpg/sg62_2_cif.got.tgz:2694.got - 2010.06.03 15:25:27.
