data_PCOD9466588
_publ_section_title
;
Structure prediction by ZEFSAII (Michael W. Deem and Ramdas Pophale) SiO2 
 PCOD9466588
Probable space group: P N M A
;
_chemical_formula_sum "Si O2"
_cell_formula_units_Z 40
_cell_length_a 18.192276
_cell_length_b 10.162136
_cell_length_c 10.612766
_cell_angle_alpha 90.000000
_cell_angle_beta 90.000000
_cell_angle_gamma 90.000000
_cell_volume 1962.007339
_symmetry_space_group_name_H-M "P N M A"
_symmetry_group_IT_number 62
_symmetry_cell_setting 'orthorhombic'
loop_
_space_group_symop_operation_xyz
x,y,z
1/2-x,-y,1/2+z
1/2+x,1/2-y,1/2-z
-x,1/2+y,-z
-x,-y,-z
1/2+x,y,1/2-z
1/2-x,1/2+y,1/2+z
x,1/2-y,z
loop_
_atom_site_type_symbol
_atom_site_label
_atom_site_fract_x
_atom_site_fract_y
_atom_site_fract_z
Si Si1 0.047869 0.402206 0.913172
Si Si2 0.770796 0.250000 0.355149
Si Si3 0.928470 0.462782 0.729766
Si Si4 0.912906 0.250000 0.520416
Si Si5 0.816511 0.002297 0.955138
Si Si6 0.267186 0.750000 0.939659
Si Si7 0.066482 0.250000 0.379798
O O1 0.044073 0.250000 0.955309
O O2 0.007712 0.412825 0.779021
O O3 0.130351 0.453576 0.931395
O O4 0.000000 0.500000 0.000000
O O5 0.853570 0.250000 0.408481
O O6 0.729730 0.378577 0.407743
O O7 0.759572 0.250000 0.205444
O O8 0.904302 0.377749 0.609858
O O9 0.869419 0.448494 0.841873
O O10 0.934621 0.616898 0.701223
O O11 0.995103 0.250000 0.466671
O O12 0.765482 0.120328 0.997506
O O13 0.354998 0.750000 0.947871
#
# Coordination Sequence:
#
# PCOD9466588 Si02
#       7
#     8   4   8   4   8   4   4
#     4  10  22  39  70 106 135 176 228 282 349 410
#     4  12  26  47  70 104 142 187 239 296 362 420
#     4  11  23  46  71 102 142 183 233 296 347 422
#     4  12  27  45  70 102 139 188 235 282 364 430
#     4  11  24  46  74 101 143 183 241 303 348 418
#     4  12  27  48  71 102 142 189 239 294 361 416
#     4  12  26  48  67 100 147 186 227 288 355 424
#
# _framework density 20.387284000000001
#
# number of rings (size 3 to 8) (size 9 to 14) (size 15 to 20)
#    0.000    0.800    4.000    2.400   11.200    0.000 
#    0.000    0.000    0.000    0.000    0.000    0.000 
#    0.000    0.000    0.000    0.000    0.000    0.000 
#
# Total GULP energy -223657.504667 kJ/mol
# GULP energy per Si atom -5591.437617 kJ/mol
# Density = 2.034088 g / cm^3
# Si number density = 20.387284 Si / 1000 Ang^3
#
#
#
# Elastic Constant Matrix: (Units=GPa)
#
#
# Indices 1 2 3 4 5 6 
#
# 1 140.6659 39.4018 67.9210 0.0000 0.0000 0.0000
# 2 39.4018 103.0247 18.8093 0.0000 0.0000 0.0000
# 3 67.9210 18.8093 49.9259 0.0000 0.0000 0.0000
# 4 0.0000 0.0000 0.0000 43.7337 0.0000 0.0000
# 5 0.0000 0.0000 0.0000 0.0000 31.8492 0.0000
# 6 0.0000 0.0000 0.0000 0.0000 0.0000 36.3138
#
#
#
# Elastic Compliance Matrix: (Units=1/GPa)
#
#
# Indices 1 2 3 4 5 6 
#
# 1 0.021610 -0.003111 -0.028227 0.000000 0.000000 0.000000
# 2 -0.003111 0.010871 0.000137 0.000000 0.000000 0.000000
# 3 -0.028227 0.000137 0.058379 0.000000 0.000000 0.000000
# 4 0.000000 0.000000 0.000000 0.022866 0.000000 0.000000
# 5 0.000000 0.000000 0.000000 0.000000 0.031398 0.000000
# 6 0.000000 0.000000 0.000000 0.000000 0.000000 0.027538
#
#
# Mechanical properties :
#
#
# Convention : Reuss Voigt Hill
#
# Bulk Modulus (GPa) = 35.13948 60.65340 47.89644
# Shear Modulus (GPa) = 20.44572 33.54497 26.99534
#
# Velocity S-wave (km/s) = 3.17024 4.06074 3.64280
# Velocity P-wave (km/s) = 5.53841 7.19731 6.42165
#
# Compressibility (1/GPa) = 0.02845802
#
# Stress axis : x y z
#
# Youngs Moduli (GPa) = 46.27485 91.98516 17.12945
#
# Poissons Ratio (x) = 0.28620 0.48351
# Poissons Ratio (y) = 0.14398 -0.00235
# Poissons Ratio (z) = 1.30620 -0.01261
#
# Static dielectric constant tensor:
#      x y z
#    x 1.723370 0.000000 0.000000 
#    y 0.000000 1.692810 0.000000 
#    z 0.000000 0.000000 1.739080 
# 
# From -- ./inp_files/13918.got.cif
#   From: 2010.05.17/outbox.cif.g08.bks.cpg/sg62_7_cif.got.tgz:13918.got - 2010.06.03 15:25:27.
