data_PCOD9466055
_publ_section_title
;
Structure prediction by ZEFSAII (Michael W. Deem and Ramdas Pophale) SiO2 
 PCOD9466055
Probable space group: P N M A
;
_chemical_formula_sum "Si O2"
_cell_formula_units_Z 36
_cell_length_a 4.955767
_cell_length_b 21.149135
_cell_length_c 14.233109
_cell_angle_alpha 90.000000
_cell_angle_beta 90.000000
_cell_angle_gamma 90.000000
_cell_volume 1491.774792
_symmetry_space_group_name_H-M "P N M A"
_symmetry_group_IT_number 62
_symmetry_cell_setting 'orthorhombic'
loop_
_space_group_symop_operation_xyz
x,y,z
1/2-x,-y,1/2+z
1/2+x,1/2-y,1/2-z
-x,1/2+y,-z
-x,-y,-z
1/2+x,y,1/2-z
1/2-x,1/2+y,1/2+z
x,1/2-y,z
loop_
_atom_site_type_symbol
_atom_site_label
_atom_site_fract_x
_atom_site_fract_y
_atom_site_fract_z
Si Si1 0.748257 0.461084 0.117277
Si Si2 0.743430 0.884395 0.893136
Si Si3 0.286485 0.750000 0.688396
Si Si4 0.357730 0.178404 0.689094
Si Si5 0.530205 0.421582 0.926236
O O1 0.542916 0.406024 0.150085
O O2 0.626236 0.529330 0.141169
O O3 0.045589 0.438135 0.137347
O O4 0.712972 0.459127 0.003112
O O5 0.836579 0.814955 0.866358
O O6 0.684303 0.887807 0.004767
O O7 0.477015 0.750000 0.779080
O O8 0.669580 0.172349 0.717402
O O9 0.314144 0.250000 0.653380
O O10 0.230350 0.126517 0.622565
#
# Coordination Sequence:
#
# PCOD9466055 Si02
#       5
#     8   8   4   8   8
#     4   9  20  36  64  89 115 143 203 253 283 341
#     4  10  21  39  61  86 115 154 200 236 296 343
#     4  12  26  44  60  86 128 158 198 252 298 354
#     4  10  23  39  54  84 123 155 188 237 292 342
#     4   9  21  36  67  85 119 150 202 242 293 348
#
# _framework density 24.132328000000001
#
# number of rings (size 3 to 8) (size 9 to 14) (size 15 to 20)
#    1.333    0.889    0.000    2.000    4.667    0.000 
#    2.000    6.667    0.000    0.000    0.000    0.000 
#    0.000    0.000    0.000    0.000    0.000    0.000 
#
# Total GULP energy -201057.400665 kJ/mol
# GULP energy per Si atom -5584.927796 kJ/mol
# Density = 2.407740 g / cm^3
# Si number density = 24.132328 Si / 1000 Ang^3
#
#
#
# Elastic Constant Matrix: (Units=GPa)
#
#
# Indices 1 2 3 4 5 6 
#
# 1 85.7583 -7.2854 -8.3681 0.0000 0.0000 0.0000
# 2 -7.2854 105.3012 14.0961 0.0000 0.0000 0.0000
# 3 -8.3681 14.0961 30.8876 0.0000 0.0000 0.0000
# 4 0.0000 0.0000 0.0000 73.7355 0.0000 0.0000
# 5 0.0000 0.0000 0.0000 0.0000 16.8330 0.0000
# 6 0.0000 0.0000 0.0000 0.0000 0.0000 31.0976
#
#
#
# Elastic Compliance Matrix: (Units=1/GPa)
#
#
# Indices 1 2 3 4 5 6 
#
# 1 0.011995 0.000421 0.003058 0.000000 0.000000 0.000000
# 2 0.000421 0.010129 -0.004509 0.000000 0.000000 0.000000
# 3 0.003058 -0.004509 0.035262 0.000000 0.000000 0.000000
# 4 0.000000 0.000000 0.000000 0.013562 0.000000 0.000000
# 5 0.000000 0.000000 0.000000 0.000000 0.059407 0.000000
# 6 0.000000 0.000000 0.000000 0.000000 0.000000 0.032157
#
#
# Mechanical properties :
#
#
# Convention : Reuss Voigt Hill
#
# Bulk Modulus (GPa) = 18.07513 24.31470 21.19491
# Shear Modulus (GPa) = 27.32031 39.23351 33.27691
#
# Velocity S-wave (km/s) = 3.36833 4.03645 3.71743
# Velocity P-wave (km/s) = 4.75749 5.64104 5.21800
#
# Compressibility (1/GPa) = 0.05532464
#
# Stress axis : x y z
#
# Youngs Moduli (GPa) = 83.36969 98.72432 28.35952
#
# Poissons Ratio (x) = -0.04152 -0.08672
# Poissons Ratio (y) = -0.03506 0.12786
# Poissons Ratio (z) = -0.25492 0.44512
#
# Static dielectric constant tensor:
#      x y z
#    x 1.906240 0.000000 0.000000 
#    y 0.000000 1.917400 0.000000 
#    z 0.000000 0.000000 1.996490 
# 
# From -- ./inp_files/21533.got.cif
#   From: 2010.05.17/outbox.cif.g08.bks.cpg/sg62_11_cif.got.tgz:21533.got - 2010.06.03 15:25:27.
