data_PCOD9466861
_publ_section_title
;
Structure prediction by ZEFSAII (Michael W. Deem and Ramdas Pophale) SiO2 
 PCOD9466861
Probable space group: P N M A
;
_chemical_formula_sum "Si O2"
_cell_formula_units_Z 36
_cell_length_a 12.006927
_cell_length_b 18.321390
_cell_length_c 7.458351
_cell_angle_alpha 90.000000
_cell_angle_beta 90.000000
_cell_angle_gamma 90.000000
_cell_volume 1640.714845
_symmetry_space_group_name_H-M "P N M A"
_symmetry_group_IT_number 62
_symmetry_cell_setting 'orthorhombic'
loop_
_space_group_symop_operation_xyz
x,y,z
1/2-x,-y,1/2+z
1/2+x,1/2-y,1/2-z
-x,1/2+y,-z
-x,-y,-z
1/2+x,y,1/2-z
1/2-x,1/2+y,1/2+z
x,1/2-y,z
loop_
_atom_site_type_symbol
_atom_site_label
_atom_site_fract_x
_atom_site_fract_y
_atom_site_fract_z
Si Si1 0.611245 0.973181 0.593682
Si Si2 0.378127 0.250000 0.940305
Si Si3 0.747579 0.750000 0.393491
Si Si4 0.321384 0.750000 0.712938
Si Si5 0.985021 0.628707 0.641874
Si Si6 0.812755 0.587934 0.371412
O O1 0.572652 0.913901 0.738521
O O2 0.696788 0.937393 0.456375
O O3 0.500000 0.000000 0.500000
O O4 0.664950 0.041623 0.695595
O O5 0.362240 0.250000 0.727199
O O6 0.257633 0.250000 0.040464
O O7 0.446392 0.319177 0.009541
O O8 0.741469 0.750000 0.609480
O O9 0.809437 0.675031 0.343324
O O10 0.401615 0.820355 0.739756
O O11 0.907812 0.576317 0.521825
#
# Coordination Sequence:
#
# PCOD9466861 Si02
#       6
#     8   4   4   4   8   8
#     4  12  27  43  73 100 140 195 229 299 373 425
#     4  11  23  39  78  97 139 194 231 299 362 409
#     4  10  24  42  70  97 140 183 231 297 349 415
#     4   9  21  43  62 106 139 181 240 304 345 434
#     4  10  22  43  67 101 140 180 242 293 358 423
#     4  11  26  47  67 105 145 177 247 294 350 443
#
# _framework density 21.941655999999998
#
# number of rings (size 3 to 8) (size 9 to 14) (size 15 to 20)
#    0.000    1.333    0.000    5.333    9.333    0.889 
#    0.000    2.222    0.000    0.000    0.000    0.000 
#    0.000    0.000    0.000    0.000    0.000    0.000 
#
# Total GULP energy -201457.783726 kJ/mol
# GULP energy per Si atom -5596.049548 kJ/mol
# Density = 2.189172 g / cm^3
# Si number density = 21.941656 Si / 1000 Ang^3
#
#
#
# Elastic Constant Matrix: (Units=GPa)
#
#
# Indices 1 2 3 4 5 6 
#
# 1 94.9199 40.6254 38.9581 0.0000 0.0000 0.0000
# 2 40.6254 109.7442 43.1103 0.0000 0.0000 0.0000
# 3 38.9581 43.1103 65.7023 0.0000 0.0000 0.0000
# 4 0.0000 0.0000 0.0000 14.7116 0.0000 0.0000
# 5 0.0000 0.0000 0.0000 0.0000 62.8889 0.0000
# 6 0.0000 0.0000 0.0000 0.0000 0.0000 15.3642
#
#
#
# Elastic Compliance Matrix: (Units=1/GPa)
#
#
# Indices 1 2 3 4 5 6 
#
# 1 0.014486 -0.002679 -0.006832 0.000000 0.000000 0.000000
# 2 -0.002679 0.012772 -0.006792 0.000000 0.000000 0.000000
# 3 -0.006832 -0.006792 0.023727 0.000000 0.000000 0.000000
# 4 0.000000 0.000000 0.000000 0.067973 0.000000 0.000000
# 5 0.000000 0.000000 0.000000 0.000000 0.015901 0.000000
# 6 0.000000 0.000000 0.000000 0.000000 0.000000 0.065086
#
#
# Mechanical properties :
#
#
# Convention : Reuss Voigt Hill
#
# Bulk Modulus (GPa) = 54.40548 57.30602 55.85575
# Shear Modulus (GPa) = 20.94886 28.43779 24.69333
#
# Velocity S-wave (km/s) = 3.09326 3.60399 3.35835
# Velocity P-wave (km/s) = 6.13246 6.59489 6.36787
#
# Compressibility (1/GPa) = 0.01838050
#
# Stress axis : x y z
#
# Youngs Moduli (GPa) = 69.03425 78.29822 42.14548
#
# Poissons Ratio (x) = 0.20974 0.28792
# Poissons Ratio (y) = 0.18492 0.28624
# Poissons Ratio (z) = 0.47161 0.53178
#
# Static dielectric constant tensor:
#      x y z
#    x 1.789290 0.000000 0.000000 
#    y 0.000000 1.778120 0.000000 
#    z 0.000000 0.000000 1.828090 
# 
# From -- ./inp_files/5156.got.cif
#   From: 2010.05.17/outbox.cif.g08.bks.cpg/sg62_3_cif.got.tgz:5156.got - 2010.06.03 15:25:27.
