data_PCOD9466037
_publ_section_title
;
Structure prediction by ZEFSAII (Michael W. Deem and Ramdas Pophale) SiO2 
 PCOD9466037
Probable space group: P N M A
;
_chemical_formula_sum "Si O2"
_cell_formula_units_Z 64
_cell_length_a 12.537943
_cell_length_b 17.622900
_cell_length_c 15.846222
_cell_angle_alpha 90.000000
_cell_angle_beta 90.000000
_cell_angle_gamma 90.000000
_cell_volume 3501.300646
_symmetry_space_group_name_H-M "P N M A"
_symmetry_group_IT_number 62
_symmetry_cell_setting 'orthorhombic'
loop_
_space_group_symop_operation_xyz
x,y,z
1/2-x,-y,1/2+z
1/2+x,1/2-y,1/2-z
-x,1/2+y,-z
-x,-y,-z
1/2+x,y,1/2-z
1/2-x,1/2+y,1/2+z
x,1/2-y,z
loop_
_atom_site_type_symbol
_atom_site_label
_atom_site_fract_x
_atom_site_fract_y
_atom_site_fract_z
Si Si1 0.742162 0.840867 0.177654
Si Si2 0.133513 0.915074 0.009177
Si Si3 0.692363 0.410789 0.850169
Si Si4 0.103635 0.945930 0.736731
Si Si5 0.775494 0.336135 0.141685
Si Si6 0.974498 0.659558 0.609831
Si Si7 0.475583 0.158832 0.917460
Si Si8 0.073688 0.448086 0.890084
O O1 0.753059 0.750000 0.171918
O O2 0.746824 0.867040 0.274963
O O3 0.633278 0.863922 0.129750
O O4 0.841034 0.885175 0.136251
O O5 0.236198 0.910973 0.067426
O O6 0.029854 0.911406 0.067888
O O7 0.147636 0.851331 0.937994
O O8 0.124271 0.994157 0.958222
O O9 0.668118 0.495970 0.821204
O O10 0.578438 0.373127 0.869597
O O11 0.186399 0.893276 0.786757
O O12 0.027120 0.893070 0.681159
O O13 0.048002 0.999495 0.808036
O O14 0.784293 0.250000 0.171069
O O15 0.653482 0.349803 0.113895
O O16 0.996678 0.750000 0.622930
O O17 0.017092 0.637590 0.516560
O O18 0.481262 0.250000 0.914878
#
# Coordination Sequence:
#
# PCOD9466037 Si02
#       8
#     8   8   8   8   8   8   8   8
#     4  10  23  40  60  86 121 157 196 246 296 354
#     4  10  21  39  60  85 117 155 195 245 292 350
#     4  11  23  36  61  88 118 158 196 242 296 357
#     4  10  23  36  59  88 116 158 192 243 295 354
#     4  10  21  40  61  86 117 153 200 247 296 356
#     4  10  21  39  61  86 120 155 198 248 297 354
#     4  10  22  41  61  89 122 153 202 251 297 357
#     4   9  22  41  59  86 121 154 198 245 294 354
#
# _framework density 18.278919999999999
#
# number of rings (size 3 to 8) (size 9 to 14) (size 15 to 20)
#    0.000    2.000    1.250    0.750    7.000    3.500 
#    0.000    0.000    0.000    0.000    0.000    0.000 
#    0.000    0.000    0.000    0.000    0.000    0.000 
#
# Total GULP energy -357172.332402 kJ/mol
# GULP energy per Si atom -5580.817694 kJ/mol
# Density = 1.823732 g / cm^3
# Si number density = 18.278920 Si / 1000 Ang^3
#
#
#
# Elastic Constant Matrix: (Units=GPa)
#
#
# Indices 1 2 3 4 5 6 
#
# 1 78.5041 47.0269 49.6332 0.0000 0.0000 0.0000
# 2 47.0269 53.0984 31.0723 0.0000 0.0000 0.0000
# 3 49.6332 31.0723 87.8582 0.0000 0.0000 0.0000
# 4 0.0000 0.0000 0.0000 9.2991 0.0000 0.0000
# 5 0.0000 0.0000 0.0000 0.0000 39.0042 0.0000
# 6 0.0000 0.0000 0.0000 0.0000 0.0000 15.5595
#
#
#
# Elastic Compliance Matrix: (Units=1/GPa)
#
#
# Indices 1 2 3 4 5 6 
#
# 1 0.033517 -0.023459 -0.010638 0.000000 0.000000 0.000000
# 2 -0.023459 0.040168 -0.000953 0.000000 0.000000 0.000000
# 3 -0.010638 -0.000953 0.017729 0.000000 0.000000 0.000000
# 4 0.000000 0.000000 0.000000 0.107537 0.000000 0.000000
# 5 0.000000 0.000000 0.000000 0.000000 0.025638 0.000000
# 6 0.000000 0.000000 0.000000 0.000000 0.000000 0.064269
#
#
# Mechanical properties :
#
#
# Convention : Reuss Voigt Hill
#
# Bulk Modulus (GPa) = 46.92047 52.76950 49.84499
# Shear Modulus (GPa) = 13.65889 18.88778 16.27334
#
# Velocity S-wave (km/s) = 2.73655 3.21800 2.98699
# Velocity P-wave (km/s) = 5.97577 6.53751 6.26294
#
# Compressibility (1/GPa) = 0.02131266
#
# Stress axis : x y z
#
# Youngs Moduli (GPa) = 29.83579 24.89563 56.40621
#
# Poissons Ratio (x) = 0.58404 0.60003
# Poissons Ratio (y) = 0.69993 0.05376
# Poissons Ratio (z) = 0.31738 0.02373
#
# Static dielectric constant tensor:
#      x y z
#    x 1.596480 0.000000 0.000000 
#    y 0.000000 1.606540 0.000000 
#    z 0.000000 0.000000 1.635990 
# 
# From -- ./inp_files/18269.got.cif
#   From: 2010.05.17/outbox.cif.g08.bks.cpg/sg62_10_cif.got.tgz:18269.got - 2010.06.03 15:25:27.
