data_PCOD9466387
_publ_section_title
;
Structure prediction by ZEFSAII (Michael W. Deem and Ramdas Pophale) SiO2 
 PCOD9466387
Probable space group: P N M A
;
_chemical_formula_sum "Si O2"
_cell_formula_units_Z 48
_cell_length_a 8.163474
_cell_length_b 15.938027
_cell_length_c 17.865209
_cell_angle_alpha 90.000000
_cell_angle_beta 90.000000
_cell_angle_gamma 90.000000
_cell_volume 2324.436430
_symmetry_space_group_name_H-M "P N M A"
_symmetry_group_IT_number 62
_symmetry_cell_setting 'orthorhombic'
loop_
_space_group_symop_operation_xyz
x,y,z
1/2-x,-y,1/2+z
1/2+x,1/2-y,1/2-z
-x,1/2+y,-z
-x,-y,-z
1/2+x,y,1/2-z
1/2-x,1/2+y,1/2+z
x,1/2-y,z
loop_
_atom_site_type_symbol
_atom_site_label
_atom_site_fract_x
_atom_site_fract_y
_atom_site_fract_z
Si Si1 0.006276 0.583755 0.829888
Si Si2 0.860387 0.534218 0.055294
Si Si3 0.992296 0.953340 0.301407
Si Si4 0.667826 0.578176 0.917969
Si Si5 0.040920 0.750000 0.632097
Si Si6 0.193383 0.750000 0.782907
Si Si7 0.810865 0.849582 0.176002
O O1 0.142078 0.534490 0.879062
O O2 0.958045 0.525670 0.758958
O O3 0.091224 0.668268 0.804997
O O4 0.845032 0.596445 0.879643
O O5 0.906891 0.617995 0.101969
O O6 0.705981 0.550028 0.002403
O O7 0.000000 0.500000 0.000000
O O8 0.883268 0.890170 0.251472
O O9 0.136839 0.895338 0.331561
O O10 0.906471 0.003665 0.368051
O O11 0.562488 0.663370 0.912911
O O12 0.187908 0.750000 0.693220
O O13 0.869740 0.750000 0.677598
O O14 0.803352 0.750000 0.180017
#
# Coordination Sequence:
#
# PCOD9466387 Si02
#       7
#     8   8   8   8   4   4   8
#     4  10  21  42  65  92 129 172 220 268 330 397
#     4   9  23  43  67  92 129 174 215 258 332 404
#     4  11  22  39  68  95 127 171 226 276 330 390
#     4  11  22  41  64  92 129 173 215 268 335 401
#     4  12  26  34  62  96 132 163 218 275 333 397
#     4  12  24  38  60 100 128 163 216 279 329 391
#     4  11  24  43  68  97 130 172 225 281 328 390
#
# _framework density 20.650165999999999
#
# number of rings (size 3 to 8) (size 9 to 14) (size 15 to 20)
#    0.000    1.333    3.333    2.000    5.833    0.667 
#    1.500    0.000    1.833    0.000    0.000    0.000 
#    0.000    0.000    0.000    0.000    0.000    0.000 
#
# Total GULP energy -268051.399818 kJ/mol
# GULP energy per Si atom -5584.404163 kJ/mol
# Density = 2.060317 g / cm^3
# Si number density = 20.650166 Si / 1000 Ang^3
#
#
#
# Elastic Constant Matrix: (Units=GPa)
#
#
# Indices 1 2 3 4 5 6 
#
# 1 62.6040 40.3221 14.7380 0.0000 0.0000 0.0000
# 2 40.3221 178.9035 51.2092 0.0000 0.0000 0.0000
# 3 14.7380 51.2092 93.5577 0.0000 0.0000 0.0000
# 4 0.0000 0.0000 0.0000 18.7206 0.0000 0.0000
# 5 0.0000 0.0000 0.0000 0.0000 31.4675 0.0000
# 6 0.0000 0.0000 0.0000 0.0000 0.0000 35.6529
#
#
#
# Elastic Compliance Matrix: (Units=1/GPa)
#
#
# Indices 1 2 3 4 5 6 
#
# 1 0.018731 -0.004005 -0.000759 0.000000 0.000000 0.000000
# 2 -0.004005 0.007484 -0.003466 0.000000 0.000000 0.000000
# 3 -0.000759 -0.003466 0.012705 0.000000 0.000000 0.000000
# 4 0.000000 0.000000 0.000000 0.053417 0.000000 0.000000
# 5 0.000000 0.000000 0.000000 0.000000 0.031779 0.000000
# 6 0.000000 0.000000 0.000000 0.000000 0.000000 0.028048
#
#
# Mechanical properties :
#
#
# Convention : Reuss Voigt Hill
#
# Bulk Modulus (GPa) = 44.51862 60.84486 52.68174
# Shear Modulus (GPa) = 28.39132 32.42127 30.40630
#
# Velocity S-wave (km/s) = 3.71195 3.96665 3.84141
# Velocity P-wave (km/s) = 6.32271 7.10687 6.72623
#
# Compressibility (1/GPa) = 0.02246251
#
# Stress axis : x y z
#
# Youngs Moduli (GPa) = 53.38659 133.61524 78.70879
#
# Poissons Ratio (x) = 0.53507 0.05972
# Poissons Ratio (y) = 0.21379 0.27278
# Poissons Ratio (z) = 0.04051 0.46307
#
# Static dielectric constant tensor:
#      x y z
#    x 1.792890 0.000000 0.000000 
#    y 0.000000 1.803010 0.000000 
#    z 0.000000 0.000000 1.767630 
# 
# From -- ./inp_files/22235.got.cif
#   From: 2010.05.17/outbox.cif.g08.bks.cpg/sg62_12_cif.got.tgz:22235.got - 2010.06.03 15:25:27.
