data_PCOD9466216
_publ_section_title
;
Structure prediction by ZEFSAII (Michael W. Deem and Ramdas Pophale) SiO2 
 PCOD9466216
Probable space group: P N M A
;
_chemical_formula_sum "Si O2"
_cell_formula_units_Z 64
_cell_length_a 8.981430
_cell_length_b 22.846947
_cell_length_c 15.313368
_cell_angle_alpha 90.000000
_cell_angle_beta 90.000000
_cell_angle_gamma 90.000000
_cell_volume 3142.276395
_symmetry_space_group_name_H-M "P N M A"
_symmetry_group_IT_number 62
_symmetry_cell_setting 'orthorhombic'
loop_
_space_group_symop_operation_xyz
x,y,z
1/2-x,-y,1/2+z
1/2+x,1/2-y,1/2-z
-x,1/2+y,-z
-x,-y,-z
1/2+x,y,1/2-z
1/2-x,1/2+y,1/2+z
x,1/2-y,z
loop_
_atom_site_type_symbol
_atom_site_label
_atom_site_fract_x
_atom_site_fract_y
_atom_site_fract_z
Si Si1 0.419737 0.535596 0.896965
Si Si2 0.879329 0.646815 0.023245
Si Si3 0.081659 0.912273 0.444834
Si Si4 0.773946 0.682842 0.836446
Si Si5 0.891540 0.678835 0.354764
Si Si6 0.477275 0.392269 0.259931
Si Si7 0.915460 0.050971 0.055329
Si Si8 0.438821 0.316154 0.681444
O O1 0.450246 0.467124 0.881990
O O2 0.423989 0.572190 0.809136
O O3 0.261808 0.541857 0.946736
O O4 0.545940 0.561590 0.960183
O O5 0.752503 0.605535 0.063501
O O6 0.947664 0.684280 0.100972
O O7 0.797283 0.676528 0.940986
O O8 0.018116 0.609465 0.987700
O O9 0.977690 0.856421 0.429156
O O10 0.736239 0.750000 0.815775
O O11 0.931485 0.662737 0.797136
O O12 0.659052 0.636644 0.793766
O O13 0.897673 0.750000 0.366797
O O14 0.720634 0.658448 0.345530
O O15 0.978188 0.660462 0.266433
O O16 0.446302 0.436479 0.341149
O O17 0.000000 0.000000 0.000000
O O18 0.400021 0.250000 0.706875
#
# Coordination Sequence:
#
# PCOD9466216 Si02
#       8
#     8   8   8   8   8   8   8   8
#     4  11  23  44  63  92 132 169 219 270 327 397
#     4  11  22  38  65  94 126 167 219 270 337 395
#     4  11  23  39  65  94 126 169 216 274 330 394
#     4  11  23  41  64  95 130 174 223 273 337 399
#     4  10  22  41  63  93 131 174 221 275 337 401
#     4  11  23  42  67  93 133 172 217 280 333 396
#     4  11  23  42  67  92 127 174 214 275 334 398
#     4  10  21  40  63  89 129 170 213 271 327 396
#
# _framework density 20.367398999999999
#
# number of rings (size 3 to 8) (size 9 to 14) (size 15 to 20)
#    0.000    1.250    3.750    2.250    0.000    3.000 
#    2.250    0.000    0.000    0.000    0.000    0.000 
#    0.000    0.000    0.000    0.000    0.000    0.000 
#
# Total GULP energy -356742.296529 kJ/mol
# GULP energy per Si atom -5574.098383 kJ/mol
# Density = 2.032104 g / cm^3
# Si number density = 20.367399 Si / 1000 Ang^3
#
#
#
# Elastic Constant Matrix: (Units=GPa)
#
#
# Indices 1 2 3 4 5 6 
#
# 1 86.7743 24.1384 4.3039 0.0000 0.0000 0.0000
# 2 24.1384 87.0288 33.5468 0.0000 0.0000 0.0000
# 3 4.3039 33.5468 53.0838 0.0000 0.0000 0.0000
# 4 0.0000 0.0000 0.0000 26.3297 0.0000 0.0000
# 5 0.0000 0.0000 0.0000 0.0000 28.9437 0.0000
# 6 0.0000 0.0000 0.0000 0.0000 0.0000 28.8326
#
#
#
# Elastic Compliance Matrix: (Units=1/GPa)
#
#
# Indices 1 2 3 4 5 6 
#
# 1 0.012586 -0.004095 0.001567 0.000000 0.000000 0.000000
# 2 -0.004095 0.016523 -0.010110 0.000000 0.000000 0.000000
# 3 0.001567 -0.010110 0.025100 0.000000 0.000000 0.000000
# 4 0.000000 0.000000 0.000000 0.037980 0.000000 0.000000
# 5 0.000000 0.000000 0.000000 0.000000 0.034550 0.000000
# 6 0.000000 0.000000 0.000000 0.000000 0.000000 0.034683
#
#
# Mechanical properties :
#
#
# Convention : Reuss Voigt Hill
#
# Bulk Modulus (GPa) = 34.56153 38.98502 36.77327
# Shear Modulus (GPa) = 25.46584 27.81439 26.64011
#
# Velocity S-wave (km/s) = 3.53983 3.69946 3.62052
# Velocity P-wave (km/s) = 5.80629 6.11804 5.96420
#
# Compressibility (1/GPa) = 0.02893390
#
# Stress axis : x y z
#
# Youngs Moduli (GPa) = 79.45647 60.52048 39.84031
#
# Poissons Ratio (x) = 0.24783 -0.06245
# Poissons Ratio (y) = 0.32537 0.40279
# Poissons Ratio (z) = -0.12454 0.61187
#
# Static dielectric constant tensor:
#      x y z
#    x 1.733720 0.000000 0.000000 
#    y 0.000000 1.743080 0.000000 
#    z 0.000000 0.000000 1.729640 
# 
# From -- ./inp_files/17359.got.cif
#   From: 2010.05.17/outbox.cif.g08.bks.cpg/sg62_9_cif.got.tgz:17359.got - 2010.06.03 15:25:27.
