data_PCOD9466075
_publ_section_title
;
Structure prediction by ZEFSAII (Michael W. Deem and Ramdas Pophale) SiO2 
 PCOD9466075
Probable space group: P N M A
;
_chemical_formula_sum "Si O2"
_cell_formula_units_Z 48
_cell_length_a 22.082646
_cell_length_b 8.834699
_cell_length_c 12.631332
_cell_angle_alpha 90.000000
_cell_angle_beta 90.000000
_cell_angle_gamma 90.000000
_cell_volume 2464.291155
_symmetry_space_group_name_H-M "P N M A"
_symmetry_group_IT_number 62
_symmetry_cell_setting 'orthorhombic'
loop_
_space_group_symop_operation_xyz
x,y,z
1/2-x,-y,1/2+z
1/2+x,1/2-y,1/2-z
-x,1/2+y,-z
-x,-y,-z
1/2+x,y,1/2-z
1/2-x,1/2+y,1/2+z
x,1/2-y,z
loop_
_atom_site_type_symbol
_atom_site_label
_atom_site_fract_x
_atom_site_fract_y
_atom_site_fract_z
Si Si1 0.003051 0.573365 0.884384
Si Si2 0.825992 0.434497 0.357125
Si Si3 0.644519 0.927196 0.628039
Si Si4 0.897657 0.430776 0.747997
Si Si5 0.807133 0.930830 0.913987
Si Si6 0.932819 0.067075 0.510789
O O1 0.985407 0.750000 0.889433
O O2 0.072772 0.564400 0.850456
O O3 0.958274 0.487126 0.806536
O O4 0.000000 0.500000 0.000000
O O5 0.828511 0.250000 0.354832
O O6 0.824553 0.485022 0.235134
O O7 0.763252 0.477829 0.412426
O O8 0.885821 0.484191 0.420092
O O9 0.659579 0.750000 0.611822
O O10 0.661556 0.013390 0.521556
O O11 0.893265 0.250000 0.755811
O O12 0.842440 0.502727 0.813027
O O13 0.903943 0.472522 0.624854
O O14 0.810117 0.750000 0.908785
O O15 0.937622 0.250000 0.505715
O O16 0.000000 0.000000 0.500000
#
# Coordination Sequence:
#
# PCOD9466075 Si02
#       6
#     8   8   8   8   8   8
#     4  11  21  35  59  88 120 157 197 245 298 353
#     4   9  21  41  62  86 118 159 200 245 304 361
#     4  10  21  39  62  85 116 154 195 246 301 356
#     4  11  23  38  60  89 125 161 199 250 308 362
#     4  11  23  38  60  88 119 159 204 247 298 359
#     4  10  22  42  66  91 122 159 203 253 306 365
#
# _framework density 19.478216
#
# number of rings (size 3 to 8) (size 9 to 14) (size 15 to 20)
#    0.000    1.667    1.667    2.500    2.333    3.333 
#    0.000    3.333    0.000    0.000    0.000    0.000 
#    0.000    0.000    0.000    0.000    0.000    0.000 
#
# Total GULP energy -268150.552485 kJ/mol
# GULP energy per Si atom -5586.469843 kJ/mol
# Density = 1.943388 g / cm^3
# Si number density = 19.478216 Si / 1000 Ang^3
#
#
#
# Elastic Constant Matrix: (Units=GPa)
#
#
# Indices 1 2 3 4 5 6 
#
# 1 105.8708 28.3170 41.8938 0.0000 0.0000 0.0000
# 2 28.3170 41.4124 31.8749 0.0000 0.0000 0.0000
# 3 41.8938 31.8749 108.4561 0.0000 0.0000 0.0000
# 4 0.0000 0.0000 0.0000 16.0449 0.0000 0.0000
# 5 0.0000 0.0000 0.0000 0.0000 18.3077 0.0000
# 6 0.0000 0.0000 0.0000 0.0000 0.0000 25.7050
#
#
#
# Elastic Compliance Matrix: (Units=1/GPa)
#
#
# Indices 1 2 3 4 5 6 
#
# 1 0.012241 -0.006114 -0.002931 0.000000 0.000000 0.000000
# 2 -0.006114 0.034260 -0.007707 0.000000 0.000000 0.000000
# 3 -0.002931 -0.007707 0.012618 0.000000 0.000000 0.000000
# 4 0.000000 0.000000 0.000000 0.062325 0.000000 0.000000
# 5 0.000000 0.000000 0.000000 0.000000 0.054622 0.000000
# 6 0.000000 0.000000 0.000000 0.000000 0.000000 0.038903
#
#
# Mechanical properties :
#
#
# Convention : Reuss Voigt Hill
#
# Bulk Modulus (GPa) = 39.04171 51.10119 45.07145
# Shear Modulus (GPa) = 19.45440 22.25510 20.85475
#
# Velocity S-wave (km/s) = 3.16377 3.38385 3.27566
# Velocity P-wave (km/s) = 5.78215 6.44665 6.12342
#
# Compressibility (1/GPa) = 0.02561363
#
# Stress axis : x y z
#
# Youngs Moduli (GPa) = 81.69494 29.18854 79.25269
#
# Poissons Ratio (x) = 0.17845 0.23233
# Poissons Ratio (y) = 0.49945 0.61083
# Poissons Ratio (z) = 0.23949 0.22497
#
# Static dielectric constant tensor:
#      x y z
#    x 1.680450 0.000000 0.000000 
#    y 0.000000 1.663920 0.000000 
#    z 0.000000 0.000000 1.627880 
# 
# From -- ./inp_files/15146.got.cif
#   From: 2010.05.17/outbox.cif.g08.bks.cpg/sg62_8_cif.got.tgz:15146.got - 2010.06.03 15:25:27.
