data_PCOD9466408
_publ_section_title
;
Structure prediction by ZEFSAII (Michael W. Deem and Ramdas Pophale) SiO2 
 PCOD9466408
Probable space group: P N M A
;
_chemical_formula_sum "Si O2"
_cell_formula_units_Z 52
_cell_length_a 17.742882
_cell_length_b 19.276782
_cell_length_c 7.665768
_cell_angle_alpha 90.000000
_cell_angle_beta 90.000000
_cell_angle_gamma 90.000000
_cell_volume 2621.889424
_symmetry_space_group_name_H-M "P N M A"
_symmetry_group_IT_number 62
_symmetry_cell_setting 'orthorhombic'
loop_
_space_group_symop_operation_xyz
x,y,z
1/2-x,-y,1/2+z
1/2+x,1/2-y,1/2-z
-x,1/2+y,-z
-x,-y,-z
1/2+x,y,1/2-z
1/2-x,1/2+y,1/2+z
x,1/2-y,z
loop_
_atom_site_type_symbol
_atom_site_label
_atom_site_fract_x
_atom_site_fract_y
_atom_site_fract_z
Si Si1 0.850710 0.750000 0.647760
Si Si2 0.611494 0.250000 0.769404
Si Si3 0.724648 0.392026 0.275595
Si Si4 0.924488 0.477650 0.094322
Si Si5 0.015418 0.750000 0.530849
Si Si6 0.107457 0.887747 0.601617
Si Si7 0.674094 0.955146 0.247998
Si Si8 0.327287 0.895918 0.330346
O O1 0.837042 0.750000 0.441748
O O2 0.815887 0.678076 0.713899
O O3 0.942315 0.750000 0.660171
O O4 0.632810 0.321841 0.681394
O O5 0.526549 0.250000 0.842989
O O6 0.813961 0.380767 0.291559
O O7 0.701099 0.466453 0.195022
O O8 0.699452 0.402780 0.473057
O O9 0.942628 0.425616 0.252112
O O10 0.885003 0.541593 0.195542
O O11 0.871355 0.454531 0.930909
O O12 0.000000 0.500000 0.000000
O O13 0.066966 0.816584 0.555117
O O14 0.127350 0.926088 0.418651
O O15 0.750327 0.909615 0.275466
#
# Coordination Sequence:
#
# PCOD9466408 Si02
#       8
#     4   4   8   8   4   8   8   8
#     4  10  24  36  64  91 133 168 227 261 329 407
#     4  10  25  38  67  92 136 177 221 262 343 398
#     4  10  21  42  69  97 124 177 223 282 332 390
#     4  11  26  39  68 105 131 171 224 272 348 394
#     4  10  27  42  59 103 129 193 216 257 356 409
#     4  11  24  45  69  91 145 171 223 286 329 407
#     4  10  24  43  72 101 127 171 232 277 342 398
#     4  10  22  44  66  97 130 170 225 279 325 406
#
# _framework density 19.833024999999999
#
# number of rings (size 3 to 8) (size 9 to 14) (size 15 to 20)
#    0.462    1.231    1.538    0.923   10.769    2.462 
#    0.000    0.769    0.000    0.000    0.000    0.000 
#    0.000    0.000    0.000    0.000    0.000    0.000 
#
# Total GULP energy -289734.787159 kJ/mol
# GULP energy per Si atom -5571.822830 kJ/mol
# Density = 1.978788 g / cm^3
# Si number density = 19.833025 Si / 1000 Ang^3
#
#
#
# Elastic Constant Matrix: (Units=GPa)
#
#
# Indices 1 2 3 4 5 6 
#
# 1 70.4560 54.9961 33.2706 0.0000 0.0000 0.0000
# 2 54.9961 139.9027 39.9155 0.0000 0.0000 0.0000
# 3 33.2706 39.9155 63.3007 0.0000 0.0000 0.0000
# 4 0.0000 0.0000 0.0000 -10.6469 0.0000 0.0000
# 5 0.0000 0.0000 0.0000 0.0000 25.6504 0.0000
# 6 0.0000 0.0000 0.0000 0.0000 0.0000 12.4961
#
#
#
# Elastic Compliance Matrix: (Units=1/GPa)
#
#
# Indices 1 2 3 4 5 6 
#
# 1 0.023319 -0.006914 -0.007897 0.000000 0.000000 0.000000
# 2 -0.006914 0.010766 -0.003155 0.000000 0.000000 0.000000
# 3 -0.007897 -0.003155 0.021937 0.000000 0.000000 0.000000
# 4 0.000000 0.000000 0.000000 -0.093924 0.000000 0.000000
# 5 0.000000 0.000000 0.000000 0.000000 0.038986 0.000000
# 6 0.000000 0.000000 0.000000 0.000000 0.000000 0.080025
#
#
# Mechanical properties :
#
#
# Convention : Reuss Voigt Hill
#
# Bulk Modulus (GPa) = 49.77192 58.89153 54.33173
# Shear Modulus (GPa) = 40.40864 15.19841 27.80353
#
# Velocity S-wave (km/s) = 4.51870 2.77125 3.74823
# Velocity P-wave (km/s) = 7.23705 6.32439 6.79605
#
# Compressibility (1/GPa) = 0.02009165
#
# Stress axis : x y z
#
# Youngs Moduli (GPa) = 42.88365 92.88780 45.58430
#
# Poissons Ratio (x) = 0.64220 0.35997
# Poissons Ratio (y) = 0.29648 0.14380
# Poissons Ratio (z) = 0.33864 0.29303
#
# Static dielectric constant tensor:
#      x y z
#    x 1.740440 0.000000 0.000000 
#    y 0.000000 2.679830 0.000000 
#    z 0.000000 0.000000 1.706530 
# 
# From -- ./inp_files/7946.got.cif
#   From: 2010.05.17/outbox.cif.g08.bks.cpg/sg62_4_cif.got.tgz:7946.got - 2010.06.03 15:25:27.
