data_PCOD9466999
_publ_section_title
;
Structure prediction by ZEFSAII (Michael W. Deem and Ramdas Pophale) SiO2 
 PCOD9466999
Probable space group: P N M A
;
_chemical_formula_sum "Si O2"
_cell_formula_units_Z 52
_cell_length_a 17.229053
_cell_length_b 7.492411
_cell_length_c 16.596921
_cell_angle_alpha 90.000000
_cell_angle_beta 90.000000
_cell_angle_gamma 90.000000
_cell_volume 2142.449168
_symmetry_space_group_name_H-M "P N M A"
_symmetry_group_IT_number 62
_symmetry_cell_setting 'orthorhombic'
loop_
_space_group_symop_operation_xyz
x,y,z
1/2-x,-y,1/2+z
1/2+x,1/2-y,1/2-z
-x,1/2+y,-z
-x,-y,-z
1/2+x,y,1/2-z
1/2-x,1/2+y,1/2+z
x,1/2-y,z
loop_
_atom_site_type_symbol
_atom_site_label
_atom_site_fract_x
_atom_site_fract_y
_atom_site_fract_z
Si Si1 0.227143 0.465548 0.799509
Si Si2 0.076275 0.034490 0.095927
Si Si3 0.908114 0.542612 0.087406
Si Si4 0.744943 0.454588 0.376939
Si Si5 0.392391 0.952124 0.040204
Si Si6 0.098464 0.541611 0.351847
Si Si7 0.520529 0.750000 0.850866
O O1 0.222124 0.250000 0.795233
O O2 0.160104 0.534327 0.858437
O O3 0.215335 0.535947 0.709829
O O4 0.313436 0.509718 0.828889
O O5 0.071631 0.250000 0.098031
O O6 0.157331 0.976257 0.134811
O O7 0.084542 0.969405 0.002950
O O8 0.993229 0.969641 0.126272
O O9 0.888525 0.750000 0.076359
O O10 0.738400 0.250000 0.404178
O O11 0.800479 0.548006 0.440706
O O12 0.422498 0.750000 0.050396
O O13 0.429947 0.093467 0.100532
O O14 0.407364 0.009227 0.948480
O O15 0.086604 0.750000 0.333439
O O16 0.037096 0.406997 0.313909
#
# Coordination Sequence:
#
# PCOD9466999 Si02
#       7
#     8   8   8   8   8   8   4
#     4  10  23  42  61  89 128 170 212 258 320 384
#     4   9  19  37  63  92 119 155 202 259 313 368
#     4   9  18  37  64  90 120 155 201 259 313 367
#     4  11  23  42  62  88 129 171 213 260 321 387
#     4  12  24  40  67  95 128 169 216 269 320 379
#     4  11  23  41  67  94 131 172 213 266 320 380
#     4  12  24  42  64 100 128 170 212 270 314 386
#
# _framework density 24.271287999999998
#
# number of rings (size 3 to 8) (size 9 to 14) (size 15 to 20)
#    0.000    1.538    2.308    2.308    1.077    4.308 
#    2.769    1.538    0.000    0.000    0.000    0.000 
#    0.000    0.000    0.000    0.000    0.000    0.000 
#
# Total GULP energy -289944.392418 kJ/mol
# GULP energy per Si atom -5575.853700 kJ/mol
# Density = 2.421605 g / cm^3
# Si number density = 24.271288 Si / 1000 Ang^3
#
#
#
# Elastic Constant Matrix: (Units=GPa)
#
#
# Indices 1 2 3 4 5 6 
#
# 1 61.3139 2.8449 34.5187 0.0000 0.0000 0.0000
# 2 2.8449 127.2990 6.0098 0.0000 0.0000 0.0000
# 3 34.5187 6.0098 48.7610 0.0000 0.0000 0.0000
# 4 0.0000 0.0000 0.0000 15.6041 0.0000 0.0000
# 5 0.0000 0.0000 0.0000 0.0000 -2.8069 0.0000
# 6 0.0000 0.0000 0.0000 0.0000 0.0000 32.2871
#
#
#
# Elastic Compliance Matrix: (Units=1/GPa)
#
#
# Indices 1 2 3 4 5 6 
#
# 1 0.027128 0.000302 -0.019242 0.000000 0.000000 0.000000
# 2 0.000302 0.007905 -0.001188 0.000000 0.000000 0.000000
# 3 -0.019242 -0.001188 0.034276 0.000000 0.000000 0.000000
# 4 0.000000 0.000000 0.000000 0.064086 0.000000 0.000000
# 5 0.000000 0.000000 0.000000 0.000000 -0.356268 0.000000
# 6 0.000000 0.000000 0.000000 0.000000 0.000000 0.030972
#
#
# Mechanical properties :
#
#
# Convention : Reuss Voigt Hill
#
# Bulk Modulus (GPa) = 34.41896 36.01338 35.21617
# Shear Modulus (GPa) = -35.22110 21.95023 -6.63544
#
# Velocity S-wave (km/s) = -3.81352 3.01054 -1.65523
# Velocity P-wave (km/s) = 2.27571 5.19177 3.29967
#
# Compressibility (1/GPa) = 0.02905375
#
# Stress axis : x y z
#
# Youngs Moduli (GPa) = 36.86188 126.50445 29.17476
#
# Poissons Ratio (x) = -0.03822 0.56137
# Poissons Ratio (y) = -0.01114 0.03466
# Poissons Ratio (z) = 0.70929 0.15031
#
# Static dielectric constant tensor:
#      x y z
#    x 1.999170 0.000000 0.000000 
#    y 0.000000 1.873790 0.000000 
#    z 0.000000 0.000000 1.944610 
# 
# From -- ./inp_files/24327.got.cif
#   From: 2010.05.17/outbox.cif.g08.bks.cpg/sg62_13_cif.got.tgz:24327.got - 2010.06.03 15:25:27.
