data_PCOD9466976
_publ_section_title
;
Structure prediction by ZEFSAII (Michael W. Deem and Ramdas Pophale) SiO2 
 PCOD9466976
Probable space group: P N M A
;
_chemical_formula_sum "Si O2"
_cell_formula_units_Z 40
_cell_length_a 7.873907
_cell_length_b 25.344679
_cell_length_c 7.401611
_cell_angle_alpha 90.000000
_cell_angle_beta 90.000000
_cell_angle_gamma 90.000000
_cell_volume 1477.077670
_symmetry_space_group_name_H-M "P N M A"
_symmetry_group_IT_number 62
_symmetry_cell_setting 'orthorhombic'
loop_
_space_group_symop_operation_xyz
x,y,z
1/2-x,-y,1/2+z
1/2+x,1/2-y,1/2-z
-x,1/2+y,-z
-x,-y,-z
1/2+x,y,1/2-z
1/2-x,1/2+y,1/2+z
x,1/2-y,z
loop_
_atom_site_type_symbol
_atom_site_label
_atom_site_fract_x
_atom_site_fract_y
_atom_site_fract_z
Si Si1 0.951460 0.921382 0.373199
Si Si2 0.114631 0.192879 0.010180
Si Si3 0.011295 0.192154 0.597809
Si Si4 0.958380 0.085848 0.036536
Si Si5 0.713830 0.532771 0.837935
O O1 0.890025 0.862855 0.435207
O O2 0.086057 0.940758 0.520311
O O3 0.835848 0.971909 0.327513
O O4 0.041805 0.910855 0.179351
O O5 0.093812 0.250000 0.100750
O O6 0.024145 0.196690 0.814839
O O7 0.316070 0.185037 0.968413
O O8 0.029945 0.142511 0.103454
O O9 0.073016 0.250000 0.531083
O O10 0.099632 0.042944 0.092152
O O11 0.801332 0.064020 0.149813
#
# Coordination Sequence:
#
# PCOD9466976 Si02
#       5
#     8   8   8   8   8
#     4  10  23  41  63  92 126 168 206 259 315 367
#     4   9  18  36  60  87 122 159 207 258 310 370
#     4   9  17  34  62  90 117 157 205 254 308 370
#     4  11  24  43  62  93 127 168 209 262 313 376
#     4  11  25  40  64  95 127 169 212 256 314 381
#
# _framework density 27.080499
#
# number of rings (size 3 to 8) (size 9 to 14) (size 15 to 20)
#    0.000    2.000    2.000    0.600    5.600    1.600 
#    3.600    2.000    0.000    0.000    0.000    0.000 
#    0.000    0.000    0.000    0.000    0.000    0.000 
#
# Total GULP energy -223965.347066 kJ/mol
# GULP energy per Si atom -5599.133677 kJ/mol
# Density = 2.701886 g / cm^3
# Si number density = 27.080499 Si / 1000 Ang^3
#
#
#
# Elastic Constant Matrix: (Units=GPa)
#
#
# Indices 1 2 3 4 5 6 
#
# 1 51.7834 50.9506 2.3340 0.0000 0.0000 0.0000
# 2 50.9506 302.9478 52.7633 0.0000 0.0000 0.0000
# 3 2.3340 52.7633 106.4213 0.0000 0.0000 0.0000
# 4 0.0000 0.0000 0.0000 1.4602 0.0000 0.0000
# 5 0.0000 0.0000 0.0000 0.0000 35.8121 0.0000
# 6 0.0000 0.0000 0.0000 0.0000 0.0000 38.3539
#
#
#
# Elastic Compliance Matrix: (Units=1/GPa)
#
#
# Indices 1 2 3 4 5 6 
#
# 1 0.023378 -0.004206 0.001572 0.000000 0.000000 0.000000
# 2 -0.004206 0.004369 -0.002074 0.000000 0.000000 0.000000
# 3 0.001572 -0.002074 0.010390 0.000000 0.000000 0.000000
# 4 0.000000 0.000000 0.000000 0.684859 0.000000 0.000000
# 5 0.000000 0.000000 0.000000 0.000000 0.027924 0.000000
# 6 0.000000 0.000000 0.000000 0.000000 0.000000 0.026073
#
#
# Mechanical properties :
#
#
# Convention : Reuss Voigt Hill
#
# Bulk Modulus (GPa) = 34.81462 74.80536 54.80999
# Shear Modulus (GPa) = 6.28154 38.79887 22.54020
#
# Velocity S-wave (km/s) = 1.52467 3.78924 2.88816
# Velocity P-wave (km/s) = 3.99792 6.84308 5.60407
#
# Compressibility (1/GPa) = 0.02872357
#
# Stress axis : x y z
#
# Youngs Moduli (GPa) = 42.77448 228.86064 96.24203
#
# Poissons Ratio (x) = 0.96252 -0.15134
# Poissons Ratio (y) = 0.17990 0.19962
# Poissons Ratio (z) = -0.06726 0.47469
#
# Static dielectric constant tensor:
#      x y z
#    x 2.190730 0.000000 0.000000 
#    y 0.000000 2.134310 0.000000 
#    z 0.000000 0.000000 2.140380 
# 
# From -- ./inp_files/4403.got.cif
#   From: 2010.05.17/outbox.cif.g08.bks.cpg/sg62_3_cif.got.tgz:4403.got - 2010.06.03 15:25:27.
