data_PCOD9466828
_publ_section_title
;
Structure prediction by ZEFSAII (Michael W. Deem and Ramdas Pophale) SiO2 
 PCOD9466828
Probable space group: P N M A
;
_chemical_formula_sum "Si O2"
_cell_formula_units_Z 48
_cell_length_a 9.455906
_cell_length_b 16.426651
_cell_length_c 14.343011
_cell_angle_alpha 90.000000
_cell_angle_beta 90.000000
_cell_angle_gamma 90.000000
_cell_volume 2227.883659
_symmetry_space_group_name_H-M "P N M A"
_symmetry_group_IT_number 62
_symmetry_cell_setting 'orthorhombic'
loop_
_space_group_symop_operation_xyz
x,y,z
1/2-x,-y,1/2+z
1/2+x,1/2-y,1/2-z
-x,1/2+y,-z
-x,-y,-z
1/2+x,y,1/2-z
1/2-x,1/2+y,1/2+z
x,1/2-y,z
loop_
_atom_site_type_symbol
_atom_site_label
_atom_site_fract_x
_atom_site_fract_y
_atom_site_fract_z
Si Si1 0.458615 0.656746 0.700879
Si Si2 0.338712 0.409495 0.163253
Si Si3 0.124500 0.943499 0.458590
Si Si4 0.654267 0.655251 0.357829
Si Si5 0.621008 0.942734 0.543540
Si Si6 0.943592 0.907554 0.292162
O O1 0.431728 0.750000 0.675471
O O2 0.311935 0.609288 0.707789
O O3 0.543698 0.650463 0.796923
O O4 0.554880 0.612480 0.623767
O O5 0.392028 0.499376 0.192803
O O6 0.320329 0.400483 0.052130
O O7 0.054087 0.891775 0.376831
O O8 0.250503 0.000673 0.422093
O O9 0.000000 0.000000 0.500000
O O10 0.618642 0.750000 0.367332
O O11 0.674448 0.612680 0.457872
O O12 0.529680 0.609361 0.301733
O O13 0.802175 0.644769 0.303346
O O14 0.500000 0.000000 0.500000
#
# Coordination Sequence:
#
# PCOD9466828 Si02
#       6
#     8   8   8   8   8   8
#     4  12  27  43  65 101 141 177 219 285 349 393
#     4  11  23  45  68  98 131 179 232 278 323 413
#     4  10  22  42  70  97 120 166 236 277 315 386
#     4  12  26  44  66 101 141 174 219 287 348 391
#     4  12  23  44  70  98 128 179 232 275 324 406
#     4  11  24  44  70 100 128 181 232 276 328 413
#
# _framework density 21.545109
#
# number of rings (size 3 to 8) (size 9 to 14) (size 15 to 20)
#    0.000    0.667    5.000    3.500    9.333    0.000 
#    0.000    3.333    0.000    0.000    0.000    0.000 
#    0.000    0.000    0.000    0.000    0.000    0.000 
#
# Total GULP energy -268590.397851 kJ/mol
# GULP energy per Si atom -5595.633289 kJ/mol
# Density = 2.149607 g / cm^3
# Si number density = 21.545109 Si / 1000 Ang^3
#
#
#
# Elastic Constant Matrix: (Units=GPa)
#
#
# Indices 1 2 3 4 5 6 
#
# 1 124.8975 25.6691 18.1349 0.0000 0.0000 0.0000
# 2 25.6691 72.1919 24.9969 0.0000 0.0000 0.0000
# 3 18.1349 24.9969 68.4154 0.0000 0.0000 0.0000
# 4 0.0000 0.0000 0.0000 23.4563 0.0000 0.0000
# 5 0.0000 0.0000 0.0000 0.0000 38.5212 0.0000
# 6 0.0000 0.0000 0.0000 0.0000 0.0000 17.2343
#
#
#
# Elastic Compliance Matrix: (Units=1/GPa)
#
#
# Indices 1 2 3 4 5 6 
#
# 1 0.008746 -0.002641 -0.001353 0.000000 0.000000 0.000000
# 2 -0.002641 0.016656 -0.005385 0.000000 0.000000 0.000000
# 3 -0.001353 -0.005385 0.016943 0.000000 0.000000 0.000000
# 4 0.000000 0.000000 0.000000 0.042632 0.000000 0.000000
# 5 0.000000 0.000000 0.000000 0.000000 0.025960 0.000000
# 6 0.000000 0.000000 0.000000 0.000000 0.000000 0.058024
#
#
# Mechanical properties :
#
#
# Convention : Reuss Voigt Hill
#
# Bulk Modulus (GPa) = 42.39996 44.78963 43.59479
# Shear Modulus (GPa) = 25.56469 28.95594 27.26031
#
# Velocity S-wave (km/s) = 3.44839 3.66999 3.56092
# Velocity P-wave (km/s) = 5.96469 6.22835 6.09795
#
# Compressibility (1/GPa) = 0.02358493
#
# Stress axis : x y z
#
# Youngs Moduli (GPa) = 114.33960 60.03903 59.02149
#
# Poissons Ratio (x) = 0.15857 0.07987
# Poissons Ratio (y) = 0.30199 0.31786
# Poissons Ratio (z) = 0.15473 0.32334
#
# Static dielectric constant tensor:
#      x y z
#    x 1.754820 0.000000 0.000000 
#    y 0.000000 1.781890 0.000000 
#    z 0.000000 0.000000 1.845470 
# 
# From -- ./inp_files/16947.got.cif
#   From: 2010.05.17/outbox.cif.g08.bks.cpg/sg62_9_cif.got.tgz:16947.got - 2010.06.03 15:25:27.
