data_PCOD9466549
_publ_section_title
;
Structure prediction by ZEFSAII (Michael W. Deem and Ramdas Pophale) SiO2 
 PCOD9466549
Probable space group: P N M A
;
_chemical_formula_sum "Si O2"
_cell_formula_units_Z 56
_cell_length_a 14.226039
_cell_length_b 14.281276
_cell_length_c 11.407645
_cell_angle_alpha 90.000000
_cell_angle_beta 90.000000
_cell_angle_gamma 90.000000
_cell_volume 2317.645483
_symmetry_space_group_name_H-M "P N M A"
_symmetry_group_IT_number 62
_symmetry_cell_setting 'orthorhombic'
loop_
_space_group_symop_operation_xyz
x,y,z
1/2-x,-y,1/2+z
1/2+x,1/2-y,1/2-z
-x,1/2+y,-z
-x,-y,-z
1/2+x,y,1/2-z
1/2-x,1/2+y,1/2+z
x,1/2-y,z
loop_
_atom_site_type_symbol
_atom_site_label
_atom_site_fract_x
_atom_site_fract_y
_atom_site_fract_z
Si Si1 0.598510 0.355697 0.453217
Si Si2 0.017213 0.463010 0.631240
Si Si3 0.043796 0.647730 0.768075
Si Si4 0.733516 0.353356 0.224816
Si Si5 0.224324 0.506087 0.976648
Si Si6 0.337796 0.145699 0.896475
Si Si7 0.715184 0.358499 0.835571
O O1 0.614612 0.250000 0.502349
O O2 0.493138 0.358439 0.402125
O O3 0.665603 0.364083 0.336741
O O4 0.629816 0.443429 0.532222
O O5 0.005628 0.556024 0.707072
O O6 0.935931 0.387979 0.654505
O O7 0.000000 0.500000 0.500000
O O8 0.116192 0.412331 0.654823
O O9 0.009269 0.750000 0.725090
O O10 0.155048 0.647653 0.750492
O O11 0.711896 0.250000 0.173874
O O12 0.731146 0.437328 0.132187
O O13 0.217886 0.581296 0.079270
O O14 0.302057 0.425130 0.995273
O O15 0.344745 0.250000 0.943504
O O16 0.260862 0.141455 0.793055
O O17 0.706033 0.250000 0.871465
#
# Coordination Sequence:
#
# PCOD9466549 Si02
#       7
#     8   8   8   8   8   8   8
#     4  10  22  39  60  88 124 161 205 262 318 379
#     4  12  23  41  65 100 128 169 224 280 325 392
#     4  10  22  40  61  89 122 159 204 260 322 380
#     4  10  22  39  60  88 124 161 205 262 318 379
#     4  12  20  38  64  90 120 168 218 260 322 386
#     4  11  25  43  63  94 136 175 216 272 336 395
#     4  11  25  43  63  94 136 175 216 272 336 395
#
# _framework density 24.162451999999998
#
# number of rings (size 3 to 8) (size 9 to 14) (size 15 to 20)
#    0.000    1.143    1.429    5.571    0.000    1.714 
#    0.000    1.429    0.000    3.429    0.000    0.000 
#    0.000    0.000    0.000    0.000    0.000    0.000 
#
# Total GULP energy -313068.593867 kJ/mol
# GULP energy per Si atom -5590.510605 kJ/mol
# Density = 2.410746 g / cm^3
# Si number density = 24.162452 Si / 1000 Ang^3
#
#
#
# Elastic Constant Matrix: (Units=GPa)
#
#
# Indices 1 2 3 4 5 6 
#
# 1 81.8004 12.1387 12.3215 0.0000 0.0000 0.0000
# 2 12.1387 208.5255 29.5199 0.0000 0.0000 0.0000
# 3 12.3215 29.5199 26.1276 0.0000 0.0000 0.0000
# 4 0.0000 0.0000 0.0000 35.0103 0.0000 0.0000
# 5 0.0000 0.0000 0.0000 0.0000 28.1845 0.0000
# 6 0.0000 0.0000 0.0000 0.0000 0.0000 35.1244
#
#
#
# Elastic Compliance Matrix: (Units=1/GPa)
#
#
# Indices 1 2 3 4 5 6 
#
# 1 0.013163 0.000134 -0.006359 0.000000 0.000000 0.000000
# 2 0.000134 0.005710 -0.006515 0.000000 0.000000 0.000000
# 3 -0.006359 -0.006515 0.048633 0.000000 0.000000 0.000000
# 4 0.000000 0.000000 0.000000 0.028563 0.000000 0.000000
# 5 0.000000 0.000000 0.000000 0.000000 0.035481 0.000000
# 6 0.000000 0.000000 0.000000 0.000000 0.000000 0.028470
#
#
# Mechanical properties :
#
#
# Convention : Reuss Voigt Hill
#
# Bulk Modulus (GPa) = 23.79430 47.15708 35.47569
# Shear Modulus (GPa) = 25.06175 37.16206 31.11190
#
# Velocity S-wave (km/s) = 3.22408 3.92600 3.59223
# Velocity P-wave (km/s) = 4.87120 6.33327 5.64973
#
# Compressibility (1/GPa) = 0.04202686
#
# Stress axis : x y z
#
# Youngs Moduli (GPa) = 75.97153 175.13102 20.56224
#
# Poissons Ratio (x) = -0.02346 0.13075
# Poissons Ratio (y) = -0.01018 0.13395
# Poissons Ratio (z) = 0.48309 1.14090
#
# Static dielectric constant tensor:
#      x y z
#    x 1.985230 0.000000 0.000000 
#    y 0.000000 1.959260 0.000000 
#    z 0.000000 0.000000 1.955280 
# 
# From -- ./inp_files/13409.got.cif
#   From: 2010.05.17/outbox.cif.g08.bks.cpg/sg62_7_cif.got.tgz:13409.got - 2010.06.03 15:25:27.
