data_PCOD9466783
_publ_section_title
;
Structure prediction by ZEFSAII (Michael W. Deem and Ramdas Pophale) SiO2 
 PCOD9466783
Probable space group: P N M A
;
_chemical_formula_sum "Si O2"
_cell_formula_units_Z 48
_cell_length_a 18.988327
_cell_length_b 8.869549
_cell_length_c 15.186689
_cell_angle_alpha 90.000000
_cell_angle_beta 90.000000
_cell_angle_gamma 90.000000
_cell_volume 2557.710220
_symmetry_space_group_name_H-M "P N M A"
_symmetry_group_IT_number 62
_symmetry_cell_setting 'orthorhombic'
loop_
_space_group_symop_operation_xyz
x,y,z
1/2-x,-y,1/2+z
1/2+x,1/2-y,1/2-z
-x,1/2+y,-z
-x,-y,-z
1/2+x,y,1/2-z
1/2-x,1/2+y,1/2+z
x,1/2-y,z
loop_
_atom_site_type_symbol
_atom_site_label
_atom_site_fract_x
_atom_site_fract_y
_atom_site_fract_z
Si Si1 0.978996 0.929879 0.406643
Si Si2 0.716828 0.430233 0.513848
Si Si3 0.438354 0.568890 0.559522
Si Si4 0.735487 0.069987 0.196554
Si Si5 0.914115 0.431153 0.749926
Si Si6 0.829874 0.429937 0.361446
O O1 0.980848 0.750000 0.414440
O O2 0.033603 0.973786 0.329719
O O3 0.901508 0.984225 0.380476
O O4 0.000000 0.000000 0.500000
O O5 0.719705 0.250000 0.530169
O O6 0.637859 0.467572 0.482991
O O7 0.740500 0.516133 0.600952
O O8 0.771312 0.463866 0.435375
O O9 0.500000 0.500000 0.500000
O O10 0.444765 0.750000 0.563234
O O11 0.438673 0.502483 0.657970
O O12 0.724657 0.250000 0.198826
O O13 0.795816 0.032600 0.267520
O O14 0.663362 0.990663 0.225790
O O15 0.913339 0.250000 0.757656
O O16 0.843261 0.250000 0.364464
#
# Coordination Sequence:
#
# PCOD9466783 Si02
#       6
#     8   8   8   8   8   8
#     4  11  25  42  63  93 126 164 208 258 313 372
#     4  10  22  42  64  89 125 163 202 257 314 370
#     4  11  24  43  65  92 128 169 213 264 318 378
#     4  11  23  40  64  95 124 161 209 257 311 371
#     4  11  24  43  65  93 129 169 211 258 316 376
#     4  10  22  42  63  89 125 162 203 254 310 368
#
# _framework density 18.766787000000001
#
# number of rings (size 3 to 8) (size 9 to 14) (size 15 to 20)
#    0.000    1.333    1.667    3.000    2.333   10.000 
#    0.000    0.000    0.000    0.000    0.000    0.000 
#    0.000    0.000    0.000    0.000    0.000    0.000 
#
# Total GULP energy -268455.989718 kJ/mol
# GULP energy per Si atom -5592.833119 kJ/mol
# Density = 1.872407 g / cm^3
# Si number density = 18.766787 Si / 1000 Ang^3
#
#
#
# Elastic Constant Matrix: (Units=GPa)
#
#
# Indices 1 2 3 4 5 6 
#
# 1 99.2415 38.5498 29.8435 0.0000 0.0000 0.0000
# 2 38.5498 43.5160 43.6839 0.0000 0.0000 0.0000
# 3 29.8435 43.6839 121.6038 0.0000 0.0000 0.0000
# 4 0.0000 0.0000 0.0000 39.7363 0.0000 0.0000
# 5 0.0000 0.0000 0.0000 0.0000 35.9283 0.0000
# 6 0.0000 0.0000 0.0000 0.0000 0.0000 37.9180
#
#
#
# Elastic Compliance Matrix: (Units=1/GPa)
#
#
# Indices 1 2 3 4 5 6 
#
# 1 0.015605 -0.015608 0.001777 0.000000 0.000000 0.000000
# 2 -0.015608 0.051552 -0.014689 0.000000 0.000000 0.000000
# 3 0.001777 -0.014689 0.013064 0.000000 0.000000 0.000000
# 4 0.000000 0.000000 0.000000 0.025166 0.000000 0.000000
# 5 0.000000 0.000000 0.000000 0.000000 0.027833 0.000000
# 6 0.000000 0.000000 0.000000 0.000000 0.000000 0.026373
#
#
# Mechanical properties :
#
#
# Convention : Reuss Voigt Hill
#
# Bulk Modulus (GPa) = 43.13704 54.27951 48.70827
# Shear Modulus (GPa) = 22.28566 32.86879 27.57722
#
# Velocity S-wave (km/s) = 3.44976 4.18955 3.83752
# Velocity P-wave (km/s) = 6.23727 7.23803 6.75621
#
# Compressibility (1/GPa) = 0.02318193
#
# Stress axis : x y z
#
# Youngs Moduli (GPa) = 64.08261 19.39775 76.54655
#
# Poissons Ratio (x) = 0.30276 -0.13604
# Poissons Ratio (y) = 1.00021 1.12438
# Poissons Ratio (z) = -0.11389 0.28493
#
# Static dielectric constant tensor:
#      x y z
#    x 1.614550 0.000000 0.000000 
#    y 0.000000 1.623890 0.000000 
#    z 0.000000 0.000000 1.614820 
# 
# From -- ./inp_files/19618.got.cif
#   From: 2010.05.17/outbox.cif.g08.bks.cpg/sg62_10_cif.got.tgz:19618.got - 2010.06.03 15:25:27.
