data_PCOD9466564
_publ_section_title
;
Structure prediction by ZEFSAII (Michael W. Deem and Ramdas Pophale) SiO2 
 PCOD9466564
Probable space group: P N M A
;
_chemical_formula_sum "Si O2"
_cell_formula_units_Z 60
_cell_length_a 10.034861
_cell_length_b 25.097208
_cell_length_c 9.493735
_cell_angle_alpha 90.000000
_cell_angle_beta 90.000000
_cell_angle_gamma 90.000000
_cell_volume 2390.968619
_symmetry_space_group_name_H-M "P N M A"
_symmetry_group_IT_number 62
_symmetry_cell_setting 'orthorhombic'
loop_
_space_group_symop_operation_xyz
x,y,z
1/2-x,-y,1/2+z
1/2+x,1/2-y,1/2-z
-x,1/2+y,-z
-x,-y,-z
1/2+x,y,1/2-z
1/2-x,1/2+y,1/2+z
x,1/2-y,z
loop_
_atom_site_type_symbol
_atom_site_label
_atom_site_fract_x
_atom_site_fract_y
_atom_site_fract_z
Si Si1 0.345278 0.001844 0.033380
Si Si2 0.045942 0.097428 0.036990
Si Si3 0.267101 0.189853 0.087921
Si Si4 0.329926 0.590936 0.252297
Si Si5 0.308896 0.945885 0.761970
Si Si6 0.279019 0.343577 0.398283
Si Si7 0.422524 0.340742 0.822650
Si Si8 0.186475 0.750000 0.109214
O O1 0.313065 0.951751 0.131226
O O2 0.299325 0.050425 0.133861
O O3 0.286641 0.990965 0.878050
O O4 0.500000 0.000000 0.000000
O O5 0.149377 0.147189 0.058468
O O6 0.060741 0.055097 0.163488
O O7 0.902812 0.123196 0.041824
O O8 0.086565 0.072702 0.889011
O O9 0.214635 0.250000 0.065933
O O10 0.315048 0.182925 0.247669
O O11 0.385696 0.180181 0.977771
O O12 0.185991 0.612522 0.297572
O O13 0.428429 0.637946 0.196552
O O14 0.319067 0.890853 0.849344
O O15 0.250286 0.296937 0.506469
O O16 0.385117 0.295938 0.709380
#
# Coordination Sequence:
#
# PCOD9466564 Si02
#       8
#     8   8   8   8   8   8   8   4
#     4  12  28  46  76 100 140 188 246 304 382 439
#     4  10  23  41  69  93 142 181 231 299 357 424
#     4  10  22  39  61  95 137 186 233 283 350 422
#     4  11  26  46  73 105 144 188 242 305 361 434
#     4  11  26  47  70 105 139 183 241 306 364 446
#     4  11  23  42  66 100 140 181 238 291 359 428
#     4  11  25  44  70 103 144 187 242 296 354 433
#     4  12  22  42  70 102 142 190 242 292 358 428
#
# _framework density 25.094431
#
# number of rings (size 3 to 8) (size 9 to 14) (size 15 to 20)
#    0.000    1.067    2.667    2.400   10.267    0.533 
#    0.000    2.667    0.000    0.000    0.000    0.000 
#    0.000    0.000    0.000    0.000    0.000    0.000 
#
# Total GULP energy -334497.330936 kJ/mol
# GULP energy per Si atom -5574.955516 kJ/mol
# Density = 2.503731 g / cm^3
# Si number density = 25.094431 Si / 1000 Ang^3
#
#
#
# Elastic Constant Matrix: (Units=GPa)
#
#
# Indices 1 2 3 4 5 6 
#
# 1 52.7085 2.2003 6.3374 0.0000 0.0000 0.0000
# 2 2.2003 83.3565 28.3619 0.0000 0.0000 0.0000
# 3 6.3374 28.3619 140.3410 0.0000 0.0000 0.0000
# 4 0.0000 0.0000 0.0000 34.4614 0.0000 0.0000
# 5 0.0000 0.0000 0.0000 0.0000 30.2697 0.0000
# 6 0.0000 0.0000 0.0000 0.0000 0.0000 14.1617
#
#
#
# Elastic Compliance Matrix: (Units=1/GPa)
#
#
# Indices 1 2 3 4 5 6 
#
# 1 0.019080 -0.000226 -0.000816 0.000000 0.000000 0.000000
# 2 -0.000226 0.012885 -0.002594 0.000000 0.000000 0.000000
# 3 -0.000816 -0.002594 0.007687 0.000000 0.000000 0.000000
# 4 0.000000 0.000000 0.000000 0.029018 0.000000 0.000000
# 5 0.000000 0.000000 0.000000 0.000000 0.033036 0.000000
# 6 0.000000 0.000000 0.000000 0.000000 0.000000 0.070613
#
#
# Mechanical properties :
#
#
# Convention : Reuss Voigt Hill
#
# Bulk Modulus (GPa) = 30.88321 38.91168 34.89745
# Shear Modulus (GPa) = 26.26274 31.74565 29.00419
#
# Velocity S-wave (km/s) = 3.23856 3.56061 3.40340
# Velocity P-wave (km/s) = 5.13010 5.69594 5.42040
#
# Compressibility (1/GPa) = 0.03238005
#
# Stress axis : x y z
#
# Youngs Moduli (GPa) = 52.41142 77.60869 130.09769
#
# Poissons Ratio (x) = 0.01754 0.10615
# Poissons Ratio (y) = 0.01185 0.33745
# Poissons Ratio (z) = 0.04276 0.20130
#
# Static dielectric constant tensor:
#      x y z
#    x 1.995070 0.000000 0.000000 
#    y 0.000000 2.012350 0.000000 
#    z 0.000000 0.000000 2.044820 
# 
# From -- ./inp_files/5456.got.cif
#   From: 2010.05.17/outbox.cif.g08.bks.cpg/sg62_3_cif.got.tgz:5456.got - 2010.06.03 15:25:27.
