data_PCOD9466699
_publ_section_title
;
Structure prediction by ZEFSAII (Michael W. Deem and Ramdas Pophale) SiO2 
 PCOD9466699
Probable space group: P N M A
;
_chemical_formula_sum "Si O2"
_cell_formula_units_Z 48
_cell_length_a 16.959042
_cell_length_b 8.670710
_cell_length_c 18.333376
_cell_angle_alpha 90.000000
_cell_angle_beta 90.000000
_cell_angle_gamma 90.000000
_cell_volume 2695.866750
_symmetry_space_group_name_H-M "P N M A"
_symmetry_group_IT_number 62
_symmetry_cell_setting 'orthorhombic'
loop_
_space_group_symop_operation_xyz
x,y,z
1/2-x,-y,1/2+z
1/2+x,1/2-y,1/2-z
-x,1/2+y,-z
-x,-y,-z
1/2+x,y,1/2-z
1/2-x,1/2+y,1/2+z
x,1/2-y,z
loop_
_atom_site_type_symbol
_atom_site_label
_atom_site_fract_x
_atom_site_fract_y
_atom_site_fract_z
Si Si1 0.253073 0.935801 0.452114
Si Si2 0.673748 0.065194 0.332542
Si Si3 0.827153 0.566783 0.404086
Si Si4 0.361129 0.065415 0.824439
Si Si5 0.505191 0.566133 0.918059
Si Si6 0.084545 0.434833 0.020694
O O1 0.246860 0.750000 0.463063
O O2 0.215528 0.972096 0.374109
O O3 0.343944 0.979957 0.466161
O O4 0.201763 0.015589 0.515299
O O5 0.682488 0.250000 0.335331
O O6 0.614785 0.019738 0.398528
O O7 0.757513 0.987823 0.350875
O O8 0.644020 0.011791 0.254249
O O9 0.837171 0.750000 0.401450
O O10 0.909421 0.483568 0.388388
O O11 0.365256 0.250000 0.816842
O O12 0.436207 0.005910 0.869424
O O13 0.497704 0.750000 0.920285
O O14 0.500000 0.500000 0.000000
O O15 0.079419 0.250000 0.019216
O O16 0.000000 0.500000 0.000000
#
# Coordination Sequence:
#
# PCOD9466699 Si02
#       6
#     8   8   8   8   8   8
#     4   9  19  36  58  82 114 150 188 238 292 343
#     4  10  22  41  60  82 119 158 192 242 301 350
#     4  11  21  36  60  87 113 151 198 237 286 351
#     4  11  22  38  60  87 119 155 196 244 295 351
#     4  12  23  37  59  89 122 156 195 241 294 353
#     4   9  19  37  60  84 110 149 194 240 288 341
#
# _framework density 17.805035
#
# number of rings (size 3 to 8) (size 9 to 14) (size 15 to 20)
#    0.000    1.667    1.667    5.000    0.000    4.000 
#    3.000    0.000    0.000    0.000    0.000    0.000 
#    0.000    0.000    0.000    0.000    0.000    0.000 
#
# Total GULP energy -268094.543515 kJ/mol
# GULP energy per Si atom -5585.302990 kJ/mol
# Density = 1.776451 g / cm^3
# Si number density = 17.805035 Si / 1000 Ang^3
#
#
#
# Elastic Constant Matrix: (Units=GPa)
#
#
# Indices 1 2 3 4 5 6 
#
# 1 131.1365 15.9244 58.6121 0.0000 0.0000 0.0000
# 2 15.9244 44.0966 16.4883 0.0000 0.0000 0.0000
# 3 58.6121 16.4883 98.1319 0.0000 0.0000 0.0000
# 4 0.0000 0.0000 0.0000 31.4508 0.0000 0.0000
# 5 0.0000 0.0000 0.0000 0.0000 23.4229 0.0000
# 6 0.0000 0.0000 0.0000 0.0000 0.0000 33.5719
#
#
#
# Elastic Compliance Matrix: (Units=1/GPa)
#
#
# Indices 1 2 3 4 5 6 
#
# 1 0.010500 -0.001544 -0.006012 0.000000 0.000000 0.000000
# 2 -0.001544 0.024425 -0.003182 0.000000 0.000000 0.000000
# 3 -0.006012 -0.003182 0.014316 0.000000 0.000000 0.000000
# 4 0.000000 0.000000 0.000000 0.031796 0.000000 0.000000
# 5 0.000000 0.000000 0.000000 0.000000 0.042693 0.000000
# 6 0.000000 0.000000 0.000000 0.000000 0.000000 0.029787
#
#
# Mechanical properties :
#
#
# Convention : Reuss Voigt Hill
#
# Bulk Modulus (GPa) = 36.01623 50.60163 43.30893
# Shear Modulus (GPa) = 27.13742 29.84514 28.49128
#
# Velocity S-wave (km/s) = 3.90826 4.09861 4.00457
# Velocity P-wave (km/s) = 6.37480 7.13300 6.76453
#
# Compressibility (1/GPa) = 0.02776526
#
# Stress axis : x y z
#
# Youngs Moduli (GPa) = 95.23535 40.94215 69.85224
#
# Poissons Ratio (x) = 0.06321 0.41997
# Poissons Ratio (y) = 0.14703 0.22225
# Poissons Ratio (z) = 0.57257 0.13027
#
# Static dielectric constant tensor:
#      x y z
#    x 1.608760 0.000000 0.000000 
#    y 0.000000 1.593020 0.000000 
#    z 0.000000 0.000000 1.589800 
# 
# From -- ./inp_files/23687.got.cif
#   From: 2010.05.17/outbox.cif.g08.bks.cpg/sg62_12_cif.got.tgz:23687.got - 2010.06.03 15:25:27.
