data_PCOD9466495
_publ_section_title
;
Structure prediction by ZEFSAII (Michael W. Deem and Ramdas Pophale) SiO2 
 PCOD9466495
Probable space group: P N M A
;
_chemical_formula_sum "Si O2"
_cell_formula_units_Z 64
_cell_length_a 28.976464
_cell_length_b 8.420415
_cell_length_c 13.284715
_cell_angle_alpha 90.000000
_cell_angle_beta 90.000000
_cell_angle_gamma 90.000000
_cell_volume 3241.388787
_symmetry_space_group_name_H-M "P N M A"
_symmetry_group_IT_number 62
_symmetry_cell_setting 'orthorhombic'
loop_
_space_group_symop_operation_xyz
x,y,z
1/2-x,-y,1/2+z
1/2+x,1/2-y,1/2-z
-x,1/2+y,-z
-x,-y,-z
1/2+x,y,1/2-z
1/2-x,1/2+y,1/2+z
x,1/2-y,z
loop_
_atom_site_type_symbol
_atom_site_label
_atom_site_fract_x
_atom_site_fract_y
_atom_site_fract_z
Si Si1 0.244273 0.933431 0.033782
Si Si2 0.438119 0.441791 0.913391
Si Si3 0.103516 0.936917 0.812475
Si Si4 0.808479 0.933345 0.293037
Si Si5 0.270657 0.930616 0.813454
Si Si6 0.859898 0.562100 0.976017
Si Si7 0.133056 0.559920 0.239798
Si Si8 0.540837 0.942188 0.866041
O O1 0.235034 0.750000 0.064726
O O2 0.273985 0.930578 0.932922
O O3 0.278505 0.004401 0.116082
O O4 0.193957 0.008516 0.019599
O O5 0.437856 0.250000 0.912985
O O6 0.401038 0.494084 0.829717
O O7 0.488632 0.500490 0.880452
O O8 0.432237 0.492240 0.030889
O O9 0.097276 0.750000 0.829784
O O10 0.062573 0.998018 0.739700
O O11 0.148321 0.967477 0.743321
O O12 0.114242 0.013510 0.920836
O O13 0.821678 0.750000 0.311871
O O14 0.770104 0.945932 0.206860
O O15 0.242282 0.250000 0.284022
O O16 0.317201 0.982212 0.759819
O O17 0.861380 0.750000 0.966182
O O18 0.880776 0.486681 0.873886
O O19 0.137201 0.750000 0.245437
O O20 0.541766 0.750000 0.864056
#
# Coordination Sequence:
#
# PCOD9466495 Si02
#       8
#     8   8   8   8   8   8   8   8
#     4  10  22  38  54  75 114 157 196 244 294 339
#     4   9  20  40  65  92 119 150 186 234 294 352
#     4  11  23  39  60  86 120 156 195 242 295 351
#     4  11  22  36  55  82 115 156 201 242 288 341
#     4  11  22  36  55  82 115 156 201 242 288 341
#     4  12  24  38  59  83 114 157 204 244 290 347
#     4  11  23  39  60  86 120 156 195 242 295 351
#     4   9  20  40  65  92 119 150 186 234 294 352
#
# _framework density 19.744624999999999
#
# number of rings (size 3 to 8) (size 9 to 14) (size 15 to 20)
#    0.000    1.500    2.500    2.625    1.750    3.000 
#    0.000    0.625    0.000    0.000    0.000    0.000 
#    0.000    0.000    0.000    0.000    0.000    0.000 
#
# Total GULP energy -356977.375785 kJ/mol
# GULP energy per Si atom -5577.771497 kJ/mol
# Density = 1.969969 g / cm^3
# Si number density = 19.744625 Si / 1000 Ang^3
#
#
#
# Elastic Constant Matrix: (Units=GPa)
#
#
# Indices 1 2 3 4 5 6 
#
# 1 27.1582 -5.5913 4.1694 0.0000 0.0000 0.0000
# 2 -5.5913 38.5477 9.9893 0.0000 0.0000 0.0000
# 3 4.1694 9.9893 82.6928 0.0000 0.0000 0.0000
# 4 0.0000 0.0000 0.0000 52.0200 0.0000 0.0000
# 5 0.0000 0.0000 0.0000 0.0000 30.3890 0.0000
# 6 0.0000 0.0000 0.0000 0.0000 0.0000 20.6463
#
#
#
# Elastic Compliance Matrix: (Units=1/GPa)
#
#
# Indices 1 2 3 4 5 6 
#
# 1 0.038531 0.006289 -0.002702 0.000000 0.000000 0.000000
# 2 0.006289 0.027807 -0.003676 0.000000 0.000000 0.000000
# 3 -0.002702 -0.003676 0.012673 0.000000 0.000000 0.000000
# 4 0.000000 0.000000 0.000000 0.019223 0.000000 0.000000
# 5 0.000000 0.000000 0.000000 0.000000 0.032907 0.000000
# 6 0.000000 0.000000 0.000000 0.000000 0.000000 0.048435
#
#
# Mechanical properties :
#
#
# Convention : Reuss Voigt Hill
#
# Bulk Modulus (GPa) = 12.68517 18.39261 15.53889
# Shear Modulus (GPa) = 24.26803 29.93314 27.10059
#
# Velocity S-wave (km/s) = 3.50965 3.89783 3.70882
# Velocity P-wave (km/s) = 4.78143 5.43993 5.12128
#
# Compressibility (1/GPa) = 0.07883221
#
# Stress axis : x y z
#
# Youngs Moduli (GPa) = 25.95309 35.96244 78.90611
#
# Poissons Ratio (x) = -0.22617 0.21324
# Poissons Ratio (y) = -0.16322 0.29007
# Poissons Ratio (z) = 0.07014 0.13220
#
# Static dielectric constant tensor:
#      x y z
#    x 1.670980 0.000000 0.000000 
#    y 0.000000 1.693020 0.000000 
#    z 0.000000 0.000000 1.793160 
# 
# From -- ./inp_files/15803.got.cif
#   From: 2010.05.17/outbox.cif.g08.bks.cpg/sg62_8_cif.got.tgz:15803.got - 2010.06.03 15:25:27.
