data_PCOD9466765
_publ_section_title
;
Structure prediction by ZEFSAII (Michael W. Deem and Ramdas Pophale) SiO2 
 PCOD9466765
Probable space group: P N M A
;
_chemical_formula_sum "Si O2"
_cell_formula_units_Z 32
_cell_length_a 8.508057
_cell_length_b 13.484865
_cell_length_c 11.708626
_cell_angle_alpha 90.000000
_cell_angle_beta 90.000000
_cell_angle_gamma 90.000000
_cell_volume 1343.330662
_symmetry_space_group_name_H-M "P N M A"
_symmetry_group_IT_number 62
_symmetry_cell_setting 'orthorhombic'
loop_
_space_group_symop_operation_xyz
x,y,z
1/2-x,-y,1/2+z
1/2+x,1/2-y,1/2-z
-x,1/2+y,-z
-x,-y,-z
1/2+x,y,1/2-z
1/2-x,1/2+y,1/2+z
x,1/2-y,z
loop_
_atom_site_type_symbol
_atom_site_label
_atom_site_fract_x
_atom_site_fract_y
_atom_site_fract_z
Si Si1 0.861941 0.631509 0.825283
Si Si2 0.454109 0.869834 0.428981
Si Si3 0.039809 0.975790 0.628318
Si Si4 0.249398 0.868462 0.231076
O O1 0.874277 0.750000 0.808646
O O2 0.686177 0.599359 0.857209
O O3 0.911294 0.573858 0.710972
O O4 0.962648 0.600916 0.938036
O O5 0.452839 0.750000 0.432547
O O6 0.291197 0.897917 0.363047
O O7 0.604508 0.897230 0.351474
O O8 0.100550 0.082121 0.672239
O O9 0.000000 0.000000 0.500000
O O10 0.251604 0.750000 0.229471
#
# Coordination Sequence:
#
# PCOD9466765 Si02
#       4
#     8   8   8   8
#     4  11  27  51  76 107 153 205 261 322 388 464
#     4   9  21  42  71 101 141 193 241 301 379 455
#     4  12  29  46  74 112 145 201 259 320 387 469
#     4  10  22  41  68 104 146 188 242 313 381 451
#
# _framework density 23.821387000000001
#
# number of rings (size 3 to 8) (size 9 to 14) (size 15 to 20)
#    0.000    1.500    0.000    2.250   10.500    4.000 
#    0.000    0.000    0.000    0.000    0.000    0.000 
#    0.000    0.000    0.000    0.000    0.000    0.000 
#
# Total GULP energy -178632.742627 kJ/mol
# GULP energy per Si atom -5582.273207 kJ/mol
# Density = 2.376717 g / cm^3
# Si number density = 23.821387 Si / 1000 Ang^3
#
#
#
# Elastic Constant Matrix: (Units=GPa)
#
#
# Indices 1 2 3 4 5 6 
#
# 1 80.6162 41.6326 84.1822 0.0000 0.0000 0.0000
# 2 41.6326 72.1705 75.0618 0.0000 0.0000 0.0000
# 3 84.1822 75.0618 223.9394 0.0000 0.0000 0.0000
# 4 0.0000 0.0000 0.0000 39.7660 0.0000 0.0000
# 5 0.0000 0.0000 0.0000 0.0000 35.8488 0.0000
# 6 0.0000 0.0000 0.0000 0.0000 0.0000 35.9902
#
#
#
# Elastic Compliance Matrix: (Units=1/GPa)
#
#
# Indices 1 2 3 4 5 6 
#
# 1 0.022152 -0.006322 -0.006208 0.000000 0.000000 0.000000
# 2 -0.006322 0.023076 -0.005358 0.000000 0.000000 0.000000
# 3 -0.006208 -0.005358 0.008595 0.000000 0.000000 0.000000
# 4 0.000000 0.000000 0.000000 0.025147 0.000000 0.000000
# 5 0.000000 0.000000 0.000000 0.000000 0.027895 0.000000
# 6 0.000000 0.000000 0.000000 0.000000 0.000000 0.027785
#
#
# Mechanical properties :
#
#
# Convention : Reuss Voigt Hill
#
# Bulk Modulus (GPa) = 55.41219 86.49770 70.95494
# Shear Modulus (GPa) = 28.33775 34.04429 31.19102
#
# Velocity S-wave (km/s) = 3.45279 3.78451 3.62245
# Velocity P-wave (km/s) = 6.26160 7.44892 6.88092
#
# Compressibility (1/GPa) = 0.01804657
#
# Stress axis : x y z
#
# Youngs Moduli (GPa) = 45.14233 43.33538 116.34185
#
# Poissons Ratio (x) = 0.27395 0.72229
# Poissons Ratio (y) = 0.28538 0.62340
# Poissons Ratio (z) = 0.28026 0.23221
#
# Static dielectric constant tensor:
#      x y z
#    x 2.020410 0.000000 0.000000 
#    y 0.000000 1.923930 0.000000 
#    z 0.000000 0.000000 2.228970 
# 
# From -- ./inp_files/10923.got.cif
#   From: 2010.05.17/outbox.cif.g08.bks.cpg/sg62_6_cif.got.tgz:10923.got - 2010.06.03 15:25:27.
