data_PCOD9466491
_publ_section_title
;
Structure prediction by ZEFSAII (Michael W. Deem and Ramdas Pophale) SiO2 
 PCOD9466491
Probable space group: P N M A
;
_chemical_formula_sum "Si O2"
_cell_formula_units_Z 48
_cell_length_a 5.036413
_cell_length_b 27.570718
_cell_length_c 14.770616
_cell_angle_alpha 90.000000
_cell_angle_beta 90.000000
_cell_angle_gamma 90.000000
_cell_volume 2051.011144
_symmetry_space_group_name_H-M "P N M A"
_symmetry_group_IT_number 62
_symmetry_cell_setting 'orthorhombic'
loop_
_space_group_symop_operation_xyz
x,y,z
1/2-x,-y,1/2+z
1/2+x,1/2-y,1/2-z
-x,1/2+y,-z
-x,-y,-z
1/2+x,y,1/2-z
1/2-x,1/2+y,1/2+z
x,1/2-y,z
loop_
_atom_site_type_symbol
_atom_site_label
_atom_site_fract_x
_atom_site_fract_y
_atom_site_fract_z
Si Si1 0.216058 0.356561 0.104549
Si Si2 0.733808 0.250000 0.917888
Si Si3 0.791928 0.349415 0.809895
Si Si4 0.964126 0.411742 0.552289
Si Si5 0.766408 0.750000 0.948722
Si Si6 0.303096 0.583204 0.867367
Si Si7 0.679830 0.022440 0.694502
O O1 0.431858 0.387622 0.161591
O O2 0.927856 0.377448 0.123841
O O3 0.289324 0.371331 0.000594
O O4 0.243778 0.299120 0.109987
O O5 0.756172 0.296647 0.853868
O O6 0.966191 0.250000 0.992237
O O7 0.467568 0.250000 0.977219
O O8 0.092863 0.355196 0.775895
O O9 0.676441 0.385520 0.884567
O O10 0.784175 0.448645 0.607995
O O11 0.118208 0.435584 0.468233
O O12 0.210494 0.535220 0.817530
O O13 0.384342 0.034664 0.724738
#
# Coordination Sequence:
#
# PCOD9466491 Si02
#       7
#     8   4   8   8   4   8   8
#     4  10  22  37  67  89 125 155 210 260 303 358
#     4  12  22  37  54  76 126 171 212 243 305 343
#     4  12  24  36  52  80 121 168 212 251 296 348
#     4  10  24  39  64  87 125 165 208 254 300 359
#     4  12  20  39  62  96 114 163 210 261 297 359
#     4  10  23  42  64  92 121 168 203 257 314 358
#     4  12  26  42  64  94 127 163 206 256 311 377
#
# _framework density 23.403089000000001
#
# number of rings (size 3 to 8) (size 9 to 14) (size 15 to 20)
#    1.000    0.000    1.667    6.000    4.667    0.667 
#    0.000    0.000    0.000    0.000    0.000   11.667 
#    0.000    0.000    0.000    0.000    0.000    0.000 
#
# Total GULP energy -268763.314236 kJ/mol
# GULP energy per Si atom -5599.235713 kJ/mol
# Density = 2.334982 g / cm^3
# Si number density = 23.403089 Si / 1000 Ang^3
#
#
#
# Elastic Constant Matrix: (Units=GPa)
#
#
# Indices 1 2 3 4 5 6 
#
# 1 63.5200 24.7350 -0.2244 0.0000 0.0000 0.0000
# 2 24.7350 118.2756 14.7850 0.0000 0.0000 0.0000
# 3 -0.2244 14.7850 52.9227 0.0000 0.0000 0.0000
# 4 0.0000 0.0000 0.0000 15.8957 0.0000 0.0000
# 5 0.0000 0.0000 0.0000 0.0000 4.6717 0.0000
# 6 0.0000 0.0000 0.0000 0.0000 0.0000 30.3126
#
#
#
# Elastic Compliance Matrix: (Units=1/GPa)
#
#
# Indices 1 2 3 4 5 6 
#
# 1 0.017202 -0.003737 0.001117 0.000000 0.000000 0.000000
# 2 -0.003737 0.009573 -0.002690 0.000000 0.000000 0.000000
# 3 0.001117 -0.002690 0.019652 0.000000 0.000000 0.000000
# 4 0.000000 0.000000 0.000000 0.062910 0.000000 0.000000
# 5 0.000000 0.000000 0.000000 0.000000 0.214055 0.000000
# 6 0.000000 0.000000 0.000000 0.000000 0.000000 0.032990
#
#
# Mechanical properties :
#
#
# Convention : Reuss Voigt Hill
#
# Bulk Modulus (GPa) = 27.92822 34.81216 31.37019
# Shear Modulus (GPa) = 13.19480 23.20418 18.19949
#
# Velocity S-wave (km/s) = 2.37704 3.15223 2.79167
# Velocity P-wave (km/s) = 4.41511 5.30623 4.88105
#
# Compressibility (1/GPa) = 0.03580608
#
# Stress axis : x y z
#
# Youngs Moduli (GPa) = 58.13182 104.46410 50.88602
#
# Poissons Ratio (x) = 0.39040 -0.05684
# Poissons Ratio (y) = 0.21725 0.13689
# Poissons Ratio (z) = -0.06493 0.28103
#
# Static dielectric constant tensor:
#      x y z
#    x 1.858780 0.000000 0.000000 
#    y 0.000000 1.853610 0.000000 
#    z 0.000000 0.000000 1.895390 
# 
# From -- ./inp_files/21611.got.cif
#   From: 2010.05.17/outbox.cif.g08.bks.cpg/sg62_11_cif.got.tgz:21611.got - 2010.06.03 15:25:27.
