data_PCOD9466236
_publ_section_title
;
Structure prediction by ZEFSAII (Michael W. Deem and Ramdas Pophale) SiO2 
 PCOD9466236
Probable space group: P N M A
;
_chemical_formula_sum "Si O2"
_cell_formula_units_Z 64
_cell_length_a 18.224879
_cell_length_b 8.723104
_cell_length_c 21.027740
_cell_angle_alpha 90.000000
_cell_angle_beta 90.000000
_cell_angle_gamma 90.000000
_cell_volume 3342.937849
_symmetry_space_group_name_H-M "P N M A"
_symmetry_group_IT_number 62
_symmetry_cell_setting 'orthorhombic'
loop_
_space_group_symop_operation_xyz
x,y,z
1/2-x,-y,1/2+z
1/2+x,1/2-y,1/2-z
-x,1/2+y,-z
-x,-y,-z
1/2+x,y,1/2-z
1/2-x,1/2+y,1/2+z
x,1/2-y,z
loop_
_atom_site_type_symbol
_atom_site_label
_atom_site_fract_x
_atom_site_fract_y
_atom_site_fract_z
Si Si1 0.167272 0.934414 0.126695
Si Si2 0.918422 0.565606 0.492834
Si Si3 0.919687 0.065401 0.245938
Si Si4 0.581667 0.433104 0.494235
Si Si5 0.165494 0.434272 0.377211
Si Si6 0.836323 0.064524 0.116500
Si Si7 0.082686 0.566821 0.255556
Si Si8 0.168848 0.934453 0.627267
O O1 0.168286 0.750000 0.122064
O O2 0.128814 0.979171 0.193074
O O3 0.249766 0.997239 0.124410
O O4 0.120864 0.001814 0.068477
O O5 0.920882 0.750000 0.487735
O O6 0.872247 0.524989 0.555965
O O7 0.878859 0.496519 0.431295
O O8 0.000000 0.500000 0.500000
O O9 0.925686 0.250000 0.246469
O O10 0.879934 0.021158 0.180376
O O11 0.870708 0.021113 0.306719
O O12 0.000513 0.996764 0.250882
O O13 0.500000 0.500000 0.500000
O O14 0.578641 0.250000 0.491287
O O15 0.627446 0.487365 0.555478
O O16 0.161828 0.250000 0.370775
O O17 0.250951 0.478247 0.377335
O O18 0.122337 0.506458 0.318568
O O19 0.840265 0.250000 0.109392
O O20 0.079941 0.750000 0.257343
O O21 0.172581 0.750000 0.624391
#
# Coordination Sequence:
#
# PCOD9466236 Si02
#       8
#     8   8   8   8   8   8   8   8
#     4  11  24  42  62  89 123 159 199 247 301 358
#     4  11  23  39  60  88 122 162 203 249 301 357
#     4  10  22  39  61  88 120 157 198 243 298 360
#     4  12  25  41  63  91 122 159 201 248 297 353
#     4  10  22  40  62  86 117 156 198 243 297 356
#     4  10  21  40  64  89 118 156 199 246 298 355
#     4  11  24  39  60  89 120 155 199 247 296 351
#     4  11  23  40  63  92 121 156 202 249 299 360
#
# _framework density 19.144838
#
# number of rings (size 3 to 8) (size 9 to 14) (size 15 to 20)
#    0.000    1.250    0.000    5.625    0.000   12.000 
#    0.000    0.000    0.000    0.000    0.000    0.000 
#    0.000    0.000    0.000    0.000    0.000    0.000 
#
# Total GULP energy -358122.100560 kJ/mol
# GULP energy per Si atom -5595.657821 kJ/mol
# Density = 1.910126 g / cm^3
# Si number density = 19.144838 Si / 1000 Ang^3
#
#
#
# Elastic Constant Matrix: (Units=GPa)
#
#
# Indices 1 2 3 4 5 6 
#
# 1 89.1268 23.0744 -2.4995 0.0000 0.0000 0.0000
# 2 23.0744 47.3872 30.8743 0.0000 0.0000 0.0000
# 3 -2.4995 30.8743 89.7097 0.0000 0.0000 0.0000
# 4 0.0000 0.0000 0.0000 11.5365 0.0000 0.0000
# 5 0.0000 0.0000 0.0000 0.0000 45.1642 0.0000
# 6 0.0000 0.0000 0.0000 0.0000 0.0000 35.4930
#
#
#
# Elastic Compliance Matrix: (Units=1/GPa)
#
#
# Indices 1 2 3 4 5 6 
#
# 1 0.013610 -0.008861 0.003429 0.000000 0.000000 0.000000
# 2 -0.008861 0.032972 -0.011594 0.000000 0.000000 0.000000
# 3 0.003429 -0.011594 0.015233 0.000000 0.000000 0.000000
# 4 0.000000 0.000000 0.000000 0.086682 0.000000 0.000000
# 5 0.000000 0.000000 0.000000 0.000000 0.022141 0.000000
# 6 0.000000 0.000000 0.000000 0.000000 0.000000 0.028175
#
#
# Mechanical properties :
#
#
# Convention : Reuss Voigt Hill
#
# Bulk Modulus (GPa) = 36.02135 36.56910 36.29522
# Shear Modulus (GPa) = 20.65092 30.09037 25.37064
#
# Velocity S-wave (km/s) = 3.28787 3.96880 3.64427
# Velocity P-wave (km/s) = 5.76797 6.33597 6.05863
#
# Compressibility (1/GPa) = 0.02776132
#
# Stress axis : x y z
#
# Youngs Moduli (GPa) = 73.47392 30.32899 65.64739
#
# Poissons Ratio (x) = 0.26876 -0.22510
# Poissons Ratio (y) = 0.65108 0.76114
# Poissons Ratio (z) = -0.25194 0.35165
#
# Static dielectric constant tensor:
#      x y z
#    x 1.625050 0.000000 0.000000 
#    y 0.000000 1.646770 0.000000 
#    z 0.000000 0.000000 1.635350 
# 
# From -- ./inp_files/27625.got.cif
#   From: 2010.05.17/outbox.cif.g08.bks.cpg/sg62_14_cif.got.tgz:27625.got - 2010.06.03 15:25:27.
