data_PCOD9466120
_publ_section_title
;
Structure prediction by ZEFSAII (Michael W. Deem and Ramdas Pophale) SiO2 
 PCOD9466120
Probable space group: P N M A
;
_chemical_formula_sum "Si O2"
_cell_formula_units_Z 56
_cell_length_a 19.366510
_cell_length_b 15.432569
_cell_length_c 9.710620
_cell_angle_alpha 90.000000
_cell_angle_beta 90.000000
_cell_angle_gamma 90.000000
_cell_volume 2902.261571
_symmetry_space_group_name_H-M "P N M A"
_symmetry_group_IT_number 62
_symmetry_cell_setting 'orthorhombic'
loop_
_space_group_symop_operation_xyz
x,y,z
1/2-x,-y,1/2+z
1/2+x,1/2-y,1/2-z
-x,1/2+y,-z
-x,-y,-z
1/2+x,y,1/2-z
1/2-x,1/2+y,1/2+z
x,1/2-y,z
loop_
_atom_site_type_symbol
_atom_site_label
_atom_site_fract_x
_atom_site_fract_y
_atom_site_fract_z
Si Si1 0.303137 0.909940 0.086033
Si Si2 0.870259 0.408003 0.341735
Si Si3 0.723740 0.350585 0.222306
Si Si4 0.426796 0.009619 0.424335
Si Si5 0.337134 0.471553 0.686615
Si Si6 0.576448 0.155978 0.750090
Si Si7 0.927760 0.150640 0.622503
O O1 0.237470 0.926446 0.182844
O O2 0.358306 0.845520 0.150061
O O3 0.343091 0.002255 0.088738
O O4 0.277840 0.877178 0.938521
O O5 0.800607 0.362465 0.285791
O O6 0.918696 0.430254 0.210758
O O7 0.910799 0.358790 0.461418
O O8 0.702628 0.250000 0.239749
O O9 0.675522 0.426074 0.287526
O O10 0.410235 0.915241 0.364592
O O11 0.500000 0.000000 0.500000
O O12 0.372287 0.038374 0.538213
O O13 0.383962 0.420861 0.795314
O O14 0.566220 0.250000 0.686905
O O15 0.507575 0.135170 0.837374
O O16 0.910835 0.250000 0.664700
#
# Coordination Sequence:
#
# PCOD9466120 Si02
#       7
#     8   8   8   8   8   8   8
#     4  10  21  39  64  89 130 169 213 267 329 383
#     4  10  22  40  62  93 127 171 211 264 320 393
#     4  11  22  38  64  97 130 165 217 273 324 385
#     4  11  22  41  66  92 129 171 209 262 330 384
#     4  11  23  42  64  98 130 172 216 267 333 391
#     4  10  23  40  64  97 130 168 222 271 323 392
#     4  11  23  42  66  95 132 176 221 268 324 390
#
# _framework density 19.295297999999999
#
# number of rings (size 3 to 8) (size 9 to 14) (size 15 to 20)
#    0.000    1.429    4.286    0.857    0.000    5.143 
#    0.000    1.429    0.000    0.000    0.000    0.000 
#    0.000    0.000    0.000    0.000    0.000    0.000 
#
# Total GULP energy -312372.735094 kJ/mol
# GULP energy per Si atom -5578.084555 kJ/mol
# Density = 1.925138 g / cm^3
# Si number density = 19.295298 Si / 1000 Ang^3
#
#
#
# Elastic Constant Matrix: (Units=GPa)
#
#
# Indices 1 2 3 4 5 6 
#
# 1 85.9853 26.1344 25.6413 0.0000 0.0000 0.0000
# 2 26.1344 81.0148 30.6755 0.0000 0.0000 0.0000
# 3 25.6413 30.6755 103.1568 0.0000 0.0000 0.0000
# 4 0.0000 0.0000 0.0000 6.5907 0.0000 0.0000
# 5 0.0000 0.0000 0.0000 0.0000 8.9896 0.0000
# 6 0.0000 0.0000 0.0000 0.0000 0.0000 21.0772
#
#
#
# Elastic Compliance Matrix: (Units=1/GPa)
#
#
# Indices 1 2 3 4 5 6 
#
# 1 0.013361 -0.003440 -0.002298 0.000000 0.000000 0.000000
# 2 -0.003440 0.014795 -0.003545 0.000000 0.000000 0.000000
# 3 -0.002298 -0.003545 0.011319 0.000000 0.000000 0.000000
# 4 0.000000 0.000000 0.000000 0.151728 0.000000 0.000000
# 5 0.000000 0.000000 0.000000 0.000000 0.111240 0.000000
# 6 0.000000 0.000000 0.000000 0.000000 0.000000 0.047445
#
#
# Mechanical properties :
#
#
# Convention : Reuss Voigt Hill
#
# Bulk Modulus (GPa) = 47.82385 48.33993 48.08189
# Shear Modulus (GPa) = 13.31830 19.84520 16.58175
#
# Velocity S-wave (km/s) = 2.63008 3.21050 2.93468
# Velocity P-wave (km/s) = 5.83628 6.23299 6.03789
#
# Compressibility (1/GPa) = 0.02091007
#
# Stress axis : x y z
#
# Youngs Moduli (GPa) = 74.84626 67.58949 88.34494
#
# Poissons Ratio (x) = 0.23250 0.20303
# Poissons Ratio (y) = 0.25746 0.31315
# Poissons Ratio (z) = 0.17201 0.23958
#
# Static dielectric constant tensor:
#      x y z
#    x 1.669780 0.000000 0.000000 
#    y 0.000000 2.324870 0.000000 
#    z 0.000000 0.000000 1.671650 
# 
# From -- ./inp_files/8725.got.cif
#   From: 2010.05.17/outbox.cif.g08.bks.cpg/sg62_5_cif.got.tgz:8725.got - 2010.06.03 15:25:27.
