data_PCOD9466003
_publ_section_title
;
Structure prediction by ZEFSAII (Michael W. Deem and Ramdas Pophale) SiO2 
 PCOD9466003
Probable space group: P N M A
;
_chemical_formula_sum "Si O2"
_cell_formula_units_Z 56
_cell_length_a 33.482410
_cell_length_b 16.480145
_cell_length_c 5.142714
_cell_angle_alpha 90.000000
_cell_angle_beta 90.000000
_cell_angle_gamma 90.000000
_cell_volume 2837.723726
_symmetry_space_group_name_H-M "P N M A"
_symmetry_group_IT_number 62
_symmetry_cell_setting 'orthorhombic'
loop_
_space_group_symop_operation_xyz
x,y,z
1/2-x,-y,1/2+z
1/2+x,1/2-y,1/2-z
-x,1/2+y,-z
-x,-y,-z
1/2+x,y,1/2-z
1/2-x,1/2+y,1/2+z
x,1/2-y,z
loop_
_atom_site_type_symbol
_atom_site_label
_atom_site_fract_x
_atom_site_fract_y
_atom_site_fract_z
Si Si1 0.502786 0.902727 0.036728
Si Si2 0.648004 0.750000 0.912463
Si Si3 0.755211 0.895203 0.592727
Si Si4 0.703834 0.439119 0.594757
Si Si5 0.404969 0.409661 0.022376
Si Si6 0.954839 0.845163 0.961421
Si Si7 0.300495 0.250000 0.585652
Si Si8 0.612589 0.019382 0.477257
O O1 0.549449 0.882552 0.019557
O O2 0.477873 0.860859 0.807794
O O3 0.483682 0.875804 0.308029
O O4 0.500000 0.000000 0.000000
O O5 0.622919 0.831151 0.962667
O O6 0.662569 0.750000 0.614922
O O7 0.684432 0.750000 0.118708
O O8 0.774117 0.884776 0.877084
O O9 0.726209 0.826554 0.488593
O O10 0.728302 0.976366 0.594172
O O11 0.790506 0.905017 0.383243
O O12 0.658325 0.455435 0.521894
O O13 0.401162 0.461923 0.285376
O O14 0.392172 0.467743 0.785611
O O15 0.945846 0.750000 0.992870
O O16 0.915868 0.902167 0.966349
#
# Coordination Sequence:
#
# PCOD9466003 Si02
#       8
#     8   4   8   8   8   8   4   8
#     4  12  23  46  67  93 128 177 227 268 322 401
#     4  12  26  40  62 104 129 170 207 274 326 386
#     4  10  21  39  61  91 118 163 205 246 314 377
#     4  10  21  38  65  89 118 161 211 251 300 383
#     4  12  25  40  67  96 131 171 218 262 335 383
#     4  12  26  43  67  98 131 176 224 277 330 378
#     4  12  24  44  64  92 137 164 203 268 330 384
#     4  12  23  44  66  94 131 173 215 273 325 384
#
# _framework density 19.734126
#
# number of rings (size 3 to 8) (size 9 to 14) (size 15 to 20)
#    0.000    0.571    2.857    6.000    2.000    2.286 
#    2.571    0.000    0.000    0.000    0.000    0.000 
#    0.000    0.000    0.000    0.000    0.000    0.000 
#
# Total GULP energy -313365.580825 kJ/mol
# GULP energy per Si atom -5595.813943 kJ/mol
# Density = 1.968921 g / cm^3
# Si number density = 19.734126 Si / 1000 Ang^3
#
#
#
# Elastic Constant Matrix: (Units=GPa)
#
#
# Indices 1 2 3 4 5 6 
#
# 1 87.2595 -4.2916 -21.0685 0.0000 0.0000 0.0000
# 2 -4.2916 93.7334 -7.8775 0.0000 0.0000 0.0000
# 3 -21.0685 -7.8775 42.1777 0.0000 0.0000 0.0000
# 4 0.0000 0.0000 0.0000 13.6870 0.0000 0.0000
# 5 0.0000 0.0000 0.0000 0.0000 34.4850 0.0000
# 6 0.0000 0.0000 0.0000 0.0000 0.0000 78.4862
#
#
#
# Elastic Compliance Matrix: (Units=1/GPa)
#
#
# Indices 1 2 3 4 5 6 
#
# 1 0.013158 0.001173 0.006792 0.000000 0.000000 0.000000
# 2 0.001173 0.010943 0.002630 0.000000 0.000000 0.000000
# 3 0.006792 0.002630 0.027593 0.000000 0.000000 0.000000
# 4 0.000000 0.000000 0.000000 0.073062 0.000000 0.000000
# 5 0.000000 0.000000 0.000000 0.000000 0.028998 0.000000
# 6 0.000000 0.000000 0.000000 0.000000 0.000000 0.012741
#
#
# Mechanical properties :
#
#
# Convention : Reuss Voigt Hill
#
# Bulk Modulus (GPa) = 13.72061 17.41060 15.56561
# Shear Modulus (GPa) = 29.48110 42.42551 35.95331
#
# Velocity S-wave (km/s) = 3.86931 4.64168 4.27298
# Velocity P-wave (km/s) = 5.18941 6.12933 5.67885
#
# Compressibility (1/GPa) = 0.07288306
#
# Stress axis : x y z
#
# Youngs Moduli (GPa) = 76.00191 91.38018 36.24118
#
# Poissons Ratio (x) = -0.10721 -0.24613
# Poissons Ratio (y) = -0.08916 -0.09531
# Poissons Ratio (z) = -0.51617 -0.24032
#
# Static dielectric constant tensor:
#      x y z
#    x 1.659140 0.000000 0.000000 
#    y 0.000000 1.698080 0.000000 
#    z 0.000000 0.000000 1.679260 
# 
# From -- ./inp_files/3626.got.cif
#   From: 2010.05.17/outbox.cif.g08.bks.cpg/sg62_2_cif.got.tgz:3626.got - 2010.06.03 15:25:27.
