data_PCOD9466839
_publ_section_title
;
Structure prediction by ZEFSAII (Michael W. Deem and Ramdas Pophale) SiO2 
 PCOD9466839
Probable space group: P N M A
;
_chemical_formula_sum "Si O2"
_cell_formula_units_Z 32
_cell_length_a 13.831756
_cell_length_b 19.186598
_cell_length_c 4.828982
_cell_angle_alpha 90.000000
_cell_angle_beta 90.000000
_cell_angle_gamma 90.000000
_cell_volume 1281.536211
_symmetry_space_group_name_H-M "P N M A"
_symmetry_group_IT_number 62
_symmetry_cell_setting 'orthorhombic'
loop_
_space_group_symop_operation_xyz
x,y,z
1/2-x,-y,1/2+z
1/2+x,1/2-y,1/2-z
-x,1/2+y,-z
-x,-y,-z
1/2+x,y,1/2-z
1/2-x,1/2+y,1/2+z
x,1/2-y,z
loop_
_atom_site_type_symbol
_atom_site_label
_atom_site_fract_x
_atom_site_fract_y
_atom_site_fract_z
Si Si1 0.559861 0.381734 0.814491
Si Si2 0.946856 0.169765 0.207576
Si Si3 0.216413 0.460628 0.950578
Si Si4 0.259320 0.171606 0.650190
O O1 0.518949 0.340395 0.551662
O O2 0.609303 0.450582 0.680659
O O3 0.650007 0.340436 0.953952
O O4 0.479169 0.382427 0.049823
O O5 0.951590 0.250000 0.308893
O O6 0.842434 0.158000 0.070609
O O7 0.275595 0.515111 0.762609
O O8 0.262637 0.385661 0.889976
O O9 0.270996 0.250000 0.752106
#
# Coordination Sequence:
#
# PCOD9466839 Si02
#       4
#     8   8   8   8
#     4  10  23  39  64  88 126 160 204 250 312 354
#     4  11  21  38  61  97 123 156 207 257 307 370
#     4  10  22  43  62  87 126 165 203 252 306 368
#     4   9  22  40  67  92 125 163 207 257 308 362
#
# _framework density 24.970034999999999
#
# number of rings (size 3 to 8) (size 9 to 14) (size 15 to 20)
#    1.500    0.500    0.000    3.750    0.000    4.000 
#    0.000   13.750    0.000    0.000    0.000    0.000 
#    0.000    0.000    0.000    0.000    0.000    0.000 
#
# Total GULP energy -178840.828977 kJ/mol
# GULP energy per Si atom -5588.775906 kJ/mol
# Density = 2.491320 g / cm^3
# Si number density = 24.970035 Si / 1000 Ang^3
#
#
#
# Elastic Constant Matrix: (Units=GPa)
#
#
# Indices 1 2 3 4 5 6 
#
# 1 105.6543 6.5125 19.1644 0.0000 0.0000 0.0000
# 2 6.5125 73.4739 6.7155 0.0000 0.0000 0.0000
# 3 19.1644 6.7155 69.6564 0.0000 0.0000 0.0000
# 4 0.0000 0.0000 0.0000 6.3568 0.0000 0.0000
# 5 0.0000 0.0000 0.0000 0.0000 35.5552 0.0000
# 6 0.0000 0.0000 0.0000 0.0000 0.0000 15.1101
#
#
#
# Elastic Compliance Matrix: (Units=1/GPa)
#
#
# Indices 1 2 3 4 5 6 
#
# 1 0.009992 -0.000640 -0.002687 0.000000 0.000000 0.000000
# 2 -0.000640 0.013772 -0.001152 0.000000 0.000000 0.000000
# 3 -0.002687 -0.001152 0.015207 0.000000 0.000000 0.000000
# 4 0.000000 0.000000 0.000000 0.157312 0.000000 0.000000
# 5 0.000000 0.000000 0.000000 0.000000 0.028125 0.000000
# 6 0.000000 0.000000 0.000000 0.000000 0.000000 0.066181
#
#
# Mechanical properties :
#
#
# Convention : Reuss Voigt Hill
#
# Bulk Modulus (GPa) = 33.31939 34.84106 34.08022
# Shear Modulus (GPa) = 16.15240 25.83056 20.99148
#
# Velocity S-wave (km/s) = 2.54613 3.21980 2.90257
# Velocity P-wave (km/s) = 4.69216 5.27316 4.99112
#
# Compressibility (1/GPa) = 0.03001255
#
# Stress axis : x y z
#
# Youngs Moduli (GPa) = 100.08285 72.60968 65.76112
#
# Poissons Ratio (x) = 0.04647 0.17672
# Poissons Ratio (y) = 0.06406 0.07574
# Poissons Ratio (z) = 0.26895 0.08362
#
# Static dielectric constant tensor:
#      x y z
#    x 2.050870 0.000000 0.000000 
#    y 0.000000 1.971380 0.000000 
#    z 0.000000 0.000000 1.913290 
# 
# From -- ./inp_files/954.got.cif
#   From: 2010.05.17/outbox.cif.g08.bks.cpg/sg62_1_cif.got.tgz:954.got - 2010.06.03 15:25:27.
