data_PCOD9466535
_publ_section_title
;
Structure prediction by ZEFSAII (Michael W. Deem and Ramdas Pophale) SiO2 
 PCOD9466535
Probable space group: P N M A
;
_chemical_formula_sum "Si O2"
_cell_formula_units_Z 40
_cell_length_a 26.731889
_cell_length_b 9.061081
_cell_length_c 9.224608
_cell_angle_alpha 90.000000
_cell_angle_beta 90.000000
_cell_angle_gamma 90.000000
_cell_volume 2234.382811
_symmetry_space_group_name_H-M "P N M A"
_symmetry_group_IT_number 62
_symmetry_cell_setting 'orthorhombic'
loop_
_space_group_symop_operation_xyz
x,y,z
1/2-x,-y,1/2+z
1/2+x,1/2-y,1/2-z
-x,1/2+y,-z
-x,-y,-z
1/2+x,y,1/2-z
1/2-x,1/2+y,1/2+z
x,1/2-y,z
loop_
_atom_site_type_symbol
_atom_site_label
_atom_site_fract_x
_atom_site_fract_y
_atom_site_fract_z
Si Si1 0.103173 0.573399 0.668301
Si Si2 0.391738 0.426188 0.825127
Si Si3 0.199298 0.073429 0.158878
Si Si4 0.002879 0.426394 0.658741
Si Si5 0.702908 0.927478 0.654682
O O1 0.095447 0.750000 0.676529
O O2 0.110752 0.538197 0.497373
O O3 0.053338 0.492748 0.725050
O O4 0.152606 0.534131 0.757257
O O5 0.383605 0.250000 0.811012
O O6 0.349836 0.512202 0.738094
O O7 0.448534 0.458668 0.773099
O O8 0.197399 0.250000 0.149747
O O9 0.248236 0.032144 0.252444
O O10 0.203477 0.005038 0.999858
O O11 0.006910 0.250000 0.644789
O O12 0.000000 0.500000 0.500000
O O13 0.703086 0.750000 0.635374
#
# Coordination Sequence:
#
# PCOD9466535 Si02
#       5
#     8   8   8   8   8
#     4   9  18  34  56  80 107 141 178 216 262 313
#     4   9  18  34  55  79 110 143 173 214 266 311
#     4  11  23  37  56  81 105 136 180 220 258 315
#     4   9  17  30  51  79 109 141 177 216 259 308
#     4  10  22  39  56  77 108 141 172 216 272 317
#
# _framework density 17.902035000000001
#
# number of rings (size 3 to 8) (size 9 to 14) (size 15 to 20)
#    0.000    2.400    0.000    3.600    0.000    8.000 
#    0.000    1.000    0.000    0.000    0.000    0.000 
#    0.000    0.000    0.000    0.000    0.000    0.000 
#
# Total GULP energy -223141.292636 kJ/mol
# GULP energy per Si atom -5578.532316 kJ/mol
# Density = 1.786129 g / cm^3
# Si number density = 17.902035 Si / 1000 Ang^3
#
#
#
# Elastic Constant Matrix: (Units=GPa)
#
#
# Indices 1 2 3 4 5 6 
#
# 1 225.0834 83.2624 98.7934 0.0000 0.0000 0.0000
# 2 83.2624 44.4194 51.1948 0.0000 0.0000 0.0000
# 3 98.7934 51.1948 105.7265 0.0000 0.0000 0.0000
# 4 0.0000 0.0000 0.0000 28.6399 0.0000 0.0000
# 5 0.0000 0.0000 0.0000 0.0000 26.9881 0.0000
# 6 0.0000 0.0000 0.0000 0.0000 0.0000 29.6419
#
#
#
# Elastic Compliance Matrix: (Units=1/GPa)
#
#
# Indices 1 2 3 4 5 6 
#
# 1 0.014526 -0.026215 -0.000880 0.000000 0.000000 0.000000
# 2 -0.026215 0.098251 -0.023079 0.000000 0.000000 0.000000
# 3 -0.000880 -0.023079 0.021456 0.000000 0.000000 0.000000
# 4 0.000000 0.000000 0.000000 0.034916 0.000000 0.000000
# 5 0.000000 0.000000 0.000000 0.000000 0.037053 0.000000
# 6 0.000000 0.000000 0.000000 0.000000 0.000000 0.033736
#
#
# Mechanical properties :
#
#
# Convention : Reuss Voigt Hill
#
# Bulk Modulus (GPa) = 29.51146 93.52563 61.51854
# Shear Modulus (GPa) = 14.22143 26.51923 20.37033
#
# Velocity S-wave (km/s) = 2.82157 3.85301 3.37690
# Velocity P-wave (km/s) = 5.20920 8.49416 7.04580
#
# Compressibility (1/GPa) = 0.03388515
#
# Stress axis : x y z
#
# Youngs Moduli (GPa) = 68.83993 10.17804 46.60678
#
# Poissons Ratio (x) = 0.26682 0.04102
# Poissons Ratio (y) = 1.80463 1.07564
# Poissons Ratio (z) = 0.06059 0.23490
#
# Static dielectric constant tensor:
#      x y z
#    x 1.633410 0.000000 0.000000 
#    y 0.000000 1.595380 0.000000 
#    z 0.000000 0.000000 1.588440 
# 
# From -- ./inp_files/9066.got.cif
#   From: 2010.05.17/outbox.cif.g08.bks.cpg/sg62_5_cif.got.tgz:9066.got - 2010.06.03 15:25:27.
