data_PCOD9466343
_publ_section_title
;
Structure prediction by ZEFSAII (Michael W. Deem and Ramdas Pophale) SiO2 
 PCOD9466343
Probable space group: P N M A
;
_chemical_formula_sum "Si O2"
_cell_formula_units_Z 64
_cell_length_a 17.847618
_cell_length_b 19.200526
_cell_length_c 9.763277
_cell_angle_alpha 90.000000
_cell_angle_beta 90.000000
_cell_angle_gamma 90.000000
_cell_volume 3345.715432
_symmetry_space_group_name_H-M "P N M A"
_symmetry_group_IT_number 62
_symmetry_cell_setting 'orthorhombic'
loop_
_space_group_symop_operation_xyz
x,y,z
1/2-x,-y,1/2+z
1/2+x,1/2-y,1/2-z
-x,1/2+y,-z
-x,-y,-z
1/2+x,y,1/2-z
1/2-x,1/2+y,1/2+z
x,1/2-y,z
loop_
_atom_site_type_symbol
_atom_site_label
_atom_site_fract_x
_atom_site_fract_y
_atom_site_fract_z
Si Si1 0.847306 0.826582 0.482110
Si Si2 0.454196 0.921417 0.646914
Si Si3 0.315324 0.829381 0.694572
Si Si4 0.516185 0.668657 0.126931
Si Si5 0.795836 0.447765 0.277419
Si Si6 0.544292 0.560289 0.914973
Si Si7 0.059761 0.912120 0.105201
Si Si8 0.721532 0.562907 0.454106
O O1 0.821785 0.750000 0.434948
O O2 0.841730 0.826588 0.646767
O O3 0.930799 0.836819 0.426803
O O4 0.792628 0.887464 0.438417
O O5 0.379335 0.876663 0.625124
O O6 0.488880 0.912078 0.797329
O O7 0.514770 0.899843 0.533955
O O8 0.442784 0.004644 0.633302
O O9 0.311145 0.750000 0.643586
O O10 0.236381 0.870214 0.694147
O O11 0.536523 0.750000 0.130315
O O12 0.524319 0.631849 0.272938
O O13 0.562854 0.621756 0.020909
O O14 0.878786 0.460880 0.338167
O O15 0.738802 0.498428 0.355997
O O16 0.790460 0.458663 0.113384
O O17 0.500000 0.500000 0.000000
O O18 0.147044 0.896378 0.088408
#
# Coordination Sequence:
#
# PCOD9466343 Si02
#       8
#     8   8   8   8   8   8   8   8
#     4   9  20  39  63  88 120 165 217 259 314 390
#     4  11  22  40  64  95 127 171 219 271 329 388
#     4  10  21  41  65  91 125 166 213 270 327 383
#     4  11  24  41  63  94 131 174 218 270 331 398
#     4  11  25  40  65  99 128 168 217 269 330 391
#     4  12  23  40  69  96 127 175 226 274 321 395
#     4  11  24  40  61  96 136 164 217 279 324 392
#     4  11  23  40  65  95 126 168 210 270 329 389
#
# _framework density 19.128944000000001
#
# number of rings (size 3 to 8) (size 9 to 14) (size 15 to 20)
#    0.000    1.250    5.000    0.750    3.500    1.500 
#    0.000    0.000    0.000    0.000    0.000    0.000 
#    0.000    0.000    0.000    0.000    0.000    0.000 
#
# Total GULP energy -357200.984157 kJ/mol
# GULP energy per Si atom -5581.265377 kJ/mol
# Density = 1.908541 g / cm^3
# Si number density = 19.128944 Si / 1000 Ang^3
#
#
#
# Elastic Constant Matrix: (Units=GPa)
#
#
# Indices 1 2 3 4 5 6 
#
# 1 63.7301 9.7560 11.8925 0.0000 0.0000 0.0000
# 2 9.7560 77.4362 27.4841 0.0000 0.0000 0.0000
# 3 11.8925 27.4841 84.0200 0.0000 0.0000 0.0000
# 4 0.0000 0.0000 0.0000 17.6693 0.0000 0.0000
# 5 0.0000 0.0000 0.0000 0.0000 28.2090 0.0000
# 6 0.0000 0.0000 0.0000 0.0000 0.0000 20.9095
#
#
#
# Elastic Compliance Matrix: (Units=1/GPa)
#
#
# Indices 1 2 3 4 5 6 
#
# 1 0.016249 -0.001392 -0.001844 0.000000 0.000000 0.000000
# 2 -0.001392 0.014729 -0.004621 0.000000 0.000000 0.000000
# 3 -0.001844 -0.004621 0.013675 0.000000 0.000000 0.000000
# 4 0.000000 0.000000 0.000000 0.056595 0.000000 0.000000
# 5 0.000000 0.000000 0.000000 0.000000 0.035450 0.000000
# 6 0.000000 0.000000 0.000000 0.000000 0.000000 0.047825
#
#
# Mechanical properties :
#
#
# Convention : Reuss Voigt Hill
#
# Bulk Modulus (GPa) = 34.55828 35.93906 35.24867
# Shear Modulus (GPa) = 23.82264 25.09446 24.45855
#
# Velocity S-wave (km/s) = 3.53281 3.62589 3.57965
# Velocity P-wave (km/s) = 5.89459 6.02976 5.96256
#
# Compressibility (1/GPa) = 0.02893663
#
# Stress axis : x y z
#
# Youngs Moduli (GPa) = 61.54408 67.89126 73.12815
#
# Poissons Ratio (x) = 0.09454 0.13488
# Poissons Ratio (y) = 0.08570 0.33793
# Poissons Ratio (z) = 0.11351 0.31373
#
# Static dielectric constant tensor:
#      x y z
#    x 1.676500 0.000000 0.000000 
#    y 0.000000 1.683820 0.000000 
#    z 0.000000 0.000000 1.655700 
# 
# From -- ./inp_files/8109.got.cif
#   From: 2010.05.17/outbox.cif.g08.bks.cpg/sg62_5_cif.got.tgz:8109.got - 2010.06.03 15:25:27.
