data_PCOD9466957
_publ_section_title
;
Structure prediction by ZEFSAII (Michael W. Deem and Ramdas Pophale) SiO2 
 PCOD9466957
Probable space group: P N M A
;
_chemical_formula_sum "Si O2"
_cell_formula_units_Z 44
_cell_length_a 11.439264
_cell_length_b 7.776345
_cell_length_c 27.187058
_cell_angle_alpha 90.000000
_cell_angle_beta 90.000000
_cell_angle_gamma 90.000000
_cell_volume 2418.442781
_symmetry_space_group_name_H-M "P N M A"
_symmetry_group_IT_number 62
_symmetry_cell_setting 'orthorhombic'
loop_
_space_group_symop_operation_xyz
x,y,z
1/2-x,-y,1/2+z
1/2+x,1/2-y,1/2-z
-x,1/2+y,-z
-x,-y,-z
1/2+x,y,1/2-z
1/2-x,1/2+y,1/2+z
x,1/2-y,z
loop_
_atom_site_type_symbol
_atom_site_label
_atom_site_fract_x
_atom_site_fract_y
_atom_site_fract_z
Si Si1 0.792356 0.445244 0.120984
Si Si2 0.369026 0.750000 0.145775
Si Si3 0.745619 0.049090 0.410860
Si Si4 0.633159 0.044995 0.513455
Si Si5 0.142950 0.750000 0.338936
Si Si6 0.958276 0.948881 0.831033
Si Si7 0.664396 0.750000 0.275049
O O1 0.757455 0.250000 0.132562
O O2 0.694955 0.583028 0.134310
O O3 0.910348 0.486311 0.151655
O O4 0.827316 0.458004 0.063765
O O5 0.335268 0.582040 0.113836
O O6 0.503398 0.750000 0.160049
O O7 0.283371 0.750000 0.193090
O O8 0.781604 0.250000 0.409163
O O9 0.713120 0.000652 0.466550
O O10 0.626624 0.035135 0.378547
O O11 0.639976 0.250000 0.520621
O O12 0.500000 0.000000 0.500000
O O13 0.185023 0.750000 0.282609
O O14 0.951973 0.750000 0.814490
O O15 0.909440 0.082932 0.791724
#
# Coordination Sequence:
#
# PCOD9466957 Si02
#       7
#     8   4   8   8   4   8   4
#     4  11  23  39  61  93 134 161 198 262 315 366
#     4  10  24  42  62  88 120 170 210 253 307 376
#     4   9  19  36  60  91 123 157 204 252 301 372
#     4  11  20  32  61  99 129 163 202 251 316 372
#     4  12  27  44  61  88 124 167 220 256 311 370
#     4   9  18  36  61  94 122 151 194 255 318 368
#     4  10  23  40  69  86 118 159 208 265 320 360
#
# _framework density 18.193525000000001
#
# number of rings (size 3 to 8) (size 9 to 14) (size 15 to 20)
#    0.000    1.818    2.727    1.091    5.091    1.455 
#    0.000    0.909    0.000    0.000    0.000    0.000 
#    0.000    0.000    0.000    0.000    0.000    0.000 
#
# Total GULP energy -245760.543208 kJ/mol
# GULP energy per Si atom -5585.466891 kJ/mol
# Density = 1.815212 g / cm^3
# Si number density = 18.193525 Si / 1000 Ang^3
#
#
#
# Elastic Constant Matrix: (Units=GPa)
#
#
# Indices 1 2 3 4 5 6 
#
# 1 88.7971 55.1694 33.0259 0.0000 0.0000 0.0000
# 2 55.1694 81.8394 34.9295 0.0000 0.0000 0.0000
# 3 33.0259 34.9295 90.5911 0.0000 0.0000 0.0000
# 4 0.0000 0.0000 0.0000 11.0042 0.0000 0.0000
# 5 0.0000 0.0000 0.0000 0.0000 16.5733 0.0000
# 6 0.0000 0.0000 0.0000 0.0000 0.0000 16.7799
#
#
#
# Elastic Compliance Matrix: (Units=1/GPa)
#
#
# Indices 1 2 3 4 5 6 
#
# 1 0.019834 -0.012310 -0.002484 0.000000 0.000000 0.000000
# 2 -0.012310 0.022266 -0.004098 0.000000 0.000000 0.000000
# 3 -0.002484 -0.004098 0.013524 0.000000 0.000000 0.000000
# 4 0.000000 0.000000 0.000000 0.090874 0.000000 0.000000
# 5 0.000000 0.000000 0.000000 0.000000 0.060338 0.000000
# 6 0.000000 0.000000 0.000000 0.000000 0.000000 0.059595
#
#
# Mechanical properties :
#
#
# Convention : Reuss Voigt Hill
#
# Bulk Modulus (GPa) = 56.05159 56.38636 56.21897
# Shear Modulus (GPa) = 16.12062 18.07834 17.09948
#
# Velocity S-wave (km/s) = 2.97991 3.15567 3.06905
# Velocity P-wave (km/s) = 6.53569 6.65864 6.59745
#
# Compressibility (1/GPa) = 0.01784071
#
# Stress axis : x y z
#
# Youngs Moduli (GPa) = 50.41906 44.91085 73.94183
#
# Poissons Ratio (x) = 0.55285 0.18368
# Poissons Ratio (y) = 0.62066 0.30298
# Poissons Ratio (z) = 0.12525 0.18402
#
# Static dielectric constant tensor:
#      x y z
#    x 1.587370 0.000000 0.000000 
#    y 0.000000 1.628910 0.000000 
#    z 0.000000 0.000000 1.610070 
# 
# From -- ./inp_files/29202.got.cif
#   From: 2010.05.17/outbox.cif.g08.bks.cpg/sg62_15_cif.got.tgz:29202.got - 2010.06.03 15:25:27.
