data_PCOD9466154
_publ_section_title
;
Structure prediction by ZEFSAII (Michael W. Deem and Ramdas Pophale) SiO2 
 PCOD9466154
Probable space group: P N M A
;
_chemical_formula_sum "Si O2"
_cell_formula_units_Z 56
_cell_length_a 9.896846
_cell_length_b 18.030368
_cell_length_c 15.762463
_cell_angle_alpha 90.000000
_cell_angle_beta 90.000000
_cell_angle_gamma 90.000000
_cell_volume 2812.713408
_symmetry_space_group_name_H-M "P N M A"
_symmetry_group_IT_number 62
_symmetry_cell_setting 'orthorhombic'
loop_
_space_group_symop_operation_xyz
x,y,z
1/2-x,-y,1/2+z
1/2+x,1/2-y,1/2-z
-x,1/2+y,-z
-x,-y,-z
1/2+x,y,1/2-z
1/2-x,1/2+y,1/2+z
x,1/2-y,z
loop_
_atom_site_type_symbol
_atom_site_label
_atom_site_fract_x
_atom_site_fract_y
_atom_site_fract_z
Si Si1 0.168754 0.503293 0.398723
Si Si2 0.520848 0.609559 0.996446
Si Si3 0.588606 0.666851 0.825491
Si Si4 0.134775 0.338833 0.665546
Si Si5 0.887434 0.840176 0.819433
Si Si6 0.091398 0.919068 0.225243
Si Si7 0.529632 0.534663 0.590591
O O1 0.052889 0.451170 0.437135
O O2 0.141182 0.533624 0.305750
O O3 0.309560 0.461832 0.401016
O O4 0.154838 0.574582 0.461187
O O5 0.556801 0.668506 0.924913
O O6 0.425215 0.634582 0.074061
O O7 0.608765 0.750000 0.793181
O O8 0.467628 0.639226 0.766654
O O9 0.734180 0.630112 0.813734
O O10 0.145059 0.250000 0.665845
O O11 0.279965 0.375750 0.686089
O O12 0.025893 0.366063 0.736161
O O13 0.887597 0.750000 0.831864
O O14 0.962927 0.885587 0.892645
O O15 0.028331 0.976133 0.158505
O O16 0.500000 0.500000 0.500000
#
# Coordination Sequence:
#
# PCOD9466154 Si02
#       7
#     8   8   8   8   8   8   8
#     4  10  22  40  61  94 125 163 214 260 316 376
#     4  10  21  39  66  93 126 164 213 267 319 383
#     4  10  21  40  61  89 124 166 208 256 323 387
#     4  11  23  42  66  96 132 173 217 269 324 384
#     4  10  24  41  64  94 131 169 213 266 328 391
#     4  11  23  42  65  93 130 172 219 262 320 387
#     4  12  24  40  66  93 128 166 217 268 320 375
#
# _framework density 19.909600000000001
#
# number of rings (size 3 to 8) (size 9 to 14) (size 15 to 20)
#    0.000    1.429    1.429    3.429    4.000    2.286 
#    0.000    3.571    0.000    0.000    0.000    0.000 
#    0.000    0.000    0.000    0.000    0.000    0.000 
#
# Total GULP energy -312479.641829 kJ/mol
# GULP energy per Si atom -5579.993604 kJ/mol
# Density = 1.986428 g / cm^3
# Si number density = 19.909600 Si / 1000 Ang^3
#
#
#
# Elastic Constant Matrix: (Units=GPa)
#
#
# Indices 1 2 3 4 5 6 
#
# 1 68.6255 -5.3675 18.7472 0.0000 0.0000 0.0000
# 2 -5.3675 64.3075 19.2681 0.0000 0.0000 0.0000
# 3 18.7472 19.2681 115.3695 0.0000 0.0000 0.0000
# 4 0.0000 0.0000 0.0000 20.4231 0.0000 0.0000
# 5 0.0000 0.0000 0.0000 0.0000 25.6383 0.0000
# 6 0.0000 0.0000 0.0000 0.0000 0.0000 24.1048
#
#
#
# Elastic Compliance Matrix: (Units=1/GPa)
#
#
# Indices 1 2 3 4 5 6 
#
# 1 0.015529 0.002160 -0.002884 0.000000 0.000000 0.000000
# 2 0.002160 0.016670 -0.003135 0.000000 0.000000 0.000000
# 3 -0.002884 -0.003135 0.009660 0.000000 0.000000 0.000000
# 4 0.000000 0.000000 0.000000 0.048964 0.000000 0.000000
# 5 0.000000 0.000000 0.000000 0.000000 0.039004 0.000000
# 6 0.000000 0.000000 0.000000 0.000000 0.000000 0.041485
#
#
# Mechanical properties :
#
#
# Convention : Reuss Voigt Hill
#
# Bulk Modulus (GPa) = 29.29054 34.84425 32.06740
# Shear Modulus (GPa) = 26.25903 28.41024 27.33464
#
# Velocity S-wave (km/s) = 3.63562 3.78161 3.70934
# Velocity P-wave (km/s) = 5.68923 6.05035 5.87257
#
# Compressibility (1/GPa) = 0.03414072
#
# Stress axis : x y z
#
# Youngs Moduli (GPa) = 64.39686 59.98819 103.51883
#
# Poissons Ratio (x) = -0.12959 0.29857
# Poissons Ratio (y) = -0.13912 0.32454
# Poissons Ratio (z) = 0.18573 0.18807
#
# Static dielectric constant tensor:
#      x y z
#    x 1.630080 0.000000 0.000000 
#    y 0.000000 2.128280 0.000000 
#    z 0.000000 0.000000 1.692230 
# 
# From -- ./inp_files/17219.got.cif
#   From: 2010.05.17/outbox.cif.g08.bks.cpg/sg62_9_cif.got.tgz:17219.got - 2010.06.03 15:25:27.
