data_PCOD9466727
_publ_section_title
;
Structure prediction by ZEFSAII (Michael W. Deem and Ramdas Pophale) SiO2 
 PCOD9466727
Probable space group: P N M A
;
_chemical_formula_sum "Si O2"
_cell_formula_units_Z 56
_cell_length_a 31.576178
_cell_length_b 15.204247
_cell_length_c 5.606356
_cell_angle_alpha 90.000000
_cell_angle_beta 90.000000
_cell_angle_gamma 90.000000
_cell_volume 2691.566719
_symmetry_space_group_name_H-M "P N M A"
_symmetry_group_IT_number 62
_symmetry_cell_setting 'orthorhombic'
loop_
_space_group_symop_operation_xyz
x,y,z
1/2-x,-y,1/2+z
1/2+x,1/2-y,1/2-z
-x,1/2+y,-z
-x,-y,-z
1/2+x,y,1/2-z
1/2-x,1/2+y,1/2+z
x,1/2-y,z
loop_
_atom_site_type_symbol
_atom_site_label
_atom_site_fract_x
_atom_site_fract_y
_atom_site_fract_z
Si Si1 0.041383 0.650324 0.524915
Si Si2 0.340027 0.593631 0.393867
Si Si3 0.796911 0.014167 0.730710
Si Si4 0.387943 0.004768 0.016471
Si Si5 0.733957 0.351596 0.921018
Si Si6 0.911352 0.654841 0.801808
Si Si7 0.004396 0.395145 0.975445
O O1 0.055691 0.750000 0.503379
O O2 0.081305 0.586151 0.528706
O O3 0.017860 0.640067 0.780542
O O4 0.014327 0.629912 0.284125
O O5 0.310031 0.520952 0.510846
O O6 0.311057 0.648052 0.215453
O O7 0.364322 0.651283 0.586900
O O8 0.376527 0.538426 0.266449
O O9 0.773208 0.929032 0.616917
O O10 0.841865 0.026196 0.596830
O O11 0.769725 0.102977 0.752984
O O12 0.411667 0.928544 0.869784
O O13 0.743597 0.250000 0.991450
O O14 0.918080 0.750000 0.685297
O O15 0.947872 0.640100 0.996471
O O16 0.000000 0.500000 0.000000
#
# Coordination Sequence:
#
# PCOD9466727 Si02
#       7
#     8   8   8   8   8   8   8
#     4  12  26  46  70 103 142 187 237 287 342 412
#     4  10  22  41  64  92 131 168 212 276 339 398
#     4  10  22  42  62  95 130 162 223 274 327 411
#     4  10  24  41  65  93 131 177 219 275 341 393
#     4  11  22  40  68  94 125 170 213 271 343 408
#     4  11  23  39  63  98 132 168 222 276 334 405
#     4  12  25  46  71 100 137 187 233 287 348 407
#
# _framework density 20.805726
#
# number of rings (size 3 to 8) (size 9 to 14) (size 15 to 20)
#    0.000    1.143    2.857    3.000    4.000    6.857 
#    0.000    0.714    0.000    0.000    0.000    0.000 
#    0.000    0.000    0.000    0.000    0.000    0.000 
#
# Total GULP energy -312484.812286 kJ/mol
# GULP energy per Si atom -5580.085934 kJ/mol
# Density = 2.075837 g / cm^3
# Si number density = 20.805726 Si / 1000 Ang^3
#
#
#
# Elastic Constant Matrix: (Units=GPa)
#
#
# Indices 1 2 3 4 5 6 
#
# 1 94.9905 50.1937 20.9318 0.0000 0.0000 0.0000
# 2 50.1937 148.6166 19.1934 0.0000 0.0000 0.0000
# 3 20.9318 19.1934 72.2346 0.0000 0.0000 0.0000
# 4 0.0000 0.0000 0.0000 11.8656 0.0000 0.0000
# 5 0.0000 0.0000 0.0000 0.0000 29.5477 0.0000
# 6 0.0000 0.0000 0.0000 0.0000 0.0000 13.6689
#
#
#
# Elastic Compliance Matrix: (Units=1/GPa)
#
#
# Indices 1 2 3 4 5 6 
#
# 1 0.013325 -0.004144 -0.002760 0.000000 0.000000 0.000000
# 2 -0.004144 0.008257 -0.000993 0.000000 0.000000 0.000000
# 3 -0.002760 -0.000993 0.014907 0.000000 0.000000 0.000000
# 4 0.000000 0.000000 0.000000 0.084277 0.000000 0.000000
# 5 0.000000 0.000000 0.000000 0.000000 0.033844 0.000000
# 6 0.000000 0.000000 0.000000 0.000000 0.000000 0.073159
#
#
# Mechanical properties :
#
#
# Convention : Reuss Voigt Hill
#
# Bulk Modulus (GPa) = 48.32125 55.16440 51.74283
# Shear Modulus (GPa) = 19.96314 26.05130 23.00722
#
# Velocity S-wave (km/s) = 3.10094 3.54237 3.32898
# Velocity P-wave (km/s) = 6.00804 6.58049 6.30077
#
# Compressibility (1/GPa) = 0.02069483
#
# Stress axis : x y z
#
# Youngs Moduli (GPa) = 75.04498 121.11566 67.08037
#
# Poissons Ratio (x) = 0.50191 0.18516
# Poissons Ratio (y) = 0.31099 0.06661
# Poissons Ratio (z) = 0.20714 0.12027
#
# Static dielectric constant tensor:
#      x y z
#    x 1.775990 0.000000 0.000000 
#    y 0.000000 1.761570 0.000000 
#    z 0.000000 0.000000 1.835840 
# 
# From -- ./inp_files/3583.got.cif
#   From: 2010.05.17/outbox.cif.g08.bks.cpg/sg62_2_cif.got.tgz:3583.got - 2010.06.03 15:25:27.
