data_PCOD9466666
_publ_section_title
;
Structure prediction by ZEFSAII (Michael W. Deem and Ramdas Pophale) SiO2 
 PCOD9466666
Probable space group: P N M A
;
_chemical_formula_sum "Si O2"
_cell_formula_units_Z 48
_cell_length_a 18.346544
_cell_length_b 16.152804
_cell_length_c 8.083324
_cell_angle_alpha 90.000000
_cell_angle_beta 90.000000
_cell_angle_gamma 90.000000
_cell_volume 2395.477946
_symmetry_space_group_name_H-M "P N M A"
_symmetry_group_IT_number 62
_symmetry_cell_setting 'orthorhombic'
loop_
_space_group_symop_operation_xyz
x,y,z
1/2-x,-y,1/2+z
1/2+x,1/2-y,1/2-z
-x,1/2+y,-z
-x,-y,-z
1/2+x,y,1/2-z
1/2-x,1/2+y,1/2+z
x,1/2-y,z
loop_
_atom_site_type_symbol
_atom_site_label
_atom_site_fract_x
_atom_site_fract_y
_atom_site_fract_z
Si Si1 0.578889 0.511270 0.581315
Si Si2 0.911959 0.843337 0.592013
Si Si3 0.281829 0.107283 0.962344
Si Si4 0.142601 0.158114 0.771854
Si Si5 0.923752 0.343709 0.354209
Si Si6 0.326679 0.971628 0.706960
O O1 0.500000 0.500000 0.500000
O O2 0.602047 0.421742 0.654386
O O3 0.581105 0.583645 0.717701
O O4 0.637366 0.527267 0.435980
O O5 0.901548 0.750000 0.655167
O O6 0.864682 0.851900 0.425623
O O7 0.887037 0.908274 0.727482
O O8 0.997843 0.854291 0.556665
O O9 0.223946 0.154894 0.847026
O O10 0.300964 0.025885 0.858856
O O11 0.356568 0.148784 0.019515
O O12 0.238614 0.080016 0.126570
O O13 0.111819 0.250000 0.810959
O O14 0.922954 0.250000 0.283107
#
# Coordination Sequence:
#
# PCOD9466666 Si02
#       6
#     8   8   8   8   8   8
#     4  11  23  39  64  95 124 168 213 261 316 372
#     4  10  22  40  65  93 126 169 215 262 316 379
#     4  11  23  40  64  93 127 169 209 263 320 376
#     4  10  23  42  64  92 126 169 213 255 315 386
#     4  11  24  42  63  95 130 166 215 269 319 373
#     4  11  22  40  63  92 128 165 217 261 313 391
#
# _framework density 20.037755000000001
#
# number of rings (size 3 to 8) (size 9 to 14) (size 15 to 20)
#    0.000    1.333    1.667    4.500    2.333    5.333 
#    0.000    3.333    0.000    0.000    0.000    0.000 
#    0.000    0.000    0.000    0.000    0.000    0.000 
#
# Total GULP energy -267999.141666 kJ/mol
# GULP energy per Si atom -5583.315451 kJ/mol
# Density = 1.999215 g / cm^3
# Si number density = 20.037755 Si / 1000 Ang^3
#
#
#
# Elastic Constant Matrix: (Units=GPa)
#
#
# Indices 1 2 3 4 5 6 
#
# 1 61.4064 49.4507 35.6794 0.0000 0.0000 0.0000
# 2 49.4507 111.3256 49.0764 0.0000 0.0000 0.0000
# 3 35.6794 49.0764 70.7459 0.0000 0.0000 0.0000
# 4 0.0000 0.0000 0.0000 13.7207 0.0000 0.0000
# 5 0.0000 0.0000 0.0000 0.0000 34.3671 0.0000
# 6 0.0000 0.0000 0.0000 0.0000 0.0000 -16.7660
#
#
#
# Elastic Compliance Matrix: (Units=1/GPa)
#
#
# Indices 1 2 3 4 5 6 
#
# 1 0.028155 -0.008999 -0.007957 0.000000 0.000000 0.000000
# 2 -0.008999 0.015816 -0.006433 0.000000 0.000000 0.000000
# 3 -0.007957 -0.006433 0.022611 0.000000 0.000000 0.000000
# 4 0.000000 0.000000 0.000000 0.072883 0.000000 0.000000
# 5 0.000000 0.000000 0.000000 0.000000 0.029098 0.000000
# 6 0.000000 0.000000 0.000000 0.000000 0.000000 -0.059644
#
#
# Mechanical properties :
#
#
# Convention : Reuss Voigt Hill
#
# Bulk Modulus (GPa) = 50.49526 56.87675 53.68601
# Shear Modulus (GPa) = 30.80786 13.54911 22.17849
#
# Velocity S-wave (km/s) = 3.92534 2.60317 3.33052
# Velocity P-wave (km/s) = 6.76751 6.12223 6.45294
#
# Compressibility (1/GPa) = 0.01980384
#
# Stress axis : x y z
#
# Youngs Moduli (GPa) = 35.51779 63.22794 44.22670
#
# Poissons Ratio (x) = 0.56896 0.35192
# Poissons Ratio (y) = 0.31961 0.28452
# Poissons Ratio (z) = 0.28262 0.40675
#
# Static dielectric constant tensor:
#      x y z
#    x 1.727740 0.000000 0.000000 
#    y 0.000000 1.740340 0.000000 
#    z 0.000000 0.000000 1.696810 
# 
# From -- ./inp_files/7614.got.cif
#   From: 2010.05.17/outbox.cif.g08.bks.cpg/sg62_4_cif.got.tgz:7614.got - 2010.06.03 15:25:27.
