data_PCOD9466407
_publ_section_title
;
Structure prediction by ZEFSAII (Michael W. Deem and Ramdas Pophale) SiO2 
 PCOD9466407
Probable space group: P N M A
;
_chemical_formula_sum "Si O2"
_cell_formula_units_Z 56
_cell_length_a 13.853116
_cell_length_b 15.918225
_cell_length_c 10.470710
_cell_angle_alpha 90.000000
_cell_angle_beta 90.000000
_cell_angle_gamma 90.000000
_cell_volume 2308.969740
_symmetry_space_group_name_H-M "P N M A"
_symmetry_group_IT_number 62
_symmetry_cell_setting 'orthorhombic'
loop_
_space_group_symop_operation_xyz
x,y,z
1/2-x,-y,1/2+z
1/2+x,1/2-y,1/2-z
-x,1/2+y,-z
-x,-y,-z
1/2+x,y,1/2-z
1/2-x,1/2+y,1/2+z
x,1/2-y,z
loop_
_atom_site_type_symbol
_atom_site_label
_atom_site_fract_x
_atom_site_fract_y
_atom_site_fract_z
Si Si1 0.107832 0.159286 0.755906
Si Si2 0.989378 0.153107 0.267140
Si Si3 0.176191 0.344973 0.506626
Si Si4 0.573933 0.655619 0.062630
Si Si5 0.780596 0.655605 0.770525
Si Si6 0.092062 0.509791 0.911418
Si Si7 0.792006 0.025059 0.476934
O O1 0.103400 0.250000 0.822977
O O2 0.198151 0.160921 0.657440
O O3 0.108747 0.078224 0.840411
O O4 0.012144 0.151714 0.665557
O O5 0.963426 0.250000 0.236546
O O6 0.968019 0.141151 0.418304
O O7 0.103175 0.142984 0.235616
O O8 0.933352 0.084576 0.185083
O O9 0.127538 0.250000 0.489081
O O10 0.241894 0.344077 0.380637
O O11 0.140218 0.442646 0.514540
O O12 0.612880 0.750000 0.067059
O O13 0.659047 0.588573 0.077076
O O14 0.760925 0.750000 0.821028
O O15 0.730174 0.583581 0.853511
O O16 0.188601 0.515409 0.993863
O O17 0.000000 0.500000 0.000000
#
# Coordination Sequence:
#
# PCOD9466407 Si02
#       7
#     8   8   8   8   8   8   8
#     4  10  23  46  71  96 131 179 228 280 341 409
#     4  10  21  42  71  94 122 167 221 277 329 398
#     4  10  23  43  69 100 134 176 227 284 345 399
#     4  10  22  43  73 104 127 165 230 289 337 392
#     4  10  21  42  69  95 130 173 223 278 337 401
#     4  12  27  44  63  93 140 183 222 263 336 417
#     4  12  26  39  67 101 141 176 220 283 341 399
#
# _framework density 24.253240000000002
#
# number of rings (size 3 to 8) (size 9 to 14) (size 15 to 20)
#    0.000    1.429    2.857    1.286    6.000    3.429 
#    0.000    0.000    0.000    0.000    0.000    0.000 
#    0.000    0.000    0.000    0.000    0.000    0.000 
#
# Total GULP energy -312055.190427 kJ/mol
# GULP energy per Si atom -5572.414115 kJ/mol
# Density = 2.419804 g / cm^3
# Si number density = 24.253240 Si / 1000 Ang^3
#
#
#
# Elastic Constant Matrix: (Units=GPa)
#
#
# Indices 1 2 3 4 5 6 
#
# 1 99.4850 30.7228 5.3312 0.0000 0.0000 0.0000
# 2 30.7228 187.1433 36.7451 0.0000 0.0000 0.0000
# 3 5.3312 36.7451 56.7309 0.0000 0.0000 0.0000
# 4 0.0000 0.0000 0.0000 34.2808 0.0000 0.0000
# 5 0.0000 0.0000 0.0000 0.0000 19.8631 0.0000
# 6 0.0000 0.0000 0.0000 0.0000 0.0000 4.6774
#
#
#
# Elastic Compliance Matrix: (Units=1/GPa)
#
#
# Indices 1 2 3 4 5 6 
#
# 1 0.010590 -0.001768 0.000150 0.000000 0.000000 0.000000
# 2 -0.001768 0.006417 -0.003990 0.000000 0.000000 0.000000
# 3 0.000150 -0.003990 0.020198 0.000000 0.000000 0.000000
# 4 0.000000 0.000000 0.000000 0.029171 0.000000 0.000000
# 5 0.000000 0.000000 0.000000 0.000000 0.050345 0.000000
# 6 0.000000 0.000000 0.000000 0.000000 0.000000 0.213796
#
#
# Mechanical properties :
#
#
# Convention : Reuss Voigt Hill
#
# Bulk Modulus (GPa) = 38.47953 54.32859 46.40406
# Shear Modulus (GPa) = 14.26959 29.80159 22.03559
#
# Velocity S-wave (km/s) = 2.42824 3.50918 3.01751
# Velocity P-wave (km/s) = 4.87463 6.23445 5.59599
#
# Compressibility (1/GPa) = 0.02598784
#
# Stress axis : x y z
#
# Youngs Moduli (GPa) = 94.43143 155.83042 49.51085
#
# Poissons Ratio (x) = 0.27550 -0.00742
# Poissons Ratio (y) = 0.16695 0.19757
# Poissons Ratio (z) = -0.01416 0.62182
#
# Static dielectric constant tensor:
#      x y z
#    x 2.119510 0.000000 0.000000 
#    y 0.000000 1.747150 0.000000 
#    z 0.000000 0.000000 1.960150 
# 
# From -- ./inp_files/13382.got.cif
#   From: 2010.05.17/outbox.cif.g08.bks.cpg/sg62_7_cif.got.tgz:13382.got - 2010.06.03 15:25:27.
