data_PCOD9466449
_publ_section_title
;
Structure prediction by ZEFSAII (Michael W. Deem and Ramdas Pophale) SiO2 
 PCOD9466449
Probable space group: P N M A
;
_chemical_formula_sum "Si O2"
_cell_formula_units_Z 64
_cell_length_a 13.928325
_cell_length_b 22.394970
_cell_length_c 9.336012
_cell_angle_alpha 90.000000
_cell_angle_beta 90.000000
_cell_angle_gamma 90.000000
_cell_volume 2912.130133
_symmetry_space_group_name_H-M "P N M A"
_symmetry_group_IT_number 62
_symmetry_cell_setting 'orthorhombic'
loop_
_space_group_symop_operation_xyz
x,y,z
1/2-x,-y,1/2+z
1/2+x,1/2-y,1/2-z
-x,1/2+y,-z
-x,-y,-z
1/2+x,y,1/2-z
1/2-x,1/2+y,1/2+z
x,1/2-y,z
loop_
_atom_site_type_symbol
_atom_site_label
_atom_site_fract_x
_atom_site_fract_y
_atom_site_fract_z
Si Si1 0.593855 0.025570 0.686328
Si Si2 0.383734 0.319032 0.948758
Si Si3 0.883046 0.026779 0.759421
Si Si4 0.046252 0.817006 0.126819
Si Si5 0.875231 0.438966 0.431944
Si Si6 0.685659 0.400014 0.262424
Si Si7 0.160898 0.147654 0.952686
Si Si8 0.821752 0.412811 0.013173
O O1 0.483421 0.044942 0.669062
O O2 0.651512 0.081903 0.622275
O O3 0.589371 0.997614 0.847385
O O4 0.629750 0.967606 0.599471
O O5 0.403492 0.250000 0.990373
O O6 0.428088 0.330937 0.792292
O O7 0.267848 0.326797 0.930972
O O8 0.420321 0.371514 0.057042
O O9 0.867763 0.044743 0.597330
O O10 0.885190 0.955456 0.758411
O O11 0.801548 0.056226 0.859686
O O12 0.080301 0.750000 0.100521
O O13 0.931797 0.819777 0.109840
O O14 0.105038 0.859656 0.019969
O O15 0.775286 0.424768 0.355330
O O16 0.645511 0.352414 0.373843
O O17 0.731338 0.389879 0.106289
#
# Coordination Sequence:
#
# PCOD9466449 Si02
#       8
#     8   8   8   8   8   8   8   8
#     4  11  22  36  60  92 129 165 205 266 346 404
#     4  10  22  40  63  91 129 175 228 276 324 401
#     4  12  19  35  58  89 128 161 205 261 332 399
#     4  11  23  41  66  92 124 177 234 281 330 403
#     4  10  22  35  55  91 122 162 208 261 325 392
#     4  10  23  34  57  89 126 163 208 256 335 397
#     4  11  21  41  63  96 129 175 223 281 342 408
#     4  11  21  37  58  89 126 169 211 271 322 401
#
# _framework density 21.977039999999999
#
# number of rings (size 3 to 8) (size 9 to 14) (size 15 to 20)
#    0.000    1.250    3.750    2.625    5.250    1.000 
#    0.000    6.250    0.000    0.000    0.000    0.000 
#    0.000    0.000    0.000    0.000    0.000    0.000 
#
# Total GULP energy -356665.654956 kJ/mol
# GULP energy per Si atom -5572.900859 kJ/mol
# Density = 2.192702 g / cm^3
# Si number density = 21.977040 Si / 1000 Ang^3
#
#
#
# Elastic Constant Matrix: (Units=GPa)
#
#
# Indices 1 2 3 4 5 6 
#
# 1 28.5846 2.2341 1.7505 0.0000 0.0000 0.0000
# 2 2.2341 91.2897 26.4215 0.0000 0.0000 0.0000
# 3 1.7505 26.4215 113.6008 0.0000 0.0000 0.0000
# 4 0.0000 0.0000 0.0000 15.0837 0.0000 0.0000
# 5 0.0000 0.0000 0.0000 0.0000 22.9351 0.0000
# 6 0.0000 0.0000 0.0000 0.0000 0.0000 23.9300
#
#
#
# Elastic Compliance Matrix: (Units=1/GPa)
#
#
# Indices 1 2 3 4 5 6 
#
# 1 0.035065 -0.000752 -0.000365 0.000000 0.000000 0.000000
# 2 -0.000752 0.011761 -0.002724 0.000000 0.000000 0.000000
# 3 -0.000365 -0.002724 0.009442 0.000000 0.000000 0.000000
# 4 0.000000 0.000000 0.000000 0.066297 0.000000 0.000000
# 5 0.000000 0.000000 0.000000 0.000000 0.043601 0.000000
# 6 0.000000 0.000000 0.000000 0.000000 0.000000 0.041789
#
#
# Mechanical properties :
#
#
# Convention : Reuss Voigt Hill
#
# Bulk Modulus (GPa) = 20.58257 32.69859 26.64058
# Shear Modulus (GPa) = 21.56731 25.92769 23.74750
#
# Velocity S-wave (km/s) = 3.13606 3.43849 3.29075
# Velocity P-wave (km/s) = 4.74331 5.53851 5.15626
#
# Compressibility (1/GPa) = 0.04858479
#
# Stress axis : x y z
#
# Youngs Moduli (GPa) = 28.51847 85.02762 105.91106
#
# Poissons Ratio (x) = 0.06397 0.03869
# Poissons Ratio (y) = 0.02146 0.28848
# Poissons Ratio (z) = 0.01042 0.23160
#
# Static dielectric constant tensor:
#      x y z
#    x 1.845050 0.000000 0.000000 
#    y 0.000000 1.888180 0.000000 
#    z 0.000000 0.000000 1.879250 
# 
# From -- ./inp_files/6968.got.cif
#   From: 2010.05.17/outbox.cif.g08.bks.cpg/sg62_4_cif.got.tgz:6968.got - 2010.06.03 15:25:27.
