data_PCOD9466388
_publ_section_title
;
Structure prediction by ZEFSAII (Michael W. Deem and Ramdas Pophale) SiO2 
 PCOD9466388
Probable space group: P N M A
;
_chemical_formula_sum "Si O2"
_cell_formula_units_Z 40
_cell_length_a 12.871739
_cell_length_b 22.767020
_cell_length_c 5.678776
_cell_angle_alpha 90.000000
_cell_angle_beta 90.000000
_cell_angle_gamma 90.000000
_cell_volume 1664.171776
_symmetry_space_group_name_H-M "P N M A"
_symmetry_group_IT_number 62
_symmetry_cell_setting 'orthorhombic'
loop_
_space_group_symop_operation_xyz
x,y,z
1/2-x,-y,1/2+z
1/2+x,1/2-y,1/2-z
-x,1/2+y,-z
-x,-y,-z
1/2+x,y,1/2-z
1/2-x,1/2+y,1/2+z
x,1/2-y,z
loop_
_atom_site_type_symbol
_atom_site_label
_atom_site_fract_x
_atom_site_fract_y
_atom_site_fract_z
Si Si1 0.452912 0.403161 0.753649
Si Si2 0.192442 0.010295 0.170191
Si Si3 0.441363 0.813720 0.569134
Si Si4 0.359089 0.879107 0.940986
Si Si5 0.720269 0.818691 0.197805
O O1 0.401337 0.464181 0.684855
O O2 0.484865 0.363296 0.532743
O O3 0.371229 0.361192 0.894432
O O4 0.560718 0.412547 0.890525
O O5 0.163245 0.077034 0.227623
O O6 0.259289 0.994723 0.408435
O O7 0.485252 0.750000 0.518028
O O8 0.421020 0.823454 0.842907
O O9 0.326658 0.816897 0.452480
O O10 0.258398 0.854148 0.069399
O O11 0.691324 0.750000 0.230579
#
# Coordination Sequence:
#
# PCOD9466388 Si02
#       5
#     8   8   8   8   8
#     4  11  24  42  67 101 137 185 236 299 360 429
#     4  12  27  47  75 104 145 190 241 295 358 431
#     4  10  23  41  67 100 138 178 236 294 357 431
#     4  11  24  42  68  98 140 184 238 298 360 426
#     4  10  21  42  65  95 138 183 232 295 360 430
#
# _framework density 24.035979999999999
#
# number of rings (size 3 to 8) (size 9 to 14) (size 15 to 20)
#    0.000    1.200    2.000    3.000    5.600    4.800 
#    0.000    2.000    0.000    0.000    0.000    0.000 
#    0.000    0.000    0.000    0.000    0.000    0.000 
#
# Total GULP energy -223486.151562 kJ/mol
# GULP energy per Si atom -5587.153789 kJ/mol
# Density = 2.398127 g / cm^3
# Si number density = 24.035980 Si / 1000 Ang^3
#
#
#
# Elastic Constant Matrix: (Units=GPa)
#
#
# Indices 1 2 3 4 5 6 
#
# 1 71.5411 15.3931 19.7087 0.0000 0.0000 0.0000
# 2 15.3931 128.7902 11.1394 0.0000 0.0000 0.0000
# 3 19.7087 11.1394 56.3755 0.0000 0.0000 0.0000
# 4 0.0000 0.0000 0.0000 30.0240 0.0000 0.0000
# 5 0.0000 0.0000 0.0000 0.0000 17.9802 0.0000
# 6 0.0000 0.0000 0.0000 0.0000 0.0000 36.9281
#
#
#
# Elastic Compliance Matrix: (Units=1/GPa)
#
#
# Indices 1 2 3 4 5 6 
#
# 1 0.015722 -0.001428 -0.005214 0.000000 0.000000 0.000000
# 2 -0.001428 0.008029 -0.001087 0.000000 0.000000 0.000000
# 3 -0.005214 -0.001087 0.019776 0.000000 0.000000 0.000000
# 4 0.000000 0.000000 0.000000 0.033307 0.000000 0.000000
# 5 0.000000 0.000000 0.000000 0.000000 0.055617 0.000000
# 6 0.000000 0.000000 0.000000 0.000000 0.000000 0.027080
#
#
# Mechanical properties :
#
#
# Convention : Reuss Voigt Hill
#
# Bulk Modulus (GPa) = 35.62780 38.79879 37.21329
# Shear Modulus (GPa) = 27.12308 31.01748 29.07028
#
# Velocity S-wave (km/s) = 3.36287 3.59619 3.48149
# Velocity P-wave (km/s) = 5.47114 5.78105 5.62823
#
# Compressibility (1/GPa) = 0.02806797
#
# Stress axis : x y z
#
# Youngs Moduli (GPa) = 63.60649 124.54391 50.56670
#
# Poissons Ratio (x) = 0.17786 0.26366
# Poissons Ratio (y) = 0.09084 0.05498
# Poissons Ratio (z) = 0.33165 0.13541
#
# Static dielectric constant tensor:
#      x y z
#    x 1.940210 0.000000 0.000000 
#    y 0.000000 1.911230 0.000000 
#    z 0.000000 0.000000 1.952610 
# 
# From -- ./inp_files/593.got.cif
#   From: 2010.05.17/outbox.cif.g08.bks.cpg/sg62_1_cif.got.tgz:593.got - 2010.06.03 15:25:27.
