data_PCOD9466788
_publ_section_title
;
Structure prediction by ZEFSAII (Michael W. Deem and Ramdas Pophale) SiO2 
 PCOD9466788
Probable space group: P N M A
;
_chemical_formula_sum "Si O2"
_cell_formula_units_Z 48
_cell_length_a 9.336283
_cell_length_b 13.732212
_cell_length_c 17.507344
_cell_angle_alpha 90.000000
_cell_angle_beta 90.000000
_cell_angle_gamma 90.000000
_cell_volume 2244.578364
_symmetry_space_group_name_H-M "P N M A"
_symmetry_group_IT_number 62
_symmetry_cell_setting 'orthorhombic'
loop_
_space_group_symop_operation_xyz
x,y,z
1/2-x,-y,1/2+z
1/2+x,1/2-y,1/2-z
-x,1/2+y,-z
-x,-y,-z
1/2+x,y,1/2-z
1/2-x,1/2+y,1/2+z
x,1/2-y,z
loop_
_atom_site_type_symbol
_atom_site_label
_atom_site_fract_x
_atom_site_fract_y
_atom_site_fract_z
Si Si1 0.151987 0.137659 0.086255
Si Si2 0.681882 0.041602 0.192655
Si Si3 0.284786 0.903817 0.412522
Si Si4 0.751398 0.250000 0.824782
Si Si5 0.909679 0.250000 0.660587
Si Si6 0.572383 0.565646 0.334002
Si Si7 0.397883 0.356369 0.202423
O O1 0.096812 0.250000 0.100311
O O2 0.310111 0.136981 0.123869
O O3 0.081846 0.040990 0.124617
O O4 0.160683 0.118378 0.996441
O O5 0.821341 0.070001 0.240399
O O6 0.563845 0.124627 0.192124
O O7 0.728256 0.010747 0.108598
O O8 0.606362 0.958631 0.245467
O O9 0.150542 0.838495 0.389974
O O10 0.417615 0.889972 0.354013
O O11 0.823203 0.250000 0.740499
O O12 0.579527 0.250000 0.825924
O O13 0.813408 0.351600 0.859670
O O14 0.374255 0.250000 0.235382
#
# Coordination Sequence:
#
# PCOD9466788 Si02
#       7
#     8   8   8   4   4   8   8
#     4  10  24  44  68  96 134 181 219 268 337 400
#     4  11  22  38  67  97 125 169 226 273 328 387
#     4  12  23  43  67  97 133 175 217 275 338 392
#     4  12  26  42  68 106 128 171 218 283 337 391
#     4  12  26  40  70  98 134 169 220 275 343 399
#     4  11  24  44  69  98 134 171 225 272 328 402
#     4  10  22  42  63  92 128 176 221 277 325 397
#
# _framework density 21.384861999999998
#
# number of rings (size 3 to 8) (size 9 to 14) (size 15 to 20)
#    0.000    1.000    4.167    2.500    4.667    1.333 
#    0.000    0.000    1.833    0.000    0.000    0.000 
#    0.000    0.000    0.000    0.000    0.000    0.000 
#
# Total GULP energy -267630.536059 kJ/mol
# GULP energy per Si atom -5575.636168 kJ/mol
# Density = 2.133619 g / cm^3
# Si number density = 21.384862 Si / 1000 Ang^3
#
#
#
# Elastic Constant Matrix: (Units=GPa)
#
#
# Indices 1 2 3 4 5 6 
#
# 1 122.3406 25.1652 -4.1141 0.0000 0.0000 0.0000
# 2 25.1652 86.9188 23.0573 0.0000 0.0000 0.0000
# 3 -4.1141 23.0573 53.0977 0.0000 0.0000 0.0000
# 4 0.0000 0.0000 0.0000 14.7014 0.0000 0.0000
# 5 0.0000 0.0000 0.0000 0.0000 13.0624 0.0000
# 6 0.0000 0.0000 0.0000 0.0000 0.0000 28.1415
#
#
#
# Elastic Compliance Matrix: (Units=1/GPa)
#
#
# Indices 1 2 3 4 5 6 
#
# 1 0.008883 -0.003113 0.002040 0.000000 0.000000 0.000000
# 2 -0.003113 0.014094 -0.006361 0.000000 0.000000 0.000000
# 3 0.002040 -0.006361 0.021754 0.000000 0.000000 0.000000
# 4 0.000000 0.000000 0.000000 0.068021 0.000000 0.000000
# 5 0.000000 0.000000 0.000000 0.000000 0.076556 0.000000
# 6 0.000000 0.000000 0.000000 0.000000 0.000000 0.035535
#
#
# Mechanical properties :
#
#
# Convention : Reuss Voigt Hill
#
# Bulk Modulus (GPa) = 33.48768 38.95265 36.22016
# Shear Modulus (GPa) = 20.02692 25.73097 22.87895
#
# Velocity S-wave (km/s) = 3.06355 3.47253 3.27443
# Velocity P-wave (km/s) = 5.31105 5.85940 5.59195
#
# Compressibility (1/GPa) = 0.02986173
#
# Stress axis : x y z
#
# Youngs Moduli (GPa) = 112.57668 70.95336 45.96936
#
# Poissons Ratio (x) = 0.22088 -0.09378
# Poissons Ratio (y) = 0.35045 0.29243
# Poissons Ratio (z) = -0.22966 0.45136
#
# Static dielectric constant tensor:
#      x y z
#    x 1.747650 0.000000 0.000000 
#    y 0.000000 1.880980 0.000000 
#    z 0.000000 0.000000 1.759180 
# 
# From -- ./inp_files/22242.got.cif
#   From: 2010.05.17/outbox.cif.g08.bks.cpg/sg62_12_cif.got.tgz:22242.got - 2010.06.03 15:25:27.
