data_PCOD9466213
_publ_section_title
;
Structure prediction by ZEFSAII (Michael W. Deem and Ramdas Pophale) SiO2 
 PCOD9466213
Probable space group: P N M A
;
_chemical_formula_sum "Si O2"
_cell_formula_units_Z 48
_cell_length_a 17.361734
_cell_length_b 8.644454
_cell_length_c 17.155585
_cell_angle_alpha 90.000000
_cell_angle_beta 90.000000
_cell_angle_gamma 90.000000
_cell_volume 2574.756704
_symmetry_space_group_name_H-M "P N M A"
_symmetry_group_IT_number 62
_symmetry_cell_setting 'orthorhombic'
loop_
_space_group_symop_operation_xyz
x,y,z
1/2-x,-y,1/2+z
1/2+x,1/2-y,1/2-z
-x,1/2+y,-z
-x,-y,-z
1/2+x,y,1/2-z
1/2-x,1/2+y,1/2+z
x,1/2-y,z
loop_
_atom_site_type_symbol
_atom_site_label
_atom_site_fract_x
_atom_site_fract_y
_atom_site_fract_z
Si Si1 0.413755 0.564268 0.003184
Si Si2 0.999724 0.063466 0.912973
Si Si3 0.181605 0.934835 0.648334
Si Si4 0.152708 0.563867 0.180614
Si Si5 0.683421 0.435644 0.150326
Si Si6 0.151467 0.063785 0.818268
O O1 0.415523 0.750000 0.009143
O O2 0.368535 0.496107 0.076892
O O3 0.500000 0.500000 0.000000
O O4 0.367953 0.523122 0.924097
O O5 0.999718 0.250000 0.915834
O O6 0.076301 0.015661 0.866338
O O7 0.922887 0.015664 0.866752
O O8 0.000000 0.000000 0.000000
O O9 0.181501 0.750000 0.650169
O O10 0.269330 0.995751 0.643689
O O11 0.149760 0.999248 0.730421
O O12 0.158019 0.750000 0.180928
O O13 0.150122 0.504716 0.269487
O O14 0.686700 0.250000 0.157222
O O15 0.770084 0.500255 0.143671
O O16 0.155095 0.250000 0.815125
#
# Coordination Sequence:
#
# PCOD9466213 Si02
#       6
#     8   8   8   8   8   8
#     4  11  25  42  62  91 125 158 201 251 301 359
#     4  10  24  40  60  91 122 157 200 247 299 353
#     4  11  23  40  63  91 120 160 204 247 302 358
#     4  10  21  40  63  89 121 160 200 247 302 355
#     4  10  22  40  62  90 119 156 200 246 299 357
#     4  10  21  40  63  90 121 159 201 246 301 358
#
# _framework density 18.642538999999999
#
# number of rings (size 3 to 8) (size 9 to 14) (size 15 to 20)
#    0.000    1.667    0.000    5.500    4.667    5.333 
#    0.000    0.000    0.000    0.000    0.000    0.000 
#    0.000    0.000    0.000    0.000    0.000    0.000 
#
# Total GULP energy -268325.891113 kJ/mol
# GULP energy per Si atom -5590.122732 kJ/mol
# Density = 1.860011 g / cm^3
# Si number density = 18.642539 Si / 1000 Ang^3
#
#
#
# Elastic Constant Matrix: (Units=GPa)
#
#
# Indices 1 2 3 4 5 6 
#
# 1 199.0353 63.2125 153.7164 0.0000 0.0000 0.0000
# 2 63.2125 75.9250 59.8707 0.0000 0.0000 0.0000
# 3 153.7164 59.8707 150.6553 0.0000 0.0000 0.0000
# 4 0.0000 0.0000 0.0000 36.6294 0.0000 0.0000
# 5 0.0000 0.0000 0.0000 0.0000 26.9626 0.0000
# 6 0.0000 0.0000 0.0000 0.0000 0.0000 28.4968
#
#
#
# Elastic Compliance Matrix: (Units=1/GPa)
#
#
# Indices 1 2 3 4 5 6 
#
# 1 0.023748 -0.000968 -0.023846 0.000000 0.000000 0.000000
# 2 -0.000968 0.019221 -0.006651 0.000000 0.000000 0.000000
# 3 -0.023846 -0.006651 0.033611 0.000000 0.000000 0.000000
# 4 0.000000 0.000000 0.000000 0.027300 0.000000 0.000000
# 5 0.000000 0.000000 0.000000 0.000000 0.037088 0.000000
# 6 0.000000 0.000000 0.000000 0.000000 0.000000 0.035092
#
#
# Mechanical properties :
#
#
# Convention : Reuss Voigt Hill
#
# Bulk Modulus (GPa) = 73.25494 108.80166 91.02830
# Shear Modulus (GPa) = 20.53047 28.33882 24.43465
#
# Velocity S-wave (km/s) = 3.32214 3.90310 3.62428
# Velocity P-wave (km/s) = 7.35495 8.87699 8.15157
#
# Compressibility (1/GPa) = 0.01365096
#
# Stress axis : x y z
#
# Youngs Moduli (GPa) = 42.10896 52.02523 29.75224
#
# Poissons Ratio (x) = 0.05037 0.70946
# Poissons Ratio (y) = 0.04077 0.19788
# Poissons Ratio (z) = 1.00412 0.34601
#
# Static dielectric constant tensor:
#      x y z
#    x 1.624990 0.000000 0.000000 
#    y 0.000000 1.630150 0.000000 
#    z 0.000000 0.000000 1.610380 
# 
# From -- ./inp_files/19623.got.cif
#   From: 2010.05.17/outbox.cif.g08.bks.cpg/sg62_10_cif.got.tgz:19623.got - 2010.06.03 15:25:27.
