data_PCOD9466462
_publ_section_title
;
Structure prediction by ZEFSAII (Michael W. Deem and Ramdas Pophale) SiO2 
 PCOD9466462
Probable space group: P N M A
;
_chemical_formula_sum "Si O2"
_cell_formula_units_Z 40
_cell_length_a 10.270689
_cell_length_b 22.007872
_cell_length_c 8.666068
_cell_angle_alpha 90.000000
_cell_angle_beta 90.000000
_cell_angle_gamma 90.000000
_cell_volume 1958.843423
_symmetry_space_group_name_H-M "P N M A"
_symmetry_group_IT_number 62
_symmetry_cell_setting 'orthorhombic'
loop_
_space_group_symop_operation_xyz
x,y,z
1/2-x,-y,1/2+z
1/2+x,1/2-y,1/2-z
-x,1/2+y,-z
-x,-y,-z
1/2+x,y,1/2-z
1/2-x,1/2+y,1/2+z
x,1/2-y,z
loop_
_atom_site_type_symbol
_atom_site_label
_atom_site_fract_x
_atom_site_fract_y
_atom_site_fract_z
Si Si1 0.693036 0.448841 0.920361
Si Si2 0.544723 0.935556 0.577045
Si Si3 0.982986 0.815622 0.105011
Si Si4 0.787974 0.144115 0.675747
Si Si5 0.578545 0.577733 0.928715
O O1 0.749008 0.419410 0.763062
O O2 0.677062 0.520865 0.925397
O O3 0.799862 0.431130 0.047188
O O4 0.545661 0.428032 0.956712
O O5 0.484487 0.876879 0.495388
O O6 0.520109 0.926697 0.757712
O O7 0.500000 0.000000 0.500000
O O8 0.001596 0.750000 0.026133
O O9 0.841991 0.817174 0.182056
O O10 0.097514 0.825407 0.227467
O O11 0.838664 0.131998 0.502628
#
# Coordination Sequence:
#
# PCOD9466462 Si02
#       5
#     8   8   8   8   8
#     4  10  22  36  60  97 131 167 212 268 328 385
#     4  11  25  40  66  96 135 173 217 272 326 394
#     4  11  24  44  67  92 132 174 221 273 333 394
#     4  11  22  43  65  94 126 175 223 267 328 392
#     4  11  22  37  64  96 132 170 214 271 330 391
#
# _framework density 20.420213
#
# number of rings (size 3 to 8) (size 9 to 14) (size 15 to 20)
#    0.000    1.200    2.000    4.200   14.000    0.000 
#    0.000    2.000    0.000    0.000    0.000    0.000 
#    0.000    0.000    0.000    0.000    0.000    0.000 
#
# Total GULP energy -223037.962590 kJ/mol
# GULP energy per Si atom -5575.949065 kJ/mol
# Density = 2.037374 g / cm^3
# Si number density = 20.420213 Si / 1000 Ang^3
#
#
#
# Elastic Constant Matrix: (Units=GPa)
#
#
# Indices 1 2 3 4 5 6 
#
# 1 88.0484 22.4275 13.5653 0.0000 0.0000 0.0000
# 2 22.4275 110.5161 30.1569 0.0000 0.0000 0.0000
# 3 13.5653 30.1569 85.3284 0.0000 0.0000 0.0000
# 4 0.0000 0.0000 0.0000 13.7343 0.0000 0.0000
# 5 0.0000 0.0000 0.0000 0.0000 22.8304 0.0000
# 6 0.0000 0.0000 0.0000 0.0000 0.0000 -10.1028
#
#
#
# Elastic Compliance Matrix: (Units=1/GPa)
#
#
# Indices 1 2 3 4 5 6 
#
# 1 0.012080 -0.002133 -0.001167 0.000000 0.000000 0.000000
# 2 -0.002133 0.010391 -0.003333 0.000000 0.000000 0.000000
# 3 -0.001167 -0.003333 0.013083 0.000000 0.000000 0.000000
# 4 0.000000 0.000000 0.000000 0.072811 0.000000 0.000000
# 5 0.000000 0.000000 0.000000 0.000000 0.043801 0.000000
# 6 0.000000 0.000000 0.000000 0.000000 0.000000 -0.098983
#
#
# Mechanical properties :
#
#
# Convention : Reuss Voigt Hill
#
# Bulk Modulus (GPa) = 44.86675 46.24360 45.55517
# Shear Modulus (GPa) = 67.67829 19.80859 43.74344
#
# Velocity S-wave (km/s) = 5.76322 3.11794 4.63337
# Velocity P-wave (km/s) = 8.14283 5.97137 7.14013
#
# Compressibility (1/GPa) = 0.02228822
#
# Stress axis : x y z
#
# Youngs Moduli (GPa) = 82.77811 96.23801 76.43554
#
# Poissons Ratio (x) = 0.20530 0.08917
# Poissons Ratio (y) = 0.17658 0.25478
# Poissons Ratio (z) = 0.09657 0.32078
#
# Static dielectric constant tensor:
#      x y z
#    x 1.758950 0.000000 0.000000 
#    y 0.000000 1.676050 0.000000 
#    z 0.000000 0.000000 1.773780 
# 
# From -- ./inp_files/5180.got.cif
#   From: 2010.05.17/outbox.cif.g08.bks.cpg/sg62_3_cif.got.tgz:5180.got - 2010.06.03 15:25:27.
