data_PCOD9466916
_publ_section_title
;
Structure prediction by ZEFSAII (Michael W. Deem and Ramdas Pophale) SiO2 
 PCOD9466916
Probable space group: P N M A
;
_chemical_formula_sum "Si O2"
_cell_formula_units_Z 32
_cell_length_a 8.985395
_cell_length_b 26.790060
_cell_length_c 4.846832
_cell_angle_alpha 90.000000
_cell_angle_beta 90.000000
_cell_angle_gamma 90.000000
_cell_volume 1166.725867
_symmetry_space_group_name_H-M "P N M A"
_symmetry_group_IT_number 62
_symmetry_cell_setting 'orthorhombic'
loop_
_space_group_symop_operation_xyz
x,y,z
1/2-x,-y,1/2+z
1/2+x,1/2-y,1/2-z
-x,1/2+y,-z
-x,-y,-z
1/2+x,y,1/2-z
1/2-x,1/2+y,1/2+z
x,1/2-y,z
loop_
_atom_site_type_symbol
_atom_site_label
_atom_site_fract_x
_atom_site_fract_y
_atom_site_fract_z
Si Si1 0.786167 0.163473 0.476592
Si Si2 0.752888 0.034412 0.978265
Si Si3 0.026114 0.097634 0.157842
Si Si4 0.380166 0.750000 0.821834
Si Si5 0.921961 0.250000 0.818528
O O1 0.924470 0.135599 0.336628
O O2 0.651083 0.124961 0.529512
O O3 0.708380 0.201306 0.264400
O O4 0.843675 0.198982 0.720389
O O5 0.902700 0.067083 0.987828
O O6 0.618756 0.063947 0.125657
O O7 0.779870 0.986669 0.177362
O O8 0.525563 0.750000 0.630187
O O9 0.428971 0.750000 0.134654
#
# Coordination Sequence:
#
# PCOD9466916 Si02
#       5
#     8   8   8   4   4
#     4  10  22  45  71 106 142 182 240 285 348 412
#     4  11  24  47  69 101 142 183 230 289 366 423
#     4  10  22  45  72 108 136 188 234 297 344 428
#     4  11  24  46  69  99 146 186 226 283 349 410
#     4  11  24  46  69  99 146 186 226 283 349 410
#
# _framework density 27.427182999999999
#
# number of rings (size 3 to 8) (size 9 to 14) (size 15 to 20)
#    0.000    1.500    2.500    1.500    0.000    4.000 
#   18.000    0.000    0.000    0.000    0.000    0.000 
#    0.000    0.000    0.000    0.000    0.000    0.000 
#
# Total GULP energy -179816.865192 kJ/mol
# GULP energy per Si atom -5619.277037 kJ/mol
# Density = 2.736476 g / cm^3
# Si number density = 27.427183 Si / 1000 Ang^3
#
#
#
# Elastic Constant Matrix: (Units=GPa)
#
#
# Indices 1 2 3 4 5 6 
#
# 1 178.8224 72.4818 19.9265 0.0000 0.0000 0.0000
# 2 72.4818 141.4228 12.9756 0.0000 0.0000 0.0000
# 3 19.9265 12.9756 65.2679 0.0000 0.0000 0.0000
# 4 0.0000 0.0000 0.0000 -1.5794 0.0000 0.0000
# 5 0.0000 0.0000 0.0000 0.0000 50.0696 0.0000
# 6 0.0000 0.0000 0.0000 0.0000 0.0000 82.4849
#
#
#
# Elastic Compliance Matrix: (Units=1/GPa)
#
#
# Indices 1 2 3 4 5 6 
#
# 1 0.007198 -0.003552 -0.001491 0.000000 0.000000 0.000000
# 2 -0.003552 0.008955 -0.000696 0.000000 0.000000 0.000000
# 3 -0.001491 -0.000696 0.015915 0.000000 0.000000 0.000000
# 4 0.000000 0.000000 0.000000 -0.633171 0.000000 0.000000
# 5 0.000000 0.000000 0.000000 0.000000 0.019972 0.000000
# 6 0.000000 0.000000 0.000000 0.000000 0.000000 0.012123
#
#
# Mechanical properties :
#
#
# Convention : Reuss Voigt Hill
#
# Bulk Modulus (GPa) = 48.56824 66.25341 57.41083
# Shear Modulus (GPa) = -9.07994 44.87030 17.89518
#
# Velocity S-wave (km/s) = -1.82147 4.04911 2.55710
# Velocity P-wave (km/s) = 3.65005 6.78741 5.44939
#
# Compressibility (1/GPa) = 0.02058959
#
# Stress axis : x y z
#
# Youngs Moduli (GPa) = 138.92340 111.66323 62.83327
#
# Poissons Ratio (x) = 0.39667 0.09371
# Poissons Ratio (y) = 0.49351 0.04372
# Poissons Ratio (z) = 0.20719 0.07770
#
# Static dielectric constant tensor:
#      x y z
#    x 2.121540 0.000000 0.000000 
#    y 0.000000 2.202740 0.000000 
#    z 0.000000 0.000000 2.033650 
# 
# From -- ./inp_files/230.got.cif
#   From: 2010.05.17/outbox.cif.g08.bks.cpg/sg62_1_cif.got.tgz:230.got - 2010.06.03 15:25:27.
