data_PCOD9466814
_publ_section_title
;
Structure prediction by ZEFSAII (Michael W. Deem and Ramdas Pophale) SiO2 
 PCOD9466814
Probable space group: P N M A
;
_chemical_formula_sum "Si O2"
_cell_formula_units_Z 32
_cell_length_a 4.877703
_cell_length_b 12.855171
_cell_length_c 19.028783
_cell_angle_alpha 90.000000
_cell_angle_beta 90.000000
_cell_angle_gamma 90.000000
_cell_volume 1193.175218
_symmetry_space_group_name_H-M "P N M A"
_symmetry_group_IT_number 62
_symmetry_cell_setting 'orthorhombic'
loop_
_space_group_symop_operation_xyz
x,y,z
1/2-x,-y,1/2+z
1/2+x,1/2-y,1/2-z
-x,1/2+y,-z
-x,-y,-z
1/2+x,y,1/2-z
1/2-x,1/2+y,1/2+z
x,1/2-y,z
loop_
_atom_site_type_symbol
_atom_site_label
_atom_site_fract_x
_atom_site_fract_y
_atom_site_fract_z
Si Si1 0.035955 0.363277 0.929612
Si Si2 0.304715 0.589582 0.208791
Si Si3 0.714399 0.084330 0.069784
Si Si4 0.221531 0.364175 0.158451
O O1 0.167921 0.250000 0.930947
O O2 0.838594 0.373462 0.861986
O O3 0.246179 0.459678 0.929451
O O4 0.841103 0.376347 0.997445
O O5 0.609960 0.622556 0.226720
O O6 0.297894 0.463729 0.204336
O O7 0.411221 0.120049 0.088915
O O8 0.911401 0.125628 0.131827
O O9 0.273420 0.250000 0.188317
#
# Coordination Sequence:
#
# PCOD9466814 Si02
#       4
#     8   8   8   8
#     4  10  22  42  68  94 130 176 215 268 335 385
#     4  11  25  42  59  89 128 167 218 261 298 376
#     4  10  23  41  65 102 131 157 216 278 327 396
#     4  11  22  41  68  95 129 168 209 271 338 387
#
# _framework density 26.819199000000001
#
# number of rings (size 3 to 8) (size 9 to 14) (size 15 to 20)
#    0.000    1.500    0.000    5.250    0.000   13.000 
#    0.000   17.500    0.000    0.000    0.000    0.000 
#    0.000    0.000    0.000    0.000    0.000    0.000 
#
# Total GULP energy -179671.834630 kJ/mol
# GULP energy per Si atom -5614.744832 kJ/mol
# Density = 2.675816 g / cm^3
# Si number density = 26.819199 Si / 1000 Ang^3
#
#
#
# Elastic Constant Matrix: (Units=GPa)
#
#
# Indices 1 2 3 4 5 6 
#
# 1 87.6488 9.0119 8.5323 0.0000 0.0000 0.0000
# 2 9.0119 215.9152 0.4024 0.0000 0.0000 0.0000
# 3 8.5323 0.4024 89.2096 0.0000 0.0000 0.0000
# 4 0.0000 0.0000 0.0000 -15.1455 0.0000 0.0000
# 5 0.0000 0.0000 0.0000 0.0000 39.0609 0.0000
# 6 0.0000 0.0000 0.0000 0.0000 0.0000 7.4845
#
#
#
# Elastic Compliance Matrix: (Units=1/GPa)
#
#
# Indices 1 2 3 4 5 6 
#
# 1 0.011566 -0.000481 -0.001104 0.000000 0.000000 0.000000
# 2 -0.000481 0.004651 0.000025 0.000000 0.000000 0.000000
# 3 -0.001104 0.000025 0.011315 0.000000 0.000000 0.000000
# 4 0.000000 0.000000 0.000000 -0.066026 0.000000 0.000000
# 5 0.000000 0.000000 0.000000 0.000000 0.025601 0.000000
# 6 0.000000 0.000000 0.000000 0.000000 0.000000 0.133610
#
#
# Mechanical properties :
#
#
# Convention : Reuss Voigt Hill
#
# Bulk Modulus (GPa) = 40.96162 47.62962 44.29562
# Shear Modulus (GPa) = 37.88597 31.26844 34.57720
#
# Velocity S-wave (km/s) = 3.76259 3.41823 3.59454
# Velocity P-wave (km/s) = 5.84658 5.77729 5.81204
#
# Compressibility (1/GPa) = 0.02441310
#
# Stress axis : x y z
#
# Youngs Moduli (GPa) = 86.45982 214.98606 88.37794
#
# Poissons Ratio (x) = 0.10334 0.09757
# Poissons Ratio (y) = 0.04156 -0.00221
# Poissons Ratio (z) = 0.09546 -0.00537
#
# Static dielectric constant tensor:
#      x y z
#    x 1.986310 0.000000 0.000000 
#    y 0.000000 2.096770 0.000000 
#    z 0.000000 0.000000 2.062040 
# 
# From -- ./inp_files/28122.got.cif
#   From: 2010.05.17/outbox.cif.g08.bks.cpg/sg62_15_cif.got.tgz:28122.got - 2010.06.03 15:25:27.
