data_PCOD9466654
_publ_section_title
;
Structure prediction by ZEFSAII (Michael W. Deem and Ramdas Pophale) SiO2 
 PCOD9466654
Probable space group: P N M A
;
_chemical_formula_sum "Si O2"
_cell_formula_units_Z 48
_cell_length_a 10.020073
_cell_length_b 16.989833
_cell_length_c 14.903513
_cell_angle_alpha 90.000000
_cell_angle_beta 90.000000
_cell_angle_gamma 90.000000
_cell_volume 2537.164618
_symmetry_space_group_name_H-M "P N M A"
_symmetry_group_IT_number 62
_symmetry_cell_setting 'orthorhombic'
loop_
_space_group_symop_operation_xyz
x,y,z
1/2-x,-y,1/2+z
1/2+x,1/2-y,1/2-z
-x,1/2+y,-z
-x,-y,-z
1/2+x,y,1/2-z
1/2-x,1/2+y,1/2+z
x,1/2-y,z
loop_
_atom_site_type_symbol
_atom_site_label
_atom_site_fract_x
_atom_site_fract_y
_atom_site_fract_z
Si Si1 0.283858 0.343171 0.374753
Si Si2 0.933931 0.843698 0.162118
Si Si3 0.574657 0.155524 0.454596
Si Si4 0.679299 0.573671 0.238918
Si Si5 0.210337 0.583830 0.678045
Si Si6 0.560188 0.038313 0.089076
O O1 0.260470 0.250000 0.386684
O O2 0.431580 0.362785 0.410388
O O3 0.277209 0.366169 0.269616
O O4 0.175263 0.396856 0.425130
O O5 0.951574 0.750000 0.164287
O O6 0.797466 0.868164 0.210818
O O7 0.058952 0.884731 0.209620
O O8 0.924949 0.869534 0.058231
O O9 0.590839 0.250000 0.451998
O O10 0.692405 0.117466 0.397535
O O11 0.743062 0.504250 0.298280
O O12 0.621505 0.530127 0.151078
O O13 0.059236 0.579922 0.643778
O O14 0.500000 0.000000 0.000000
#
# Coordination Sequence:
#
# PCOD9466654 Si02
#       6
#     8   8   8   8   8   8
#     4  10  22  40  64  92 126 167 212 262 319 378
#     4  11  24  43  65  89 123 164 215 265 314 377
#     4  10  23  40  63  96 125 165 212 258 316 373
#     4  11  23  42  62  92 121 164 212 254 320 372
#     4  11  22  39  62  92 127 164 205 258 316 381
#     4  11  24  40  60  95 129 167 209 257 318 379
#
# _framework density 18.918755999999998
#
# number of rings (size 3 to 8) (size 9 to 14) (size 15 to 20)
#    0.000    1.333    1.667    4.000    4.667    3.333 
#    0.000    1.667    0.000    0.000    0.000    0.000 
#    0.000    0.000    0.000    0.000    0.000    0.000 
#
# Total GULP energy -268400.045114 kJ/mol
# GULP energy per Si atom -5591.667607 kJ/mol
# Density = 1.887570 g / cm^3
# Si number density = 18.918756 Si / 1000 Ang^3
#
#
#
# Elastic Constant Matrix: (Units=GPa)
#
#
# Indices 1 2 3 4 5 6 
#
# 1 70.1219 11.3050 8.5844 0.0000 0.0000 0.0000
# 2 11.3050 41.5342 7.6861 0.0000 0.0000 0.0000
# 3 8.5844 7.6861 56.9059 0.0000 0.0000 0.0000
# 4 0.0000 0.0000 0.0000 18.8196 0.0000 0.0000
# 5 0.0000 0.0000 0.0000 0.0000 25.4661 0.0000
# 6 0.0000 0.0000 0.0000 0.0000 0.0000 42.0135
#
#
#
# Elastic Compliance Matrix: (Units=1/GPa)
#
#
# Indices 1 2 3 4 5 6 
#
# 1 0.015086 -0.003780 -0.001765 0.000000 0.000000 0.000000
# 2 -0.003780 0.025641 -0.002893 0.000000 0.000000 0.000000
# 3 -0.001765 -0.002893 0.018230 0.000000 0.000000 0.000000
# 4 0.000000 0.000000 0.000000 0.053136 0.000000 0.000000
# 5 0.000000 0.000000 0.000000 0.000000 0.039268 0.000000
# 6 0.000000 0.000000 0.000000 0.000000 0.000000 0.023802
#
#
# Mechanical properties :
#
#
# Convention : Reuss Voigt Hill
#
# Bulk Modulus (GPa) = 23.76369 24.85701 24.31035
# Shear Modulus (GPa) = 24.26411 26.65895 25.46153
#
# Velocity S-wave (km/s) = 3.58515 3.75791 3.67254
# Velocity P-wave (km/s) = 5.45214 5.65655 5.55528
#
# Compressibility (1/GPa) = 0.04208102
#
# Stress axis : x y z
#
# Youngs Moduli (GPa) = 66.28516 39.00055 54.85490
#
# Poissons Ratio (x) = 0.14741 0.09684
# Poissons Ratio (y) = 0.25053 0.15870
# Poissons Ratio (z) = 0.11701 0.11283
#
# Static dielectric constant tensor:
#      x y z
#    x 1.623570 0.000000 0.000000 
#    y 0.000000 1.632690 0.000000 
#    z 0.000000 0.000000 1.642220 
# 
# From -- ./inp_files/16944.got.cif
#   From: 2010.05.17/outbox.cif.g08.bks.cpg/sg62_9_cif.got.tgz:16944.got - 2010.06.03 15:25:27.
