data_PCOD9466036
_publ_section_title
;
Structure prediction by ZEFSAII (Michael W. Deem and Ramdas Pophale) SiO2 
 PCOD9466036
Probable space group: P N M A
;
_chemical_formula_sum "Si O2"
_cell_formula_units_Z 56
_cell_length_a 10.703670
_cell_length_b 13.417708
_cell_length_c 19.467367
_cell_angle_alpha 90.000000
_cell_angle_beta 90.000000
_cell_angle_gamma 90.000000
_cell_volume 2795.878303
_symmetry_space_group_name_H-M "P N M A"
_symmetry_group_IT_number 62
_symmetry_cell_setting 'orthorhombic'
loop_
_space_group_symop_operation_xyz
x,y,z
1/2-x,-y,1/2+z
1/2+x,1/2-y,1/2-z
-x,1/2+y,-z
-x,-y,-z
1/2+x,y,1/2-z
1/2-x,1/2+y,1/2+z
x,1/2-y,z
loop_
_atom_site_type_symbol
_atom_site_label
_atom_site_fract_x
_atom_site_fract_y
_atom_site_fract_z
Si Si1 0.663018 0.008679 0.935303
Si Si2 0.954140 0.631392 0.195708
Si Si3 0.348553 0.367595 0.196039
Si Si4 0.564396 0.133920 0.306276
Si Si5 0.414465 0.131249 0.942116
Si Si6 0.947131 0.024602 0.925767
Si Si7 0.680668 0.629443 0.211155
O O1 0.636728 0.940431 0.868703
O O2 0.801518 0.053363 0.930451
O O3 0.557384 0.092770 0.941834
O O4 0.654166 0.934210 0.000271
O O5 0.952254 0.750000 0.204039
O O6 0.821441 0.593273 0.223498
O O7 0.972777 0.605253 0.116145
O O8 0.074835 0.592623 0.236805
O O9 0.360279 0.250000 0.175633
O O10 0.455176 0.386699 0.251989
O O11 0.205571 0.380633 0.221825
O O12 0.554247 0.250000 0.324392
O O13 0.548595 0.070335 0.375111
O O14 0.406130 0.250000 0.954277
O O15 0.358617 0.108918 0.866917
O O16 0.000000 0.000000 0.000000
O O17 0.683192 0.750000 0.217981
#
# Coordination Sequence:
#
# PCOD9466036 Si02
#       7
#     8   8   8   8   8   8   8
#     4  10  22  38  58  89 114 157 199 238 297 353
#     4  10  22  38  60  88 119 154 194 240 296 354
#     4   9  18  37  61  86 114 148 191 238 288 347
#     4   9  20  38  60  85 113 151 194 238 291 344
#     4  10  21  39  60  84 120 156 196 243 293 354
#     4  11  24  39  58  85 116 156 200 246 296 352
#     4   9  20  37  59  85 115 156 194 234 289 352
#
# _framework density 20.029484
#
# number of rings (size 3 to 8) (size 9 to 14) (size 15 to 20)
#    0.000    2.286    0.000    1.286    4.000    2.857 
#    5.143    0.000    0.000    0.000    0.000    0.000 
#    0.000    0.000    0.000    0.000    0.000    0.000 
#
# Total GULP energy -312850.076316 kJ/mol
# GULP energy per Si atom -5586.608506 kJ/mol
# Density = 1.998390 g / cm^3
# Si number density = 20.029484 Si / 1000 Ang^3
#
#
#
# Elastic Constant Matrix: (Units=GPa)
#
#
# Indices 1 2 3 4 5 6 
#
# 1 109.1599 15.2849 46.1062 0.0000 0.0000 0.0000
# 2 15.2849 50.7097 0.2915 0.0000 0.0000 0.0000
# 3 46.1062 0.2915 90.9326 0.0000 0.0000 0.0000
# 4 0.0000 0.0000 0.0000 26.9573 0.0000 0.0000
# 5 0.0000 0.0000 0.0000 0.0000 33.7002 0.0000
# 6 0.0000 0.0000 0.0000 0.0000 0.0000 18.1979
#
#
#
# Elastic Compliance Matrix: (Units=1/GPa)
#
#
# Indices 1 2 3 4 5 6 
#
# 1 0.012306 -0.003673 -0.006228 0.000000 0.000000 0.000000
# 2 -0.003673 0.020817 0.001796 0.000000 0.000000 0.000000
# 3 -0.006228 0.001796 0.014149 0.000000 0.000000 0.000000
# 4 0.000000 0.000000 0.000000 0.037096 0.000000 0.000000
# 5 0.000000 0.000000 0.000000 0.000000 0.029673 0.000000
# 6 0.000000 0.000000 0.000000 0.000000 0.000000 0.054951
#
#
# Mechanical properties :
#
#
# Convention : Reuss Voigt Hill
#
# Bulk Modulus (GPa) = 32.19445 41.57417 36.88431
# Shear Modulus (GPa) = 25.56811 28.37906 26.97359
#
# Velocity S-wave (km/s) = 3.57672 3.76821 3.67371
# Velocity P-wave (km/s) = 5.75897 6.30350 6.03737
#
# Compressibility (1/GPa) = 0.03106125
#
# Stress axis : x y z
#
# Youngs Moduli (GPa) = 81.26378 48.03769 70.67624
#
# Poissons Ratio (x) = 0.17646 0.44014
# Poissons Ratio (y) = 0.29851 -0.12692
# Poissons Ratio (z) = 0.50608 -0.08627
#
# Static dielectric constant tensor:
#      x y z
#    x 1.722630 0.000000 0.000000 
#    y 0.000000 1.719890 0.000000 
#    z 0.000000 0.000000 1.668610 
# 
# From -- ./inp_files/25972.got.cif
#   From: 2010.05.17/outbox.cif.g08.bks.cpg/sg62_13_cif.got.tgz:25972.got - 2010.06.03 15:25:27.
