data_PCOD9466924
_publ_section_title
;
Structure prediction by ZEFSAII (Michael W. Deem and Ramdas Pophale) SiO2 
 PCOD9466924
Probable space group: P N M A
;
_chemical_formula_sum "Si O2"
_cell_formula_units_Z 48
_cell_length_a 12.767220
_cell_length_b 18.163550
_cell_length_c 10.336323
_cell_angle_alpha 90.000000
_cell_angle_beta 90.000000
_cell_angle_gamma 90.000000
_cell_volume 2396.973032
_symmetry_space_group_name_H-M "P N M A"
_symmetry_group_IT_number 62
_symmetry_cell_setting 'orthorhombic'
loop_
_space_group_symop_operation_xyz
x,y,z
1/2-x,-y,1/2+z
1/2+x,1/2-y,1/2-z
-x,1/2+y,-z
-x,-y,-z
1/2+x,y,1/2-z
1/2-x,1/2+y,1/2+z
x,1/2-y,z
loop_
_atom_site_type_symbol
_atom_site_label
_atom_site_fract_x
_atom_site_fract_y
_atom_site_fract_z
Si Si1 0.577097 0.750000 0.921649
Si Si2 0.047010 0.001829 0.809154
Si Si3 0.958927 0.750000 0.313810
Si Si4 0.610515 0.596757 0.470044
Si Si5 0.982641 0.250000 0.984421
Si Si6 0.841150 0.898218 0.391639
Si Si7 0.184402 0.250000 0.162799
Si Si8 0.422004 0.625747 0.823666
O O1 0.699414 0.750000 0.892906
O O2 0.519437 0.679286 0.859284
O O3 0.547008 0.750000 0.073646
O O4 0.963231 0.941590 0.761165
O O5 0.110136 0.035814 0.690736
O O6 0.120172 0.960700 0.912598
O O7 0.984481 0.066196 0.882992
O O8 0.005440 0.750000 0.170589
O O9 0.888373 0.822117 0.337100
O O10 0.579417 0.676730 0.522808
O O11 0.716147 0.601532 0.388880
O O12 0.095794 0.250000 0.051498
O O13 0.875146 0.901860 0.541271
O O14 0.160299 0.322069 0.249506
#
# Coordination Sequence:
#
# PCOD9466924 Si02
#       8
#     4   8   4   8   4   8   4   8
#     4   9  23  41  65  99 132 179 227 281 321 402
#     4  11  24  46  60 102 137 168 229 273 339 399
#     4  10  22  47  63 102 132 170 240 270 331 400
#     4  11  26  42  71  94 135 180 221 282 330 408
#     4  12  22  47  67  96 136 172 222 288 323 391
#     4  11  24  43  70  95 132 184 218 275 341 398
#     4  11  23  39  73 101 130 183 227 271 341 399
#     4  10  23  42  65  98 137 171 228 278 328 406
#
# _framework density 20.025258000000001
#
# number of rings (size 3 to 8) (size 9 to 14) (size 15 to 20)
#    0.000    1.333    3.333    1.500    4.667    1.333 
#    0.000    0.000    0.000    0.000    0.000    0.000 
#    0.000    0.000    0.000    0.000    0.000    0.000 
#
# Total GULP energy -268473.857451 kJ/mol
# GULP energy per Si atom -5593.205364 kJ/mol
# Density = 1.997968 g / cm^3
# Si number density = 20.025258 Si / 1000 Ang^3
#
#
#
# Elastic Constant Matrix: (Units=GPa)
#
#
# Indices 1 2 3 4 5 6 
#
# 1 111.5755 42.7622 32.1157 0.0000 0.0000 0.0000
# 2 42.7622 97.2210 28.3483 0.0000 0.0000 0.0000
# 3 32.1157 28.3483 93.9151 0.0000 0.0000 0.0000
# 4 0.0000 0.0000 0.0000 11.4948 0.0000 0.0000
# 5 0.0000 0.0000 0.0000 0.0000 6.0069 0.0000
# 6 0.0000 0.0000 0.0000 0.0000 0.0000 8.6957
#
#
#
# Elastic Compliance Matrix: (Units=1/GPa)
#
#
# Indices 1 2 3 4 5 6 
#
# 1 0.011330 -0.004226 -0.002599 0.000000 0.000000 0.000000
# 2 -0.004226 0.012855 -0.002435 0.000000 0.000000 0.000000
# 3 -0.002599 -0.002435 0.012272 0.000000 0.000000 0.000000
# 4 0.000000 0.000000 0.000000 0.086996 0.000000 0.000000
# 5 0.000000 0.000000 0.000000 0.000000 0.166476 0.000000
# 6 0.000000 0.000000 0.000000 0.000000 0.000000 0.114999
#
#
# Mechanical properties :
#
#
# Convention : Reuss Voigt Hill
#
# Bulk Modulus (GPa) = 55.75121 56.57379 56.16250
# Shear Modulus (GPa) = 11.64346 18.53850 15.09098
#
# Velocity S-wave (km/s) = 2.41392 3.04592 2.74815
# Velocity P-wave (km/s) = 5.97246 6.37830 6.17871
#
# Compressibility (1/GPa) = 0.01793683
#
# Stress axis : x y z
#
# Youngs Moduli (GPa) = 88.25998 77.79353 81.48815
#
# Poissons Ratio (x) = 0.32873 0.21179
# Poissons Ratio (y) = 0.37296 0.19843
# Poissons Ratio (z) = 0.22939 0.18944
#
# Static dielectric constant tensor:
#      x y z
#    x 1.656880 0.000000 0.000000 
#    y 0.000000 1.697110 0.000000 
#    z 0.000000 0.000000 1.699620 
# 
# From -- ./inp_files/12332.got.cif
#   From: 2010.05.17/outbox.cif.g08.bks.cpg/sg62_7_cif.got.tgz:12332.got - 2010.06.03 15:25:27.
