data_PCOD9466221
_publ_section_title
;
Structure prediction by ZEFSAII (Michael W. Deem and Ramdas Pophale) SiO2 
 PCOD9466221
Probable space group: P N M A
;
_chemical_formula_sum "Si O2"
_cell_formula_units_Z 40
_cell_length_a 17.743443
_cell_length_b 13.511751
_cell_length_c 8.245328
_cell_angle_alpha 90.000000
_cell_angle_beta 90.000000
_cell_angle_gamma 90.000000
_cell_volume 1976.776027
_symmetry_space_group_name_H-M "P N M A"
_symmetry_group_IT_number 62
_symmetry_cell_setting 'orthorhombic'
loop_
_space_group_symop_operation_xyz
x,y,z
1/2-x,-y,1/2+z
1/2+x,1/2-y,1/2-z
-x,1/2+y,-z
-x,-y,-z
1/2+x,y,1/2-z
1/2-x,1/2+y,1/2+z
x,1/2-y,z
loop_
_atom_site_type_symbol
_atom_site_label
_atom_site_fract_x
_atom_site_fract_y
_atom_site_fract_z
Si Si1 0.066487 0.526185 0.121436
Si Si2 0.444756 0.633134 0.188237
Si Si3 0.135241 0.365786 0.352572
Si Si4 0.223472 0.932742 0.031878
Si Si5 0.708064 0.365907 0.626157
O O1 0.105232 0.432276 0.207252
O O2 0.023237 0.585607 0.262063
O O3 0.133761 0.583463 0.030035
O O4 0.000000 0.500000 0.000000
O O5 0.454749 0.750000 0.178133
O O6 0.379463 0.616956 0.323653
O O7 0.409917 0.602161 0.015620
O O8 0.122418 0.250000 0.321889
O O9 0.222839 0.382380 0.398791
O O10 0.234567 0.050765 0.000250
O O11 0.249454 0.891664 0.205756
O O12 0.718074 0.250000 0.582917
#
# Coordination Sequence:
#
# PCOD9466221 Si02
#       5
#     8   8   8   8   8
#     4  12  23  37  66  97 127 156 210 269 322 377
#     4   9  20  39  63  88 125 168 204 254 322 383
#     4  10  23  44  64  86 126 177 215 257 322 387
#     4  11  21  41  64  89 126 171 215 263 310 384
#     4  10  21  40  63  90 127 172 215 260 320 380
#
# _framework density 20.234969
#
# number of rings (size 3 to 8) (size 9 to 14) (size 15 to 20)
#    0.000    1.600    4.000    2.400    0.000    3.200 
#    0.000    0.000    0.000    2.400    0.000    0.000 
#    0.000    0.000    0.000    0.000    0.000    0.000 
#
# Total GULP energy -223151.218004 kJ/mol
# GULP energy per Si atom -5578.780450 kJ/mol
# Density = 2.018891 g / cm^3
# Si number density = 20.234969 Si / 1000 Ang^3
#
#
#
# Elastic Constant Matrix: (Units=GPa)
#
#
# Indices 1 2 3 4 5 6 
#
# 1 131.2313 11.0439 32.1470 0.0000 0.0000 0.0000
# 2 11.0439 45.1006 6.6200 0.0000 0.0000 0.0000
# 3 32.1470 6.6200 65.7162 0.0000 0.0000 0.0000
# 4 0.0000 0.0000 0.0000 27.3449 0.0000 0.0000
# 5 0.0000 0.0000 0.0000 0.0000 30.5646 0.0000
# 6 0.0000 0.0000 0.0000 0.0000 0.0000 12.9981
#
#
#
# Elastic Compliance Matrix: (Units=1/GPa)
#
#
# Indices 1 2 3 4 5 6 
#
# 1 0.008762 -0.001539 -0.004131 0.000000 0.000000 0.000000
# 2 -0.001539 0.022776 -0.001541 0.000000 0.000000 0.000000
# 3 -0.004131 -0.001541 0.017393 0.000000 0.000000 0.000000
# 4 0.000000 0.000000 0.000000 0.036570 0.000000 0.000000
# 5 0.000000 0.000000 0.000000 0.000000 0.032718 0.000000
# 6 0.000000 0.000000 0.000000 0.000000 0.000000 0.076934
#
#
# Mechanical properties :
#
#
# Convention : Reuss Voigt Hill
#
# Bulk Modulus (GPa) = 28.97929 37.96331 33.47130
# Shear Modulus (GPa) = 22.61652 26.99735 24.80693
#
# Velocity S-wave (km/s) = 3.34682 3.65662 3.50515
# Velocity P-wave (km/s) = 5.41179 6.05226 5.74096
#
# Compressibility (1/GPa) = 0.03450740
#
# Stress axis : x y z
#
# Youngs Moduli (GPa) = 114.13455 43.90623 57.49443
#
# Poissons Ratio (x) = 0.06758 0.23751
# Poissons Ratio (y) = 0.17567 0.08862
# Poissons Ratio (z) = 0.47148 0.06768
#
# Static dielectric constant tensor:
#      x y z
#    x 1.741120 0.000000 0.000000 
#    y 0.000000 1.711110 0.000000 
#    z 0.000000 0.000000 1.776930 
# 
# From -- ./inp_files/6126.got.cif
#   From: 2010.05.17/outbox.cif.g08.bks.cpg/sg62_4_cif.got.tgz:6126.got - 2010.06.03 15:25:27.
