data_PCOD9466164
_publ_section_title
;
Structure prediction by ZEFSAII (Michael W. Deem and Ramdas Pophale) SiO2 
 PCOD9466164
Probable space group: P N M A
;
_chemical_formula_sum "Si O2"
_cell_formula_units_Z 44
_cell_length_a 14.450067
_cell_length_b 16.254189
_cell_length_c 7.808201
_cell_angle_alpha 90.000000
_cell_angle_beta 90.000000
_cell_angle_gamma 90.000000
_cell_volume 1833.944339
_symmetry_space_group_name_H-M "P N M A"
_symmetry_group_IT_number 62
_symmetry_cell_setting 'orthorhombic'
loop_
_space_group_symop_operation_xyz
x,y,z
1/2-x,-y,1/2+z
1/2+x,1/2-y,1/2-z
-x,1/2+y,-z
-x,-y,-z
1/2+x,y,1/2-z
1/2-x,1/2+y,1/2+z
x,1/2-y,z
loop_
_atom_site_type_symbol
_atom_site_label
_atom_site_fract_x
_atom_site_fract_y
_atom_site_fract_z
Si Si1 0.613924 0.977439 0.184959
Si Si2 0.807642 0.250000 0.979265
Si Si3 0.300009 0.750000 0.658534
Si Si4 0.338986 0.838924 0.197011
Si Si5 0.206462 0.433456 0.004127
Si Si6 0.497522 0.120258 0.037069
Si Si7 0.023126 0.750000 0.806776
O O1 0.566767 0.891866 0.129279
O O2 0.651141 0.009788 0.364772
O O3 0.700191 0.979322 0.053118
O O4 0.532314 0.039742 0.135214
O O5 0.752551 0.250000 0.159185
O O6 0.914853 0.250000 0.024152
O O7 0.765762 0.327094 0.872775
O O8 0.275877 0.659534 0.577373
O O9 0.412440 0.750000 0.670371
O O10 0.358712 0.750000 0.282636
O O11 0.347438 0.912839 0.328176
O O12 0.407632 0.844271 0.038878
O O13 0.452377 0.174014 0.184228
#
# Coordination Sequence:
#
# PCOD9466164 Si02
#       7
#     8   4   4   8   8   8   4
#     4  11  26  41  72 103 152 199 246 303 390 451
#     4  10  21  39  71 110 138 193 239 319 381 424
#     4  12  21  42  75 109 147 199 255 312 375 458
#     4  10  21  44  69  99 143 189 248 311 363 435
#     4  12  24  47  69 106 150 201 256 312 377 457
#     4  11  22  45  71 111 146 199 238 310 383 461
#     4  12  20  41  80 109 159 188 252 313 380 474
#
# _framework density 23.992004999999999
#
# number of rings (size 3 to 8) (size 9 to 14) (size 15 to 20)
#    0.545    0.364    5.455    2.182    0.000    0.727 
#    3.273    3.636    0.000    0.000    0.000    0.000 
#    0.000    0.000    0.000    0.000    0.000    0.000 
#
# Total GULP energy -245449.903823 kJ/mol
# GULP energy per Si atom -5578.406905 kJ/mol
# Density = 2.393740 g / cm^3
# Si number density = 23.992005 Si / 1000 Ang^3
#
#
#
# Elastic Constant Matrix: (Units=GPa)
#
#
# Indices 1 2 3 4 5 6 
#
# 1 81.8568 0.6727 18.8629 0.0000 0.0000 0.0000
# 2 0.6727 42.1078 17.1867 0.0000 0.0000 0.0000
# 3 18.8629 17.1867 83.5067 0.0000 0.0000 0.0000
# 4 0.0000 0.0000 0.0000 -29.9702 0.0000 0.0000
# 5 0.0000 0.0000 0.0000 0.0000 29.8971 0.0000
# 6 0.0000 0.0000 0.0000 0.0000 0.0000 -12.7965
#
#
#
# Elastic Compliance Matrix: (Units=1/GPa)
#
#
# Indices 1 2 3 4 5 6 
#
# 1 0.012932 0.001076 -0.003143 0.000000 0.000000 0.000000
# 2 0.001076 0.026016 -0.005597 0.000000 0.000000 0.000000
# 3 -0.003143 -0.005597 0.013837 0.000000 0.000000 0.000000
# 4 0.000000 0.000000 0.000000 -0.033367 0.000000 0.000000
# 5 0.000000 0.000000 0.000000 0.000000 0.033448 0.000000
# 6 0.000000 0.000000 0.000000 0.000000 0.000000 -0.078146
#
#
# Mechanical properties :
#
#
# Convention : Reuss Voigt Hill
#
# Bulk Modulus (GPa) = 26.69741 31.21288 28.95515
# Shear Modulus (GPa) = 1973.42969 8.80935 991.11952
#
# Velocity S-wave (km/s) = 28.71101 1.91827 20.34701
# Velocity P-wave (km/s) = 33.32038 4.23607 23.75071
#
# Compressibility (1/GPa) = 0.03745682
#
# Stress axis : x y z
#
# Youngs Moduli (GPa) = 77.32889 38.43786 72.27011
#
# Poissons Ratio (x) = -0.04136 0.22711
# Poissons Ratio (y) = -0.08321 0.40453
# Poissons Ratio (z) = 0.24301 0.21515
#
# Static dielectric constant tensor:
#      x y z
#    x 1.920500 0.000000 0.000000 
#    y 0.000000 2.036980 0.000000 
#    z 0.000000 0.000000 1.919450 
# 
# From -- ./inp_files/6394.got.cif
#   From: 2010.05.17/outbox.cif.g08.bks.cpg/sg62_4_cif.got.tgz:6394.got - 2010.06.03 15:25:27.
