data_PCOD9466365
_publ_section_title
;
Structure prediction by ZEFSAII (Michael W. Deem and Ramdas Pophale) SiO2 
 PCOD9466365
Probable space group: P N M A
;
_chemical_formula_sum "Si O2"
_cell_formula_units_Z 48
_cell_length_a 9.419562
_cell_length_b 17.387634
_cell_length_c 13.865677
_cell_angle_alpha 90.000000
_cell_angle_beta 90.000000
_cell_angle_gamma 90.000000
_cell_volume 2270.974607
_symmetry_space_group_name_H-M "P N M A"
_symmetry_group_IT_number 62
_symmetry_cell_setting 'orthorhombic'
loop_
_space_group_symop_operation_xyz
x,y,z
1/2-x,-y,1/2+z
1/2+x,1/2-y,1/2-z
-x,1/2+y,-z
-x,-y,-z
1/2+x,y,1/2-z
1/2-x,1/2+y,1/2+z
x,1/2-y,z
loop_
_atom_site_type_symbol
_atom_site_label
_atom_site_fract_x
_atom_site_fract_y
_atom_site_fract_z
Si Si1 0.172689 0.338718 0.350620
Si Si2 0.789377 0.568991 0.192667
Si Si3 0.166497 0.437543 0.035100
Si Si4 0.625955 0.886718 0.481397
Si Si5 0.123869 0.590168 0.703684
Si Si6 0.446642 0.334752 0.723841
O O1 0.128450 0.250000 0.357146
O O2 0.241857 0.365569 0.451824
O O3 0.298748 0.349189 0.273329
O O4 0.039980 0.390506 0.316292
O O5 0.845050 0.491722 0.244028
O O6 0.635248 0.597085 0.222697
O O7 0.890555 0.639665 0.222042
O O8 0.796639 0.560747 0.077849
O O9 0.291036 0.408882 0.102984
O O10 0.020237 0.389554 0.043273
O O11 0.137611 0.526537 0.059587
O O12 0.605735 0.835627 0.387173
O O13 0.426688 0.250000 0.765960
#
# Coordination Sequence:
#
# PCOD9466365 Si02
#       6
#     8   8   8   8   8   8
#     4  12  26  43  65  98 133 172 214 268 331 383
#     4  11  23  41  66  93 125 168 214 263 313 383
#     4  10  22  41  69  99 122 165 223 267 312 379
#     4  10  21  41  68  93 128 165 215 267 318 380
#     4  12  24  43  69  94 129 171 218 271 315 387
#     4  11  23  41  63  94 130 168 208 260 323 380
#
# _framework density 21.136299000000001
#
# number of rings (size 3 to 8) (size 9 to 14) (size 15 to 20)
#    0.000    1.000    3.333    3.500    2.333    2.000 
#    0.000   10.833    0.000    0.000    0.000    0.000 
#    0.000    0.000    0.000    0.000    0.000    0.000 
#
# Total GULP energy -268311.953021 kJ/mol
# GULP energy per Si atom -5589.832355 kJ/mol
# Density = 2.108819 g / cm^3
# Si number density = 21.136299 Si / 1000 Ang^3
#
#
#
# Elastic Constant Matrix: (Units=GPa)
#
#
# Indices 1 2 3 4 5 6 
#
# 1 48.5965 -20.2452 13.0129 0.0000 0.0000 0.0000
# 2 -20.2452 74.1358 -2.1021 0.0000 0.0000 0.0000
# 3 13.0129 -2.1021 37.3652 0.0000 0.0000 0.0000
# 4 0.0000 0.0000 0.0000 13.2052 0.0000 0.0000
# 5 0.0000 0.0000 0.0000 0.0000 31.3602 0.0000
# 6 0.0000 0.0000 0.0000 0.0000 0.0000 16.9546
#
#
#
# Elastic Compliance Matrix: (Units=1/GPa)
#
#
# Indices 1 2 3 4 5 6 
#
# 1 0.025693 0.006774 -0.008567 0.000000 0.000000 0.000000
# 2 0.006774 0.015296 -0.001498 0.000000 0.000000 0.000000
# 3 -0.008567 -0.001498 0.029662 0.000000 0.000000 0.000000
# 4 0.000000 0.000000 0.000000 0.075728 0.000000 0.000000
# 5 0.000000 0.000000 0.000000 0.000000 0.031888 0.000000
# 6 0.000000 0.000000 0.000000 0.000000 0.000000 0.058981
#
#
# Mechanical properties :
#
#
# Convention : Reuss Voigt Hill
#
# Bulk Modulus (GPa) = 15.60848 15.71431 15.66139
# Shear Modulus (GPa) = 18.85457 23.59947 21.22702
#
# Velocity S-wave (km/s) = 2.98996 3.34509 3.17249
# Velocity P-wave (km/s) = 4.39551 4.72973 4.56568
#
# Compressibility (1/GPa) = 0.06406774
#
# Stress axis : x y z
#
# Youngs Moduli (GPa) = 38.92036 65.37658 33.71295
#
# Poissons Ratio (x) = -0.44283 0.28882
# Poissons Ratio (y) = -0.26363 0.05052
# Poissons Ratio (z) = 0.33343 0.09796
#
# Static dielectric constant tensor:
#      x y z
#    x 1.756990 0.000000 0.000000 
#    y 0.000000 1.756300 0.000000 
#    z 0.000000 0.000000 1.754910 
# 
# From -- ./inp_files/16906.got.cif
#   From: 2010.05.17/outbox.cif.g08.bks.cpg/sg62_9_cif.got.tgz:16906.got - 2010.06.03 15:25:27.
