data_PCOD9466570
_publ_section_title
;
Structure prediction by ZEFSAII (Michael W. Deem and Ramdas Pophale) SiO2 
 PCOD9466570
Probable space group: P N M A
;
_chemical_formula_sum "Si O2"
_cell_formula_units_Z 64
_cell_length_a 22.729051
_cell_length_b 8.239925
_cell_length_c 14.904554
_cell_angle_alpha 90.000000
_cell_angle_beta 90.000000
_cell_angle_gamma 90.000000
_cell_volume 2791.409465
_symmetry_space_group_name_H-M "P N M A"
_symmetry_group_IT_number 62
_symmetry_cell_setting 'orthorhombic'
loop_
_space_group_symop_operation_xyz
x,y,z
1/2-x,-y,1/2+z
1/2+x,1/2-y,1/2-z
-x,1/2+y,-z
-x,-y,-z
1/2+x,y,1/2-z
1/2-x,1/2+y,1/2+z
x,1/2-y,z
loop_
_atom_site_type_symbol
_atom_site_label
_atom_site_fract_x
_atom_site_fract_y
_atom_site_fract_z
Si Si1 0.966328 0.563040 0.140636
Si Si2 0.013899 0.440036 0.317792
Si Si3 0.762855 0.441646 0.139138
Si Si4 0.706436 0.554320 0.436596
Si Si5 0.133245 0.557987 0.367856
Si Si6 0.816397 0.941253 0.315117
Si Si7 0.919790 0.558034 0.956782
Si Si8 0.416337 0.058231 0.057581
O O1 0.955318 0.750000 0.164500
O O2 0.029390 0.542449 0.091561
O O3 0.973149 0.462893 0.230870
O O4 0.921152 0.512306 0.062670
O O5 0.025106 0.250000 0.330778
O O6 0.977410 0.509405 0.402516
O O7 0.076550 0.525777 0.306207
O O8 0.772871 0.250000 0.144215
O O9 0.694375 0.478144 0.159897
O O10 0.805168 0.525535 0.210999
O O11 0.773874 0.495387 0.036781
O O12 0.700453 0.750000 0.434785
O O13 0.756678 0.509216 0.366531
O O14 0.643696 0.476660 0.417204
O O15 0.144137 0.750000 0.373735
O O16 0.111408 0.492607 0.465471
O O17 0.825992 0.750000 0.329601
O O18 0.868898 0.032958 0.363959
O O19 0.934141 0.750000 0.950817
O O20 0.425288 0.250000 0.043370
#
# Coordination Sequence:
#
# PCOD9466570 Si02
#       8
#     8   8   8   8   8   8   8   8
#     4  10  22  41  61  89 124 160 204 254 307 365
#     4  11  24  40  63  92 123 160 205 253 309 369
#     4  11  24  43  65  93 128 168 210 257 313 371
#     4  10  23  42  64  91 126 167 207 256 314 371
#     4  11  23  42  66  92 124 161 205 256 309 366
#     4  11  24  42  65  94 127 167 212 259 312 370
#     4  10  22  39  63  90 121 162 205 252 309 367
#     4  10  23  43  65  92 124 162 205 254 310 369
#
# _framework density 22.927484
#
# number of rings (size 3 to 8) (size 9 to 14) (size 15 to 20)
#    0.000    1.500    1.250    2.625    3.500    5.000 
#    0.000    0.000    0.000    0.000    0.000    0.000 
#    0.000    0.000    0.000    0.000    0.000    0.000 
#
# Total GULP energy -358076.867512 kJ/mol
# GULP energy per Si atom -5594.951055 kJ/mol
# Density = 2.287530 g / cm^3
# Si number density = 22.927484 Si / 1000 Ang^3
#
#
#
# Elastic Constant Matrix: (Units=GPa)
#
#
# Indices 1 2 3 4 5 6 
#
# 1 52.2841 -7.8521 -11.2869 0.0000 0.0000 0.0000
# 2 -7.8521 18.4696 1.0856 0.0000 0.0000 0.0000
# 3 -11.2869 1.0856 73.9070 0.0000 0.0000 0.0000
# 4 0.0000 0.0000 0.0000 26.6625 0.0000 0.0000
# 5 0.0000 0.0000 0.0000 0.0000 22.8066 0.0000
# 6 0.0000 0.0000 0.0000 0.0000 0.0000 21.7257
#
#
#
# Elastic Compliance Matrix: (Units=1/GPa)
#
#
# Indices 1 2 3 4 5 6 
#
# 1 0.021115 0.008795 0.003095 0.000000 0.000000 0.000000
# 2 0.008795 0.057853 0.000493 0.000000 0.000000 0.000000
# 3 0.003095 0.000493 0.013996 0.000000 0.000000 0.000000
# 4 0.000000 0.000000 0.000000 0.037506 0.000000 0.000000
# 5 0.000000 0.000000 0.000000 0.000000 0.043847 0.000000
# 6 0.000000 0.000000 0.000000 0.000000 0.000000 0.046029
#
#
# Mechanical properties :
#
#
# Convention : Reuss Voigt Hill
#
# Bulk Modulus (GPa) = 8.49388 12.06155 10.27772
# Shear Modulus (GPa) = 21.29272 25.08655 23.18964
#
# Velocity S-wave (km/s) = 3.05076 3.31141 3.18376
# Velocity P-wave (km/s) = 4.01525 4.46013 4.24352
#
# Compressibility (1/GPa) = 0.11773184
#
# Stress axis : x y z
#
# Youngs Moduli (GPa) = 47.35896 17.28520 71.44890
#
# Poissons Ratio (x) = -0.15202 -0.22117
# Poissons Ratio (y) = -0.41652 -0.03525
# Poissons Ratio (z) = -0.14660 -0.00853
#
# Static dielectric constant tensor:
#      x y z
#    x 1.834590 0.000000 0.000000 
#    y 0.000000 1.812650 0.000000 
#    z 0.000000 0.000000 1.892910 
# 
# From -- ./inp_files/20967.got.cif
#   From: 2010.05.17/outbox.cif.g08.bks.cpg/sg62_11_cif.got.tgz:20967.got - 2010.06.03 15:25:27.
