data_PCOD9466955
_publ_section_title
;
Structure prediction by ZEFSAII (Michael W. Deem and Ramdas Pophale) SiO2 
 PCOD9466955
Probable space group: P N M A
;
_chemical_formula_sum "Si O2"
_cell_formula_units_Z 48
_cell_length_a 15.164278
_cell_length_b 17.933545
_cell_length_c 8.886891
_cell_angle_alpha 90.000000
_cell_angle_beta 90.000000
_cell_angle_gamma 90.000000
_cell_volume 2416.783448
_symmetry_space_group_name_H-M "P N M A"
_symmetry_group_IT_number 62
_symmetry_cell_setting 'orthorhombic'
loop_
_space_group_symop_operation_xyz
x,y,z
1/2-x,-y,1/2+z
1/2+x,1/2-y,1/2-z
-x,1/2+y,-z
-x,-y,-z
1/2+x,y,1/2-z
1/2-x,1/2+y,1/2+z
x,1/2-y,z
loop_
_atom_site_type_symbol
_atom_site_label
_atom_site_fract_x
_atom_site_fract_y
_atom_site_fract_z
Si Si1 0.542384 0.163490 0.595108
Si Si2 0.306045 0.833801 0.864987
Si Si3 0.319159 0.935069 0.572861
Si Si4 0.129624 0.909401 0.957011
Si Si5 0.117067 0.548580 0.606485
Si Si6 0.039665 0.382958 0.564996
O O1 0.558610 0.250000 0.564115
O O2 0.625792 0.114480 0.543585
O O3 0.456660 0.135137 0.505534
O O4 0.524955 0.150057 0.770779
O O5 0.292306 0.750000 0.804635
O O6 0.325133 0.893310 0.732821
O O7 0.218491 0.860336 0.953082
O O8 0.389699 0.835584 0.973298
O O9 0.215185 0.942181 0.541108
O O10 0.358235 0.018410 0.563617
O O11 0.118964 0.937207 0.785176
O O12 0.082713 0.465164 0.580636
O O13 0.050160 0.605096 0.526622
#
# Coordination Sequence:
#
# PCOD9466955 Si02
#       6
#     8   8   8   8   8   8
#     4  12  26  42  64  97 135 172 214 269 331 384
#     4  11  24  43  66  94 133 173 212 268 337 390
#     4  11  23  42  68  97 124 170 222 271 315 392
#     4  11  23  43  67  96 128 171 223 271 316 392
#     4  10  23  40  67  97 122 167 217 269 316 378
#     4  11  23  40  65  94 132 162 213 266 323 383
#
# _framework density 19.861108999999999
#
# number of rings (size 3 to 8) (size 9 to 14) (size 15 to 20)
#    0.000    1.000    3.333    3.000    4.667    1.333 
#    0.000   10.833    0.000    0.000    0.000    0.000 
#    0.000    0.000    0.000    0.000    0.000    0.000 
#
# Total GULP energy -268436.765058 kJ/mol
# GULP energy per Si atom -5592.432605 kJ/mol
# Density = 1.981590 g / cm^3
# Si number density = 19.861109 Si / 1000 Ang^3
#
#
#
# Elastic Constant Matrix: (Units=GPa)
#
#
# Indices 1 2 3 4 5 6 
#
# 1 71.1133 8.3578 8.2882 0.0000 0.0000 0.0000
# 2 8.3578 73.3749 8.0429 0.0000 0.0000 0.0000
# 3 8.2882 8.0429 39.5648 0.0000 0.0000 0.0000
# 4 0.0000 0.0000 0.0000 -11.4519 0.0000 0.0000
# 5 0.0000 0.0000 0.0000 0.0000 14.9186 0.0000
# 6 0.0000 0.0000 0.0000 0.0000 0.0000 19.3889
#
#
#
# Elastic Compliance Matrix: (Units=1/GPa)
#
#
# Indices 1 2 3 4 5 6 
#
# 1 0.014544 -0.001353 -0.002772 0.000000 0.000000 0.000000
# 2 -0.001353 0.014065 -0.002576 0.000000 0.000000 0.000000
# 3 -0.002772 -0.002576 0.026379 0.000000 0.000000 0.000000
# 4 0.000000 0.000000 0.000000 -0.087322 0.000000 0.000000
# 5 0.000000 0.000000 0.000000 0.000000 0.067030 0.000000
# 6 0.000000 0.000000 0.000000 0.000000 0.000000 0.051576
#
#
# Mechanical properties :
#
#
# Convention : Reuss Voigt Hill
#
# Bulk Modulus (GPa) = 24.04559 25.93675 24.99117
# Shear Modulus (GPa) = 44.03870 15.19539 29.61704
#
# Velocity S-wave (km/s) = 4.71397 2.76901 3.86581
# Velocity P-wave (km/s) = 6.46234 4.82811 5.70405
#
# Compressibility (1/GPa) = 0.04158766
#
# Stress axis : x y z
#
# Youngs Moduli (GPa) = 68.75640 71.09808 37.90853
#
# Poissons Ratio (x) = 0.09618 0.10507
# Poissons Ratio (y) = 0.09302 0.09765
# Poissons Ratio (z) = 0.19058 0.18314
#
# Static dielectric constant tensor:
#      x y z
#    x 1.676920 0.000000 0.000000 
#    y 0.000000 1.697520 0.000000 
#    z 0.000000 0.000000 1.676810 
# 
# From -- ./inp_files/6450.got.cif
#   From: 2010.05.17/outbox.cif.g08.bks.cpg/sg62_4_cif.got.tgz:6450.got - 2010.06.03 15:25:27.
