data_PCOD9466271
_publ_section_title
;
Structure prediction by ZEFSAII (Michael W. Deem and Ramdas Pophale) SiO2 
 PCOD9466271
Probable space group: P N M A
;
_chemical_formula_sum "Si O2"
_cell_formula_units_Z 56
_cell_length_a 19.251851
_cell_length_b 8.166554
_cell_length_c 17.268630
_cell_angle_alpha 90.000000
_cell_angle_beta 90.000000
_cell_angle_gamma 90.000000
_cell_volume 2714.996126
_symmetry_space_group_name_H-M "P N M A"
_symmetry_group_IT_number 62
_symmetry_cell_setting 'orthorhombic'
loop_
_space_group_symop_operation_xyz
x,y,z
1/2-x,-y,1/2+z
1/2+x,1/2-y,1/2-z
-x,1/2+y,-z
-x,-y,-z
1/2+x,y,1/2-z
1/2-x,1/2+y,1/2+z
x,1/2-y,z
loop_
_atom_site_type_symbol
_atom_site_label
_atom_site_fract_x
_atom_site_fract_y
_atom_site_fract_z
Si Si1 0.653374 0.940984 0.015679
Si Si2 0.294791 0.947001 0.415187
Si Si3 0.917570 0.942192 0.363147
Si Si4 0.287151 0.949948 0.237868
Si Si5 0.928612 0.560820 0.660589
Si Si6 0.362411 0.051627 0.680384
Si Si7 0.921724 0.054174 0.984297
O O1 0.656165 0.750000 0.993224
O O2 0.731230 0.005668 0.030979
O O3 0.613370 0.957418 0.097011
O O4 0.612152 0.035177 0.949381
O O5 0.289010 0.750000 0.413090
O O6 0.285648 0.005311 0.326981
O O7 0.368357 0.993482 0.450733
O O8 0.930316 0.750000 0.348338
O O9 0.856978 0.001818 0.305589
O O10 0.989757 0.033867 0.352004
O O11 0.287378 0.750000 0.237707
O O12 0.217262 0.001810 0.193780
O O13 0.910687 0.750000 0.648203
O O14 0.906307 0.508310 0.746320
O O15 0.363363 0.250000 0.680766
O O16 0.394054 0.994158 0.599212
O O17 0.919639 0.250000 0.983344
O O18 0.000000 0.000000 0.000000
#
# Coordination Sequence:
#
# PCOD9466271 Si02
#       7
#     8   8   8   8   8   8   8
#     4  11  22  41  66  91 125 164 204 251 310 374
#     4  10  21  40  66  92 123 163 208 258 312 371
#     4  11  23  39  63  92 126 162 205 253 305 371
#     4   9  19  39  66  92 119 160 209 254 307 371
#     4  12  25  40  61  93 128 161 204 257 311 366
#     4  10  21  43  67  88 120 166 211 252 312 376
#     4  11  25  42  65  94 130 171 214 263 314 376
#
# _framework density 20.626180999999999
#
# number of rings (size 3 to 8) (size 9 to 14) (size 15 to 20)
#    0.000    1.429    1.429    3.857    2.000    3.429 
#    0.000    2.143    0.000    0.000    0.000    0.000 
#    0.000    0.000    0.000    0.000    0.000    0.000 
#
# Total GULP energy -313198.879988 kJ/mol
# GULP energy per Si atom -5592.837143 kJ/mol
# Density = 2.057923 g / cm^3
# Si number density = 20.626181 Si / 1000 Ang^3
#
#
#
# Elastic Constant Matrix: (Units=GPa)
#
#
# Indices 1 2 3 4 5 6 
#
# 1 134.0762 -11.2514 19.9737 0.0000 0.0000 0.0000
# 2 -11.2514 20.3647 -16.8701 0.0000 0.0000 0.0000
# 3 19.9737 -16.8701 47.1765 0.0000 0.0000 0.0000
# 4 0.0000 0.0000 0.0000 21.1294 0.0000 0.0000
# 5 0.0000 0.0000 0.0000 0.0000 6.2734 0.0000
# 6 0.0000 0.0000 0.0000 0.0000 0.0000 24.3653
#
#
#
# Elastic Compliance Matrix: (Units=1/GPa)
#
#
# Indices 1 2 3 4 5 6 
#
# 1 0.008036 0.002304 -0.002578 0.000000 0.000000 0.000000
# 2 0.002304 0.070435 0.024212 0.000000 0.000000 0.000000
# 3 -0.002578 0.024212 0.030947 0.000000 0.000000 0.000000
# 4 0.000000 0.000000 0.000000 0.047328 0.000000 0.000000
# 5 0.000000 0.000000 0.000000 0.000000 0.159404 0.000000
# 6 0.000000 0.000000 0.000000 0.000000 0.000000 0.041042
#
#
# Mechanical properties :
#
#
# Convention : Reuss Voigt Hill
#
# Bulk Modulus (GPa) = 6.35763 20.59128 13.47445
# Shear Modulus (GPa) = 13.82184 24.33796 19.07990
#
# Velocity S-wave (km/s) = 2.59146 3.43877 3.04474
# Velocity P-wave (km/s) = 3.47033 5.07658 4.34827
#
# Compressibility (1/GPa) = 0.15729143
#
# Stress axis : x y z
#
# Youngs Moduli (GPa) = 124.44165 14.19759 32.31364
#
# Poissons Ratio (x) = -0.03271 0.08332
# Poissons Ratio (y) = -0.28670 -0.78237
# Poissons Ratio (z) = 0.32086 -0.34375
#
# Static dielectric constant tensor:
#      x y z
#    x 1.997330 0.000000 0.000000 
#    y 0.000000 1.725050 0.000000 
#    z 0.000000 0.000000 1.711000 
# 
# From -- ./inp_files/20292.got.cif
#   From: 2010.05.17/outbox.cif.g08.bks.cpg/sg62_11_cif.got.tgz:20292.got - 2010.06.03 15:25:27.
