data_PCOD9466034
_publ_section_title
;
Structure prediction by ZEFSAII (Michael W. Deem and Ramdas Pophale) SiO2 
 PCOD9466034
Probable space group: P N M A
;
_chemical_formula_sum "Si O2"
_cell_formula_units_Z 48
_cell_length_a 9.460827
_cell_length_b 8.682880
_cell_length_c 31.482273
_cell_angle_alpha 90.000000
_cell_angle_beta 90.000000
_cell_angle_gamma 90.000000
_cell_volume 2586.181381
_symmetry_space_group_name_H-M "P N M A"
_symmetry_group_IT_number 62
_symmetry_cell_setting 'orthorhombic'
loop_
_space_group_symop_operation_xyz
x,y,z
1/2-x,-y,1/2+z
1/2+x,1/2-y,1/2-z
-x,1/2+y,-z
-x,-y,-z
1/2+x,y,1/2-z
1/2-x,1/2+y,1/2+z
x,1/2-y,z
loop_
_atom_site_type_symbol
_atom_site_label
_atom_site_fract_x
_atom_site_fract_y
_atom_site_fract_z
Si Si1 0.915847 0.934626 0.882204
Si Si2 0.583886 0.564834 0.879595
Si Si3 0.600575 0.432858 0.788949
Si Si4 0.412785 0.933853 0.460495
Si Si5 0.084215 0.935570 0.459613
Si Si6 0.587087 0.433883 0.285430
O O1 0.926222 0.750000 0.886916
O O2 0.749640 0.974921 0.887555
O O3 0.957458 0.973646 0.833759
O O4 0.012186 0.012997 0.917272
O O5 0.574391 0.750000 0.877300
O O6 0.543357 0.492618 0.834247
O O7 0.488688 0.500671 0.917316
O O8 0.621702 0.250000 0.790677
O O9 0.749483 0.518491 0.782372
O O10 0.499917 0.478983 0.750355
O O11 0.415615 0.750000 0.463094
O O12 0.248773 0.982807 0.461845
O O13 0.500000 0.000000 0.500000
O O14 0.077308 0.750000 0.459574
O O15 0.000000 0.000000 0.500000
O O16 0.572849 0.250000 0.280082
#
# Coordination Sequence:
#
# PCOD9466034 Si02
#       6
#     8   8   8   8   8   8
#     4   9  20  38  60  84 111 145 189 233 279 336
#     4  10  21  39  61  85 114 151 192 236 287 346
#     4  11  22  37  59  88 119 153 195 244 292 343
#     4  11  24  39  58  84 115 147 185 231 281 337
#     4  11  24  40  58  85 116 149 190 236 285 342
#     4  10  21  39  60  84 117 157 196 238 289 348
#
# _framework density 18.560182999999999
#
# number of rings (size 3 to 8) (size 9 to 14) (size 15 to 20)
#    0.000    1.667    0.000    5.500    0.000   12.000 
#    0.000    3.333    0.000    0.000    0.000    0.000 
#    0.000    0.000    0.000    0.000    0.000    0.000 
#
# Total GULP energy -268281.638327 kJ/mol
# GULP energy per Si atom -5589.200798 kJ/mol
# Density = 1.851794 g / cm^3
# Si number density = 18.560183 Si / 1000 Ang^3
#
#
#
# Elastic Constant Matrix: (Units=GPa)
#
#
# Indices 1 2 3 4 5 6 
#
# 1 97.6646 25.9283 84.1588 0.0000 0.0000 0.0000
# 2 25.9283 44.9934 31.4390 0.0000 0.0000 0.0000
# 3 84.1588 31.4390 146.8990 0.0000 0.0000 0.0000
# 4 0.0000 0.0000 0.0000 37.5527 0.0000 0.0000
# 5 0.0000 0.0000 0.0000 0.0000 41.1122 0.0000
# 6 0.0000 0.0000 0.0000 0.0000 0.0000 33.1498
#
#
#
# Elastic Compliance Matrix: (Units=1/GPa)
#
#
# Indices 1 2 3 4 5 6 
#
# 1 0.020915 -0.004327 -0.011056 0.000000 0.000000 0.000000
# 2 -0.004327 0.027029 -0.003306 0.000000 0.000000 0.000000
# 3 -0.011056 -0.003306 0.013849 0.000000 0.000000 0.000000
# 4 0.000000 0.000000 0.000000 0.026629 0.000000 0.000000
# 5 0.000000 0.000000 0.000000 0.000000 0.024324 0.000000
# 6 0.000000 0.000000 0.000000 0.000000 0.000000 0.030166
#
#
# Mechanical properties :
#
#
# Convention : Reuss Voigt Hill
#
# Bulk Modulus (GPa) = 40.95849 63.62325 52.29087
# Shear Modulus (GPa) = 26.53521 32.23167 29.38344
#
# Velocity S-wave (km/s) = 3.78522 4.17178 3.98319
# Velocity P-wave (km/s) = 6.42026 7.58675 7.02775
#
# Compressibility (1/GPa) = 0.02441496
#
# Stress axis : x y z
#
# Youngs Moduli (GPa) = 47.81187 36.99739 72.20714
#
# Poissons Ratio (x) = 0.16010 0.79835
# Poissons Ratio (y) = 0.20690 0.23869
# Poissons Ratio (z) = 0.52862 0.12230
#
# Static dielectric constant tensor:
#      x y z
#    x 1.620500 0.000000 0.000000 
#    y 0.000000 1.618830 0.000000 
#    z 0.000000 0.000000 1.623550 
# 
# From -- ./inp_files/31942.got.cif
#   From: 2010.05.17/outbox.cif.g08.bks.cpg/sg62_16_cif.got.tgz:31942.got - 2010.06.03 15:25:27.
