data_PCOD9466746
_publ_section_title
;
Structure prediction by ZEFSAII (Michael W. Deem and Ramdas Pophale) SiO2 
 PCOD9466746
Probable space group: P N M A
;
_chemical_formula_sum "Si O2"
_cell_formula_units_Z 48
_cell_length_a 9.598802
_cell_length_b 8.166048
_cell_length_c 28.166321
_cell_angle_alpha 90.000000
_cell_angle_beta 90.000000
_cell_angle_gamma 90.000000
_cell_volume 2207.796732
_symmetry_space_group_name_H-M "P N M A"
_symmetry_group_IT_number 62
_symmetry_cell_setting 'orthorhombic'
loop_
_space_group_symop_operation_xyz
x,y,z
1/2-x,-y,1/2+z
1/2+x,1/2-y,1/2-z
-x,1/2+y,-z
-x,-y,-z
1/2+x,y,1/2-z
1/2-x,1/2+y,1/2+z
x,1/2-y,z
loop_
_atom_site_type_symbol
_atom_site_label
_atom_site_fract_x
_atom_site_fract_y
_atom_site_fract_z
Si Si1 0.585403 0.060987 0.045560
Si Si2 0.693977 0.554078 0.387659
Si Si3 0.843091 0.941864 0.994071
Si Si4 0.004303 0.050797 0.192636
Si Si5 0.801002 0.557424 0.723283
Si Si6 0.509988 0.440092 0.854897
O O1 0.552586 0.250000 0.055178
O O2 0.547659 0.958323 0.091802
O O3 0.500000 0.000000 0.000000
O O4 0.744481 0.039064 0.029992
O O5 0.702137 0.750000 0.393316
O O6 0.699485 0.476425 0.439683
O O7 0.556110 0.507118 0.358712
O O8 0.830488 0.500018 0.357969
O O9 0.828986 0.750000 0.004064
O O10 0.000000 0.000000 0.000000
O O11 0.002583 0.250000 0.192473
O O12 0.119641 0.990206 0.230537
O O13 0.851022 0.991673 0.208717
O O14 0.780145 0.750000 0.732236
O O15 0.909688 0.535592 0.680415
O O16 0.509601 0.250000 0.840575
#
# Coordination Sequence:
#
# PCOD9466746 Si02
#       6
#     8   8   8   8   8   8
#     4  12  24  42  67  96 130 171 219 267 319 381
#     4  11  24  42  64  92 128 169 215 265 320 383
#     4  12  26  44  67  94 130 173 217 269 324 382
#     4  10  22  41  66  94 126 164 211 264 323 386
#     4  10  22  41  66  95 126 164 211 264 322 386
#     4  11  24  41  64  93 128 169 215 264 320 382
#
# _framework density 21.741130999999999
#
# number of rings (size 3 to 8) (size 9 to 14) (size 15 to 20)
#    0.000    1.000    1.667    5.000    2.333    4.667 
#    0.000    0.000    0.000    0.000    0.000    0.000 
#    0.000    0.000    0.000    0.000    0.000    0.000 
#
# Total GULP energy -268574.076588 kJ/mol
# GULP energy per Si atom -5595.293262 kJ/mol
# Density = 2.169165 g / cm^3
# Si number density = 21.741131 Si / 1000 Ang^3
#
#
#
# Elastic Constant Matrix: (Units=GPa)
#
#
# Indices 1 2 3 4 5 6 
#
# 1 109.8064 0.7265 -2.0620 0.0000 0.0000 0.0000
# 2 0.7265 43.3986 -14.3428 0.0000 0.0000 0.0000
# 3 -2.0620 -14.3428 52.7631 0.0000 0.0000 0.0000
# 4 0.0000 0.0000 0.0000 18.1276 0.0000 0.0000
# 5 0.0000 0.0000 0.0000 0.0000 36.7469 0.0000
# 6 0.0000 0.0000 0.0000 0.0000 0.0000 30.8688
#
#
#
# Elastic Compliance Matrix: (Units=1/GPa)
#
#
# Indices 1 2 3 4 5 6 
#
# 1 0.009114 -0.000038 0.000346 0.000000 0.000000 0.000000
# 2 -0.000038 0.025317 0.006880 0.000000 0.000000 0.000000
# 3 0.000346 0.006880 0.020837 0.000000 0.000000 0.000000
# 4 0.000000 0.000000 0.000000 0.055164 0.000000 0.000000
# 5 0.000000 0.000000 0.000000 0.000000 0.027213 0.000000
# 6 0.000000 0.000000 0.000000 0.000000 0.000000 0.032395
#
#
# Mechanical properties :
#
#
# Convention : Reuss Voigt Hill
#
# Bulk Modulus (GPa) = 14.35898 19.40127 16.88013
# Shear Modulus (GPa) = 27.95199 31.92509 29.93854
#
# Velocity S-wave (km/s) = 3.58952 3.83615 3.71488
# Velocity P-wave (km/s) = 4.87836 5.34458 5.11678
#
# Compressibility (1/GPa) = 0.06964283
#
# Stress axis : x y z
#
# Youngs Moduli (GPa) = 109.72508 39.49951 47.99267
#
# Poissons Ratio (x) = 0.00151 -0.01659
# Poissons Ratio (y) = 0.00420 -0.33021
# Poissons Ratio (z) = -0.03794 -0.27178
#
# Static dielectric constant tensor:
#      x y z
#    x 1.809630 0.000000 0.000000 
#    y 0.000000 1.762800 0.000000 
#    z 0.000000 0.000000 1.762800 
# 
# From -- ./inp_files/31934.got.cif
#   From: 2010.05.17/outbox.cif.g08.bks.cpg/sg62_16_cif.got.tgz:31934.got - 2010.06.03 15:25:27.
