data_PCOD9466390
_publ_section_title
;
Structure prediction by ZEFSAII (Michael W. Deem and Ramdas Pophale) SiO2 
 PCOD9466390
Probable space group: P N M A
;
_chemical_formula_sum "Si O2"
_cell_formula_units_Z 40
_cell_length_a 12.706732
_cell_length_b 8.937536
_cell_length_c 18.925184
_cell_angle_alpha 90.000000
_cell_angle_beta 90.000000
_cell_angle_gamma 90.000000
_cell_volume 2149.274000
_symmetry_space_group_name_H-M "P N M A"
_symmetry_group_IT_number 62
_symmetry_cell_setting 'orthorhombic'
loop_
_space_group_symop_operation_xyz
x,y,z
1/2-x,-y,1/2+z
1/2+x,1/2-y,1/2-z
-x,1/2+y,-z
-x,-y,-z
1/2+x,y,1/2-z
1/2-x,1/2+y,1/2+z
x,1/2-y,z
loop_
_atom_site_type_symbol
_atom_site_label
_atom_site_fract_x
_atom_site_fract_y
_atom_site_fract_z
Si Si1 0.448384 0.570828 0.569831
Si Si2 0.892348 0.430026 0.196237
Si Si3 0.180611 0.069821 0.385339
Si Si4 0.041154 0.071101 0.656206
Si Si5 0.725989 0.429892 0.951920
O O1 0.500000 0.500000 0.500000
O O2 0.448113 0.750000 0.562797
O O3 0.519787 0.532482 0.637487
O O4 0.330591 0.509199 0.576090
O O5 0.893761 0.250000 0.205707
O O6 0.778772 0.471929 0.164314
O O7 0.917457 0.508310 0.269641
O O8 0.169918 0.250000 0.382839
O O9 0.207431 0.028946 0.466265
O O10 0.072419 0.996516 0.361238
O O11 0.034042 0.250000 0.659105
O O12 0.124915 0.031050 0.595083
O O13 0.741159 0.250000 0.949022
#
# Coordination Sequence:
#
# PCOD9466390 Si02
#       5
#     8   8   8   8   8
#     4  11  22  39  64  92 121 159 205 251 301 362
#     4  10  23  42  62  87 122 166 206 244 304 369
#     4  10  21  42  66  86 121 163 204 248 299 373
#     4  11  25  40  61  93 127 159 201 259 310 353
#     4  10  22  42  64  91 124 159 203 255 306 359
#
# _framework density 18.610935000000001
#
# number of rings (size 3 to 8) (size 9 to 14) (size 15 to 20)
#    0.000    1.600    2.000    1.800    2.800    4.800 
#    0.000    0.000    0.000    0.000    0.000    0.000 
#    0.000    0.000    0.000    0.000    0.000    0.000 
#
# Total GULP energy -223613.098703 kJ/mol
# GULP energy per Si atom -5590.327468 kJ/mol
# Density = 1.856858 g / cm^3
# Si number density = 18.610935 Si / 1000 Ang^3
#
#
#
# Elastic Constant Matrix: (Units=GPa)
#
#
# Indices 1 2 3 4 5 6 
#
# 1 187.7840 52.1436 62.1014 0.0000 0.0000 0.0000
# 2 52.1436 25.9979 30.8004 0.0000 0.0000 0.0000
# 3 62.1014 30.8004 70.0783 0.0000 0.0000 0.0000
# 4 0.0000 0.0000 0.0000 30.4064 0.0000 0.0000
# 5 0.0000 0.0000 0.0000 0.0000 24.7613 0.0000
# 6 0.0000 0.0000 0.0000 0.0000 0.0000 34.6008
#
#
#
# Elastic Compliance Matrix: (Units=1/GPa)
#
#
# Indices 1 2 3 4 5 6 
#
# 1 0.012020 -0.023970 -0.000117 0.000000 0.000000 0.000000
# 2 -0.023970 0.128052 -0.035040 0.000000 0.000000 0.000000
# 3 -0.000117 -0.035040 0.029773 0.000000 0.000000 0.000000
# 4 0.000000 0.000000 0.000000 0.032888 0.000000 0.000000
# 5 0.000000 0.000000 0.000000 0.000000 0.040386 0.000000
# 6 0.000000 0.000000 0.000000 0.000000 0.000000 0.028901
#
#
# Mechanical properties :
#
#
# Convention : Reuss Voigt Hill
#
# Bulk Modulus (GPa) = 19.38210 63.77233 41.57721
# Shear Modulus (GPa) = 12.27087 27.20805 19.73946
#
# Velocity S-wave (km/s) = 2.57054 3.82768 3.26028
# Velocity P-wave (km/s) = 4.38716 7.33998 6.04659
#
# Compressibility (1/GPa) = 0.05159400
#
# Stress axis : x y z
#
# Youngs Moduli (GPa) = 83.19731 7.80931 33.58705
#
# Poissons Ratio (x) = 0.18719 0.00391
# Poissons Ratio (y) = 1.99420 1.17688
# Poissons Ratio (z) = 0.00969 0.27364
#
# Static dielectric constant tensor:
#      x y z
#    x 1.615790 0.000000 0.000000 
#    y 0.000000 1.622940 0.000000 
#    z 0.000000 0.000000 1.615660 
# 
# From -- ./inp_files/22772.got.cif
#   From: 2010.05.17/outbox.cif.g08.bks.cpg/sg62_12_cif.got.tgz:22772.got - 2010.06.03 15:25:27.
