data_PCOD9466789
_publ_section_title
;
Structure prediction by ZEFSAII (Michael W. Deem and Ramdas Pophale) SiO2 
 PCOD9466789
Probable space group: P N M A
;
_chemical_formula_sum "Si O2"
_cell_formula_units_Z 56
_cell_length_a 21.134853
_cell_length_b 9.115773
_cell_length_c 14.538596
_cell_angle_alpha 90.000000
_cell_angle_beta 90.000000
_cell_angle_gamma 90.000000
_cell_volume 2801.013499
_symmetry_space_group_name_H-M "P N M A"
_symmetry_group_IT_number 62
_symmetry_cell_setting 'orthorhombic'
loop_
_space_group_symop_operation_xyz
x,y,z
1/2-x,-y,1/2+z
1/2+x,1/2-y,1/2-z
-x,1/2+y,-z
-x,-y,-z
1/2+x,y,1/2-z
1/2-x,1/2+y,1/2+z
x,1/2-y,z
loop_
_atom_site_type_symbol
_atom_site_label
_atom_site_fract_x
_atom_site_fract_y
_atom_site_fract_z
Si Si1 0.049960 0.421173 0.066231
Si Si2 0.143791 0.922373 0.337103
Si Si3 0.140932 0.922725 0.950129
Si Si4 0.261706 0.421605 0.995246
Si Si5 0.397020 0.920413 0.268941
Si Si6 0.482943 0.579116 0.781269
Si Si7 0.245253 0.078246 0.689099
O O1 0.054664 0.250000 0.042063
O O2 0.114625 0.504354 0.042999
O O3 0.032380 0.432557 0.172277
O O4 0.000000 0.500000 0.000000
O O5 0.130187 0.750000 0.321736
O O6 0.173453 0.937902 0.438938
O O7 0.198956 0.961217 0.261849
O O8 0.079411 0.012383 0.327682
O O9 0.133332 0.750000 0.951894
O O10 0.212277 0.975778 0.942297
O O11 0.104203 0.990827 0.864157
O O12 0.243036 0.250000 0.987896
O O13 0.259197 0.475752 0.099772
O O14 0.412272 0.750000 0.285292
O O15 0.325183 0.928518 0.232338
O O16 0.451394 0.991601 0.205647
O O17 0.491258 0.750000 0.804403
O O18 0.256150 0.250000 0.662434
#
# Coordination Sequence:
#
# PCOD9466789 Si02
#       7
#     8   8   8   8   8   8   8
#     4  11  22  35  54  84 121 159 197 245 305 368
#     4  10  22  42  64  89 125 165 205 252 314 376
#     4  12  23  36  58  88 122 161 204 251 305 368
#     4  11  23  41  64  92 123 160 208 259 312 369
#     4  11  22  40  64  88 122 164 204 252 311 369
#     4  11  24  39  58  90 125 160 208 258 308 371
#     4  10  22  42  66  94 124 160 209 258 313 376
#
# _framework density 19.992764000000001
#
# number of rings (size 3 to 8) (size 9 to 14) (size 15 to 20)
#    0.000    1.143    2.857    3.857    0.000    6.857 
#    0.000    0.714    0.000    0.000    0.000    0.000 
#    0.000    0.000    0.000    0.000    0.000    0.000 
#
# Total GULP energy -312789.884628 kJ/mol
# GULP energy per Si atom -5585.533654 kJ/mol
# Density = 1.994726 g / cm^3
# Si number density = 19.992764 Si / 1000 Ang^3
#
#
#
# Elastic Constant Matrix: (Units=GPa)
#
#
# Indices 1 2 3 4 5 6 
#
# 1 65.1544 22.0946 -15.3113 0.0000 0.0000 0.0000
# 2 22.0946 103.1768 9.7169 0.0000 0.0000 0.0000
# 3 -15.3113 9.7169 31.3221 0.0000 0.0000 0.0000
# 4 0.0000 0.0000 0.0000 27.2417 0.0000 0.0000
# 5 0.0000 0.0000 0.0000 0.0000 24.8775 0.0000
# 6 0.0000 0.0000 0.0000 0.0000 0.0000 31.8842
#
#
#
# Elastic Compliance Matrix: (Units=1/GPa)
#
#
# Indices 1 2 3 4 5 6 
#
# 1 0.019812 -0.005310 0.011332 0.000000 0.000000 0.000000
# 2 -0.005310 0.011407 -0.006134 0.000000 0.000000 0.000000
# 3 0.011332 -0.006134 0.039369 0.000000 0.000000 0.000000
# 4 0.000000 0.000000 0.000000 0.036708 0.000000 0.000000
# 5 0.000000 0.000000 0.000000 0.000000 0.040197 0.000000
# 6 0.000000 0.000000 0.000000 0.000000 0.000000 0.031364
#
#
# Mechanical properties :
#
#
# Convention : Reuss Voigt Hill
#
# Bulk Modulus (GPa) = 14.21204 25.85043 20.03124
# Shear Modulus (GPa) = 24.68710 29.01088 26.84899
#
# Velocity S-wave (km/s) = 3.51779 3.81342 3.66858
# Velocity P-wave (km/s) = 4.86043 5.68749 5.29015
#
# Compressibility (1/GPa) = 0.07036286
#
# Stress axis : x y z
#
# Youngs Moduli (GPa) = 50.47518 87.66654 25.40090
#
# Poissons Ratio (x) = 0.46549 -0.28784
# Poissons Ratio (y) = 0.26801 0.15582
# Poissons Ratio (z) = -0.57198 0.53777
#
# Static dielectric constant tensor:
#      x y z
#    x 1.833120 0.000000 0.000000 
#    y 0.000000 1.673360 0.000000 
#    z 0.000000 0.000000 1.720170 
# 
# From -- ./inp_files/20330.got.cif
#   From: 2010.05.17/outbox.cif.g08.bks.cpg/sg62_11_cif.got.tgz:20330.got - 2010.06.03 15:25:27.
