data_PCOD9466966
_publ_section_title
;
Structure prediction by ZEFSAII (Michael W. Deem and Ramdas Pophale) SiO2 
 PCOD9466966
Probable space group: P N M A
;
_chemical_formula_sum "Si O2"
_cell_formula_units_Z 40
_cell_length_a 24.507428
_cell_length_b 7.809311
_cell_length_c 8.451378
_cell_angle_alpha 90.000000
_cell_angle_beta 90.000000
_cell_angle_gamma 90.000000
_cell_volume 1617.476504
_symmetry_space_group_name_H-M "P N M A"
_symmetry_group_IT_number 62
_symmetry_cell_setting 'orthorhombic'
loop_
_space_group_symop_operation_xyz
x,y,z
1/2-x,-y,1/2+z
1/2+x,1/2-y,1/2-z
-x,1/2+y,-z
-x,-y,-z
1/2+x,y,1/2-z
1/2-x,1/2+y,1/2+z
x,1/2-y,z
loop_
_atom_site_type_symbol
_atom_site_label
_atom_site_fract_x
_atom_site_fract_y
_atom_site_fract_z
Si Si1 0.268210 0.551530 0.639920
Si Si2 0.631822 0.949948 0.169454
Si Si3 0.527781 0.455408 0.334634
Si Si4 0.429499 0.449108 0.135875
Si Si5 0.331028 0.947832 0.333619
O O1 0.254563 0.750000 0.608813
O O2 0.312524 0.538369 0.779918
O O3 0.213277 0.460116 0.693158
O O4 0.299564 0.480398 0.486492
O O5 0.644326 0.750000 0.141563
O O6 0.587317 0.968070 0.308421
O O7 0.600770 0.025350 0.016492
O O8 0.500000 0.500000 0.500000
O O9 0.532113 0.250000 0.323810
O O10 0.486582 0.521644 0.197525
O O11 0.439144 0.250000 0.099267
O O12 0.385862 0.461907 0.277895
O O13 0.344737 0.750000 0.367129
#
# Coordination Sequence:
#
# PCOD9466966 Si02
#       5
#     8   8   8   8   8
#     4  11  24  41  61  88 121 156 197 244 295 352
#     4  11  23  40  62  89 120 155 198 245 294 350
#     4  11  23  40  62  89 121 158 199 244 296 351
#     4  10  23  41  61  87 120 157 197 243 294 351
#     4  11  24  40  61  89 119 154 197 244 294 350
#
# _framework density 24.729879
#
# number of rings (size 3 to 8) (size 9 to 14) (size 15 to 20)
#    0.000    1.200    0.000    5.400    0.000   14.400 
#    0.000    0.000    0.000    0.000    0.000    0.000 
#    0.000    0.000    0.000    0.000    0.000    0.000 
#
# Total GULP energy -224073.544003 kJ/mol
# GULP energy per Si atom -5601.838600 kJ/mol
# Density = 2.467359 g / cm^3
# Si number density = 24.729879 Si / 1000 Ang^3
#
#
#
# Elastic Constant Matrix: (Units=GPa)
#
#
# Indices 1 2 3 4 5 6 
#
# 1 118.9453 -4.3543 0.0588 0.0000 0.0000 0.0000
# 2 -4.3543 54.9386 -5.8953 0.0000 0.0000 0.0000
# 3 0.0588 -5.8953 69.1768 0.0000 0.0000 0.0000
# 4 0.0000 0.0000 0.0000 21.6709 0.0000 0.0000
# 5 0.0000 0.0000 0.0000 0.0000 45.1637 0.0000
# 6 0.0000 0.0000 0.0000 0.0000 0.0000 0.8396
#
#
#
# Elastic Compliance Matrix: (Units=1/GPa)
#
#
# Indices 1 2 3 4 5 6 
#
# 1 0.008432 0.000674 0.000050 0.000000 0.000000 0.000000
# 2 0.000674 0.018424 0.001570 0.000000 0.000000 0.000000
# 3 0.000050 0.001570 0.014589 0.000000 0.000000 0.000000
# 4 0.000000 0.000000 0.000000 0.046145 0.000000 0.000000
# 5 0.000000 0.000000 0.000000 0.000000 0.022142 0.000000
# 6 0.000000 0.000000 0.000000 0.000000 0.000000 1.191066
#
#
# Mechanical properties :
#
#
# Convention : Reuss Voigt Hill
#
# Bulk Modulus (GPa) = 21.72394 24.74213 23.23304
# Shear Modulus (GPa) = 3.81227 30.41826 17.11526
#
# Velocity S-wave (km/s) = 1.24294 3.51097 2.63361
# Velocity P-wave (km/s) = 3.29597 5.14418 4.32007
#
# Compressibility (1/GPa) = 0.04603216
#
# Stress axis : x y z
#
# Youngs Moduli (GPa) = 118.59775 54.27713 68.54275
#
# Poissons Ratio (x) = -0.03657 -0.00344
# Poissons Ratio (y) = -0.07990 -0.10758
# Poissons Ratio (z) = -0.00596 -0.08519
#
# Static dielectric constant tensor:
#      x y z
#    x 1.890130 0.000000 0.000000 
#    y 0.000000 1.886080 0.000000 
#    z 0.000000 0.000000 2.048140 
# 
# From -- ./inp_files/9061.got.cif
#   From: 2010.05.17/outbox.cif.g08.bks.cpg/sg62_5_cif.got.tgz:9061.got - 2010.06.03 15:25:27.
