data_PCOD9466337
_publ_section_title
;
Structure prediction by ZEFSAII (Michael W. Deem and Ramdas Pophale) SiO2 
 PCOD9466337
Probable space group: P N M A
;
_chemical_formula_sum "Si O2"
_cell_formula_units_Z 56
_cell_length_a 14.505307
_cell_length_b 9.340615
_cell_length_c 20.853413
_cell_angle_alpha 90.000000
_cell_angle_beta 90.000000
_cell_angle_gamma 90.000000
_cell_volume 2825.397400
_symmetry_space_group_name_H-M "P N M A"
_symmetry_group_IT_number 62
_symmetry_cell_setting 'orthorhombic'
loop_
_space_group_symop_operation_xyz
x,y,z
1/2-x,-y,1/2+z
1/2+x,1/2-y,1/2-z
-x,1/2+y,-z
-x,-y,-z
1/2+x,y,1/2-z
1/2-x,1/2+y,1/2+z
x,1/2-y,z
loop_
_atom_site_type_symbol
_atom_site_label
_atom_site_fract_x
_atom_site_fract_y
_atom_site_fract_z
Si Si1 0.043985 0.413232 0.636227
Si Si2 0.719688 0.917114 0.509397
Si Si3 0.933287 0.582974 0.548892
Si Si4 0.193391 0.084605 0.250460
Si Si5 0.854259 0.422419 0.148116
Si Si6 0.491608 0.086509 0.721490
Si Si7 0.225338 0.914424 0.606799
O O1 0.039413 0.250000 0.612235
O O2 0.049401 0.410477 0.712462
O O3 0.132251 0.493460 0.608582
O O4 0.954728 0.502443 0.615003
O O5 0.700525 0.750000 0.495011
O O6 0.827382 0.927962 0.529329
O O7 0.666216 0.959221 0.574087
O O8 0.708604 0.013062 0.446082
O O9 0.957420 0.750000 0.553147
O O10 0.000000 0.500000 0.500000
O O11 0.166786 0.250000 0.265587
O O12 0.268281 0.039381 0.304449
O O13 0.238651 0.084589 0.179569
O O14 0.104483 0.986049 0.240965
O O15 0.862756 0.250000 0.152721
O O16 0.947327 0.496500 0.172267
O O17 0.477143 0.250000 0.700074
O O18 0.207005 0.750000 0.588493
#
# Coordination Sequence:
#
# PCOD9466337 Si02
#       7
#     8   8   8   8   8   8   8
#     4  11  22  36  55  83 120 157 194 240 299 361
#     4  10  22  38  58  85 121 160 197 248 306 360
#     4  11  21  33  53  83 118 154 195 239 295 359
#     4  10  22  41  65  91 118 158 209 253 301 364
#     4  10  21  41  65  89 120 161 205 251 303 362
#     4  11  24  39  61  92 122 156 199 256 311 357
#     4  11  22  37  61  88 116 156 200 245 297 354
#
# _framework density 19.820219999999999
#
# number of rings (size 3 to 8) (size 9 to 14) (size 15 to 20)
#    0.000    1.429    2.857    2.571    0.000    5.714 
#    0.000    0.714    0.000    0.000    0.000    0.000 
#    0.000    0.000    0.000    0.000    0.000    0.000 
#
# Total GULP energy -312706.366041 kJ/mol
# GULP energy per Si atom -5584.042251 kJ/mol
# Density = 1.977511 g / cm^3
# Si number density = 19.820220 Si / 1000 Ang^3
#
#
#
# Elastic Constant Matrix: (Units=GPa)
#
#
# Indices 1 2 3 4 5 6 
#
# 1 29.5691 13.1951 -17.9726 0.0000 0.0000 0.0000
# 2 13.1951 85.3180 12.6651 0.0000 0.0000 0.0000
# 3 -17.9726 12.6651 55.9562 0.0000 0.0000 0.0000
# 4 0.0000 0.0000 0.0000 31.1942 0.0000 0.0000
# 5 0.0000 0.0000 0.0000 0.0000 28.2190 0.0000
# 6 0.0000 0.0000 0.0000 0.0000 0.0000 21.8896
#
#
#
# Elastic Compliance Matrix: (Units=1/GPa)
#
#
# Indices 1 2 3 4 5 6 
#
# 1 0.049549 -0.010374 0.018263 0.000000 0.000000 0.000000
# 2 -0.010374 0.014300 -0.006569 0.000000 0.000000 0.000000
# 3 0.018263 -0.006569 0.025224 0.000000 0.000000 0.000000
# 4 0.000000 0.000000 0.000000 0.032057 0.000000 0.000000
# 5 0.000000 0.000000 0.000000 0.000000 0.035437 0.000000
# 6 0.000000 0.000000 0.000000 0.000000 0.000000 0.045684
#
#
# Mechanical properties :
#
#
# Convention : Reuss Voigt Hill
#
# Bulk Modulus (GPa) = 10.90361 20.73538 15.81949
# Shear Modulus (GPa) = 21.72188 27.12427 24.42307
#
# Velocity S-wave (km/s) = 3.31410 3.70336 3.51412
# Velocity P-wave (km/s) = 4.48971 5.36385 4.94613
#
# Compressibility (1/GPa) = 0.09171271
#
# Stress axis : x y z
#
# Youngs Moduli (GPa) = 20.18205 69.92799 39.64514
#
# Poissons Ratio (x) = 0.72544 -0.72403
# Poissons Ratio (y) = 0.20937 0.26042
# Poissons Ratio (z) = -0.36858 0.45935
#
# Static dielectric constant tensor:
#      x y z
#    x 1.682260 0.000000 0.000000 
#    y 0.000000 1.684170 0.000000 
#    z 0.000000 0.000000 1.777920 
# 
# From -- ./inp_files/27115.got.cif
#   From: 2010.05.17/outbox.cif.g08.bks.cpg/sg62_14_cif.got.tgz:27115.got - 2010.06.03 15:25:27.
