data_PCOD9466998
_publ_section_title
;
Structure prediction by ZEFSAII (Michael W. Deem and Ramdas Pophale) SiO2 
 PCOD9466998
Probable space group: P N M A
;
_chemical_formula_sum "Si O2"
_cell_formula_units_Z 56
_cell_length_a 19.623923
_cell_length_b 14.217232
_cell_length_c 8.129106
_cell_angle_alpha 90.000000
_cell_angle_beta 90.000000
_cell_angle_gamma 90.000000
_cell_volume 2268.003227
_symmetry_space_group_name_H-M "P N M A"
_symmetry_group_IT_number 62
_symmetry_cell_setting 'orthorhombic'
loop_
_space_group_symop_operation_xyz
x,y,z
1/2-x,-y,1/2+z
1/2+x,1/2-y,1/2-z
-x,1/2+y,-z
-x,-y,-z
1/2+x,y,1/2-z
1/2-x,1/2+y,1/2+z
x,1/2-y,z
loop_
_atom_site_type_symbol
_atom_site_label
_atom_site_fract_x
_atom_site_fract_y
_atom_site_fract_z
Si Si1 0.756413 0.641403 0.258049
Si Si2 0.609749 0.860480 0.342953
Si Si3 0.514666 0.142579 0.852616
Si Si4 0.423155 0.639089 0.616754
Si Si5 0.146027 0.137169 0.452801
Si Si6 0.435064 0.145782 0.195912
Si Si7 0.361059 0.502231 0.371894
O O1 0.778001 0.750000 0.221661
O O2 0.675918 0.637312 0.226873
O O3 0.783780 0.623945 0.446791
O O4 0.793069 0.560806 0.155458
O O5 0.599482 0.750000 0.382369
O O6 0.539470 0.901224 0.272591
O O7 0.635504 0.921217 0.492725
O O8 0.526899 0.250000 0.797360
O O9 0.586590 0.106612 0.919479
O O10 0.469482 0.145512 0.018271
O O11 0.409769 0.750000 0.589870
O O12 0.500737 0.631774 0.680557
O O13 0.410738 0.581410 0.450693
O O14 0.373386 0.603878 0.767794
O O15 0.137458 0.250000 0.436791
O O16 0.405547 0.250000 0.223086
O O17 0.383314 0.061462 0.218558
#
# Coordination Sequence:
#
# PCOD9466998 Si02
#       7
#     8   8   8   8   8   8   8
#     4  10  23  42  60  82 116 154 192 237 287 340
#     4  10  23  42  60  82 116 154 192 237 287 340
#     4   8  16  35  61  82 106 148 195 234 277 336
#     4   9  19  36  57  85 120 153 190 239 291 342
#     4   8  16  35  61  82 106 148 195 234 277 336
#     4   9  19  36  57  85 120 153 190 239 291 342
#     4  12  23  34  56  86 115 150 192 238 292 346
#
# _framework density 24.691322
#
# number of rings (size 3 to 8) (size 9 to 14) (size 15 to 20)
#    0.000    2.571    0.000    3.000    0.000    5.714 
#    0.000    5.714    0.000    8.571    0.000    0.000 
#    0.000    0.000    0.000    0.000    0.000    0.000 
#
# Total GULP energy -312698.714936 kJ/mol
# GULP energy per Si atom -5583.905624 kJ/mol
# Density = 2.463512 g / cm^3
# Si number density = 24.691322 Si / 1000 Ang^3
#
#
#
# Elastic Constant Matrix: (Units=GPa)
#
#
# Indices 1 2 3 4 5 6 
#
# 1 87.7852 20.3541 19.3526 0.0000 0.0000 0.0000
# 2 20.3541 117.3577 14.4546 0.0000 0.0000 0.0000
# 3 19.3526 14.4546 38.7292 0.0000 0.0000 0.0000
# 4 0.0000 0.0000 0.0000 -481.8560 0.0000 0.0000
# 5 0.0000 0.0000 0.0000 0.0000 15.2777 0.0000
# 6 0.0000 0.0000 0.0000 0.0000 0.0000 -98.7932
#
#
#
# Elastic Compliance Matrix: (Units=1/GPa)
#
#
# Indices 1 2 3 4 5 6 
#
# 1 0.013059 -0.001532 -0.005954 0.000000 0.000000 0.000000
# 2 -0.001532 0.009111 -0.002635 0.000000 0.000000 0.000000
# 3 -0.005954 -0.002635 0.029779 0.000000 0.000000 0.000000
# 4 0.000000 0.000000 0.000000 -0.002075 0.000000 0.000000
# 5 0.000000 0.000000 0.000000 0.000000 0.065455 0.000000
# 6 0.000000 0.000000 0.000000 0.000000 0.000000 -0.010122
#
#
# Mechanical properties :
#
#
# Convention : Reuss Voigt Hill
#
# Bulk Modulus (GPa) = 31.53789 39.13275 35.33532
# Shear Modulus (GPa) = 36.76000 -100.42692 -31.83346
#
# Velocity S-wave (km/s) = 3.86266 -6.38445 -3.59452
# Velocity P-wave (km/s) = 5.71788 6.20203 1.69868
#
# Compressibility (1/GPa) = 0.03170790
#
# Stress axis : x y z
#
# Youngs Moduli (GPa) = 76.57473 109.75549 33.58077
#
# Poissons Ratio (x) = 0.16810 0.19994
# Poissons Ratio (y) = 0.11728 0.08849
# Poissons Ratio (z) = 0.45592 0.28922
#
# Static dielectric constant tensor:
#      x y z
#    x 1.979540 0.000000 0.000000 
#    y 0.000000 1.948590 0.000000 
#    z 0.000000 0.000000 2.053590 
# 
# From -- ./inp_files/8701.got.cif
#   From: 2010.05.17/outbox.cif.g08.bks.cpg/sg62_5_cif.got.tgz:8701.got - 2010.06.03 15:25:27.
