data_PCOD9466973
_publ_section_title
;
Structure prediction by ZEFSAII (Michael W. Deem and Ramdas Pophale) SiO2 
 PCOD9466973
Probable space group: P N M A
;
_chemical_formula_sum "Si O2"
_cell_formula_units_Z 40
_cell_length_a 9.137650
_cell_length_b 17.838827
_cell_length_c 10.846984
_cell_angle_alpha 90.000000
_cell_angle_beta 90.000000
_cell_angle_gamma 90.000000
_cell_volume 1768.112166
_symmetry_space_group_name_H-M "P N M A"
_symmetry_group_IT_number 62
_symmetry_cell_setting 'orthorhombic'
loop_
_space_group_symop_operation_xyz
x,y,z
1/2-x,-y,1/2+z
1/2+x,1/2-y,1/2-z
-x,1/2+y,-z
-x,-y,-z
1/2+x,y,1/2-z
1/2-x,1/2+y,1/2+z
x,1/2-y,z
loop_
_atom_site_type_symbol
_atom_site_label
_atom_site_fract_x
_atom_site_fract_y
_atom_site_fract_z
Si Si1 0.222957 0.159336 0.402988
Si Si2 0.238294 0.611322 0.421071
Si Si3 0.230541 0.967551 0.079228
Si Si4 0.516192 0.073188 0.745519
Si Si5 0.898141 0.337373 0.336194
O O1 0.226126 0.250000 0.416325
O O2 0.273588 0.115963 0.524038
O O3 0.323174 0.134874 0.288169
O O4 0.057063 0.132881 0.374089
O O5 0.252892 0.525702 0.468919
O O6 0.382449 0.625272 0.340866
O O7 0.097248 0.616709 0.333247
O O8 0.210109 0.654664 0.547544
O O9 0.084814 0.978433 0.158901
O O10 0.370978 0.971435 0.167978
O O11 0.923816 0.250000 0.312607
#
# Coordination Sequence:
#
# PCOD9466973 Si02
#       5
#     8   8   8   8   8
#     4  10  23  41  62  90 121 158 203 249 297 350
#     4  11  23  40  64  87 126 157 202 247 298 356
#     4  11  23  40  64  87 126 157 202 247 298 356
#     4  10  24  40  57  96 117 158 206 238 308 358
#     4  10  23  41  62  90 121 158 203 249 297 350
#
# _framework density 22.622999
#
# number of rings (size 3 to 8) (size 9 to 14) (size 15 to 20)
#    0.000    1.600    2.000    1.200    8.400    0.000 
#    0.000    6.000    0.000    0.000    0.000    0.000 
#    0.000    0.000    0.000    0.000    0.000    0.000 
#
# Total GULP energy -223651.569795 kJ/mol
# GULP energy per Si atom -5591.289245 kJ/mol
# Density = 2.257151 g / cm^3
# Si number density = 22.622999 Si / 1000 Ang^3
#
#
#
# Elastic Constant Matrix: (Units=GPa)
#
#
# Indices 1 2 3 4 5 6 
#
# 1 123.4488 9.6396 57.3858 0.0000 0.0000 0.0000
# 2 9.6396 32.9297 25.8541 0.0000 0.0000 0.0000
# 3 57.3858 25.8541 118.5668 0.0000 0.0000 0.0000
# 4 0.0000 0.0000 0.0000 28.5560 0.0000 0.0000
# 5 0.0000 0.0000 0.0000 0.0000 49.1042 0.0000
# 6 0.0000 0.0000 0.0000 0.0000 0.0000 13.2637
#
#
#
# Elastic Compliance Matrix: (Units=1/GPa)
#
#
# Indices 1 2 3 4 5 6 
#
# 1 0.010485 0.001104 -0.005316 0.000000 0.000000 0.000000
# 2 0.001104 0.036757 -0.008549 0.000000 0.000000 0.000000
# 3 -0.005316 -0.008549 0.012871 0.000000 0.000000 0.000000
# 4 0.000000 0.000000 0.000000 0.035019 0.000000 0.000000
# 5 0.000000 0.000000 0.000000 0.000000 0.020365 0.000000
# 6 0.000000 0.000000 0.000000 0.000000 0.000000 0.075394
#
#
# Mechanical properties :
#
#
# Convention : Reuss Voigt Hill
#
# Bulk Modulus (GPa) = 28.90896 51.18937 40.04917
# Shear Modulus (GPa) = 21.93528 30.32247 26.12887
#
# Velocity S-wave (km/s) = 3.11722 3.66503 3.40217
# Velocity P-wave (km/s) = 5.07567 6.37073 5.75971
#
# Compressibility (1/GPa) = 0.03459135
#
# Stress axis : x y z
#
# Youngs Moduli (GPa) = 95.37171 27.20578 77.69394
#
# Poissons Ratio (x) = -0.03004 0.41299
# Poissons Ratio (y) = -0.10529 0.66424
# Poissons Ratio (z) = 0.50696 0.23259
#
# Static dielectric constant tensor:
#      x y z
#    x 1.844450 0.000000 0.000000 
#    y 0.000000 1.851660 0.000000 
#    z 0.000000 0.000000 1.820160 
# 
# From -- ./inp_files/11085.got.cif
#   From: 2010.05.17/outbox.cif.g08.bks.cpg/sg62_6_cif.got.tgz:11085.got - 2010.06.03 15:25:27.
