data_PCOD9466222
_publ_section_title
;
Structure prediction by ZEFSAII (Michael W. Deem and Ramdas Pophale) SiO2 
 PCOD9466222
Probable space group: P N M A
;
_chemical_formula_sum "Si O2"
_cell_formula_units_Z 64
_cell_length_a 14.368261
_cell_length_b 18.186136
_cell_length_c 11.990618
_cell_angle_alpha 90.000000
_cell_angle_beta 90.000000
_cell_angle_gamma 90.000000
_cell_volume 3133.186237
_symmetry_space_group_name_H-M "P N M A"
_symmetry_group_IT_number 62
_symmetry_cell_setting 'orthorhombic'
loop_
_space_group_symop_operation_xyz
x,y,z
1/2-x,-y,1/2+z
1/2+x,1/2-y,1/2-z
-x,1/2+y,-z
-x,-y,-z
1/2+x,y,1/2-z
1/2-x,1/2+y,1/2+z
x,1/2-y,z
loop_
_atom_site_type_symbol
_atom_site_label
_atom_site_fract_x
_atom_site_fract_y
_atom_site_fract_z
Si Si1 0.750315 0.897582 0.360665
Si Si2 0.302702 0.893161 0.495634
Si Si3 0.405515 0.664885 0.824152
Si Si4 0.013943 0.169527 0.081768
Si Si5 0.138456 0.556257 0.937752
Si Si6 0.746806 0.561575 0.773165
Si Si7 0.851172 0.335154 0.668427
Si Si8 0.550649 0.161860 0.918716
O O1 0.718041 0.905767 0.487721
O O2 0.679974 0.844186 0.296058
O O3 0.857933 0.873896 0.362751
O O4 0.735001 0.976415 0.301309
O O5 0.384495 0.837059 0.525863
O O6 0.240485 0.901118 0.606705
O O7 0.233176 0.872191 0.398394
O O8 0.352585 0.970869 0.469230
O O9 0.368663 0.750000 0.828619
O O10 0.472792 0.663913 0.715964
O O11 0.329263 0.603892 0.791236
O O12 0.447164 0.649318 0.946897
O O13 0.973029 0.250000 0.056849
O O14 0.954333 0.101181 0.038868
O O15 0.159716 0.564998 0.807674
O O16 0.852247 0.250000 0.636472
O O17 0.953437 0.364551 0.635821
O O18 0.557846 0.250000 0.901806
#
# Coordination Sequence:
#
# PCOD9466222 Si02
#       8
#     8   8   8   8   8   8   8   8
#     4  11  23  43  64  91 132 169 213 260 322 385
#     4  10  22  42  62  90 133 171 212 271 325 380
#     4   9  19  40  65  92 128 165 212 272 323 373
#     4  10  22  38  63  97 128 167 214 268 333 387
#     4  11  22  40  64  93 128 171 215 263 320 388
#     4  10  21  40  63  92 123 166 215 263 319 375
#     4  11  24  42  67  96 128 170 219 264 323 394
#     4  10  22  41  65  94 127 169 216 267 319 383
#
# _framework density 20.426490999999999
#
# number of rings (size 3 to 8) (size 9 to 14) (size 15 to 20)
#    0.000    1.750    2.500    1.125    1.750    3.000 
#    6.750    4.375    0.000    0.000    0.000    0.000 
#    0.000    0.000    0.000    0.000    0.000    0.000 
#
# Total GULP energy -356853.998556 kJ/mol
# GULP energy per Si atom -5575.843727 kJ/mol
# Density = 2.038000 g / cm^3
# Si number density = 20.426491 Si / 1000 Ang^3
#
#
#
# Elastic Constant Matrix: (Units=GPa)
#
#
# Indices 1 2 3 4 5 6 
#
# 1 74.7938 45.9307 11.8397 0.0000 0.0000 0.0000
# 2 45.9307 75.0220 29.4813 0.0000 0.0000 0.0000
# 3 11.8397 29.4813 52.0717 0.0000 0.0000 0.0000
# 4 0.0000 0.0000 0.0000 8.0643 0.0000 0.0000
# 5 0.0000 0.0000 0.0000 0.0000 18.9565 0.0000
# 6 0.0000 0.0000 0.0000 0.0000 0.0000 28.7638
#
#
#
# Elastic Compliance Matrix: (Units=1/GPa)
#
#
# Indices 1 2 3 4 5 6 
#
# 1 0.021872 -0.014709 0.003355 0.000000 0.000000 0.000000
# 2 -0.014709 0.027035 -0.011962 0.000000 0.000000 0.000000
# 3 0.003355 -0.011962 0.025214 0.000000 0.000000 0.000000
# 4 0.000000 0.000000 0.000000 0.124004 0.000000 0.000000
# 5 0.000000 0.000000 0.000000 0.000000 0.052752 0.000000
# 6 0.000000 0.000000 0.000000 0.000000 0.000000 0.034766
#
#
# Mechanical properties :
#
#
# Convention : Reuss Voigt Hill
#
# Bulk Modulus (GPa) = 36.37886 41.82121 39.10004
# Shear Modulus (GPa) = 14.64393 18.79930 16.72161
#
# Velocity S-wave (km/s) = 2.68042 3.03700 2.86426
# Velocity P-wave (km/s) = 5.23716 5.72855 5.48836
#
# Compressibility (1/GPa) = 0.02748849
#
# Stress axis : x y z
#
# Youngs Moduli (GPa) = 45.72123 36.98870 39.66035
#
# Poissons Ratio (x) = 0.54406 -0.13304
# Poissons Ratio (y) = 0.67250 0.47442
# Poissons Ratio (z) = -0.15337 0.44246
#
# Static dielectric constant tensor:
#      x y z
#    x 1.714880 0.000000 0.000000 
#    y 0.000000 1.762680 0.000000 
#    z 0.000000 0.000000 1.730410 
# 
# From -- ./inp_files/13604.got.cif
#   From: 2010.05.17/outbox.cif.g08.bks.cpg/sg62_7_cif.got.tgz:13604.got - 2010.06.03 15:25:27.
