data_PCOD9466168
_publ_section_title
;
Structure prediction by ZEFSAII (Michael W. Deem and Ramdas Pophale) SiO2 
 PCOD9466168
Probable space group: P N M A
;
_chemical_formula_sum "Si O2"
_cell_formula_units_Z 40
_cell_length_a 26.671508
_cell_length_b 13.228260
_cell_length_c 5.233798
_cell_angle_alpha 90.000000
_cell_angle_beta 90.000000
_cell_angle_gamma 90.000000
_cell_volume 1846.576271
_symmetry_space_group_name_H-M "P N M A"
_symmetry_group_IT_number 62
_symmetry_cell_setting 'orthorhombic'
loop_
_space_group_symop_operation_xyz
x,y,z
1/2-x,-y,1/2+z
1/2+x,1/2-y,1/2-z
-x,1/2+y,-z
-x,-y,-z
1/2+x,y,1/2-z
1/2-x,1/2+y,1/2+z
x,1/2-y,z
loop_
_atom_site_type_symbol
_atom_site_label
_atom_site_fract_x
_atom_site_fract_y
_atom_site_fract_z
Si Si1 0.300828 0.637697 0.138223
Si Si2 0.034183 0.515113 0.249296
Si Si3 0.802976 0.068349 0.679642
Si Si4 0.623674 0.026286 0.546125
Si Si5 0.901241 0.140788 0.434820
O O1 0.301764 0.750000 0.024643
O O2 0.249708 0.623110 0.298166
O O3 0.349955 0.618358 0.311055
O O4 0.298440 0.542646 0.946801
O O5 0.062306 0.619778 0.324052
O O6 0.000000 0.500000 0.500000
O O7 0.084468 0.449020 0.180759
O O8 0.000000 0.500000 0.000000
O O9 0.844086 0.132802 0.529289
O O10 0.830163 0.042369 0.945987
O O11 0.594740 0.953103 0.742275
O O12 0.911845 0.250000 0.320890
#
# Coordination Sequence:
#
# PCOD9466168 Si02
#       5
#     8   8   8   8   8
#     4  11  22  39  63  93 136 187 229 284 358 418
#     4  11  22  44  71  94 133 180 223 293 356 408
#     4  10  21  40  59  95 137 176 230 289 335 413
#     4  10  22  41  65  92 137 174 230 289 345 416
#     4  10  22  40  69 102 129 171 228 286 347 417
#
# _framework density 21.661708999999998
#
# number of rings (size 3 to 8) (size 9 to 14) (size 15 to 20)
#    0.000    1.600    4.000    0.600    0.000    4.800 
#    0.000    2.000    0.000    4.800    0.000    0.000 
#    0.000    0.000    0.000    0.000    0.000    0.000 
#
# Total GULP energy -222761.026189 kJ/mol
# GULP energy per Si atom -5569.025655 kJ/mol
# Density = 2.161241 g / cm^3
# Si number density = 21.661709 Si / 1000 Ang^3
#
#
#
# Elastic Constant Matrix: (Units=GPa)
#
#
# Indices 1 2 3 4 5 6 
#
# 1 130.9114 36.0589 40.4124 0.0000 0.0000 0.0000
# 2 36.0589 98.7782 18.9279 0.0000 0.0000 0.0000
# 3 40.4124 18.9279 89.4293 0.0000 0.0000 0.0000
# 4 0.0000 0.0000 0.0000 7.3434 0.0000 0.0000
# 5 0.0000 0.0000 0.0000 0.0000 46.5401 0.0000
# 6 0.0000 0.0000 0.0000 0.0000 0.0000 7.3024
#
#
#
# Elastic Compliance Matrix: (Units=1/GPa)
#
#
# Indices 1 2 3 4 5 6 
#
# 1 0.009554 -0.002773 -0.003731 0.000000 0.000000 0.000000
# 2 -0.002773 0.011356 -0.001151 0.000000 0.000000 0.000000
# 3 -0.003731 -0.001151 0.013111 0.000000 0.000000 0.000000
# 4 0.000000 0.000000 0.000000 0.136177 0.000000 0.000000
# 5 0.000000 0.000000 0.000000 0.000000 0.021487 0.000000
# 6 0.000000 0.000000 0.000000 0.000000 0.000000 0.136941
#
#
# Mechanical properties :
#
#
# Convention : Reuss Voigt Hill
#
# Bulk Modulus (GPa) = 53.43626 56.65750 55.04688
# Shear Modulus (GPa) = 14.27868 27.15182 20.71525
#
# Velocity S-wave (km/s) = 2.57021 3.54425 3.09578
# Velocity P-wave (km/s) = 5.79051 6.55449 6.18431
#
# Compressibility (1/GPa) = 0.01871388
#
# Stress axis : x y z
#
# Youngs Moduli (GPa) = 104.66638 88.05605 76.26979
#
# Poissons Ratio (x) = 0.24417 0.28453
# Poissons Ratio (y) = 0.29023 0.08775
# Poissons Ratio (z) = 0.39047 0.10131
#
# Static dielectric constant tensor:
#      x y z
#    x 1.850480 0.000000 0.000000 
#    y 0.000000 -0.002310 0.000000 
#    z 0.000000 0.000000 1.935300 
# 
# From -- ./inp_files/3043.got.cif
#   From: 2010.05.17/outbox.cif.g08.bks.cpg/sg62_2_cif.got.tgz:3043.got - 2010.06.03 15:25:27.
