data_PCOD9466964
_publ_section_title
;
Structure prediction by ZEFSAII (Michael W. Deem and Ramdas Pophale) SiO2 
 PCOD9466964
Probable space group: P N M A
;
_chemical_formula_sum "Si O2"
_cell_formula_units_Z 64
_cell_length_a 12.152872
_cell_length_b 28.014325
_cell_length_c 9.345554
_cell_angle_alpha 90.000000
_cell_angle_beta 90.000000
_cell_angle_gamma 90.000000
_cell_volume 3181.735969
_symmetry_space_group_name_H-M "P N M A"
_symmetry_group_IT_number 62
_symmetry_cell_setting 'orthorhombic'
loop_
_space_group_symop_operation_xyz
x,y,z
1/2-x,-y,1/2+z
1/2+x,1/2-y,1/2-z
-x,1/2+y,-z
-x,-y,-z
1/2+x,y,1/2-z
1/2-x,1/2+y,1/2+z
x,1/2-y,z
loop_
_atom_site_type_symbol
_atom_site_label
_atom_site_fract_x
_atom_site_fract_y
_atom_site_fract_z
Si Si1 0.372471 0.477962 0.276239
Si Si2 0.075151 0.868963 0.743221
Si Si3 0.984620 0.305413 0.679160
Si Si4 0.546825 0.144823 0.540277
Si Si5 0.718653 0.807422 0.965749
Si Si6 0.021185 0.938373 0.230558
Si Si7 0.420203 0.884466 0.014022
Si Si8 0.267484 0.043719 0.568621
O O1 0.377550 0.422408 0.242429
O O2 0.487921 0.506209 0.273641
O O3 0.301183 0.506439 0.161321
O O4 0.324454 0.481638 0.435244
O O5 0.160862 0.831791 0.672943
O O6 0.970636 0.872229 0.637694
O O7 0.028792 0.858272 0.900117
O O8 0.006978 0.250000 0.669750
O O9 0.871011 0.315027 0.593486
O O10 0.986053 0.322754 0.841544
O O11 0.080850 0.335530 0.602318
O O12 0.665910 0.166944 0.502418
O O13 0.553183 0.093162 0.620683
O O14 0.733172 0.750000 0.948665
O O15 0.001646 0.917271 0.388065
O O16 0.143043 0.933310 0.173028
O O17 0.309866 0.914436 0.009326
#
# Coordination Sequence:
#
# PCOD9466964 Si02
#       8
#     8   8   8   8   8   8   8   8
#     4  11  26  38  63  92 128 174 215 268 325 391
#     4  11  25  41  65  94 139 168 217 273 331 392
#     4   9  20  43  68  94 125 162 218 274 328 395
#     4  11  23  40  69  97 130 172 218 272 333 392
#     4  10  24  45  69  97 131 175 219 272 345 403
#     4  10  23  41  60  91 129 166 221 272 313 387
#     4   9  23  39  62  92 124 172 210 261 326 390
#     4  11  24  40  63  91 130 169 222 262 326 388
#
# _framework density 20.114805
#
# number of rings (size 3 to 8) (size 9 to 14) (size 15 to 20)
#    0.000    1.750    1.250    0.750    7.000   10.000 
#    0.000    0.000    0.000    0.750    0.000    0.000 
#    0.000    0.000    0.000    0.000    0.000    0.000 
#
# Total GULP energy -357383.992885 kJ/mol
# GULP energy per Si atom -5584.124889 kJ/mol
# Density = 2.006902 g / cm^3
# Si number density = 20.114805 Si / 1000 Ang^3
#
#
#
# Elastic Constant Matrix: (Units=GPa)
#
#
# Indices 1 2 3 4 5 6 
#
# 1 -2.9830 -4.4207 -36.1310 0.0000 0.0000 0.0000
# 2 -4.4207 73.3868 -9.6849 0.0000 0.0000 0.0000
# 3 -36.1310 -9.6849 57.2831 0.0000 0.0000 0.0000
# 4 0.0000 0.0000 0.0000 18.7205 0.0000 0.0000
# 5 0.0000 0.0000 0.0000 0.0000 24.3798 0.0000
# 6 0.0000 0.0000 0.0000 0.0000 0.0000 27.2407
#
#
#
# Elastic Compliance Matrix: (Units=1/GPa)
#
#
# Indices 1 2 3 4 5 6 
#
# 1 -0.036606 -0.005372 -0.023997 0.000000 0.000000 0.000000
# 2 -0.005372 0.013149 -0.001165 0.000000 0.000000 0.000000
# 3 -0.023997 -0.001165 0.002124 0.000000 0.000000 0.000000
# 4 0.000000 0.000000 0.000000 0.053417 0.000000 0.000000
# 5 0.000000 0.000000 0.000000 0.000000 0.041017 0.000000
# 6 0.000000 0.000000 0.000000 0.000000 0.000000 0.036710
#
#
# Mechanical properties :
#
#
# Convention : Reuss Voigt Hill
#
# Bulk Modulus (GPa) = -12.13546 3.02372 -4.55587
# Shear Modulus (GPa) = 34.86426 25.92977 30.39701
#
# Velocity S-wave (km/s) = 4.16776 3.59428 3.89160
# Velocity P-wave (km/s) = 4.13693 4.32801 4.23355
#
# Compressibility (1/GPa) = -0.08240317
#
# Stress axis : x y z
#
# Youngs Moduli (GPa) = -27.31770 76.05120 470.84094
#
# Poissons Ratio (x) = 0.40855 11.29900
# Poissons Ratio (y) = -0.14675 0.54867
# Poissons Ratio (z) = -0.65556 0.08862
#
# Static dielectric constant tensor:
#      x y z
#    x 1.718180 0.000000 0.000000 
#    y 0.000000 1.711360 0.000000 
#    z 0.000000 0.000000 1.706970 
# 
# From -- ./inp_files/5521.got.cif
#   From: 2010.05.17/outbox.cif.g08.bks.cpg/sg62_3_cif.got.tgz:5521.got - 2010.06.03 15:25:27.
