data_PCOD9466842
_publ_section_title
;
Structure prediction by ZEFSAII (Michael W. Deem and Ramdas Pophale) SiO2 
 PCOD9466842
Probable space group: P N M A
;
_chemical_formula_sum "Si O2"
_cell_formula_units_Z 40
_cell_length_a 24.287019
_cell_length_b 14.174621
_cell_length_c 5.027856
_cell_angle_alpha 90.000000
_cell_angle_beta 90.000000
_cell_angle_gamma 90.000000
_cell_volume 1730.886134
_symmetry_space_group_name_H-M "P N M A"
_symmetry_group_IT_number 62
_symmetry_cell_setting 'orthorhombic'
loop_
_space_group_symop_operation_xyz
x,y,z
1/2-x,-y,1/2+z
1/2+x,1/2-y,1/2-z
-x,1/2+y,-z
-x,-y,-z
1/2+x,y,1/2-z
1/2-x,1/2+y,1/2+z
x,1/2-y,z
loop_
_atom_site_type_symbol
_atom_site_label
_atom_site_fract_x
_atom_site_fract_y
_atom_site_fract_z
Si Si1 0.617827 0.954908 0.333148
Si Si2 0.058215 0.416470 0.533421
Si Si3 0.011999 0.639252 0.976534
Si Si4 0.151232 0.149094 0.870489
Si Si5 0.239643 0.937151 0.190568
O O1 0.574846 0.895129 0.504682
O O2 0.676407 0.905543 0.288993
O O3 0.634345 0.055815 0.465329
O O4 0.585628 0.986477 0.067712
O O5 0.110346 0.354577 0.619391
O O6 0.020158 0.376907 0.298400
O O7 0.021205 0.418420 0.797501
O O8 0.009053 0.750000 0.043767
O O9 0.143599 0.250000 0.007351
O O10 0.213710 0.135643 0.777223
O O11 0.247215 0.024618 0.396084
#
# Coordination Sequence:
#
# PCOD9466842 Si02
#       5
#     8   8   8   8   8
#     4  11  25  44  71  95 138 174 227 272 339 391
#     4  12  24  44  63  98 133 174 221 277 328 391
#     4  12  27  42  66  98 137 179 224 274 333 397
#     4  11  24  42  70 101 132 175 222 274 332 395
#     4  10  22  43  63  92 126 166 211 272 324 386
#
# _framework density 23.109549000000001
#
# number of rings (size 3 to 8) (size 9 to 14) (size 15 to 20)
#    0.000    0.800    4.000    3.000    2.800    2.400 
#    0.000    0.000    0.000    1.200    0.000    0.000 
#    0.000    0.000    0.000    0.000    0.000    0.000 
#
# Total GULP energy -223737.133153 kJ/mol
# GULP energy per Si atom -5593.428329 kJ/mol
# Density = 2.305695 g / cm^3
# Si number density = 23.109549 Si / 1000 Ang^3
#
#
#
# Elastic Constant Matrix: (Units=GPa)
#
#
# Indices 1 2 3 4 5 6 
#
# 1 204.1996 36.5167 46.1089 0.0000 0.0000 0.0000
# 2 36.5167 61.7396 11.9575 0.0000 0.0000 0.0000
# 3 46.1089 11.9575 107.1546 0.0000 0.0000 0.0000
# 4 0.0000 0.0000 0.0000 17.3794 0.0000 0.0000
# 5 0.0000 0.0000 0.0000 0.0000 25.3870 0.0000
# 6 0.0000 0.0000 0.0000 0.0000 0.0000 -9.6474
#
#
#
# Elastic Compliance Matrix: (Units=1/GPa)
#
#
# Indices 1 2 3 4 5 6 
#
# 1 0.005950 -0.003090 -0.002215 0.000000 0.000000 0.000000
# 2 -0.003090 0.018160 -0.000697 0.000000 0.000000 0.000000
# 3 -0.002215 -0.000697 0.010363 0.000000 0.000000 0.000000
# 4 0.000000 0.000000 0.000000 0.057539 0.000000 0.000000
# 5 0.000000 0.000000 0.000000 0.000000 0.039390 0.000000
# 6 0.000000 0.000000 0.000000 0.000000 0.000000 -0.103654
#
#
# Mechanical properties :
#
#
# Convention : Reuss Voigt Hill
#
# Bulk Modulus (GPa) = 44.50703 62.47334 53.49019
# Shear Modulus (GPa) = 105.83692 25.19118 65.51405
#
# Velocity S-wave (km/s) = 6.77476 3.30521 5.33019
# Velocity P-wave (km/s) = 8.97204 6.45431 7.81523
#
# Compressibility (1/GPa) = 0.02246836
#
# Stress axis : x y z
#
# Youngs Moduli (GPa) = 168.06615 55.06691 96.49347
#
# Poissons Ratio (x) = 0.17016 0.21378
# Poissons Ratio (y) = 0.51935 0.06723
# Poissons Ratio (z) = 0.37235 0.03837
#
# Static dielectric constant tensor:
#      x y z
#    x 1.898080 0.000000 0.000000 
#    y 0.000000 1.920680 0.000000 
#    z 0.000000 0.000000 1.890920 
# 
# From -- ./inp_files/3109.got.cif
#   From: 2010.05.17/outbox.cif.g08.bks.cpg/sg62_2_cif.got.tgz:3109.got - 2010.06.03 15:25:27.
