data_PCOD9466497
_publ_section_title
;
Structure prediction by ZEFSAII (Michael W. Deem and Ramdas Pophale) SiO2 
 PCOD9466497
Probable space group: P N M A
;
_chemical_formula_sum "Si O2"
_cell_formula_units_Z 56
_cell_length_a 20.349958
_cell_length_b 7.698544
_cell_length_c 16.539860
_cell_angle_alpha 90.000000
_cell_angle_beta 90.000000
_cell_angle_gamma 90.000000
_cell_volume 2591.217945
_symmetry_space_group_name_H-M "P N M A"
_symmetry_group_IT_number 62
_symmetry_cell_setting 'orthorhombic'
loop_
_space_group_symop_operation_xyz
x,y,z
1/2-x,-y,1/2+z
1/2+x,1/2-y,1/2-z
-x,1/2+y,-z
-x,-y,-z
1/2+x,y,1/2-z
1/2-x,1/2+y,1/2+z
x,1/2-y,z
loop_
_atom_site_type_symbol
_atom_site_label
_atom_site_fract_x
_atom_site_fract_y
_atom_site_fract_z
Si Si1 0.457946 0.454642 0.256214
Si Si2 0.670481 0.537542 0.654071
Si Si3 0.818929 0.959658 0.672601
Si Si4 0.592459 0.546493 0.325255
Si Si5 0.683518 0.961786 0.469564
Si Si6 0.667308 0.460616 0.986295
Si Si7 0.467196 0.443570 0.082995
O O1 0.444505 0.250000 0.242808
O O2 0.390937 0.526536 0.293965
O O3 0.520535 0.468011 0.313942
O O4 0.477499 0.534104 0.169188
O O5 0.670440 0.750000 0.654513
O O6 0.742970 0.484043 0.683814
O O7 0.663835 0.485234 0.560180
O O8 0.820269 0.750000 0.674559
O O9 0.839350 0.009499 0.581196
O O10 0.866070 0.023765 0.742958
O O11 0.582805 0.750000 0.339632
O O12 0.635549 0.474855 0.399455
O O13 0.682966 0.750000 0.468127
O O14 0.759728 0.011130 0.458210
O O15 0.661202 0.250000 0.981279
O O16 0.610358 0.545355 0.934113
O O17 0.493383 0.250000 0.093446
O O18 0.500000 0.500000 0.000000
#
# Coordination Sequence:
#
# PCOD9466497 Si02
#       7
#     8   8   8   8   8   8   8
#     4  10  22  38  55  78 106 142 186 225 262 313
#     4   8  16  35  59  78 102 139 182 224 265 313
#     4   9  18  34  58  81 104 139 181 221 264 318
#     4  11  22  34  52  81 113 142 174 216 271 328
#     4   8  17  34  55  80 107 138 174 216 272 326
#     4   9  18  35  57  79 104 138 178 219 267 323
#     4  11  23  36  53  79 110 143 181 222 268 320
#
# _framework density 21.611457000000001
#
# number of rings (size 3 to 8) (size 9 to 14) (size 15 to 20)
#    0.000    2.571    0.000    3.429    2.000    5.714 
#    0.000    1.429    0.000    3.429    0.000    0.000 
#    0.000    0.000    0.000    0.000    0.000    0.000 
#
# Total GULP energy -312621.247008 kJ/mol
# GULP energy per Si atom -5582.522268 kJ/mol
# Density = 2.156227 g / cm^3
# Si number density = 21.611457 Si / 1000 Ang^3
#
#
#
# Elastic Constant Matrix: (Units=GPa)
#
#
# Indices 1 2 3 4 5 6 
#
# 1 70.4506 -10.7334 22.3170 0.0000 0.0000 0.0000
# 2 -10.7334 26.5626 -2.0331 0.0000 0.0000 0.0000
# 3 22.3170 -2.0331 34.7447 0.0000 0.0000 0.0000
# 4 0.0000 0.0000 0.0000 10.7228 0.0000 0.0000
# 5 0.0000 0.0000 0.0000 0.0000 36.7067 0.0000
# 6 0.0000 0.0000 0.0000 0.0000 0.0000 21.0815
#
#
#
# Elastic Compliance Matrix: (Units=1/GPa)
#
#
# Indices 1 2 3 4 5 6 
#
# 1 0.018956 0.006758 -0.011780 0.000000 0.000000 0.000000
# 2 0.006758 0.040226 -0.001987 0.000000 0.000000 0.000000
# 3 -0.011780 -0.001987 0.036232 0.000000 0.000000 0.000000
# 4 0.000000 0.000000 0.000000 0.093259 0.000000 0.000000
# 5 0.000000 0.000000 0.000000 0.000000 0.027243 0.000000
# 6 0.000000 0.000000 0.000000 0.000000 0.000000 0.047435
#
#
# Mechanical properties :
#
#
# Convention : Reuss Voigt Hill
#
# Bulk Modulus (GPa) = 12.28582 16.76212 14.52397
# Shear Modulus (GPa) = 16.42038 21.84935 19.13487
#
# Velocity S-wave (km/s) = 2.75944 3.18308 2.97880
# Velocity P-wave (km/s) = 3.98119 4.61328 4.30884
#
# Compressibility (1/GPa) = 0.08139464
#
# Stress axis : x y z
#
# Youngs Moduli (GPa) = 52.75496 24.85981 27.60024
#
# Poissons Ratio (x) = -0.16800 0.32513
# Poissons Ratio (y) = -0.35652 0.05484
# Poissons Ratio (z) = 0.62145 0.04940
#
# Static dielectric constant tensor:
#      x y z
#    x 1.763330 0.000000 0.000000 
#    y 0.000000 1.797230 0.000000 
#    z 0.000000 0.000000 1.801400 
# 
# From -- ./inp_files/20195.got.cif
#   From: 2010.05.17/outbox.cif.g08.bks.cpg/sg62_11_cif.got.tgz:20195.got - 2010.06.03 15:25:27.
