data_PCOD9466295
_publ_section_title
;
Structure prediction by ZEFSAII (Michael W. Deem and Ramdas Pophale) SiO2 
 PCOD9466295
Probable space group: P N M A
;
_chemical_formula_sum "Si O2"
_cell_formula_units_Z 60
_cell_length_a 12.708206
_cell_length_b 20.710413
_cell_length_c 9.746814
_cell_angle_alpha 90.000000
_cell_angle_beta 90.000000
_cell_angle_gamma 90.000000
_cell_volume 2565.285368
_symmetry_space_group_name_H-M "P N M A"
_symmetry_group_IT_number 62
_symmetry_cell_setting 'orthorhombic'
loop_
_space_group_symop_operation_xyz
x,y,z
1/2-x,-y,1/2+z
1/2+x,1/2-y,1/2-z
-x,1/2+y,-z
-x,-y,-z
1/2+x,y,1/2-z
1/2-x,1/2+y,1/2+z
x,1/2-y,z
loop_
_atom_site_type_symbol
_atom_site_label
_atom_site_fract_x
_atom_site_fract_y
_atom_site_fract_z
Si Si1 0.603205 0.126560 0.267930
Si Si2 0.770825 0.984598 0.706995
Si Si3 0.705318 0.173551 0.842184
Si Si4 0.532394 0.826436 0.078648
Si Si5 0.225889 0.250000 0.281340
Si Si6 0.874676 0.371320 0.295027
Si Si7 0.640525 0.093533 0.573019
Si Si8 0.101836 0.596635 0.151789
O O1 0.642868 0.069172 0.169066
O O2 0.634549 0.194421 0.207870
O O3 0.480368 0.122673 0.291598
O O4 0.654410 0.120352 0.420136
O O5 0.683797 0.939404 0.777559
O O6 0.708707 0.029149 0.599882
O O7 0.837406 0.032079 0.804267
O O8 0.726349 0.250000 0.834213
O O9 0.593428 0.164746 0.915730
O O10 0.682744 0.142821 0.690912
O O11 0.804210 0.139019 0.916769
O O12 0.554605 0.750000 0.081273
O O13 0.576785 0.860429 0.214001
O O14 0.587240 0.858616 0.949249
O O15 0.311418 0.191480 0.254701
O O16 0.514410 0.083253 0.592588
#
# Coordination Sequence:
#
# PCOD9466295 Si02
#       8
#     8   8   8   8   4   8   8   8
#     4  11  25  46  68  99 137 175 218 276 332 397
#     4  10  24  40  63  95 124 177 225 264 329 386
#     4   9  20  38  64 100 131 172 221 268 333 388
#     4  10  21  40  68  95 133 173 214 277 327 398
#     4  10  24  42  72  98 128 178 216 264 334 406
#     4  11  23  43  64 100 128 172 222 267 336 394
#     4  10  23  44  66  95 133 176 222 276 331 387
#     4  10  21  41  63  97 132 172 223 274 327 388
#
# _framework density 23.389211
#
# number of rings (size 3 to 8) (size 9 to 14) (size 15 to 20)
#    0.000    1.867    0.667    1.600    8.400    2.667 
#   12.000    6.667    0.000    0.000    0.000    0.000 
#    0.000    0.000    0.000    0.000    0.000    0.000 
#
# Total GULP energy -334353.892349 kJ/mol
# GULP energy per Si atom -5572.564872 kJ/mol
# Density = 2.333598 g / cm^3
# Si number density = 23.389211 Si / 1000 Ang^3
#
#
#
# Elastic Constant Matrix: (Units=GPa)
#
#
# Indices 1 2 3 4 5 6 
#
# 1 138.4797 51.8161 -0.7694 0.0000 0.0000 0.0000
# 2 51.8161 158.0840 13.0667 0.0000 0.0000 0.0000
# 3 -0.7694 13.0667 66.7024 0.0000 0.0000 0.0000
# 4 0.0000 0.0000 0.0000 -5.6204 0.0000 0.0000
# 5 0.0000 0.0000 0.0000 0.0000 22.3809 0.0000
# 6 0.0000 0.0000 0.0000 0.0000 0.0000 -1.7879
#
#
#
# Elastic Compliance Matrix: (Units=1/GPa)
#
#
# Indices 1 2 3 4 5 6 
#
# 1 0.008257 -0.002759 0.000636 0.000000 0.000000 0.000000
# 2 -0.002759 0.007352 -0.001472 0.000000 0.000000 0.000000
# 3 0.000636 -0.001472 0.015288 0.000000 0.000000 0.000000
# 4 0.000000 0.000000 0.000000 -0.177922 0.000000 0.000000
# 5 0.000000 0.000000 0.000000 0.000000 0.044681 0.000000
# 6 0.000000 0.000000 0.000000 0.000000 0.000000 -0.559312
#
#
# Mechanical properties :
#
#
# Convention : Reuss Voigt Hill
#
# Bulk Modulus (GPa) = 42.18348 54.61031 48.39689
# Shear Modulus (GPa) = -7.73318 22.93802 7.60242
#
# Velocity S-wave (km/s) = -1.82030 3.13503 1.80484
# Velocity P-wave (km/s) = 3.69549 6.04183 5.00801
#
# Compressibility (1/GPa) = 0.02370596
#
# Stress axis : x y z
#
# Youngs Moduli (GPa) = 121.10664 136.02159 65.41228
#
# Poissons Ratio (x) = 0.37529 -0.04158
# Poissons Ratio (y) = 0.33414 0.09629
# Poissons Ratio (z) = -0.07699 0.20022
#
# Static dielectric constant tensor:
#      x y z
#    x 1.945460 0.000000 0.000000 
#    y 0.000000 1.829630 0.000000 
#    z 0.000000 0.000000 1.939340 
# 
# From -- ./inp_files/12452.got.cif
#   From: 2010.05.17/outbox.cif.g08.bks.cpg/sg62_7_cif.got.tgz:12452.got - 2010.06.03 15:25:27.
