data_PCOD9466434
_publ_section_title
;
Structure prediction by ZEFSAII (Michael W. Deem and Ramdas Pophale) SiO2 
 PCOD9466434
Probable space group: P N M A
;
_chemical_formula_sum "Si O2"
_cell_formula_units_Z 56
_cell_length_a 14.044628
_cell_length_b 28.299441
_cell_length_c 6.269433
_cell_angle_alpha 90.000000
_cell_angle_beta 90.000000
_cell_angle_gamma 90.000000
_cell_volume 2491.818254
_symmetry_space_group_name_H-M "P N M A"
_symmetry_group_IT_number 62
_symmetry_cell_setting 'orthorhombic'
loop_
_space_group_symop_operation_xyz
x,y,z
1/2-x,-y,1/2+z
1/2+x,1/2-y,1/2-z
-x,1/2+y,-z
-x,-y,-z
1/2+x,y,1/2-z
1/2-x,1/2+y,1/2+z
x,1/2-y,z
loop_
_atom_site_type_symbol
_atom_site_label
_atom_site_fract_x
_atom_site_fract_y
_atom_site_fract_z
Si Si1 0.097510 0.250000 0.076187
Si Si2 0.235169 0.974543 0.341715
Si Si3 0.800191 0.651210 0.845102
Si Si4 0.807594 0.110037 0.978859
Si Si5 0.401096 0.347844 0.906660
Si Si6 0.618167 0.050001 0.367291
Si Si7 0.429337 0.435446 0.148601
Si Si8 0.009598 0.250000 0.572967
O O1 0.153849 0.200586 0.093315
O O2 0.052290 0.250000 0.324414
O O3 0.056077 0.250000 0.822986
O O4 0.228784 0.932412 0.170526
O O5 0.345368 0.974091 0.415040
O O6 0.149326 0.961040 0.504231
O O7 0.201156 0.026171 0.273480
O O8 0.771935 0.641339 0.598202
O O9 0.865094 0.605634 0.898894
O O10 0.700355 0.649011 0.971677
O O11 0.874378 0.142919 0.836259
O O12 0.875102 0.087156 0.153502
O O13 0.449395 0.297925 0.931599
O O14 0.463035 0.391086 0.001389
O O15 0.520135 0.039030 0.251721
#
# Coordination Sequence:
#
# PCOD9466434 Si02
#       8
#     4   8   8   8   8   8   8   4
#     4  12  31  47  74 116 148 182 264 297 382 455
#     4  11  24  45  63 110 141 192 244 303 372 453
#     4  11  24  47  72 104 140 191 240 303 366 443
#     4  10  21  45  72  97 143 182 241 298 370 454
#     4  10  23  46  72 100 143 190 243 302 380 435
#     4  12  23  43  71  95 149 187 243 304 371 445
#     4  10  23  45  68 102 139 194 242 303 375 453
#     4  12  29  47  72 110 148 190 246 319 372 457
#
# _framework density 22.473549999999999
#
# number of rings (size 3 to 8) (size 9 to 14) (size 15 to 20)
#    0.000    1.143    4.286    2.571    8.000    1.143 
#   10.286    0.000    0.000    0.000    0.000    0.000 
#    0.000    0.000    0.000    0.000    0.000    0.000 
#
# Total GULP energy -311887.791346 kJ/mol
# GULP energy per Si atom -5569.424845 kJ/mol
# Density = 2.242240 g / cm^3
# Si number density = 22.473550 Si / 1000 Ang^3
#
#
#
# Elastic Constant Matrix: (Units=GPa)
#
#
# Indices 1 2 3 4 5 6 
#
# 1 59.6839 30.7752 17.7547 0.0000 0.0000 0.0000
# 2 30.7752 84.7060 6.7114 0.0000 0.0000 0.0000
# 3 17.7547 6.7114 87.3059 0.0000 0.0000 0.0000
# 4 0.0000 0.0000 0.0000 30.4848 0.0000 0.0000
# 5 0.0000 0.0000 0.0000 0.0000 25.1875 0.0000
# 6 0.0000 0.0000 0.0000 0.0000 0.0000 39.6489
#
#
#
# Elastic Compliance Matrix: (Units=1/GPa)
#
#
# Indices 1 2 3 4 5 6 
#
# 1 0.021834 -0.007627 -0.003854 0.000000 0.000000 0.000000
# 2 -0.007627 0.014542 0.000433 0.000000 0.000000 0.000000
# 3 -0.003854 0.000433 0.012204 0.000000 0.000000 0.000000
# 4 0.000000 0.000000 0.000000 0.032803 0.000000 0.000000
# 5 0.000000 0.000000 0.000000 0.000000 0.039702 0.000000
# 6 0.000000 0.000000 0.000000 0.000000 0.000000 0.025221
#
#
# Mechanical properties :
#
#
# Convention : Reuss Voigt Hill
#
# Bulk Modulus (GPa) = 37.75743 38.01982 37.88863
# Shear Modulus (GPa) = 28.21149 30.82788 29.51968
#
# Velocity S-wave (km/s) = 3.54689 3.70772 3.62820
# Velocity P-wave (km/s) = 5.79752 5.94002 5.86920
#
# Compressibility (1/GPa) = 0.02648486
#
# Stress axis : x y z
#
# Youngs Moduli (GPa) = 45.79926 68.76441 81.93748
#
# Poissons Ratio (x) = 0.52450 0.31578
# Poissons Ratio (y) = 0.34933 -0.03550
# Poissons Ratio (z) = 0.17651 -0.02979
#
# Static dielectric constant tensor:
#      x y z
#    x 1.839200 0.000000 0.000000 
#    y 0.000000 1.816590 0.000000 
#    z 0.000000 0.000000 2.062530 
# 
# From -- ./inp_files/1315.got.cif
#   From: 2010.05.17/outbox.cif.g08.bks.cpg/sg62_1_cif.got.tgz:1315.got - 2010.06.03 15:25:27.
