data_PCOD9466645
_publ_section_title
;
Structure prediction by ZEFSAII (Michael W. Deem and Ramdas Pophale) SiO2 
 PCOD9466645
Probable space group: P N M A
;
_chemical_formula_sum "Si O2"
_cell_formula_units_Z 48
_cell_length_a 15.826957
_cell_length_b 10.144284
_cell_length_c 13.520620
_cell_angle_alpha 90.000000
_cell_angle_beta 90.000000
_cell_angle_gamma 90.000000
_cell_volume 2170.778086
_symmetry_space_group_name_H-M "P N M A"
_symmetry_group_IT_number 62
_symmetry_cell_setting 'orthorhombic'
loop_
_space_group_symop_operation_xyz
x,y,z
1/2-x,-y,1/2+z
1/2+x,1/2-y,1/2-z
-x,1/2+y,-z
-x,-y,-z
1/2+x,y,1/2-z
1/2-x,1/2+y,1/2+z
x,1/2-y,z
loop_
_atom_site_type_symbol
_atom_site_label
_atom_site_fract_x
_atom_site_fract_y
_atom_site_fract_z
Si Si1 0.549406 0.750000 0.841145
Si Si2 0.270111 0.963128 0.809855
Si Si3 0.250628 0.750000 0.639826
Si Si4 0.100936 0.604760 0.917599
Si Si5 0.530815 0.750000 0.065213
Si Si6 0.733272 0.750000 0.097874
Si Si7 0.551617 0.002903 0.172926
Si Si8 0.545106 0.898243 0.376118
O O1 0.649047 0.750000 0.851141
O O2 0.512162 0.617094 0.797311
O O3 0.511328 0.750000 0.951200
O O4 0.249847 0.119031 0.835462
O O5 0.277966 0.880747 0.704716
O O6 0.188275 0.900156 0.861051
O O7 0.359733 0.941004 0.866654
O O8 0.269879 0.750000 0.518581
O O9 0.062294 0.750000 0.902081
O O10 0.033817 0.493245 0.891996
O O11 0.111428 0.588839 0.035622
O O12 0.632292 0.750000 0.079361
O O13 0.504632 0.610182 0.111213
O O14 0.584027 0.929016 0.270860
O O15 0.512357 0.750000 0.375656
#
# Coordination Sequence:
#
# PCOD9466645 Si02
#       8
#     4   8   4   8   4   4   8   8
#     4  11  23  39  67  92 126 167 216 265 323 395
#     4  11  23  42  64  95 134 168 221 279 324 398
#     4  11  23  45  65  95 135 177 220 273 340 391
#     4  10  22  41  62  91 129 164 214 272 320 383
#     4   9  20  43  61  85 123 161 211 270 318 380
#     4   9  24  41  63  94 132 173 213 276 335 394
#     4  11  22  39  64  91 123 167 214 259 330 390
#     4  10  22  40  63  90 125 170 211 263 322 392
#
# _framework density 22.111885999999998
#
# number of rings (size 3 to 8) (size 9 to 14) (size 15 to 20)
#    0.000    1.667    1.667    2.000    4.667    0.000 
#    0.000    0.833    0.000    2.000    0.000    0.000 
#    0.000    0.000    0.000    0.000    0.000    0.000 
#
# Total GULP energy -267260.290569 kJ/mol
# GULP energy per Si atom -5567.922720 kJ/mol
# Density = 2.206156 g / cm^3
# Si number density = 22.111886 Si / 1000 Ang^3
#
#
#
# Elastic Constant Matrix: (Units=GPa)
#
#
# Indices 1 2 3 4 5 6 
#
# 1 37.3460 15.1732 -12.2901 0.0000 0.0000 0.0000
# 2 15.1732 162.5151 49.6324 0.0000 0.0000 0.0000
# 3 -12.2901 49.6324 111.5442 0.0000 0.0000 0.0000
# 4 0.0000 0.0000 0.0000 14.9567 0.0000 0.0000
# 5 0.0000 0.0000 0.0000 0.0000 21.5557 0.0000
# 6 0.0000 0.0000 0.0000 0.0000 0.0000 -107.0260
#
#
#
# Elastic Compliance Matrix: (Units=1/GPa)
#
#
# Indices 1 2 3 4 5 6 
#
# 1 0.030342 -0.004460 0.005328 0.000000 0.000000 0.000000
# 2 -0.004460 0.007777 -0.003952 0.000000 0.000000 0.000000
# 3 0.005328 -0.003952 0.011310 0.000000 0.000000 0.000000
# 4 0.000000 0.000000 0.000000 0.066860 0.000000 0.000000
# 5 0.000000 0.000000 0.000000 0.000000 0.046392 0.000000
# 6 0.000000 0.000000 0.000000 0.000000 0.000000 -0.009344
#
#
# Mechanical properties :
#
#
# Convention : Reuss Voigt Hill
#
# Bulk Modulus (GPa) = 23.11556 46.27069 34.69313
# Shear Modulus (GPa) = 28.74811 3.15661 15.95236
#
# Velocity S-wave (km/s) = 3.60963 1.19610 2.68887
# Velocity P-wave (km/s) = 5.27723 4.78317 5.03626
#
# Compressibility (1/GPa) = 0.04326090
#
# Stress axis : x y z
#
# Youngs Moduli (GPa) = 32.95771 128.59252 88.41456
#
# Poissons Ratio (x) = 0.57351 -0.47104
# Poissons Ratio (y) = 0.14699 0.34938
# Poissons Ratio (z) = -0.17559 0.50815
#
# Static dielectric constant tensor:
#      x y z
#    x 1.823870 0.000000 0.000000 
#    y 0.000000 1.908280 0.000000 
#    z 0.000000 0.000000 1.900930 
# 
# From -- ./inp_files/19728.got.cif
#   From: 2010.05.17/outbox.cif.g08.bks.cpg/sg62_10_cif.got.tgz:19728.got - 2010.06.03 15:25:27.
