data_PCOD9466595
_publ_section_title
;
Structure prediction by ZEFSAII (Michael W. Deem and Ramdas Pophale) SiO2 
 PCOD9466595
Probable space group: P N M A
;
_chemical_formula_sum "Si O2"
_cell_formula_units_Z 64
_cell_length_a 29.866751
_cell_length_b 8.945095
_cell_length_c 12.667550
_cell_angle_alpha 90.000000
_cell_angle_beta 90.000000
_cell_angle_gamma 90.000000
_cell_volume 3384.274376
_symmetry_space_group_name_H-M "P N M A"
_symmetry_group_IT_number 62
_symmetry_cell_setting 'orthorhombic'
loop_
_space_group_symop_operation_xyz
x,y,z
1/2-x,-y,1/2+z
1/2+x,1/2-y,1/2-z
-x,1/2+y,-z
-x,-y,-z
1/2+x,y,1/2-z
1/2-x,1/2+y,1/2+z
x,1/2-y,z
loop_
_atom_site_type_symbol
_atom_site_label
_atom_site_fract_x
_atom_site_fract_y
_atom_site_fract_z
Si Si1 0.740035 0.925629 0.591588
Si Si2 0.175289 0.079426 0.302904
Si Si3 0.828802 0.426346 0.264224
Si Si4 0.950248 0.430940 0.002616
Si Si5 0.758202 0.913944 0.895710
Si Si6 0.915728 0.429650 0.769328
Si Si7 0.579146 0.071307 0.723868
Si Si8 0.502025 0.569451 0.117479
O O1 0.742990 0.750000 0.615409
O O2 0.790200 0.986934 0.610995
O O3 0.700921 0.984533 0.666002
O O4 0.727566 0.956843 0.473017
O O5 0.162436 0.250000 0.331380
O O6 0.208907 0.085835 0.203362
O O7 0.131305 0.991171 0.271976
O O8 0.839828 0.250000 0.248796
O O9 0.792701 0.434266 0.357778
O O10 0.873718 0.519189 0.271860
O O11 0.952142 0.250000 0.006624
O O12 0.926709 0.474317 0.890955
O O13 0.927637 0.492873 0.109757
O O14 0.000000 0.500000 0.000000
O O15 0.762119 0.750000 0.947182
O O16 0.914982 0.250000 0.769242
O O17 0.954624 0.476370 0.686991
O O18 0.577434 0.250000 0.708489
O O19 0.540241 0.030622 0.807555
O O20 0.502814 0.750000 0.106456
O O21 0.500000 0.500000 0.000000
#
# Coordination Sequence:
#
# PCOD9466595 Si02
#       8
#     8   8   8   8   8   8   8   8
#     4   9  19  36  56  78 112 150 186 233 284 334
#     4   9  20  37  55  81 113 146 187 231 278 337
#     4   9  20  38  56  80 114 151 189 232 286 344
#     4  11  22  39  62  88 121 155 191 239 294 346
#     4   9  19  36  56  79 112 149 188 235 282 335
#     4  10  22  40  59  84 118 151 188 237 286 339
#     4  11  23  40  60  87 120 152 194 244 289 346
#     4  10  23  43  61  83 116 151 191 237 284 338
#
# _framework density 18.910996000000001
#
# number of rings (size 3 to 8) (size 9 to 14) (size 15 to 20)
#    0.000    2.250    1.250    2.250    1.750    5.500 
#    0.000    7.500    0.000    0.000    0.000    0.000 
#    0.000    0.000    0.000    0.000    0.000    0.000 
#
# Total GULP energy -356664.937983 kJ/mol
# GULP energy per Si atom -5572.889656 kJ/mol
# Density = 1.886795 g / cm^3
# Si number density = 18.910996 Si / 1000 Ang^3
#
#
#
# Elastic Constant Matrix: (Units=GPa)
#
#
# Indices 1 2 3 4 5 6 
#
# 1 105.7080 25.9781 19.0657 0.0000 0.0000 0.0000
# 2 25.9781 29.9388 25.0255 0.0000 0.0000 0.0000
# 3 19.0657 25.0255 88.1592 0.0000 0.0000 0.0000
# 4 0.0000 0.0000 0.0000 32.7029 0.0000 0.0000
# 5 0.0000 0.0000 0.0000 0.0000 2.7430 0.0000
# 6 0.0000 0.0000 0.0000 0.0000 0.0000 -32.8278
#
#
#
# Elastic Compliance Matrix: (Units=1/GPa)
#
#
# Indices 1 2 3 4 5 6 
#
# 1 0.012039 -0.010843 0.000474 0.000000 0.000000 0.000000
# 2 -0.010843 0.053558 -0.012858 0.000000 0.000000 0.000000
# 3 0.000474 -0.012858 0.014891 0.000000 0.000000 0.000000
# 4 0.000000 0.000000 0.000000 0.030578 0.000000 0.000000
# 5 0.000000 0.000000 0.000000 0.000000 0.364568 0.000000
# 6 0.000000 0.000000 0.000000 0.000000 0.000000 -0.030462
#
#
# Mechanical properties :
#
#
# Convention : Reuss Voigt Hill
#
# Bulk Modulus (GPa) = 29.38253 40.43829 34.91041
# Shear Modulus (GPa) = 9.94093 10.77273 10.35683
#
# Velocity S-wave (km/s) = 2.29524 2.38933 2.34276
# Velocity P-wave (km/s) = 4.75343 5.38904 5.08119
#
# Compressibility (1/GPa) = 0.03403382
#
# Stress axis : x y z
#
# Youngs Moduli (GPa) = 83.06225 18.67127 67.15636
#
# Poissons Ratio (x) = 0.20245 -0.03185
# Poissons Ratio (y) = 0.90064 0.86353
# Poissons Ratio (z) = -0.03940 0.24008
#
# Static dielectric constant tensor:
#      x y z
#    x 1.652720 0.000000 0.000000 
#    y 0.000000 1.673580 0.000000 
#    z 0.000000 0.000000 1.667120 
# 
# From -- ./inp_files/15876.got.cif
#   From: 2010.05.17/outbox.cif.g08.bks.cpg/sg62_8_cif.got.tgz:15876.got - 2010.06.03 15:25:27.
