data_PCOD9466638
_publ_section_title
;
Structure prediction by ZEFSAII (Michael W. Deem and Ramdas Pophale) SiO2 
 PCOD9466638
Probable space group: P N M A
;
_chemical_formula_sum "Si O2"
_cell_formula_units_Z 28
_cell_length_a 5.458346
_cell_length_b 16.500820
_cell_length_c 12.312829
_cell_angle_alpha 90.000000
_cell_angle_beta 90.000000
_cell_angle_gamma 90.000000
_cell_volume 1108.981845
_symmetry_space_group_name_H-M "P N M A"
_symmetry_group_IT_number 62
_symmetry_cell_setting 'orthorhombic'
loop_
_space_group_symop_operation_xyz
x,y,z
1/2-x,-y,1/2+z
1/2+x,1/2-y,1/2-z
-x,1/2+y,-z
-x,-y,-z
1/2+x,y,1/2-z
1/2-x,1/2+y,1/2+z
x,1/2-y,z
loop_
_atom_site_type_symbol
_atom_site_label
_atom_site_fract_x
_atom_site_fract_y
_atom_site_fract_z
Si Si1 0.193217 0.343128 0.015575
Si Si2 0.057378 0.946269 0.689865
Si Si3 0.394682 0.250000 0.322152
Si Si4 0.572844 0.124815 0.721795
O O1 0.288336 0.250000 0.993760
O O2 0.104298 0.386442 0.906764
O O3 0.383389 0.401281 0.077570
O O4 0.966160 0.323337 0.096084
O O5 0.295391 0.923424 0.761636
O O6 0.060151 0.043800 0.703023
O O7 0.123392 0.250000 0.267483
O O8 0.317356 0.166734 0.739904
#
# Coordination Sequence:
#
# PCOD9466638 Si02
#       4
#     8   8   4   8
#     4  10  24  42  66  99 124 175 209 265 321 376
#     4  10  22  40  65  93 129 166 212 266 311 381
#     4  10  22  40  62  92 124 158 204 256 306 370
#     4  10  24  43  64  94 132 167 214 264 316 380
#
# _framework density 25.248386
#
# number of rings (size 3 to 8) (size 9 to 14) (size 15 to 20)
#    0.857    1.143    0.000    1.714    0.000   14.857 
#    0.000    0.000    0.000    0.000    0.000    0.000 
#    0.000    0.000    0.000    0.000    0.000    0.000 
#
# Total GULP energy -156035.560363 kJ/mol
# GULP energy per Si atom -5572.698584 kJ/mol
# Density = 2.519092 g / cm^3
# Si number density = 25.248386 Si / 1000 Ang^3
#
#
#
# Elastic Constant Matrix: (Units=GPa)
#
#
# Indices 1 2 3 4 5 6 
#
# 1 174.9827 -12.5514 45.7072 0.0000 0.0000 0.0000
# 2 -12.5514 144.3346 15.6133 0.0000 0.0000 0.0000
# 3 45.7072 15.6133 120.5958 0.0000 0.0000 0.0000
# 4 0.0000 0.0000 0.0000 -828.9110 0.0000 0.0000
# 5 0.0000 0.0000 0.0000 0.0000 23.0036 0.0000
# 6 0.0000 0.0000 0.0000 0.0000 0.0000 -113.8504
#
#
#
# Elastic Compliance Matrix: (Units=1/GPa)
#
#
# Indices 1 2 3 4 5 6 
#
# 1 0.006441 0.000836 -0.002549 0.000000 0.000000 0.000000
# 2 0.000836 0.007135 -0.001241 0.000000 0.000000 0.000000
# 3 -0.002549 -0.001241 0.009419 0.000000 0.000000 0.000000
# 4 0.000000 0.000000 0.000000 -0.001206 0.000000 0.000000
# 5 0.000000 0.000000 0.000000 0.000000 0.043471 0.000000
# 6 0.000000 0.000000 0.000000 0.000000 0.000000 -0.008783
#
#
# Mechanical properties :
#
#
# Convention : Reuss Voigt Hill
#
# Bulk Modulus (GPa) = 58.52454 59.71682 59.12068
# Shear Modulus (GPa) = 73.44275 -157.87529 -42.21627
#
# Velocity S-wave (km/s) = 5.39919 -7.91610 -4.09349
# Velocity P-wave (km/s) = 7.88024 7.73626 1.06029
#
# Compressibility (1/GPa) = 0.01708685
#
# Stress axis : x y z
#
# Youngs Moduli (GPa) = 155.26230 140.14965 106.16836
#
# Poissons Ratio (x) = -0.11715 0.27066
# Poissons Ratio (y) = -0.12978 0.13171
# Poissons Ratio (z) = 0.39581 0.17387
#
# Static dielectric constant tensor:
#      x y z
#    x 2.001820 0.000000 0.000000 
#    y 0.000000 2.041350 0.000000 
#    z 0.000000 0.000000 1.977300 
# 
# From -- ./inp_files/10623.got.cif
#   From: 2010.05.17/outbox.cif.g08.bks.cpg/sg62_6_cif.got.tgz:10623.got - 2010.06.03 15:25:27.
