data_PCOD9466818
_publ_section_title
;
Structure prediction by ZEFSAII (Michael W. Deem and Ramdas Pophale) SiO2 
 PCOD9466818
Probable space group: P N M A
;
_chemical_formula_sum "Si O2"
_cell_formula_units_Z 60
_cell_length_a 22.572600
_cell_length_b 22.687582
_cell_length_c 5.095208
_cell_angle_alpha 90.000000
_cell_angle_beta 90.000000
_cell_angle_gamma 90.000000
_cell_volume 2609.346271
_symmetry_space_group_name_H-M "P N M A"
_symmetry_group_IT_number 62
_symmetry_cell_setting 'orthorhombic'
loop_
_space_group_symop_operation_xyz
x,y,z
1/2-x,-y,1/2+z
1/2+x,1/2-y,1/2-z
-x,1/2+y,-z
-x,-y,-z
1/2+x,y,1/2-z
1/2-x,1/2+y,1/2+z
x,1/2-y,z
loop_
_atom_site_type_symbol
_atom_site_label
_atom_site_fract_x
_atom_site_fract_y
_atom_site_fract_z
Si Si1 0.247417 0.461093 0.571165
Si Si2 0.500000 0.000000 0.500000
Si Si3 0.575789 0.817902 0.298595
Si Si4 0.017672 0.402685 0.548970
Si Si5 0.081432 0.925740 0.824512
Si Si6 0.322760 0.384211 0.937055
Si Si7 0.792772 0.816908 0.906560
Si Si8 0.149117 0.364988 0.589203
O O1 0.256886 0.487597 0.286325
O O2 0.299524 0.418999 0.681275
O O3 0.187354 0.424350 0.576331
O O4 0.518130 0.052440 0.711739
O O5 0.426310 0.021827 0.528155
O O6 0.565002 0.750000 0.357685
O O7 0.524980 0.848046 0.121901
O O8 0.580255 0.861417 0.546981
O O9 0.637566 0.828865 0.151009
O O10 0.082628 0.378551 0.506662
O O11 0.986034 0.435491 0.300567
O O12 0.132461 0.923967 0.609693
O O13 0.264400 0.359351 0.076837
O O14 0.775489 0.750000 0.965100
O O15 0.820770 0.822080 0.620877
O O16 0.840342 0.838819 0.121811
#
# Coordination Sequence:
#
# PCOD9466818 Si02
#       8
#     8   4   8   8   8   8   8   8
#     4  11  25  44  68 102 140 183 224 288 350 413
#     4  10  22  42  68  96 132 186 220 288 348 422
#     4  10  23  42  68  97 134 178 228 294 353 415
#     4  10  24  44  65  98 140 178 238 281 355 425
#     4  10  23  42  66 102 132 176 232 288 353 415
#     4  10  24  43  67  99 136 173 238 288 348 428
#     4  11  25  46  70  99 136 184 234 292 359 418
#     4  11  26  45  68 103 140 179 239 284 347 433
#
# _framework density 22.994266
#
# number of rings (size 3 to 8) (size 9 to 14) (size 15 to 20)
#    0.000    1.600    0.000    2.800   11.200    5.867 
#    0.000    0.000    0.000    0.000    0.000    0.000 
#    0.000    0.000    0.000    0.000    0.000    0.000 
#
# Total GULP energy -334896.430027 kJ/mol
# GULP energy per Si atom -5581.607167 kJ/mol
# Density = 2.294193 g / cm^3
# Si number density = 22.994266 Si / 1000 Ang^3
#
#
#
# Elastic Constant Matrix: (Units=GPa)
#
#
# Indices 1 2 3 4 5 6 
#
# 1 121.1524 17.9933 6.8716 0.0000 0.0000 0.0000
# 2 17.9933 94.8449 1.7456 0.0000 0.0000 0.0000
# 3 6.8716 1.7456 40.9754 0.0000 0.0000 0.0000
# 4 0.0000 0.0000 0.0000 26.6267 0.0000 0.0000
# 5 0.0000 0.0000 0.0000 0.0000 29.0897 0.0000
# 6 0.0000 0.0000 0.0000 0.0000 0.0000 17.6078
#
#
#
# Elastic Compliance Matrix: (Units=1/GPa)
#
#
# Indices 1 2 3 4 5 6 
#
# 1 0.008569 -0.001601 -0.001369 0.000000 0.000000 0.000000
# 2 -0.001601 0.010851 -0.000194 0.000000 0.000000 0.000000
# 3 -0.001369 -0.000194 0.024643 0.000000 0.000000 0.000000
# 4 0.000000 0.000000 0.000000 0.037556 0.000000 0.000000
# 5 0.000000 0.000000 0.000000 0.000000 0.034376 0.000000
# 6 0.000000 0.000000 0.000000 0.000000 0.000000 0.056793
#
#
# Mechanical properties :
#
#
# Convention : Reuss Voigt Hill
#
# Bulk Modulus (GPa) = 26.49969 34.46596 30.48283
# Shear Modulus (GPa) = 26.08325 30.02231 28.05278
#
# Velocity S-wave (km/s) = 3.37165 3.61729 3.49663
# Velocity P-wave (km/s) = 5.16786 5.69806 5.43942
#
# Compressibility (1/GPa) = 0.03773628
#
# Stress axis : x y z
#
# Youngs Moduli (GPa) = 116.69400 92.15958 40.57994
#
# Poissons Ratio (x) = 0.14750 0.05555
# Poissons Ratio (y) = 0.18677 0.00787
# Poissons Ratio (z) = 0.15974 0.01787
#
# Static dielectric constant tensor:
#      x y z
#    x 1.894850 0.000000 0.000000 
#    y 0.000000 1.510890 0.000000 
#    z 0.000000 0.000000 1.531500 
# 
# From -- ./inp_files/2864.got.cif
#   From: 2010.05.17/outbox.cif.g08.bks.cpg/sg62_2_cif.got.tgz:2864.got - 2010.06.03 15:25:27.
