data_PCOD9466688
_publ_section_title
;
Structure prediction by ZEFSAII (Michael W. Deem and Ramdas Pophale) SiO2 
 PCOD9466688
Probable space group: P N M A
;
_chemical_formula_sum "Si O2"
_cell_formula_units_Z 40
_cell_length_a 9.148055
_cell_length_b 11.234123
_cell_length_c 18.332468
_cell_angle_alpha 90.000000
_cell_angle_beta 90.000000
_cell_angle_gamma 90.000000
_cell_volume 1884.034613
_symmetry_space_group_name_H-M "P N M A"
_symmetry_group_IT_number 62
_symmetry_cell_setting 'orthorhombic'
loop_
_space_group_symop_operation_xyz
x,y,z
1/2-x,-y,1/2+z
1/2+x,1/2-y,1/2-z
-x,1/2+y,-z
-x,-y,-z
1/2+x,y,1/2-z
1/2-x,1/2+y,1/2+z
x,1/2-y,z
loop_
_atom_site_type_symbol
_atom_site_label
_atom_site_fract_x
_atom_site_fract_y
_atom_site_fract_z
Si Si1 0.328217 0.477341 0.425436
Si Si2 0.399567 0.118668 0.006131
Si Si3 0.868513 0.886098 0.704133
Si Si4 0.672246 0.963487 0.837517
Si Si5 0.885751 0.383305 0.915136
O O1 0.233041 0.591243 0.451365
O O2 0.239029 0.409081 0.363851
O O3 0.485552 0.522611 0.399384
O O4 0.348088 0.401540 0.499360
O O5 0.465298 0.250000 0.992956
O O6 0.340764 0.114161 0.088811
O O7 0.500000 0.000000 0.000000
O O8 0.921434 0.750000 0.703037
O O9 0.778128 0.909860 0.776943
O O10 0.009628 0.969568 0.694689
O O11 0.745339 0.084085 0.866900
O O12 0.934954 0.250000 0.901852
#
# Coordination Sequence:
#
# PCOD9466688 Si02
#       5
#     8   8   8   8   8
#     4  10  22  40  68  98 128 171 225 275 333 406
#     4  11  22  40  67 101 135 175 225 279 336 405
#     4  12  23  42  65  94 131 170 220 284 341 400
#     4  11  25  41  65  98 130 176 226 275 341 406
#     4  10  22  43  65  94 133 173 222 279 336 402
#
# _framework density 21.231031999999999
#
# number of rings (size 3 to 8) (size 9 to 14) (size 15 to 20)
#    0.000    1.200    2.000    4.200    0.000    3.200 
#    0.000   13.000    0.000    0.000    0.000    0.000 
#    0.000    0.000    0.000    0.000    0.000    0.000 
#
# Total GULP energy -223513.251719 kJ/mol
# GULP energy per Si atom -5587.831293 kJ/mol
# Density = 2.118271 g / cm^3
# Si number density = 21.231032 Si / 1000 Ang^3
#
#
#
# Elastic Constant Matrix: (Units=GPa)
#
#
# Indices 1 2 3 4 5 6 
#
# 1 109.3735 18.0488 34.8905 0.0000 0.0000 0.0000
# 2 18.0488 63.4000 7.2820 0.0000 0.0000 0.0000
# 3 34.8905 7.2820 86.7276 0.0000 0.0000 0.0000
# 4 0.0000 0.0000 0.0000 3.9788 0.0000 0.0000
# 5 0.0000 0.0000 0.0000 0.0000 41.6530 0.0000
# 6 0.0000 0.0000 0.0000 0.0000 0.0000 21.6505
#
#
#
# Elastic Compliance Matrix: (Units=1/GPa)
#
#
# Indices 1 2 3 4 5 6 
#
# 1 0.010906 -0.002626 -0.004167 0.000000 0.000000 0.000000
# 2 -0.002626 0.016559 -0.000334 0.000000 0.000000 0.000000
# 3 -0.004167 -0.000334 0.013235 0.000000 0.000000 0.000000
# 4 0.000000 0.000000 0.000000 0.251334 0.000000 0.000000
# 5 0.000000 0.000000 0.000000 0.000000 0.024008 0.000000
# 6 0.000000 0.000000 0.000000 0.000000 0.000000 0.046188
#
#
# Mechanical properties :
#
#
# Convention : Reuss Voigt Hill
#
# Bulk Modulus (GPa) = 37.81349 42.21599 40.01474
# Shear Modulus (GPa) = 12.97698 26.74178 19.85938
#
# Velocity S-wave (km/s) = 2.47498 3.55288 3.06174
# Velocity P-wave (km/s) = 5.10064 6.06283 5.60243
#
# Compressibility (1/GPa) = 0.02644559
#
# Stress axis : x y z
#
# Youngs Moduli (GPa) = 91.69642 60.39085 75.55896
#
# Poissons Ratio (x) = 0.15859 0.31484
# Poissons Ratio (y) = 0.24080 0.02523
# Poissons Ratio (z) = 0.38208 0.02016
#
# Static dielectric constant tensor:
#      x y z
#    x 1.809570 0.000000 0.000000 
#    y 0.000000 1.743050 0.000000 
#    z 0.000000 0.000000 1.749070 
# 
# From -- ./inp_files/21918.got.cif
#   From: 2010.05.17/outbox.cif.g08.bks.cpg/sg62_11_cif.got.tgz:21918.got - 2010.06.03 15:25:27.
