data_PCOD9466768
_publ_section_title
;
Structure prediction by ZEFSAII (Michael W. Deem and Ramdas Pophale) SiO2 
 PCOD9466768
Probable space group: P N M A
;
_chemical_formula_sum "Si O2"
_cell_formula_units_Z 36
_cell_length_a 11.252535
_cell_length_b 14.058567
_cell_length_c 11.408064
_cell_angle_alpha 90.000000
_cell_angle_beta 90.000000
_cell_angle_gamma 90.000000
_cell_volume 1804.693177
_symmetry_space_group_name_H-M "P N M A"
_symmetry_group_IT_number 62
_symmetry_cell_setting 'orthorhombic'
loop_
_space_group_symop_operation_xyz
x,y,z
1/2-x,-y,1/2+z
1/2+x,1/2-y,1/2-z
-x,1/2+y,-z
-x,-y,-z
1/2+x,y,1/2-z
1/2-x,1/2+y,1/2+z
x,1/2-y,z
loop_
_atom_site_type_symbol
_atom_site_label
_atom_site_fract_x
_atom_site_fract_y
_atom_site_fract_z
Si Si1 0.591881 0.460330 0.593968
Si Si2 0.896497 0.250000 0.475480
Si Si3 0.323476 0.558280 0.972978
Si Si4 0.332143 0.750000 0.078552
Si Si5 0.453353 0.060751 0.162043
Si Si6 0.661785 0.250000 0.642656
O O1 0.500000 0.500000 0.500000
O O2 0.723268 0.482158 0.548004
O O3 0.575910 0.525231 0.709325
O O4 0.589026 0.347289 0.617278
O O5 0.898286 0.342460 0.390742
O O6 0.784177 0.250000 0.564709
O O7 0.024899 0.250000 0.544864
O O8 0.405565 0.569736 0.859020
O O9 0.275903 0.658360 0.017104
O O10 0.407151 0.523108 0.078034
O O11 0.313190 0.750000 0.217601
#
# Coordination Sequence:
#
# PCOD9466768 Si02
#       6
#     8   4   8   4   8   4
#     4  12  28  42  67 102 134 171 222 281 330 391
#     4  10  22  42  68  96 128 186 222 262 350 402
#     4  10  22  42  66  96 130 175 216 268 334 383
#     4  10  22  41  68  99 126 177 227 270 320 400
#     4  10  22  42  67  93 134 173 218 268 331 399
#     4  12  24  41  68  95 132 171 223 276 324 398
#
# _framework density 19.947987000000001
#
# number of rings (size 3 to 8) (size 9 to 14) (size 15 to 20)
#    0.000    1.333    4.444    0.000    3.111    4.444 
#    0.000    2.222    0.000    0.000    0.000    0.000 
#    0.000    0.000    0.000    0.000    0.000    0.000 
#
# Total GULP energy -200870.316191 kJ/mol
# GULP energy per Si atom -5579.731005 kJ/mol
# Density = 1.990258 g / cm^3
# Si number density = 19.947987 Si / 1000 Ang^3
#
#
#
# Elastic Constant Matrix: (Units=GPa)
#
#
# Indices 1 2 3 4 5 6 
#
# 1 44.3768 5.6231 32.3880 0.0000 0.0000 0.0000
# 2 5.6231 147.9872 29.0136 0.0000 0.0000 0.0000
# 3 32.3880 29.0136 104.1929 0.0000 0.0000 0.0000
# 4 0.0000 0.0000 0.0000 29.0319 0.0000 0.0000
# 5 0.0000 0.0000 0.0000 0.0000 11.2144 0.0000
# 6 0.0000 0.0000 0.0000 0.0000 0.0000 16.8431
#
#
#
# Elastic Compliance Matrix: (Units=1/GPa)
#
#
# Indices 1 2 3 4 5 6 
#
# 1 0.029217 0.000709 -0.009279 0.000000 0.000000 0.000000
# 2 0.000709 0.007165 -0.002216 0.000000 0.000000 0.000000
# 3 -0.009279 -0.002216 0.013099 0.000000 0.000000 0.000000
# 4 0.000000 0.000000 0.000000 0.034445 0.000000 0.000000
# 5 0.000000 0.000000 0.000000 0.000000 0.089171 0.000000
# 6 0.000000 0.000000 0.000000 0.000000 0.000000 0.059372
#
#
# Mechanical properties :
#
#
# Convention : Reuss Voigt Hill
#
# Bulk Modulus (GPa) = 35.83073 47.84514 41.83794
# Shear Modulus (GPa) = 18.98667 26.72003 22.85335
#
# Velocity S-wave (km/s) = 3.08849 3.66387 3.38841
# Velocity P-wave (km/s) = 5.54251 6.47577 6.02723
#
# Compressibility (1/GPa) = 0.02790900
#
# Stress axis : x y z
#
# Youngs Moduli (GPa) = 34.22669 139.57193 76.34165
#
# Poissons Ratio (x) = -0.09897 0.70841
# Poissons Ratio (y) = -0.02427 0.16914
# Poissons Ratio (z) = 0.31761 0.30923
#
# Static dielectric constant tensor:
#      x y z
#    x 1.745650 0.000000 0.000000 
#    y 0.000000 1.725950 0.000000 
#    z 0.000000 0.000000 1.747930 
# 
# From -- ./inp_files/11887.got.cif
#   From: 2010.05.17/outbox.cif.g08.bks.cpg/sg62_6_cif.got.tgz:11887.got - 2010.06.03 15:25:27.
