data_PCOD9466246
_publ_section_title
;
Structure prediction by ZEFSAII (Michael W. Deem and Ramdas Pophale) SiO2 
 PCOD9466246
Probable space group: P N M A
;
_chemical_formula_sum "Si O2"
_cell_formula_units_Z 36
_cell_length_a 5.480710
_cell_length_b 12.541728
_cell_length_c 23.581638
_cell_angle_alpha 90.000000
_cell_angle_beta 90.000000
_cell_angle_gamma 90.000000
_cell_volume 1620.944589
_symmetry_space_group_name_H-M "P N M A"
_symmetry_group_IT_number 62
_symmetry_cell_setting 'orthorhombic'
loop_
_space_group_symop_operation_xyz
x,y,z
1/2-x,-y,1/2+z
1/2+x,1/2-y,1/2-z
-x,1/2+y,-z
-x,-y,-z
1/2+x,y,1/2-z
1/2-x,1/2+y,1/2+z
x,1/2-y,z
loop_
_atom_site_type_symbol
_atom_site_label
_atom_site_fract_x
_atom_site_fract_y
_atom_site_fract_z
Si Si1 0.829030 0.870325 0.786194
Si Si2 0.585646 0.750000 0.214396
Si Si3 0.406354 0.549304 0.143754
Si Si4 0.815110 0.958287 0.548256
Si Si5 0.578755 0.639843 0.452332
O O1 0.590660 0.875394 0.745060
O O2 0.818435 0.750000 0.812991
O O3 0.790708 0.976734 0.823497
O O4 0.853102 0.750000 0.242669
O O5 0.550539 0.637251 0.180624
O O6 0.561870 0.459633 0.109435
O O7 0.281754 0.620166 0.094896
O O8 0.691155 0.861507 0.515444
O O9 0.605184 0.044647 0.553367
O O10 0.000000 0.000000 0.500000
O O11 0.446552 0.750000 0.441316
#
# Coordination Sequence:
#
# PCOD9466246 Si02
#       5
#     8   4   8   8   8
#     4  10  23  43  65  91 127 174 222 277 334 396
#     4  12  28  42  64 108 142 184 228 282 350 418
#     4  11  23  39  66  95 130 174 221 281 342 411
#     4   9  22  39  60  93 125 171 218 270 340 402
#     4  10  21  40  64  93 130 171 220 277 347 413
#
# _framework density 22.209273
#
# number of rings (size 3 to 8) (size 9 to 14) (size 15 to 20)
#    0.000    1.778    1.111    1.333    7.778    1.778 
#    0.000    8.889    0.000    0.000    0.000    0.000 
#    0.000    0.000    0.000    0.000    0.000    0.000 
#
# Total GULP energy -200555.475944 kJ/mol
# GULP energy per Si atom -5570.985443 kJ/mol
# Density = 2.215872 g / cm^3
# Si number density = 22.209273 Si / 1000 Ang^3
#
#
#
# Elastic Constant Matrix: (Units=GPa)
#
#
# Indices 1 2 3 4 5 6 
#
# 1 58.6737 -16.5464 8.6833 0.0000 0.0000 0.0000
# 2 -16.5464 97.6092 21.8428 0.0000 0.0000 0.0000
# 3 8.6833 21.8428 58.8046 0.0000 0.0000 0.0000
# 4 0.0000 0.0000 0.0000 3.7254 0.0000 0.0000
# 5 0.0000 0.0000 0.0000 0.0000 10.6616 0.0000
# 6 0.0000 0.0000 0.0000 0.0000 0.0000-1743.3390
#
#
#
# Elastic Compliance Matrix: (Units=1/GPa)
#
#
# Indices 1 2 3 4 5 6 
#
# 1 0.018860 0.004167 -0.004333 0.000000 0.000000 0.000000
# 2 0.004167 0.012094 -0.005108 0.000000 0.000000 0.000000
# 3 -0.004333 -0.005108 0.019542 0.000000 0.000000 0.000000
# 4 0.000000 0.000000 0.000000 0.268426 0.000000 0.000000
# 5 0.000000 0.000000 0.000000 0.000000 0.093794 0.000000
# 6 0.000000 0.000000 0.000000 0.000000 0.000000 -0.000574
#
#
# Mechanical properties :
#
#
# Convention : Reuss Voigt Hill
#
# Bulk Modulus (GPa) = 25.03187 27.00520 26.01853
# Shear Modulus (GPa) = 11.46773 -332.38319 -160.45773
#
# Velocity S-wave (km/s) = 2.27480 -12.24682 -8.50911
# Velocity P-wave (km/s) = 4.26556 13.70378 9.20865
#
# Compressibility (1/GPa) = 0.03994908
#
# Stress axis : x y z
#
# Youngs Moduli (GPa) = 53.02339 82.68425 51.17075
#
# Poissons Ratio (x) = -0.34451 0.22170
# Poissons Ratio (y) = -0.22092 0.26136
# Poissons Ratio (z) = 0.22973 0.42232
#
# Static dielectric constant tensor:
#      x y z
#    x 2.025950 0.000000 0.000000 
#    y 0.000000 1.901050 0.000000 
#    z 0.000000 0.000000 3.468790 
# 
# From -- ./inp_files/25206.got.cif
#   From: 2010.05.17/outbox.cif.g08.bks.cpg/sg62_13_cif.got.tgz:25206.got - 2010.06.03 15:25:27.
