data_PCOD9466694
_publ_section_title
;
Structure prediction by ZEFSAII (Michael W. Deem and Ramdas Pophale) SiO2 
 PCOD9466694
Probable space group: P N M A
;
_chemical_formula_sum "Si O2"
_cell_formula_units_Z 40
_cell_length_a 10.713233
_cell_length_b 14.611675
_cell_length_c 10.159794
_cell_angle_alpha 90.000000
_cell_angle_beta 90.000000
_cell_angle_gamma 90.000000
_cell_volume 1590.396666
_symmetry_space_group_name_H-M "P N M A"
_symmetry_group_IT_number 62
_symmetry_cell_setting 'orthorhombic'
loop_
_space_group_symop_operation_xyz
x,y,z
1/2-x,-y,1/2+z
1/2+x,1/2-y,1/2-z
-x,1/2+y,-z
-x,-y,-z
1/2+x,y,1/2-z
1/2-x,1/2+y,1/2+z
x,1/2-y,z
loop_
_atom_site_type_symbol
_atom_site_label
_atom_site_fract_x
_atom_site_fract_y
_atom_site_fract_z
Si Si1 0.389065 0.100698 0.283231
Si Si2 0.557644 0.643392 0.007281
Si Si3 0.223885 0.101741 0.525368
Si Si4 0.104744 0.429061 0.047679
Si Si5 0.725482 0.103072 0.690970
O O1 0.377331 0.139089 0.136588
O O2 0.302829 0.140039 0.401867
O O3 0.534820 0.111530 0.326549
O O4 0.343045 0.994653 0.283921
O O5 0.541258 0.750000 0.040525
O O6 0.421995 0.598346 0.993923
O O7 0.637285 0.599611 0.126351
O O8 0.233230 0.149292 0.667787
O O9 0.283392 0.001981 0.556881
O O10 0.142801 0.360064 0.931452
O O11 0.000000 0.500000 0.000000
#
# Coordination Sequence:
#
# PCOD9466694 Si02
#       5
#     8   8   8   8   8
#     4  10  23  43  70 105 136 186 247 303 345 419
#     4  12  29  45  66 105 152 194 231 291 380 449
#     4  10  23  41  70  98 139 183 232 294 358 419
#     4   8  19  36  66 104 127 165 234 298 346 391
#     4  10  22  40  71 103 133 180 243 304 342 418
#
# _framework density 25.150956000000001
#
# number of rings (size 3 to 8) (size 9 to 14) (size 15 to 20)
#    0.000    2.400    0.000    2.400   16.800    5.600 
#    0.000    0.000    0.000    0.000    0.000    0.000 
#    0.000    0.000    0.000    0.000    0.000    0.000 
#
# Total GULP energy -222881.831258 kJ/mol
# GULP energy per Si atom -5572.045781 kJ/mol
# Density = 2.509371 g / cm^3
# Si number density = 25.150956 Si / 1000 Ang^3
#
#
#
# Elastic Constant Matrix: (Units=GPa)
#
#
# Indices 1 2 3 4 5 6 
#
# 1 133.4725 29.5051 62.9377 0.0000 0.0000 0.0000
# 2 29.5051 82.5364 6.7519 0.0000 0.0000 0.0000
# 3 62.9377 6.7519 197.4661 0.0000 0.0000 0.0000
# 4 0.0000 0.0000 0.0000 -0.8585 0.0000 0.0000
# 5 0.0000 0.0000 0.0000 0.0000 55.8314 0.0000
# 6 0.0000 0.0000 0.0000 0.0000 0.0000 -17.8642
#
#
#
# Elastic Compliance Matrix: (Units=1/GPa)
#
#
# Indices 1 2 3 4 5 6 
#
# 1 0.009586 -0.003186 -0.002946 0.000000 0.000000 0.000000
# 2 -0.003186 0.013209 0.000564 0.000000 0.000000 0.000000
# 3 -0.002946 0.000564 0.005984 0.000000 0.000000 0.000000
# 4 0.000000 0.000000 0.000000 -1.164799 0.000000 0.000000
# 5 0.000000 0.000000 0.000000 0.000000 0.017911 0.000000
# 6 0.000000 0.000000 0.000000 0.000000 0.000000 -0.055978
#
#
# Mechanical properties :
#
#
# Convention : Reuss Voigt Hill
#
# Bulk Modulus (GPa) = 56.68379 67.98492 62.33435
# Shear Modulus (GPa) = -4.32126 28.37376 12.02625
#
# Velocity S-wave (km/s) = -1.31220 3.36242 2.18907
# Velocity P-wave (km/s) = 4.50450 6.49338 5.58813
#
# Compressibility (1/GPa) = 0.01764173
#
# Stress axis : x y z
#
# Youngs Moduli (GPa) = 104.32217 75.70850 167.11382
#
# Poissons Ratio (x) = 0.24118 0.49237
# Poissons Ratio (y) = 0.33234 -0.09421
# Poissons Ratio (z) = 0.30736 -0.04268
#
# Static dielectric constant tensor:
#      x y z
#    x 2.092190 0.000000 0.000000 
#    y 0.000000 2.052870 0.000000 
#    z 0.000000 0.000000 2.144650 
# 
# From -- ./inp_files/13086.got.cif
#   From: 2010.05.17/outbox.cif.g08.bks.cpg/sg62_7_cif.got.tgz:13086.got - 2010.06.03 15:25:27.
