data_PCOD9466044
_publ_section_title
;
Structure prediction by ZEFSAII (Michael W. Deem and Ramdas Pophale) SiO2 
 PCOD9466044
Probable space group: P N M A
;
_chemical_formula_sum "Si O2"
_cell_formula_units_Z 40
_cell_length_a 5.657308
_cell_length_b 17.152774
_cell_length_c 14.563672
_cell_angle_alpha 90.000000
_cell_angle_beta 90.000000
_cell_angle_gamma 90.000000
_cell_volume 1413.237258
_symmetry_space_group_name_H-M "P N M A"
_symmetry_group_IT_number 62
_symmetry_cell_setting 'orthorhombic'
loop_
_space_group_symop_operation_xyz
x,y,z
1/2-x,-y,1/2+z
1/2+x,1/2-y,1/2-z
-x,1/2+y,-z
-x,-y,-z
1/2+x,y,1/2-z
1/2-x,1/2+y,1/2+z
x,1/2-y,z
loop_
_atom_site_type_symbol
_atom_site_label
_atom_site_fract_x
_atom_site_fract_y
_atom_site_fract_z
Si Si1 0.281004 0.342940 0.608446
Si Si2 0.515076 0.466988 0.296415
Si Si3 0.163753 0.560521 0.554389
Si Si4 0.762963 0.840559 0.613811
Si Si5 0.775640 0.343557 0.620444
O O1 0.277268 0.250000 0.626607
O O2 0.276438 0.348750 0.497129
O O3 0.521837 0.369716 0.656430
O O4 0.033436 0.373400 0.646964
O O5 0.251451 0.489962 0.261944
O O6 0.621412 0.485497 0.399019
O O7 0.449271 0.376008 0.325726
O O8 0.238972 0.627687 0.484655
O O9 0.000000 0.500000 0.500000
O O10 0.996481 0.605453 0.627283
O O11 0.801850 0.750000 0.632453
O O12 0.781065 0.250000 0.626083
#
# Coordination Sequence:
#
# PCOD9466044 Si02
#       5
#     8   8   8   8   8
#     4   8  14  25  45  66  96 139 184 232 285 343
#     4  12  25  44  59  88 128 178 230 281 331 406
#     4  11  23  40  65  93 130 175 230 288 348 410
#     4  10  21  39  60  87 128 174 224 276 330 402
#     4   9  16  30  49  75 110 150 191 248 306 371
#
# _framework density 28.303811
#
# number of rings (size 3 to 8) (size 9 to 14) (size 15 to 20)
#    0.000    2.000    4.000    1.800    0.000    2.400 
#    0.000    0.000    0.000    0.000    0.000    0.000 
#    0.000    6.400    0.000    2.000    0.000    0.000 
#
# Total GULP energy -223165.932408 kJ/mol
# GULP energy per Si atom -5579.148310 kJ/mol
# Density = 2.823939 g / cm^3
# Si number density = 28.303811 Si / 1000 Ang^3
#
#
#
# Elastic Constant Matrix: (Units=GPa)
#
#
# Indices 1 2 3 4 5 6 
#
# 1 315.7328 45.9843 60.9491 0.0000 0.0000 0.0000
# 2 45.9843 112.4633 15.2713 0.0000 0.0000 0.0000
# 3 60.9491 15.2713 138.5510 0.0000 0.0000 0.0000
# 4 0.0000 0.0000 0.0000 2.0624 0.0000 0.0000
# 5 0.0000 0.0000 0.0000 0.0000 -3.5041 0.0000
# 6 0.0000 0.0000 0.0000 0.0000 0.0000 51.4505
#
#
#
# Elastic Compliance Matrix: (Units=1/GPa)
#
#
# Indices 1 2 3 4 5 6 
#
# 1 0.003636 -0.001289 -0.001458 0.000000 0.000000 0.000000
# 2 -0.001289 0.009484 -0.000478 0.000000 0.000000 0.000000
# 3 -0.001458 -0.000478 0.007911 0.000000 0.000000 0.000000
# 4 0.000000 0.000000 0.000000 0.484879 0.000000 0.000000
# 5 0.000000 0.000000 0.000000 0.000000 -0.285382 0.000000
# 6 0.000000 0.000000 0.000000 0.000000 0.000000 0.019436
#
#
# Mechanical properties :
#
#
# Convention : Reuss Voigt Hill
#
# Bulk Modulus (GPa) = 68.57790 90.12851 79.35321
# Shear Modulus (GPa) = 19.89856 39.63791 29.76824
#
# Velocity S-wave (km/s) = 2.65436 3.74631 3.24657
# Velocity P-wave (km/s) = 5.80310 7.11516 6.49236
#
# Compressibility (1/GPa) = 0.01458196
#
# Stress axis : x y z
#
# Youngs Moduli (GPa) = 275.00295 105.44352 126.39874
#
# Poissons Ratio (x) = 0.13591 0.18423
# Poissons Ratio (y) = 0.35445 0.06046
# Poissons Ratio (z) = 0.40084 0.05044
#
# Static dielectric constant tensor:
#      x y z
#    x 2.303490 0.000000 0.000000 
#    y 0.000000 2.198580 0.000000 
#    z 0.000000 0.000000 2.283780 
# 
# From -- ./inp_files/21492.got.cif
#   From: 2010.05.17/outbox.cif.g08.bks.cpg/sg62_11_cif.got.tgz:21492.got - 2010.06.03 15:25:27.
