data_PCOD9466647
_publ_section_title
;
Structure prediction by ZEFSAII (Michael W. Deem and Ramdas Pophale) SiO2 
 PCOD9466647
Probable space group: P N M A
;
_chemical_formula_sum "Si O2"
_cell_formula_units_Z 56
_cell_length_a 21.805582
_cell_length_b 8.680449
_cell_length_c 14.830256
_cell_angle_alpha 90.000000
_cell_angle_beta 90.000000
_cell_angle_gamma 90.000000
_cell_volume 2807.104112
_symmetry_space_group_name_H-M "P N M A"
_symmetry_group_IT_number 62
_symmetry_cell_setting 'orthorhombic'
loop_
_space_group_symop_operation_xyz
x,y,z
1/2-x,-y,1/2+z
1/2+x,1/2-y,1/2-z
-x,1/2+y,-z
-x,-y,-z
1/2+x,y,1/2-z
1/2-x,1/2+y,1/2+z
x,1/2-y,z
loop_
_atom_site_type_symbol
_atom_site_label
_atom_site_fract_x
_atom_site_fract_y
_atom_site_fract_z
Si Si1 0.718091 0.432293 0.208730
Si Si2 0.037688 0.064814 0.916682
Si Si3 0.103771 0.933848 0.395845
Si Si4 0.180237 0.434590 0.919472
Si Si5 0.874014 0.432418 0.397403
Si Si6 0.483657 0.564115 0.215932
Si Si7 0.738650 0.932266 0.399023
O O1 0.720885 0.250000 0.221394
O O2 0.662218 0.478542 0.143697
O O3 0.779978 0.490311 0.160138
O O4 0.709314 0.513592 0.304993
O O5 0.036501 0.250000 0.922042
O O6 0.109124 0.017708 0.917615
O O7 0.009473 0.019331 0.820254
O O8 0.000000 0.000000 0.000000
O O9 0.113360 0.750000 0.382296
O O10 0.098952 0.960077 0.502535
O O11 0.042499 0.980281 0.343160
O O12 0.183874 0.250000 0.909776
O O13 0.209531 0.484050 0.014680
O O14 0.862659 0.250000 0.387266
O O15 0.922635 0.490662 0.325004
O O16 0.809851 0.520577 0.392107
O O17 0.477586 0.750000 0.211584
O O18 0.732318 0.750000 0.410515
#
# Coordination Sequence:
#
# PCOD9466647 Si02
#       7
#     8   8   8   8   8   8   8
#     4  12  25  41  65  97 130 170 216 267 327 391
#     4  10  24  43  65  92 126 167 213 267 317 377
#     4  10  22  40  63  93 132 170 211 265 319 384
#     4  11  23  43  66  95 132 169 213 267 320 382
#     4  11  22  39  64  96 131 168 210 264 322 384
#     4  10  22  41  64  92 127 173 218 259 321 386
#     4  12  25  41  65  93 126 171 215 268 324 382
#
# _framework density 19.949384999999999
#
# number of rings (size 3 to 8) (size 9 to 14) (size 15 to 20)
#    0.000    1.143    1.429    4.714    2.000    4.000 
#    0.000    0.000    0.000    0.000    0.000    0.000 
#    0.000    0.000    0.000    0.000    0.000    0.000 
#
# Total GULP energy -313367.633338 kJ/mol
# GULP energy per Si atom -5595.850595 kJ/mol
# Density = 1.990398 g / cm^3
# Si number density = 19.949385 Si / 1000 Ang^3
#
#
#
# Elastic Constant Matrix: (Units=GPa)
#
#
# Indices 1 2 3 4 5 6 
#
# 1 40.8755 7.1832 -9.8666 0.0000 0.0000 0.0000
# 2 7.1832 34.5208 3.6844 0.0000 0.0000 0.0000
# 3 -9.8666 3.6844 72.2107 0.0000 0.0000 0.0000
# 4 0.0000 0.0000 0.0000 24.3771 0.0000 0.0000
# 5 0.0000 0.0000 0.0000 0.0000 25.4900 0.0000
# 6 0.0000 0.0000 0.0000 0.0000 0.0000 30.4142
#
#
#
# Elastic Compliance Matrix: (Units=1/GPa)
#
#
# Indices 1 2 3 4 5 6 
#
# 1 0.026450 -0.005922 0.003916 0.000000 0.000000 0.000000
# 2 -0.005922 0.030452 -0.002363 0.000000 0.000000 0.000000
# 3 0.003916 -0.002363 0.014504 0.000000 0.000000 0.000000
# 4 0.000000 0.000000 0.000000 0.041022 0.000000 0.000000
# 5 0.000000 0.000000 0.000000 0.000000 0.039231 0.000000
# 6 0.000000 0.000000 0.000000 0.000000 0.000000 0.032879
#
#
# Mechanical properties :
#
#
# Convention : Reuss Voigt Hill
#
# Bulk Modulus (GPa) = 15.95663 16.62324 16.28994
# Shear Modulus (GPa) = 23.34631 25.82999 24.58815
#
# Velocity S-wave (km/s) = 3.42464 3.60220 3.51454
# Velocity P-wave (km/s) = 4.86349 5.06478 4.96515
#
# Compressibility (1/GPa) = 0.06266986
#
# Stress axis : x y z
#
# Youngs Moduli (GPa) = 37.80651 32.83808 68.94644
#
# Poissons Ratio (x) = 0.19446 -0.27001
# Poissons Ratio (y) = 0.22388 0.16291
# Poissons Ratio (z) = -0.14806 0.07759
#
# Static dielectric constant tensor:
#      x y z
#    x 1.675850 0.000000 0.000000 
#    y 0.000000 1.681940 0.000000 
#    z 0.000000 0.000000 1.686650 
# 
# From -- ./inp_files/20391.got.cif
#   From: 2010.05.17/outbox.cif.g08.bks.cpg/sg62_11_cif.got.tgz:20391.got - 2010.06.03 15:25:27.
