data_PCOD9466702
_publ_section_title
;
Structure prediction by ZEFSAII (Michael W. Deem and Ramdas Pophale) SiO2 
 PCOD9466702
Probable space group: P N M A
;
_chemical_formula_sum "Si O2"
_cell_formula_units_Z 60
_cell_length_a 12.786028
_cell_length_b 9.392829
_cell_length_c 22.950629
_cell_angle_alpha 90.000000
_cell_angle_beta 90.000000
_cell_angle_gamma 90.000000
_cell_volume 2756.301108
_symmetry_space_group_name_H-M "P N M A"
_symmetry_group_IT_number 62
_symmetry_cell_setting 'orthorhombic'
loop_
_space_group_symop_operation_xyz
x,y,z
1/2-x,-y,1/2+z
1/2+x,1/2-y,1/2-z
-x,1/2+y,-z
-x,-y,-z
1/2+x,y,1/2-z
1/2-x,1/2+y,1/2+z
x,1/2-y,z
loop_
_atom_site_type_symbol
_atom_site_label
_atom_site_fract_x
_atom_site_fract_y
_atom_site_fract_z
Si Si1 0.069934 0.091341 0.759120
Si Si2 0.163975 0.414129 0.385407
Si Si3 0.364039 0.088409 0.663570
Si Si4 0.980713 0.250000 0.976610
Si Si5 0.244900 0.089577 0.258576
Si Si6 0.745940 0.913869 0.923066
Si Si7 0.541812 0.415803 0.880574
Si Si8 0.855326 0.509022 0.039377
O O1 0.118691 0.250000 0.766877
O O2 0.042882 0.078734 0.690387
O O3 0.971233 0.087390 0.801645
O O4 0.139569 0.956856 0.775835
O O5 0.148074 0.250000 0.403608
O O6 0.173165 0.417523 0.315237
O O7 0.274932 0.467022 0.409876
O O8 0.064349 0.509096 0.402096
O O9 0.343426 0.250000 0.642713
O O10 0.283925 0.029917 0.711738
O O11 0.344905 0.980800 0.611210
O O12 0.912745 0.373604 0.011231
O O13 0.056475 0.125456 0.947023
O O14 0.239833 0.250000 0.234946
O O15 0.729916 0.750000 0.907291
O O16 0.778632 0.926552 0.989780
O O17 0.644096 0.004160 0.905164
O O18 0.545060 0.250000 0.897133
#
# Coordination Sequence:
#
# PCOD9466702 Si02
#       8
#     8   8   8   4   8   8   8   8
#     4  10  22  41  61  93 133 177 224 274 329 395
#     4  11  25  45  69 101 139 178 225 282 337 402
#     4  11  23  41  65  95 133 177 225 273 330 398
#     4  10  24  48  76  96 138 174 224 280 338 390
#     4  11  23  39  64  96 133 177 221 272 334 396
#     4  12  26  45  69 101 137 177 224 282 339 405
#     4  11  24  41  70  99 136 181 225 276 338 399
#     4  11  25  49  74 101 135 177 225 279 337 404
#
# _framework density 21.768304000000001
#
# number of rings (size 3 to 8) (size 9 to 14) (size 15 to 20)
#    0.000    1.067    4.000    1.600    2.800    4.800 
#    2.400    0.000    0.000    0.000    0.000    0.000 
#    0.000    0.000    0.000    0.000    0.000    0.000 
#
# Total GULP energy -334256.086318 kJ/mol
# GULP energy per Si atom -5570.934772 kJ/mol
# Density = 2.171876 g / cm^3
# Si number density = 21.768304 Si / 1000 Ang^3
#
#
#
# Elastic Constant Matrix: (Units=GPa)
#
#
# Indices 1 2 3 4 5 6 
#
# 1 47.5686 22.5562 -17.3905 0.0000 0.0000 0.0000
# 2 22.5562 119.8030 -17.9683 0.0000 0.0000 0.0000
# 3 -17.3905 -17.9683 31.6391 0.0000 0.0000 0.0000
# 4 0.0000 0.0000 0.0000 8.8387 0.0000 0.0000
# 5 0.0000 0.0000 0.0000 0.0000 27.8065 0.0000
# 6 0.0000 0.0000 0.0000 0.0000 0.0000 11.0110
#
#
#
# Elastic Compliance Matrix: (Units=1/GPa)
#
#
# Indices 1 2 3 4 5 6 
#
# 1 0.027365 -0.003166 0.013243 0.000000 0.000000 0.000000
# 2 -0.003166 0.009490 0.003650 0.000000 0.000000 0.000000
# 3 0.013243 0.003650 0.040958 0.000000 0.000000 0.000000
# 4 0.000000 0.000000 0.000000 0.113139 0.000000 0.000000
# 5 0.000000 0.000000 0.000000 0.000000 0.035963 0.000000
# 6 0.000000 0.000000 0.000000 0.000000 0.000000 0.090818
#
#
# Mechanical properties :
#
#
# Convention : Reuss Voigt Hill
#
# Bulk Modulus (GPa) = 9.49961 19.26730 14.38345
# Shear Modulus (GPa) = 15.36716 23.65213 19.50964
#
# Velocity S-wave (km/s) = 2.65984 3.29985 2.99698
# Velocity P-wave (km/s) = 3.71570 4.83621 4.31250
#
# Compressibility (1/GPa) = 0.10526751
#
# Stress axis : x y z
#
# Youngs Moduli (GPa) = 36.54295 105.36866 24.41510
#
# Poissons Ratio (x) = 0.33359 -0.32334
# Poissons Ratio (y) = 0.11569 -0.08910
# Poissons Ratio (z) = -0.48395 -0.38455
#
# Static dielectric constant tensor:
#      x y z
#    x 1.811020 0.000000 0.000000 
#    y 0.000000 1.759260 0.000000 
#    z 0.000000 0.000000 1.823500 
# 
# From -- ./inp_files/31118.got.cif
#   From: 2010.05.17/outbox.cif.g08.bks.cpg/sg62_16_cif.got.tgz:31118.got - 2010.06.03 15:25:27.
