data_PCOD9466640
_publ_section_title
;
Structure prediction by ZEFSAII (Michael W. Deem and Ramdas Pophale) SiO2 
 PCOD9466640
Probable space group: P N M A
;
_chemical_formula_sum "Si O2"
_cell_formula_units_Z 40
_cell_length_a 17.288537
_cell_length_b 13.037730
_cell_length_c 7.554118
_cell_angle_alpha 90.000000
_cell_angle_beta 90.000000
_cell_angle_gamma 90.000000
_cell_volume 1702.722956
_symmetry_space_group_name_H-M "P N M A"
_symmetry_group_IT_number 62
_symmetry_cell_setting 'orthorhombic'
loop_
_space_group_symop_operation_xyz
x,y,z
1/2-x,-y,1/2+z
1/2+x,1/2-y,1/2-z
-x,1/2+y,-z
-x,-y,-z
1/2+x,y,1/2-z
1/2-x,1/2+y,1/2+z
x,1/2-y,z
loop_
_atom_site_type_symbol
_atom_site_label
_atom_site_fract_x
_atom_site_fract_y
_atom_site_fract_z
Si Si1 0.078357 0.429497 0.723646
Si Si2 0.085836 0.572190 0.178143
Si Si3 0.803736 0.066245 0.139750
Si Si4 0.898359 0.359382 0.430597
Si Si5 0.368308 0.632991 0.854766
O O1 0.160455 0.453088 0.817817
O O2 0.088026 0.366395 0.544574
O O3 0.004999 0.401133 0.841858
O O4 0.110361 0.625596 0.361633
O O5 0.942529 0.456566 0.351371
O O6 0.098634 0.450785 0.217725
O O7 0.139618 0.603924 0.015907
O O8 0.715400 0.083153 0.096065
O O9 0.819176 0.128681 0.320772
O O10 0.933987 0.250000 0.389877
O O11 0.362216 0.750000 0.791206
#
# Coordination Sequence:
#
# PCOD9466640 Si02
#       5
#     8   8   8   8   8
#     4   9  22  40  62  90 123 161 202 253 304 365
#     4  11  22  40  66  89 124 165 201 257 311 359
#     4  10  22  40  63  87 121 160 208 249 305 362
#     4   9  20  36  60  91 121 157 205 245 301 365
#     4  11  22  40  62  91 125 162 203 255 308 365
#
# _framework density 23.491783999999999
#
# number of rings (size 3 to 8) (size 9 to 14) (size 15 to 20)
#    1.200    0.800    0.000    4.800    0.000    4.800 
#    0.000    1.000    0.000    0.000    0.000    0.000 
#    0.000    0.000    0.000    0.000    0.000    0.000 
#
# Total GULP energy -222885.890955 kJ/mol
# GULP energy per Si atom -5572.147274 kJ/mol
# Density = 2.343832 g / cm^3
# Si number density = 23.491784 Si / 1000 Ang^3
#
#
#
# Elastic Constant Matrix: (Units=GPa)
#
#
# Indices 1 2 3 4 5 6 
#
# 1 97.9995 10.9953 12.1539 0.0000 0.0000 0.0000
# 2 10.9953 88.3202 -6.9414 0.0000 0.0000 0.0000
# 3 12.1539 -6.9414 72.0402 0.0000 0.0000 0.0000
# 4 0.0000 0.0000 0.0000 -3.1258 0.0000 0.0000
# 5 0.0000 0.0000 0.0000 0.0000 33.1976 0.0000
# 6 0.0000 0.0000 0.0000 0.0000 0.0000 8.0281
#
#
#
# Elastic Compliance Matrix: (Units=1/GPa)
#
#
# Indices 1 2 3 4 5 6 
#
# 1 0.010609 -0.001473 -0.001932 0.000000 0.000000 0.000000
# 2 -0.001473 0.011613 0.001367 0.000000 0.000000 0.000000
# 3 -0.001932 0.001367 0.014339 0.000000 0.000000 0.000000
# 4 0.000000 0.000000 0.000000 -0.319922 0.000000 0.000000
# 5 0.000000 0.000000 0.000000 0.000000 0.030123 0.000000
# 6 0.000000 0.000000 0.000000 0.000000 0.000000 0.124563
#
#
# Mechanical properties :
#
#
# Convention : Reuss Voigt Hill
#
# Bulk Modulus (GPa) = 30.78134 32.30841 31.54487
# Shear Modulus (GPa) = -43.94701 23.76347 -10.09177
#
# Velocity S-wave (km/s) = -4.32990 3.18396 -2.07490
# Velocity P-wave (km/s) = 3.44469 5.22491 2.77794
#
# Compressibility (1/GPa) = 0.03248722
#
# Stress axis : x y z
#
# Youngs Moduli (GPa) = 94.26026 86.10866 69.74089
#
# Poissons Ratio (x) = 0.12680 0.13472
# Poissons Ratio (y) = 0.13880 -0.09537
# Poissons Ratio (z) = 0.18208 -0.11775
#
# Static dielectric constant tensor:
#      x y z
#    x 1.973610 0.000000 0.000000 
#    y 0.000000 1.906490 0.000000 
#    z 0.000000 0.000000 1.888300 
# 
# From -- ./inp_files/7475.got.cif
#   From: 2010.05.17/outbox.cif.g08.bks.cpg/sg62_4_cif.got.tgz:7475.got - 2010.06.03 15:25:27.
