data_PCOD9466584
_publ_section_title
;
Structure prediction by ZEFSAII (Michael W. Deem and Ramdas Pophale) SiO2 
 PCOD9466584
Probable space group: P N M A
;
_chemical_formula_sum "Si O2"
_cell_formula_units_Z 44
_cell_length_a 12.089734
_cell_length_b 9.635748
_cell_length_c 16.475501
_cell_angle_alpha 90.000000
_cell_angle_beta 90.000000
_cell_angle_gamma 90.000000
_cell_volume 1919.290921
_symmetry_space_group_name_H-M "P N M A"
_symmetry_group_IT_number 62
_symmetry_cell_setting 'orthorhombic'
loop_
_space_group_symop_operation_xyz
x,y,z
1/2-x,-y,1/2+z
1/2+x,1/2-y,1/2-z
-x,1/2+y,-z
-x,-y,-z
1/2+x,y,1/2-z
1/2-x,1/2+y,1/2+z
x,1/2-y,z
loop_
_atom_site_type_symbol
_atom_site_label
_atom_site_fract_x
_atom_site_fract_y
_atom_site_fract_z
Si Si1 0.165090 0.903706 0.016820
Si Si2 0.948135 0.250000 0.496181
Si Si3 0.973188 0.907431 0.879437
Si Si4 0.136135 0.413188 0.771845
Si Si5 0.556451 0.002555 0.897605
Si Si6 0.812074 0.590321 0.636482
O O1 0.176876 0.750000 0.053466
O O2 0.266207 0.927974 0.955297
O O3 0.061834 0.898500 0.953493
O O4 0.133219 0.017168 0.082996
O O5 0.015277 0.371037 0.547209
O O6 0.889330 0.126285 0.443181
O O7 0.953756 0.750000 0.850333
O O8 0.034391 0.005347 0.814642
O O9 0.131930 0.250000 0.791157
O O10 0.246273 0.482760 0.808283
O O11 0.126264 0.438919 0.676616
O O12 0.441971 0.934638 0.863489
O O13 0.786453 0.750000 0.658808
#
# Coordination Sequence:
#
# PCOD9466584 Si02
#       6
#     8   4   8   8   8   8
#     4   8  15  30  51  82 120 161 207 251 306 385
#     4  10  24  44  72  90 120 174 224 276 320 374
#     4   9  17  30  52  83 121 164 206 253 319 380
#     4  11  23  38  64  97 132 172 214 271 334 391
#     4  11  23  46  70  97 129 171 225 272 326 392
#     4  10  22  39  67  97 129 174 215 267 331 391
#
# _framework density 22.925131
#
# number of rings (size 3 to 8) (size 9 to 14) (size 15 to 20)
#    0.000    2.182    1.818    2.182    3.818    4.364 
#    0.000    3.636    4.000    0.000    0.000    0.000 
#    0.000    0.000    0.000    0.000    0.000    0.000 
#
# Total GULP energy -244945.438213 kJ/mol
# GULP energy per Si atom -5566.941778 kJ/mol
# Density = 2.287295 g / cm^3
# Si number density = 22.925131 Si / 1000 Ang^3
#
#
#
# Elastic Constant Matrix: (Units=GPa)
#
#
# Indices 1 2 3 4 5 6 
#
# 1 57.1967 23.3124 8.9152 0.0000 0.0000 0.0000
# 2 23.3124 226.4345 52.1529 0.0000 0.0000 0.0000
# 3 8.9152 52.1529 40.4894 0.0000 0.0000 0.0000
# 4 0.0000 0.0000 0.0000 31.3816 0.0000 0.0000
# 5 0.0000 0.0000 0.0000 0.0000 16.5019 0.0000
# 6 0.0000 0.0000 0.0000 0.0000 0.0000 -8.1567
#
#
#
# Elastic Compliance Matrix: (Units=1/GPa)
#
#
# Indices 1 2 3 4 5 6 
#
# 1 0.018398 -0.001366 -0.002291 0.000000 0.000000 0.000000
# 2 -0.001366 0.006381 -0.007918 0.000000 0.000000 0.000000
# 3 -0.002291 -0.007918 0.035401 0.000000 0.000000 0.000000
# 4 0.000000 0.000000 0.000000 0.031866 0.000000 0.000000
# 5 0.000000 0.000000 0.000000 0.000000 0.060599 0.000000
# 6 0.000000 0.000000 0.000000 0.000000 0.000000 -0.122599
#
#
# Mechanical properties :
#
#
# Convention : Reuss Voigt Hill
#
# Bulk Modulus (GPa) = 27.00594 54.76464 40.88529
# Shear Modulus (GPa) = 76.29143 23.92802 50.10972
#
# Velocity S-wave (km/s) = 5.77501 3.23421 4.68032
# Velocity P-wave (km/s) = 7.50155 6.15525 6.86150
#
# Compressibility (1/GPa) = 0.03702889
#
# Stress axis : x y z
#
# Youngs Moduli (GPa) = 54.35505 156.72491 28.24800
#
# Poissons Ratio (x) = 0.21416 0.06471
# Poissons Ratio (y) = 0.07428 0.22366
# Poissons Ratio (z) = 0.12452 1.24091
#
# Static dielectric constant tensor:
#      x y z
#    x 1.908960 0.000000 0.000000 
#    y 0.000000 1.806170 0.000000 
#    z 0.000000 0.000000 1.890570 
# 
# From -- ./inp_files/23541.got.cif
#   From: 2010.05.17/outbox.cif.g08.bks.cpg/sg62_12_cif.got.tgz:23541.got - 2010.06.03 15:25:27.
