data_PCOD9466594
_publ_section_title
;
Structure prediction by ZEFSAII (Michael W. Deem and Ramdas Pophale) SiO2 
 PCOD9466594
Probable space group: P N M A
;
_chemical_formula_sum "Si O2"
_cell_formula_units_Z 40
_cell_length_a 20.083998
_cell_length_b 7.450250
_cell_length_c 10.863285
_cell_angle_alpha 90.000000
_cell_angle_beta 90.000000
_cell_angle_gamma 90.000000
_cell_volume 1625.482091
_symmetry_space_group_name_H-M "P N M A"
_symmetry_group_IT_number 62
_symmetry_cell_setting 'orthorhombic'
loop_
_space_group_symop_operation_xyz
x,y,z
1/2-x,-y,1/2+z
1/2+x,1/2-y,1/2-z
-x,1/2+y,-z
-x,-y,-z
1/2+x,y,1/2-z
1/2-x,1/2+y,1/2+z
x,1/2-y,z
loop_
_atom_site_type_symbol
_atom_site_label
_atom_site_fract_x
_atom_site_fract_y
_atom_site_fract_z
Si Si1 0.431893 0.045447 0.788327
Si Si2 0.704080 0.535716 0.136724
Si Si3 0.785986 0.965059 0.369083
Si Si4 0.581168 0.030155 0.755150
Si Si5 0.421263 0.537723 0.515648
O O1 0.441105 0.250000 0.830566
O O2 0.371492 0.961569 0.864212
O O3 0.506276 0.965539 0.784560
O O4 0.404829 0.047039 0.646870
O O5 0.698404 0.750000 0.153068
O O6 0.743112 0.464950 0.254992
O O7 0.738259 0.508933 0.005304
O O8 0.786897 0.750000 0.359600
O O9 0.862037 0.026927 0.348955
O O10 0.577766 0.250000 0.750833
O O11 0.604652 0.976118 0.617286
O O12 0.500000 0.500000 0.500000
O O13 0.409328 0.750000 0.527537
#
# Coordination Sequence:
#
# PCOD9466594 Si02
#       5
#     8   8   8   8   8
#     4   9  18  34  54  79 112 145 182 234 285 330
#     4  10  23  40  58  83 115 148 186 237 289 334
#     4  10  22  40  59  81 111 150 189 228 280 344
#     4   8  16  32  54  78 108 144 181 224 274 328
#     4   9  16  28  50  81 113 147 182 224 275 331
#
# _framework density 24.608084000000002
#
# number of rings (size 3 to 8) (size 9 to 14) (size 15 to 20)
#    0.000    2.800    0.000    1.800    2.800    2.400 
#    0.000    5.000    0.000    0.000    0.000    0.000 
#    0.000    0.000    0.000    0.000    0.000    0.000 
#
# Total GULP energy -223292.760809 kJ/mol
# GULP energy per Si atom -5582.319020 kJ/mol
# Density = 2.455207 g / cm^3
# Si number density = 24.608084 Si / 1000 Ang^3
#
#
#
# Elastic Constant Matrix: (Units=GPa)
#
#
# Indices 1 2 3 4 5 6 
#
# 1 116.7824 7.4281 66.7296 0.0000 0.0000 0.0000
# 2 7.4281 80.9475 -15.4798 0.0000 0.0000 0.0000
# 3 66.7296 -15.4798 128.4997 0.0000 0.0000 0.0000
# 4 0.0000 0.0000 0.0000 19.7693 0.0000 0.0000
# 5 0.0000 0.0000 0.0000 0.0000 40.4512 0.0000
# 6 0.0000 0.0000 0.0000 0.0000 0.0000 -5.0916
#
#
#
# Elastic Compliance Matrix: (Units=1/GPa)
#
#
# Indices 1 2 3 4 5 6 
#
# 1 0.012641 -0.002472 -0.006863 0.000000 0.000000 0.000000
# 2 -0.002472 0.013129 0.002865 0.000000 0.000000 0.000000
# 3 -0.006863 0.002865 0.011691 0.000000 0.000000 0.000000
# 4 0.000000 0.000000 0.000000 0.050584 0.000000 0.000000
# 5 0.000000 0.000000 0.000000 0.000000 0.024721 0.000000
# 6 0.000000 0.000000 0.000000 0.000000 0.000000 -0.196403
#
#
# Mechanical properties :
#
#
# Convention : Reuss Voigt Hill
#
# Bulk Modulus (GPa) = 40.77960 49.28728 45.03344
# Shear Modulus (GPa) = -79.96892 28.86254 -25.55319
#
# Velocity S-wave (km/s) = -5.70680 3.42846 -3.22593
# Velocity P-wave (km/s) = 5.17840 5.97870 2.11294
#
# Compressibility (1/GPa) = 0.02452206
#
# Stress axis : x y z
#
# Youngs Moduli (GPa) = 79.10490 76.17000 85.53593
#
# Poissons Ratio (x) = 0.18832 0.58699
# Poissons Ratio (y) = 0.19558 -0.24510
# Poissons Ratio (z) = 0.54286 -0.21826
#
# Static dielectric constant tensor:
#      x y z
#    x 1.969890 0.000000 0.000000 
#    y 0.000000 1.955310 0.000000 
#    z 0.000000 0.000000 1.968570 
# 
# From -- ./inp_files/14618.got.cif
#   From: 2010.05.17/outbox.cif.g08.bks.cpg/sg62_8_cif.got.tgz:14618.got - 2010.06.03 15:25:27.
