data_PCOD9466917
_publ_section_title
;
Structure prediction by ZEFSAII (Michael W. Deem and Ramdas Pophale) SiO2 
 PCOD9466917
Probable space group: P N M A
;
_chemical_formula_sum "Si O2"
_cell_formula_units_Z 40
_cell_length_a 14.926961
_cell_length_b 13.832931
_cell_length_c 9.100431
_cell_angle_alpha 90.000000
_cell_angle_beta 90.000000
_cell_angle_gamma 90.000000
_cell_volume 1879.089951
_symmetry_space_group_name_H-M "P N M A"
_symmetry_group_IT_number 62
_symmetry_cell_setting 'orthorhombic'
loop_
_space_group_symop_operation_xyz
x,y,z
1/2-x,-y,1/2+z
1/2+x,1/2-y,1/2-z
-x,1/2+y,-z
-x,-y,-z
1/2+x,y,1/2-z
1/2-x,1/2+y,1/2+z
x,1/2-y,z
loop_
_atom_site_type_symbol
_atom_site_label
_atom_site_fract_x
_atom_site_fract_y
_atom_site_fract_z
Si Si1 0.227643 0.136574 0.548574
Si Si2 0.888470 0.141587 0.349397
Si Si3 0.278340 0.969735 0.737034
Si Si4 0.521332 0.035856 0.338833
Si Si5 0.017892 0.357378 0.627703
O O1 0.255059 0.250000 0.530710
O O2 0.241372 0.071676 0.400867
O O3 0.120815 0.137437 0.576829
O O4 0.273494 0.083041 0.689162
O O5 0.855042 0.250000 0.340437
O O6 0.803324 0.073440 0.356396
O O7 0.951079 0.116390 0.211514
O O8 0.952868 0.130959 0.488925
O O9 0.376184 0.933978 0.688042
O O10 0.500000 0.000000 0.500000
O O11 0.502258 0.944268 0.235190
O O12 0.003130 0.250000 0.691411
#
# Coordination Sequence:
#
# PCOD9466917 Si02
#       5
#     8   8   8   8   8
#     4  11  24  45  71 102 140 184 234 287 344 413
#     4  11  23  43  69  98 133 180 234 283 343 415
#     4  12  24  41  72 101 140 182 231 284 353 414
#     4  12  25  41  66 100 139 176 223 288 355 407
#     4  10  22  45  71  92 129 183 231 277 338 411
#
# _framework density 21.286898999999998
#
# number of rings (size 3 to 8) (size 9 to 14) (size 15 to 20)
#    0.000    0.800    4.000    3.600    0.000    2.400 
#    0.000    2.000    0.000    0.000    0.000    0.000 
#    0.000    0.000    0.000    0.000    0.000    0.000 
#
# Total GULP energy -223558.242538 kJ/mol
# GULP energy per Si atom -5588.956063 kJ/mol
# Density = 2.123845 g / cm^3
# Si number density = 21.286899 Si / 1000 Ang^3
#
#
#
# Elastic Constant Matrix: (Units=GPa)
#
#
# Indices 1 2 3 4 5 6 
#
# 1 83.5674 8.2372 -9.6421 0.0000 0.0000 0.0000
# 2 8.2372 98.0661 41.8699 0.0000 0.0000 0.0000
# 3 -9.6421 41.8699 55.1144 0.0000 0.0000 0.0000
# 4 0.0000 0.0000 0.0000 24.6901 0.0000 0.0000
# 5 0.0000 0.0000 0.0000 0.0000 13.9250 0.0000
# 6 0.0000 0.0000 0.0000 0.0000 0.0000 14.4807
#
#
#
# Elastic Compliance Matrix: (Units=1/GPa)
#
#
# Indices 1 2 3 4 5 6 
#
# 1 0.012784 -0.003003 0.004517 0.000000 0.000000 0.000000
# 2 -0.003003 0.015798 -0.012527 0.000000 0.000000 0.000000
# 3 0.004517 -0.012527 0.028451 0.000000 0.000000 0.000000
# 4 0.000000 0.000000 0.000000 0.040502 0.000000 0.000000
# 5 0.000000 0.000000 0.000000 0.000000 0.071813 0.000000
# 6 0.000000 0.000000 0.000000 0.000000 0.000000 0.069057
#
#
# Mechanical properties :
#
#
# Convention : Reuss Voigt Hill
#
# Bulk Modulus (GPa) = 28.56441 35.29751 31.93096
# Shear Modulus (GPa) = 18.37573 23.70468 21.04020
#
# Velocity S-wave (km/s) = 2.94128 3.34066 3.14731
# Velocity P-wave (km/s) = 4.99828 5.61229 5.31416
#
# Compressibility (1/GPa) = 0.03500860
#
# Stress axis : x y z
#
# Youngs Moduli (GPa) = 78.22534 63.30019 35.14844
#
# Poissons Ratio (x) = 0.19006 -0.15878
# Poissons Ratio (y) = 0.23487 0.44029
# Poissons Ratio (z) = -0.35338 0.79294
#
# Static dielectric constant tensor:
#      x y z
#    x 1.738550 0.000000 0.000000 
#    y 0.000000 1.825350 0.000000 
#    z 0.000000 0.000000 1.758310 
# 
# From -- ./inp_files/6131.got.cif
#   From: 2010.05.17/outbox.cif.g08.bks.cpg/sg62_4_cif.got.tgz:6131.got - 2010.06.03 15:25:27.
