data_PCOD9466068
_publ_section_title
;
Structure prediction by ZEFSAII (Michael W. Deem and Ramdas Pophale) SiO2 
 PCOD9466068
Probable space group: P N M A
;
_chemical_formula_sum "Si O2"
_cell_formula_units_Z 64
_cell_length_a 8.869871
_cell_length_b 14.207552
_cell_length_c 23.254881
_cell_angle_alpha 90.000000
_cell_angle_beta 90.000000
_cell_angle_gamma 90.000000
_cell_volume 2930.560418
_symmetry_space_group_name_H-M "P N M A"
_symmetry_group_IT_number 62
_symmetry_cell_setting 'orthorhombic'
loop_
_space_group_symop_operation_xyz
x,y,z
1/2-x,-y,1/2+z
1/2+x,1/2-y,1/2-z
-x,1/2+y,-z
-x,-y,-z
1/2+x,y,1/2-z
1/2-x,1/2+y,1/2+z
x,1/2-y,z
loop_
_atom_site_type_symbol
_atom_site_label
_atom_site_fract_x
_atom_site_fract_y
_atom_site_fract_z
Si Si1 0.134529 0.856894 0.664695
Si Si2 0.689971 0.142915 0.223640
Si Si3 0.010143 0.358368 0.687724
Si Si4 0.530484 0.641829 0.377035
Si Si5 0.828449 0.854287 0.008584
Si Si6 0.738301 0.498866 0.927360
Si Si7 0.310968 0.943919 0.283596
Si Si8 0.016455 0.145280 0.549451
O O1 0.130906 0.750000 0.641779
O O2 0.277062 0.864405 0.708014
O O3 0.982404 0.867761 0.702936
O O4 0.145963 0.930236 0.613268
O O5 0.738369 0.250000 0.207536
O O6 0.781217 0.052837 0.200631
O O7 0.042353 0.250000 0.703879
O O8 0.845296 0.389286 0.708705
O O9 0.007240 0.363335 0.618781
O O10 0.127055 0.426684 0.719570
O O11 0.575395 0.750000 0.366714
O O12 0.425088 0.638663 0.433656
O O13 0.670649 0.576038 0.390015
O O14 0.434175 0.602197 0.324717
O O15 0.856180 0.750000 0.983970
O O16 0.852720 0.937061 0.963622
O O17 0.651561 0.861100 0.025097
O O18 0.629641 0.437008 0.967976
O O19 0.075480 0.250000 0.535533
#
# Coordination Sequence:
#
# PCOD9466068 Si02
#       8
#     8   8   8   8   8   8   8   8
#     4  10  23  41  63  93 127 163 207 259 308 367
#     4  10  22  41  62  88 127 169 209 257 314 372
#     4  11  23  38  60  91 129 168 210 253 304 375
#     4  11  25  43  63  91 129 166 204 257 317 373
#     4  10  22  44  67  86 118 163 206 259 315 368
#     4  12  23  39  64  96 118 162 213 261 303 372
#     4  12  23  39  62  92 127 169 210 254 310 370
#     4  10  21  39  61  90 127 164 204 254 315 370
#
# _framework density 21.838826999999998
#
# number of rings (size 3 to 8) (size 9 to 14) (size 15 to 20)
#    0.000    1.250    1.250    4.875    5.250    0.000 
#    0.000    0.625    0.000    0.750    0.000    0.000 
#    0.000    0.000    0.000    0.000    0.000    0.000 
#
# Total GULP energy -357958.640730 kJ/mol
# GULP energy per Si atom -5593.103761 kJ/mol
# Density = 2.178912 g / cm^3
# Si number density = 21.838827 Si / 1000 Ang^3
#
#
#
# Elastic Constant Matrix: (Units=GPa)
#
#
# Indices 1 2 3 4 5 6 
#
# 1 39.9143 31.1092 1.4712 0.0000 0.0000 0.0000
# 2 31.1092 165.9988 29.4279 0.0000 0.0000 0.0000
# 3 1.4712 29.4279 39.4495 0.0000 0.0000 0.0000
# 4 0.0000 0.0000 0.0000 31.6629 0.0000 0.0000
# 5 0.0000 0.0000 0.0000 0.0000 30.2362 0.0000
# 6 0.0000 0.0000 0.0000 0.0000 0.0000 34.6014
#
#
#
# Elastic Compliance Matrix: (Units=1/GPa)
#
#
# Indices 1 2 3 4 5 6 
#
# 1 0.029756 -0.006200 0.003515 0.000000 0.000000 0.000000
# 2 -0.006200 0.008234 -0.005911 0.000000 0.000000 0.000000
# 3 0.003515 -0.005911 0.029627 0.000000 0.000000 0.000000
# 4 0.000000 0.000000 0.000000 0.031583 0.000000 0.000000
# 5 0.000000 0.000000 0.000000 0.000000 0.033073 0.000000
# 6 0.000000 0.000000 0.000000 0.000000 0.000000 0.028901
#
#
# Mechanical properties :
#
#
# Convention : Reuss Voigt Hill
#
# Bulk Modulus (GPa) = 19.83105 41.04214 30.43659
# Shear Modulus (GPa) = 25.61828 31.52373 28.57101
#
# Velocity S-wave (km/s) = 3.42871 3.80343 3.62092
# Velocity P-wave (km/s) = 4.97746 6.17431 5.60790
#
# Compressibility (1/GPa) = 0.05042598
#
# Stress axis : x y z
#
# Youngs Moduli (GPa) = 33.60656 121.44949 33.75281
#
# Poissons Ratio (x) = 0.75294 -0.11864
# Poissons Ratio (y) = 0.20835 0.19951
# Poissons Ratio (z) = -0.11813 0.71789
#
# Static dielectric constant tensor:
#      x y z
#    x 1.785210 0.000000 0.000000 
#    y 0.000000 1.837260 0.000000 
#    z 0.000000 0.000000 1.774850 
# 
# From -- ./inp_files/29004.got.cif
#   From: 2010.05.17/outbox.cif.g08.bks.cpg/sg62_15_cif.got.tgz:29004.got - 2010.06.03 15:25:27.
