data_PCOD9466923
_publ_section_title
;
Structure prediction by ZEFSAII (Michael W. Deem and Ramdas Pophale) SiO2 
 PCOD9466923
Probable space group: P N M A
;
_chemical_formula_sum "Si O2"
_cell_formula_units_Z 52
_cell_length_a 15.265727
_cell_length_b 18.522098
_cell_length_c 7.290907
_cell_angle_alpha 90.000000
_cell_angle_beta 90.000000
_cell_angle_gamma 90.000000
_cell_volume 2061.527953
_symmetry_space_group_name_H-M "P N M A"
_symmetry_group_IT_number 62
_symmetry_cell_setting 'orthorhombic'
loop_
_space_group_symop_operation_xyz
x,y,z
1/2-x,-y,1/2+z
1/2+x,1/2-y,1/2-z
-x,1/2+y,-z
-x,-y,-z
1/2+x,y,1/2-z
1/2-x,1/2+y,1/2+z
x,1/2-y,z
loop_
_atom_site_type_symbol
_atom_site_label
_atom_site_fract_x
_atom_site_fract_y
_atom_site_fract_z
Si Si1 0.308981 0.592202 0.342633
Si Si2 0.594156 0.987173 0.082288
Si Si3 0.766960 0.566488 0.737915
Si Si4 0.095260 0.890138 0.749870
Si Si5 0.926946 0.250000 0.468598
Si Si6 0.769284 0.750000 0.151059
Si Si7 0.989239 0.408611 0.905528
Si Si8 0.520819 0.250000 0.644645
O O1 0.262598 0.518687 0.276356
O O2 0.299751 0.593120 0.564928
O O3 0.270740 0.667980 0.268286
O O4 0.413868 0.585250 0.321338
O O5 0.630688 0.935364 0.925175
O O6 0.580007 0.943526 0.269486
O O7 0.647199 0.060131 0.110765
O O8 0.469681 0.067392 0.385709
O O9 0.689989 0.615439 0.653679
O O10 0.058162 0.819521 0.657444
O O11 0.000000 0.000000 0.500000
O O12 0.823424 0.250000 0.535104
O O13 0.994203 0.250000 0.639238
O O14 0.875152 0.750000 0.092734
O O15 0.977011 0.322682 0.927592
#
# Coordination Sequence:
#
# PCOD9466923 Si02
#       8
#     8   8   8   8   4   4   8   4
#     4  11  24  44  73 100 146 189 247 305 375 440
#     4  12  25  43  69 104 146 191 242 304 377 441
#     4  12  23  43  67 106 141 192 243 302 361 447
#     4  12  25  44  74 108 146 196 246 313 373 452
#     4  12  21  47  79 107 148 203 255 314 390 450
#     4  10  22  46  74 104 146 199 243 319 375 448
#     4  11  25  46  71 104 148 192 242 306 377 446
#     4  10  23  45  75 107 142 198 254 305 377 460
#
# _framework density 25.224008999999999
#
# number of rings (size 3 to 8) (size 9 to 14) (size 15 to 20)
#    0.000    0.615    4.615    3.231    0.000    1.846 
#    0.000    0.000    0.000    1.846    0.000    0.000 
#    0.000    0.000    0.000    0.000    0.000    0.000 
#
# Total GULP energy -290274.944766 kJ/mol
# GULP energy per Si atom -5582.210476 kJ/mol
# Density = 2.516660 g / cm^3
# Si number density = 25.224009 Si / 1000 Ang^3
#
#
#
# Elastic Constant Matrix: (Units=GPa)
#
#
# Indices 1 2 3 4 5 6 
#
# 1 94.0957 -17.3097 15.9526 0.0000 0.0000 0.0000
# 2 -17.3097 71.7820 10.5521 0.0000 0.0000 0.0000
# 3 15.9526 10.5521 102.7027 0.0000 0.0000 0.0000
# 4 0.0000 0.0000 0.0000 35.1182 0.0000 0.0000
# 5 0.0000 0.0000 0.0000 0.0000 30.7529 0.0000
# 6 0.0000 0.0000 0.0000 0.0000 0.0000 25.7521
#
#
#
# Elastic Compliance Matrix: (Units=1/GPa)
#
#
# Indices 1 2 3 4 5 6 
#
# 1 0.011555 0.003097 -0.002113 0.000000 0.000000 0.000000
# 2 0.003097 0.014975 -0.002020 0.000000 0.000000 0.000000
# 3 -0.002113 -0.002020 0.010273 0.000000 0.000000 0.000000
# 4 0.000000 0.000000 0.000000 0.028475 0.000000 0.000000
# 5 0.000000 0.000000 0.000000 0.000000 0.032517 0.000000
# 6 0.000000 0.000000 0.000000 0.000000 0.000000 0.038832
#
#
# Mechanical properties :
#
#
# Convention : Reuss Voigt Hill
#
# Bulk Modulus (GPa) = 28.79216 31.88558 30.33887
# Shear Modulus (GPa) = 33.27221 35.61700 34.44460
#
# Velocity S-wave (km/s) = 3.63584 3.76177 3.69934
# Velocity P-wave (km/s) = 5.39121 5.61572 5.50461
#
# Compressibility (1/GPa) = 0.03473168
#
# Stress axis : x y z
#
# Youngs Moduli (GPa) = 86.53905 66.77879 97.34657
#
# Poissons Ratio (x) = -0.20682 0.20570
# Poissons Ratio (y) = -0.26802 0.19661
# Poissons Ratio (z) = 0.18287 0.13487
#
# Static dielectric constant tensor:
#      x y z
#    x 2.714420 0.000000 0.000000 
#    y 0.000000 2.074080 0.000000 
#    z 0.000000 0.000000 2.272310 
# 
# From -- ./inp_files/7934.got.cif
#   From: 2010.05.17/outbox.cif.g08.bks.cpg/sg62_4_cif.got.tgz:7934.got - 2010.06.03 15:25:27.
