data_PCOD9466110
_publ_section_title
;
Structure prediction by ZEFSAII (Michael W. Deem and Ramdas Pophale) SiO2 
 PCOD9466110
Probable space group: P N M A
;
_chemical_formula_sum "Si O2"
_cell_formula_units_Z 48
_cell_length_a 4.923434
_cell_length_b 19.922040
_cell_length_c 19.368203
_cell_angle_alpha 90.000000
_cell_angle_beta 90.000000
_cell_angle_gamma 90.000000
_cell_volume 1899.727268
_symmetry_space_group_name_H-M "P N M A"
_symmetry_group_IT_number 62
_symmetry_cell_setting 'orthorhombic'
loop_
_space_group_symop_operation_xyz
x,y,z
1/2-x,-y,1/2+z
1/2+x,1/2-y,1/2-z
-x,1/2+y,-z
-x,-y,-z
1/2+x,y,1/2-z
1/2-x,1/2+y,1/2+z
x,1/2-y,z
loop_
_atom_site_type_symbol
_atom_site_label
_atom_site_fract_x
_atom_site_fract_y
_atom_site_fract_z
Si Si1 0.289550 0.558310 0.482745
Si Si2 0.907889 0.398165 0.800180
Si Si3 0.433544 0.002246 0.120980
Si Si4 0.654245 0.750000 0.750915
Si Si5 0.402209 0.638121 0.850031
Si Si6 0.910105 0.675278 0.936713
Si Si7 0.201304 0.750000 0.202413
O O1 0.500000 0.500000 0.500000
O O2 0.149613 0.549979 0.409397
O O3 0.410893 0.631149 0.494001
O O4 0.098388 0.545667 0.549924
O O5 0.201001 0.403883 0.765300
O O6 0.811664 0.458509 0.849879
O O7 0.862476 0.322855 0.830280
O O8 0.515211 0.062940 0.171833
O O9 0.408449 0.750000 0.690540
O O10 0.900599 0.808388 0.713162
O O11 0.610849 0.670927 0.903749
O O12 0.110177 0.635755 0.884894
O O13 0.002221 0.750000 0.951245
O O14 0.010816 0.750000 0.271277
#
# Coordination Sequence:
#
# PCOD9466110 Si02
#       7
#     8   8   8   4   8   8   4
#     4  10  21  39  63  89 125 164 199 253 309 362
#     4  10  22  38  64  90 123 161 205 250 302 367
#     4  10  23  39  62  91 125 162 205 253 308 369
#     4  12  24  38  56  84 119 153 208 262 294 348
#     4  11  22  38  60  82 114 162 197 245 309 357
#     4  11  20  38  63  84 114 156 202 238 300 375
#     4   8  16  36  58  82 113 157 192 240 306 354
#
# _framework density 25.266784999999999
#
# number of rings (size 3 to 8) (size 9 to 14) (size 15 to 20)
#    0.000    1.667    3.333    1.000    2.333    1.333 
#    1.500    0.000    1.833    0.000    0.000    0.000 
#    0.000    0.000    0.000    0.000    0.000    0.000 
#
# Total GULP energy -267609.661823 kJ/mol
# GULP energy per Si atom -5575.201288 kJ/mol
# Density = 2.520928 g / cm^3
# Si number density = 25.266785 Si / 1000 Ang^3
#
#
#
# Elastic Constant Matrix: (Units=GPa)
#
#
# Indices 1 2 3 4 5 6 
#
# 1 104.9315 -19.7991 17.5459 0.0000 0.0000 0.0000
# 2 -19.7991 143.0187 39.6709 0.0000 0.0000 0.0000
# 3 17.5459 39.6709 55.9342 0.0000 0.0000 0.0000
# 4 0.0000 0.0000 0.0000 38.9033 0.0000 0.0000
# 5 0.0000 0.0000 0.0000 0.0000 26.2432 0.0000
# 6 0.0000 0.0000 0.0000 0.0000 0.0000 23.2985
#
#
#
# Elastic Compliance Matrix: (Units=1/GPa)
#
#
# Indices 1 2 3 4 5 6 
#
# 1 0.011065 0.003105 -0.005673 0.000000 0.000000 0.000000
# 2 0.003105 0.009576 -0.007766 0.000000 0.000000 0.000000
# 3 -0.005673 -0.007766 0.025166 0.000000 0.000000 0.000000
# 4 0.000000 0.000000 0.000000 0.025705 0.000000 0.000000
# 5 0.000000 0.000000 0.000000 0.000000 0.038105 0.000000
# 6 0.000000 0.000000 0.000000 0.000000 0.000000 0.042921
#
#
# Mechanical properties :
#
#
# Convention : Reuss Voigt Hill
#
# Bulk Modulus (GPa) = 39.77911 42.07997 40.92954
# Shear Modulus (GPa) = 27.53532 35.45345 31.49439
#
# Velocity S-wave (km/s) = 3.30477 3.74995 3.53437
# Velocity P-wave (km/s) = 5.50816 5.95314 5.73497
#
# Compressibility (1/GPa) = 0.02513882
#
# Stress axis : x y z
#
# Youngs Moduli (GPa) = 90.37797 104.42623 39.73653
#
# Poissons Ratio (x) = -0.32429 0.22544
# Poissons Ratio (y) = -0.28066 0.30859
# Poissons Ratio (z) = 0.51275 0.81097
#
# Static dielectric constant tensor:
#      x y z
#    x 2.148780 0.000000 0.000000 
#    y 0.000000 2.208360 0.000000 
#    z 0.000000 0.000000 2.127580 
# 
# From -- ./inp_files/28348.got.cif
#   From: 2010.05.17/outbox.cif.g08.bks.cpg/sg62_15_cif.got.tgz:28348.got - 2010.06.03 15:25:27.
