data_PCOD9466330
_publ_section_title
;
Structure prediction by ZEFSAII (Michael W. Deem and Ramdas Pophale) SiO2 
 PCOD9466330
Probable space group: P N M A
;
_chemical_formula_sum "Si O2"
_cell_formula_units_Z 48
_cell_length_a 20.800151
_cell_length_b 13.438950
_cell_length_c 8.056464
_cell_angle_alpha 90.000000
_cell_angle_beta 90.000000
_cell_angle_gamma 90.000000
_cell_volume 2252.041020
_symmetry_space_group_name_H-M "P N M A"
_symmetry_group_IT_number 62
_symmetry_cell_setting 'orthorhombic'
loop_
_space_group_symop_operation_xyz
x,y,z
1/2-x,-y,1/2+z
1/2+x,1/2-y,1/2-z
-x,1/2+y,-z
-x,-y,-z
1/2+x,y,1/2-z
1/2-x,1/2+y,1/2+z
x,1/2-y,z
loop_
_atom_site_type_symbol
_atom_site_label
_atom_site_fract_x
_atom_site_fract_y
_atom_site_fract_z
Si Si1 0.567039 0.357504 0.706514
Si Si2 0.298267 0.633197 0.154517
Si Si3 0.004962 0.463537 0.311172
Si Si4 0.125605 0.442474 0.106155
Si Si5 0.753640 0.061941 0.200412
Si Si6 0.612511 0.864507 0.631292
O O1 0.540192 0.250000 0.741294
O O2 0.624488 0.380115 0.835161
O O3 0.512309 0.438162 0.706579
O O4 0.602520 0.364821 0.531405
O O5 0.285007 0.750000 0.183560
O O6 0.268786 0.556091 0.286896
O O7 0.271122 0.599268 0.977490
O O8 0.075806 0.433265 0.257581
O O9 0.000000 0.500000 0.500000
O O10 0.949432 0.388644 0.246480
O O11 0.196499 0.421662 0.170665
O O12 0.118976 0.550871 0.013714
O O13 0.821258 0.116855 0.232712
O O14 0.609842 0.750000 0.573346
#
# Coordination Sequence:
#
# PCOD9466330 Si02
#       6
#     8   8   8   8   8   8
#     4  10  21  41  64  92 126 168 216 266 328 396
#     4  11  22  40  67  96 133 178 221 273 336 396
#     4  11  24  43  65  94 131 171 217 277 334 398
#     4  11  24  39  69  94 133 175 215 276 334 395
#     4  12  22  41  68  99 137 173 220 281 328 396
#     4  11  24  44  68  96 132 177 226 276 338 402
#
# _framework density 21.314
#
# number of rings (size 3 to 8) (size 9 to 14) (size 15 to 20)
#    0.000    1.000    5.000    3.500    0.000    4.667 
#    0.000    1.667    0.000    0.000    0.000    0.000 
#    0.000    0.000    0.000    0.000    0.000    0.000 
#
# Total GULP energy -267960.416559 kJ/mol
# GULP energy per Si atom -5582.508678 kJ/mol
# Density = 2.126549 g / cm^3
# Si number density = 21.314000 Si / 1000 Ang^3
#
#
#
# Elastic Constant Matrix: (Units=GPa)
#
#
# Indices 1 2 3 4 5 6 
#
# 1 91.6964 -0.3706 25.8883 0.0000 0.0000 0.0000
# 2 -0.3706 82.9403 -0.3160 0.0000 0.0000 0.0000
# 3 25.8883 -0.3160 69.0338 0.0000 0.0000 0.0000
# 4 0.0000 0.0000 0.0000 12.0951 0.0000 0.0000
# 5 0.0000 0.0000 0.0000 0.0000 41.1435 0.0000
# 6 0.0000 0.0000 0.0000 0.0000 0.0000 15.2118
#
#
#
# Elastic Compliance Matrix: (Units=1/GPa)
#
#
# Indices 1 2 3 4 5 6 
#
# 1 0.012197 0.000037 -0.004574 0.000000 0.000000 0.000000
# 2 0.000037 0.012057 0.000041 0.000000 0.000000 0.000000
# 3 -0.004574 0.000041 0.016201 0.000000 0.000000 0.000000
# 4 0.000000 0.000000 0.000000 0.082678 0.000000 0.000000
# 5 0.000000 0.000000 0.000000 0.000000 0.024305 0.000000
# 6 0.000000 0.000000 0.000000 0.000000 0.000000 0.065739
#
#
# Mechanical properties :
#
#
# Convention : Reuss Voigt Hill
#
# Bulk Modulus (GPa) = 31.78201 32.67489 32.22845
# Shear Modulus (GPa) = 21.49093 28.25466 24.87279
#
# Velocity S-wave (km/s) = 3.17882 3.64488 3.41980
# Velocity P-wave (km/s) = 5.33075 5.75127 5.54500
#
# Compressibility (1/GPa) = 0.03146434
#
# Stress axis : x y z
#
# Youngs Moduli (GPa) = 81.98727 82.93807 61.72428
#
# Poissons Ratio (x) = -0.00307 0.28232
# Poissons Ratio (y) = -0.00304 -0.00255
# Poissons Ratio (z) = 0.37500 -0.00342
#
# Static dielectric constant tensor:
#      x y z
#    x 1.814680 0.000000 0.000000 
#    y 0.000000 1.777150 0.000000 
#    z 0.000000 0.000000 1.813500 
# 
# From -- ./inp_files/8594.got.cif
#   From: 2010.05.17/outbox.cif.g08.bks.cpg/sg62_5_cif.got.tgz:8594.got - 2010.06.03 15:25:27.
