data_PCOD9466878
_publ_section_title
;
Structure prediction by ZEFSAII (Michael W. Deem and Ramdas Pophale) SiO2 
 PCOD9466878
Probable space group: P N M A
;
_chemical_formula_sum "Si O2"
_cell_formula_units_Z 64
_cell_length_a 9.029568
_cell_length_b 31.473378
_cell_length_c 11.301468
_cell_angle_alpha 90.000000
_cell_angle_beta 90.000000
_cell_angle_gamma 90.000000
_cell_volume 3211.775570
_symmetry_space_group_name_H-M "P N M A"
_symmetry_group_IT_number 62
_symmetry_cell_setting 'orthorhombic'
loop_
_space_group_symop_operation_xyz
x,y,z
1/2-x,-y,1/2+z
1/2+x,1/2-y,1/2-z
-x,1/2+y,-z
-x,-y,-z
1/2+x,y,1/2-z
1/2-x,1/2+y,1/2+z
x,1/2-y,z
loop_
_atom_site_type_symbol
_atom_site_label
_atom_site_fract_x
_atom_site_fract_y
_atom_site_fract_z
Si Si1 0.430796 0.430443 0.025188
Si Si2 0.909955 0.479690 0.708515
Si Si3 0.236842 0.116813 0.425811
Si Si4 0.287222 0.631243 0.389293
Si Si5 0.354935 0.460319 0.282967
Si Si6 0.337723 0.799070 0.581741
Si Si7 0.614639 0.608576 0.322003
Si Si8 0.339404 0.299755 0.308234
O O1 0.475986 0.460430 0.913682
O O2 0.300322 0.401340 0.973079
O O3 0.572253 0.402734 0.065931
O O4 0.365621 0.452924 0.141556
O O5 0.783853 0.512635 0.673785
O O6 0.849274 0.438916 0.777711
O O7 0.009637 0.507245 0.797915
O O8 0.339150 0.085052 0.346404
O O9 0.305908 0.117281 0.555639
O O10 0.245474 0.164317 0.375256
O O11 0.328661 0.671088 0.469188
O O12 0.438907 0.612206 0.337650
O O13 0.177111 0.639232 0.279900
O O14 0.338726 0.750000 0.546132
O O15 0.489847 0.806640 0.655075
O O16 0.200478 0.806090 0.670684
O O17 0.302506 0.250000 0.334892
#
# Coordination Sequence:
#
# PCOD9466878 Si02
#       8
#     8   8   8   8   8   8   8   8
#     4  11  25  44  61  90 136 174 227 286 335 402
#     4  11  24  43  62  87 128 176 225 280 334 397
#     4  12  25  41  66  99 131 175 224 279 334 405
#     4  11  23  45  68  94 129 181 221 276 335 401
#     4  12  25  38  64  94 127 174 228 279 344 393
#     4  10  22  43  70 104 137 170 217 275 338 403
#     4  11  24  43  68  92 131 180 228 269 333 394
#     4  10  23  43  71 103 139 173 213 274 344 407
#
# _framework density 19.926673000000001
#
# number of rings (size 3 to 8) (size 9 to 14) (size 15 to 20)
#    0.000    1.000    2.500    4.875    7.000    0.500 
#    0.000    1.250    0.000    0.000    0.000    0.000 
#    0.000    0.000    0.000    0.000    0.000    0.000 
#
# Total GULP energy -357321.744450 kJ/mol
# GULP energy per Si atom -5583.152257 kJ/mol
# Density = 1.988132 g / cm^3
# Si number density = 19.926673 Si / 1000 Ang^3
#
#
#
# Elastic Constant Matrix: (Units=GPa)
#
#
# Indices 1 2 3 4 5 6 
#
# 1 61.9519 30.1726 10.6748 0.0000 0.0000 0.0000
# 2 30.1726 91.5739 48.6102 0.0000 0.0000 0.0000
# 3 10.6748 48.6102 81.4173 0.0000 0.0000 0.0000
# 4 0.0000 0.0000 0.0000 20.3131 0.0000 0.0000
# 5 0.0000 0.0000 0.0000 0.0000 34.2157 0.0000
# 6 0.0000 0.0000 0.0000 0.0000 0.0000 36.3156
#
#
#
# Elastic Compliance Matrix: (Units=1/GPa)
#
#
# Indices 1 2 3 4 5 6 
#
# 1 0.019419 -0.007388 0.001865 0.000000 0.000000 0.000000
# 2 -0.007388 0.018798 -0.010255 0.000000 0.000000 0.000000
# 3 0.001865 -0.010255 0.018160 0.000000 0.000000 0.000000
# 4 0.000000 0.000000 0.000000 0.049229 0.000000 0.000000
# 5 0.000000 0.000000 0.000000 0.000000 0.029226 0.000000
# 6 0.000000 0.000000 0.000000 0.000000 0.000000 0.027536
#
#
# Mechanical properties :
#
#
# Convention : Reuss Voigt Hill
#
# Bulk Modulus (GPa) = 40.28785 45.98427 43.13606
# Shear Modulus (GPa) = 24.72821 27.86791 26.29806
#
# Velocity S-wave (km/s) = 3.52655 3.74374 3.63677
# Velocity P-wave (km/s) = 6.06993 6.46640 6.27130
#
# Compressibility (1/GPa) = 0.02482138
#
# Stress axis : x y z
#
# Youngs Moduli (GPa) = 51.49725 53.19719 55.06491
#
# Poissons Ratio (x) = 0.39304 -0.10271
# Poissons Ratio (y) = 0.38048 0.56467
# Poissons Ratio (z) = -0.09605 0.54552
#
# Static dielectric constant tensor:
#      x y z
#    x 1.727650 0.000000 0.000000 
#    y 0.000000 1.710000 0.000000 
#    z 0.000000 0.000000 1.680570 
# 
# From -- ./inp_files/11562.got.cif
#   From: 2010.05.17/outbox.cif.g08.bks.cpg/sg62_6_cif.got.tgz:11562.got - 2010.06.03 15:25:27.
