data_PCOD9466909
_publ_section_title
;
Structure prediction by ZEFSAII (Michael W. Deem and Ramdas Pophale) SiO2 
 PCOD9466909
Probable space group: P N M A
;
_chemical_formula_sum "Si O2"
_cell_formula_units_Z 48
_cell_length_a 19.001260
_cell_length_b 18.783114
_cell_length_c 4.862357
_cell_angle_alpha 90.000000
_cell_angle_beta 90.000000
_cell_angle_gamma 90.000000
_cell_volume 1735.388987
_symmetry_space_group_name_H-M "P N M A"
_symmetry_group_IT_number 62
_symmetry_cell_setting 'orthorhombic'
loop_
_space_group_symop_operation_xyz
x,y,z
1/2-x,-y,1/2+z
1/2+x,1/2-y,1/2-z
-x,1/2+y,-z
-x,-y,-z
1/2+x,y,1/2-z
1/2-x,1/2+y,1/2+z
x,1/2-y,z
loop_
_atom_site_type_symbol
_atom_site_label
_atom_site_fract_x
_atom_site_fract_y
_atom_site_fract_z
Si Si1 0.364465 0.923393 0.601335
Si Si2 0.298820 0.172102 0.515144
Si Si3 0.539421 0.672300 0.485123
Si Si4 0.062248 0.529703 0.691193
Si Si5 0.906642 0.668353 0.377837
Si Si6 0.287297 0.421204 0.000389
O O1 0.387478 0.887526 0.885740
O O2 0.416136 0.979207 0.448998
O O3 0.364780 0.855865 0.393635
O O4 0.285579 0.955092 0.607750
O O5 0.267147 0.250000 0.552533
O O6 0.380169 0.175726 0.605941
O O7 0.295725 0.147789 0.200671
O O8 0.521897 0.750000 0.612216
O O9 0.538378 0.605326 0.685619
O O10 0.486657 0.662600 0.233092
O O11 0.000000 0.500000 0.500000
O O12 0.137451 0.539928 0.533551
O O13 0.893877 0.750000 0.456444
O O14 0.728301 0.608393 0.300611
#
# Coordination Sequence:
#
# PCOD9466909 Si02
#       6
#     8   8   8   8   8   8
#     4  12  29  49  81 119 166 222 279 352 424 500
#     4  10  22  44  80 115 155 210 272 335 411 495
#     4   9  23  50  81 119 164 214 275 348 415 494
#     4  11  29  55  85 123 170 224 288 346 423 515
#     4  11  27  51  81 121 167 217 278 345 423 503
#     4  11  26  49  77 115 164 213 274 346 416 495
#
# _framework density 27.659504999999999
#
# number of rings (size 3 to 8) (size 9 to 14) (size 15 to 20)
#    0.000    1.333    0.000    2.000    4.667   14.000 
#    0.000    5.833    0.000    0.000    0.000    0.000 
#    0.000    0.000    0.000    0.000    0.000    0.000 
#
# Total GULP energy -269338.985197 kJ/mol
# GULP energy per Si atom -5611.228858 kJ/mol
# Density = 2.759655 g / cm^3
# Si number density = 27.659505 Si / 1000 Ang^3
#
#
#
# Elastic Constant Matrix: (Units=GPa)
#
#
# Indices 1 2 3 4 5 6 
#
# 1 195.7504 54.5278 51.7522 0.0000 0.0000 0.0000
# 2 54.5278 227.9489 68.3313 0.0000 0.0000 0.0000
# 3 51.7522 68.3313 128.9119 0.0000 0.0000 0.0000
# 4 0.0000 0.0000 0.0000 38.2998 0.0000 0.0000
# 5 0.0000 0.0000 0.0000 0.0000 49.4411 0.0000
# 6 0.0000 0.0000 0.0000 0.0000 0.0000 15.2230
#
#
#
# Elastic Compliance Matrix: (Units=1/GPa)
#
#
# Indices 1 2 3 4 5 6 
#
# 1 0.005843 -0.000826 -0.001908 0.000000 0.000000 0.000000
# 2 -0.000826 0.005332 -0.002495 0.000000 0.000000 0.000000
# 3 -0.001908 -0.002495 0.009846 0.000000 0.000000 0.000000
# 4 0.000000 0.000000 0.000000 0.026110 0.000000 0.000000
# 5 0.000000 0.000000 0.000000 0.000000 0.020226 0.000000
# 6 0.000000 0.000000 0.000000 0.000000 0.000000 0.065690
#
#
# Mechanical properties :
#
#
# Convention : Reuss Voigt Hill
#
# Bulk Modulus (GPa) = 94.66458 100.20374 97.43416
# Shear Modulus (GPa) = 34.00764 45.79276 39.90020
#
# Velocity S-wave (km/s) = 3.51024 4.07331 3.80221
# Velocity P-wave (km/s) = 7.12238 7.64387 7.38773
#
# Compressibility (1/GPa) = 0.01056361
#
# Stress axis : x y z
#
# Youngs Moduli (GPa) = 171.14501 187.53309 101.56711
#
# Poissons Ratio (x) = 0.15486 0.19379
# Poissons Ratio (y) = 0.14132 0.25341
# Poissons Ratio (z) = 0.32654 0.46789
#
# Static dielectric constant tensor:
#      x y z
#    x 2.223230 0.000000 0.000000 
#    y 0.000000 2.161790 0.000000 
#    z 0.000000 0.000000 2.082340 
# 
# From -- ./inp_files/14199.got.cif
#   From: 2010.05.17/outbox.cif.g08.bks.cpg/sg62_8_cif.got.tgz:14199.got - 2010.06.03 15:25:27.
