data_PCOD9466782
_publ_section_title
;
Structure prediction by ZEFSAII (Michael W. Deem and Ramdas Pophale) SiO2 
 PCOD9466782
Probable space group: P N M A
;
_chemical_formula_sum "Si O2"
_cell_formula_units_Z 32
_cell_length_a 19.354748
_cell_length_b 13.689280
_cell_length_c 4.864236
_cell_angle_alpha 90.000000
_cell_angle_beta 90.000000
_cell_angle_gamma 90.000000
_cell_volume 1288.791804
_symmetry_space_group_name_H-M "P N M A"
_symmetry_group_IT_number 62
_symmetry_cell_setting 'orthorhombic'
loop_
_space_group_symop_operation_xyz
x,y,z
1/2-x,-y,1/2+z
1/2+x,1/2-y,1/2-z
-x,1/2+y,-z
-x,-y,-z
1/2+x,y,1/2-z
1/2-x,1/2+y,1/2+z
x,1/2-y,z
loop_
_atom_site_type_symbol
_atom_site_label
_atom_site_fract_x
_atom_site_fract_y
_atom_site_fract_z
Si Si1 0.097898 0.556020 0.430068
Si Si2 0.527463 0.639324 0.569623
Si Si3 0.252547 0.433302 0.029950
Si Si4 0.883831 0.858096 0.241295
O O1 0.073092 0.568245 0.120528
O O2 0.171743 0.608682 0.469740
O O3 0.108659 0.447084 0.545177
O O4 0.040256 0.606650 0.619978
O O5 0.552795 0.750000 0.534556
O O6 0.449750 0.637643 0.460242
O O7 0.249388 0.532301 0.844089
O O8 0.186640 0.373118 0.931362
O O9 0.883565 0.750000 0.371731
#
# Coordination Sequence:
#
# PCOD9466782 Si02
#       4
#     8   8   8   8
#     4  11  22  43  67  94 129 170 212 266 318 377
#     4  11  24  41  65  96 130 170 217 264 317 376
#     4  10  22  42  63  89 124 166 212 262 315 374
#     4  10  23  42  66  97 131 170 213 262 320 383
#
# _framework density 24.829453000000001
#
# number of rings (size 3 to 8) (size 9 to 14) (size 15 to 20)
#    0.000    1.500    0.000    5.250    0.000    6.000 
#    0.000   18.750    0.000    1.500    0.000    0.000 
#    0.000    0.000    0.000    0.000    0.000    0.000 
#
# Total GULP energy -179363.660594 kJ/mol
# GULP energy per Si atom -5605.114394 kJ/mol
# Density = 2.477294 g / cm^3
# Si number density = 24.829453 Si / 1000 Ang^3
#
#
#
# Elastic Constant Matrix: (Units=GPa)
#
#
# Indices 1 2 3 4 5 6 
#
# 1 158.4665 16.4489 8.0481 0.0000 0.0000 0.0000
# 2 16.4489 148.6466 7.1003 0.0000 0.0000 0.0000
# 3 8.0481 7.1003 68.0314 0.0000 0.0000 0.0000
# 4 0.0000 0.0000 0.0000 9.7187 0.0000 0.0000
# 5 0.0000 0.0000 0.0000 0.0000 39.6400 0.0000
# 6 0.0000 0.0000 0.0000 0.0000 0.0000 20.6464
#
#
#
# Elastic Compliance Matrix: (Units=1/GPa)
#
#
# Indices 1 2 3 4 5 6 
#
# 1 0.006416 -0.000677 -0.000688 0.000000 0.000000 0.000000
# 2 -0.000677 0.006833 -0.000633 0.000000 0.000000 0.000000
# 3 -0.000688 -0.000633 0.014847 0.000000 0.000000 0.000000
# 4 0.000000 0.000000 0.000000 0.102894 0.000000 0.000000
# 5 0.000000 0.000000 0.000000 0.000000 0.025227 0.000000
# 6 0.000000 0.000000 0.000000 0.000000 0.000000 0.048435
#
#
# Mechanical properties :
#
#
# Convention : Reuss Voigt Hill
#
# Bulk Modulus (GPa) = 41.49711 48.70434 45.10073
# Shear Modulus (GPa) = 23.07551 36.90418 29.98985
#
# Velocity S-wave (km/s) = 3.05185 3.85945 3.47916
# Velocity P-wave (km/s) = 5.40070 6.28638 5.86029
#
# Compressibility (1/GPa) = 0.02409806
#
# Stress axis : x y z
#
# Youngs Moduli (GPa) = 155.86712 146.35879 67.35556
#
# Poissons Ratio (x) = 0.09910 0.04636
# Poissons Ratio (y) = 0.10553 0.04264
# Poissons Ratio (z) = 0.10729 0.09264
#
# Static dielectric constant tensor:
#      x y z
#    x 1.989070 0.000000 0.000000 
#    y 0.000000 1.989000 0.000000 
#    z 0.000000 0.000000 1.887420 
# 
# From -- ./inp_files/1455.got.cif
#   From: 2010.05.17/outbox.cif.g08.bks.cpg/sg62_1_cif.got.tgz:1455.got - 2010.06.03 15:25:27.
