data_PCOD9466598
_publ_section_title
;
Structure prediction by ZEFSAII (Michael W. Deem and Ramdas Pophale) SiO2 
 PCOD9466598
Probable space group: P N M A
;
_chemical_formula_sum "Si O2"
_cell_formula_units_Z 48
_cell_length_a 20.538150
_cell_length_b 13.869397
_cell_length_c 8.003083
_cell_angle_alpha 90.000000
_cell_angle_beta 90.000000
_cell_angle_gamma 90.000000
_cell_volume 2279.692246
_symmetry_space_group_name_H-M "P N M A"
_symmetry_group_IT_number 62
_symmetry_cell_setting 'orthorhombic'
loop_
_space_group_symop_operation_xyz
x,y,z
1/2-x,-y,1/2+z
1/2+x,1/2-y,1/2-z
-x,1/2+y,-z
-x,-y,-z
1/2+x,y,1/2-z
1/2-x,1/2+y,1/2+z
x,1/2-y,z
loop_
_atom_site_type_symbol
_atom_site_label
_atom_site_fract_x
_atom_site_fract_y
_atom_site_fract_z
Si Si1 0.331847 0.136894 0.209178
Si Si2 0.547085 0.967687 0.856065
Si Si3 0.120327 0.360497 0.795608
Si Si4 0.861121 0.366098 0.916667
Si Si5 0.498486 0.638031 0.540476
Si Si6 0.270064 0.133582 0.883375
O O1 0.318586 0.250000 0.228836
O O2 0.402268 0.120106 0.123093
O O3 0.336706 0.098491 0.399639
O O4 0.283165 0.095467 0.070634
O O5 0.507193 0.934110 0.693460
O O6 0.593533 0.059053 0.826627
O O7 0.500000 0.000000 0.000000
O O8 0.113859 0.250000 0.734660
O O9 0.195302 0.378843 0.834833
O O10 0.071110 0.369568 0.952516
O O11 0.852250 0.250000 0.916324
O O12 0.939291 0.380719 0.918760
O O13 0.819976 0.403700 0.759097
O O14 0.506217 0.750000 0.595239
O O15 0.280462 0.250000 0.892120
#
# Coordination Sequence:
#
# PCOD9466598 Si02
#       6
#     8   8   8   8   8   8
#     4   9  19  38  61  85 114 153 204 250 294 356
#     4  11  23  38  56  91 121 152 201 249 297 360
#     4  10  22  40  59  86 122 158 194 245 311 362
#     4   8  15  31  59  85 107 147 198 242 286 344
#     4   9  19  39  64  85 114 159 201 247 301 353
#     4   9  18  36  60  85 116 153 199 248 300 360
#
# _framework density 21.055474
#
# number of rings (size 3 to 8) (size 9 to 14) (size 15 to 20)
#    0.000    2.667    0.000    2.000    2.333    1.333 
#    9.000    0.000    0.000    0.000    0.000    0.000 
#    0.000    0.000    0.000    0.000    0.000    0.000 
#
# Total GULP energy -267604.124847 kJ/mol
# GULP energy per Si atom -5575.085934 kJ/mol
# Density = 2.100755 g / cm^3
# Si number density = 21.055474 Si / 1000 Ang^3
#
#
#
# Elastic Constant Matrix: (Units=GPa)
#
#
# Indices 1 2 3 4 5 6 
#
# 1 73.7021 -3.3045 44.9794 0.0000 0.0000 0.0000
# 2 -3.3045 50.6344 5.7229 0.0000 0.0000 0.0000
# 3 44.9794 5.7229 54.5010 0.0000 0.0000 0.0000
# 4 0.0000 0.0000 0.0000 22.4626 0.0000 0.0000
# 5 0.0000 0.0000 0.0000 0.0000 34.3055 0.0000
# 6 0.0000 0.0000 0.0000 0.0000 0.0000 24.4558
#
#
#
# Elastic Compliance Matrix: (Units=1/GPa)
#
#
# Indices 1 2 3 4 5 6 
#
# 1 0.028334 0.004546 -0.023862 0.000000 0.000000 0.000000
# 2 0.004546 0.020716 -0.005927 0.000000 0.000000 0.000000
# 3 -0.023862 -0.005927 0.038663 0.000000 0.000000 0.000000
# 4 0.000000 0.000000 0.000000 0.044518 0.000000 0.000000
# 5 0.000000 0.000000 0.000000 0.000000 0.029150 0.000000
# 6 0.000000 0.000000 0.000000 0.000000 0.000000 0.040890
#
#
# Mechanical properties :
#
#
# Convention : Reuss Voigt Hill
#
# Bulk Modulus (GPa) = 26.86108 30.40369 28.63238
# Shear Modulus (GPa) = 18.85605 25.00745 21.93175
#
# Velocity S-wave (km/s) = 2.99581 3.45003 3.23091
# Velocity P-wave (km/s) = 4.97508 5.50831 5.24847
#
# Compressibility (1/GPa) = 0.03722859
#
# Stress axis : x y z
#
# Youngs Moduli (GPa) = 35.29282 48.27190 25.86419
#
# Poissons Ratio (x) = -0.21945 0.61716
# Poissons Ratio (y) = -0.16044 0.15330
# Poissons Ratio (z) = 0.84214 0.28611
#
# Static dielectric constant tensor:
#      x y z
#    x 1.730330 0.000000 0.000000 
#    y 0.000000 1.821940 0.000000 
#    z 0.000000 0.000000 1.788790 
# 
# From -- ./inp_files/7606.got.cif
#   From: 2010.05.17/outbox.cif.g08.bks.cpg/sg62_4_cif.got.tgz:7606.got - 2010.06.03 15:25:27.
