data_PCOD9466175
_publ_section_title
;
Structure prediction by ZEFSAII (Michael W. Deem and Ramdas Pophale) SiO2 
 PCOD9466175
Probable space group: P N M A
;
_chemical_formula_sum "Si O2"
_cell_formula_units_Z 56
_cell_length_a 8.026953
_cell_length_b 15.399260
_cell_length_c 20.291822
_cell_angle_alpha 90.000000
_cell_angle_beta 90.000000
_cell_angle_gamma 90.000000
_cell_volume 2508.254590
_symmetry_space_group_name_H-M "P N M A"
_symmetry_group_IT_number 62
_symmetry_cell_setting 'orthorhombic'
loop_
_space_group_symop_operation_xyz
x,y,z
1/2-x,-y,1/2+z
1/2+x,1/2-y,1/2-z
-x,1/2+y,-z
-x,-y,-z
1/2+x,y,1/2-z
1/2-x,1/2+y,1/2+z
x,1/2-y,z
loop_
_atom_site_type_symbol
_atom_site_label
_atom_site_fract_x
_atom_site_fract_y
_atom_site_fract_z
Si Si1 0.316284 0.381201 0.785706
Si Si2 0.149237 0.154244 0.920337
Si Si3 0.606575 0.506921 0.398824
Si Si4 0.683573 0.850974 0.952727
Si Si5 0.948665 0.648047 0.663589
Si Si6 0.173828 0.345872 0.652826
Si Si7 0.131615 0.560457 0.786173
O O1 0.201383 0.345436 0.844269
O O2 0.300427 0.339578 0.714484
O O3 0.500284 0.371344 0.813517
O O4 0.249811 0.477981 0.775368
O O5 0.074124 0.250000 0.935300
O O6 0.031404 0.071048 0.930777
O O7 0.310874 0.145190 0.967799
O O8 0.676995 0.420412 0.432082
O O9 0.758735 0.574104 0.389032
O O10 0.517903 0.471694 0.332595
O O11 0.725134 0.750000 0.936057
O O12 0.520296 0.872244 0.909417
O O13 0.969846 0.750000 0.674956
O O14 0.060978 0.599424 0.718518
O O15 0.755923 0.624757 0.675113
O O16 0.161359 0.250000 0.621634
#
# Coordination Sequence:
#
# PCOD9466175 Si02
#       7
#     8   8   8   8   8   8   8
#     4  11  22  37  59  86 120 153 191 239 291 352
#     4  10  21  40  61  85 118 158 197 238 289 350
#     4  11  23  39  61  88 119 152 194 245 295 348
#     4  10  22  40  62  84 115 157 200 241 288 346
#     4  11  22  38  59  86 118 154 197 247 295 345
#     4  12  23  37  60  90 120 153 191 240 298 355
#     4  11  22  37  59  87 117 153 192 242 301 352
#
# _framework density 22.326283
#
# number of rings (size 3 to 8) (size 9 to 14) (size 15 to 20)
#    0.000    1.143    0.000    8.571    0.000    2.286 
#    0.000    7.857    0.000    3.429    0.000    0.000 
#    0.000    0.000    0.000    0.000    0.000    0.000 
#
# Total GULP energy -312670.131811 kJ/mol
# GULP energy per Si atom -5583.395211 kJ/mol
# Density = 2.227547 g / cm^3
# Si number density = 22.326283 Si / 1000 Ang^3
#
#
#
# Elastic Constant Matrix: (Units=GPa)
#
#
# Indices 1 2 3 4 5 6 
#
# 1 60.8235 10.1654 -12.5287 0.0000 0.0000 0.0000
# 2 10.1654 110.0423 13.9791 0.0000 0.0000 0.0000
# 3 -12.5287 13.9791 28.3056 0.0000 0.0000 0.0000
# 4 0.0000 0.0000 0.0000 16.6440 0.0000 0.0000
# 5 0.0000 0.0000 0.0000 0.0000 12.0381 0.0000
# 6 0.0000 0.0000 0.0000 0.0000 0.0000 -91.0502
#
#
#
# Elastic Compliance Matrix: (Units=1/GPa)
#
#
# Indices 1 2 3 4 5 6 
#
# 1 0.018981 -0.003009 0.009888 0.000000 0.000000 0.000000
# 2 -0.003009 0.010173 -0.006356 0.000000 0.000000 0.000000
# 3 0.009888 -0.006356 0.042844 0.000000 0.000000 0.000000
# 4 0.000000 0.000000 0.000000 0.060082 0.000000 0.000000
# 5 0.000000 0.000000 0.000000 0.000000 0.083069 0.000000
# 6 0.000000 0.000000 0.000000 0.000000 0.000000 -0.010983
#
#
# Mechanical properties :
#
#
# Convention : Reuss Voigt Hill
#
# Bulk Modulus (GPa) = 13.69081 24.71147 19.20114
# Shear Modulus (GPa) = 21.98103 0.03009 11.00556
#
# Velocity S-wave (km/s) = 3.14114 0.11622 2.22264
# Velocity P-wave (km/s) = 4.39330 3.33322 3.89945
#
# Compressibility (1/GPa) = 0.07304171
#
# Stress axis : x y z
#
# Youngs Moduli (GPa) = 52.68523 98.30082 23.34039
#
# Poissons Ratio (x) = 0.29583 -0.23078
# Poissons Ratio (y) = 0.15855 0.14835
# Poissons Ratio (z) = -0.52093 0.62481
#
# Static dielectric constant tensor:
#      x y z
#    x 1.835520 0.000000 0.000000 
#    y 0.000000 1.991490 0.000000 
#    z 0.000000 0.000000 1.851250 
# 
# From -- ./inp_files/25964.got.cif
#   From: 2010.05.17/outbox.cif.g08.bks.cpg/sg62_13_cif.got.tgz:25964.got - 2010.06.03 15:25:27.
