data_PCOD9466556
_publ_section_title
;
Structure prediction by ZEFSAII (Michael W. Deem and Ramdas Pophale) SiO2 
 PCOD9466556
Probable space group: P N M A
;
_chemical_formula_sum "Si O2"
_cell_formula_units_Z 48
_cell_length_a 20.029504
_cell_length_b 8.842550
_cell_length_c 14.442281
_cell_angle_alpha 90.000000
_cell_angle_beta 90.000000
_cell_angle_gamma 90.000000
_cell_volume 2557.899692
_symmetry_space_group_name_H-M "P N M A"
_symmetry_group_IT_number 62
_symmetry_cell_setting 'orthorhombic'
loop_
_space_group_symop_operation_xyz
x,y,z
1/2-x,-y,1/2+z
1/2+x,1/2-y,1/2-z
-x,1/2+y,-z
-x,-y,-z
1/2+x,y,1/2-z
1/2-x,1/2+y,1/2+z
x,1/2-y,z
loop_
_atom_site_type_symbol
_atom_site_label
_atom_site_fract_x
_atom_site_fract_y
_atom_site_fract_z
Si Si1 0.863559 0.927689 0.529692
Si Si2 0.333769 0.429593 0.638053
Si Si3 0.075424 0.928957 0.642545
Si Si4 0.287548 0.071029 0.255166
Si Si5 0.935035 0.570478 0.726198
Si Si6 0.220538 0.070229 0.957107
O O1 0.848096 0.750000 0.519426
O O2 0.892696 0.952532 0.631973
O O3 0.915802 0.978810 0.451871
O O4 0.796384 0.023585 0.517191
O O5 0.329838 0.250000 0.630397
O O6 0.271881 0.490191 0.699770
O O7 0.400187 0.480498 0.691635
O O8 0.326050 0.504414 0.537568
O O9 0.068213 0.750000 0.620562
O O10 0.142992 0.949012 0.701125
O O11 0.010597 0.973560 0.701292
O O12 0.272345 0.250000 0.260149
O O13 0.292923 0.003979 0.357719
O O14 0.933350 0.750000 0.747205
O O15 0.215013 0.250000 0.952407
#
# Coordination Sequence:
#
# PCOD9466556 Si02
#       6
#     8   8   8   8   8   8
#     4  11  21  34  59  90 125 159 196 247 301 360
#     4  12  24  39  62  90 120 159 203 249 301 358
#     4  10  22  39  61  88 124 164 201 244 303 363
#     4  11  22  39  62  89 122 158 200 250 298 358
#     4  10  22  40  60  88 125 164 201 246 301 360
#     4  12  24  39  61  89 121 157 203 253 300 355
#
# _framework density 18.765397
#
# number of rings (size 3 to 8) (size 9 to 14) (size 15 to 20)
#    0.000    1.000    3.333    4.500    0.000    2.000 
#    0.000    0.833    0.000    0.000    0.000    0.000 
#    0.000    0.000    0.000    0.000    0.000    0.000 
#
# Total GULP energy -268500.525071 kJ/mol
# GULP energy per Si atom -5593.760939 kJ/mol
# Density = 1.872269 g / cm^3
# Si number density = 18.765397 Si / 1000 Ang^3
#
#
#
# Elastic Constant Matrix: (Units=GPa)
#
#
# Indices 1 2 3 4 5 6 
#
# 1 24.6708 8.8711 -20.2465 0.0000 0.0000 0.0000
# 2 8.8711 69.6762 17.6245 0.0000 0.0000 0.0000
# 3 -20.2465 17.6245 70.6913 0.0000 0.0000 0.0000
# 4 0.0000 0.0000 0.0000 28.1063 0.0000 0.0000
# 5 0.0000 0.0000 0.0000 0.0000 21.1069 0.0000
# 6 0.0000 0.0000 0.0000 0.0000 0.0000 23.1118
#
#
#
# Elastic Compliance Matrix: (Units=1/GPa)
#
#
# Indices 1 2 3 4 5 6 
#
# 1 0.062875 -0.013406 0.021350 0.000000 0.000000 0.000000
# 2 -0.013406 0.018176 -0.008371 0.000000 0.000000 0.000000
# 3 0.021350 -0.008371 0.022348 0.000000 0.000000 0.000000
# 4 0.000000 0.000000 0.000000 0.035579 0.000000 0.000000
# 5 0.000000 0.000000 0.000000 0.000000 0.047378 0.000000
# 6 0.000000 0.000000 0.000000 0.000000 0.000000 0.043268
#
#
# Mechanical properties :
#
#
# Convention : Reuss Voigt Hill
#
# Bulk Modulus (GPa) = 9.75168 19.72630 14.73899
# Shear Modulus (GPa) = 18.89214 25.05095 21.97155
#
# Velocity S-wave (km/s) = 3.17638 3.65767 3.42549
# Velocity P-wave (km/s) = 4.31977 5.32662 4.84940
#
# Compressibility (1/GPa) = 0.10254640
#
# Stress axis : x y z
#
# Youngs Moduli (GPa) = 15.90445 55.01644 44.74689
#
# Poissons Ratio (x) = 0.73754 -0.95536
# Poissons Ratio (y) = 0.21321 0.37458
# Poissons Ratio (z) = -0.33956 0.46055
#
# Static dielectric constant tensor:
#      x y z
#    x 1.649290 0.000000 0.000000 
#    y 0.000000 1.627170 0.000000 
#    z 0.000000 0.000000 1.634800 
# 
# From -- ./inp_files/20019.got.cif
#   From: 2010.05.17/outbox.cif.g08.bks.cpg/sg62_11_cif.got.tgz:20019.got - 2010.06.03 15:25:27.
