data_PCOD9466685
_publ_section_title
;
Structure prediction by ZEFSAII (Michael W. Deem and Ramdas Pophale) SiO2 
 PCOD9466685
Probable space group: P N M A
;
_chemical_formula_sum "Si O2"
_cell_formula_units_Z 48
_cell_length_a 29.776253
_cell_length_b 9.683965
_cell_length_c 8.821621
_cell_angle_alpha 90.000000
_cell_angle_beta 90.000000
_cell_angle_gamma 90.000000
_cell_volume 2543.733751
_symmetry_space_group_name_H-M "P N M A"
_symmetry_group_IT_number 62
_symmetry_cell_setting 'orthorhombic'
loop_
_space_group_symop_operation_xyz
x,y,z
1/2-x,-y,1/2+z
1/2+x,1/2-y,1/2-z
-x,1/2+y,-z
-x,-y,-z
1/2+x,y,1/2-z
1/2-x,1/2+y,1/2+z
x,1/2-y,z
loop_
_atom_site_type_symbol
_atom_site_label
_atom_site_fract_x
_atom_site_fract_y
_atom_site_fract_z
Si Si1 0.583464 0.097039 0.212344
Si Si2 0.821607 0.490616 0.817032
Si Si3 0.397716 0.250000 0.163561
Si Si4 0.675918 0.750000 0.567983
Si Si5 0.245352 0.250000 0.188834
Si Si6 0.510958 0.903809 0.360141
Si Si7 0.546666 0.478904 0.907022
Si Si8 0.317796 0.250000 0.925754
O O1 0.567135 0.250000 0.257647
O O2 0.632024 0.068555 0.280248
O O3 0.552134 0.976002 0.274736
O O4 0.579941 0.088818 0.029571
O O5 0.784341 0.610626 0.821197
O O6 0.814099 0.384499 0.678949
O O7 0.825169 0.388240 0.962879
O O8 0.365695 0.250000 0.312242
O O9 0.429960 0.118313 0.149332
O O10 0.364567 0.250000 0.017945
O O11 0.722357 0.750000 0.663481
O O12 0.278644 0.250000 0.047326
O O13 0.522720 0.750000 0.408192
O O14 0.500000 0.000000 0.500000
O O15 0.469496 0.900967 0.242735
O O16 0.500000 0.500000 0.000000
#
# Coordination Sequence:
#
# PCOD9466685 Si02
#       8
#     8   8   4   4   4   8   8   4
#     4  11  23  40  64  93 125 168 215 262 318 372
#     4  11  22  40  66  97 127 162 211 266 317 389
#     4  11  22  42  63  95 123 172 215 272 309 387
#     4  10  26  40  68  96 127 170 212 264 327 392
#     4  11  22  44  65  95 132 165 207 260 330 384
#     4  11  26  41  63  91 129 173 213 267 317 376
#     4  10  24  37  65  89 126 165 224 258 316 374
#     4  10  22  40  68  92 124 169 214 250 322 395
#
# _framework density 18.869899
#
# number of rings (size 3 to 8) (size 9 to 14) (size 15 to 20)
#    0.000    1.333    2.500    2.000   15.167    0.000 
#    0.000    0.000    1.833    0.000    0.000    0.000 
#    0.000    0.000    0.000    0.000    0.000    0.000 
#
# Total GULP energy -267877.949017 kJ/mol
# GULP energy per Si atom -5580.790605 kJ/mol
# Density = 1.882695 g / cm^3
# Si number density = 18.869899 Si / 1000 Ang^3
#
#
#
# Elastic Constant Matrix: (Units=GPa)
#
#
# Indices 1 2 3 4 5 6 
#
# 1 96.6867 48.6559 34.6111 0.0000 0.0000 0.0000
# 2 48.6559 160.0135 45.8478 0.0000 0.0000 0.0000
# 3 34.6111 45.8478 109.3043 0.0000 0.0000 0.0000
# 4 0.0000 0.0000 0.0000 19.3392 0.0000 0.0000
# 5 0.0000 0.0000 0.0000 0.0000 22.1228 0.0000
# 6 0.0000 0.0000 0.0000 0.0000 0.0000 35.3229
#
#
#
# Elastic Compliance Matrix: (Units=1/GPa)
#
#
# Indices 1 2 3 4 5 6 
#
# 1 0.012912 -0.003131 -0.002775 0.000000 0.000000 0.000000
# 2 -0.003131 0.007862 -0.002306 0.000000 0.000000 0.000000
# 3 -0.002775 -0.002306 0.010995 0.000000 0.000000 0.000000
# 4 0.000000 0.000000 0.000000 0.051708 0.000000 0.000000
# 5 0.000000 0.000000 0.000000 0.000000 0.045202 0.000000
# 6 0.000000 0.000000 0.000000 0.000000 0.000000 0.028310
#
#
# Mechanical properties :
#
#
# Convention : Reuss Voigt Hill
#
# Bulk Modulus (GPa) = 65.17274 69.35933 67.26604
# Shear Modulus (GPa) = 28.00652 31.14963 29.57808
#
# Velocity S-wave (km/s) = 3.85670 4.06736 3.96343
# Velocity P-wave (km/s) = 7.37869 7.67426 7.52793
#
# Compressibility (1/GPa) = 0.01534384
#
# Stress axis : x y z
#
# Youngs Moduli (GPa) = 77.44898 127.18804 90.95058
#
# Poissons Ratio (x) = 0.39822 0.25241
# Poissons Ratio (y) = 0.24249 0.20977
# Poissons Ratio (z) = 0.21494 0.29336
#
# Static dielectric constant tensor:
#      x y z
#    x 1.390400 0.000000 0.000000 
#    y 0.000000 1.620820 0.000000 
#    z 0.000000 0.000000 1.652150 
# 
# From -- ./inp_files/10348.got.cif
#   From: 2010.05.17/outbox.cif.g08.bks.cpg/sg62_6_cif.got.tgz:10348.got - 2010.06.03 15:25:27.
