data_PCOD9466723
_publ_section_title
;
Structure prediction by ZEFSAII (Michael W. Deem and Ramdas Pophale) SiO2 
 PCOD9466723
Probable space group: P N M A
;
_chemical_formula_sum "Si O2"
_cell_formula_units_Z 48
_cell_length_a 9.094570
_cell_length_b 8.791837
_cell_length_c 31.295063
_cell_angle_alpha 90.000000
_cell_angle_beta 90.000000
_cell_angle_gamma 90.000000
_cell_volume 2502.289928
_symmetry_space_group_name_H-M "P N M A"
_symmetry_group_IT_number 62
_symmetry_cell_setting 'orthorhombic'
loop_
_space_group_symop_operation_xyz
x,y,z
1/2-x,-y,1/2+z
1/2+x,1/2-y,1/2-z
-x,1/2+y,-z
-x,-y,-z
1/2+x,y,1/2-z
1/2-x,1/2+y,1/2+z
x,1/2-y,z
loop_
_atom_site_type_symbol
_atom_site_label
_atom_site_fract_x
_atom_site_fract_y
_atom_site_fract_z
Si Si1 0.586989 0.431757 0.210856
Si Si2 0.911565 0.432149 0.039854
Si Si3 0.923009 0.068241 0.378393
Si Si4 0.078539 0.067890 0.128376
Si Si5 0.085352 0.931166 0.459570
Si Si6 0.587186 0.431067 0.709186
O O1 0.589037 0.250000 0.217457
O O2 0.503874 0.462787 0.166321
O O3 0.500881 0.509171 0.249670
O O4 0.752172 0.493534 0.208627
O O5 0.901636 0.250000 0.035568
O O6 0.749478 0.502148 0.041623
O O7 0.997957 0.465742 0.083754
O O8 0.000000 0.500000 0.000000
O O9 0.934250 0.250000 0.386813
O O10 0.750845 0.029911 0.374866
O O11 0.000483 0.980493 0.416782
O O12 0.067003 0.250000 0.136128
O O13 0.000786 0.981940 0.167047
O O14 0.091023 0.750000 0.463272
O O15 0.000000 0.000000 0.500000
O O16 0.601100 0.250000 0.710747
#
# Coordination Sequence:
#
# PCOD9466723 Si02
#       6
#     8   8   8   8   8   8
#     4  11  23  41  65  90 123 166 207 248 303 371
#     4  11  23  40  64  93 126 163 206 254 305 365
#     4  10  22  41  65  92 121 158 207 256 303 362
#     4  10  22  41  64  90 123 164 206 249 305 371
#     4  12  25  41  63  90 124 163 205 255 310 367
#     4  12  25  40  62  93 127 160 204 260 308 356
#
# _framework density 19.182428000000002
#
# number of rings (size 3 to 8) (size 9 to 14) (size 15 to 20)
#    0.000    1.000    0.000    7.000    0.000   10.000 
#    0.000    0.000    0.000    0.000    0.000    0.000 
#    0.000    0.000    0.000    0.000    0.000    0.000 
#
# Total GULP energy -268726.104995 kJ/mol
# GULP energy per Si atom -5598.460521 kJ/mol
# Density = 1.913877 g / cm^3
# Si number density = 19.182428 Si / 1000 Ang^3
#
#
#
# Elastic Constant Matrix: (Units=GPa)
#
#
# Indices 1 2 3 4 5 6 
#
# 1 173.4216 59.8808 74.6790 0.0000 0.0000 0.0000
# 2 59.8808 85.3444 77.0623 0.0000 0.0000 0.0000
# 3 74.6790 77.0623 138.2289 0.0000 0.0000 0.0000
# 4 0.0000 0.0000 0.0000 37.1096 0.0000 0.0000
# 5 0.0000 0.0000 0.0000 0.0000 38.4321 0.0000
# 6 0.0000 0.0000 0.0000 0.0000 0.0000 30.5114
#
#
#
# Elastic Compliance Matrix: (Units=1/GPa)
#
#
# Indices 1 2 3 4 5 6 
#
# 1 0.007986 -0.003438 -0.002398 0.000000 0.000000 0.000000
# 2 -0.003438 0.025075 -0.012122 0.000000 0.000000 0.000000
# 3 -0.002398 -0.012122 0.015288 0.000000 0.000000 0.000000
# 4 0.000000 0.000000 0.000000 0.026947 0.000000 0.000000
# 5 0.000000 0.000000 0.000000 0.000000 0.026020 0.000000
# 6 0.000000 0.000000 0.000000 0.000000 0.000000 0.032775
#
#
# Mechanical properties :
#
#
# Convention : Reuss Voigt Hill
#
# Bulk Modulus (GPa) = 80.42936 91.13769 85.78352
# Shear Modulus (GPa) = 28.71088 33.56880 31.13984
#
# Velocity S-wave (km/s) = 3.87295 4.18781 4.03346
# Velocity P-wave (km/s) = 7.87524 8.42602 8.15528
#
# Compressibility (1/GPa) = 0.01243327
#
# Stress axis : x y z
#
# Youngs Moduli (GPa) = 125.21949 39.88028 65.41281
#
# Poissons Ratio (x) = 0.13712 0.15684
# Poissons Ratio (y) = 0.43054 0.79291
# Poissons Ratio (z) = 0.30023 0.48342
#
# Static dielectric constant tensor:
#      x y z
#    x 1.628010 0.000000 0.000000 
#    y 0.000000 1.658950 0.000000 
#    z 0.000000 0.000000 1.627190 
# 
# From -- ./inp_files/31990.got.cif
#   From: 2010.05.17/outbox.cif.g08.bks.cpg/sg62_16_cif.got.tgz:31990.got - 2010.06.03 15:25:27.
