data_PCOD9466550
_publ_section_title
;
Structure prediction by ZEFSAII (Michael W. Deem and Ramdas Pophale) SiO2 
 PCOD9466550
Probable space group: P N M A
;
_chemical_formula_sum "Si O2"
_cell_formula_units_Z 48
_cell_length_a 18.716442
_cell_length_b 7.984058
_cell_length_c 14.204260
_cell_angle_alpha 90.000000
_cell_angle_beta 90.000000
_cell_angle_gamma 90.000000
_cell_volume 2122.587436
_symmetry_space_group_name_H-M "P N M A"
_symmetry_group_IT_number 62
_symmetry_cell_setting 'orthorhombic'
loop_
_space_group_symop_operation_xyz
x,y,z
1/2-x,-y,1/2+z
1/2+x,1/2-y,1/2-z
-x,1/2+y,-z
-x,-y,-z
1/2+x,y,1/2-z
1/2-x,1/2+y,1/2+z
x,1/2-y,z
loop_
_atom_site_type_symbol
_atom_site_label
_atom_site_fract_x
_atom_site_fract_y
_atom_site_fract_z
Si Si1 0.647806 0.546057 0.179366
Si Si2 0.003911 0.560595 0.105974
Si Si3 0.672892 0.941612 0.376774
Si Si4 0.005485 0.448447 0.608685
Si Si5 0.388087 0.438042 0.260494
Si Si6 0.217357 0.951423 0.919794
O O1 0.646971 0.750000 0.185401
O O2 0.686063 0.478960 0.274900
O O3 0.566853 0.486841 0.160565
O O4 0.700187 0.491471 0.096408
O O5 0.975918 0.750000 0.117418
O O6 0.087162 0.566168 0.127790
O O7 0.957389 0.443661 0.171676
O O8 0.000000 0.500000 0.000000
O O9 0.701698 0.750000 0.376313
O O10 0.693696 0.017088 0.477398
O O11 0.000440 0.250000 0.613345
O O12 0.078758 0.492834 0.663400
O O13 0.000000 0.500000 0.500000
O O14 0.364429 0.250000 0.239877
O O15 0.328691 0.518211 0.330378
O O16 0.204543 0.750000 0.921483
#
# Coordination Sequence:
#
# PCOD9466550 Si02
#       6
#     8   8   8   8   8   8
#     4  10  22  41  62  86 120 162 207 255 307 368
#     4  11  19  33  58  89 121 152 192 243 303 363
#     4   9  18  37  59  81 115 156 193 243 307 359
#     4  11  24  43  66  91 123 164 211 261 311 371
#     4  11  22  38  61  92 125 157 201 255 308 368
#     4  10  22  39  60  89 125 161 201 256 315 368
#
# _framework density 22.613910000000001
#
# number of rings (size 3 to 8) (size 9 to 14) (size 15 to 20)
#    0.000    1.667    3.333    1.500    0.000    4.000 
#    0.000    4.167    0.000    0.000    0.000    0.000 
#    0.000    0.000    0.000    0.000    0.000    0.000 
#
# Total GULP energy -267636.428885 kJ/mol
# GULP energy per Si atom -5575.758935 kJ/mol
# Density = 2.256244 g / cm^3
# Si number density = 22.613910 Si / 1000 Ang^3
#
#
#
# Elastic Constant Matrix: (Units=GPa)
#
#
# Indices 1 2 3 4 5 6 
#
# 1 52.3118 -0.3473 18.0150 0.0000 0.0000 0.0000
# 2 -0.3473 29.4330 4.8439 0.0000 0.0000 0.0000
# 3 18.0150 4.8439 135.2185 0.0000 0.0000 0.0000
# 4 0.0000 0.0000 0.0000 16.2624 0.0000 0.0000
# 5 0.0000 0.0000 0.0000 0.0000 37.0907 0.0000
# 6 0.0000 0.0000 0.0000 0.0000 0.0000 20.2114
#
#
#
# Elastic Compliance Matrix: (Units=1/GPa)
#
#
# Indices 1 2 3 4 5 6 
#
# 1 0.020049 0.000680 -0.002695 0.000000 0.000000 0.000000
# 2 0.000680 0.034200 -0.001316 0.000000 0.000000 0.000000
# 3 -0.002695 -0.001316 0.007802 0.000000 0.000000 0.000000
# 4 0.000000 0.000000 0.000000 0.061492 0.000000 0.000000
# 5 0.000000 0.000000 0.000000 0.000000 0.026961 0.000000
# 6 0.000000 0.000000 0.000000 0.000000 0.000000 0.049477
#
#
# Mechanical properties :
#
#
# Convention : Reuss Voigt Hill
#
# Bulk Modulus (GPa) = 18.05428 29.10961 23.58194
# Shear Modulus (GPa) = 22.21184 27.67634 24.94409
#
# Velocity S-wave (km/s) = 3.13744 3.50217 3.32481
# Velocity P-wave (km/s) = 4.59627 5.40870 5.01895
#
# Compressibility (1/GPa) = 0.05538852
#
# Stress axis : x y z
#
# Youngs Moduli (GPa) = 49.87799 29.23976 128.17748
#
# Poissons Ratio (x) = -0.01989 0.34550
# Poissons Ratio (y) = -0.03392 0.16865
# Poissons Ratio (z) = 0.13444 0.03847
#
# Static dielectric constant tensor:
#      x y z
#    x 1.809260 0.000000 0.000000 
#    y 0.000000 1.845240 0.000000 
#    z 0.000000 0.000000 1.564800 
# 
# From -- ./inp_files/19662.got.cif
#   From: 2010.05.17/outbox.cif.g08.bks.cpg/sg62_10_cif.got.tgz:19662.got - 2010.06.03 15:25:27.
