data_PCOD9466852
_publ_section_title
;
Structure prediction by ZEFSAII (Michael W. Deem and Ramdas Pophale) SiO2 
 PCOD9466852
Probable space group: P N M A
;
_chemical_formula_sum "Si O2"
_cell_formula_units_Z 48
_cell_length_a 13.611097
_cell_length_b 26.683696
_cell_length_c 6.418683
_cell_angle_alpha 90.000000
_cell_angle_beta 90.000000
_cell_angle_gamma 90.000000
_cell_volume 2331.229558
_symmetry_space_group_name_H-M "P N M A"
_symmetry_group_IT_number 62
_symmetry_cell_setting 'orthorhombic'
loop_
_space_group_symop_operation_xyz
x,y,z
1/2-x,-y,1/2+z
1/2+x,1/2-y,1/2-z
-x,1/2+y,-z
-x,-y,-z
1/2+x,y,1/2-z
1/2-x,1/2+y,1/2+z
x,1/2-y,z
loop_
_atom_site_type_symbol
_atom_site_label
_atom_site_fract_x
_atom_site_fract_y
_atom_site_fract_z
Si Si1 0.731481 0.646090 0.864989
Si Si2 0.862088 0.878775 0.482556
Si Si3 0.248342 0.448899 0.841232
Si Si4 0.468281 0.372723 0.287219
Si Si5 0.102011 0.970503 0.020113
Si Si6 0.097674 0.191924 0.894607
O O1 0.781619 0.644015 0.638831
O O2 0.616660 0.655684 0.838733
O O3 0.744857 0.591629 0.974126
O O4 0.793738 0.683776 0.006815
O O5 0.812392 0.921554 0.343302
O O6 0.901644 0.836935 0.323996
O O7 0.951305 0.895472 0.630019
O O8 0.355463 0.462104 0.751848
O O9 0.186754 0.496904 0.910131
O O10 0.416165 0.417222 0.413146
O O11 0.525112 0.336870 0.447315
O O12 0.000000 0.000000 0.000000
O O13 0.074002 0.250000 0.875889
#
# Coordination Sequence:
#
# PCOD9466852 Si02
#       6
#     8   8   8   8   8   8
#     4  10  22  44  67  93 131 177 218 275 332 390
#     4  10  22  43  65  91 133 176 215 279 328 390
#     4  11  25  42  63  98 140 179 235 275 323 392
#     4  11  24  41  68  97 132 174 221 269 334 397
#     4  12  25  40  66  99 138 184 226 273 328 395
#     4  10  24  44  68  98 129 165 220 280 342 408
#
# _framework density 20.589991999999999
#
# number of rings (size 3 to 8) (size 9 to 14) (size 15 to 20)
#    0.000    1.333    1.667    4.000    7.000    4.000 
#    0.000    1.667    0.000    0.000    0.000    0.000 
#    0.000    0.000    0.000    0.000    0.000    0.000 
#
# Total GULP energy -268406.144907 kJ/mol
# GULP energy per Si atom -5591.794686 kJ/mol
# Density = 2.054313 g / cm^3
# Si number density = 20.589992 Si / 1000 Ang^3
#
#
#
# Elastic Constant Matrix: (Units=GPa)
#
#
# Indices 1 2 3 4 5 6 
#
# 1 103.2331 18.0022 29.9147 0.0000 0.0000 0.0000
# 2 18.0022 97.8640 31.2855 0.0000 0.0000 0.0000
# 3 29.9147 31.2855 80.8606 0.0000 0.0000 0.0000
# 4 0.0000 0.0000 0.0000 11.6532 0.0000 0.0000
# 5 0.0000 0.0000 0.0000 0.0000 38.6114 0.0000
# 6 0.0000 0.0000 0.0000 0.0000 0.0000 13.9118
#
#
#
# Elastic Compliance Matrix: (Units=1/GPa)
#
#
# Indices 1 2 3 4 5 6 
#
# 1 0.010907 -0.000818 -0.003719 0.000000 0.000000 0.000000
# 2 -0.000818 0.011722 -0.004233 0.000000 0.000000 0.000000
# 3 -0.003719 -0.004233 0.015380 0.000000 0.000000 0.000000
# 4 0.000000 0.000000 0.000000 0.085813 0.000000 0.000000
# 5 0.000000 0.000000 0.000000 0.000000 0.025899 0.000000
# 6 0.000000 0.000000 0.000000 0.000000 0.000000 0.071881
#
#
# Mechanical properties :
#
#
# Convention : Reuss Voigt Hill
#
# Bulk Modulus (GPa) = 48.84950 48.92916 48.88933
# Shear Modulus (GPa) = 20.32811 26.35230 23.34020
#
# Velocity S-wave (km/s) = 3.14551 3.58139 3.37051
# Velocity P-wave (km/s) = 6.08019 6.39664 6.24042
#
# Compressibility (1/GPa) = 0.02047104
#
# Stress axis : x y z
#
# Youngs Moduli (GPa) = 91.68427 85.31118 65.01765
#
# Poissons Ratio (x) = 0.06974 0.24179
# Poissons Ratio (y) = 0.07495 0.27521
# Poissons Ratio (z) = 0.34095 0.36110
#
# Static dielectric constant tensor:
#      x y z
#    x 1.755380 0.000000 0.000000 
#    y 0.000000 1.700410 0.000000 
#    z 0.000000 0.000000 1.744820 
# 
# From -- ./inp_files/1141.got.cif
#   From: 2010.05.17/outbox.cif.g08.bks.cpg/sg62_1_cif.got.tgz:1141.got - 2010.06.03 15:25:27.
