data_PCOD9466740
_publ_section_title
;
Structure prediction by ZEFSAII (Michael W. Deem and Ramdas Pophale) SiO2 
 PCOD9466740
Probable space group: P N M A
;
_chemical_formula_sum "Si O2"
_cell_formula_units_Z 56
_cell_length_a 15.841908
_cell_length_b 8.286504
_cell_length_c 20.082588
_cell_angle_alpha 90.000000
_cell_angle_beta 90.000000
_cell_angle_gamma 90.000000
_cell_volume 2636.322340
_symmetry_space_group_name_H-M "P N M A"
_symmetry_group_IT_number 62
_symmetry_cell_setting 'orthorhombic'
loop_
_space_group_symop_operation_xyz
x,y,z
1/2-x,-y,1/2+z
1/2+x,1/2-y,1/2-z
-x,1/2+y,-z
-x,-y,-z
1/2+x,y,1/2-z
1/2-x,1/2+y,1/2+z
x,1/2-y,z
loop_
_atom_site_type_symbol
_atom_site_label
_atom_site_fract_x
_atom_site_fract_y
_atom_site_fract_z
Si Si1 0.313930 0.557620 0.421177
Si Si2 0.406749 0.062733 0.011203
Si Si3 0.496461 0.056376 0.220917
Si Si4 0.504940 0.553847 0.625914
Si Si5 0.832386 0.565956 0.356718
Si Si6 0.847893 0.942050 0.627281
Si Si7 0.324637 0.556206 0.572661
O O1 0.301837 0.750000 0.418580
O O2 0.410468 0.516399 0.405187
O O3 0.251962 0.476430 0.366296
O O4 0.299659 0.499992 0.498052
O O5 0.403266 0.250000 0.032443
O O6 0.364879 0.039903 0.940089
O O7 0.500000 0.000000 0.000000
O O8 0.368392 0.954060 0.068693
O O9 0.498967 0.250000 0.220316
O O10 0.500640 0.002472 0.297024
O O11 0.580489 0.004629 0.179875
O O12 0.407128 0.007298 0.188191
O O13 0.509034 0.750000 0.623410
O O14 0.419237 0.502052 0.589234
O O15 0.821641 0.750000 0.336986
O O16 0.740129 0.488991 0.368120
O O17 0.859392 0.750000 0.616942
O O18 0.324128 0.750000 0.569191
#
# Coordination Sequence:
#
# PCOD9466740 Si02
#       7
#     8   8   8   8   8   8   8
#     4  11  23  39  63  94 127 162 202 262 321 366
#     4  12  22  35  57  89 126 163 202 252 310 369
#     4  10  23  42  63  88 124 166 209 255 306 372
#     4  10  23  44  66  87 117 166 216 259 309 369
#     4  12  24  37  61  94 127 164 203 251 311 375
#     4  11  22  37  61  92 124 162 207 254 307 374
#     4  10  22  41  65  92 125 161 205 261 314 366
#
# _framework density 21.241710999999999
#
# number of rings (size 3 to 8) (size 9 to 14) (size 15 to 20)
#    0.000    1.143    2.857    3.857    0.000    3.429 
#    0.000    2.857    0.000    0.000    0.000    0.000 
#    0.000    0.000    0.000    0.000    0.000    0.000 
#
# Total GULP energy -312636.646030 kJ/mol
# GULP energy per Si atom -5582.797251 kJ/mol
# Density = 2.119336 g / cm^3
# Si number density = 21.241711 Si / 1000 Ang^3
#
#
#
# Elastic Constant Matrix: (Units=GPa)
#
#
# Indices 1 2 3 4 5 6 
#
# 1 151.2445 11.5633 31.1574 0.0000 0.0000 0.0000
# 2 11.5633 28.0214 10.0737 0.0000 0.0000 0.0000
# 3 31.1574 10.0737 76.6361 0.0000 0.0000 0.0000
# 4 0.0000 0.0000 0.0000 17.2047 0.0000 0.0000
# 5 0.0000 0.0000 0.0000 0.0000 37.2921 0.0000
# 6 0.0000 0.0000 0.0000 0.0000 0.0000 34.5353
#
#
#
# Elastic Compliance Matrix: (Units=1/GPa)
#
#
# Indices 1 2 3 4 5 6 
#
# 1 0.007327 -0.002049 -0.002709 0.000000 0.000000 0.000000
# 2 -0.002049 0.038030 -0.004166 0.000000 0.000000 0.000000
# 3 -0.002709 -0.004166 0.014698 0.000000 0.000000 0.000000
# 4 0.000000 0.000000 0.000000 0.058124 0.000000 0.000000
# 5 0.000000 0.000000 0.000000 0.000000 0.026815 0.000000
# 6 0.000000 0.000000 0.000000 0.000000 0.000000 0.028956
#
#
# Mechanical properties :
#
#
# Convention : Reuss Voigt Hill
#
# Bulk Modulus (GPa) = 23.69351 40.16564 31.92958
# Shear Modulus (GPa) = 24.28749 31.34693 27.81721
#
# Velocity S-wave (km/s) = 3.38507 3.84568 3.62270
# Velocity P-wave (km/s) = 5.14361 6.21844 5.70639
#
# Compressibility (1/GPa) = 0.04220566
#
# Stress axis : x y z
#
# Youngs Moduli (GPa) = 136.48823 26.29477 68.03744
#
# Poissons Ratio (x) = 0.05389 0.18434
# Poissons Ratio (y) = 0.27972 0.28343
# Poissons Ratio (z) = 0.36979 0.10954
#
# Static dielectric constant tensor:
#      x y z
#    x 1.841360 0.000000 0.000000 
#    y 0.000000 1.739470 0.000000 
#    z 0.000000 0.000000 1.756480 
# 
# From -- ./inp_files/27203.got.cif
#   From: 2010.05.17/outbox.cif.g08.bks.cpg/sg62_14_cif.got.tgz:27203.got - 2010.06.03 15:25:27.
