data_PCOD9466150
_publ_section_title
;
Structure prediction by ZEFSAII (Michael W. Deem and Ramdas Pophale) SiO2 
 PCOD9466150
Probable space group: P N M A
;
_chemical_formula_sum "Si O2"
_cell_formula_units_Z 36
_cell_length_a 5.639705
_cell_length_b 12.199111
_cell_length_c 19.273236
_cell_angle_alpha 90.000000
_cell_angle_beta 90.000000
_cell_angle_gamma 90.000000
_cell_volume 1325.986828
_symmetry_space_group_name_H-M "P N M A"
_symmetry_group_IT_number 62
_symmetry_cell_setting 'orthorhombic'
loop_
_space_group_symop_operation_xyz
x,y,z
1/2-x,-y,1/2+z
1/2+x,1/2-y,1/2-z
-x,1/2+y,-z
-x,-y,-z
1/2+x,y,1/2-z
1/2-x,1/2+y,1/2+z
x,1/2-y,z
loop_
_atom_site_type_symbol
_atom_site_label
_atom_site_fract_x
_atom_site_fract_y
_atom_site_fract_z
Si Si1 0.803458 0.432499 0.849152
Si Si2 0.938407 0.372154 0.088942
Si Si3 0.091678 0.250000 0.793914
Si Si4 0.926787 0.874933 0.476642
Si Si5 0.728531 0.409667 0.227215
O O1 0.600765 0.375426 0.893451
O O2 0.746307 0.478656 0.772921
O O3 0.866521 0.539617 0.893542
O O4 0.030270 0.354582 0.841630
O O5 0.019802 0.250000 0.104452
O O6 0.731154 0.404465 0.144217
O O7 0.832645 0.372011 0.012678
O O8 0.348920 0.250000 0.756594
O O9 0.028348 0.750000 0.495525
O O10 0.000000 0.000000 0.500000
O O11 0.483723 0.360988 0.253140
#
# Coordination Sequence:
#
# PCOD9466150 Si02
#       5
#     8   8   4   8   8
#     4  11  23  45  69 105 147 198 263 319 401 466
#     4  10  23  43  70 103 147 200 260 321 394 477
#     4  12  26  46  74 110 156 206 258 328 396 476
#     4  11  24  45  71 108 155 207 267 328 401 478
#     4  10  21  39  66 100 143 187 247 310 379 457
#
# _framework density 27.149588000000001
#
# number of rings (size 3 to 8) (size 9 to 14) (size 15 to 20)
#    0.000    1.333    1.111    4.667    0.000    6.222 
#    2.000    2.222    0.000    0.000    0.000    0.000 
#    0.000    0.000    0.000    0.000    0.000    0.000 
#
# Total GULP energy -200598.545928 kJ/mol
# GULP energy per Si atom -5572.181831 kJ/mol
# Density = 2.708779 g / cm^3
# Si number density = 27.149588 Si / 1000 Ang^3
#
#
#
# Elastic Constant Matrix: (Units=GPa)
#
#
# Indices 1 2 3 4 5 6 
#
# 1 120.6006 20.3654 24.5828 0.0000 0.0000 0.0000
# 2 20.3654 229.0871 41.4617 0.0000 0.0000 0.0000
# 3 24.5828 41.4617 68.0749 0.0000 0.0000 0.0000
# 4 0.0000 0.0000 0.0000 27.5877 0.0000 0.0000
# 5 0.0000 0.0000 0.0000 0.0000 50.9597 0.0000
# 6 0.0000 0.0000 0.0000 0.0000 0.0000 161.7422
#
#
#
# Elastic Compliance Matrix: (Units=1/GPa)
#
#
# Indices 1 2 3 4 5 6 
#
# 1 0.008962 -0.000237 -0.003092 0.000000 0.000000 0.000000
# 2 -0.000237 0.004912 -0.002906 0.000000 0.000000 0.000000
# 3 -0.003092 -0.002906 0.017576 0.000000 0.000000 0.000000
# 4 0.000000 0.000000 0.000000 0.036248 0.000000 0.000000
# 5 0.000000 0.000000 0.000000 0.000000 0.019623 0.000000
# 6 0.000000 0.000000 0.000000 0.000000 0.000000 0.006183
#
#
# Mechanical properties :
#
#
# Convention : Reuss Voigt Hill
#
# Bulk Modulus (GPa) = 52.68671 65.62027 59.15349
# Shear Modulus (GPa) = 44.52283 70.14809 57.33546
#
# Velocity S-wave (km/s) = 4.05397 5.08859 4.60046
# Velocity P-wave (km/s) = 6.43126 7.66468 7.07490
#
# Compressibility (1/GPa) = 0.01898012
#
# Stress axis : x y z
#
# Youngs Moduli (GPa) = 111.58074 203.57415 56.89486
#
# Poissons Ratio (x) = 0.04827 0.17591
# Poissons Ratio (y) = 0.02646 0.16535
# Poissons Ratio (z) = 0.34500 0.59163
#
# Static dielectric constant tensor:
#      x y z
#    x 2.105200 0.000000 0.000000 
#    y 0.000000 2.153240 0.000000 
#    z 0.000000 0.000000 2.124540 
# 
# From -- ./inp_files/28164.got.cif
#   From: 2010.05.17/outbox.cif.g08.bks.cpg/sg62_15_cif.got.tgz:28164.got - 2010.06.03 15:25:27.
