data_PCOD9466986
_publ_section_title
;
Structure prediction by ZEFSAII (Michael W. Deem and Ramdas Pophale) SiO2 
 PCOD9466986
Probable space group: P N M A
;
_chemical_formula_sum "Si O2"
_cell_formula_units_Z 56
_cell_length_a 10.829029
_cell_length_b 15.881832
_cell_length_c 15.639396
_cell_angle_alpha 90.000000
_cell_angle_beta 90.000000
_cell_angle_gamma 90.000000
_cell_volume 2689.738695
_symmetry_space_group_name_H-M "P N M A"
_symmetry_group_IT_number 62
_symmetry_cell_setting 'orthorhombic'
loop_
_space_group_symop_operation_xyz
x,y,z
1/2-x,-y,1/2+z
1/2+x,1/2-y,1/2-z
-x,1/2+y,-z
-x,-y,-z
1/2+x,y,1/2-z
1/2-x,1/2+y,1/2+z
x,1/2-y,z
loop_
_atom_site_type_symbol
_atom_site_label
_atom_site_fract_x
_atom_site_fract_y
_atom_site_fract_z
Si Si1 0.800782 0.750000 0.843104
Si Si2 0.609425 0.948797 0.123831
Si Si3 0.828636 0.349558 0.796764
Si Si4 0.239204 0.106953 0.017583
Si Si5 0.170017 0.566666 0.825340
Si Si6 0.014497 0.060368 0.917598
Si Si7 0.593990 0.750000 0.693212
Si Si8 0.334059 0.989196 0.147249
O O1 0.784742 0.672587 0.908084
O O2 0.685206 0.750000 0.776792
O O3 0.941688 0.750000 0.801925
O O4 0.624562 0.892618 0.209061
O O5 0.475645 0.989509 0.121310
O O6 0.712479 0.023432 0.129255
O O7 0.638442 0.892409 0.040611
O O8 0.819496 0.250000 0.789498
O O9 0.701191 0.397380 0.818094
O O10 0.915930 0.378531 0.875202
O O11 0.250018 0.018347 0.068314
O O12 0.131422 0.114546 0.948223
O O13 0.054863 0.506144 0.845430
O O14 0.134815 0.661624 0.849925
O O15 0.190829 0.554052 0.724546
O O16 0.000000 0.000000 0.000000
#
# Coordination Sequence:
#
# PCOD9466986 Si02
#       8
#     4   8   8   8   8   8   4   8
#     4  12  28  44  70 110 148 186 238 304 362 444
#     4  10  24  44  73 100 139 191 235 299 369 429
#     4  11  25  42  68 105 138 187 243 297 359 436
#     4  11  24  43  69 100 135 185 233 290 361 422
#     4  10  23  41  66 102 137 188 235 289 359 432
#     4  11  21  43  68  92 136 181 231 286 352 423
#     4  12  26  42  74 108 146 192 244 300 358 448
#     4  11  21  44  68  95 142 182 238 292 359 441
#
# _framework density 20.819866999999999
#
# number of rings (size 3 to 8) (size 9 to 14) (size 15 to 20)
#    0.000    1.143    4.286    1.286    4.000    0.571 
#    1.286    0.000    0.000    0.000    0.000    0.000 
#    0.000    0.000    0.000    0.000    0.000    0.000 
#
# Total GULP energy -312130.201318 kJ/mol
# GULP energy per Si atom -5573.753595 kJ/mol
# Density = 2.077248 g / cm^3
# Si number density = 20.819867 Si / 1000 Ang^3
#
#
#
# Elastic Constant Matrix: (Units=GPa)
#
#
# Indices 1 2 3 4 5 6 
#
# 1 84.0154 30.2414 27.2954 0.0000 0.0000 0.0000
# 2 30.2414 123.7047 22.9570 0.0000 0.0000 0.0000
# 3 27.2954 22.9570 82.5364 0.0000 0.0000 0.0000
# 4 0.0000 0.0000 0.0000 22.8709 0.0000 0.0000
# 5 0.0000 0.0000 0.0000 0.0000 34.2894 0.0000
# 6 0.0000 0.0000 0.0000 0.0000 0.0000 15.5215
#
#
#
# Elastic Compliance Matrix: (Units=1/GPa)
#
#
# Indices 1 2 3 4 5 6 
#
# 1 0.014161 -0.002734 -0.003923 0.000000 0.000000 0.000000
# 2 -0.002734 0.009052 -0.001614 0.000000 0.000000 0.000000
# 3 -0.003923 -0.001614 0.013862 0.000000 0.000000 0.000000
# 4 0.000000 0.000000 0.000000 0.043724 0.000000 0.000000
# 5 0.000000 0.000000 0.000000 0.000000 0.029164 0.000000
# 6 0.000000 0.000000 0.000000 0.000000 0.000000 0.064427
#
#
# Mechanical properties :
#
#
# Convention : Reuss Voigt Hill
#
# Bulk Modulus (GPa) = 48.69914 50.13822 49.41868
# Shear Modulus (GPa) = 25.28144 28.52055 26.90100
#
# Velocity S-wave (km/s) = 3.48845 3.70519 3.59846
# Velocity P-wave (km/s) = 6.29819 6.51451 6.40726
#
# Compressibility (1/GPa) = 0.02053424
#
# Stress axis : x y z
#
# Youngs Moduli (GPa) = 70.61597 110.47838 72.13996
#
# Poissons Ratio (x) = 0.30204 0.28299
# Poissons Ratio (y) = 0.19306 0.11640
# Poissons Ratio (z) = 0.27701 0.17826
#
# Static dielectric constant tensor:
#      x y z
#    x 1.828920 0.000000 0.000000 
#    y 0.000000 1.757530 0.000000 
#    z 0.000000 0.000000 1.808880 
# 
# From -- ./inp_files/18134.got.cif
#   From: 2010.05.17/outbox.cif.g08.bks.cpg/sg62_10_cif.got.tgz:18134.got - 2010.06.03 15:25:27.
