data_PCOD9466780
_publ_section_title
;
Structure prediction by ZEFSAII (Michael W. Deem and Ramdas Pophale) SiO2 
 PCOD9466780
Probable space group: P N M A
;
_chemical_formula_sum "Si O2"
_cell_formula_units_Z 56
_cell_length_a 21.916550
_cell_length_b 21.714233
_cell_length_c 5.072377
_cell_angle_alpha 90.000000
_cell_angle_beta 90.000000
_cell_angle_gamma 90.000000
_cell_volume 2413.949658
_symmetry_space_group_name_H-M "P N M A"
_symmetry_group_IT_number 62
_symmetry_cell_setting 'orthorhombic'
loop_
_space_group_symop_operation_xyz
x,y,z
1/2-x,-y,1/2+z
1/2+x,1/2-y,1/2-z
-x,1/2+y,-z
-x,-y,-z
1/2+x,y,1/2-z
1/2-x,1/2+y,1/2+z
x,1/2-y,z
loop_
_atom_site_type_symbol
_atom_site_label
_atom_site_fract_x
_atom_site_fract_y
_atom_site_fract_z
Si Si1 0.878156 0.931391 0.329582
Si Si2 0.816970 0.126769 0.808113
Si Si3 0.232521 0.032197 0.378831
Si Si4 0.582188 0.540401 0.491309
Si Si5 0.530669 0.080113 0.214390
Si Si6 0.631566 0.324417 0.436491
Si Si7 0.268965 0.317661 0.213862
O O1 0.837649 0.949528 0.581874
O O2 0.948860 0.921417 0.409839
O O3 0.856454 0.868508 0.191378
O O4 0.875359 0.993816 0.160467
O O5 0.769352 0.083388 0.963924
O O6 0.799679 0.141689 0.512482
O O7 0.879324 0.089040 0.825912
O O8 0.807523 0.181658 0.016109
O O9 0.251580 0.023682 0.078536
O O10 0.538113 0.579820 0.683720
O O11 0.549354 0.488509 0.315038
O O12 0.573064 0.137499 0.317965
O O13 0.620225 0.250000 0.478077
O O14 0.695250 0.328519 0.272895
O O15 0.272131 0.250000 0.096629
#
# Coordination Sequence:
#
# PCOD9466780 Si02
#       7
#     8   8   8   8   8   8   8
#     4  11  21  36  62  90 126 163 210 266 323 388
#     4  12  23  41  66  95 130 174 212 267 334 396
#     4  12  23  35  59  97 137 162 207 266 333 400
#     4  10  23  39  64  93 132 163 212 263 331 393
#     4  10  22  42  62  93 125 171 214 265 321 386
#     4  10  23  41  62  91 123 168 218 269 317 375
#     4  11  25  44  66  94 130 172 223 273 326 389
#
# _framework density 23.198497
#
# number of rings (size 3 to 8) (size 9 to 14) (size 15 to 20)
#    0.000    1.143    2.857    3.429    4.000    0.571 
#    0.000    1.429    0.000    0.000    0.000    0.000 
#    0.000    0.000    0.000    0.000    0.000    0.000 
#
# Total GULP energy -312064.655264 kJ/mol
# GULP energy per Si atom -5572.583130 kJ/mol
# Density = 2.314570 g / cm^3
# Si number density = 23.198497 Si / 1000 Ang^3
#
#
#
# Elastic Constant Matrix: (Units=GPa)
#
#
# Indices 1 2 3 4 5 6 
#
# 1 61.7665 43.7031 3.7555 0.0000 0.0000 0.0000
# 2 43.7031 149.2317 36.3765 0.0000 0.0000 0.0000
# 3 3.7555 36.3765 63.7637 0.0000 0.0000 0.0000
# 4 0.0000 0.0000 0.0000 23.5930 0.0000 0.0000
# 5 0.0000 0.0000 0.0000 0.0000 30.3658 0.0000
# 6 0.0000 0.0000 0.0000 0.0000 0.0000 26.8111
#
#
#
# Elastic Compliance Matrix: (Units=1/GPa)
#
#
# Indices 1 2 3 4 5 6 
#
# 1 0.020790 -0.006725 0.002612 0.000000 0.000000 0.000000
# 2 -0.006725 0.009959 -0.005285 0.000000 0.000000 0.000000
# 3 0.002612 -0.005285 0.018544 0.000000 0.000000 0.000000
# 4 0.000000 0.000000 0.000000 0.042385 0.000000 0.000000
# 5 0.000000 0.000000 0.000000 0.000000 0.032932 0.000000
# 6 0.000000 0.000000 0.000000 0.000000 0.000000 0.037298
#
#
# Mechanical properties :
#
#
# Convention : Reuss Voigt Hill
#
# Bulk Modulus (GPa) = 32.79104 49.15911 40.97507
# Shear Modulus (GPa) = 26.19591 28.88242 27.53917
#
# Velocity S-wave (km/s) = 3.36401 3.53230 3.44918
# Velocity P-wave (km/s) = 5.40874 6.15409 5.79341
#
# Compressibility (1/GPa) = 0.03049614
#
# Stress axis : x y z
#
# Youngs Moduli (GPa) = 48.10120 100.41400 53.92504
#
# Poissons Ratio (x) = 0.67529 -0.14086
# Poissons Ratio (y) = 0.32348 0.28501
# Poissons Ratio (z) = -0.12565 0.53072
#
# Static dielectric constant tensor:
#      x y z
#    x 1.958390 0.000000 0.000000 
#    y 0.000000 2.341330 0.000000 
#    z 0.000000 0.000000 1.994320 
# 
# From -- ./inp_files/2808.got.cif
#   From: 2010.05.17/outbox.cif.g08.bks.cpg/sg62_2_cif.got.tgz:2808.got - 2010.06.03 15:25:27.
