data_PCOD9466030
_publ_section_title
;
Structure prediction by ZEFSAII (Michael W. Deem and Ramdas Pophale) SiO2 
 PCOD9466030
Probable space group: P N M A
;
_chemical_formula_sum "Si O2"
_cell_formula_units_Z 56
_cell_length_a 22.095812
_cell_length_b 7.919120
_cell_length_c 15.131236
_cell_angle_alpha 90.000000
_cell_angle_beta 90.000000
_cell_angle_gamma 90.000000
_cell_volume 2647.654396
_symmetry_space_group_name_H-M "P N M A"
_symmetry_group_IT_number 62
_symmetry_cell_setting 'orthorhombic'
loop_
_space_group_symop_operation_xyz
x,y,z
1/2-x,-y,1/2+z
1/2+x,1/2-y,1/2-z
-x,1/2+y,-z
-x,-y,-z
1/2+x,y,1/2-z
1/2-x,1/2+y,1/2+z
x,1/2-y,z
loop_
_atom_site_type_symbol
_atom_site_label
_atom_site_fract_x
_atom_site_fract_y
_atom_site_fract_z
Si Si1 0.565793 0.048844 0.609067
Si Si2 0.700807 0.553201 0.924201
Si Si3 0.809662 0.956865 0.803900
Si Si4 0.594225 0.050695 0.797850
Si Si5 0.340524 0.950972 0.885381
Si Si6 0.572636 0.045312 0.411597
Si Si7 0.021964 0.452961 0.401986
O O1 0.575537 0.250000 0.609341
O O2 0.597227 0.981837 0.697734
O O3 0.585311 0.985796 0.512303
O O4 0.493804 0.016871 0.614656
O O5 0.712899 0.750000 0.937471
O O6 0.755701 0.480709 0.866174
O O7 0.640169 0.532409 0.866414
O O8 0.691266 0.480437 0.021379
O O9 0.806671 0.750000 0.804542
O O10 0.807052 0.014810 0.702388
O O11 0.874164 0.004936 0.845789
O O12 0.607650 0.250000 0.797996
O O13 0.526269 0.025200 0.833257
O O14 0.345974 0.750000 0.874729
O O15 0.409608 0.016423 0.888922
O O16 0.570180 0.250000 0.412437
O O17 0.021397 0.250000 0.393565
O O18 0.000000 0.500000 0.500000
#
# Coordination Sequence:
#
# PCOD9466030 Si02
#       7
#     8   8   8   8   8   8   8
#     4   9  19  33  54  84 114 142 178 228 278 329
#     4  11  23  38  57  81 110 145 191 236 273 329
#     4   9  20  38  59  81 107 146 191 230 274 336
#     4  11  22  36  54  81 118 153 186 230 284 340
#     4  10  21  39  60  82 112 147 184 231 289 344
#     4   9  17  35  59  81 108 143 183 228 281 337
#     4  11  21  34  58  87 115 148 185 231 288 344
#
# _framework density 21.150796
#
# number of rings (size 3 to 8) (size 9 to 14) (size 15 to 20)
#    0.000    2.000    1.429    2.143    0.000    4.000 
#    0.000    5.000    0.000    0.000    0.000    0.000 
#    0.000    0.000    0.000    0.000    0.000    0.000 
#
# Total GULP energy -312768.805594 kJ/mol
# GULP energy per Si atom -5585.157243 kJ/mol
# Density = 2.110266 g / cm^3
# Si number density = 21.150796 Si / 1000 Ang^3
#
#
#
# Elastic Constant Matrix: (Units=GPa)
#
#
# Indices 1 2 3 4 5 6 
#
# 1 58.0156 -6.8538 48.2872 0.0000 0.0000 0.0000
# 2 -6.8538 14.3415 -10.2828 0.0000 0.0000 0.0000
# 3 48.2872 -10.2828 166.3258 0.0000 0.0000 0.0000
# 4 0.0000 0.0000 0.0000 13.7695 0.0000 0.0000
# 5 0.0000 0.0000 0.0000 0.0000 19.0239 0.0000
# 6 0.0000 0.0000 0.0000 0.0000 0.0000 14.7531
#
#
#
# Elastic Compliance Matrix: (Units=1/GPa)
#
#
# Indices 1 2 3 4 5 6 
#
# 1 0.023307 0.006578 -0.006360 0.000000 0.000000 0.000000
# 2 0.006578 0.074819 0.002716 0.000000 0.000000 0.000000
# 3 -0.006360 0.002716 0.008027 0.000000 0.000000 0.000000
# 4 0.000000 0.000000 0.000000 0.072624 0.000000 0.000000
# 5 0.000000 0.000000 0.000000 0.000000 0.052565 0.000000
# 6 0.000000 0.000000 0.000000 0.000000 0.000000 0.067782
#
#
# Mechanical properties :
#
#
# Convention : Reuss Voigt Hill
#
# Bulk Modulus (GPa) = 8.92689 33.44270 21.18479
# Shear Modulus (GPa) = 15.12420 23.34478 19.23449
#
# Velocity S-wave (km/s) = 2.67697 3.32585 3.01889
# Velocity P-wave (km/s) = 3.71277 5.53121 4.71057
#
# Compressibility (1/GPa) = 0.11202113
#
# Stress axis : x y z
#
# Youngs Moduli (GPa) = 42.90512 13.36567 124.58661
#
# Poissons Ratio (x) = -0.08793 0.79234
# Poissons Ratio (y) = -0.28225 -0.33834
# Poissons Ratio (z) = 0.27287 -0.03630
#
# Static dielectric constant tensor:
#      x y z
#    x 1.736500 0.000000 0.000000 
#    y 0.000000 1.755160 0.000000 
#    z 0.000000 0.000000 1.771170 
# 
# From -- ./inp_files/20443.got.cif
#   From: 2010.05.17/outbox.cif.g08.bks.cpg/sg62_11_cif.got.tgz:20443.got - 2010.06.03 15:25:27.
