data_PCOD9466401
_publ_section_title
;
Structure prediction by ZEFSAII (Michael W. Deem and Ramdas Pophale) SiO2 
 PCOD9466401
Probable space group: P N M A
;
_chemical_formula_sum "Si O2"
_cell_formula_units_Z 40
_cell_length_a 8.227599
_cell_length_b 11.536192
_cell_length_c 19.021606
_cell_angle_alpha 90.000000
_cell_angle_beta 90.000000
_cell_angle_gamma 90.000000
_cell_volume 1805.438810
_symmetry_space_group_name_H-M "P N M A"
_symmetry_group_IT_number 62
_symmetry_cell_setting 'orthorhombic'
loop_
_space_group_symop_operation_xyz
x,y,z
1/2-x,-y,1/2+z
1/2+x,1/2-y,1/2-z
-x,1/2+y,-z
-x,-y,-z
1/2+x,y,1/2-z
1/2-x,1/2+y,1/2+z
x,1/2-y,z
loop_
_atom_site_type_symbol
_atom_site_label
_atom_site_fract_x
_atom_site_fract_y
_atom_site_fract_z
Si Si1 0.201166 0.877710 0.705372
Si Si2 0.678198 0.443240 0.999341
Si Si3 0.311143 0.620460 0.412611
Si Si4 0.176348 0.878513 0.144809
Si Si5 0.838753 0.915681 0.651325
O O1 0.265892 0.750000 0.681558
O O2 0.213335 0.876911 0.789748
O O3 0.017279 0.886690 0.678082
O O4 0.285481 0.999486 0.683372
O O5 0.719286 0.383521 0.927066
O O6 0.500000 0.500000 0.000000
O O7 0.802937 0.548833 0.014811
O O8 0.690109 0.372802 0.072028
O O9 0.258104 0.750000 0.425109
O O10 0.488372 0.618023 0.378670
O O11 0.188621 0.552975 0.360985
O O12 0.205126 0.750000 0.178638
#
# Coordination Sequence:
#
# PCOD9466401 Si02
#       5
#     8   8   8   8   8
#     4  12  25  44  66  99 137 183 226 277 338 409
#     4  10  21  42  67  99 134 174 229 281 342 401
#     4   9  21  41  67  99 135 171 220 274 341 403
#     4  11  23  43  71 103 134 177 225 282 342 406
#     4  10  24  42  67  96 135 180 230 276 342 402
#
# _framework density 22.155277000000002
#
# number of rings (size 3 to 8) (size 9 to 14) (size 15 to 20)
#    1.200    0.400    2.000    2.400    0.000    6.400 
#    0.000    2.000    0.000    0.000    0.000    0.000 
#    0.000    0.000    0.000    0.000    0.000    0.000 
#
# Total GULP energy -222800.578838 kJ/mol
# GULP energy per Si atom -5570.014471 kJ/mol
# Density = 2.210485 g / cm^3
# Si number density = 22.155277 Si / 1000 Ang^3
#
#
#
# Elastic Constant Matrix: (Units=GPa)
#
#
# Indices 1 2 3 4 5 6 
#
# 1 41.3893 33.3558 3.7899 0.0000 0.0000 0.0000
# 2 33.3558 192.1921 29.2907 0.0000 0.0000 0.0000
# 3 3.7899 29.2907 82.0847 0.0000 0.0000 0.0000
# 4 0.0000 0.0000 0.0000 7.1899 0.0000 0.0000
# 5 0.0000 0.0000 0.0000 0.0000 37.1034 0.0000
# 6 0.0000 0.0000 0.0000 0.0000 0.0000 14.0188
#
#
#
# Elastic Compliance Matrix: (Units=1/GPa)
#
#
# Indices 1 2 3 4 5 6 
#
# 1 0.028107 -0.004949 0.000468 0.000000 0.000000 0.000000
# 2 -0.004949 0.006374 -0.002046 0.000000 0.000000 0.000000
# 3 0.000468 -0.002046 0.012891 0.000000 0.000000 0.000000
# 4 0.000000 0.000000 0.000000 0.139084 0.000000 0.000000
# 5 0.000000 0.000000 0.000000 0.000000 0.026952 0.000000
# 6 0.000000 0.000000 0.000000 0.000000 0.000000 0.071333
#
#
# Mechanical properties :
#
#
# Convention : Reuss Voigt Hill
#
# Bulk Modulus (GPa) = 29.13942 49.83764 39.48853
# Shear Modulus (GPa) = 16.16901 28.27773 22.22337
#
# Velocity S-wave (km/s) = 2.70442 3.57647 3.17057
# Velocity P-wave (km/s) = 4.78882 6.29273 5.59156
#
# Compressibility (1/GPa) = 0.03431777
#
# Stress axis : x y z
#
# Youngs Moduli (GPa) = 35.57868 156.88905 77.57366
#
# Poissons Ratio (x) = 0.77651 -0.03634
# Poissons Ratio (y) = 0.17609 0.15871
# Poissons Ratio (z) = -0.01667 0.32098
#
# Static dielectric constant tensor:
#      x y z
#    x 1.795990 0.000000 0.000000 
#    y 0.000000 1.817150 0.000000 
#    z 0.000000 0.000000 1.833620 
# 
# From -- ./inp_files/25783.got.cif
#   From: 2010.05.17/outbox.cif.g08.bks.cpg/sg62_13_cif.got.tgz:25783.got - 2010.06.03 15:25:27.
