data_PCOD9466247
_publ_section_title
;
Structure prediction by ZEFSAII (Michael W. Deem and Ramdas Pophale) SiO2 
 PCOD9466247
Probable space group: P N M A
;
_chemical_formula_sum "Si O2"
_cell_formula_units_Z 64
_cell_length_a 18.623741
_cell_length_b 17.865436
_cell_length_c 9.514568
_cell_angle_alpha 90.000000
_cell_angle_beta 90.000000
_cell_angle_gamma 90.000000
_cell_volume 3165.698986
_symmetry_space_group_name_H-M "P N M A"
_symmetry_group_IT_number 62
_symmetry_cell_setting 'orthorhombic'
loop_
_space_group_symop_operation_xyz
x,y,z
1/2-x,-y,1/2+z
1/2+x,1/2-y,1/2-z
-x,1/2+y,-z
-x,-y,-z
1/2+x,y,1/2-z
1/2-x,1/2+y,1/2+z
x,1/2-y,z
loop_
_atom_site_type_symbol
_atom_site_label
_atom_site_fract_x
_atom_site_fract_y
_atom_site_fract_z
Si Si1 0.932560 0.985044 0.901525
Si Si2 0.195394 0.838873 0.641359
Si Si3 0.876762 0.161095 0.647926
Si Si4 0.638803 0.335994 0.421702
Si Si5 0.725591 0.664443 0.409029
Si Si6 0.681913 0.550050 0.622790
Si Si7 0.998552 0.556029 0.367708
Si Si8 0.154072 0.102572 0.766223
O O1 0.952490 0.020807 0.754704
O O2 0.915214 0.898894 0.868828
O O3 0.870451 0.019567 1.000000
O O4 0.000000 0.000000 0.000000
O O5 0.180280 0.750000 0.662329
O O6 0.172292 0.861778 0.484251
O O7 0.281824 0.848393 0.643074
O O8 0.157145 0.892888 0.754126
O O9 0.878705 0.250000 0.648891
O O10 0.837275 0.143275 0.796309
O O11 0.955798 0.131346 0.611188
O O12 0.618591 0.250000 0.398470
O O13 0.640746 0.354576 0.587981
O O14 0.712535 0.750000 0.457183
O O15 0.732517 0.604826 0.534223
O O16 0.799853 0.657842 0.327319
O O17 0.700946 0.472723 0.700838
O O18 0.000000 0.500000 0.500000
O O19 0.919399 0.574046 0.306771
#
# Coordination Sequence:
#
# PCOD9466247 Si02
#       8
#     8   8   8   8   8   8   8   8
#     4  11  23  44  61  96 131 166 222 259 312 395
#     4  10  21  40  64  95 128 162 210 265 326 386
#     4  10  22  39  63  92 128 167 212 264 322 384
#     4  10  21  40  68  94 127 170 209 264 327 385
#     4  11  23  41  65  98 130 164 215 275 325 389
#     4  11  23  38  66  94 126 164 209 267 321 374
#     4  12  25  44  65  91 129 173 216 273 317 378
#     4  11  24  39  65  94 130 172 214 262 323 392
#
# _framework density 20.216705000000001
#
# number of rings (size 3 to 8) (size 9 to 14) (size 15 to 20)
#    0.000    1.250    5.000    1.500    3.500    3.000 
#    0.000    1.875    0.000    0.000    0.000    0.000 
#    0.000    0.000    0.000    0.000    0.000    0.000 
#
# Total GULP energy -356575.145324 kJ/mol
# GULP energy per Si atom -5571.486646 kJ/mol
# Density = 2.017069 g / cm^3
# Si number density = 20.216705 Si / 1000 Ang^3
#
#
#
# Elastic Constant Matrix: (Units=GPa)
#
#
# Indices 1 2 3 4 5 6 
#
# 1 44.2317 24.5470 -0.6495 0.0000 0.0000 0.0000
# 2 24.5470 73.5541 15.6329 0.0000 0.0000 0.0000
# 3 -0.6495 15.6329 60.3167 0.0000 0.0000 0.0000
# 4 0.0000 0.0000 0.0000 22.1000 0.0000 0.0000
# 5 0.0000 0.0000 0.0000 0.0000 15.8591 0.0000
# 6 0.0000 0.0000 0.0000 0.0000 0.0000 28.5800
#
#
#
# Elastic Compliance Matrix: (Units=1/GPa)
#
#
# Indices 1 2 3 4 5 6 
#
# 1 0.028220 -0.010035 0.002905 0.000000 0.000000 0.000000
# 2 -0.010035 0.017957 -0.004762 0.000000 0.000000 0.000000
# 3 0.002905 -0.004762 0.017845 0.000000 0.000000 0.000000
# 4 0.000000 0.000000 0.000000 0.045249 0.000000 0.000000
# 5 0.000000 0.000000 0.000000 0.000000 0.063055 0.000000
# 6 0.000000 0.000000 0.000000 0.000000 0.000000 0.034990
#
#
# Mechanical properties :
#
#
# Convention : Reuss Voigt Hill
#
# Bulk Modulus (GPa) = 24.85308 28.57368 26.71338
# Shear Modulus (GPa) = 20.44892 22.54598 21.49745
#
# Velocity S-wave (km/s) = 3.18384 3.34311 3.26444
# Velocity P-wave (km/s) = 5.08289 5.39131 5.23937
#
# Compressibility (1/GPa) = 0.04023646
#
# Stress axis : x y z
#
# Youngs Moduli (GPa) = 35.43580 55.69000 56.03915
#
# Poissons Ratio (x) = 0.55886 -0.16278
# Poissons Ratio (y) = 0.35560 0.26686
# Poissons Ratio (z) = -0.10293 0.26520
#
# Static dielectric constant tensor:
#      x y z
#    x 1.731420 0.000000 0.000000 
#    y 0.000000 1.751990 0.000000 
#    z 0.000000 0.000000 1.865390 
# 
# From -- ./inp_files/8864.got.cif
#   From: 2010.05.17/outbox.cif.g08.bks.cpg/sg62_5_cif.got.tgz:8864.got - 2010.06.03 15:25:27.
