data_PCOD9466326
_publ_section_title
;
Structure prediction by ZEFSAII (Michael W. Deem and Ramdas Pophale) SiO2 
 PCOD9466326
Probable space group: P N M A
;
_chemical_formula_sum "Si O2"
_cell_formula_units_Z 40
_cell_length_a 12.675325
_cell_length_b 13.386193
_cell_length_c 11.298272
_cell_angle_alpha 90.000000
_cell_angle_beta 90.000000
_cell_angle_gamma 90.000000
_cell_volume 1917.026921
_symmetry_space_group_name_H-M "P N M A"
_symmetry_group_IT_number 62
_symmetry_cell_setting 'orthorhombic'
loop_
_space_group_symop_operation_xyz
x,y,z
1/2-x,-y,1/2+z
1/2+x,1/2-y,1/2-z
-x,1/2+y,-z
-x,-y,-z
1/2+x,y,1/2-z
1/2-x,1/2+y,1/2+z
x,1/2-y,z
loop_
_atom_site_type_symbol
_atom_site_label
_atom_site_fract_x
_atom_site_fract_y
_atom_site_fract_z
Si Si1 0.606519 0.250000 0.674046
Si Si2 0.863153 0.031708 0.555263
Si Si3 0.192771 0.750000 0.485916
Si Si4 0.173646 0.250000 0.226728
Si Si5 0.811854 0.087244 0.148834
Si Si6 0.440875 0.549486 0.181632
Si Si7 0.028706 0.750000 0.932858
O O1 0.726382 0.250000 0.625223
O O2 0.582361 0.152557 0.752528
O O3 0.534591 0.250000 0.555664
O O4 0.871290 0.147250 0.517582
O O5 0.935070 0.025845 0.672209
O O6 0.742651 0.002017 0.577195
O O7 0.903821 0.956372 0.454660
O O8 0.258966 0.750000 0.606085
O O9 0.216396 0.344335 0.301671
O O10 0.053674 0.250000 0.178563
O O11 0.893833 0.155087 0.077367
O O12 0.877015 0.037202 0.253699
#
# Coordination Sequence:
#
# PCOD9466326 Si02
#       7
#     4   8   4   4   8   8   4
#     4  11  24  44  64  98 134 168 215 278 336 381
#     4  11  24  41  66  96 131 173 224 267 323 404
#     4  11  20  42  65  92 130 171 213 272 328 385
#     4  10  21  41  64  89 127 172 214 270 328 387
#     4  11  22  42  66  95 131 174 218 270 328 387
#     4  11  24  42  66  97 129 176 219 270 331 393
#     4  10  25  41  65  99 131 171 222 270 324 397
#
# _framework density 20.865645000000001
#
# number of rings (size 3 to 8) (size 9 to 14) (size 15 to 20)
#    0.000    1.200    4.000    1.800    0.000    4.000 
#    3.600    1.000    0.000    0.000    0.000    0.000 
#    0.000    0.000    0.000    0.000    0.000    0.000 
#
# Total GULP energy -223331.188322 kJ/mol
# GULP energy per Si atom -5583.279708 kJ/mol
# Density = 2.081815 g / cm^3
# Si number density = 20.865645 Si / 1000 Ang^3
#
#
#
# Elastic Constant Matrix: (Units=GPa)
#
#
# Indices 1 2 3 4 5 6 
#
# 1 73.3469 30.3512 11.3484 0.0000 0.0000 0.0000
# 2 30.3512 119.0010 31.5496 0.0000 0.0000 0.0000
# 3 11.3484 31.5496 63.3596 0.0000 0.0000 0.0000
# 4 0.0000 0.0000 0.0000 17.1449 0.0000 0.0000
# 5 0.0000 0.0000 0.0000 0.0000 30.1622 0.0000
# 6 0.0000 0.0000 0.0000 0.0000 0.0000 33.8461
#
#
#
# Elastic Compliance Matrix: (Units=1/GPa)
#
#
# Indices 1 2 3 4 5 6 
#
# 1 0.015289 -0.003656 -0.000918 0.000000 0.000000 0.000000
# 2 -0.003656 0.010556 -0.004601 0.000000 0.000000 0.000000
# 3 -0.000918 -0.004601 0.018239 0.000000 0.000000 0.000000
# 4 0.000000 0.000000 0.000000 0.058326 0.000000 0.000000
# 5 0.000000 0.000000 0.000000 0.000000 0.033154 0.000000
# 6 0.000000 0.000000 0.000000 0.000000 0.000000 0.029545
#
#
# Mechanical properties :
#
#
# Convention : Reuss Voigt Hill
#
# Bulk Modulus (GPa) = 38.86137 44.68953 41.77545
# Shear Modulus (GPa) = 26.03667 28.39453 27.21560
#
# Velocity S-wave (km/s) = 3.53629 3.69294 3.61546
# Velocity P-wave (km/s) = 5.94464 6.29667 6.12319
#
# Compressibility (1/GPa) = 0.02573250
#
# Stress axis : x y z
#
# Youngs Moduli (GPa) = 65.40762 94.73585 54.82900
#
# Poissons Ratio (x) = 0.34636 0.05033
# Poissons Ratio (y) = 0.23913 0.25229
# Poissons Ratio (z) = 0.06004 0.43591
#
# Static dielectric constant tensor:
#      x y z
#    x 1.794100 0.000000 0.000000 
#    y 0.000000 1.749190 0.000000 
#    z 0.000000 0.000000 1.725280 
# 
# From -- ./inp_files/12096.got.cif
#   From: 2010.05.17/outbox.cif.g08.bks.cpg/sg62_7_cif.got.tgz:12096.got - 2010.06.03 15:25:27.
