data_PCOD9466557
_publ_section_title
;
Structure prediction by ZEFSAII (Michael W. Deem and Ramdas Pophale) SiO2 
 PCOD9466557
Probable space group: P N M A
;
_chemical_formula_sum "Si O2"
_cell_formula_units_Z 60
_cell_length_a 12.724027
_cell_length_b 9.559903
_cell_length_c 23.790658
_cell_angle_alpha 90.000000
_cell_angle_beta 90.000000
_cell_angle_gamma 90.000000
_cell_volume 2893.906675
_symmetry_space_group_name_H-M "P N M A"
_symmetry_group_IT_number 62
_symmetry_cell_setting 'orthorhombic'
loop_
_space_group_symop_operation_xyz
x,y,z
1/2-x,-y,1/2+z
1/2+x,1/2-y,1/2-z
-x,1/2+y,-z
-x,-y,-z
1/2+x,y,1/2-z
1/2-x,1/2+y,1/2+z
x,1/2-y,z
loop_
_atom_site_type_symbol
_atom_site_label
_atom_site_fract_x
_atom_site_fract_y
_atom_site_fract_z
Si Si1 0.837858 0.588141 0.603036
Si Si2 0.581214 0.413397 0.739290
Si Si3 0.770605 0.900521 0.732334
Si Si4 0.773346 0.410662 0.902054
Si Si5 0.477097 0.750000 0.520435
Si Si6 0.151937 0.981580 0.975885
Si Si7 0.934925 0.907910 0.831884
Si Si8 0.464287 0.584102 0.132032
O O1 0.847321 0.750000 0.583961
O O2 0.807279 0.591253 0.668660
O O3 0.743604 0.513603 0.570124
O O4 0.948062 0.506246 0.600633
O O5 0.574968 0.250000 0.726485
O O6 0.698846 0.468471 0.746889
O O7 0.534222 0.503750 0.688263
O O8 0.527867 0.436352 0.800309
O O9 0.712582 0.750000 0.740113
O O10 0.866692 0.897978 0.775022
O O11 0.788396 0.250000 0.882771
O O12 0.860727 0.509628 0.874528
O O13 0.654829 0.453334 0.886017
O O14 0.793400 0.419495 0.968096
O O15 0.560584 0.626455 0.540969
O O16 0.400763 0.627326 0.492784
O O17 0.955471 0.750000 0.852577
O O18 0.478095 0.750000 0.121259
#
# Coordination Sequence:
#
# PCOD9466557 Si02
#       8
#     8   8   8   8   4   8   8   8
#     4  11  23  43  67  95 129 169 215 268 319 383
#     4  11  22  39  60  90 129 172 214 263 323 385
#     4  10  22  39  61  90 128 168 214 264 317 377
#     4  11  23  44  67  95 132 170 213 270 322 382
#     4  10  24  46  72  92 136 164 216 264 326 370
#     4  11  24  47  71  98 128 171 211 268 318 384
#     4  11  23  39  62  92 128 170 217 262 318 385
#     4  10  23  39  64  94 132 170 209 263 324 382
#
# _framework density 20.733218000000001
#
# number of rings (size 3 to 8) (size 9 to 14) (size 15 to 20)
#    0.000    1.333    4.000    0.800    1.867    4.800 
#    2.400    0.000    0.000    0.000    0.000    0.000 
#    0.000    0.000    0.000    0.000    0.000    0.000 
#
# Total GULP energy -334263.909122 kJ/mol
# GULP energy per Si atom -5571.065152 kJ/mol
# Density = 2.068603 g / cm^3
# Si number density = 20.733218 Si / 1000 Ang^3
#
#
#
# Elastic Constant Matrix: (Units=GPa)
#
#
# Indices 1 2 3 4 5 6 
#
# 1 70.4454 47.3674 10.9029 0.0000 0.0000 0.0000
# 2 47.3674 101.3551 -1.9994 0.0000 0.0000 0.0000
# 3 10.9029 -1.9994 53.4504 0.0000 0.0000 0.0000
# 4 0.0000 0.0000 0.0000 24.0451 0.0000 0.0000
# 5 0.0000 0.0000 0.0000 0.0000 30.2517 0.0000
# 6 0.0000 0.0000 0.0000 0.0000 0.0000 19.6777
#
#
#
# Elastic Compliance Matrix: (Units=1/GPa)
#
#
# Indices 1 2 3 4 5 6 
#
# 1 0.021889 -0.010325 -0.004851 0.000000 0.000000 0.000000
# 2 -0.010325 0.014744 0.002658 0.000000 0.000000 0.000000
# 3 -0.004851 0.002658 0.019798 0.000000 0.000000 0.000000
# 4 0.000000 0.000000 0.000000 0.041589 0.000000 0.000000
# 5 0.000000 0.000000 0.000000 0.000000 0.033056 0.000000
# 6 0.000000 0.000000 0.000000 0.000000 0.000000 0.050819
#
#
# Mechanical properties :
#
#
# Convention : Reuss Voigt Hill
#
# Bulk Modulus (GPa) = 31.85376 37.53251 34.69313
# Shear Modulus (GPa) = 22.99945 26.06024 24.52985
#
# Velocity S-wave (km/s) = 3.33424 3.54917 3.44338
# Velocity P-wave (km/s) = 5.49726 5.91078 5.70777
#
# Compressibility (1/GPa) = 0.03139347
#
# Stress axis : x y z
#
# Youngs Moduli (GPa) = 45.68522 67.82346 50.51041
#
# Poissons Ratio (x) = 0.70030 0.24503
# Poissons Ratio (y) = 0.47171 -0.13424
# Poissons Ratio (z) = 0.22163 -0.18025
#
# Static dielectric constant tensor:
#      x y z
#    x 1.730140 0.000000 0.000000 
#    y 0.000000 1.735620 0.000000 
#    z 0.000000 0.000000 1.769810 
# 
# From -- ./inp_files/31166.got.cif
#   From: 2010.05.17/outbox.cif.g08.bks.cpg/sg62_16_cif.got.tgz:31166.got - 2010.06.03 15:25:27.
