data_PCOD9466082
_publ_section_title
;
Structure prediction by ZEFSAII (Michael W. Deem and Ramdas Pophale) SiO2 
 PCOD9466082
Probable space group: P N M A
;
_chemical_formula_sum "Si O2"
_cell_formula_units_Z 40
_cell_length_a 5.651140
_cell_length_b 16.676494
_cell_length_c 17.705844
_cell_angle_alpha 90.000000
_cell_angle_beta 90.000000
_cell_angle_gamma 90.000000
_cell_volume 1668.620026
_symmetry_space_group_name_H-M "P N M A"
_symmetry_group_IT_number 62
_symmetry_cell_setting 'orthorhombic'
loop_
_space_group_symop_operation_xyz
x,y,z
1/2-x,-y,1/2+z
1/2+x,1/2-y,1/2-z
-x,1/2+y,-z
-x,-y,-z
1/2+x,y,1/2-z
1/2-x,1/2+y,1/2+z
x,1/2-y,z
loop_
_atom_site_type_symbol
_atom_site_label
_atom_site_fract_x
_atom_site_fract_y
_atom_site_fract_z
Si Si1 0.614617 0.060808 0.072510
Si Si2 0.114148 0.114804 0.255022
Si Si3 0.846798 0.842928 0.426175
Si Si4 0.613986 0.504836 0.389577
Si Si5 0.874603 0.346134 0.716732
O O1 0.608467 0.082359 0.160630
O O2 0.359347 0.017539 0.066149
O O3 0.872632 0.020091 0.070006
O O4 0.613285 0.133359 0.012850
O O5 0.364493 0.158769 0.251531
O O6 0.117484 0.043936 0.190645
O O7 0.785659 0.750000 0.418487
O O8 0.073668 0.858674 0.372172
O O9 0.643383 0.899405 0.391651
O O10 0.621294 0.377540 0.745608
O O11 0.868226 0.250000 0.730340
#
# Coordination Sequence:
#
# PCOD9466082 Si02
#       5
#     8   8   8   8   8
#     4  10  21  40  63  89 121 160 206 249 297 359
#     4   8  16  32  59  85 111 151 203 248 284 342
#     4  11  24  40  62  94 128 158 196 254 313 358
#     4  10  21  39  62  87 119 164 209 244 291 361
#     4   9  20  37  54  77 116 161 196 229 284 358
#
# _framework density 23.971903000000001
#
# number of rings (size 3 to 8) (size 9 to 14) (size 15 to 20)
#    0.000    2.400    0.000    1.200    0.000    8.000 
#    0.000    8.000    0.000   10.800    0.000    0.000 
#    0.000    0.000    0.000    0.000    0.000    0.000 
#
# Total GULP energy -223086.949484 kJ/mol
# GULP energy per Si atom -5577.173737 kJ/mol
# Density = 2.391734 g / cm^3
# Si number density = 23.971903 Si / 1000 Ang^3
#
#
#
# Elastic Constant Matrix: (Units=GPa)
#
#
# Indices 1 2 3 4 5 6 
#
# 1 240.2878 51.9080 71.2392 0.0000 0.0000 0.0000
# 2 51.9080 106.3714 46.8563 0.0000 0.0000 0.0000
# 3 71.2392 46.8563 150.9480 0.0000 0.0000 0.0000
# 4 0.0000 0.0000 0.0000 -2.8219 0.0000 0.0000
# 5 0.0000 0.0000 0.0000 0.0000 51.4352 0.0000
# 6 0.0000 0.0000 0.0000 0.0000 0.0000 5.3937
#
#
#
# Elastic Compliance Matrix: (Units=1/GPa)
#
#
# Indices 1 2 3 4 5 6 
#
# 1 0.005076 -0.001647 -0.001884 0.000000 0.000000 0.000000
# 2 -0.001647 0.011424 -0.002769 0.000000 0.000000 0.000000
# 3 -0.001884 -0.002769 0.008374 0.000000 0.000000 0.000000
# 4 0.000000 0.000000 0.000000 -0.354368 0.000000 0.000000
# 5 0.000000 0.000000 0.000000 0.000000 0.019442 0.000000
# 6 0.000000 0.000000 0.000000 0.000000 0.000000 0.185402
#
#
# Mechanical properties :
#
#
# Convention : Reuss Voigt Hill
#
# Bulk Modulus (GPa) = 81.47679 93.06824 87.27252
# Shear Modulus (GPa) = -46.31447 32.64164 -6.83642
#
# Velocity S-wave (km/s) = -4.40026 3.69407 -1.69057
# Velocity P-wave (km/s) = 2.87157 7.55666 5.71616
#
# Compressibility (1/GPa) = 0.01227343
#
# Stress axis : x y z
#
# Youngs Moduli (GPa) = 196.99955 87.53122 119.42188
#
# Poissons Ratio (x) = 0.14417 0.22504
# Poissons Ratio (y) = 0.32446 0.33068
# Poissons Ratio (z) = 0.37123 0.24237
#
# Static dielectric constant tensor:
#      x y z
#    x 1.976320 0.000000 0.000000 
#    y 0.000000 1.920830 0.000000 
#    z 0.000000 0.000000 2.004980 
# 
# From -- ./inp_files/21476.got.cif
#   From: 2010.05.17/outbox.cif.g08.bks.cpg/sg62_11_cif.got.tgz:21476.got - 2010.06.03 15:25:27.
