data_PCOD9466051
_publ_section_title
;
Structure prediction by ZEFSAII (Michael W. Deem and Ramdas Pophale) SiO2 
 PCOD9466051
Probable space group: P N M A
;
_chemical_formula_sum "Si O2"
_cell_formula_units_Z 40
_cell_length_a 25.219653
_cell_length_b 7.891323
_cell_length_c 8.582707
_cell_angle_alpha 90.000000
_cell_angle_beta 90.000000
_cell_angle_gamma 90.000000
_cell_volume 1708.099688
_symmetry_space_group_name_H-M "P N M A"
_symmetry_group_IT_number 62
_symmetry_cell_setting 'orthorhombic'
loop_
_space_group_symop_operation_xyz
x,y,z
1/2-x,-y,1/2+z
1/2+x,1/2-y,1/2-z
-x,1/2+y,-z
-x,-y,-z
1/2+x,y,1/2-z
1/2-x,1/2+y,1/2+z
x,1/2-y,z
loop_
_atom_site_type_symbol
_atom_site_label
_atom_site_fract_x
_atom_site_fract_y
_atom_site_fract_z
Si Si1 0.676306 0.549310 0.179776
Si Si2 0.777052 0.946552 0.353795
Si Si3 0.573820 0.956907 0.346360
Si Si4 0.526196 0.452972 0.836033
Si Si5 0.126339 0.947328 0.832802
O O1 0.674277 0.750000 0.208956
O O2 0.721278 0.478691 0.296306
O O3 0.617627 0.486310 0.219462
O O4 0.696699 0.526049 0.005579
O O5 0.769112 0.750000 0.391326
O O6 0.819567 0.962929 0.214724
O O7 0.571096 0.750000 0.348410
O O8 0.515677 0.014173 0.295535
O O9 0.596963 0.012392 0.512330
O O10 0.531969 0.250000 0.827366
O O11 0.583201 0.533159 0.804195
O O12 0.500000 0.500000 0.000000
O O13 0.138999 0.750000 0.856514
#
# Coordination Sequence:
#
# PCOD9466051 Si02
#       5
#     8   8   8   8   8
#     4  10  21  39  61  85 116 154 195 240 292 348
#     4  11  23  38  59  89 120 152 195 242 287 345
#     4   9  20  38  60  84 113 152 195 239 288 345
#     4  11  22  38  60  88 119 153 197 243 291 349
#     4  11  22  39  61  84 116 157 196 240 295 345
#
# _framework density 23.417836999999999
#
# number of rings (size 3 to 8) (size 9 to 14) (size 15 to 20)
#    0.000    1.600    0.000    4.800    0.000    4.800 
#    0.000    6.000    0.000    0.000    0.000    0.000 
#    0.000    0.000    0.000    0.000    0.000    0.000 
#
# Total GULP energy -223781.211784 kJ/mol
# GULP energy per Si atom -5594.530295 kJ/mol
# Density = 2.336454 g / cm^3
# Si number density = 23.417837 Si / 1000 Ang^3
#
#
#
# Elastic Constant Matrix: (Units=GPa)
#
#
# Indices 1 2 3 4 5 6 
#
# 1 89.7370 -1.8734 -15.4575 0.0000 0.0000 0.0000
# 2 -1.8734 32.6169 -12.6308 0.0000 0.0000 0.0000
# 3 -15.4575 -12.6308 55.7307 0.0000 0.0000 0.0000
# 4 0.0000 0.0000 0.0000 24.0402 0.0000 0.0000
# 5 0.0000 0.0000 0.0000 0.0000 42.2386 0.0000
# 6 0.0000 0.0000 0.0000 0.0000 0.0000 19.4526
#
#
#
# Elastic Compliance Matrix: (Units=1/GPa)
#
#
# Indices 1 2 3 4 5 6 
#
# 1 0.011837 0.002139 0.003768 0.000000 0.000000 0.000000
# 2 0.002139 0.033995 0.008298 0.000000 0.000000 0.000000
# 3 0.003768 0.008298 0.020869 0.000000 0.000000 0.000000
# 4 0.000000 0.000000 0.000000 0.041597 0.000000 0.000000
# 5 0.000000 0.000000 0.000000 0.000000 0.023675 0.000000
# 6 0.000000 0.000000 0.000000 0.000000 0.000000 0.051407
#
#
# Mechanical properties :
#
#
# Convention : Reuss Voigt Hill
#
# Bulk Modulus (GPa) = 10.51393 13.12900 11.82147
# Shear Modulus (GPa) = 26.78456 31.01603 28.90029
#
# Velocity S-wave (km/s) = 3.38563 3.64326 3.51681
# Velocity P-wave (km/s) = 4.44779 4.82871 4.64216
#
# Compressibility (1/GPa) = 0.09511192
#
# Stress axis : x y z
#
# Youngs Moduli (GPa) = 84.47806 29.41594 47.91749
#
# Poissons Ratio (x) = -0.06292 -0.18055
# Poissons Ratio (y) = -0.18070 -0.39762
# Poissons Ratio (z) = -0.31832 -0.24409
#
# Static dielectric constant tensor:
#      x y z
#    x 1.869340 0.000000 0.000000 
#    y 0.000000 1.782850 0.000000 
#    z 0.000000 0.000000 1.904550 
# 
# From -- ./inp_files/9076.got.cif
#   From: 2010.05.17/outbox.cif.g08.bks.cpg/sg62_5_cif.got.tgz:9076.got - 2010.06.03 15:25:27.
