data_PCOD9466750
_publ_section_title
;
Structure prediction by ZEFSAII (Michael W. Deem and Ramdas Pophale) SiO2 
 PCOD9466750
Probable space group: P N M A
;
_chemical_formula_sum "Si O2"
_cell_formula_units_Z 40
_cell_length_a 7.843228
_cell_length_b 23.614539
_cell_length_c 8.393855
_cell_angle_alpha 90.000000
_cell_angle_beta 90.000000
_cell_angle_gamma 90.000000
_cell_volume 1554.661252
_symmetry_space_group_name_H-M "P N M A"
_symmetry_group_IT_number 62
_symmetry_cell_setting 'orthorhombic'
loop_
_space_group_symop_operation_xyz
x,y,z
1/2-x,-y,1/2+z
1/2+x,1/2-y,1/2-z
-x,1/2+y,-z
-x,-y,-z
1/2+x,y,1/2-z
1/2-x,1/2+y,1/2+z
x,1/2-y,z
loop_
_atom_site_type_symbol
_atom_site_label
_atom_site_fract_x
_atom_site_fract_y
_atom_site_fract_z
Si Si1 0.822830 0.165967 0.575664
Si Si2 0.117624 0.188147 0.325543
Si Si3 0.926525 0.331792 0.933302
Si Si4 0.647218 0.959057 0.942933
Si Si5 0.516131 0.073559 0.376395
O O1 0.626178 0.183873 0.557147
O O2 0.847183 0.098266 0.548176
O O3 0.955618 0.188141 0.444767
O O4 0.870064 0.181226 0.755552
O O5 0.116364 0.250000 0.244595
O O6 0.289012 0.187238 0.434174
O O7 0.100520 0.130342 0.219145
O O8 0.929136 0.398784 0.971101
O O9 0.846079 0.972017 0.931442
O O10 0.605445 0.948456 0.758216
O O11 0.500000 0.000000 0.000000
#
# Coordination Sequence:
#
# PCOD9466750 Si02
#       5
#     8   8   8   8   8
#     4  10  23  41  66  95 137 170 220 277 333 393
#     4  11  24  43  66  93 132 181 223 270 336 400
#     4  11  21  43  66  91 134 176 211 281 332 389
#     4  10  22  41  66  95 129 174 221 271 340 400
#     4  10  22  44  64  95 135 166 228 280 323 408
#
# _framework density 25.729077
#
# number of rings (size 3 to 8) (size 9 to 14) (size 15 to 20)
#    0.000    1.600    4.000    0.000    0.000    5.600 
#    0.000    2.000    0.000    0.000    0.000    0.000 
#    0.000    0.000    0.000    0.000    0.000    0.000 
#
# Total GULP energy -223376.757987 kJ/mol
# GULP energy per Si atom -5584.418950 kJ/mol
# Density = 2.567052 g / cm^3
# Si number density = 25.729077 Si / 1000 Ang^3
#
#
#
# Elastic Constant Matrix: (Units=GPa)
#
#
# Indices 1 2 3 4 5 6 
#
# 1 150.6313 25.2973 25.9598 0.0000 0.0000 0.0000
# 2 25.2973 84.2029 -2.8771 0.0000 0.0000 0.0000
# 3 25.9598 -2.8771 114.7113 0.0000 0.0000 0.0000
# 4 0.0000 0.0000 0.0000 14.6557 0.0000 0.0000
# 5 0.0000 0.0000 0.0000 0.0000 39.7631 0.0000
# 6 0.0000 0.0000 0.0000 0.0000 0.0000 -105.5454
#
#
#
# Elastic Compliance Matrix: (Units=1/GPa)
#
#
# Indices 1 2 3 4 5 6 
#
# 1 0.007312 -0.002255 -0.001711 0.000000 0.000000 0.000000
# 2 -0.002255 0.012582 0.000826 0.000000 0.000000 0.000000
# 3 -0.001711 0.000826 0.009126 0.000000 0.000000 0.000000
# 4 0.000000 0.000000 0.000000 0.068233 0.000000 0.000000
# 5 0.000000 0.000000 0.000000 0.000000 0.025149 0.000000
# 6 0.000000 0.000000 0.000000 0.000000 0.000000 -0.009475
#
#
# Mechanical properties :
#
#
# Convention : Reuss Voigt Hill
#
# Bulk Modulus (GPa) = 43.97875 49.58952 46.78413
# Shear Modulus (GPa) = 39.43581 9.85236 24.64409
#
# Velocity S-wave (km/s) = 3.91926 1.95898 3.09824
# Velocity P-wave (km/s) = 6.13278 4.94291 5.56971
#
# Compressibility (1/GPa) = 0.02273825
#
# Stress axis : x y z
#
# Youngs Moduli (GPa) = 136.75317 79.47929 109.58237
#
# Poissons Ratio (x) = 0.17926 0.18754
# Poissons Ratio (y) = 0.30843 -0.09051
# Poissons Ratio (z) = 0.23404 -0.06565
#
# Static dielectric constant tensor:
#      x y z
#    x 2.056080 0.000000 0.000000 
#    y 0.000000 2.079960 0.000000 
#    z 0.000000 0.000000 2.008550 
# 
# From -- ./inp_files/4408.got.cif
#   From: 2010.05.17/outbox.cif.g08.bks.cpg/sg62_3_cif.got.tgz:4408.got - 2010.06.03 15:25:27.
