data_PCOD9466763
_publ_section_title
;
Structure prediction by ZEFSAII (Michael W. Deem and Ramdas Pophale) SiO2 
 PCOD9466763
Probable space group: P N M A
;
_chemical_formula_sum "Si O2"
_cell_formula_units_Z 48
_cell_length_a 28.802812
_cell_length_b 14.459458
_cell_length_c 5.058096
_cell_angle_alpha 90.000000
_cell_angle_beta 90.000000
_cell_angle_gamma 90.000000
_cell_volume 2106.560670
_symmetry_space_group_name_H-M "P N M A"
_symmetry_group_IT_number 62
_symmetry_cell_setting 'orthorhombic'
loop_
_space_group_symop_operation_xyz
x,y,z
1/2-x,-y,1/2+z
1/2+x,1/2-y,1/2-z
-x,1/2+y,-z
-x,-y,-z
1/2+x,y,1/2-z
1/2-x,1/2+y,1/2+z
x,1/2-y,z
loop_
_atom_site_type_symbol
_atom_site_label
_atom_site_fract_x
_atom_site_fract_y
_atom_site_fract_z
Si Si1 0.073400 0.144422 0.384507
Si Si2 0.367415 0.998869 0.587724
Si Si3 0.015976 0.638449 0.290475
Si Si4 0.331321 0.651334 0.206570
Si Si5 0.220204 0.477706 0.381112
Si Si6 0.428992 0.138861 0.292118
O O1 0.063001 0.250000 0.278991
O O2 0.119018 0.154599 0.563149
O O3 0.031581 0.109930 0.569696
O O4 0.089622 0.066523 0.178968
O O5 0.386678 0.082943 0.416714
O O6 0.336643 0.929900 0.412760
O O7 0.329976 0.024514 0.813837
O O8 0.013712 0.750000 0.293545
O O9 0.027993 0.614147 0.990090
O O10 0.057428 0.613131 0.493340
O O11 0.321979 0.750000 0.333026
O O12 0.293784 0.623399 0.988894
O O13 0.246842 0.523180 0.627312
O O14 0.422451 0.250000 0.304301
#
# Coordination Sequence:
#
# PCOD9466763 Si02
#       6
#     8   8   8   8   8   8
#     4   9  20  36  58  92 128 168 213 261 320 374
#     4  11  23  38  68  92 129 166 207 268 318 380
#     4   9  20  38  58  83 126 172 217 267 306 362
#     4  10  22  41  67  98 131 165 205 258 322 380
#     4  11  23  45  68  91 124 162 199 256 318 387
#     4  10  23  40  59  86 125 173 218 261 311 363
#
# _framework density 22.785955000000001
#
# number of rings (size 3 to 8) (size 9 to 14) (size 15 to 20)
#    0.000    2.000    1.667    0.500    7.000    2.000 
#    0.000    1.667    0.000    1.000    0.000    0.000 
#    0.000    0.000    0.000    0.000    0.000    0.000 
#
# Total GULP energy -268074.342730 kJ/mol
# GULP energy per Si atom -5584.882140 kJ/mol
# Density = 2.273409 g / cm^3
# Si number density = 22.785955 Si / 1000 Ang^3
#
#
#
# Elastic Constant Matrix: (Units=GPa)
#
#
# Indices 1 2 3 4 5 6 
#
# 1 66.1156 27.5105 5.2467 0.0000 0.0000 0.0000
# 2 27.5105 77.3209 13.7538 0.0000 0.0000 0.0000
# 3 5.2467 13.7538 81.5634 0.0000 0.0000 0.0000
# 4 0.0000 0.0000 0.0000 29.3832 0.0000 0.0000
# 5 0.0000 0.0000 0.0000 0.0000 4.1717 0.0000
# 6 0.0000 0.0000 0.0000 0.0000 0.0000 -50.5829
#
#
#
# Elastic Compliance Matrix: (Units=1/GPa)
#
#
# Indices 1 2 3 4 5 6 
#
# 1 0.017754 -0.006303 -0.000079 0.000000 0.000000 0.000000
# 2 -0.006303 0.015571 -0.002220 0.000000 0.000000 0.000000
# 3 -0.000079 -0.002220 0.012640 0.000000 0.000000 0.000000
# 4 0.000000 0.000000 0.000000 0.034033 0.000000 0.000000
# 5 0.000000 0.000000 0.000000 0.000000 0.239708 0.000000
# 6 0.000000 0.000000 0.000000 0.000000 0.000000 -0.019770
#
#
# Mechanical properties :
#
#
# Convention : Reuss Voigt Hill
#
# Bulk Modulus (GPa) = 34.77045 35.33577 35.05311
# Shear Modulus (GPa) = 15.30329 8.49366 11.89848
#
# Velocity S-wave (km/s) = 2.59436 1.93279 2.28761
# Velocity P-wave (km/s) = 4.92615 4.53015 4.73230
#
# Compressibility (1/GPa) = 0.02876006
#
# Stress axis : x y z
#
# Youngs Moduli (GPa) = 56.32585 64.22398 79.11468
#
# Poissons Ratio (x) = 0.40478 0.00627
# Poissons Ratio (y) = 0.35500 0.17565
# Poissons Ratio (z) = 0.00446 0.14259
#
# Static dielectric constant tensor:
#      x y z
#    x 1.871860 0.000000 0.000000 
#    y 0.000000 1.901500 0.000000 
#    z 0.000000 0.000000 1.910090 
# 
# From -- ./inp_files/3539.got.cif
#   From: 2010.05.17/outbox.cif.g08.bks.cpg/sg62_2_cif.got.tgz:3539.got - 2010.06.03 15:25:27.
