data_PCOD9466054
_publ_section_title
;
Structure prediction by ZEFSAII (Michael W. Deem and Ramdas Pophale) SiO2 
 PCOD9466054
Probable space group: P N M A
;
_chemical_formula_sum "Si O2"
_cell_formula_units_Z 40
_cell_length_a 13.179132
_cell_length_b 18.176394
_cell_length_c 7.242550
_cell_angle_alpha 90.000000
_cell_angle_beta 90.000000
_cell_angle_gamma 90.000000
_cell_volume 1734.946304
_symmetry_space_group_name_H-M "P N M A"
_symmetry_group_IT_number 62
_symmetry_cell_setting 'orthorhombic'
loop_
_space_group_symop_operation_xyz
x,y,z
1/2-x,-y,1/2+z
1/2+x,1/2-y,1/2-z
-x,1/2+y,-z
-x,-y,-z
1/2+x,y,1/2-z
1/2-x,1/2+y,1/2+z
x,1/2-y,z
loop_
_atom_site_type_symbol
_atom_site_label
_atom_site_fract_x
_atom_site_fract_y
_atom_site_fract_z
Si Si1 0.157476 0.833366 0.557133
Si Si2 0.012850 0.663948 0.869441
Si Si3 0.008059 0.387856 0.708962
Si Si4 0.197551 0.446216 0.842689
Si Si5 0.613204 0.028023 0.295504
O O1 0.195943 0.750000 0.549604
O O2 0.119191 0.850202 0.764090
O O3 0.237703 0.887493 0.461850
O O4 0.053572 0.840346 0.437652
O O5 0.989203 0.750000 0.844696
O O6 0.930156 0.609554 0.777973
O O7 0.013597 0.645691 0.087353
O O8 0.128543 0.402462 0.695883
O O9 0.958013 0.468681 0.699677
O O10 0.274664 0.506128 0.768485
O O11 0.119224 0.483883 0.983610
#
# Coordination Sequence:
#
# PCOD9466054 Si02
#       5
#     8   8   8   8   8
#     4  10  23  39  60  91 120 156 199 239 297 361
#     4  10  21  39  61  85 121 159 191 244 302 350
#     4  10  22  42  63  85 122 160 197 245 297 348
#     4  10  22  36  62  88 117 155 197 253 285 349
#     4  10  23  37  63  89 118 154 206 241 299 351
#
# _framework density 23.055468999999999
#
# number of rings (size 3 to 8) (size 9 to 14) (size 15 to 20)
#    0.000    2.000    0.000    3.000    8.400    5.600 
#    0.000    0.000    0.000    0.000    0.000    0.000 
#    0.000    0.000    0.000    0.000    0.000    0.000 
#
# Total GULP energy -223452.370920 kJ/mol
# GULP energy per Si atom -5586.309273 kJ/mol
# Density = 2.300299 g / cm^3
# Si number density = 23.055469 Si / 1000 Ang^3
#
#
#
# Elastic Constant Matrix: (Units=GPa)
#
#
# Indices 1 2 3 4 5 6 
#
# 1 80.3944 21.3714 3.7678 0.0000 0.0000 0.0000
# 2 21.3714 122.8343 10.4846 0.0000 0.0000 0.0000
# 3 3.7678 10.4846 43.4940 0.0000 0.0000 0.0000
# 4 0.0000 0.0000 0.0000 17.9145 0.0000 0.0000
# 5 0.0000 0.0000 0.0000 0.0000 42.1036 0.0000
# 6 0.0000 0.0000 0.0000 0.0000 0.0000 28.0637
#
#
#
# Elastic Compliance Matrix: (Units=1/GPa)
#
#
# Indices 1 2 3 4 5 6 
#
# 1 0.013057 -0.002221 -0.000596 0.000000 0.000000 0.000000
# 2 -0.002221 0.008690 -0.001902 0.000000 0.000000 0.000000
# 3 -0.000596 -0.001902 0.023502 0.000000 0.000000 0.000000
# 4 0.000000 0.000000 0.000000 0.055821 0.000000 0.000000
# 5 0.000000 0.000000 0.000000 0.000000 0.023751 0.000000
# 6 0.000000 0.000000 0.000000 0.000000 0.000000 0.035633
#
#
# Mechanical properties :
#
#
# Convention : Reuss Voigt Hill
#
# Bulk Modulus (GPa) = 27.92461 35.33002 31.62731
# Shear Modulus (GPa) = 27.49845 31.68961 29.59403
#
# Velocity S-wave (km/s) = 3.45731 3.71144 3.58662
# Velocity P-wave (km/s) = 5.29863 5.80720 5.55874
#
# Compressibility (1/GPa) = 0.03581071
#
# Stress axis : x y z
#
# Youngs Moduli (GPa) = 76.58737 115.07709 42.54980
#
# Poissons Ratio (x) = 0.25557 0.02535
# Poissons Ratio (y) = 0.17009 0.08095
# Poissons Ratio (z) = 0.04563 0.21892
#
# Static dielectric constant tensor:
#      x y z
#    x 1.912420 0.000000 0.000000 
#    y 0.000000 1.846300 0.000000 
#    z 0.000000 0.000000 1.932620 
# 
# From -- ./inp_files/5037.got.cif
#   From: 2010.05.17/outbox.cif.g08.bks.cpg/sg62_3_cif.got.tgz:5037.got - 2010.06.03 15:25:27.
