data_PCOD9466183
_publ_section_title
;
Structure prediction by ZEFSAII (Michael W. Deem and Ramdas Pophale) SiO2 
 PCOD9466183
Probable space group: P N M A
;
_chemical_formula_sum "Si O2"
_cell_formula_units_Z 64
_cell_length_a 22.049461
_cell_length_b 8.537113
_cell_length_c 17.660582
_cell_angle_alpha 90.000000
_cell_angle_beta 90.000000
_cell_angle_gamma 90.000000
_cell_volume 3324.405706
_symmetry_space_group_name_H-M "P N M A"
_symmetry_group_IT_number 62
_symmetry_cell_setting 'orthorhombic'
loop_
_space_group_symop_operation_xyz
x,y,z
1/2-x,-y,1/2+z
1/2+x,1/2-y,1/2-z
-x,1/2+y,-z
-x,-y,-z
1/2+x,y,1/2-z
1/2-x,1/2+y,1/2+z
x,1/2-y,z
loop_
_atom_site_type_symbol
_atom_site_label
_atom_site_fract_x
_atom_site_fract_y
_atom_site_fract_z
Si Si1 0.527192 0.935367 0.650905
Si Si2 0.371923 0.936331 0.461018
Si Si3 0.056692 0.439821 0.405396
Si Si4 0.393069 0.065711 0.624845
Si Si5 0.618835 0.439032 0.772532
Si Si6 0.649893 0.063767 0.220753
Si Si7 0.078433 0.438023 0.569987
Si Si8 0.273432 0.562124 0.340605
O O1 0.517450 0.750000 0.652357
O O2 0.572132 0.981094 0.582071
O O3 0.462670 0.017918 0.641458
O O4 0.562598 0.988608 0.726478
O O5 0.379997 0.750000 0.450706
O O6 0.310037 0.980221 0.416970
O O7 0.372203 0.979542 0.548600
O O8 0.052258 0.250000 0.404935
O O9 0.093728 0.488484 0.331819
O O10 0.089871 0.489665 0.483771
O O11 0.989781 0.510039 0.409764
O O12 0.389277 0.250000 0.612174
O O13 0.354290 0.017631 0.698072
O O14 0.612197 0.250000 0.769509
O O15 0.619101 0.491787 0.859693
O O16 0.679522 0.477617 0.726801
O O17 0.645357 0.250000 0.231595
O O18 0.710802 0.022543 0.175670
O O19 0.081111 0.250000 0.568950
O O20 0.263762 0.750000 0.340501
#
# Coordination Sequence:
#
# PCOD9466183 Si02
#       8
#     8   8   8   8   8   8   8   8
#     4  11  21  34  56  87 122 153 185 228 284 341
#     4  10  21  40  62  85 116 150 188 233 283 338
#     4   9  19  34  52  78 111 144 177 222 278 332
#     4  12  24  38  58  85 115 149 191 234 287 343
#     4   9  18  34  56  81 110 148 190 232 279 332
#     4  11  23  39  57  80 114 151 191 236 283 335
#     4   9  17  32  55  81 108 138 180 227 275 332
#     4   9  20  39  59  79 109 147 187 231 279 334
#
# _framework density 19.251563000000001
#
# number of rings (size 3 to 8) (size 9 to 14) (size 15 to 20)
#    0.000    2.000    0.000    4.875    0.000    6.000 
#    2.250    0.000    0.000    0.000    0.000    0.000 
#    0.000    0.000    0.000    0.000    0.000    0.000 
#
# Total GULP energy -357388.977884 kJ/mol
# GULP energy per Si atom -5584.202779 kJ/mol
# Density = 1.920775 g / cm^3
# Si number density = 19.251563 Si / 1000 Ang^3
#
#
#
# Elastic Constant Matrix: (Units=GPa)
#
#
# Indices 1 2 3 4 5 6 
#
# 1 28.6259 -7.5024 -9.2960 0.0000 0.0000 0.0000
# 2 -7.5024 15.8705 -7.8506 0.0000 0.0000 0.0000
# 3 -9.2960 -7.8506 71.3868 0.0000 0.0000 0.0000
# 4 0.0000 0.0000 0.0000 25.0053 0.0000 0.0000
# 5 0.0000 0.0000 0.0000 0.0000 8.6462 0.0000
# 6 0.0000 0.0000 0.0000 0.0000 0.0000 24.4630
#
#
#
# Elastic Compliance Matrix: (Units=1/GPa)
#
#
# Indices 1 2 3 4 5 6 
#
# 1 0.044301 0.025165 0.008536 0.000000 0.000000 0.000000
# 2 0.025165 0.080929 0.012177 0.000000 0.000000 0.000000
# 3 0.008536 0.012177 0.016459 0.000000 0.000000 0.000000
# 4 0.000000 0.000000 0.000000 0.039991 0.000000 0.000000
# 5 0.000000 0.000000 0.000000 0.000000 0.115657 0.000000
# 6 0.000000 0.000000 0.000000 0.000000 0.000000 0.040878
#
#
# Mechanical properties :
#
#
# Convention : Reuss Voigt Hill
#
# Bulk Modulus (GPa) = 4.28366 7.39834 5.84100
# Shear Modulus (GPa) = 15.41902 20.99174 18.20538
#
# Velocity S-wave (km/s) = 2.83313 3.30569 3.07849
# Velocity P-wave (km/s) = 3.59612 4.29202 3.95939
#
# Compressibility (1/GPa) = 0.23344546
#
# Stress axis : x y z
#
# Youngs Moduli (GPa) = 22.57295 12.35644 60.75724
#
# Poissons Ratio (x) = -0.31095 -0.51864
# Poissons Ratio (y) = -0.56804 -0.73984
# Poissons Ratio (z) = -0.19269 -0.15046
#
# Static dielectric constant tensor:
#      x y z
#    x 1.640130 0.000000 0.000000 
#    y 0.000000 1.645480 0.000000 
#    z 0.000000 0.000000 1.694390 
# 
# From -- ./inp_files/21008.got.cif
#   From: 2010.05.17/outbox.cif.g08.bks.cpg/sg62_11_cif.got.tgz:21008.got - 2010.06.03 15:25:27.
