data_PCOD9466707
_publ_section_title
;
Structure prediction by ZEFSAII (Michael W. Deem and Ramdas Pophale) SiO2 
 PCOD9466707
Probable space group: P N M A
;
_chemical_formula_sum "Si O2"
_cell_formula_units_Z 64
_cell_length_a 28.264606
_cell_length_b 17.765413
_cell_length_c 6.794861
_cell_angle_alpha 90.000000
_cell_angle_beta 90.000000
_cell_angle_gamma 90.000000
_cell_volume 3411.919854
_symmetry_space_group_name_H-M "P N M A"
_symmetry_group_IT_number 62
_symmetry_cell_setting 'orthorhombic'
loop_
_space_group_symop_operation_xyz
x,y,z
1/2-x,-y,1/2+z
1/2+x,1/2-y,1/2-z
-x,1/2+y,-z
-x,-y,-z
1/2+x,y,1/2-z
1/2-x,1/2+y,1/2+z
x,1/2-y,z
loop_
_atom_site_type_symbol
_atom_site_label
_atom_site_fract_x
_atom_site_fract_y
_atom_site_fract_z
Si Si1 0.839480 0.836638 0.904129
Si Si2 0.914511 0.906502 0.190563
Si Si3 0.484145 0.339162 0.765710
Si Si4 0.664173 0.433788 0.013917
Si Si5 0.233291 0.338444 0.756755
Si Si6 0.588335 0.663332 0.898342
Si Si7 0.835501 0.404437 0.685487
Si Si8 0.586221 0.933052 0.507761
O O1 0.840343 0.750000 0.840672
O O2 0.843415 0.890243 0.717771
O O3 0.882062 0.853183 0.055167
O O4 0.791825 0.850152 0.031015
O O5 0.882422 0.930070 0.377177
O O6 0.961933 0.865378 0.257646
O O7 0.925327 0.981088 0.062835
O O8 0.479632 0.250000 0.719351
O O9 0.454366 0.390122 0.614191
O O10 0.459734 0.350725 0.978448
O O11 0.705213 0.390898 0.895368
O O12 0.675936 0.519682 0.065153
O O13 0.227391 0.250000 0.707773
O O14 0.287788 0.361440 0.761782
O O15 0.589354 0.750000 0.836342
O O16 0.592853 0.610453 0.711669
O O17 0.630501 0.646495 0.050744
O O18 0.866439 0.427955 0.875636
#
# Coordination Sequence:
#
# PCOD9466707 Si02
#       8
#     8   8   8   8   8   8   8   8
#     4  10  22  41  62  89 125 159 203 254 300 361
#     4  11  22  40  63  91 124 161 204 247 306 362
#     4  10  23  40  61  89 122 160 204 253 304 359
#     4  11  23  39  63  92 123 161 204 251 303 360
#     4  10  24  41  62  90 123 161 204 253 304 359
#     4  10  22  41  62  89 125 160 204 254 300 359
#     4  11  23  40  64  91 124 162 204 248 306 360
#     4  11  22  40  62  92 123 160 203 252 302 361
#
# _framework density 18.757769
#
# number of rings (size 3 to 8) (size 9 to 14) (size 15 to 20)
#    0.000    1.500    2.500    1.875    1.750    5.500 
#    0.000    1.250    0.000    0.000    0.000    0.000 
#    0.000    0.000    0.000    0.000    0.000    0.000 
#
# Total GULP energy -357596.750667 kJ/mol
# GULP energy per Si atom -5587.449229 kJ/mol
# Density = 1.871508 g / cm^3
# Si number density = 18.757769 Si / 1000 Ang^3
#
#
#
# Elastic Constant Matrix: (Units=GPa)
#
#
# Indices 1 2 3 4 5 6 
#
# 1 77.9841 2.0400 2.1482 0.0000 0.0000 0.0000
# 2 2.0400 42.3788 -5.8096 0.0000 0.0000 0.0000
# 3 2.1482 -5.8096 37.6894 0.0000 0.0000 0.0000
# 4 0.0000 0.0000 0.0000 35.5351 0.0000 0.0000
# 5 0.0000 0.0000 0.0000 0.0000 10.6698 0.0000
# 6 0.0000 0.0000 0.0000 0.0000 0.0000 27.5477
#
#
#
# Elastic Compliance Matrix: (Units=1/GPa)
#
#
# Indices 1 2 3 4 5 6 
#
# 1 0.012866 -0.000735 -0.000847 0.000000 0.000000 0.000000
# 2 -0.000735 0.024148 0.003764 0.000000 0.000000 0.000000
# 3 -0.000847 0.003764 0.027161 0.000000 0.000000 0.000000
# 4 0.000000 0.000000 0.000000 0.028141 0.000000 0.000000
# 5 0.000000 0.000000 0.000000 0.000000 0.093723 0.000000
# 6 0.000000 0.000000 0.000000 0.000000 0.000000 0.036301
#
#
# Mechanical properties :
#
#
# Convention : Reuss Voigt Hill
#
# Bulk Modulus (GPa) = 14.59019 17.20106 15.89563
# Shear Modulus (GPa) = 20.76226 25.39542 23.07884
#
# Velocity S-wave (km/s) = 3.33056 3.68348 3.51146
# Velocity P-wave (km/s) = 4.75240 5.22309 4.99329
#
# Compressibility (1/GPa) = 0.06853921
#
# Stress axis : x y z
#
# Youngs Moduli (GPa) = 77.72613 41.41111 36.81729
#
# Poissons Ratio (x) = 0.03045 0.03117
# Poissons Ratio (y) = 0.05716 -0.13859
# Poissons Ratio (z) = 0.06581 -0.15588
#
# Static dielectric constant tensor:
#      x y z
#    x 1.621390 0.000000 0.000000 
#    y 0.000000 1.636360 0.000000 
#    z 0.000000 0.000000 1.626490 
# 
# From -- ./inp_files/3707.got.cif
#   From: 2010.05.17/outbox.cif.g08.bks.cpg/sg62_2_cif.got.tgz:3707.got - 2010.06.03 15:25:27.
