data_PCOD9466940
_publ_section_title
;
Structure prediction by ZEFSAII (Michael W. Deem and Ramdas Pophale) SiO2 
 PCOD9466940
Probable space group: P N M A
;
_chemical_formula_sum "Si O2"
_cell_formula_units_Z 56
_cell_length_a 11.720625
_cell_length_b 15.038725
_cell_length_c 14.350334
_cell_angle_alpha 90.000000
_cell_angle_beta 90.000000
_cell_angle_gamma 90.000000
_cell_volume 2529.436598
_symmetry_space_group_name_H-M "P N M A"
_symmetry_group_IT_number 62
_symmetry_cell_setting 'orthorhombic'
loop_
_space_group_symop_operation_xyz
x,y,z
1/2-x,-y,1/2+z
1/2+x,1/2-y,1/2-z
-x,1/2+y,-z
-x,-y,-z
1/2+x,y,1/2-z
1/2-x,1/2+y,1/2+z
x,1/2-y,z
loop_
_atom_site_type_symbol
_atom_site_label
_atom_site_fract_x
_atom_site_fract_y
_atom_site_fract_z
Si Si1 0.662488 0.646052 0.920354
Si Si2 0.538311 0.150243 0.188656
Si Si3 0.605884 0.439270 0.414225
Si Si4 0.039199 0.641981 0.392465
Si Si5 0.140998 0.974123 0.897925
Si Si6 0.177274 0.349942 0.501557
Si Si7 0.674172 0.521617 0.245926
O O1 0.638795 0.750000 0.923788
O O2 0.588742 0.614214 0.832104
O O3 0.794887 0.632289 0.905280
O O4 0.617033 0.609306 0.019306
O O5 0.539853 0.250000 0.230118
O O6 0.619548 0.076195 0.230391
O O7 0.587518 0.158879 0.083595
O O8 0.601465 0.454028 0.525533
O O9 0.477547 0.423192 0.378152
O O10 0.660312 0.524154 0.357566
O O11 0.045145 0.750000 0.385232
O O12 0.093431 0.593517 0.303967
O O13 0.907243 0.618225 0.415595
O O14 0.206945 0.017149 0.810453
O O15 0.227325 0.911447 0.955522
O O16 0.219690 0.250000 0.523652
#
# Coordination Sequence:
#
# PCOD9466940 Si02
#       7
#     8   8   8   8   8   8   8
#     4   9  18  35  58  84 116 153 198 258 312 361
#     4   8  17  32  53  88 118 141 193 247 295 367
#     4  11  24  37  56  85 121 159 204 248 309 385
#     4   9  18  35  62  95 117 149 215 266 302 357
#     4  10  23  40  53  86 124 152 200 252 304 379
#     4   8  16  33  59  83 110 149 190 244 301 351
#     4  11  22  36  65  84 119 170 199 256 317 356
#
# _framework density 22.139317999999999
#
# number of rings (size 3 to 8) (size 9 to 14) (size 15 to 20)
#    0.000    2.571    1.429    1.714    4.000    2.857 
#    0.000    0.714    0.000    1.714    0.000    0.000 
#    0.000    0.000    0.000    0.000    0.000    0.000 
#
# Total GULP energy -311881.132716 kJ/mol
# GULP energy per Si atom -5569.305941 kJ/mol
# Density = 2.208893 g / cm^3
# Si number density = 22.139318 Si / 1000 Ang^3
#
#
#
# Elastic Constant Matrix: (Units=GPa)
#
#
# Indices 1 2 3 4 5 6 
#
# 1 119.6145 10.8662 8.2963 0.0000 0.0000 0.0000
# 2 10.8662 31.3870 0.6218 0.0000 0.0000 0.0000
# 3 8.2963 0.6218 73.1151 0.0000 0.0000 0.0000
# 4 0.0000 0.0000 0.0000 -1.8642 0.0000 0.0000
# 5 0.0000 0.0000 0.0000 0.0000 20.9154 0.0000
# 6 0.0000 0.0000 0.0000 0.0000 0.0000 22.7667
#
#
#
# Elastic Compliance Matrix: (Units=1/GPa)
#
#
# Indices 1 2 3 4 5 6 
#
# 1 0.008699 -0.002992 -0.000962 0.000000 0.000000 0.000000
# 2 -0.002992 0.032895 0.000060 0.000000 0.000000 0.000000
# 3 -0.000962 0.000060 0.013786 0.000000 0.000000 0.000000
# 4 0.000000 0.000000 0.000000 -0.536432 0.000000 0.000000
# 5 0.000000 0.000000 0.000000 0.000000 0.047812 0.000000
# 6 0.000000 0.000000 0.000000 0.000000 0.000000 0.043924
#
#
# Mechanical properties :
#
#
# Convention : Reuss Voigt Hill
#
# Bulk Modulus (GPa) = 21.01235 29.29833 25.15534
# Shear Modulus (GPa) = -13.67372 21.98575 4.15601
#
# Velocity S-wave (km/s) = -2.48790 3.15471 1.37160
# Velocity P-wave (km/s) = 1.12193 5.15092 3.72765
#
# Compressibility (1/GPa) = 0.04759107
#
# Stress axis : x y z
#
# Youngs Moduli (GPa) = 114.95934 30.39964 72.53912
#
# Poissons Ratio (x) = 0.09097 0.06975
# Poissons Ratio (y) = 0.34401 -0.00434
# Poissons Ratio (z) = 0.11054 -0.00182
#
# Static dielectric constant tensor:
#      x y z
#    x 1.870090 0.000000 0.000000 
#    y 0.000000 1.814740 0.000000 
#    z 0.000000 0.000000 1.980070 
# 
# From -- ./inp_files/18118.got.cif
#   From: 2010.05.17/outbox.cif.g08.bks.cpg/sg62_10_cif.got.tgz:18118.got - 2010.06.03 15:25:27.
