data_PCOD9466011
_publ_section_title
;
Structure prediction by ZEFSAII (Michael W. Deem and Ramdas Pophale) SiO2 
 PCOD9466011
Probable space group: P N M A
;
_chemical_formula_sum "Si O2"
_cell_formula_units_Z 40
_cell_length_a 6.894097
_cell_length_b 14.555025
_cell_length_c 15.095929
_cell_angle_alpha 90.000000
_cell_angle_beta 90.000000
_cell_angle_gamma 90.000000
_cell_volume 1514.782189
_symmetry_space_group_name_H-M "P N M A"
_symmetry_group_IT_number 62
_symmetry_cell_setting 'orthorhombic'
loop_
_space_group_symop_operation_xyz
x,y,z
1/2-x,-y,1/2+z
1/2+x,1/2-y,1/2-z
-x,1/2+y,-z
-x,-y,-z
1/2+x,y,1/2-z
1/2-x,1/2+y,1/2+z
x,1/2-y,z
loop_
_atom_site_type_symbol
_atom_site_label
_atom_site_fract_x
_atom_site_fract_y
_atom_site_fract_z
Si Si1 0.394458 0.556255 0.818139
Si Si2 0.616075 0.850667 0.187988
Si Si3 0.049568 0.651614 0.110875
Si Si4 0.764165 0.996093 0.506709
Si Si5 0.728537 0.356218 0.368106
O O1 0.479789 0.451769 0.819005
O O2 0.539983 0.632815 0.854356
O O3 0.342711 0.587870 0.719249
O O4 0.229543 0.542200 0.893273
O O5 0.534628 0.750000 0.159680
O O6 0.648614 0.844403 0.292462
O O7 0.823081 0.857934 0.138651
O O8 0.072400 0.750000 0.065790
O O9 0.160028 0.575646 0.056503
O O10 0.695359 0.091991 0.461432
O O11 0.000000 0.000000 0.500000
O O12 0.668098 0.250000 0.366776
#
# Coordination Sequence:
#
# PCOD9466011 Si02
#       5
#     8   8   8   8   8
#     4  11  23  43  69  95 132 178 224 281 334 401
#     4  10  21  38  66  96 126 166 210 270 343 398
#     4  10  21  39  63  95 130 165 214 269 334 402
#     4  10  24  40  65  95 126 177 220 276 328 396
#     4  11  24  44  66  96 135 184 231 274 338 406
#
# _framework density 26.406438999999999
#
# number of rings (size 3 to 8) (size 9 to 14) (size 15 to 20)
#    0.000    1.600    2.000    1.800    2.800    5.600 
#    0.000    0.000    0.000    0.000    0.000    0.000 
#    0.000    0.000    0.000    0.000    0.000    0.000 
#
# Total GULP energy -223285.977374 kJ/mol
# GULP energy per Si atom -5582.149434 kJ/mol
# Density = 2.634634 g / cm^3
# Si number density = 26.406439 Si / 1000 Ang^3
#
#
#
# Elastic Constant Matrix: (Units=GPa)
#
#
# Indices 1 2 3 4 5 6 
#
# 1 81.9291 24.4635 21.3545 0.0000 0.0000 0.0000
# 2 24.4635 200.2335 50.4259 0.0000 0.0000 0.0000
# 3 21.3545 50.4259 189.2306 0.0000 0.0000 0.0000
# 4 0.0000 0.0000 0.0000 7.6501 0.0000 0.0000
# 5 0.0000 0.0000 0.0000 0.0000 39.1613 0.0000
# 6 0.0000 0.0000 0.0000 0.0000 0.0000 31.6938
#
#
#
# Elastic Compliance Matrix: (Units=1/GPa)
#
#
# Indices 1 2 3 4 5 6 
#
# 1 0.012881 -0.001295 -0.001109 0.000000 0.000000 0.000000
# 2 -0.001295 0.005484 -0.001315 0.000000 0.000000 0.000000
# 3 -0.001109 -0.001315 0.005760 0.000000 0.000000 0.000000
# 4 0.000000 0.000000 0.000000 0.130718 0.000000 0.000000
# 5 0.000000 0.000000 0.000000 0.000000 0.025535 0.000000
# 6 0.000000 0.000000 0.000000 0.000000 0.000000 0.031552
#
#
# Mechanical properties :
#
#
# Convention : Reuss Voigt Hill
#
# Bulk Modulus (GPa) = 59.92292 73.76457 66.84375
# Shear Modulus (GPa) = 22.22921 40.71099 31.47010
#
# Velocity S-wave (km/s) = 2.90454 3.93072 3.45593
# Velocity P-wave (km/s) = 5.83012 6.97106 6.42596
#
# Compressibility (1/GPa) = 0.01668810
#
# Stress axis : x y z
#
# Youngs Moduli (GPa) = 77.63260 182.36415 173.60724
#
# Poissons Ratio (x) = 0.23608 0.19247
# Poissons Ratio (y) = 0.10050 0.22832
# Poissons Ratio (z) = 0.08607 0.23984
#
# Static dielectric constant tensor:
#      x y z
#    x 2.153980 0.000000 0.000000 
#    y 0.000000 2.107630 0.000000 
#    z 0.000000 0.000000 2.127060 
# 
# From -- ./inp_files/16660.got.cif
#   From: 2010.05.17/outbox.cif.g08.bks.cpg/sg62_9_cif.got.tgz:16660.got - 2010.06.03 15:25:27.
