data_PCOD9466646
_publ_section_title
;
Structure prediction by ZEFSAII (Michael W. Deem and Ramdas Pophale) SiO2 
 PCOD9466646
Probable space group: P N M A
;
_chemical_formula_sum "Si O2"
_cell_formula_units_Z 48
_cell_length_a 5.522360
_cell_length_b 14.868415
_cell_length_c 23.246496
_cell_angle_alpha 90.000000
_cell_angle_beta 90.000000
_cell_angle_gamma 90.000000
_cell_volume 1908.740502
_symmetry_space_group_name_H-M "P N M A"
_symmetry_group_IT_number 62
_symmetry_cell_setting 'orthorhombic'
loop_
_space_group_symop_operation_xyz
x,y,z
1/2-x,-y,1/2+z
1/2+x,1/2-y,1/2-z
-x,1/2+y,-z
-x,-y,-z
1/2+x,y,1/2-z
1/2-x,1/2+y,1/2+z
x,1/2-y,z
loop_
_atom_site_type_symbol
_atom_site_label
_atom_site_fract_x
_atom_site_fract_y
_atom_site_fract_z
Si Si1 0.080185 0.146428 0.105695
Si Si2 0.209100 0.848660 0.385854
Si Si3 0.899099 0.994702 0.434591
Si Si4 0.323277 0.359779 0.278890
Si Si5 0.433159 0.346620 0.521918
Si Si6 0.484034 0.356989 0.724168
O O1 0.148234 0.250000 0.117465
O O2 0.914504 0.113394 0.157757
O O3 0.315130 0.087396 0.092881
O O4 0.933723 0.143475 0.046012
O O5 0.102800 0.750000 0.369817
O O6 0.300002 0.840761 0.451522
O O7 0.430258 0.862719 0.341793
O O8 0.047888 0.936133 0.389001
O O9 0.668489 0.932733 0.447269
O O10 0.000000 0.000000 0.500000
O O11 0.052456 0.388604 0.261072
O O12 0.315269 0.250000 0.277237
O O13 0.314309 0.250000 0.536566
O O14 0.218771 0.393487 0.740644
O O15 0.464694 0.250000 0.736646
#
# Coordination Sequence:
#
# PCOD9466646 Si02
#       6
#     8   8   8   8   8   8
#     4  10  22  41  64  94 128 168 217 270 329 397
#     4  10  22  40  63  92 128 169 214 263 324 394
#     4  12  24  38  63  94 130 169 214 270 330 395
#     4   9  19  39  65  92 124 169 221 273 333 394
#     4  10  22  41  64  94 129 167 211 266 331 397
#     4   9  19  36  61  92 127 172 219 264 320 388
#
# _framework density 25.147472
#
# number of rings (size 3 to 8) (size 9 to 14) (size 15 to 20)
#    0.000    2.000    1.667    1.000    2.333    2.000 
#    0.000    5.000    0.000    0.000    0.000    0.000 
#    0.000    0.000    0.000    0.000    0.000    0.000 
#
# Total GULP energy -268148.845375 kJ/mol
# GULP energy per Si atom -5586.434279 kJ/mol
# Density = 2.509024 g / cm^3
# Si number density = 25.147472 Si / 1000 Ang^3
#
#
#
# Elastic Constant Matrix: (Units=GPa)
#
#
# Indices 1 2 3 4 5 6 
#
# 1 70.9906 28.5169 9.2876 0.0000 0.0000 0.0000
# 2 28.5169 84.0729 7.5279 0.0000 0.0000 0.0000
# 3 9.2876 7.5279 107.9781 0.0000 0.0000 0.0000
# 4 0.0000 0.0000 0.0000 -15.8419 0.0000 0.0000
# 5 0.0000 0.0000 0.0000 0.0000 36.9749 0.0000
# 6 0.0000 0.0000 0.0000 0.0000 0.0000 -180.5172
#
#
#
# Elastic Compliance Matrix: (Units=1/GPa)
#
#
# Indices 1 2 3 4 5 6 
#
# 1 0.016422 -0.005478 -0.001031 0.000000 0.000000 0.000000
# 2 -0.005478 0.013796 -0.000491 0.000000 0.000000 0.000000
# 3 -0.001031 -0.000491 0.009384 0.000000 0.000000 0.000000
# 4 0.000000 0.000000 0.000000 -0.063124 0.000000 0.000000
# 5 0.000000 0.000000 0.000000 0.000000 0.027045 0.000000
# 6 0.000000 0.000000 0.000000 0.000000 0.000000 -0.005540
#
#
# Mechanical properties :
#
#
# Convention : Reuss Voigt Hill
#
# Bulk Modulus (GPa) = 39.05660 39.30072 39.17866
# Shear Modulus (GPa) = 243.70093 -17.36290 113.16901
#
# Velocity S-wave (km/s) = 9.85490 -2.63048 6.71564
# Velocity P-wave (km/s) = 12.04396 2.53695 8.70325
#
# Compressibility (1/GPa) = 0.02560387
#
# Stress axis : x y z
#
# Youngs Moduli (GPa) = 60.89532 72.48264 106.56451
#
# Poissons Ratio (x) = 0.39705 0.10982
# Poissons Ratio (y) = 0.33357 0.05229
# Poissons Ratio (z) = 0.06276 0.03557
#
# Static dielectric constant tensor:
#      x y z
#    x 2.064360 0.000000 0.000000 
#    y 0.000000 2.021810 0.000000 
#    z 0.000000 0.000000 1.995100 
# 
# From -- ./inp_files/28334.got.cif
#   From: 2010.05.17/outbox.cif.g08.bks.cpg/sg62_15_cif.got.tgz:28334.got - 2010.06.03 15:25:27.
