data_PCOD9466310
_publ_section_title
;
Structure prediction by ZEFSAII (Michael W. Deem and Ramdas Pophale) SiO2 
 PCOD9466310
Probable space group: P N M A
;
_chemical_formula_sum "Si O2"
_cell_formula_units_Z 40
_cell_length_a 9.022651
_cell_length_b 23.837127
_cell_length_c 9.545610
_cell_angle_alpha 90.000000
_cell_angle_beta 90.000000
_cell_angle_gamma 90.000000
_cell_volume 2053.013267
_symmetry_space_group_name_H-M "P N M A"
_symmetry_group_IT_number 62
_symmetry_cell_setting 'orthorhombic'
loop_
_space_group_symop_operation_xyz
x,y,z
1/2-x,-y,1/2+z
1/2+x,1/2-y,1/2-z
-x,1/2+y,-z
-x,-y,-z
1/2+x,y,1/2-z
1/2-x,1/2+y,1/2+z
x,1/2-y,z
loop_
_atom_site_type_symbol
_atom_site_label
_atom_site_fract_x
_atom_site_fract_y
_atom_site_fract_z
Si Si1 0.829954 0.314235 0.389307
Si Si2 0.890822 0.878458 0.716524
Si Si3 0.333790 0.388427 0.856368
Si Si4 0.151994 0.472112 0.052352
Si Si5 0.674802 0.084596 0.911421
O O1 0.874783 0.250000 0.374774
O O2 0.682135 0.328200 0.304207
O O3 0.818244 0.332364 0.551179
O O4 0.946028 0.358497 0.324676
O O5 0.883198 0.932868 0.814789
O O6 0.812268 0.892058 0.569049
O O7 0.277604 0.382917 0.698768
O O8 0.503409 0.409268 0.865956
O O9 0.227838 0.433584 0.933812
O O10 0.268061 0.520828 0.090237
O O11 0.000000 0.500000 0.000000
#
# Coordination Sequence:
#
# PCOD9466310 Si02
#       5
#     8   8   8   8   8
#     4  10  21  41  61  81 110 146 192 251 298 341
#     4  10  22  37  60  89 113 150 198 236 291 360
#     4  10  23  37  55  83 116 153 196 232 283 349
#     4  11  21  36  59  88 121 155 187 232 292 354
#     4  11  21  37  56  83 121 154 188 237 286 350
#
# _framework density 19.483557000000001
#
# number of rings (size 3 to 8) (size 9 to 14) (size 15 to 20)
#    0.000    1.600    0.000    4.800    0.000    8.000 
#    0.000    5.000    0.000    0.000    0.000    0.000 
#    0.000    0.000    0.000    0.000    0.000    0.000 
#
# Total GULP energy -223515.959801 kJ/mol
# GULP energy per Si atom -5587.898995 kJ/mol
# Density = 1.943921 g / cm^3
# Si number density = 19.483557 Si / 1000 Ang^3
#
#
#
# Elastic Constant Matrix: (Units=GPa)
#
#
# Indices 1 2 3 4 5 6 
#
# 1 68.4024 24.0015 34.9922 0.0000 0.0000 0.0000
# 2 24.0015 62.2165 30.9703 0.0000 0.0000 0.0000
# 3 34.9922 30.9703 125.1041 0.0000 0.0000 0.0000
# 4 0.0000 0.0000 0.0000 9.8756 0.0000 0.0000
# 5 0.0000 0.0000 0.0000 0.0000 34.1788 0.0000
# 6 0.0000 0.0000 0.0000 0.0000 0.0000 18.8627
#
#
#
# Elastic Compliance Matrix: (Units=1/GPa)
#
#
# Indices 1 2 3 4 5 6 
#
# 1 0.018416 -0.005178 -0.003869 0.000000 0.000000 0.000000
# 2 -0.005178 0.019788 -0.003450 0.000000 0.000000 0.000000
# 3 -0.003869 -0.003450 0.009930 0.000000 0.000000 0.000000
# 4 0.000000 0.000000 0.000000 0.101260 0.000000 0.000000
# 5 0.000000 0.000000 0.000000 0.000000 0.029258 0.000000
# 6 0.000000 0.000000 0.000000 0.000000 0.000000 0.053015
#
#
# Mechanical properties :
#
#
# Convention : Reuss Voigt Hill
#
# Bulk Modulus (GPa) = 43.21868 48.40565 45.81217
# Shear Modulus (GPa) = 18.91265 23.63402 21.27334
#
# Velocity S-wave (km/s) = 3.11898 3.48663 3.30792
# Velocity P-wave (km/s) = 5.93304 6.41148 6.17690
#
# Compressibility (1/GPa) = 0.02313814
#
# Stress axis : x y z
#
# Youngs Moduli (GPa) = 54.30175 50.53554 100.70845
#
# Poissons Ratio (x) = 0.26169 0.38964
# Poissons Ratio (y) = 0.28119 0.34747
# Poissons Ratio (z) = 0.21009 0.17436
#
# Static dielectric constant tensor:
#      x y z
#    x 1.687380 0.000000 0.000000 
#    y 0.000000 1.654720 0.000000 
#    z 0.000000 0.000000 1.700570 
# 
# From -- ./inp_files/4259.got.cif
#   From: 2010.05.17/outbox.cif.g08.bks.cpg/sg62_3_cif.got.tgz:4259.got - 2010.06.03 15:25:27.
