data_PCOD9466571
_publ_section_title
;
Structure prediction by ZEFSAII (Michael W. Deem and Ramdas Pophale) SiO2 
 PCOD9466571
Probable space group: P N M A
;
_chemical_formula_sum "Si O2"
_cell_formula_units_Z 64
_cell_length_a 12.203279
_cell_length_b 7.798353
_cell_length_c 31.517169
_cell_angle_alpha 90.000000
_cell_angle_beta 90.000000
_cell_angle_gamma 90.000000
_cell_volume 2999.346434
_symmetry_space_group_name_H-M "P N M A"
_symmetry_group_IT_number 62
_symmetry_cell_setting 'orthorhombic'
loop_
_space_group_symop_operation_xyz
x,y,z
1/2-x,-y,1/2+z
1/2+x,1/2-y,1/2-z
-x,1/2+y,-z
-x,-y,-z
1/2+x,y,1/2-z
1/2-x,1/2+y,1/2+z
x,1/2-y,z
loop_
_atom_site_type_symbol
_atom_site_label
_atom_site_fract_x
_atom_site_fract_y
_atom_site_fract_z
Si Si1 0.258523 0.458085 0.698877
Si Si2 0.252916 0.449137 0.053733
Si Si3 0.591065 0.048918 0.871607
Si Si4 0.719539 0.952604 0.536479
Si Si5 0.500026 0.046293 0.332704
Si Si6 0.506732 0.459487 0.429746
Si Si7 0.657263 0.541140 0.123020
Si Si8 0.219114 0.050136 0.793073
O O1 0.251622 0.250000 0.699476
O O2 0.164450 0.522956 0.666878
O O3 0.376833 0.505496 0.680756
O O4 0.245499 0.523617 0.746898
O O5 0.250061 0.250000 0.065932
O O6 0.338986 0.532979 0.085378
O O7 0.128951 0.519162 0.059223
O O8 0.278068 0.466098 0.004064
O O9 0.576796 0.250000 0.862333
O O10 0.468517 0.979589 0.876382
O O11 0.714744 0.750000 0.528711
O O12 0.594553 0.019863 0.541660
O O13 0.780940 0.982876 0.580676
O O14 0.483616 0.250000 0.331350
O O15 0.482875 0.989201 0.381244
O O16 0.409618 0.963564 0.302647
O O17 0.506796 0.250000 0.431483
O O18 0.660250 0.750000 0.122413
O O19 0.718263 0.478863 0.165721
O O20 0.250632 0.250000 0.791112
#
# Coordination Sequence:
#
# PCOD9466571 Si02
#       8
#     8   8   8   8   8   8   8   8
#     4  10  22  39  63  91 121 157 200 248 296 348
#     4  11  22  39  61  87 118 153 194 241 295 352
#     4  10  22  40  60  85 117 155 199 245 292 347
#     4  11  22  39  61  87 118 153 194 241 295 352
#     4  11  21  38  62  90 125 158 195 243 295 354
#     4   9  19  36  58  86 121 153 185 236 292 344
#     4  10  22  40  60  85 117 155 199 245 292 347
#     4  10  22  39  63  91 121 157 200 248 296 348
#
# _framework density 21.337980999999999
#
# number of rings (size 3 to 8) (size 9 to 14) (size 15 to 20)
#    0.000    1.750    2.500    1.500    1.750    1.500 
#    0.000    1.875    0.000    0.000    0.000    0.000 
#    0.000    0.000    0.000    0.000    0.000    0.000 
#
# Total GULP energy -357627.716434 kJ/mol
# GULP energy per Si atom -5587.933069 kJ/mol
# Density = 2.128941 g / cm^3
# Si number density = 21.337981 Si / 1000 Ang^3
#
#
#
# Elastic Constant Matrix: (Units=GPa)
#
#
# Indices 1 2 3 4 5 6 
#
# 1 109.6259 -11.7921 23.1988 0.0000 0.0000 0.0000
# 2 -11.7921 30.6091 -10.5066 0.0000 0.0000 0.0000
# 3 23.1988 -10.5066 104.5832 0.0000 0.0000 0.0000
# 4 0.0000 0.0000 0.0000 15.4319 0.0000 0.0000
# 5 0.0000 0.0000 0.0000 0.0000 18.0891 0.0000
# 6 0.0000 0.0000 0.0000 0.0000 0.0000 16.0518
#
#
#
# Elastic Compliance Matrix: (Units=1/GPa)
#
#
# Indices 1 2 3 4 5 6 
#
# 1 0.009857 0.003156 -0.001869 0.000000 0.000000 0.000000
# 2 0.003156 0.034847 0.002801 0.000000 0.000000 0.000000
# 3 -0.001869 0.002801 0.010258 0.000000 0.000000 0.000000
# 4 0.000000 0.000000 0.000000 0.064801 0.000000 0.000000
# 5 0.000000 0.000000 0.000000 0.000000 0.055282 0.000000
# 6 0.000000 0.000000 0.000000 0.000000 0.000000 0.062298
#
#
# Mechanical properties :
#
#
# Convention : Reuss Voigt Hill
#
# Bulk Modulus (GPa) = 15.83882 27.40205 21.62043
# Shear Modulus (GPa) = 19.98287 26.17577 23.07932
#
# Velocity S-wave (km/s) = 3.06354 3.50626 3.29235
# Velocity P-wave (km/s) = 4.46684 5.40940 4.96056
#
# Compressibility (1/GPa) = 0.06313602
#
# Stress axis : x y z
#
# Youngs Moduli (GPa) = 101.45087 28.69674 97.48655
#
# Poissons Ratio (x) = -0.09056 0.18225
# Poissons Ratio (y) = -0.32015 -0.27304
# Poissons Ratio (z) = 0.18966 -0.08037
#
# Static dielectric constant tensor:
#      x y z
#    x 1.745200 0.000000 0.000000 
#    y 0.000000 1.785140 0.000000 
#    z 0.000000 0.000000 1.761480 
# 
# From -- ./inp_files/32607.got.cif
#   From: 2010.05.17/outbox.cif.g08.bks.cpg/sg62_17_cif.got.tgz:32607.got - 2010.06.03 15:25:27.
