data_PCOD9466812
_publ_section_title
;
Structure prediction by ZEFSAII (Michael W. Deem and Ramdas Pophale) SiO2 
 PCOD9466812
Probable space group: P N M A
;
_chemical_formula_sum "Si O2"
_cell_formula_units_Z 56
_cell_length_a 21.126649
_cell_length_b 21.297776
_cell_length_c 5.101486
_cell_angle_alpha 90.000000
_cell_angle_beta 90.000000
_cell_angle_gamma 90.000000
_cell_volume 2295.416881
_symmetry_space_group_name_H-M "P N M A"
_symmetry_group_IT_number 62
_symmetry_cell_setting 'orthorhombic'
loop_
_space_group_symop_operation_xyz
x,y,z
1/2-x,-y,1/2+z
1/2+x,1/2-y,1/2-z
-x,1/2+y,-z
-x,-y,-z
1/2+x,y,1/2-z
1/2-x,1/2+y,1/2+z
x,1/2-y,z
loop_
_atom_site_type_symbol
_atom_site_label
_atom_site_fract_x
_atom_site_fract_y
_atom_site_fract_z
Si Si1 0.275274 0.390669 0.659768
Si Si2 0.682557 0.960591 0.822568
Si Si3 0.054772 0.250000 0.857511
Si Si4 0.469830 0.250000 0.142061
Si Si5 0.599381 0.054166 0.041407
Si Si6 0.350782 0.679959 0.030257
Si Si7 0.472784 0.046732 0.715599
Si Si8 0.598738 0.638746 0.591501
O O1 0.276037 0.444601 0.433406
O O2 0.216094 0.344688 0.634462
O O3 0.338249 0.350313 0.580532
O O4 0.284374 0.425909 0.933754
O O5 0.618828 0.920074 0.768593
O O6 0.654620 0.030476 0.845900
O O7 0.996727 0.250000 0.649719
O O8 0.099601 0.308025 0.768033
O O9 0.028182 0.250000 0.149452
O O10 0.426946 0.191389 0.220389
O O11 0.620066 0.122488 0.137861
O O12 0.528501 0.057281 0.925016
O O13 0.591661 0.992059 0.219072
O O14 0.343791 0.750000 0.909327
O O15 0.455317 0.113592 0.598563
O O16 0.500000 0.000000 0.500000
#
# Coordination Sequence:
#
# PCOD9466812 Si02
#       8
#     8   8   4   4   8   8   8   8
#     4  10  23  45  68  99 140 175 236 287 342 421
#     4  10  22  42  68 107 130 176 235 283 348 412
#     4  10  28  47  61 106 130 192 236 282 352 422
#     4  12  26  41  75  94 150 176 232 298 342 434
#     4  11  22  41  70 102 145 185 231 298 356 419
#     4  10  26  49  68  97 143 193 240 287 355 430
#     4  11  21  38  69 101 142 181 231 291 358 417
#     4  10  24  41  68 107 138 183 234 282 362 410
#
# _framework density 24.396440999999999
#
# number of rings (size 3 to 8) (size 9 to 14) (size 15 to 20)
#    1.286    0.286    2.857    0.857    5.000    2.286 
#    3.857    0.000    0.000    0.000    0.000    0.000 
#    0.000    0.000    0.000    0.000    0.000    0.000 
#
# Total GULP energy -312614.483167 kJ/mol
# GULP energy per Si atom -5582.401485 kJ/mol
# Density = 2.434091 g / cm^3
# Si number density = 24.396441 Si / 1000 Ang^3
#
#
#
# Elastic Constant Matrix: (Units=GPa)
#
#
# Indices 1 2 3 4 5 6 
#
# 1 108.0094 40.4642 2.0562 0.0000 0.0000 0.0000
# 2 40.4642 128.9225 6.9576 0.0000 0.0000 0.0000
# 3 2.0562 6.9576 73.7726 0.0000 0.0000 0.0000
# 4 0.0000 0.0000 0.0000 17.2050 0.0000 0.0000
# 5 0.0000 0.0000 0.0000 0.0000 16.4027 0.0000
# 6 0.0000 0.0000 0.0000 0.0000 0.0000 51.4006
#
#
#
# Elastic Compliance Matrix: (Units=1/GPa)
#
#
# Indices 1 2 3 4 5 6 
#
# 1 0.010492 -0.003294 0.000018 0.000000 0.000000 0.000000
# 2 -0.003294 0.008830 -0.000741 0.000000 0.000000 0.000000
# 3 0.000018 -0.000741 0.013625 0.000000 0.000000 0.000000
# 4 0.000000 0.000000 0.000000 0.058123 0.000000 0.000000
# 5 0.000000 0.000000 0.000000 0.000000 0.060965 0.000000
# 6 0.000000 0.000000 0.000000 0.000000 0.000000 0.019455
#
#
# Mechanical properties :
#
#
# Convention : Reuss Voigt Hill
#
# Bulk Modulus (GPa) = 40.13893 45.51784 42.82839
# Shear Modulus (GPa) = 26.62003 34.41677 30.51840
#
# Velocity S-wave (km/s) = 3.30683 3.76004 3.54069
# Velocity P-wave (km/s) = 5.57393 6.12769 5.85736
#
# Compressibility (1/GPa) = 0.02491347
#
# Stress axis : x y z
#
# Youngs Moduli (GPa) = 95.30892 113.24392 73.39696
#
# Poissons Ratio (x) = 0.37304 -0.00134
# Poissons Ratio (y) = 0.31396 0.05439
# Poissons Ratio (z) = -0.00174 0.08391
#
# Static dielectric constant tensor:
#      x y z
#    x 2.015540 0.000000 0.000000 
#    y 0.000000 1.972330 0.000000 
#    z 0.000000 0.000000 2.016140 
# 
# From -- ./inp_files/2834.got.cif
#   From: 2010.05.17/outbox.cif.g08.bks.cpg/sg62_2_cif.got.tgz:2834.got - 2010.06.03 15:25:27.
