data_PCOD9466448
_publ_section_title
;
Structure prediction by ZEFSAII (Michael W. Deem and Ramdas Pophale) SiO2 
 PCOD9466448
Probable space group: P N M A
;
_chemical_formula_sum "Si O2"
_cell_formula_units_Z 60
_cell_length_a 7.317661
_cell_length_b 15.751607
_cell_length_c 22.663507
_cell_angle_alpha 90.000000
_cell_angle_beta 90.000000
_cell_angle_gamma 90.000000
_cell_volume 2612.307327
_symmetry_space_group_name_H-M "P N M A"
_symmetry_group_IT_number 62
_symmetry_cell_setting 'orthorhombic'
loop_
_space_group_symop_operation_xyz
x,y,z
1/2-x,-y,1/2+z
1/2+x,1/2-y,1/2-z
-x,1/2+y,-z
-x,-y,-z
1/2+x,y,1/2-z
1/2-x,1/2+y,1/2+z
x,1/2-y,z
loop_
_atom_site_type_symbol
_atom_site_label
_atom_site_fract_x
_atom_site_fract_y
_atom_site_fract_z
Si Si1 0.184758 0.654359 0.531664
Si Si2 0.161984 0.510749 0.833833
Si Si3 0.091652 0.250000 0.218269
Si Si4 0.182955 0.842924 0.057956
Si Si5 0.352403 0.108025 0.214181
Si Si6 0.241580 0.010160 0.117139
Si Si7 0.236288 0.345415 0.898344
Si Si8 0.268147 0.656649 0.924421
O O1 0.263531 0.750000 0.537868
O O2 0.286468 0.578734 0.565171
O O3 0.171572 0.636819 0.461806
O O4 0.981670 0.656188 0.558940
O O5 0.201129 0.548528 0.769332
O O6 0.252809 0.421438 0.851825
O O7 0.216652 0.583836 0.879879
O O8 0.942889 0.500735 0.844188
O O9 0.991662 0.323991 0.258779
O O10 0.203910 0.173111 0.186138
O O11 0.266379 0.750000 0.068571
O O12 0.978941 0.843639 0.083812
O O13 0.285477 0.920687 0.087783
O O14 0.172053 0.853643 0.987606
O O15 0.395791 0.045404 0.161070
O O16 0.286135 0.250000 0.878304
O O17 0.221694 0.750000 0.897799
#
# Coordination Sequence:
#
# PCOD9466448 Si02
#       8
#     8   8   4   8   8   8   8   8
#     4  10  22  35  55  85 117 148 183 226 282 336
#     4  11  23  37  57  83 112 147 191 231 274 333
#     4  10  24  42  60  78 122 150 184 226 280 324
#     4   9  19  39  60  80 109 148 188 232 278 328
#     4  11  24  40  59  86 114 150 187 228 275 338
#     4  11  23  37  57  83 112 147 191 231 274 333
#     4   9  19  39  60  80 109 148 188 232 278 328
#     4  10  22  35  55  85 117 148 183 226 282 336
#
# _framework density 22.968202999999999
#
# number of rings (size 3 to 8) (size 9 to 14) (size 15 to 20)
#    0.000    1.867    1.333    1.600    5.600    5.867 
#    0.000    0.667    0.000    0.000    0.000    0.000 
#    0.000    0.000    0.000    0.000    0.000    0.000 
#
# Total GULP energy -334352.748287 kJ/mol
# GULP energy per Si atom -5572.545805 kJ/mol
# Density = 2.291593 g / cm^3
# Si number density = 22.968203 Si / 1000 Ang^3
#
#
#
# Elastic Constant Matrix: (Units=GPa)
#
#
# Indices 1 2 3 4 5 6 
#
# 1 26.8060 20.0029 7.8612 0.0000 0.0000 0.0000
# 2 20.0029 196.7397 110.0803 0.0000 0.0000 0.0000
# 3 7.8612 110.0803 95.8362 0.0000 0.0000 0.0000
# 4 0.0000 0.0000 0.0000 22.8389 0.0000 0.0000
# 5 0.0000 0.0000 0.0000 0.0000 23.3344 0.0000
# 6 0.0000 0.0000 0.0000 0.0000 0.0000 27.5720
#
#
#
# Elastic Compliance Matrix: (Units=1/GPa)
#
#
# Indices 1 2 3 4 5 6 
#
# 1 0.040903 -0.006385 0.003979 0.000000 0.000000 0.000000
# 2 -0.006385 0.015222 -0.016960 0.000000 0.000000 0.000000
# 3 0.003979 -0.016960 0.029589 0.000000 0.000000 0.000000
# 4 0.000000 0.000000 0.000000 0.043785 0.000000 0.000000
# 5 0.000000 0.000000 0.000000 0.000000 0.042855 0.000000
# 6 0.000000 0.000000 0.000000 0.000000 0.000000 0.036269
#
#
# Mechanical properties :
#
#
# Convention : Reuss Voigt Hill
#
# Bulk Modulus (GPa) = 21.28542 66.14120 43.71331
# Shear Modulus (GPa) = 19.01027 26.84492 22.92759
#
# Velocity S-wave (km/s) = 2.88006 3.42246 3.16291
# Velocity P-wave (km/s) = 4.51078 6.66911 5.69316
#
# Compressibility (1/GPa) = 0.04698052
#
# Stress axis : x y z
#
# Youngs Moduli (GPa) = 24.44831 65.69548 33.79591
#
# Poissons Ratio (x) = 0.41945 -0.13446
# Poissons Ratio (y) = 0.15610 0.57319
# Poissons Ratio (z) = -0.09727 1.11422
#
# Static dielectric constant tensor:
#      x y z
#    x 2.024420 0.000000 0.000000 
#    y 0.000000 1.839990 0.000000 
#    z 0.000000 0.000000 1.742530 
# 
# From -- ./inp_files/28956.got.cif
#   From: 2010.05.17/outbox.cif.g08.bks.cpg/sg62_15_cif.got.tgz:28956.got - 2010.06.03 15:25:27.
