data_PCOD9466593
_publ_section_title
;
Structure prediction by ZEFSAII (Michael W. Deem and Ramdas Pophale) SiO2 
 PCOD9466593
Probable space group: P N M A
;
_chemical_formula_sum "Si O2"
_cell_formula_units_Z 40
_cell_length_a 10.421125
_cell_length_b 26.029034
_cell_length_c 6.629921
_cell_angle_alpha 90.000000
_cell_angle_beta 90.000000
_cell_angle_gamma 90.000000
_cell_volume 1798.378117
_symmetry_space_group_name_H-M "P N M A"
_symmetry_group_IT_number 62
_symmetry_cell_setting 'orthorhombic'
loop_
_space_group_symop_operation_xyz
x,y,z
1/2-x,-y,1/2+z
1/2+x,1/2-y,1/2-z
-x,1/2+y,-z
-x,-y,-z
1/2+x,y,1/2-z
1/2-x,1/2+y,1/2+z
x,1/2-y,z
loop_
_atom_site_type_symbol
_atom_site_label
_atom_site_fract_x
_atom_site_fract_y
_atom_site_fract_z
Si Si1 0.359553 0.189144 0.922321
Si Si2 0.372542 0.637153 0.176476
Si Si3 0.204395 0.622937 0.788216
Si Si4 0.898508 0.456673 0.949891
Si Si5 0.742781 0.450420 0.581746
O O1 0.372040 0.250000 0.908822
O O2 0.487674 0.162309 0.833580
O O3 0.232815 0.170241 0.801780
O O4 0.341857 0.170562 0.154232
O O5 0.362044 0.580981 0.283858
O O6 0.315503 0.633892 0.949899
O O7 0.094482 0.594674 0.919725
O O8 0.246261 0.581582 0.621442
O O9 0.775494 0.490180 0.027901
O O10 0.868921 0.446098 0.718486
O O11 0.000000 0.500000 0.000000
#
# Coordination Sequence:
#
# PCOD9466593 Si02
#       5
#     8   8   8   8   8
#     4  11  25  46  72  99 131 177 230 290 350 406
#     4  10  25  44  70  98 137 174 228 284 341 409
#     4  10  24  42  62  99 137 175 225 276 332 411
#     4  11  23  36  64  92 134 179 215 268 329 399
#     4  10  22  40  58  96 134 174 221 268 331 398
#
# _framework density 22.242265
#
# number of rings (size 3 to 8) (size 9 to 14) (size 15 to 20)
#    0.000    1.600    2.000    0.600   11.200    4.000 
#    0.000    0.000    0.000    0.000    0.000    0.000 
#    0.000    0.000    0.000    0.000    0.000    0.000 
#
# Total GULP energy -223399.169473 kJ/mol
# GULP energy per Si atom -5584.979237 kJ/mol
# Density = 2.219164 g / cm^3
# Si number density = 22.242265 Si / 1000 Ang^3
#
#
#
# Elastic Constant Matrix: (Units=GPa)
#
#
# Indices 1 2 3 4 5 6 
#
# 1 63.8956 12.0675 17.6189 0.0000 0.0000 0.0000
# 2 12.0675 117.7723 33.0547 0.0000 0.0000 0.0000
# 3 17.6189 33.0547 120.5923 0.0000 0.0000 0.0000
# 4 0.0000 0.0000 0.0000 33.1201 0.0000 0.0000
# 5 0.0000 0.0000 0.0000 0.0000 15.9256 0.0000
# 6 0.0000 0.0000 0.0000 0.0000 0.0000 30.0420
#
#
#
# Elastic Compliance Matrix: (Units=1/GPa)
#
#
# Indices 1 2 3 4 5 6 
#
# 1 0.016437 -0.001094 -0.002101 0.000000 0.000000 0.000000
# 2 -0.001094 0.009271 -0.002381 0.000000 0.000000 0.000000
# 3 -0.002101 -0.002381 0.009252 0.000000 0.000000 0.000000
# 4 0.000000 0.000000 0.000000 0.030193 0.000000 0.000000
# 5 0.000000 0.000000 0.000000 0.000000 0.062792 0.000000
# 6 0.000000 0.000000 0.000000 0.000000 0.000000 0.033287
#
#
# Mechanical properties :
#
#
# Convention : Reuss Voigt Hill
#
# Bulk Modulus (GPa) = 42.00664 47.52696 44.76680
# Shear Modulus (GPa) = 27.72814 31.78548 29.75681
#
# Velocity S-wave (km/s) = 3.53461 3.78439 3.66163
# Velocity P-wave (km/s) = 5.96531 6.36472 6.16825
#
# Compressibility (1/GPa) = 0.02380576
#
# Stress axis : x y z
#
# Youngs Moduli (GPa) = 60.83954 107.85760 108.08242
#
# Poissons Ratio (x) = 0.11804 0.22713
# Poissons Ratio (y) = 0.06658 0.25739
# Poissons Ratio (z) = 0.12785 0.25686
#
# Static dielectric constant tensor:
#      x y z
#    x 1.986780 0.000000 0.000000 
#    y 0.000000 1.813680 0.000000 
#    z 0.000000 0.000000 1.837660 
# 
# From -- ./inp_files/605.got.cif
#   From: 2010.05.17/outbox.cif.g08.bks.cpg/sg62_1_cif.got.tgz:605.got - 2010.06.03 15:25:27.
