data_PCOD9466553
_publ_section_title
;
Structure prediction by ZEFSAII (Michael W. Deem and Ramdas Pophale) SiO2 
 PCOD9466553
Probable space group: P N M A
;
_chemical_formula_sum "Si O2"
_cell_formula_units_Z 56
_cell_length_a 32.182231
_cell_length_b 13.815040
_cell_length_c 5.653051
_cell_angle_alpha 90.000000
_cell_angle_beta 90.000000
_cell_angle_gamma 90.000000
_cell_volume 2513.339739
_symmetry_space_group_name_H-M "P N M A"
_symmetry_group_IT_number 62
_symmetry_cell_setting 'orthorhombic'
loop_
_space_group_symop_operation_xyz
x,y,z
1/2-x,-y,1/2+z
1/2+x,1/2-y,1/2-z
-x,1/2+y,-z
-x,-y,-z
1/2+x,y,1/2-z
1/2-x,1/2+y,1/2+z
x,1/2-y,z
loop_
_atom_site_type_symbol
_atom_site_label
_atom_site_fract_x
_atom_site_fract_y
_atom_site_fract_z
Si Si1 0.029718 0.634772 0.608106
Si Si2 0.341333 0.585018 0.369655
Si Si3 0.801366 0.038655 0.753758
Si Si4 0.389400 0.030140 0.991913
Si Si5 0.728761 0.354598 0.959508
Si Si6 0.912299 0.644922 0.828362
Si Si7 0.005194 0.363524 0.891858
O O1 0.022469 0.750000 0.624145
O O2 0.077683 0.611949 0.553336
O O3 0.017497 0.595277 0.870486
O O4 0.004766 0.599688 0.372662
O O5 0.313439 0.503903 0.492247
O O6 0.366030 0.643872 0.565903
O O7 0.375425 0.527579 0.222079
O O8 0.312366 0.646018 0.200682
O O9 0.845593 0.061590 0.628822
O O10 0.779275 0.948424 0.621877
O O11 0.768651 0.123508 0.795378
O O12 0.412580 0.949844 0.831874
O O13 0.733384 0.250000 0.080139
O O14 0.919939 0.750000 0.709340
O O15 0.946672 0.635545 0.032662
O O16 0.992395 0.250000 0.879718
#
# Coordination Sequence:
#
# PCOD9466553 Si02
#       7
#     8   8   8   8   8   8   8
#     4  10  22  42  64  91 130 175 220 268 325 385
#     4  10  22  40  61  89 126 160 200 266 318 383
#     4  10  22  42  59  91 129 152 209 271 308 394
#     4  10  24  38  63  91 124 165 211 261 321 376
#     4  11  22  40  68  91 119 167 205 255 335 394
#     4  10  22  39  60  92 128 164 209 263 320 383
#     4   9  21  39  63  91 129 173 218 271 322 380
#
# _framework density 22.281110999999999
#
# number of rings (size 3 to 8) (size 9 to 14) (size 15 to 20)
#    0.000    2.000    1.429    0.429    6.000    8.000 
#    0.000    0.714    0.000    0.000    0.000    0.000 
#    0.000    0.000    0.000    0.000    0.000    0.000 
#
# Total GULP energy -312565.246392 kJ/mol
# GULP energy per Si atom -5581.522257 kJ/mol
# Density = 2.223040 g / cm^3
# Si number density = 22.281111 Si / 1000 Ang^3
#
#
#
# Elastic Constant Matrix: (Units=GPa)
#
#
# Indices 1 2 3 4 5 6 
#
# 1 85.9758 13.0268 15.7180 0.0000 0.0000 0.0000
# 2 13.0268 46.0679 17.9843 0.0000 0.0000 0.0000
# 3 15.7180 17.9843 92.4353 0.0000 0.0000 0.0000
# 4 0.0000 0.0000 0.0000 -46.6900 0.0000 0.0000
# 5 0.0000 0.0000 0.0000 0.0000 28.3977 0.0000
# 6 0.0000 0.0000 0.0000 0.0000 0.0000 7.6729
#
#
#
# Elastic Compliance Matrix: (Units=1/GPa)
#
#
# Indices 1 2 3 4 5 6 
#
# 1 0.012350 -0.002892 -0.001537 0.000000 0.000000 0.000000
# 2 -0.002892 0.024169 -0.004210 0.000000 0.000000 0.000000
# 3 -0.001537 -0.004210 0.011899 0.000000 0.000000 0.000000
# 4 0.000000 0.000000 0.000000 -0.021418 0.000000 0.000000
# 5 0.000000 0.000000 0.000000 0.000000 0.035214 0.000000
# 6 0.000000 0.000000 0.000000 0.000000 0.000000 0.130329
#
#
# Mechanical properties :
#
#
# Convention : Reuss Voigt Hill
#
# Bulk Modulus (GPa) = 32.11517 35.32636 33.72077
# Shear Modulus (GPa) = 22.70628 9.72609 16.21618
#
# Velocity S-wave (km/s) = 3.19577 2.09157 2.70070
# Velocity P-wave (km/s) = 5.29737 4.66070 4.98920
#
# Compressibility (1/GPa) = 0.03113793
#
# Stress axis : x y z
#
# Youngs Moduli (GPa) = 80.96857 41.37587 84.04072
#
# Poissons Ratio (x) = 0.11967 0.12920
# Poissons Ratio (y) = 0.23418 0.35385
# Poissons Ratio (z) = 0.12448 0.17421
#
# Static dielectric constant tensor:
#      x y z
#    x 1.826380 0.000000 0.000000 
#    y 0.000000 1.928360 0.000000 
#    z 0.000000 0.000000 1.860400 
# 
# From -- ./inp_files/3582.got.cif
#   From: 2010.05.17/outbox.cif.g08.bks.cpg/sg62_2_cif.got.tgz:3582.got - 2010.06.03 15:25:27.
