data_PCOD9466710
_publ_section_title
;
Structure prediction by ZEFSAII (Michael W. Deem and Ramdas Pophale) SiO2 
 PCOD9466710
Probable space group: P N M A
;
_chemical_formula_sum "Si O2"
_cell_formula_units_Z 48
_cell_length_a 8.423843
_cell_length_b 23.853473
_cell_length_c 11.184387
_cell_angle_alpha 90.000000
_cell_angle_beta 90.000000
_cell_angle_gamma 90.000000
_cell_volume 2247.367366
_symmetry_space_group_name_H-M "P N M A"
_symmetry_group_IT_number 62
_symmetry_cell_setting 'orthorhombic'
loop_
_space_group_symop_operation_xyz
x,y,z
1/2-x,-y,1/2+z
1/2+x,1/2-y,1/2-z
-x,1/2+y,-z
-x,-y,-z
1/2+x,y,1/2-z
1/2-x,1/2+y,1/2+z
x,1/2-y,z
loop_
_atom_site_type_symbol
_atom_site_label
_atom_site_fract_x
_atom_site_fract_y
_atom_site_fract_z
Si Si1 0.592631 0.010978 0.188466
Si Si2 0.959948 0.685489 0.816102
Si Si3 0.889833 0.424084 0.115028
Si Si4 0.371568 0.416967 0.640267
Si Si5 0.473765 0.895270 0.123972
Si Si6 0.885244 0.184851 0.429657
O O1 0.478728 0.047470 0.272907
O O2 0.713461 0.051180 0.121502
O O3 0.683834 0.971667 0.285429
O O4 0.514732 0.961600 0.109360
O O5 0.996847 0.750000 0.845546
O O6 0.784499 0.672558 0.866201
O O7 0.083665 0.641813 0.870173
O O8 0.981579 0.680023 0.673602
O O9 0.955463 0.435472 0.981633
O O10 0.481193 0.385728 0.736214
O O11 0.212075 0.384348 0.608413
O O12 0.576567 0.857737 0.035472
O O13 0.880866 0.250000 0.469047
#
# Coordination Sequence:
#
# PCOD9466710 Si02
#       6
#     8   8   8   8   8   8
#     4  10  22  41  62  98 132 171 216 267 322 394
#     4  10  24  43  66  98 129 168 220 272 321 380
#     4  12  23  39  67  98 130 177 218 264 337 386
#     4  10  24  42  63  94 135 172 215 266 328 389
#     4  10  23  45  63  94 132 172 213 278 316 392
#     4  10  23  45  70  94 130 171 216 272 326 386
#
# _framework density 21.358324
#
# number of rings (size 3 to 8) (size 9 to 14) (size 15 to 20)
#    1.000    0.667    1.667    1.500    7.000    3.333 
#    0.000    1.667    0.000    0.000    0.000    0.000 
#    0.000    0.000    0.000    0.000    0.000    0.000 
#
# Total GULP energy -267692.439449 kJ/mol
# GULP energy per Si atom -5576.925822 kJ/mol
# Density = 2.130971 g / cm^3
# Si number density = 21.358324 Si / 1000 Ang^3
#
#
#
# Elastic Constant Matrix: (Units=GPa)
#
#
# Indices 1 2 3 4 5 6 
#
# 1 50.6418 34.3666 7.1406 0.0000 0.0000 0.0000
# 2 34.3666 82.4083 45.5899 0.0000 0.0000 0.0000
# 3 7.1406 45.5899 92.8270 0.0000 0.0000 0.0000
# 4 0.0000 0.0000 0.0000 31.2441 0.0000 0.0000
# 5 0.0000 0.0000 0.0000 0.0000 32.4299 0.0000
# 6 0.0000 0.0000 0.0000 0.0000 0.0000 22.4454
#
#
#
# Elastic Compliance Matrix: (Units=1/GPa)
#
#
# Indices 1 2 3 4 5 6 
#
# 1 0.029218 -0.015023 0.005131 0.000000 0.000000 0.000000
# 2 -0.015023 0.024386 -0.010821 0.000000 0.000000 0.000000
# 3 0.005131 -0.010821 0.015693 0.000000 0.000000 0.000000
# 4 0.000000 0.000000 0.000000 0.032006 0.000000 0.000000
# 5 0.000000 0.000000 0.000000 0.000000 0.030836 0.000000
# 6 0.000000 0.000000 0.000000 0.000000 0.000000 0.044553
#
#
# Mechanical properties :
#
#
# Convention : Reuss Voigt Hill
#
# Bulk Modulus (GPa) = 35.88111 44.45239 40.16675
# Shear Modulus (GPa) = 21.98686 26.47588 24.23137
#
# Velocity S-wave (km/s) = 3.21195 3.52462 3.37191
# Velocity P-wave (km/s) = 5.53096 6.11734 5.83152
#
# Compressibility (1/GPa) = 0.02786982
#
# Stress axis : x y z
#
# Youngs Moduli (GPa) = 34.22529 41.00665 63.72426
#
# Poissons Ratio (x) = 0.61605 -0.32695
# Poissons Ratio (y) = 0.51417 0.68957
# Poissons Ratio (z) = -0.17560 0.44374
#
# Static dielectric constant tensor:
#      x y z
#    x 1.790080 0.000000 0.000000 
#    y 0.000000 1.773290 0.000000 
#    z 0.000000 0.000000 1.816780 
# 
# From -- ./inp_files/11323.got.cif
#   From: 2010.05.17/outbox.cif.g08.bks.cpg/sg62_6_cif.got.tgz:11323.got - 2010.06.03 15:25:27.
