data_PCOD9466683
_publ_section_title
;
Structure prediction by ZEFSAII (Michael W. Deem and Ramdas Pophale) SiO2 
 PCOD9466683
Probable space group: P N M A
;
_chemical_formula_sum "Si O2"
_cell_formula_units_Z 60
_cell_length_a 27.922739
_cell_length_b 9.993275
_cell_length_c 10.763449
_cell_angle_alpha 90.000000
_cell_angle_beta 90.000000
_cell_angle_gamma 90.000000
_cell_volume 3003.428607
_symmetry_space_group_name_H-M "P N M A"
_symmetry_group_IT_number 62
_symmetry_cell_setting 'orthorhombic'
loop_
_space_group_symop_operation_xyz
x,y,z
1/2-x,-y,1/2+z
1/2+x,1/2-y,1/2-z
-x,1/2+y,-z
-x,-y,-z
1/2+x,y,1/2-z
1/2-x,1/2+y,1/2+z
x,1/2-y,z
loop_
_atom_site_type_symbol
_atom_site_label
_atom_site_fract_x
_atom_site_fract_y
_atom_site_fract_z
Si Si1 0.783927 0.028105 0.611350
Si Si2 0.310717 0.391491 0.365431
Si Si3 0.017409 0.093130 0.889863
Si Si4 0.116562 0.402664 0.765835
Si Si5 0.668133 0.980483 0.364283
Si Si6 0.220869 0.250000 0.042349
Si Si7 0.116585 0.094466 0.475346
Si Si8 0.074242 0.908347 0.275844
O O1 0.745643 0.912945 0.641840
O O2 0.802412 0.076511 0.746119
O O3 0.830210 0.965710 0.544733
O O4 0.755167 0.133489 0.526936
O O5 0.324518 0.250000 0.308869
O O6 0.337984 0.508730 0.296327
O O7 0.324798 0.399581 0.509360
O O8 0.018493 0.250000 0.926457
O O9 0.070246 0.055182 0.843559
O O10 0.978713 0.081430 0.779707
O O11 0.000000 0.000000 0.000000
O O12 0.128639 0.250000 0.800583
O O13 0.105018 0.407882 0.620747
O O14 0.687135 0.129611 0.395819
O O15 0.613038 0.967704 0.321650
O O16 0.115161 0.250000 0.433707
O O17 0.082072 0.998245 0.397264
O O18 0.084713 0.750000 0.296465
#
# Coordination Sequence:
#
# PCOD9466683 Si02
#       8
#     8   8   8   8   8   4   8   8
#     4  10  24  39  61  88 127 167 215 260 317 379
#     4  11  24  38  60  89 122 166 212 262 317 381
#     4  10  22  43  67  95 129 165 213 269 334 391
#     4  10  24  43  64  92 130 167 210 272 328 392
#     4  10  23  39  61  88 124 160 214 264 313 380
#     4  10  24  40  60  94 124 172 214 264 326 386
#     4  10  23  42  63  95 131 171 217 265 325 389
#     4  10  22  40  67  95 128 171 215 272 328 391
#
# _framework density 19.977167999999999
#
# number of rings (size 3 to 8) (size 9 to 14) (size 15 to 20)
#    0.000    1.867    0.000    1.600   16.800    3.200 
#    0.000    0.000    0.000    0.000    0.000    0.000 
#    0.000    0.000    0.000    0.000    0.000    0.000 
#
# Total GULP energy -334028.358990 kJ/mol
# GULP energy per Si atom -5567.139317 kJ/mol
# Density = 1.993170 g / cm^3
# Si number density = 19.977168 Si / 1000 Ang^3
#
#
#
# Elastic Constant Matrix: (Units=GPa)
#
#
# Indices 1 2 3 4 5 6 
#
# 1 18.4070 19.6077 -4.7034 0.0000 0.0000 0.0000
# 2 19.6077 112.5698 23.9707 0.0000 0.0000 0.0000
# 3 -4.7034 23.9707 38.7955 0.0000 0.0000 0.0000
# 4 0.0000 0.0000 0.0000 15.4808 0.0000 0.0000
# 5 0.0000 0.0000 0.0000 0.0000 299.9025 0.0000
# 6 0.0000 0.0000 0.0000 0.0000 0.0000 19.7649
#
#
#
# Elastic Compliance Matrix: (Units=1/GPa)
#
#
# Indices 1 2 3 4 5 6 
#
# 1 0.079040 -0.018203 0.020829 0.000000 0.000000 0.000000
# 2 -0.018203 0.014421 -0.011117 0.000000 0.000000 0.000000
# 3 0.020829 -0.011117 0.035171 0.000000 0.000000 0.000000
# 4 0.000000 0.000000 0.000000 0.064596 0.000000 0.000000
# 5 0.000000 0.000000 0.000000 0.000000 0.003334 0.000000
# 6 0.000000 0.000000 0.000000 0.000000 0.000000 0.050595
#
#
# Mechanical properties :
#
#
# Convention : Reuss Voigt Hill
#
# Bulk Modulus (GPa) = 8.95654 27.50245 18.22950
# Shear Modulus (GPa) = 16.59173 75.75613 46.17393
#
# Velocity S-wave (km/s) = 2.88503 6.16471 4.81285
# Velocity P-wave (km/s) = 3.94854 8.02922 6.32690
#
# Compressibility (1/GPa) = 0.11165028
#
# Stress axis : x y z
#
# Youngs Moduli (GPa) = 12.65188 69.34177 28.43282
#
# Poissons Ratio (x) = 1.26221 -0.59224
# Poissons Ratio (y) = 0.23030 0.31610
# Poissons Ratio (z) = -0.26353 0.77090
#
# Static dielectric constant tensor:
#      x y z
#    x 1.694400 0.000000 0.000000 
#    y 0.000000 1.795740 0.000000 
#    z 0.000000 0.000000 1.724990 
# 
# From -- ./inp_files/15517.got.cif
#   From: 2010.05.17/outbox.cif.g08.bks.cpg/sg62_8_cif.got.tgz:15517.got - 2010.06.03 15:25:27.
