data_PCOD9466810
_publ_section_title
;
Structure prediction by ZEFSAII (Michael W. Deem and Ramdas Pophale) SiO2 
 PCOD9466810
Probable space group: P N M A
;
_chemical_formula_sum "Si O2"
_cell_formula_units_Z 32
_cell_length_a 11.221330
_cell_length_b 10.210602
_cell_length_c 11.994103
_cell_angle_alpha 90.000000
_cell_angle_beta 90.000000
_cell_angle_gamma 90.000000
_cell_volume 1374.242757
_symmetry_space_group_name_H-M "P N M A"
_symmetry_group_IT_number 62
_symmetry_cell_setting 'orthorhombic'
loop_
_space_group_symop_operation_xyz
x,y,z
1/2-x,-y,1/2+z
1/2+x,1/2-y,1/2-z
-x,1/2+y,-z
-x,-y,-z
1/2+x,y,1/2-z
1/2-x,1/2+y,1/2+z
x,1/2-y,z
loop_
_atom_site_type_symbol
_atom_site_label
_atom_site_fract_x
_atom_site_fract_y
_atom_site_fract_z
Si Si1 0.528845 0.597533 0.835424
Si Si2 0.104565 0.971179 0.913106
Si Si3 0.676790 0.607250 0.169853
Si Si4 0.782585 0.609736 0.409407
O O1 0.520369 0.750000 0.866250
O O2 0.557726 0.588356 0.702606
O O3 0.410442 0.512619 0.857035
O O4 0.633321 0.516675 0.897232
O O5 0.189274 0.092057 0.877462
O O6 0.200758 0.889271 0.982359
O O7 0.000000 0.000000 0.000000
O O8 0.629235 0.750000 0.138059
O O9 0.695016 0.602805 0.303024
O O10 0.847490 0.750000 0.400557
#
# Coordination Sequence:
#
# PCOD9466810 Si02
#       4
#     8   8   8   8
#     4  11  24  43  68 100 137 172 220 281 333 388
#     4  11  23  44  69 103 130 174 224 277 328 395
#     4  10  23  42  67  99 135 176 220 272 335 398
#     4  10  22  42  67  96 134 177 223 273 332 398
#
# _framework density 23.285551999999999
#
# number of rings (size 3 to 8) (size 9 to 14) (size 15 to 20)
#    0.000    1.500    2.500    1.500    0.000   10.000 
#    0.000    0.000    0.000    0.000    0.000    0.000 
#    0.000    0.000    0.000    0.000    0.000    0.000 
#
# Total GULP energy -178751.604864 kJ/mol
# GULP energy per Si atom -5585.987652 kJ/mol
# Density = 2.323255 g / cm^3
# Si number density = 23.285552 Si / 1000 Ang^3
#
#
#
# Elastic Constant Matrix: (Units=GPa)
#
#
# Indices 1 2 3 4 5 6 
#
# 1 116.9657 75.6844 34.9161 0.0000 0.0000 0.0000
# 2 75.6844 233.6653 25.8935 0.0000 0.0000 0.0000
# 3 34.9161 25.8935 128.8833 0.0000 0.0000 0.0000
# 4 0.0000 0.0000 0.0000 -10.2081 0.0000 0.0000
# 5 0.0000 0.0000 0.0000 0.0000 52.3193 0.0000
# 6 0.0000 0.0000 0.0000 0.0000 0.0000 26.7994
#
#
#
# Elastic Compliance Matrix: (Units=1/GPa)
#
#
# Indices 1 2 3 4 5 6 
#
# 1 0.011512 -0.003460 -0.002424 0.000000 0.000000 0.000000
# 2 -0.003460 0.005417 -0.000151 0.000000 0.000000 0.000000
# 3 -0.002424 -0.000151 0.008446 0.000000 0.000000 0.000000
# 4 0.000000 0.000000 0.000000 -0.097961 0.000000 0.000000
# 5 0.000000 0.000000 0.000000 0.000000 0.019113 0.000000
# 6 0.000000 0.000000 0.000000 0.000000 0.000000 0.037314
#
#
# Mechanical properties :
#
#
# Convention : Reuss Voigt Hill
#
# Bulk Modulus (GPa) = 75.15639 83.61137 79.38388
# Shear Modulus (GPa) = 14451.82551 36.65014 7244.23783
#
# Velocity S-wave (km/s) = 78.86585 3.97160 55.83724
# Velocity P-wave (km/s) = 91.24386 7.55092 64.73970
#
# Compressibility (1/GPa) = 0.01330559
#
# Stress axis : x y z
#
# Youngs Moduli (GPa) = 86.86636 184.60063 118.40126
#
# Poissons Ratio (x) = 0.63875 0.28695
# Poissons Ratio (y) = 0.30057 0.01787
# Poissons Ratio (z) = 0.21053 0.02786
#
# Static dielectric constant tensor:
#      x y z
#    x 1.860160 0.000000 0.000000 
#    y 0.000000 1.872900 0.000000 
#    z 0.000000 0.000000 1.899010 
# 
# From -- ./inp_files/17627.got.cif
#   From: 2010.05.17/outbox.cif.g08.bks.cpg/sg62_9_cif.got.tgz:17627.got - 2010.06.03 15:25:27.
