data_PCOD9466048
_publ_section_title
;
Structure prediction by ZEFSAII (Michael W. Deem and Ramdas Pophale) SiO2 
 PCOD9466048
Probable space group: P N M A
;
_chemical_formula_sum "Si O2"
_cell_formula_units_Z 64
_cell_length_a 22.963958
_cell_length_b 13.766832
_cell_length_c 9.655140
_cell_angle_alpha 90.000000
_cell_angle_beta 90.000000
_cell_angle_gamma 90.000000
_cell_volume 3052.385150
_symmetry_space_group_name_H-M "P N M A"
_symmetry_group_IT_number 62
_symmetry_cell_setting 'orthorhombic'
loop_
_space_group_symop_operation_xyz
x,y,z
1/2-x,-y,1/2+z
1/2+x,1/2-y,1/2-z
-x,1/2+y,-z
-x,-y,-z
1/2+x,y,1/2-z
1/2-x,1/2+y,1/2+z
x,1/2-y,z
loop_
_atom_site_type_symbol
_atom_site_label
_atom_site_fract_x
_atom_site_fract_y
_atom_site_fract_z
Si Si1 0.607014 0.638408 0.660087
Si Si2 0.706419 0.368864 0.091885
Si Si3 0.685174 0.867936 0.409331
Si Si4 0.520667 0.866252 0.099589
Si Si5 0.425552 0.866907 0.865834
Si Si6 0.721723 0.861817 0.848858
Si Si7 0.153670 0.631520 0.399698
Si Si8 0.996202 0.514082 0.835139
O O1 0.586724 0.750000 0.643980
O O2 0.634995 0.601678 0.516495
O O3 0.660654 0.639963 0.765833
O O4 0.554329 0.572479 0.705578
O O5 0.708704 0.250000 0.094844
O O6 0.638842 0.394568 0.081580
O O7 0.732332 0.403090 0.239906
O O8 0.751995 0.396057 0.971060
O O9 0.684038 0.750000 0.412441
O O10 0.669306 0.897486 0.255488
O O11 0.519076 0.750000 0.113776
O O12 0.587253 0.894281 0.063570
O O13 0.506356 0.915918 0.245969
O O14 0.474294 0.892356 0.980869
O O15 0.426955 0.750000 0.846391
O O16 0.443199 0.920887 0.724310
O O17 0.740221 0.750000 0.873932
O O18 0.703132 0.904992 0.995491
O O19 0.155257 0.750000 0.406463
O O20 0.000000 0.500000 0.000000
#
# Coordination Sequence:
#
# PCOD9466048 Si02
#       8
#     8   8   8   8   8   8   8   8
#     4   9  17  32  54  80 109 143 185 227 273 332
#     4   8  15  30  52  79 109 144 183 220 273 346
#     4   8  14  26  49  78 108 143 183 230 278 326
#     4  10  22  39  59  84 115 153 196 241 285 339
#     4  10  21  39  61  83 115 157 192 226 283 357
#     4   8  14  26  50  80 106 137 181 230 274 325
#     4   9  15  26  48  78 106 134 181 241 287 317
#     4  12  24  36  56  84 116 149 188 239 290 338
#
# _framework density 20.967210000000001
#
# number of rings (size 3 to 8) (size 9 to 14) (size 15 to 20)
#    0.000    2.750    0.000    3.750    0.000    4.000 
#    0.000    1.250    0.000   18.000    0.000    0.000 
#    0.000    0.000    0.000    0.000    0.000    0.000 
#
# Total GULP energy -357362.463349 kJ/mol
# GULP energy per Si atom -5583.788490 kJ/mol
# Density = 2.091949 g / cm^3
# Si number density = 20.967210 Si / 1000 Ang^3
#
#
#
# Elastic Constant Matrix: (Units=GPa)
#
#
# Indices 1 2 3 4 5 6 
#
# 1 131.8887 29.9568 39.8976 0.0000 0.0000 0.0000
# 2 29.9568 60.8531 3.6115 0.0000 0.0000 0.0000
# 3 39.8976 3.6115 122.3734 0.0000 0.0000 0.0000
# 4 0.0000 0.0000 0.0000 18.4691 0.0000 0.0000
# 5 0.0000 0.0000 0.0000 0.0000 14.2374 0.0000
# 6 0.0000 0.0000 0.0000 0.0000 0.0000 23.3216
#
#
#
# Elastic Compliance Matrix: (Units=1/GPa)
#
#
# Indices 1 2 3 4 5 6 
#
# 1 0.009502 -0.004501 -0.002965 0.000000 0.000000 0.000000
# 2 -0.004501 0.018594 0.000919 0.000000 0.000000 0.000000
# 3 -0.002965 0.000919 0.009111 0.000000 0.000000 0.000000
# 4 0.000000 0.000000 0.000000 0.054144 0.000000 0.000000
# 5 0.000000 0.000000 0.000000 0.000000 0.070238 0.000000
# 6 0.000000 0.000000 0.000000 0.000000 0.000000 0.042879
#
#
# Mechanical properties :
#
#
# Convention : Reuss Voigt Hill
#
# Bulk Modulus (GPa) = 41.47288 51.33855 46.40572
# Shear Modulus (GPa) = 22.16308 27.31558 24.73933
#
# Velocity S-wave (km/s) = 3.25474 3.61331 3.43870
# Velocity P-wave (km/s) = 5.82642 6.47660 6.16010
#
# Compressibility (1/GPa) = 0.02411214
#
# Stress axis : x y z
#
# Youngs Moduli (GPa) = 105.24625 53.77944 109.75434
#
# Poissons Ratio (x) = 0.24209 0.32542
# Poissons Ratio (y) = 0.47376 -0.10085
# Poissons Ratio (z) = 0.31205 -0.04942
#
# Static dielectric constant tensor:
#      x y z
#    x 1.765330 0.000000 0.000000 
#    y 0.000000 1.787260 0.000000 
#    z 0.000000 0.000000 1.754520 
# 
# From -- ./inp_files/9487.got.cif
#   From: 2010.05.17/outbox.cif.g08.bks.cpg/sg62_5_cif.got.tgz:9487.got - 2010.06.03 15:25:27.
