data_PCOD9466313
_publ_section_title
;
Structure prediction by ZEFSAII (Michael W. Deem and Ramdas Pophale) SiO2 
 PCOD9466313
Probable space group: P N M A
;
_chemical_formula_sum "Si O2"
_cell_formula_units_Z 60
_cell_length_a 13.972788
_cell_length_b 9.338369
_cell_length_c 21.237652
_cell_angle_alpha 90.000000
_cell_angle_beta 90.000000
_cell_angle_gamma 90.000000
_cell_volume 2771.153614
_symmetry_space_group_name_H-M "P N M A"
_symmetry_group_IT_number 62
_symmetry_cell_setting 'orthorhombic'
loop_
_space_group_symop_operation_xyz
x,y,z
1/2-x,-y,1/2+z
1/2+x,1/2-y,1/2-z
-x,1/2+y,-z
-x,-y,-z
1/2+x,y,1/2-z
1/2-x,1/2+y,1/2+z
x,1/2-y,z
loop_
_atom_site_type_symbol
_atom_site_label
_atom_site_fract_x
_atom_site_fract_y
_atom_site_fract_z
Si Si1 0.252985 0.079924 0.750284
Si Si2 0.108308 0.591252 0.679185
Si Si3 0.554790 0.417064 0.285049
Si Si4 0.754725 0.413636 0.124739
Si Si5 0.050031 0.586149 0.089664
Si Si6 0.648820 0.413987 0.513489
Si Si7 0.999612 0.750000 0.469762
Si Si8 0.950232 0.956449 0.579648
O O1 0.255477 0.250000 0.757027
O O2 0.185380 0.030284 0.692832
O O3 0.355944 0.011144 0.737640
O O4 0.215771 0.003599 0.813995
O O5 0.152788 0.750000 0.683555
O O6 0.028723 0.577965 0.733647
O O7 0.049962 0.579840 0.614443
O O8 0.580983 0.250000 0.293903
O O9 0.524754 0.490283 0.350317
O O10 0.791498 0.250000 0.127046
O O11 0.787289 0.496370 0.062030
O O12 0.639492 0.409073 0.121544
O O13 0.077519 0.750000 0.106162
O O14 0.955375 0.595050 0.046635
O O15 0.131670 0.503628 0.050150
O O16 0.682402 0.250000 0.502942
O O17 0.947776 0.872914 0.514065
O O18 0.053112 0.624350 0.430061
#
# Coordination Sequence:
#
# PCOD9466313 Si02
#       8
#     8   8   8   8   8   8   4   8
#     4  12  27  42  64 100 132 169 223 272 333 401
#     4  11  23  44  70  95 132 177 218 277 338 400
#     4  11  23  42  67  94 128 171 216 268 333 392
#     4  12  23  42  67  97 131 171 223 275 324 399
#     4  10  21  41  62  91 131 170 213 269 330 392
#     4  10  22  39  64  95 128 168 218 265 327 393
#     4  10  24  44  68 100 128 174 220 270 322 392
#     4  11  23  45  70  97 133 173 223 273 335 394
#
# _framework density 21.651634999999999
#
# number of rings (size 3 to 8) (size 9 to 14) (size 15 to 20)
#    0.000    1.067    2.667    3.600    2.800    4.800 
#    4.800    0.000    0.000    0.000    0.000    0.000 
#    0.000    0.000    0.000    0.000    0.000    0.000 
#
# Total GULP energy -334449.950293 kJ/mol
# GULP energy per Si atom -5574.165838 kJ/mol
# Density = 2.160235 g / cm^3
# Si number density = 21.651635 Si / 1000 Ang^3
#
#
#
# Elastic Constant Matrix: (Units=GPa)
#
#
# Indices 1 2 3 4 5 6 
#
# 1 32.6834 17.6478 -8.2414 0.0000 0.0000 0.0000
# 2 17.6478 224.9335 14.6922 0.0000 0.0000 0.0000
# 3 -8.2414 14.6922 33.0530 0.0000 0.0000 0.0000
# 4 0.0000 0.0000 0.0000 29.5020 0.0000 0.0000
# 5 0.0000 0.0000 0.0000 0.0000 29.7142 0.0000
# 6 0.0000 0.0000 0.0000 0.0000 0.0000 25.1507
#
#
#
# Elastic Compliance Matrix: (Units=1/GPa)
#
#
# Indices 1 2 3 4 5 6 
#
# 1 0.035027 -0.003418 0.010253 0.000000 0.000000 0.000000
# 2 -0.003418 0.004912 -0.003036 0.000000 0.000000 0.000000
# 3 0.010253 -0.003036 0.034160 0.000000 0.000000 0.000000
# 4 0.000000 0.000000 0.000000 0.033896 0.000000 0.000000
# 5 0.000000 0.000000 0.000000 0.000000 0.033654 0.000000
# 6 0.000000 0.000000 0.000000 0.000000 0.000000 0.039760
#
#
# Mechanical properties :
#
#
# Convention : Reuss Voigt Hill
#
# Bulk Modulus (GPa) = 12.24011 37.65192 24.94601
# Shear Modulus (GPa) = 24.87014 34.64481 29.75747
#
# Velocity S-wave (km/s) = 3.39285 4.00447 3.71128
# Velocity P-wave (km/s) = 4.58411 6.22966 5.46913
#
# Compressibility (1/GPa) = 0.08169861
#
# Stress axis : x y z
#
# Youngs Moduli (GPa) = 28.54902 203.57455 29.27379
#
# Poissons Ratio (x) = 0.69579 -0.30014
# Poissons Ratio (y) = 0.09758 0.08887
# Poissons Ratio (z) = -0.29271 0.61799
#
# Static dielectric constant tensor:
#      x y z
#    x 1.812720 0.000000 0.000000 
#    y 0.000000 1.778020 0.000000 
#    z 0.000000 0.000000 1.847890 
# 
# From -- ./inp_files/29695.got.cif
#   From: 2010.05.17/outbox.cif.g08.bks.cpg/sg62_15_cif.got.tgz:29695.got - 2010.06.03 15:25:27.
