data_PCOD9466676
_publ_section_title
;
Structure prediction by ZEFSAII (Michael W. Deem and Ramdas Pophale) SiO2 
 PCOD9466676
Probable space group: P N M A
;
_chemical_formula_sum "Si O2"
_cell_formula_units_Z 48
_cell_length_a 9.072071
_cell_length_b 13.551659
_cell_length_c 18.085516
_cell_angle_alpha 90.000000
_cell_angle_beta 90.000000
_cell_angle_gamma 90.000000
_cell_volume 2223.462502
_symmetry_space_group_name_H-M "P N M A"
_symmetry_group_IT_number 62
_symmetry_cell_setting 'orthorhombic'
loop_
_space_group_symop_operation_xyz
x,y,z
1/2-x,-y,1/2+z
1/2+x,1/2-y,1/2-z
-x,1/2+y,-z
-x,-y,-z
1/2+x,y,1/2-z
1/2-x,1/2+y,1/2+z
x,1/2-y,z
loop_
_atom_site_type_symbol
_atom_site_label
_atom_site_fract_x
_atom_site_fract_y
_atom_site_fract_z
Si Si1 0.089817 0.867092 0.993705
Si Si2 0.172434 0.867530 0.160158
Si Si3 0.755905 0.134799 0.479003
Si Si4 0.573658 0.633939 0.831491
Si Si5 0.807792 0.508290 0.600765
Si Si6 0.384369 0.540171 0.268077
O O1 0.104530 0.750000 0.983907
O O2 0.156961 0.892706 0.073805
O O3 0.916000 0.889224 0.991577
O O4 0.179910 0.922106 0.931247
O O5 0.153465 0.750000 0.167420
O O6 0.325052 0.900999 0.196856
O O7 0.040219 0.922308 0.202755
O O8 0.779496 0.250000 0.498043
O O9 0.798900 0.123970 0.393367
O O10 0.848164 0.065343 0.533921
O O11 0.545868 0.750000 0.819453
O O12 0.436195 0.576500 0.867691
O O13 0.610999 0.573761 0.757562
O O14 0.733959 0.446591 0.666808
#
# Coordination Sequence:
#
# PCOD9466676 Si02
#       6
#     8   8   8   8   8   8
#     4  10  22  40  67  97 125 170 220 269 325 386
#     4  11  24  45  68  97 133 167 217 269 328 396
#     4  10  22  40  66  95 128 169 217 274 325 383
#     4  11  26  45  63  95 137 176 221 268 325 393
#     4  12  23  41  68  94 134 169 220 270 327 392
#     4  12  25  43  66  99 129 176 215 266 332 384
#
# _framework density 21.587951
#
# number of rings (size 3 to 8) (size 9 to 14) (size 15 to 20)
#    0.000    1.000    3.333    3.000    2.333    2.000 
#    0.000    1.667    0.000    0.000    0.000    0.000 
#    0.000    0.000    0.000    0.000    0.000    0.000 
#
# Total GULP energy -268624.530247 kJ/mol
# GULP energy per Si atom -5596.344380 kJ/mol
# Density = 2.153882 g / cm^3
# Si number density = 21.587951 Si / 1000 Ang^3
#
#
#
# Elastic Constant Matrix: (Units=GPa)
#
#
# Indices 1 2 3 4 5 6 
#
# 1 22.5490 -5.1607 0.9633 0.0000 0.0000 0.0000
# 2 -5.1607 70.0487 11.0421 0.0000 0.0000 0.0000
# 3 0.9633 11.0421 59.5225 0.0000 0.0000 0.0000
# 4 0.0000 0.0000 0.0000 40.0228 0.0000 0.0000
# 5 0.0000 0.0000 0.0000 0.0000 33.6877 0.0000
# 6 0.0000 0.0000 0.0000 0.0000 0.0000 33.7280
#
#
#
# Elastic Compliance Matrix: (Units=1/GPa)
#
#
# Indices 1 2 3 4 5 6 
#
# 1 0.045220 0.003551 -0.001391 0.000000 0.000000 0.000000
# 2 0.003551 0.014985 -0.002837 0.000000 0.000000 0.000000
# 3 -0.001391 -0.002837 0.017349 0.000000 0.000000 0.000000
# 4 0.000000 0.000000 0.000000 0.024986 0.000000 0.000000
# 5 0.000000 0.000000 0.000000 0.000000 0.029684 0.000000
# 6 0.000000 0.000000 0.000000 0.000000 0.000000 0.029649
#
#
# Mechanical properties :
#
#
# Convention : Reuss Voigt Hill
#
# Bulk Modulus (GPa) = 13.12344 18.42330 15.77337
# Shear Modulus (GPa) = 26.50733 31.17273 28.84003
#
# Velocity S-wave (km/s) = 3.50791 3.80411 3.65901
# Velocity P-wave (km/s) = 4.74336 5.27708 5.01732
#
# Compressibility (1/GPa) = 0.07619952
#
# Stress axis : x y z
#
# Youngs Moduli (GPa) = 22.11414 66.73501 57.63948
#
# Poissons Ratio (x) = -0.23696 0.08015
# Poissons Ratio (y) = -0.07852 0.16354
# Poissons Ratio (z) = 0.03075 0.18935
#
# Static dielectric constant tensor:
#      x y z
#    x 1.768080 0.000000 0.000000 
#    y 0.000000 1.787560 0.000000 
#    z 0.000000 0.000000 1.763770 
# 
# From -- ./inp_files/22203.got.cif
#   From: 2010.05.17/outbox.cif.g08.bks.cpg/sg62_12_cif.got.tgz:22203.got - 2010.06.03 15:25:27.
