data_PCOD9466713
_publ_section_title
;
Structure prediction by ZEFSAII (Michael W. Deem and Ramdas Pophale) SiO2 
 PCOD9466713
Probable space group: P N M A
;
_chemical_formula_sum "Si O2"
_cell_formula_units_Z 56
_cell_length_a 20.218909
_cell_length_b 9.065785
_cell_length_c 15.000441
_cell_angle_alpha 90.000000
_cell_angle_beta 90.000000
_cell_angle_gamma 90.000000
_cell_volume 2749.585064
_symmetry_space_group_name_H-M "P N M A"
_symmetry_group_IT_number 62
_symmetry_cell_setting 'orthorhombic'
loop_
_space_group_symop_operation_xyz
x,y,z
1/2-x,-y,1/2+z
1/2+x,1/2-y,1/2-z
-x,1/2+y,-z
-x,-y,-z
1/2+x,y,1/2-z
1/2-x,1/2+y,1/2+z
x,1/2-y,z
loop_
_atom_site_type_symbol
_atom_site_label
_atom_site_fract_x
_atom_site_fract_y
_atom_site_fract_z
Si Si1 0.415934 0.924133 0.649767
Si Si2 0.814447 0.080423 0.975867
Si Si3 0.320502 0.925413 0.817009
Si Si4 0.322431 0.425876 0.008713
Si Si5 0.047574 0.423908 0.571029
Si Si6 0.961411 0.921559 0.225764
Si Si7 0.827678 0.081658 0.190005
O O1 0.416213 0.750000 0.631879
O O2 0.374381 0.949877 0.740947
O O3 0.376605 0.009474 0.573305
O O4 0.489428 0.983690 0.665484
O O5 0.804957 0.250000 0.947650
O O6 0.824841 0.080123 0.082336
O O7 0.748278 0.986516 0.959111
O O8 0.320109 0.750000 0.840435
O O9 0.246659 0.959470 0.780952
O O10 0.331639 0.017789 0.906671
O O11 0.324583 0.250000 0.012670
O O12 0.381604 0.497808 0.064120
O O13 0.054466 0.250000 0.551764
O O14 0.019600 0.439996 0.670521
O O15 0.000000 0.500000 0.500000
O O16 0.966876 0.750000 0.202219
O O17 0.886213 0.975433 0.218121
O O18 0.841398 0.250000 0.219714
#
# Coordination Sequence:
#
# PCOD9466713 Si02
#       7
#     8   8   8   8   8   8   8
#     4  11  23  39  62  91 121 159 203 250 305 367
#     4  10  22  41  63  89 121 157 200 254 306 358
#     4   9  20  39  62  89 122 157 199 252 305 360
#     4  11  22  37  61  91 121 159 203 247 301 365
#     4  11  24  41  61  89 124 163 204 251 307 365
#     4  11  25  41  59  88 122 160 204 250 304 364
#     4   9  20  40  63  87 118 157 199 250 307 360
#
# _framework density 20.366709
#
# number of rings (size 3 to 8) (size 9 to 14) (size 15 to 20)
#    0.000    1.714    0.000    4.714    2.000    9.143 
#    0.000    0.000    0.000    0.000    0.000    0.000 
#    0.000    0.000    0.000    0.000    0.000    0.000 
#
# Total GULP energy -313200.173462 kJ/mol
# GULP energy per Si atom -5592.860240 kJ/mol
# Density = 2.032035 g / cm^3
# Si number density = 20.366709 Si / 1000 Ang^3
#
#
#
# Elastic Constant Matrix: (Units=GPa)
#
#
# Indices 1 2 3 4 5 6 
#
# 1 65.2977 23.1076 1.1785 0.0000 0.0000 0.0000
# 2 23.1076 92.9987 18.2495 0.0000 0.0000 0.0000
# 3 1.1785 18.2495 16.3078 0.0000 0.0000 0.0000
# 4 0.0000 0.0000 0.0000 27.3332 0.0000 0.0000
# 5 0.0000 0.0000 0.0000 0.0000 26.6872 0.0000
# 6 0.0000 0.0000 0.0000 0.0000 0.0000 34.7193
#
#
#
# Elastic Compliance Matrix: (Units=1/GPa)
#
#
# Indices 1 2 3 4 5 6 
#
# 1 0.017044 -0.005117 0.004495 0.000000 0.000000 0.000000
# 2 -0.005117 0.015315 -0.016769 0.000000 0.000000 0.000000
# 3 0.004495 -0.016769 0.079761 0.000000 0.000000 0.000000
# 4 0.000000 0.000000 0.000000 0.036586 0.000000 0.000000
# 5 0.000000 0.000000 0.000000 0.000000 0.037471 0.000000
# 6 0.000000 0.000000 0.000000 0.000000 0.000000 0.028802
#
#
# Mechanical properties :
#
#
# Convention : Reuss Voigt Hill
#
# Bulk Modulus (GPa) = 12.93027 28.85280 20.89154
# Shear Modulus (GPa) = 18.14618 26.55252 22.34935
#
# Velocity S-wave (km/s) = 2.98815 3.61463 3.31622
# Velocity P-wave (km/s) = 4.27410 5.62300 4.99430
#
# Compressibility (1/GPa) = 0.07733788
#
# Stress axis : x y z
#
# Youngs Moduli (GPa) = 58.67116 65.29624 12.53749
#
# Poissons Ratio (x) = 0.33412 -0.05635
# Poissons Ratio (y) = 0.30022 0.21024
# Poissons Ratio (z) = -0.26370 1.09492
#
# Static dielectric constant tensor:
#      x y z
#    x 1.714600 0.000000 0.000000 
#    y 0.000000 1.708410 0.000000 
#    z 0.000000 0.000000 1.727680 
# 
# From -- ./inp_files/20415.got.cif
#   From: 2010.05.17/outbox.cif.g08.bks.cpg/sg62_11_cif.got.tgz:20415.got - 2010.06.03 15:25:27.
