data_PCOD9466008
_publ_section_title
;
Structure prediction by ZEFSAII (Michael W. Deem and Ramdas Pophale) SiO2 
 PCOD9466008
Probable space group: P N M A
;
_chemical_formula_sum "Si O2"
_cell_formula_units_Z 60
_cell_length_a 5.344422
_cell_length_b 24.555399
_cell_length_c 18.709029
_cell_angle_alpha 90.000000
_cell_angle_beta 90.000000
_cell_angle_gamma 90.000000
_cell_volume 2455.268469
_symmetry_space_group_name_H-M "P N M A"
_symmetry_group_IT_number 62
_symmetry_cell_setting 'orthorhombic'
loop_
_space_group_symop_operation_xyz
x,y,z
1/2-x,-y,1/2+z
1/2+x,1/2-y,1/2-z
-x,1/2+y,-z
-x,-y,-z
1/2+x,y,1/2-z
1/2-x,1/2+y,1/2+z
x,1/2-y,z
loop_
_atom_site_type_symbol
_atom_site_label
_atom_site_fract_x
_atom_site_fract_y
_atom_site_fract_z
Si Si1 0.702179 0.349481 0.367213
Si Si2 0.381553 0.974991 0.072602
Si Si3 0.424963 0.809409 0.989257
Si Si4 0.668751 0.629373 0.095870
Si Si5 0.530254 0.906487 0.516632
Si Si6 0.592901 0.554808 0.794043
Si Si7 0.994682 0.813494 0.205960
Si Si8 0.944891 0.250000 0.206458
O O1 0.874686 0.318856 0.425905
O O2 0.538506 0.400090 0.400311
O O3 0.882489 0.380806 0.312421
O O4 0.516648 0.304488 0.336496
O O5 0.494892 0.921689 0.113616
O O6 0.128302 0.953741 0.035141
O O7 0.393578 0.020799 0.132527
O O8 0.500000 0.000000 0.000000
O O9 0.310184 0.750000 0.980369
O O10 0.536918 0.815419 0.069712
O O11 0.227163 0.857732 0.989300
O O12 0.898004 0.645058 0.146073
O O13 0.773263 0.608242 0.020727
O O14 0.333139 0.541908 0.754864
O O15 0.777236 0.821818 0.266414
O O16 0.974998 0.750000 0.183813
O O17 0.156768 0.250000 0.269377
#
# Coordination Sequence:
#
# PCOD9466008 Si02
#       8
#     8   8   8   8   8   8   8   4
#     4  11  25  45  71 104 150 193 254 300 368 447
#     4  11  26  49  76 105 142 195 253 313 387 448
#     4  10  21  38  66 104 140 184 237 299 360 428
#     4  10  23  41  64 100 134 177 239 300 367 429
#     4  10  24  41  73 103 138 189 243 315 360 440
#     4  12  30  50  76 110 150 196 252 318 381 454
#     4  10  23  41  65  94 136 186 228 280 354 440
#     4  12  28  46  74 108 154 208 242 298 372 452
#
# _framework density 24.437245000000001
#
# number of rings (size 3 to 8) (size 9 to 14) (size 15 to 20)
#    0.000    1.333    0.667    3.600   12.133    3.200 
#    0.000    0.000    0.000    0.000    0.000    0.000 
#    0.000    0.000    0.000    0.000    0.000    0.000 
#
# Total GULP energy -334726.472351 kJ/mol
# GULP energy per Si atom -5578.774539 kJ/mol
# Density = 2.438162 g / cm^3
# Si number density = 24.437245 Si / 1000 Ang^3
#
#
#
# Elastic Constant Matrix: (Units=GPa)
#
#
# Indices 1 2 3 4 5 6 
#
# 1 44.1408 1.6961 6.6496 0.0000 0.0000 0.0000
# 2 1.6961 66.0190 43.4237 0.0000 0.0000 0.0000
# 3 6.6496 43.4237 85.7102 0.0000 0.0000 0.0000
# 4 0.0000 0.0000 0.0000 33.9496 0.0000 0.0000
# 5 0.0000 0.0000 0.0000 0.0000 41.0781 0.0000
# 6 0.0000 0.0000 0.0000 0.0000 0.0000 26.8167
#
#
#
# Elastic Compliance Matrix: (Units=1/GPa)
#
#
# Indices 1 2 3 4 5 6 
#
# 1 0.022956 0.000872 -0.002223 0.000000 0.000000 0.000000
# 2 0.000872 0.022751 -0.011594 0.000000 0.000000 0.000000
# 3 -0.002223 -0.011594 0.017714 0.000000 0.000000 0.000000
# 4 0.000000 0.000000 0.000000 0.029455 0.000000 0.000000
# 5 0.000000 0.000000 0.000000 0.000000 0.024344 0.000000
# 6 0.000000 0.000000 0.000000 0.000000 0.000000 0.037290
#
#
# Mechanical properties :
#
#
# Convention : Reuss Voigt Hill
#
# Bulk Modulus (GPa) = 26.64445 33.26766 29.95605
# Shear Modulus (GPa) = 25.91893 29.97559 27.94726
#
# Velocity S-wave (km/s) = 3.26027 3.50614 3.38543
# Velocity P-wave (km/s) = 5.00992 5.48030 5.25038
#
# Compressibility (1/GPa) = 0.03753127
#
# Stress axis : x y z
#
# Youngs Moduli (GPa) = 43.56138 43.95487 56.45393
#
# Poissons Ratio (x) = -0.03835 0.12550
# Poissons Ratio (y) = -0.03800 0.65452
# Poissons Ratio (z) = 0.09684 0.50961
#
# Static dielectric constant tensor:
#      x y z
#    x 2.051550 0.000000 0.000000 
#    y 0.000000 2.476760 0.000000 
#    z 0.000000 0.000000 2.047260 
# 
# From -- ./inp_files/25413.got.cif
#   From: 2010.05.17/outbox.cif.g08.bks.cpg/sg62_13_cif.got.tgz:25413.got - 2010.06.03 15:25:27.
