data_PCOD9466800
_publ_section_title
;
Structure prediction by ZEFSAII (Michael W. Deem and Ramdas Pophale) SiO2 
 PCOD9466800
Probable space group: P N M A
;
_chemical_formula_sum "Si O2"
_cell_formula_units_Z 48
_cell_length_a 10.261872
_cell_length_b 8.755092
_cell_length_c 27.595922
_cell_angle_alpha 90.000000
_cell_angle_beta 90.000000
_cell_angle_gamma 90.000000
_cell_volume 2479.317901
_symmetry_space_group_name_H-M "P N M A"
_symmetry_group_IT_number 62
_symmetry_cell_setting 'orthorhombic'
loop_
_space_group_symop_operation_xyz
x,y,z
1/2-x,-y,1/2+z
1/2+x,1/2-y,1/2-z
-x,1/2+y,-z
-x,-y,-z
1/2+x,y,1/2-z
1/2-x,1/2+y,1/2+z
x,1/2-y,z
loop_
_atom_site_type_symbol
_atom_site_label
_atom_site_fract_x
_atom_site_fract_y
_atom_site_fract_z
Si Si1 0.610810 0.432944 0.534404
Si Si2 0.757855 0.569021 0.710423
Si Si3 0.607100 0.432164 0.036094
Si Si4 0.250411 0.566973 0.182696
Si Si5 0.470567 0.432743 0.860330
Si Si6 0.465812 0.932695 0.354982
O O1 0.500000 0.500000 0.500000
O O2 0.616468 0.250000 0.529718
O O3 0.750582 0.504651 0.522790
O O4 0.576133 0.469181 0.590317
O O5 0.775309 0.750000 0.707337
O O6 0.750149 0.515839 0.765772
O O7 0.876877 0.486308 0.683010
O O8 0.626997 0.519104 0.682451
O O9 0.606586 0.250000 0.033687
O O10 0.574588 0.487536 0.090397
O O11 0.500000 0.500000 0.000000
O O12 0.253230 0.750000 0.191321
O O13 0.380483 0.528734 0.152927
O O14 0.116924 0.531434 0.154628
O O15 0.459084 0.250000 0.866230
O O16 0.447992 0.750000 0.347897
#
# Coordination Sequence:
#
# PCOD9466800 Si02
#       6
#     8   8   8   8   8   8
#     4  11  24  43  69  99 131 170 214 266 322 384
#     4  12  24  39  62  93 129 170 214 264 318 378
#     4  12  26  45  69  98 131 169 215 267 325 388
#     4  10  23  41  64  93 125 168 215 263 317 380
#     4  11  23  42  67  94 128 169 214 265 323 384
#     4  10  22  42  66  91 125 169 213 259 316 383
#
# _framework density 19.360163
#
# number of rings (size 3 to 8) (size 9 to 14) (size 15 to 20)
#    0.000    1.000    1.667    5.000    2.333    6.667 
#    0.000    0.000    0.000    0.000    0.000    0.000 
#    0.000    0.000    0.000    0.000    0.000    0.000 
#
# Total GULP energy -268647.329439 kJ/mol
# GULP energy per Si atom -5596.819363 kJ/mol
# Density = 1.931610 g / cm^3
# Si number density = 19.360163 Si / 1000 Ang^3
#
#
#
# Elastic Constant Matrix: (Units=GPa)
#
#
# Indices 1 2 3 4 5 6 
#
# 1 181.5003 68.8346 54.1430 0.0000 0.0000 0.0000
# 2 68.8346 83.5778 46.7081 0.0000 0.0000 0.0000
# 3 54.1430 46.7081 79.6138 0.0000 0.0000 0.0000
# 4 0.0000 0.0000 0.0000 34.2035 0.0000 0.0000
# 5 0.0000 0.0000 0.0000 0.0000 40.7571 0.0000
# 6 0.0000 0.0000 0.0000 0.0000 0.0000 26.2314
#
#
#
# Elastic Compliance Matrix: (Units=1/GPa)
#
#
# Indices 1 2 3 4 5 6 
#
# 1 0.008318 -0.005489 -0.002437 0.000000 0.000000 0.000000
# 2 -0.005489 0.021424 -0.008836 0.000000 0.000000 0.000000
# 3 -0.002437 -0.008836 0.019402 0.000000 0.000000 0.000000
# 4 0.000000 0.000000 0.000000 0.029237 0.000000 0.000000
# 5 0.000000 0.000000 0.000000 0.000000 0.024536 0.000000
# 6 0.000000 0.000000 0.000000 0.000000 0.000000 0.038122
#
#
# Mechanical properties :
#
#
# Convention : Reuss Voigt Hill
#
# Bulk Modulus (GPa) = 64.01963 76.00703 70.01333
# Shear Modulus (GPa) = 27.81352 31.90549 29.85950
#
# Velocity S-wave (km/s) = 3.79441 4.06396 3.93149
# Velocity P-wave (km/s) = 7.23438 7.83363 7.53996
#
# Compressibility (1/GPa) = 0.01562021
#
# Stress axis : x y z
#
# Youngs Moduli (GPa) = 120.21675 46.67685 51.54211
#
# Poissons Ratio (x) = 0.25622 0.12559
# Poissons Ratio (y) = 0.65990 0.45542
# Poissons Ratio (z) = 0.29292 0.41243
#
# Static dielectric constant tensor:
#      x y z
#    x 1.665440 0.000000 0.000000 
#    y 0.000000 1.646790 0.000000 
#    z 0.000000 0.000000 1.635050 
# 
# From -- ./inp_files/31988.got.cif
#   From: 2010.05.17/outbox.cif.g08.bks.cpg/sg62_16_cif.got.tgz:31988.got - 2010.06.03 15:25:27.
