data_PCOD9466486
_publ_section_title
;
Structure prediction by ZEFSAII (Michael W. Deem and Ramdas Pophale) SiO2 
 PCOD9466486
Probable space group: P N M A
;
_chemical_formula_sum "Si O2"
_cell_formula_units_Z 64
_cell_length_a 15.316376
_cell_length_b 16.821776
_cell_length_c 11.289507
_cell_angle_alpha 90.000000
_cell_angle_beta 90.000000
_cell_angle_gamma 90.000000
_cell_volume 2908.726195
_symmetry_space_group_name_H-M "P N M A"
_symmetry_group_IT_number 62
_symmetry_cell_setting 'orthorhombic'
loop_
_space_group_symop_operation_xyz
x,y,z
1/2-x,-y,1/2+z
1/2+x,1/2-y,1/2-z
-x,1/2+y,-z
-x,-y,-z
1/2+x,y,1/2-z
1/2-x,1/2+y,1/2+z
x,1/2-y,z
loop_
_atom_site_type_symbol
_atom_site_label
_atom_site_fract_x
_atom_site_fract_y
_atom_site_fract_z
Si Si1 0.669278 0.335804 0.821519
Si Si2 0.836060 0.993607 0.967112
Si Si3 0.178610 0.661213 0.891335
Si Si4 0.854909 0.443517 0.526525
Si Si5 0.130026 0.373392 0.408056
Si Si6 0.958538 0.396151 0.291967
Si Si7 0.955087 0.563299 0.160724
Si Si8 0.361194 0.106318 0.718523
O O1 0.645641 0.250000 0.772333
O O2 0.621522 0.401393 0.742741
O O3 0.773891 0.346362 0.815381
O O4 0.637775 0.340706 0.957443
O O5 0.833485 0.082037 0.027828
O O6 0.747355 0.948212 0.995462
O O7 0.916133 0.949495 0.029745
O O8 0.839217 0.016918 0.829776
O O9 0.170719 0.750000 0.945221
O O10 0.278574 0.650754 0.849094
O O11 0.108227 0.653021 0.788088
O O12 0.878207 0.532481 0.567552
O O13 0.910502 0.419238 0.413973
O O14 0.870473 0.389616 0.640727
O O15 0.046952 0.352245 0.329746
O O16 0.976004 0.477899 0.219710
O O17 0.041703 0.617487 0.165709
#
# Coordination Sequence:
#
# PCOD9466486 Si02
#       8
#     8   8   8   8   8   8   8   8
#     4  12  25  41  61  90 129 171 212 251 308 384
#     4  10  22  37  63  93 123 161 208 255 315 365
#     4  10  23  40  61  92 130 165 203 251 308 375
#     4  11  20  36  64  96 125 155 202 272 317 350
#     4  11  21  38  66  93 125 163 208 261 309 369
#     4  11  22  39  68 100 124 156 211 265 319 362
#     4  11  22  40  64  96 125 159 207 266 316 368
#     4  12  22  38  65  92 127 159 208 262 313 370
#
# _framework density 22.002759000000001
#
# number of rings (size 3 to 8) (size 9 to 14) (size 15 to 20)
#    0.000    1.000    6.250    1.875    3.500    1.500 
#    0.000    0.625    0.000    0.000    0.000    0.000 
#    0.000    0.000    0.000    0.000    0.000    0.000 
#
# Total GULP energy -357440.264673 kJ/mol
# GULP energy per Si atom -5585.004136 kJ/mol
# Density = 2.195268 g / cm^3
# Si number density = 22.002759 Si / 1000 Ang^3
#
#
#
# Elastic Constant Matrix: (Units=GPa)
#
#
# Indices 1 2 3 4 5 6 
#
# 1 140.1003 17.3302 25.1743 0.0000 0.0000 0.0000
# 2 17.3302 59.5237 -2.3169 0.0000 0.0000 0.0000
# 3 25.1743 -2.3169 61.5928 0.0000 0.0000 0.0000
# 4 0.0000 0.0000 0.0000 -0.0267 0.0000 0.0000
# 5 0.0000 0.0000 0.0000 0.0000 41.1205 0.0000
# 6 0.0000 0.0000 0.0000 0.0000 0.0000 -5.3570
#
#
#
# Elastic Compliance Matrix: (Units=1/GPa)
#
#
# Indices 1 2 3 4 5 6 
#
# 1 0.008052 -0.002476 -0.003384 0.000000 0.000000 0.000000
# 2 -0.002476 0.017586 0.001674 0.000000 0.000000 0.000000
# 3 -0.003384 0.001674 0.017682 0.000000 0.000000 0.000000
# 4 0.000000 0.000000 0.000000-37.426136 0.000000 0.000000
# 5 0.000000 0.000000 0.000000 0.000000 0.024319 0.000000
# 6 0.000000 0.000000 0.000000 0.000000 0.000000 -0.186671
#
#
# Mechanical properties :
#
#
# Convention : Reuss Voigt Hill
#
# Bulk Modulus (GPa) = 28.61511 37.95463 33.28487
# Shear Modulus (GPa) = -0.13324 21.88264 10.87470
#
# Velocity S-wave (km/s) = -0.24635 3.15706 2.22557
# Velocity P-wave (km/s) = 3.59897 5.52962 4.66526
#
# Compressibility (1/GPa) = 0.03494657
#
# Stress axis : x y z
#
# Youngs Moduli (GPa) = 124.19068 56.86312 56.55525
#
# Poissons Ratio (x) = 0.14080 0.19140
# Poissons Ratio (y) = 0.30751 -0.09465
# Poissons Ratio (z) = 0.42029 -0.09516
#
# Static dielectric constant tensor:
#      x y z
#    x 1.834290 0.000000 0.000000 
#    y 0.000000 1.740940 0.000000 
#    z 0.000000 0.000000 1.835530 
# 
# From -- ./inp_files/13616.got.cif
#   From: 2010.05.17/outbox.cif.g08.bks.cpg/sg62_7_cif.got.tgz:13616.got - 2010.06.03 15:25:27.
