data_PCOD9466375
_publ_section_title
;
Structure prediction by ZEFSAII (Michael W. Deem and Ramdas Pophale) SiO2 
 PCOD9466375
Probable space group: P N M A
;
_chemical_formula_sum "Si O2"
_cell_formula_units_Z 36
_cell_length_a 7.690585
_cell_length_b 9.562712
_cell_length_c 22.418042
_cell_angle_alpha 90.000000
_cell_angle_beta 90.000000
_cell_angle_gamma 90.000000
_cell_volume 1648.686688
_symmetry_space_group_name_H-M "P N M A"
_symmetry_group_IT_number 62
_symmetry_cell_setting 'orthorhombic'
loop_
_space_group_symop_operation_xyz
x,y,z
1/2-x,-y,1/2+z
1/2+x,1/2-y,1/2-z
-x,1/2+y,-z
-x,-y,-z
1/2+x,y,1/2-z
1/2-x,1/2+y,1/2+z
x,1/2-y,z
loop_
_atom_site_type_symbol
_atom_site_label
_atom_site_fract_x
_atom_site_fract_y
_atom_site_fract_z
Si Si1 0.539769 0.089694 0.300919
Si Si2 0.552857 0.592231 0.056283
Si Si3 0.446236 0.089224 0.168918
Si Si4 0.559847 0.023538 0.579337
Si Si5 0.579749 0.750000 0.496754
O O1 0.472062 0.250000 0.301832
O O2 0.526598 0.044841 0.232340
O O3 0.739352 0.091056 0.321485
O O4 0.441398 0.998346 0.349844
O O5 0.484844 0.750000 0.049702
O O6 0.494277 0.512940 0.115648
O O7 0.761889 0.595947 0.058551
O O8 0.500000 0.500000 0.000000
O O9 0.502112 0.250000 0.155258
O O10 0.553532 0.873123 0.547967
O O11 0.411555 0.125238 0.554655
#
# Coordination Sequence:
#
# PCOD9466375 Si02
#       5
#     8   8   8   8   4
#     4  10  21  41  70  97 130 169 217 261 318 390
#     4  12  28  44  64  95 132 169 216 271 328 387
#     4  10  23  42  68  97 128 171 216 263 321 383
#     4  11  23  42  66  97 132 172 216 268 317 388
#     4  10  24  38  68  96 134 168 218 258 328 376
#
# _framework density 21.835560000000001
#
# number of rings (size 3 to 8) (size 9 to 14) (size 15 to 20)
#    0.000    1.333    2.222    2.000    9.333    1.778 
#    2.000    0.000    0.000    0.000    0.000    0.000 
#    0.000    0.000    0.000    0.000    0.000    0.000 
#
# Total GULP energy -200411.362966 kJ/mol
# GULP energy per Si atom -5566.982305 kJ/mol
# Density = 2.178586 g / cm^3
# Si number density = 21.835560 Si / 1000 Ang^3
#
#
#
# Elastic Constant Matrix: (Units=GPa)
#
#
# Indices 1 2 3 4 5 6 
#
# 1 42.1723 18.6870 8.2307 0.0000 0.0000 0.0000
# 2 18.6870 175.4011 95.4340 0.0000 0.0000 0.0000
# 3 8.2307 95.4340 191.8258 0.0000 0.0000 0.0000
# 4 0.0000 0.0000 0.0000 35.0211 0.0000 0.0000
# 5 0.0000 0.0000 0.0000 0.0000 32.2645 0.0000
# 6 0.0000 0.0000 0.0000 0.0000 0.0000 25.1901
#
#
#
# Elastic Compliance Matrix: (Units=1/GPa)
#
#
# Indices 1 2 3 4 5 6 
#
# 1 0.024904 -0.002841 0.000345 0.000000 0.000000 0.000000
# 2 -0.002841 0.008141 -0.003928 0.000000 0.000000 0.000000
# 3 0.000345 -0.003928 0.007153 0.000000 0.000000 0.000000
# 4 0.000000 0.000000 0.000000 0.028554 0.000000 0.000000
# 5 0.000000 0.000000 0.000000 0.000000 0.030994 0.000000
# 6 0.000000 0.000000 0.000000 0.000000 0.000000 0.039698
#
#
# Mechanical properties :
#
#
# Convention : Reuss Voigt Hill
#
# Bulk Modulus (GPa) = 36.56469 72.67805 54.62137
# Shear Modulus (GPa) = 30.97719 37.63164 34.30441
#
# Velocity S-wave (km/s) = 3.77059 4.15590 3.96793
# Velocity P-wave (km/s) = 5.97815 7.50901 6.78688
#
# Compressibility (1/GPa) = 0.02734879
#
# Stress axis : x y z
#
# Youngs Moduli (GPa) = 40.15460 122.83067 139.80778
#
# Poissons Ratio (x) = 0.34893 -0.04820
# Poissons Ratio (y) = 0.11407 0.54922
# Poissons Ratio (z) = -0.01384 0.48253
#
# Static dielectric constant tensor:
#      x y z
#    x 1.924220 0.000000 0.000000 
#    y 0.000000 1.767830 0.000000 
#    z 0.000000 0.000000 1.778020 
# 
# From -- ./inp_files/25599.got.cif
#   From: 2010.05.17/outbox.cif.g08.bks.cpg/sg62_13_cif.got.tgz:25599.got - 2010.06.03 15:25:27.
