data_PCOD9466904
_publ_section_title
;
Structure prediction by ZEFSAII (Michael W. Deem and Ramdas Pophale) SiO2 
 PCOD9466904
Probable space group: P N M A
;
_chemical_formula_sum "Si O2"
_cell_formula_units_Z 40
_cell_length_a 14.634320
_cell_length_b 13.803385
_cell_length_c 9.089955
_cell_angle_alpha 90.000000
_cell_angle_beta 90.000000
_cell_angle_gamma 90.000000
_cell_volume 1836.199572
_symmetry_space_group_name_H-M "P N M A"
_symmetry_group_IT_number 62
_symmetry_cell_setting 'orthorhombic'
loop_
_space_group_symop_operation_xyz
x,y,z
1/2-x,-y,1/2+z
1/2+x,1/2-y,1/2-z
-x,1/2+y,-z
-x,-y,-z
1/2+x,y,1/2-z
1/2-x,1/2+y,1/2+z
x,1/2-y,z
loop_
_atom_site_type_symbol
_atom_site_label
_atom_site_fract_x
_atom_site_fract_y
_atom_site_fract_z
Si Si1 0.244204 0.963825 0.468443
Si Si2 0.920757 0.858884 0.142632
Si Si3 0.498951 0.142410 0.324772
Si Si4 0.218853 0.635869 0.783086
Si Si5 0.949557 0.462841 0.644060
O O1 0.333563 0.925434 0.385034
O O2 0.246427 0.924297 0.635658
O O3 0.150139 0.925389 0.397551
O O4 0.245022 0.078621 0.428089
O O5 0.886984 0.750000 0.155593
O O6 0.983755 0.887896 0.277568
O O7 0.984135 0.866041 0.998194
O O8 0.529407 0.250000 0.278293
O O9 0.391826 0.133612 0.289919
O O10 0.553747 0.056485 0.249205
O O11 0.245290 0.750000 0.774787
O O12 0.000000 0.500000 0.500000
#
# Coordination Sequence:
#
# PCOD9466904 Si02
#       5
#     8   8   8   8   8
#     4  12  24  44  74 101 143 188 232 292 359 422
#     4  11  25  44  68 101 138 188 240 289 350 425
#     4  10  22  44  71  97 134 183 233 288 352 419
#     4  11  25  45  71 106 141 184 238 292 355 424
#     4  12  24  42  67 102 138 181 232 290 352 414
#
# _framework density 21.784123000000001
#
# number of rings (size 3 to 8) (size 9 to 14) (size 15 to 20)
#    0.000    0.800    4.000    2.400    2.800    4.800 
#    0.000    4.000    0.000    0.000    0.000    0.000 
#    0.000    0.000    0.000    0.000    0.000    0.000 
#
# Total GULP energy -223662.570070 kJ/mol
# GULP energy per Si atom -5591.564252 kJ/mol
# Density = 2.173454 g / cm^3
# Si number density = 21.784123 Si / 1000 Ang^3
#
#
#
# Elastic Constant Matrix: (Units=GPa)
#
#
# Indices 1 2 3 4 5 6 
#
# 1 107.5704 0.2109 16.0377 0.0000 0.0000 0.0000
# 2 0.2109 113.1841 43.2139 0.0000 0.0000 0.0000
# 3 16.0377 43.2139 72.7861 0.0000 0.0000 0.0000
# 4 0.0000 0.0000 0.0000 5.7529 0.0000 0.0000
# 5 0.0000 0.0000 0.0000 0.0000 36.3318 0.0000
# 6 0.0000 0.0000 0.0000 0.0000 0.0000 -189.9262
#
#
#
# Elastic Compliance Matrix: (Units=1/GPa)
#
#
# Indices 1 2 3 4 5 6 
#
# 1 0.009704 0.001032 -0.002751 0.000000 0.000000 0.000000
# 2 0.001032 0.011535 -0.007076 0.000000 0.000000 0.000000
# 3 -0.002751 -0.007076 0.018546 0.000000 0.000000 0.000000
# 4 0.000000 0.000000 0.000000 0.173825 0.000000 0.000000
# 5 0.000000 0.000000 0.000000 0.000000 0.027524 0.000000
# 6 0.000000 0.000000 0.000000 0.000000 0.000000 -0.005265
#
#
# Mechanical properties :
#
#
# Convention : Reuss Voigt Hill
#
# Bulk Modulus (GPa) = 45.05326 45.82951 45.44139
# Shear Modulus (GPa) = 19.16762 -13.96308 2.60227
#
# Velocity S-wave (km/s) = 2.96951 -2.53450 1.09415
# Velocity P-wave (km/s) = 5.69947 3.53819 4.74356
#
# Compressibility (1/GPa) = 0.02219595
#
# Stress axis : x y z
#
# Youngs Moduli (GPa) = 103.04620 86.69433 53.91987
#
# Poissons Ratio (x) = -0.08950 0.14834
# Poissons Ratio (y) = -0.10638 0.38153
# Poissons Ratio (z) = 0.28350 0.61343
#
# Static dielectric constant tensor:
#      x y z
#    x 1.809350 0.000000 0.000000 
#    y 0.000000 1.848350 0.000000 
#    z 0.000000 0.000000 1.798320 
# 
# From -- ./inp_files/6105.got.cif
#   From: 2010.05.17/outbox.cif.g08.bks.cpg/sg62_4_cif.got.tgz:6105.got - 2010.06.03 15:25:27.
