data_PCOD9466383
_publ_section_title
;
Structure prediction by ZEFSAII (Michael W. Deem and Ramdas Pophale) SiO2 
 PCOD9466383
Probable space group: P N M A
;
_chemical_formula_sum "Si O2"
_cell_formula_units_Z 64
_cell_length_a 12.093503
_cell_length_b 7.917524
_cell_length_c 30.904648
_cell_angle_alpha 90.000000
_cell_angle_beta 90.000000
_cell_angle_gamma 90.000000
_cell_volume 2959.138596
_symmetry_space_group_name_H-M "P N M A"
_symmetry_group_IT_number 62
_symmetry_cell_setting 'orthorhombic'
loop_
_space_group_symop_operation_xyz
x,y,z
1/2-x,-y,1/2+z
1/2+x,1/2-y,1/2-z
-x,1/2+y,-z
-x,-y,-z
1/2+x,y,1/2-z
1/2-x,1/2+y,1/2+z
x,1/2-y,z
loop_
_atom_site_type_symbol
_atom_site_label
_atom_site_fract_x
_atom_site_fract_y
_atom_site_fract_z
Si Si1 0.663639 0.955013 0.635101
Si Si2 0.200584 0.042900 0.448260
Si Si3 0.244078 0.947690 0.690222
Si Si4 0.457365 0.054883 0.064043
Si Si5 0.487786 0.553918 0.160304
Si Si6 0.217722 0.945131 0.037251
Si Si7 0.696623 0.549778 0.215073
Si Si8 0.583872 0.449204 0.380884
O O1 0.665454 0.750000 0.635003
O O2 0.748874 0.010720 0.597541
O O3 0.540398 0.015876 0.623589
O O4 0.703804 0.015303 0.681816
O O5 0.197791 0.250000 0.448685
O O6 0.276560 0.987277 0.488299
O O7 0.073489 0.988073 0.454821
O O8 0.224752 0.750000 0.680311
O O9 0.331522 0.017645 0.655209
O O10 0.287645 0.965210 0.738722
O O11 0.127760 0.040020 0.685069
O O12 0.441723 0.250000 0.051347
O O13 0.475838 0.044902 0.115593
O O14 0.345017 0.958691 0.053165
O O15 0.510395 0.750000 0.149574
O O16 0.587008 0.489201 0.190059
O O17 0.185068 0.750000 0.035597
O O18 0.138597 0.029820 0.072171
O O19 0.686373 0.750000 0.222282
O O20 0.575117 0.250000 0.371992
#
# Coordination Sequence:
#
# PCOD9466383 Si02
#       8
#     8   8   8   8   8   8   8   8
#     4  10  21  42  65  86 119 160 205 250 295 355
#     4   9  20  37  60  89 120 158 201 249 300 358
#     4  11  24  41  63  90 122 160 205 244 291 356
#     4  11  20  36  61  89 122 158 201 248 296 356
#     4  11  23  40  63  93 126 158 193 246 305 355
#     4  11  22  37  59  88 122 160 200 247 308 359
#     4  11  25  42  62  93 127 155 196 248 303 357
#     4  10  23  41  61  88 118 156 204 250 295 354
#
# _framework density 21.627915999999999
#
# number of rings (size 3 to 8) (size 9 to 14) (size 15 to 20)
#    0.000    1.500    2.500    2.250    1.750    3.000 
#    0.000    3.125    0.000    0.000    0.000    0.000 
#    0.000    0.000    0.000    0.000    0.000    0.000 
#
# Total GULP energy -357803.457500 kJ/mol
# GULP energy per Si atom -5590.679023 kJ/mol
# Density = 2.157869 g / cm^3
# Si number density = 21.627916 Si / 1000 Ang^3
#
#
#
# Elastic Constant Matrix: (Units=GPa)
#
#
# Indices 1 2 3 4 5 6 
#
# 1 54.3617 0.5996 -16.7299 0.0000 0.0000 0.0000
# 2 0.5996 27.1839 -5.1584 0.0000 0.0000 0.0000
# 3 -16.7299 -5.1584 61.7401 0.0000 0.0000 0.0000
# 4 0.0000 0.0000 0.0000 19.1238 0.0000 0.0000
# 5 0.0000 0.0000 0.0000 0.0000 21.1374 0.0000
# 6 0.0000 0.0000 0.0000 0.0000 0.0000 8.7875
#
#
#
# Elastic Compliance Matrix: (Units=1/GPa)
#
#
# Indices 1 2 3 4 5 6 
#
# 1 0.020078 0.000599 0.005491 0.000000 0.000000 0.000000
# 2 0.000599 0.037397 0.003287 0.000000 0.000000 0.000000
# 3 0.005491 0.003287 0.017959 0.000000 0.000000 0.000000
# 4 0.000000 0.000000 0.000000 0.052291 0.000000 0.000000
# 5 0.000000 0.000000 0.000000 0.000000 0.047310 0.000000
# 6 0.000000 0.000000 0.000000 0.000000 0.000000 0.113797
#
#
# Mechanical properties :
#
#
# Convention : Reuss Voigt Hill
#
# Bulk Modulus (GPa) = 10.61705 11.18982 10.90344
# Shear Modulus (GPa) = 16.58511 20.78138 18.68324
#
# Velocity S-wave (km/s) = 2.77219 3.10314 2.94232
# Velocity P-wave (km/s) = 3.89440 4.24550 4.07373
#
# Compressibility (1/GPa) = 0.09418810
#
# Stress axis : x y z
#
# Youngs Moduli (GPa) = 49.80454 26.74018 55.68120
#
# Poissons Ratio (x) = -0.01602 -0.30573
# Poissons Ratio (y) = -0.02984 -0.18301
# Poissons Ratio (z) = -0.27347 -0.08789
#
# Static dielectric constant tensor:
#      x y z
#    x 1.779120 0.000000 0.000000 
#    y 0.000000 1.777240 0.000000 
#    z 0.000000 0.000000 1.768790 
# 
# From -- ./inp_files/32458.got.cif
#   From: 2010.05.17/outbox.cif.g08.bks.cpg/sg62_17_cif.got.tgz:32458.got - 2010.06.03 15:25:27.
