data_PCOD9466604
_publ_section_title
;
Structure prediction by ZEFSAII (Michael W. Deem and Ramdas Pophale) SiO2 
 PCOD9466604
Probable space group: P N M A
;
_chemical_formula_sum "Si O2"
_cell_formula_units_Z 48
_cell_length_a 9.248779
_cell_length_b 27.190386
_cell_length_c 7.833849
_cell_angle_alpha 90.000000
_cell_angle_beta 90.000000
_cell_angle_gamma 90.000000
_cell_volume 1970.039669
_symmetry_space_group_name_H-M "P N M A"
_symmetry_group_IT_number 62
_symmetry_cell_setting 'orthorhombic'
loop_
_space_group_symop_operation_xyz
x,y,z
1/2-x,-y,1/2+z
1/2+x,1/2-y,1/2-z
-x,1/2+y,-z
-x,-y,-z
1/2+x,y,1/2-z
1/2-x,1/2+y,1/2+z
x,1/2-y,z
loop_
_atom_site_type_symbol
_atom_site_label
_atom_site_fract_x
_atom_site_fract_y
_atom_site_fract_z
Si Si1 0.680942 0.637100 0.265312
Si Si2 0.508537 0.865972 0.911827
Si Si3 0.761222 0.693618 0.728161
Si Si4 0.567988 0.305196 0.584317
Si Si5 0.956942 0.471821 0.266001
Si Si6 0.210830 0.967594 0.086191
O O1 0.808710 0.672287 0.204581
O O2 0.573416 0.661591 0.400984
O O3 0.738862 0.585073 0.329606
O O4 0.581806 0.629457 0.096396
O O5 0.360294 0.835299 0.906388
O O6 0.623722 0.836481 0.794692
O O7 0.486743 0.919986 0.834728
O O8 0.725873 0.750000 0.678486
O O9 0.862741 0.695893 0.897242
O O10 0.531657 0.250000 0.639473
O O11 0.854054 0.499473 0.400649
O O12 0.085021 0.505590 0.194788
O O13 0.853144 0.462156 0.102475
#
# Coordination Sequence:
#
# PCOD9466604 Si02
#       6
#     8   8   8   8   8   8
#     4  11  23  39  61  89 119 153 196 243 291 347
#     4  11  23  39  61  89 119 153 196 243 291 347
#     4  10  22  40  60  85 119 155 192 238 290 344
#     4  10  22  40  60  85 119 155 192 238 290 344
#     4  11  24  41  61  87 119 155 196 242 293 349
#     4  11  24  41  61  87 119 155 196 242 293 349
#
# _framework density 24.364992000000001
#
# number of rings (size 3 to 8) (size 9 to 14) (size 15 to 20)
#    0.000    1.333    0.000    5.000    0.000   15.333 
#    0.000    0.000    0.000    0.000    0.000    0.000 
#    0.000    0.000    0.000    0.000    0.000    0.000 
#
# Total GULP energy -269428.112957 kJ/mol
# GULP energy per Si atom -5613.085687 kJ/mol
# Density = 2.430954 g / cm^3
# Si number density = 24.364992 Si / 1000 Ang^3
#
#
#
# Elastic Constant Matrix: (Units=GPa)
#
#
# Indices 1 2 3 4 5 6 
#
# 1 101.0971 19.5816 8.4041 0.0000 0.0000 0.0000
# 2 19.5816 145.9489 24.6003 0.0000 0.0000 0.0000
# 3 8.4041 24.6003 90.5623 0.0000 0.0000 0.0000
# 4 0.0000 0.0000 0.0000 15.6383 0.0000 0.0000
# 5 0.0000 0.0000 0.0000 0.0000 49.1449 0.0000
# 6 0.0000 0.0000 0.0000 0.0000 0.0000 18.4898
#
#
#
# Elastic Compliance Matrix: (Units=1/GPa)
#
#
# Indices 1 2 3 4 5 6 
#
# 1 0.010187 -0.001265 -0.000602 0.000000 0.000000 0.000000
# 2 -0.001265 0.007338 -0.001876 0.000000 0.000000 0.000000
# 3 -0.000602 -0.001876 0.011607 0.000000 0.000000 0.000000
# 4 0.000000 0.000000 0.000000 0.063946 0.000000 0.000000
# 5 0.000000 0.000000 0.000000 0.000000 0.020348 0.000000
# 6 0.000000 0.000000 0.000000 0.000000 0.000000 0.054084
#
#
# Mechanical properties :
#
#
# Convention : Reuss Voigt Hill
#
# Bulk Modulus (GPa) = 46.19718 49.19782 47.69750
# Shear Modulus (GPa) = 27.44089 35.65609 31.54849
#
# Velocity S-wave (km/s) = 3.35959 3.82961 3.60228
# Velocity P-wave (km/s) = 5.83531 6.30796 6.07623
#
# Compressibility (1/GPa) = 0.02164634
#
# Stress axis : x y z
#
# Youngs Moduli (GPa) = 98.16845 136.28354 86.15136
#
# Poissons Ratio (x) = 0.17244 0.05183
# Poissons Ratio (y) = 0.12421 0.16160
# Poissons Ratio (z) = 0.05906 0.25564
#
# Static dielectric constant tensor:
#      x y z
#    x 1.894970 0.000000 0.000000 
#    y 0.000000 1.857290 0.000000 
#    z 0.000000 0.000000 1.961530 
# 
# From -- ./inp_files/4519.got.cif
#   From: 2010.05.17/outbox.cif.g08.bks.cpg/sg62_3_cif.got.tgz:4519.got - 2010.06.03 15:25:27.
