data_PCOD9466908
_publ_section_title
;
Structure prediction by ZEFSAII (Michael W. Deem and Ramdas Pophale) SiO2 
 PCOD9466908
Probable space group: P N M A
;
_chemical_formula_sum "Si O2"
_cell_formula_units_Z 32
_cell_length_a 30.119731
_cell_length_b 8.305647
_cell_length_c 4.634304
_cell_angle_alpha 90.000000
_cell_angle_beta 90.000000
_cell_angle_gamma 90.000000
_cell_volume 1159.335347
_symmetry_space_group_name_H-M "P N M A"
_symmetry_group_IT_number 62
_symmetry_cell_setting 'orthorhombic'
loop_
_space_group_symop_operation_xyz
x,y,z
1/2-x,-y,1/2+z
1/2+x,1/2-y,1/2-z
-x,1/2+y,-z
-x,-y,-z
1/2+x,y,1/2-z
1/2-x,1/2+y,1/2+z
x,1/2-y,z
loop_
_atom_site_type_symbol
_atom_site_label
_atom_site_fract_x
_atom_site_fract_y
_atom_site_fract_z
Si Si1 0.540978 0.435869 0.314002
Si Si2 0.834241 0.750000 0.646359
Si Si3 0.917150 0.250000 0.535058
Si Si4 0.608767 0.250000 0.651810
Si Si5 0.648162 0.750000 0.537745
Si Si6 0.281546 0.497961 0.216825
O O1 0.500000 0.500000 0.500000
O O2 0.530348 0.250000 0.202804
O O3 0.556257 0.585068 0.112392
O O4 0.581193 0.400378 0.536310
O O5 0.882301 0.750000 0.487945
O O6 0.808854 0.895845 0.506740
O O7 0.844976 0.750000 0.979663
O O8 0.870457 0.250000 0.715395
O O9 0.897817 0.250000 0.215062
O O10 0.681218 0.606385 0.623218
O O11 0.247032 0.425484 0.978745
#
# Coordination Sequence:
#
# PCOD9466908 Si02
#       6
#     8   4   4   4   4   8
#     4  10  22  44  73 104 143 186 229 287 351 416
#     4  12  22  43  63  92 129 172 219 274 329 401
#     4  12  23  47  68 106 143 182 239 288 342 423
#     4  10  23  39  66  94 127 176 223 266 338 395
#     4  12  26  43  71 102 139 184 235 290 349 413
#     4  12  24  41  64  96 133 178 226 281 344 404
#
# _framework density 27.60202
#
# number of rings (size 3 to 8) (size 9 to 14) (size 15 to 20)
#    0.750    0.000    1.250    7.500    0.000    0.000 
#    0.000    7.500    0.000    0.000    0.000    0.000 
#    0.000    0.000    0.000    0.000    0.000    0.000 
#
# Total GULP energy -179106.051943 kJ/mol
# GULP energy per Si atom -5597.064123 kJ/mol
# Density = 2.753920 g / cm^3
# Si number density = 27.602020 Si / 1000 Ang^3
#
#
#
# Elastic Constant Matrix: (Units=GPa)
#
#
# Indices 1 2 3 4 5 6 
#
# 1 107.4976 43.7943 28.6015 0.0000 0.0000 0.0000
# 2 43.7943 185.7235 22.4792 0.0000 0.0000 0.0000
# 3 28.6015 22.4792 122.1462 0.0000 0.0000 0.0000
# 4 0.0000 0.0000 0.0000 29.7198 0.0000 0.0000
# 5 0.0000 0.0000 0.0000 0.0000 38.8971 0.0000
# 6 0.0000 0.0000 0.0000 0.0000 0.0000 27.2463
#
#
#
# Elastic Compliance Matrix: (Units=1/GPa)
#
#
# Indices 1 2 3 4 5 6 
#
# 1 0.010796 -0.002291 -0.002106 0.000000 0.000000 0.000000
# 2 -0.002291 0.005993 -0.000567 0.000000 0.000000 0.000000
# 3 -0.002106 -0.000567 0.008784 0.000000 0.000000 0.000000
# 4 0.000000 0.000000 0.000000 0.033648 0.000000 0.000000
# 5 0.000000 0.000000 0.000000 0.000000 0.025709 0.000000
# 6 0.000000 0.000000 0.000000 0.000000 0.000000 0.036702
#
#
# Mechanical properties :
#
#
# Convention : Reuss Voigt Hill
#
# Bulk Modulus (GPa) = 63.91339 67.23526 65.57432
# Shear Modulus (GPa) = 36.55623 40.53877 38.54750
#
# Velocity S-wave (km/s) = 3.64318 3.83650 3.74109
# Velocity P-wave (km/s) = 6.39552 6.63602 6.51688
#
# Compressibility (1/GPa) = 0.01564617
#
# Stress axis : x y z
#
# Youngs Moduli (GPa) = 92.62455 166.85835 113.83805
#
# Poissons Ratio (x) = 0.38225 0.23979
# Poissons Ratio (y) = 0.21219 0.06449
# Poissons Ratio (z) = 0.19511 0.09453
#
# Static dielectric constant tensor:
#      x y z
#    x 2.160870 0.000000 0.000000 
#    y 0.000000 2.321250 0.000000 
#    z 0.000000 0.000000 2.011220 
# 
# From -- ./inp_files/3439.got.cif
#   From: 2010.05.17/outbox.cif.g08.bks.cpg/sg62_2_cif.got.tgz:3439.got - 2010.06.03 15:25:27.
