data_PCOD9466813
_publ_section_title
;
Structure prediction by ZEFSAII (Michael W. Deem and Ramdas Pophale) SiO2 
 PCOD9466813
Probable space group: P N M A
;
_chemical_formula_sum "Si O2"
_cell_formula_units_Z 64
_cell_length_a 9.310027
_cell_length_b 10.680299
_cell_length_c 30.635662
_cell_angle_alpha 90.000000
_cell_angle_beta 90.000000
_cell_angle_gamma 90.000000
_cell_volume 3046.222496
_symmetry_space_group_name_H-M "P N M A"
_symmetry_group_IT_number 62
_symmetry_cell_setting 'orthorhombic'
loop_
_space_group_symop_operation_xyz
x,y,z
1/2-x,-y,1/2+z
1/2+x,1/2-y,1/2-z
-x,1/2+y,-z
-x,-y,-z
1/2+x,y,1/2-z
1/2-x,1/2+y,1/2+z
x,1/2-y,z
loop_
_atom_site_type_symbol
_atom_site_label
_atom_site_fract_x
_atom_site_fract_y
_atom_site_fract_z
Si Si1 0.461872 0.895686 0.074706
Si Si2 0.293630 0.602817 0.443248
Si Si3 0.942090 0.471264 0.257427
Si Si4 0.265297 0.393057 0.324577
Si Si5 0.044251 0.887068 0.331470
Si Si6 0.243013 0.393159 0.042194
Si Si7 0.485629 0.955357 0.614005
Si Si8 0.820816 0.609403 0.806728
O O1 0.443469 0.750000 0.059012
O O2 0.628592 0.935856 0.067326
O O3 0.439498 0.891549 0.127054
O O4 0.358287 0.999526 0.054133
O O5 0.289465 0.750000 0.437684
O O6 0.317825 0.575404 0.494275
O O7 0.421884 0.556396 0.412661
O O8 0.844550 0.466093 0.214700
O O9 0.844974 0.400979 0.293454
O O10 0.977346 0.597573 0.283299
O O11 0.086373 0.412243 0.237386
O O12 0.224879 0.250000 0.312972
O O13 0.139834 0.488445 0.336497
O O14 0.382981 0.383906 0.362727
O O15 0.117808 0.750000 0.334595
O O16 0.302897 0.250000 0.040509
O O17 0.118023 0.394833 0.078262
O O18 0.380349 0.981754 0.655536
O O19 0.849618 0.750000 0.822516
#
# Coordination Sequence:
#
# PCOD9466813 Si02
#       8
#     8   8   8   8   8   8   8   8
#     4  10  22  44  66  93 132 174 221 271 328 398
#     4  10  22  42  68  93 129 177 222 268 331 399
#     4  11  22  39  62  93 124 167 213 264 318 382
#     4  11  23  40  66  95 127 171 218 271 328 380
#     4  11  24  42  65  92 131 175 217 264 320 392
#     4  11  23  41  66 101 135 168 217 277 334 398
#     4  11  22  40  62  95 133 168 211 270 333 389
#     4  11  22  38  61  92 130 167 209 269 325 379
#
# _framework density 21.009629
#
# number of rings (size 3 to 8) (size 9 to 14) (size 15 to 20)
#    0.000    1.250    2.500    4.500    0.000    2.500 
#    0.000    4.375    0.000    0.000    0.000    0.000 
#    0.000    0.000    0.000    0.000    0.000    0.000 
#
# Total GULP energy -356280.646291 kJ/mol
# GULP energy per Si atom -5566.885098 kJ/mol
# Density = 2.096181 g / cm^3
# Si number density = 21.009629 Si / 1000 Ang^3
#
#
#
# Elastic Constant Matrix: (Units=GPa)
#
#
# Indices 1 2 3 4 5 6 
#
# 1 92.9741 43.8472 40.7758 0.0000 0.0000 0.0000
# 2 43.8472 72.6245 43.4808 0.0000 0.0000 0.0000
# 3 40.7758 43.4808 126.8826 0.0000 0.0000 0.0000
# 4 0.0000 0.0000 0.0000 21.7011 0.0000 0.0000
# 5 0.0000 0.0000 0.0000 0.0000 36.4854 0.0000
# 6 0.0000 0.0000 0.0000 0.0000 0.0000 25.2360
#
#
#
# Elastic Compliance Matrix: (Units=1/GPa)
#
#
# Indices 1 2 3 4 5 6 
#
# 1 0.015526 -0.008035 -0.002236 0.000000 0.000000 0.000000
# 2 -0.008035 0.021482 -0.004779 0.000000 0.000000 0.000000
# 3 -0.002236 -0.004779 0.010238 0.000000 0.000000 0.000000
# 4 0.000000 0.000000 0.000000 0.046081 0.000000 0.000000
# 5 0.000000 0.000000 0.000000 0.000000 0.027408 0.000000
# 6 0.000000 0.000000 0.000000 0.000000 0.000000 0.039626
#
#
# Mechanical properties :
#
#
# Convention : Reuss Voigt Hill
#
# Bulk Modulus (GPa) = 58.32694 60.96541 59.64618
# Shear Modulus (GPa) = 25.48733 27.64298 26.56516
#
# Velocity S-wave (km/s) = 3.48677 3.63123 3.55974
# Velocity P-wave (km/s) = 6.63569 6.83096 6.73403
#
# Compressibility (1/GPa) = 0.01714474
#
# Stress axis : x y z
#
# Youngs Moduli (GPa) = 64.40947 46.55043 97.67822
#
# Poissons Ratio (x) = 0.37403 0.21840
# Poissons Ratio (y) = 0.51753 0.46685
# Poissons Ratio (z) = 0.14402 0.22248
#
# Static dielectric constant tensor:
#      x y z
#    x 1.806050 0.000000 0.000000 
#    y 0.000000 1.750800 0.000000 
#    z 0.000000 0.000000 1.806190 
# 
# From -- ./inp_files/32272.got.cif
#   From: 2010.05.17/outbox.cif.g08.bks.cpg/sg62_17_cif.got.tgz:32272.got - 2010.06.03 15:25:27.
