data_PCOD9466960
_publ_section_title
;
Structure prediction by ZEFSAII (Michael W. Deem and Ramdas Pophale) SiO2 
 PCOD9466960
Probable space group: P N M A
;
_chemical_formula_sum "Si O2"
_cell_formula_units_Z 32
_cell_length_a 18.161641
_cell_length_b 14.215305
_cell_length_c 5.248656
_cell_angle_alpha 90.000000
_cell_angle_beta 90.000000
_cell_angle_gamma 90.000000
_cell_volume 1355.062662
_symmetry_space_group_name_H-M "P N M A"
_symmetry_group_IT_number 62
_symmetry_cell_setting 'orthorhombic'
loop_
_space_group_symop_operation_xyz
x,y,z
1/2-x,-y,1/2+z
1/2+x,1/2-y,1/2-z
-x,1/2+y,-z
-x,-y,-z
1/2+x,y,1/2-z
1/2-x,1/2+y,1/2+z
x,1/2-y,z
loop_
_atom_site_type_symbol
_atom_site_label
_atom_site_fract_x
_atom_site_fract_y
_atom_site_fract_z
Si Si1 0.781004 0.454484 0.769382
Si Si2 0.618116 0.250000 0.312188
Si Si3 0.991069 0.111521 0.049302
Si Si4 0.062358 0.920816 0.452194
Si Si5 0.782850 0.750000 0.311142
O O1 0.729505 0.490930 0.536317
O O2 0.862300 0.463148 0.651913
O O3 0.763444 0.345675 0.824916
O O4 0.564494 0.338933 0.353291
O O5 0.676771 0.250000 0.538740
O O6 0.657851 0.250000 0.040495
O O7 0.930984 0.125681 0.270684
O O8 0.967521 0.145536 0.771077
O O9 0.000000 0.000000 0.000000
O O10 0.000000 0.000000 0.500000
#
# Coordination Sequence:
#
# PCOD9466960 Si02
#       5
#     8   4   8   8   4
#     4  12  28  48  78 111 161 207 258 328 398 477
#     4  12  26  46  74 112 156 203 251 334 384 478
#     4  10  23  40  71 106 145 186 257 311 387 451
#     4  10  23  43  74 106 147 189 260 309 392 453
#     4  12  30  46  76 112 158 203 269 298 412 484
#
# _framework density 23.615145999999999
#
# number of rings (size 3 to 8) (size 9 to 14) (size 15 to 20)
#    0.000    1.000    0.000    4.500   21.000    2.000 
#    0.000    0.000    0.000    0.000    0.000    0.000 
#    0.000    0.000    0.000    0.000    0.000    0.000 
#
# Total GULP energy -178947.131185 kJ/mol
# GULP energy per Si atom -5592.097850 kJ/mol
# Density = 2.356140 g / cm^3
# Si number density = 23.615146 Si / 1000 Ang^3
#
#
#
# Elastic Constant Matrix: (Units=GPa)
#
#
# Indices 1 2 3 4 5 6 
#
# 1 84.2076 37.8447 -0.5501 0.0000 0.0000 0.0000
# 2 37.8447 158.7642 33.2231 0.0000 0.0000 0.0000
# 3 -0.5501 33.2231 174.2960 0.0000 0.0000 0.0000
# 4 0.0000 0.0000 0.0000 1.6657 0.0000 0.0000
# 5 0.0000 0.0000 0.0000 0.0000 45.7374 0.0000
# 6 0.0000 0.0000 0.0000 0.0000 0.0000 -166.2644
#
#
#
# Elastic Compliance Matrix: (Units=1/GPa)
#
#
# Indices 1 2 3 4 5 6 
#
# 1 0.013377 -0.003330 0.000677 0.000000 0.000000 0.000000
# 2 -0.003330 0.007389 -0.001419 0.000000 0.000000 0.000000
# 3 0.000677 -0.001419 0.006010 0.000000 0.000000 0.000000
# 4 0.000000 0.000000 0.000000 0.600339 0.000000 0.000000
# 5 0.000000 0.000000 0.000000 0.000000 0.021864 0.000000
# 6 0.000000 0.000000 0.000000 0.000000 0.000000 -0.006015
#
#
# Mechanical properties :
#
#
# Convention : Reuss Voigt Hill
#
# Bulk Modulus (GPa) = 53.67282 62.03368 57.85325
# Shear Modulus (GPa) = 7.60665 -0.65557 3.47554
#
# Velocity S-wave (km/s) = 1.79669 -0.52746 1.21447
# Velocity P-wave (km/s) = 5.20400 5.09457 5.14958
#
# Compressibility (1/GPa) = 0.01863140
#
# Stress axis : x y z
#
# Youngs Moduli (GPa) = 74.75794 135.32859 166.38968
#
# Poissons Ratio (x) = 0.45068 -0.11265
# Poissons Ratio (y) = 0.24896 0.23611
# Poissons Ratio (z) = -0.05061 0.19204
#
# Static dielectric constant tensor:
#      x y z
#    x 1.913730 0.000000 0.000000 
#    y 0.000000 1.954240 0.000000 
#    z 0.000000 0.000000 2.046280 
# 
# From -- ./inp_files/1514.got.cif
#   From: 2010.05.17/outbox.cif.g08.bks.cpg/sg62_1_cif.got.tgz:1514.got - 2010.06.03 15:25:27.
