data_PCOD9466188
_publ_section_title
;
Structure prediction by ZEFSAII (Michael W. Deem and Ramdas Pophale) SiO2 
 PCOD9466188
Probable space group: P N M A
;
_chemical_formula_sum "Si O2"
_cell_formula_units_Z 64
_cell_length_a 17.679621
_cell_length_b 20.887053
_cell_length_c 8.800327
_cell_angle_alpha 90.000000
_cell_angle_beta 90.000000
_cell_angle_gamma 90.000000
_cell_volume 3249.742344
_symmetry_space_group_name_H-M "P N M A"
_symmetry_group_IT_number 62
_symmetry_cell_setting 'orthorhombic'
loop_
_space_group_symop_operation_xyz
x,y,z
1/2-x,-y,1/2+z
1/2+x,1/2-y,1/2-z
-x,1/2+y,-z
-x,-y,-z
1/2+x,y,1/2-z
1/2-x,1/2+y,1/2+z
x,1/2-y,z
loop_
_atom_site_type_symbol
_atom_site_label
_atom_site_fract_x
_atom_site_fract_y
_atom_site_fract_z
Si Si1 0.163802 0.676854 0.064931
Si Si2 0.169354 0.176272 0.603069
Si Si3 0.098618 0.636879 0.753262
Si Si4 0.603211 0.577990 0.184535
Si Si5 0.981654 0.495823 0.174832
Si Si6 0.324159 0.559544 0.315868
Si Si7 0.498079 0.821901 0.015320
Si Si8 0.283580 0.054168 0.088386
O O1 0.154911 0.750000 0.125710
O O2 0.251530 0.669864 0.014599
O O3 0.143877 0.620798 0.185502
O O4 0.113512 0.668000 0.915630
O O5 0.163992 0.250000 0.652845
O O6 0.182450 0.129571 0.744724
O O7 0.091610 0.161961 0.513104
O O8 0.051214 0.571960 0.777066
O O9 0.179586 0.614226 0.680792
O O10 0.045620 0.676707 0.640684
O O11 0.556824 0.517643 0.242462
O O12 0.541614 0.626494 0.115510
O O13 0.657512 0.552370 0.052540
O O14 0.912147 0.543559 0.198618
O O15 0.000000 0.500000 0.000000
O O16 0.293555 0.557184 0.489285
O O17 0.285110 0.506006 0.204594
O O18 0.504029 0.750000 0.078979
#
# Coordination Sequence:
#
# PCOD9466188 Si02
#       8
#     8   8   8   8   8   8   8   8
#     4  11  22  40  63  87 122 162 206 255 302 366
#     4  10  22  39  62  87 119 161 206 248 299 364
#     4  10  23  41  59  92 120 157 206 251 312 362
#     4  11  21  39  60  91 117 158 203 248 307 363
#     4  11  23  38  61  90 124 153 194 258 303 363
#     4  11  23  42  60  94 121 162 198 254 307 359
#     4  10  21  40  62  86 118 158 205 251 299 365
#     4  10  25  36  64  88 122 156 204 248 304 371
#
# _framework density 19.69387
#
# number of rings (size 3 to 8) (size 9 to 14) (size 15 to 20)
#    0.000    1.500    3.750    0.750    7.000    1.500 
#    2.250    0.625    0.000    0.000    0.000    0.000 
#    0.000    0.000    0.000    0.000    0.000    0.000 
#
# Total GULP energy -356635.966556 kJ/mol
# GULP energy per Si atom -5572.436977 kJ/mol
# Density = 1.964905 g / cm^3
# Si number density = 19.693870 Si / 1000 Ang^3
#
#
#
# Elastic Constant Matrix: (Units=GPa)
#
#
# Indices 1 2 3 4 5 6 
#
# 1 70.9014 25.9080 7.5904 0.0000 0.0000 0.0000
# 2 25.9080 53.6930 10.9686 0.0000 0.0000 0.0000
# 3 7.5904 10.9686 61.3777 0.0000 0.0000 0.0000
# 4 0.0000 0.0000 0.0000 13.1115 0.0000 0.0000
# 5 0.0000 0.0000 0.0000 0.0000 35.6706 0.0000
# 6 0.0000 0.0000 0.0000 0.0000 0.0000 19.6738
#
#
#
# Elastic Compliance Matrix: (Units=1/GPa)
#
#
# Indices 1 2 3 4 5 6 
#
# 1 0.017149 -0.008139 -0.000666 0.000000 0.000000 0.000000
# 2 -0.008139 0.023193 -0.003138 0.000000 0.000000 0.000000
# 3 -0.000666 -0.003138 0.016936 0.000000 0.000000 0.000000
# 4 0.000000 0.000000 0.000000 0.076269 0.000000 0.000000
# 5 0.000000 0.000000 0.000000 0.000000 0.028034 0.000000
# 6 0.000000 0.000000 0.000000 0.000000 0.000000 0.050829
#
#
# Mechanical properties :
#
#
# Convention : Reuss Voigt Hill
#
# Bulk Modulus (GPa) = 29.94808 30.54512 30.24660
# Shear Modulus (GPa) = 20.20799 23.12487 21.66643
#
# Velocity S-wave (km/s) = 3.20676 3.43040 3.32047
# Velocity P-wave (km/s) = 5.38061 5.58872 5.48565
#
# Compressibility (1/GPa) = 0.03339113
#
# Stress axis : x y z
#
# Youngs Moduli (GPa) = 58.31089 43.11712 59.04664
#
# Poissons Ratio (x) = 0.35092 0.03935
# Poissons Ratio (y) = 0.47458 0.18530
# Poissons Ratio (z) = 0.03886 0.13531
#
# Static dielectric constant tensor:
#      x y z
#    x 1.810140 0.000000 0.000000 
#    y 0.000000 1.706030 0.000000 
#    z 0.000000 0.000000 1.696560 
# 
# From -- ./inp_files/6977.got.cif
#   From: 2010.05.17/outbox.cif.g08.bks.cpg/sg62_4_cif.got.tgz:6977.got - 2010.06.03 15:25:27.
