data_PCOD9466474
_publ_section_title
;
Structure prediction by ZEFSAII (Michael W. Deem and Ramdas Pophale) SiO2 
 PCOD9466474
Probable space group: P N M A
;
_chemical_formula_sum "Si O2"
_cell_formula_units_Z 64
_cell_length_a 9.554262
_cell_length_b 28.786212
_cell_length_c 14.343542
_cell_angle_alpha 90.000000
_cell_angle_beta 90.000000
_cell_angle_gamma 90.000000
_cell_volume 3944.918864
_symmetry_space_group_name_H-M "P N M A"
_symmetry_group_IT_number 62
_symmetry_cell_setting 'orthorhombic'
loop_
_space_group_symop_operation_xyz
x,y,z
1/2-x,-y,1/2+z
1/2+x,1/2-y,1/2-z
-x,1/2+y,-z
-x,-y,-z
1/2+x,y,1/2-z
1/2-x,1/2+y,1/2+z
x,1/2-y,z
loop_
_atom_site_type_symbol
_atom_site_label
_atom_site_fract_x
_atom_site_fract_y
_atom_site_fract_z
Si Si1 0.540274 0.195242 0.153892
Si Si2 0.711695 0.116467 0.075425
Si Si3 0.380721 0.530705 0.451867
Si Si4 0.132310 0.473091 0.540429
Si Si5 0.453994 0.883365 0.562504
Si Si6 0.211337 0.195456 0.151879
Si Si7 0.420669 0.998396 0.240034
Si Si8 0.328476 0.560473 0.735947
O O1 0.545808 0.250000 0.130384
O O2 0.620492 0.163323 0.078989
O O3 0.375551 0.182236 0.164474
O O4 0.624161 0.189902 0.251740
O O5 0.678946 0.092851 0.174788
O O6 0.878773 0.124164 0.065644
O O7 0.663592 0.077086 0.003110
O O8 0.500000 0.500000 0.500000
O O9 0.250370 0.509018 0.506197
O O10 0.410632 0.584294 0.475642
O O11 0.379310 0.520451 0.341665
O O12 0.114103 0.467404 0.651119
O O13 0.000000 0.500000 0.500000
O O14 0.366065 0.836404 0.576001
O O15 0.404935 0.914290 0.651209
O O16 0.206976 0.250000 0.128076
O O17 0.581366 0.014359 0.243001
O O18 0.329689 0.044605 0.218301
#
# Coordination Sequence:
#
# PCOD9466474 Si02
#       8
#     8   8   8   8   8   8   8   8
#     4  10  22  37  55  79 109 140 180 230 279 335
#     4  12  23  35  51  81 108 146 190 221 275 325
#     4  12  21  38  52  75 110 151 187 222 273 322
#     4  12  23  34  52  81 110 145 191 231 270 325
#     4  12  23  34  55  76 108 150 186 224 269 331
#     4  10  22  37  55  80 107 141 182 229 280 335
#     4  12  22  36  52  72 112 150 188 226 264 312
#     4  12  20  32  51  74 104 148 181 217 261 317
#
# _framework density 16.223400000000002
#
# number of rings (size 3 to 8) (size 9 to 14) (size 15 to 20)
#    0.000    0.500    8.750    0.750    3.500    1.500 
#    0.000    0.000    0.000    0.000    0.000    0.875 
#    0.000    0.000    0.000    0.000    0.000    0.000 
#
# Total GULP energy -357047.441791 kJ/mol
# GULP energy per Si atom -5578.866278 kJ/mol
# Density = 1.618647 g / cm^3
# Si number density = 16.223400 Si / 1000 Ang^3
#
#
#
# Elastic Constant Matrix: (Units=GPa)
#
#
# Indices 1 2 3 4 5 6 
#
# 1 120.7172 34.0742 28.6149 0.0000 0.0000 0.0000
# 2 34.0742 82.0858 29.6203 0.0000 0.0000 0.0000
# 3 28.6149 29.6203 77.1862 0.0000 0.0000 0.0000
# 4 0.0000 0.0000 0.0000 28.6642 0.0000 0.0000
# 5 0.0000 0.0000 0.0000 0.0000 15.5874 0.0000
# 6 0.0000 0.0000 0.0000 0.0000 0.0000 27.5694
#
#
#
# Elastic Compliance Matrix: (Units=1/GPa)
#
#
# Indices 1 2 3 4 5 6 
#
# 1 0.009750 -0.003184 -0.002393 0.000000 0.000000 0.000000
# 2 -0.003184 0.015180 -0.004645 0.000000 0.000000 0.000000
# 3 -0.002393 -0.004645 0.015625 0.000000 0.000000 0.000000
# 4 0.000000 0.000000 0.000000 0.034887 0.000000 0.000000
# 5 0.000000 0.000000 0.000000 0.000000 0.064154 0.000000
# 6 0.000000 0.000000 0.000000 0.000000 0.000000 0.036272
#
#
# Mechanical properties :
#
#
# Convention : Reuss Voigt Hill
#
# Bulk Modulus (GPa) = 49.72155 51.62312 50.67234
# Shear Modulus (GPa) = 24.62868 26.87618 25.75243
#
# Velocity S-wave (km/s) = 3.90050 4.07459 3.98850
# Velocity P-wave (km/s) = 7.14141 7.35021 7.24656
#
# Compressibility (1/GPa) = 0.02011200
#
# Stress axis : x y z
#
# Youngs Moduli (GPa) = 102.56787 65.87564 63.99888
#
# Poissons Ratio (x) = 0.20973 0.15313
# Poissons Ratio (y) = 0.32655 0.29728
# Poissons Ratio (z) = 0.24541 0.30600
#
# Static dielectric constant tensor:
#      x y z
#    x 1.523400 0.000000 0.000000 
#    y 0.000000 1.550740 0.000000 
#    z 0.000000 0.000000 1.556070 
# 
# From -- ./inp_files/17438.got.cif
#   From: 2010.05.17/outbox.cif.g08.bks.cpg/sg62_9_cif.got.tgz:17438.got - 2010.06.03 15:25:27.
