data_PCOD9466412
_publ_section_title
;
Structure prediction by ZEFSAII (Michael W. Deem and Ramdas Pophale) SiO2 
 PCOD9466412
Probable space group: P N M A
;
_chemical_formula_sum "Si O2"
_cell_formula_units_Z 48
_cell_length_a 8.282371
_cell_length_b 12.783950
_cell_length_c 18.050088
_cell_angle_alpha 90.000000
_cell_angle_beta 90.000000
_cell_angle_gamma 90.000000
_cell_volume 1911.168890
_symmetry_space_group_name_H-M "P N M A"
_symmetry_group_IT_number 62
_symmetry_cell_setting 'orthorhombic'
loop_
_space_group_symop_operation_xyz
x,y,z
1/2-x,-y,1/2+z
1/2+x,1/2-y,1/2-z
-x,1/2+y,-z
-x,-y,-z
1/2+x,y,1/2-z
1/2-x,1/2+y,1/2+z
x,1/2-y,z
loop_
_atom_site_type_symbol
_atom_site_label
_atom_site_fract_x
_atom_site_fract_y
_atom_site_fract_z
Si Si1 0.673740 0.513856 0.820605
Si Si2 0.134956 0.064018 0.373804
Si Si3 0.013226 0.124443 0.131467
Si Si4 0.354304 0.865589 0.038361
Si Si5 0.975861 0.863524 0.031003
Si Si6 0.699150 0.373367 0.677000
O O1 0.519829 0.592315 0.823706
O O2 0.846184 0.571641 0.819799
O O3 0.651096 0.447778 0.895635
O O4 0.664274 0.431423 0.753588
O O5 0.318899 0.104859 0.356344
O O6 0.090536 0.094440 0.457804
O O7 0.158673 0.939182 0.361158
O O8 0.031090 0.250000 0.133132
O O9 0.062067 0.083787 0.047578
O O10 0.424132 0.750000 0.055728
O O11 0.164617 0.850685 0.024633
O O12 0.890524 0.750000 0.026427
O O13 0.938745 0.893042 0.115424
O O14 0.724694 0.250000 0.688304
#
# Coordination Sequence:
#
# PCOD9466412 Si02
#       6
#     8   8   8   8   8   8
#     4  12  26  42  71 110 150 190 240 300 370 448
#     4  11  25  45  71 104 145 189 246 303 354 432
#     4  10  23  48  79 106 138 191 252 308 363 427
#     4  10  21  42  73 106 145 194 248 304 360 428
#     4   8  17  38  70 101 135 186 240 292 355 425
#     4  11  25  43  68 107 153 193 237 298 375 447
#
# _framework density 25.11552
#
# number of rings (size 3 to 8) (size 9 to 14) (size 15 to 20)
#    0.000    1.667    0.000    4.500    4.667    5.333 
#    0.000    3.333    0.000    0.000    0.000    0.000 
#    0.000    0.000    0.000    0.000    0.000    0.000 
#
# Total GULP energy -267722.213937 kJ/mol
# GULP energy per Si atom -5577.546124 kJ/mol
# Density = 2.505836 g / cm^3
# Si number density = 25.115520 Si / 1000 Ang^3
#
#
#
# Elastic Constant Matrix: (Units=GPa)
#
#
# Indices 1 2 3 4 5 6 
#
# 1 102.9806 61.5612 59.3855 0.0000 0.0000 0.0000
# 2 61.5612 121.2909 48.3898 0.0000 0.0000 0.0000
# 3 59.3855 48.3898 117.2636 0.0000 0.0000 0.0000
# 4 0.0000 0.0000 0.0000 30.7827 0.0000 0.0000
# 5 0.0000 0.0000 0.0000 0.0000 12.6770 0.0000
# 6 0.0000 0.0000 0.0000 0.0000 0.0000 16.3399
#
#
#
# Elastic Compliance Matrix: (Units=1/GPa)
#
#
# Indices 1 2 3 4 5 6 
#
# 1 0.016848 -0.006162 -0.005990 0.000000 0.000000 0.000000
# 2 -0.006162 0.012123 -0.001882 0.000000 0.000000 0.000000
# 3 -0.005990 -0.001882 0.012338 0.000000 0.000000 0.000000
# 4 0.000000 0.000000 0.000000 0.032486 0.000000 0.000000
# 5 0.000000 0.000000 0.000000 0.000000 0.078883 0.000000
# 6 0.000000 0.000000 0.000000 0.000000 0.000000 0.061200
#
#
# Mechanical properties :
#
#
# Convention : Reuss Voigt Hill
#
# Bulk Modulus (GPa) = 75.51849 75.57868 75.54859
# Shear Modulus (GPa) = 20.29567 23.43985 21.86776
#
# Velocity S-wave (km/s) = 2.84578 3.05828 2.95394
# Velocity P-wave (km/s) = 6.39779 6.52905 6.46375
#
# Compressibility (1/GPa) = 0.01324179
#
# Stress axis : x y z
#
# Youngs Moduli (GPa) = 59.35443 82.48877 81.05161
#
# Poissons Ratio (x) = 0.50826 0.48547
# Poissons Ratio (y) = 0.36572 0.15256
# Poissons Ratio (z) = 0.35551 0.15526
#
# Static dielectric constant tensor:
#      x y z
#    x 2.054520 0.000000 0.000000 
#    y 0.000000 2.114850 0.000000 
#    z 0.000000 0.000000 3.822930 
# 
# From -- ./inp_files/19072.got.cif
#   From: 2010.05.17/outbox.cif.g08.bks.cpg/sg62_10_cif.got.tgz:19072.got - 2010.06.03 15:25:27.
