data_PCOD9466612
_publ_section_title
;
Structure prediction by ZEFSAII (Michael W. Deem and Ramdas Pophale) SiO2 
 PCOD9466612
Probable space group: P N M A
;
_chemical_formula_sum "Si O2"
_cell_formula_units_Z 56
_cell_length_a 5.231896
_cell_length_b 19.941112
_cell_length_c 25.378332
_cell_angle_alpha 90.000000
_cell_angle_beta 90.000000
_cell_angle_gamma 90.000000
_cell_volume 2647.716914
_symmetry_space_group_name_H-M "P N M A"
_symmetry_group_IT_number 62
_symmetry_cell_setting 'orthorhombic'
loop_
_space_group_symop_operation_xyz
x,y,z
1/2-x,-y,1/2+z
1/2+x,1/2-y,1/2-z
-x,1/2+y,-z
-x,-y,-z
1/2+x,y,1/2-z
1/2-x,1/2+y,1/2+z
x,1/2-y,z
loop_
_atom_site_type_symbol
_atom_site_label
_atom_site_fract_x
_atom_site_fract_y
_atom_site_fract_z
Si Si1 0.524697 0.534387 0.057238
Si Si2 0.014570 0.326269 0.509239
Si Si3 0.430751 0.174362 0.714668
Si Si4 0.676367 0.940341 0.629945
Si Si5 0.515603 0.325978 0.438938
Si Si6 0.712348 0.540252 0.337723
Si Si7 0.987355 0.435057 0.281336
O O1 0.746411 0.491471 0.084090
O O2 0.307431 0.530267 0.102385
O O3 0.500000 0.500000 0.000000
O O4 0.554534 0.613709 0.048483
O O5 0.013576 0.250000 0.530683
O O6 0.792887 0.329932 0.465325
O O7 0.290861 0.338807 0.482299
O O8 0.709998 0.168270 0.740780
O O9 0.408079 0.250000 0.692420
O O10 0.375286 0.114959 0.674085
O O11 0.517026 0.880357 0.606052
O O12 0.923379 0.911738 0.660443
O O13 0.518453 0.987797 0.669274
O O14 0.474425 0.250000 0.420183
O O15 0.928075 0.513952 0.296442
O O16 0.225511 0.413196 0.245486
#
# Coordination Sequence:
#
# PCOD9466612 Si02
#       7
#     8   8   8   8   8   8   8
#     4  11  23  38  59  92 132 168 209 271 313 368
#     4  10  22  40  61  85 121 172 211 250 307 364
#     4  10  23  42  65  90 125 169 211 262 321 381
#     4  11  24  38  66  97 123 163 209 258 326 367
#     4  10  22  41  64  88 120 162 211 253 301 376
#     4  11  24  37  62  95 126 169 212 260 316 373
#     4  11  22  39  61  92 122 154 195 254 308 376
#
# _framework density 21.150296999999998
#
# number of rings (size 3 to 8) (size 9 to 14) (size 15 to 20)
#    0.000    1.429    2.857    1.714    8.000    1.714 
#    0.000    0.714    0.000    0.857    0.000    0.000 
#    0.000    0.000    0.000    0.000    0.000    0.000 
#
# Total GULP energy -312253.822505 kJ/mol
# GULP energy per Si atom -5575.961116 kJ/mol
# Density = 2.110216 g / cm^3
# Si number density = 21.150297 Si / 1000 Ang^3
#
#
#
# Elastic Constant Matrix: (Units=GPa)
#
#
# Indices 1 2 3 4 5 6 
#
# 1 84.0940 7.7304 22.3622 0.0000 0.0000 0.0000
# 2 7.7304 52.5210 4.7087 0.0000 0.0000 0.0000
# 3 22.3622 4.7087 47.9698 0.0000 0.0000 0.0000
# 4 0.0000 0.0000 0.0000 31.3289 0.0000 0.0000
# 5 0.0000 0.0000 0.0000 0.0000 29.2273 0.0000
# 6 0.0000 0.0000 0.0000 0.0000 0.0000 24.5358
#
#
#
# Elastic Compliance Matrix: (Units=1/GPa)
#
#
# Indices 1 2 3 4 5 6 
#
# 1 0.013683 -0.001455 -0.006236 0.000000 0.000000 0.000000
# 2 -0.001455 0.019364 -0.001222 0.000000 0.000000 0.000000
# 3 -0.006236 -0.001222 0.023874 0.000000 0.000000 0.000000
# 4 0.000000 0.000000 0.000000 0.031919 0.000000 0.000000
# 5 0.000000 0.000000 0.000000 0.000000 0.034215 0.000000
# 6 0.000000 0.000000 0.000000 0.000000 0.000000 0.040757
#
#
# Mechanical properties :
#
#
# Convention : Reuss Voigt Hill
#
# Bulk Modulus (GPa) = 25.57948 28.24303 26.91126
# Shear Modulus (GPa) = 25.68453 27.00397 26.34425
#
# Velocity S-wave (km/s) = 3.48858 3.57706 3.53310
# Velocity P-wave (km/s) = 5.32422 5.51752 5.42173
#
# Compressibility (1/GPa) = 0.03909383
#
# Stress axis : x y z
#
# Youngs Moduli (GPa) = 73.08080 51.64288 41.88742
#
# Poissons Ratio (x) = 0.07514 0.26121
# Poissons Ratio (y) = 0.10633 0.05121
# Poissons Ratio (z) = 0.45574 0.06313
#
# Static dielectric constant tensor:
#      x y z
#    x 1.847410 0.000000 0.000000 
#    y 0.000000 1.760550 0.000000 
#    z 0.000000 0.000000 1.818760 
# 
# From -- ./inp_files/28381.got.cif
#   From: 2010.05.17/outbox.cif.g08.bks.cpg/sg62_15_cif.got.tgz:28381.got - 2010.06.03 15:25:27.
