data_PCOD9466609
_publ_section_title
;
Structure prediction by ZEFSAII (Michael W. Deem and Ramdas Pophale) SiO2 
 PCOD9466609
Probable space group: P N M A
;
_chemical_formula_sum "Si O2"
_cell_formula_units_Z 56
_cell_length_a 21.802727
_cell_length_b 8.026624
_cell_length_c 15.086946
_cell_angle_alpha 90.000000
_cell_angle_beta 90.000000
_cell_angle_gamma 90.000000
_cell_volume 2640.250126
_symmetry_space_group_name_H-M "P N M A"
_symmetry_group_IT_number 62
_symmetry_cell_setting 'orthorhombic'
loop_
_space_group_symop_operation_xyz
x,y,z
1/2-x,-y,1/2+z
1/2+x,1/2-y,1/2-z
-x,1/2+y,-z
-x,-y,-z
1/2+x,y,1/2-z
1/2-x,1/2+y,1/2+z
x,1/2-y,z
loop_
_atom_site_type_symbol
_atom_site_label
_atom_site_fract_x
_atom_site_fract_y
_atom_site_fract_z
Si Si1 0.843006 0.551784 0.392136
Si Si2 0.431817 0.448975 0.606655
Si Si3 0.811546 0.047789 0.202620
Si Si4 0.017215 0.555020 0.599535
Si Si5 0.903401 0.055024 0.703589
Si Si6 0.072336 0.952032 0.909401
Si Si7 0.297116 0.554737 0.921669
O O1 0.850755 0.750000 0.402477
O O2 0.806658 0.515283 0.302457
O O3 0.911159 0.477015 0.384923
O O4 0.810001 0.484674 0.480662
O O5 0.423252 0.250000 0.607852
O O6 0.400654 0.513599 0.696229
O O7 0.504432 0.484912 0.611505
O O8 0.411085 0.508758 0.509620
O O9 0.810051 0.250000 0.205202
O O10 0.876665 0.996115 0.160711
O O11 0.758181 0.985618 0.137386
O O12 0.004567 0.750000 0.609095
O O13 0.000000 0.500000 0.500000
O O14 0.972617 0.462051 0.667612
O O15 0.886575 0.250000 0.703110
O O16 0.858758 0.963956 0.635570
O O17 0.070062 0.750000 0.909811
O O18 0.282851 0.750000 0.934046
#
# Coordination Sequence:
#
# PCOD9466609 Si02
#       7
#     8   8   8   8   8   8   8
#     4  11  23  40  62  89 120 157 199 248 304 360
#     4   9  19  34  55  84 115 144 184 235 287 347
#     4  10  22  40  61  84 113 156 203 246 296 356
#     4  12  23  37  60  89 122 157 195 245 301 360
#     4  11  22  36  58  88 120 154 195 244 299 358
#     4   9  18  35  57  81 111 148 189 234 289 346
#     4  10  23  41  59  81 115 155 197 243 293 352
#
# _framework density 21.210111999999999
#
# number of rings (size 3 to 8) (size 9 to 14) (size 15 to 20)
#    0.000    1.714    1.429    3.000    0.000    6.286 
#    0.000    2.857    0.000    0.000    0.000    0.000 
#    0.000    0.000    0.000    0.000    0.000    0.000 
#
# Total GULP energy -312916.614014 kJ/mol
# GULP energy per Si atom -5587.796679 kJ/mol
# Density = 2.116184 g / cm^3
# Si number density = 21.210112 Si / 1000 Ang^3
#
#
#
# Elastic Constant Matrix: (Units=GPa)
#
#
# Indices 1 2 3 4 5 6 
#
# 1 41.5203 -9.9200 29.9882 0.0000 0.0000 0.0000
# 2 -9.9200 22.3667 -8.1596 0.0000 0.0000 0.0000
# 3 29.9882 -8.1596 159.8199 0.0000 0.0000 0.0000
# 4 0.0000 0.0000 0.0000 17.1276 0.0000 0.0000
# 5 0.0000 0.0000 0.0000 0.0000 23.6409 0.0000
# 6 0.0000 0.0000 0.0000 0.0000 0.0000 16.2711
#
#
#
# Elastic Compliance Matrix: (Units=1/GPa)
#
#
# Indices 1 2 3 4 5 6 
#
# 1 0.030593 0.011692 -0.005143 0.000000 0.000000 0.000000
# 2 0.011692 0.050026 0.000360 0.000000 0.000000 0.000000
# 3 -0.005143 0.000360 0.007241 0.000000 0.000000 0.000000
# 4 0.000000 0.000000 0.000000 0.058385 0.000000 0.000000
# 5 0.000000 0.000000 0.000000 0.000000 0.042300 0.000000
# 6 0.000000 0.000000 0.000000 0.000000 0.000000 0.061459
#
#
# Mechanical properties :
#
#
# Convention : Reuss Voigt Hill
#
# Bulk Modulus (GPa) = 9.83500 27.50266 18.66883
# Shear Modulus (GPa) = 18.51317 25.52781 22.02049
#
# Velocity S-wave (km/s) = 2.95760 3.47301 3.22562
# Velocity P-wave (km/s) = 4.03859 5.39234 4.76380
#
# Compressibility (1/GPa) = 0.10167764
#
# Stress axis : x y z
#
# Youngs Moduli (GPa) = 32.68728 19.98946 138.11130
#
# Poissons Ratio (x) = -0.23372 0.71037
# Poissons Ratio (y) = -0.38218 -0.04975
# Poissons Ratio (z) = 0.16813 -0.00720
#
# Static dielectric constant tensor:
#      x y z
#    x 1.724040 0.000000 0.000000 
#    y 0.000000 1.734120 0.000000 
#    z 0.000000 0.000000 1.786470 
# 
# From -- ./inp_files/20352.got.cif
#   From: 2010.05.17/outbox.cif.g08.bks.cpg/sg62_11_cif.got.tgz:20352.got - 2010.06.03 15:25:27.
