data_PCOD9466298
_publ_section_title
;
Structure prediction by ZEFSAII (Michael W. Deem and Ramdas Pophale) SiO2 
 PCOD9466298
Probable space group: P N M A
;
_chemical_formula_sum "Si O2"
_cell_formula_units_Z 40
_cell_length_a 13.293756
_cell_length_b 14.406309
_cell_length_c 8.726873
_cell_angle_alpha 90.000000
_cell_angle_beta 90.000000
_cell_angle_gamma 90.000000
_cell_volume 1671.317978
_symmetry_space_group_name_H-M "P N M A"
_symmetry_group_IT_number 62
_symmetry_cell_setting 'orthorhombic'
loop_
_space_group_symop_operation_xyz
x,y,z
1/2-x,-y,1/2+z
1/2+x,1/2-y,1/2-z
-x,1/2+y,-z
-x,-y,-z
1/2+x,y,1/2-z
1/2-x,1/2+y,1/2+z
x,1/2-y,z
loop_
_atom_site_type_symbol
_atom_site_label
_atom_site_fract_x
_atom_site_fract_y
_atom_site_fract_z
Si Si1 0.574552 0.250000 0.751022
Si Si2 0.054335 0.400729 0.501322
Si Si3 0.724470 0.398180 0.591637
Si Si4 0.563564 0.250000 0.257060
Si Si5 0.290345 0.250000 0.130962
Si Si6 0.394515 0.250000 0.451377
Si Si7 0.709742 0.928886 0.415441
O O1 0.644999 0.329646 0.667370
O O2 0.523144 0.167862 0.859910
O O3 0.040969 0.341161 0.345340
O O4 0.175216 0.414026 0.526190
O O5 0.000000 0.500000 0.500000
O O6 0.794065 0.340504 0.475129
O O7 0.786182 0.439398 0.733811
O O8 0.671442 0.479825 0.498805
O O9 0.681657 0.250000 0.289170
O O10 0.513091 0.250000 0.426303
O O11 0.363000 0.250000 0.274456
O O12 0.353075 0.338954 0.537619
#
# Coordination Sequence:
#
# PCOD9466298 Si02
#       7
#     4   8   8   4   4   4   8
#     4   8  19  40  58  93 143 171 218 302 349 397
#     4  10  21  40  68  98 141 181 241 291 348 437
#     4  10  22  39  71  95 131 185 229 279 370 417
#     4  11  25  41  67 108 134 191 236 291 371 421
#     4  11  22  45  66  97 143 183 226 296 354 434
#     4  12  24  42  71  98 150 181 238 295 362 436
#     4  11  22  42  67 103 133 187 231 297 355 424
#
# _framework density 23.933206999999999
#
# number of rings (size 3 to 8) (size 9 to 14) (size 15 to 20)
#    0.000    1.600    2.000    4.200    8.400    0.000 
#    0.000    7.000    4.400    0.000    0.000    0.000 
#    0.000    0.000    0.000    0.000    0.000    0.000 
#
# Total GULP energy -222907.291660 kJ/mol
# GULP energy per Si atom -5572.682292 kJ/mol
# Density = 2.387873 g / cm^3
# Si number density = 23.933207 Si / 1000 Ang^3
#
#
#
# Elastic Constant Matrix: (Units=GPa)
#
#
# Indices 1 2 3 4 5 6 
#
# 1 54.7640 1.4968 2.7225 0.0000 0.0000 0.0000
# 2 1.4968 182.6840 54.4700 0.0000 0.0000 0.0000
# 3 2.7225 54.4700 115.1712 0.0000 0.0000 0.0000
# 4 0.0000 0.0000 0.0000 35.7802 0.0000 0.0000
# 5 0.0000 0.0000 0.0000 0.0000 39.6875 0.0000
# 6 0.0000 0.0000 0.0000 0.0000 0.0000 97.7776
#
#
#
# Elastic Compliance Matrix: (Units=1/GPa)
#
#
# Indices 1 2 3 4 5 6 
#
# 1 0.018282 -0.000024 -0.000421 0.000000 0.000000 0.000000
# 2 -0.000024 0.006373 -0.003013 0.000000 0.000000 0.000000
# 3 -0.000421 -0.003013 0.010118 0.000000 0.000000 0.000000
# 4 0.000000 0.000000 0.000000 0.027948 0.000000 0.000000
# 5 0.000000 0.000000 0.000000 0.000000 0.025197 0.000000
# 6 0.000000 0.000000 0.000000 0.000000 0.000000 0.010227
#
#
# Mechanical properties :
#
#
# Convention : Reuss Voigt Hill
#
# Bulk Modulus (GPa) = 35.89958 52.22199 44.06079
# Shear Modulus (GPa) = 43.72673 54.24440 48.98556
#
# Velocity S-wave (km/s) = 4.27902 4.76593 4.52902
# Velocity P-wave (km/s) = 6.28059 7.22169 6.76751
#
# Compressibility (1/GPa) = 0.02785548
#
# Stress axis : x y z
#
# Youngs Moduli (GPa) = 54.69941 156.92167 98.83549
#
# Poissons Ratio (x) = 0.00382 0.04157
# Poissons Ratio (y) = 0.00133 0.29782
# Poissons Ratio (z) = 0.02301 0.47286
#
# Static dielectric constant tensor:
#      x y z
#    x 1.962680 0.000000 0.000000 
#    y 0.000000 1.849940 0.000000 
#    z 0.000000 0.000000 1.914460 
# 
# From -- ./inp_files/6176.got.cif
#   From: 2010.05.17/outbox.cif.g08.bks.cpg/sg62_4_cif.got.tgz:6176.got - 2010.06.03 15:25:27.
