data_PCOD9466512
_publ_section_title
;
Structure prediction by ZEFSAII (Michael W. Deem and Ramdas Pophale) SiO2 
 PCOD9466512
Probable space group: P N M A
;
_chemical_formula_sum "Si O2"
_cell_formula_units_Z 48
_cell_length_a 23.005618
_cell_length_b 13.362039
_cell_length_c 7.443192
_cell_angle_alpha 90.000000
_cell_angle_beta 90.000000
_cell_angle_gamma 90.000000
_cell_volume 2288.051846
_symmetry_space_group_name_H-M "P N M A"
_symmetry_group_IT_number 62
_symmetry_cell_setting 'orthorhombic'
loop_
_space_group_symop_operation_xyz
x,y,z
1/2-x,-y,1/2+z
1/2+x,1/2-y,1/2-z
-x,1/2+y,-z
-x,-y,-z
1/2+x,y,1/2-z
1/2-x,1/2+y,1/2+z
x,1/2-y,z
loop_
_atom_site_type_symbol
_atom_site_label
_atom_site_fract_x
_atom_site_fract_y
_atom_site_fract_z
Si Si1 0.288801 0.368177 0.636272
Si Si2 0.524888 0.138461 0.667380
Si Si3 0.991476 0.926208 0.779808
Si Si4 0.190309 0.520218 0.499849
Si Si5 0.596712 0.140015 0.005161
Si Si6 0.625971 0.631915 0.680628
O O1 0.272728 0.250000 0.624378
O O2 0.241937 0.444125 0.550614
O O3 0.347211 0.381664 0.517764
O O4 0.295395 0.402658 0.841822
O O5 0.499617 0.250000 0.686440
O O6 0.537772 0.117966 0.458905
O O7 0.581275 0.134085 0.794478
O O8 0.484600 0.045991 0.725393
O O9 0.036008 0.125063 0.392117
O O10 0.060084 0.906281 0.800239
O O11 0.138505 0.447646 0.435836
O O12 0.167080 0.576929 0.676073
O O13 0.620396 0.250000 0.044967
O O14 0.625568 0.750000 0.718783
#
# Coordination Sequence:
#
# PCOD9466512 Si02
#       6
#     8   8   8   8   8   8
#     4  11  26  47  70  97 130 174 225 279 339 397
#     4  10  22  38  60  89 127 172 212 253 314 383
#     4  11  23  42  64  96 139 172 213 267 323 395
#     4  12  24  45  70  97 131 175 221 283 333 395
#     4  11  24  41  65  98 133 173 218 267 327 394
#     4  11  24  43  68 100 135 173 221 271 329 398
#
# _framework density 20.978546000000001
#
# number of rings (size 3 to 8) (size 9 to 14) (size 15 to 20)
#    0.000    1.000    3.333    3.000    4.667    0.000 
#    0.000    0.000    0.000    0.000    0.000    0.000 
#    0.000    0.000    0.000    0.000    0.000    0.000 
#
# Total GULP energy -268240.849834 kJ/mol
# GULP energy per Si atom -5588.351038 kJ/mol
# Density = 2.093080 g / cm^3
# Si number density = 20.978546 Si / 1000 Ang^3
#
#
#
# Elastic Constant Matrix: (Units=GPa)
#
#
# Indices 1 2 3 4 5 6 
#
# 1 66.0831 21.3923 21.2101 0.0000 0.0000 0.0000
# 2 21.3923 144.2050 23.1062 0.0000 0.0000 0.0000
# 3 21.2101 23.1062 82.2162 0.0000 0.0000 0.0000
# 4 0.0000 0.0000 0.0000 -29.1769 0.0000 0.0000
# 5 0.0000 0.0000 0.0000 0.0000 22.0670 0.0000
# 6 0.0000 0.0000 0.0000 0.0000 0.0000 11.7408
#
#
#
# Elastic Compliance Matrix: (Units=1/GPa)
#
#
# Indices 1 2 3 4 5 6 
#
# 1 0.016983 -0.001903 -0.003846 0.000000 0.000000 0.000000
# 2 -0.001903 0.007475 -0.001610 0.000000 0.000000 0.000000
# 3 -0.003846 -0.001610 0.013608 0.000000 0.000000 0.000000
# 4 0.000000 0.000000 0.000000 -0.034274 0.000000 0.000000
# 5 0.000000 0.000000 0.000000 0.000000 0.045317 0.000000
# 6 0.000000 0.000000 0.000000 0.000000 0.000000 0.085173
#
#
# Mechanical properties :
#
#
# Convention : Reuss Voigt Hill
#
# Bulk Modulus (GPa) = 42.83190 47.10240 44.96715
# Shear Modulus (GPa) = 31.89131 16.04590 23.96860
#
# Velocity S-wave (km/s) = 3.90319 2.76863 3.38380
# Velocity P-wave (km/s) = 6.38549 5.72030 6.06203
#
# Compressibility (1/GPa) = 0.02334709
#
# Stress axis : x y z
#
# Youngs Moduli (GPa) = 58.88219 133.78236 73.48743
#
# Poissons Ratio (x) = 0.25460 0.28266
# Poissons Ratio (y) = 0.11206 0.11830
# Poissons Ratio (z) = 0.22649 0.21536
#
# Static dielectric constant tensor:
#      x y z
#    x 1.747300 0.000000 0.000000 
#    y 0.000000 1.759970 0.000000 
#    z 0.000000 0.000000 1.748020 
# 
# From -- ./inp_files/10351.got.cif
#   From: 2010.05.17/outbox.cif.g08.bks.cpg/sg62_6_cif.got.tgz:10351.got - 2010.06.03 15:25:27.
