data_PCOD9466791
_publ_section_title
;
Structure prediction by ZEFSAII (Michael W. Deem and Ramdas Pophale) SiO2 
 PCOD9466791
Probable space group: P N M A
;
_chemical_formula_sum "Si O2"
_cell_formula_units_Z 48
_cell_length_a 10.268015
_cell_length_b 14.757321
_cell_length_c 16.592120
_cell_angle_alpha 90.000000
_cell_angle_beta 90.000000
_cell_angle_gamma 90.000000
_cell_volume 2514.177286
_symmetry_space_group_name_H-M "P N M A"
_symmetry_group_IT_number 62
_symmetry_cell_setting 'orthorhombic'
loop_
_space_group_symop_operation_xyz
x,y,z
1/2-x,-y,1/2+z
1/2+x,1/2-y,1/2-z
-x,1/2+y,-z
-x,-y,-z
1/2+x,y,1/2-z
1/2-x,1/2+y,1/2+z
x,1/2-y,z
loop_
_atom_site_type_symbol
_atom_site_label
_atom_site_fract_x
_atom_site_fract_y
_atom_site_fract_z
Si Si1 0.482283 0.358660 0.205327
Si Si2 0.627757 0.859649 0.207083
Si Si3 0.690382 0.141094 0.340407
Si Si4 0.096366 0.492033 0.425423
Si Si5 0.861335 0.953541 0.010148
Si Si6 0.909094 0.642735 0.175169
O O1 0.492267 0.250000 0.194735
O O2 0.328076 0.381776 0.203384
O O3 0.565070 0.381698 0.285327
O O4 0.551258 0.411256 0.132379
O O5 0.617222 0.750000 0.195540
O O6 0.536250 0.891861 0.279596
O O7 0.778356 0.882125 0.223521
O O8 0.590512 0.915699 0.127581
O O9 0.689974 0.250000 0.352262
O O10 0.681359 0.093138 0.426890
O O11 0.243281 0.483352 0.458860
O O12 0.000000 0.500000 0.500000
O O13 0.885369 0.885214 0.083947
O O14 0.000000 0.000000 0.000000
O O15 0.920445 0.750000 0.177141
#
# Coordination Sequence:
#
# PCOD9466791 Si02
#       6
#     8   8   8   8   8   8
#     4  10  23  41  65  91 120 162 209 259 311 369
#     4   9  20  36  60  86 116 152 193 238 292 355
#     4  10  22  42  65  87 121 165 209 255 310 369
#     4  11  23  40  60  88 121 159 203 248 305 361
#     4  11  24  38  58  92 122 159 202 251 307 360
#     4   9  19  38  59  84 115 154 194 237 294 356
#
# _framework density 19.091732
#
# number of rings (size 3 to 8) (size 9 to 14) (size 15 to 20)
#    0.000    2.000    1.667    0.500    4.667    4.000 
#    0.000    0.833    0.000    0.000    0.000    0.000 
#    0.000    0.000    0.000    0.000    0.000    0.000 
#
# Total GULP energy -267797.437305 kJ/mol
# GULP energy per Si atom -5579.113277 kJ/mol
# Density = 1.904828 g / cm^3
# Si number density = 19.091732 Si / 1000 Ang^3
#
#
#
# Elastic Constant Matrix: (Units=GPa)
#
#
# Indices 1 2 3 4 5 6 
#
# 1 137.2990 23.4010 57.8763 0.0000 0.0000 0.0000
# 2 23.4010 39.2205 15.9120 0.0000 0.0000 0.0000
# 3 57.8763 15.9120 96.3478 0.0000 0.0000 0.0000
# 4 0.0000 0.0000 0.0000 31.0281 0.0000 0.0000
# 5 0.0000 0.0000 0.0000 0.0000 43.2710 0.0000
# 6 0.0000 0.0000 0.0000 0.0000 0.0000 24.1831
#
#
#
# Elastic Compliance Matrix: (Units=1/GPa)
#
#
# Indices 1 2 3 4 5 6 
#
# 1 0.010278 -0.003888 -0.005532 0.000000 0.000000 0.000000
# 2 -0.003888 0.028799 -0.002421 0.000000 0.000000 0.000000
# 3 -0.005532 -0.002421 0.014102 0.000000 0.000000 0.000000
# 4 0.000000 0.000000 0.000000 0.032229 0.000000 0.000000
# 5 0.000000 0.000000 0.000000 0.000000 0.023110 0.000000
# 6 0.000000 0.000000 0.000000 0.000000 0.000000 0.041351
#
#
# Mechanical properties :
#
#
# Convention : Reuss Voigt Hill
#
# Bulk Modulus (GPa) = 33.90116 51.91620 42.90868
# Shear Modulus (GPa) = 27.26545 31.40829 29.33687
#
# Velocity S-wave (km/s) = 3.78316 4.06041 3.92424
# Velocity P-wave (km/s) = 6.07277 7.01674 6.56176
#
# Compressibility (1/GPa) = 0.02949752
#
# Stress axis : x y z
#
# Youngs Moduli (GPa) = 97.29608 34.72372 70.91282
#
# Poissons Ratio (x) = 0.13501 0.39228
# Poissons Ratio (y) = 0.37829 0.17165
# Poissons Ratio (z) = 0.53823 0.08405
#
# Static dielectric constant tensor:
#      x y z
#    x 1.685180 0.000000 0.000000 
#    y 0.000000 1.613780 0.000000 
#    z 0.000000 0.000000 1.676050 
# 
# From -- ./inp_files/16976.got.cif
#   From: 2010.05.17/outbox.cif.g08.bks.cpg/sg62_9_cif.got.tgz:16976.got - 2010.06.03 15:25:27.
