data_PCOD9466039
_publ_section_title
;
Structure prediction by ZEFSAII (Michael W. Deem and Ramdas Pophale) SiO2 
 PCOD9466039
Probable space group: P N M A
;
_chemical_formula_sum "Si O2"
_cell_formula_units_Z 32
_cell_length_a 5.001129
_cell_length_b 23.050371
_cell_length_c 11.275538
_cell_angle_alpha 90.000000
_cell_angle_beta 90.000000
_cell_angle_gamma 90.000000
_cell_volume 1299.820104
_symmetry_space_group_name_H-M "P N M A"
_symmetry_group_IT_number 62
_symmetry_cell_setting 'orthorhombic'
loop_
_space_group_symop_operation_xyz
x,y,z
1/2-x,-y,1/2+z
1/2+x,1/2-y,1/2-z
-x,1/2+y,-z
-x,-y,-z
1/2+x,y,1/2-z
1/2-x,1/2+y,1/2+z
x,1/2-y,z
loop_
_atom_site_type_symbol
_atom_site_label
_atom_site_fract_x
_atom_site_fract_y
_atom_site_fract_z
Si Si1 0.565492 0.879693 0.316388
Si Si2 0.262868 0.683038 0.673578
Si Si3 0.693801 0.488300 0.611498
Si Si4 0.082931 0.404021 0.469753
O O1 0.280537 0.855646 0.276768
O O2 0.496976 0.949443 0.305484
O O3 0.690263 0.874623 0.447351
O O4 0.569996 0.674820 0.710886
O O5 0.228974 0.750000 0.636840
O O6 0.132910 0.640129 0.580256
O O7 0.500000 0.500000 0.500000
O O8 0.807768 0.552626 0.633323
O O9 0.923569 0.446614 0.559204
#
# Coordination Sequence:
#
# PCOD9466039 Si02
#       4
#     8   8   8   8
#     4  11  21  35  55  85 121 159 194 236 291 361
#     4  10  24  43  65  93 119 156 210 258 309 362
#     4   9  20  35  53  87 125 158 203 240 297 370
#     4  10  21  39  60  86 124 161 203 253 303 364
#
# _framework density 24.618790000000001
#
# number of rings (size 3 to 8) (size 9 to 14) (size 15 to 20)
#    0.000    2.000    2.500    0.000    7.000    2.000 
#    0.000    0.000    0.000    1.500    0.000    0.000 
#    0.000    0.000    0.000    0.000    0.000    0.000 
#
# Total GULP energy -178620.270658 kJ/mol
# GULP energy per Si atom -5581.883458 kJ/mol
# Density = 2.456276 g / cm^3
# Si number density = 24.618790 Si / 1000 Ang^3
#
#
#
# Elastic Constant Matrix: (Units=GPa)
#
#
# Indices 1 2 3 4 5 6 
#
# 1 122.0353 -10.3441 -1.6106 0.0000 0.0000 0.0000
# 2 -10.3441 56.4521 8.4216 0.0000 0.0000 0.0000
# 3 -1.6106 8.4216 57.3278 0.0000 0.0000 0.0000
# 4 0.0000 0.0000 0.0000 30.2559 0.0000 0.0000
# 5 0.0000 0.0000 0.0000 0.0000 34.1273 0.0000
# 6 0.0000 0.0000 0.0000 0.0000 0.0000 25.2343
#
#
#
# Elastic Compliance Matrix: (Units=1/GPa)
#
#
# Indices 1 2 3 4 5 6 
#
# 1 0.008324 0.001524 0.000010 0.000000 0.000000 0.000000
# 2 0.001524 0.018390 -0.002659 0.000000 0.000000 0.000000
# 3 0.000010 -0.002659 0.017834 0.000000 0.000000 0.000000
# 4 0.000000 0.000000 0.000000 0.033051 0.000000 0.000000
# 5 0.000000 0.000000 0.000000 0.000000 0.029302 0.000000
# 6 0.000000 0.000000 0.000000 0.000000 0.000000 0.039629
#
#
# Mechanical properties :
#
#
# Convention : Reuss Voigt Hill
#
# Bulk Modulus (GPa) = 23.64180 25.41656 24.52918
# Shear Modulus (GPa) = 30.69756 33.88005 32.28880
#
# Velocity S-wave (km/s) = 3.53500 3.71372 3.62546
# Velocity P-wave (km/s) = 5.12695 5.36055 5.24505
#
# Compressibility (1/GPa) = 0.04229797
#
# Stress axis : x y z
#
# Youngs Moduli (GPa) = 120.13979 54.37750 56.07140
#
# Poissons Ratio (x) = -0.08285 -0.00056
# Poissons Ratio (y) = -0.18306 0.14908
# Poissons Ratio (z) = -0.00120 0.14458
#
# Static dielectric constant tensor:
#      x y z
#    x 2.045980 0.000000 0.000000 
#    y 0.000000 1.984370 0.000000 
#    z 0.000000 0.000000 2.106830 
# 
# From -- ./inp_files/16188.got.cif
#   From: 2010.05.17/outbox.cif.g08.bks.cpg/sg62_9_cif.got.tgz:16188.got - 2010.06.03 15:25:27.
