data_PCOD9466886
_publ_section_title
;
Structure prediction by ZEFSAII (Michael W. Deem and Ramdas Pophale) SiO2 
 PCOD9466886
Probable space group: P N M A
;
_chemical_formula_sum "Si O2"
_cell_formula_units_Z 28
_cell_length_a 12.150085
_cell_length_b 7.620570
_cell_length_c 17.244960
_cell_angle_alpha 90.000000
_cell_angle_beta 90.000000
_cell_angle_gamma 90.000000
_cell_volume 1596.720732
_symmetry_space_group_name_H-M "P N M A"
_symmetry_group_IT_number 62
_symmetry_cell_setting 'orthorhombic'
loop_
_space_group_symop_operation_xyz
x,y,z
1/2-x,-y,1/2+z
1/2+x,1/2-y,1/2-z
-x,1/2+y,-z
-x,-y,-z
1/2+x,y,1/2-z
1/2-x,1/2+y,1/2+z
x,1/2-y,z
loop_
_atom_site_type_symbol
_atom_site_label
_atom_site_fract_x
_atom_site_fract_y
_atom_site_fract_z
Si Si1 0.588201 0.750000 0.320286
Si Si2 0.958625 0.458186 0.086960
Si Si3 0.059539 0.750000 0.362675
Si Si4 0.204397 0.053335 0.432437
Si Si5 0.810428 0.750000 0.414699
O O1 0.525350 0.580376 0.354603
O O2 0.586016 0.750000 0.228109
O O3 0.711072 0.750000 0.354786
O O4 0.972204 0.250000 0.100800
O O5 0.828344 0.499054 0.089869
O O6 0.000000 0.500000 0.000000
O O7 0.115750 0.582325 0.402844
O O8 0.929331 0.750000 0.376531
O O9 0.183506 0.250000 0.400319
O O10 0.200920 0.086165 0.525350
#
# Coordination Sequence:
#
# PCOD9466886 Si02
#       5
#     4   8   4   8   4
#     4  12  25  38  61  99 127 154 208 265 318 350
#     4  11  19  38  64  92 120 161 211 253 297 367
#     4  12  25  38  67  87 131 166 190 267 326 348
#     4   9  21  40  65  85 119 163 217 240 297 375
#     4  10  22  44  58  94 122 160 222 244 282 406
#
# _framework density 17.53594
#
# number of rings (size 3 to 8) (size 9 to 14) (size 15 to 20)
#    0.857    0.571    4.286    1.714    4.000    1.143 
#    0.000    0.000    0.000    0.000    0.000    0.000 
#    0.000    0.000    0.000    0.000    0.000    0.000 
#
# Total GULP energy -156191.939456 kJ/mol
# GULP energy per Si atom -5578.283552 kJ/mol
# Density = 1.749603 g / cm^3
# Si number density = 17.535940 Si / 1000 Ang^3
#
#
#
# Elastic Constant Matrix: (Units=GPa)
#
#
# Indices 1 2 3 4 5 6 
#
# 1 183.5664 71.2861 62.9707 0.0000 0.0000 0.0000
# 2 71.2861 77.6649 27.1415 0.0000 0.0000 0.0000
# 3 62.9707 27.1415 96.5585 0.0000 0.0000 0.0000
# 4 0.0000 0.0000 0.0000 6.1854 0.0000 0.0000
# 5 0.0000 0.0000 0.0000 0.0000 9.4212 0.0000
# 6 0.0000 0.0000 0.0000 0.0000 0.0000 27.7183
#
#
#
# Elastic Compliance Matrix: (Units=1/GPa)
#
#
# Indices 1 2 3 4 5 6 
#
# 1 0.009852 -0.007538 -0.004306 0.000000 0.000000 0.000000
# 2 -0.007538 0.020046 -0.000719 0.000000 0.000000 0.000000
# 3 -0.004306 -0.000719 0.013367 0.000000 0.000000 0.000000
# 4 0.000000 0.000000 0.000000 0.161672 0.000000 0.000000
# 5 0.000000 0.000000 0.000000 0.000000 0.106143 0.000000
# 6 0.000000 0.000000 0.000000 0.000000 0.000000 0.036077
#
#
# Mechanical properties :
#
#
# Convention : Reuss Voigt Hill
#
# Bulk Modulus (GPa) = 55.13043 75.62072 65.37557
# Shear Modulus (GPa) = 13.21599 21.75775 17.48687
#
# Velocity S-wave (km/s) = 2.74825 3.52625 3.16128
# Velocity P-wave (km/s) = 6.44805 7.73280 7.11946
#
# Compressibility (1/GPa) = 0.01813880
#
# Stress axis : x y z
#
# Youngs Moduli (GPa) = 101.50046 49.88530 74.81249
#
# Poissons Ratio (x) = 0.37604 0.32216
# Poissons Ratio (y) = 0.76512 0.05377
# Poissons Ratio (z) = 0.43708 0.03585
#
# Static dielectric constant tensor:
#      x y z
#    x 1.577510 0.000000 0.000000 
#    y 0.000000 1.616340 0.000000 
#    z 0.000000 0.000000 1.569020 
# 
# From -- ./inp_files/17551.got.cif
#   From: 2010.05.17/outbox.cif.g08.bks.cpg/sg62_9_cif.got.tgz:17551.got - 2010.06.03 15:25:27.
