data_PCOD9466049
_publ_section_title
;
Structure prediction by ZEFSAII (Michael W. Deem and Ramdas Pophale) SiO2 
 PCOD9466049
Probable space group: P N M A
;
_chemical_formula_sum "Si O2"
_cell_formula_units_Z 40
_cell_length_a 13.669665
_cell_length_b 8.889472
_cell_length_c 18.399890
_cell_angle_alpha 90.000000
_cell_angle_beta 90.000000
_cell_angle_gamma 90.000000
_cell_volume 2235.882952
_symmetry_space_group_name_H-M "P N M A"
_symmetry_group_IT_number 62
_symmetry_cell_setting 'orthorhombic'
loop_
_space_group_symop_operation_xyz
x,y,z
1/2-x,-y,1/2+z
1/2+x,1/2-y,1/2-z
-x,1/2+y,-z
-x,-y,-z
1/2+x,y,1/2-z
1/2-x,1/2+y,1/2+z
x,1/2-y,z
loop_
_atom_site_type_symbol
_atom_site_label
_atom_site_fract_x
_atom_site_fract_y
_atom_site_fract_z
Si Si1 0.905024 0.070433 0.036760
Si Si2 0.402665 0.070708 0.171084
Si Si3 0.805439 0.928856 0.468621
Si Si4 0.376200 0.930343 0.872293
Si Si5 0.321411 0.929269 0.318081
O O1 0.915284 0.250000 0.044219
O O2 0.883080 0.999034 0.115254
O O3 0.807856 0.042020 0.988467
O O4 0.000000 0.000000 0.000000
O O5 0.394622 0.250000 0.180424
O O6 0.516595 0.033582 0.156890
O O7 0.343029 0.019100 0.100248
O O8 0.362435 0.988844 0.242130
O O9 0.816810 0.750000 0.455336
O O10 0.865086 0.967444 0.542124
O O11 0.359928 0.750000 0.866231
O O12 0.289462 0.013737 0.830396
O O13 0.325115 0.750000 0.321276
#
# Coordination Sequence:
#
# PCOD9466049 Si02
#       5
#     8   8   8   8   8
#     4  10  21  39  61  84 113 149 189 231 276 330
#     4  11  22  36  58  85 113 147 185 228 279 333
#     4   9  19  36  57  83 113 142 180 229 275 328
#     4   9  20  39  59  80 110 146 183 227 277 330
#     4  11  23  38  57  82 113 148 186 231 280 327
#
# _framework density 17.890025000000001
#
# number of rings (size 3 to 8) (size 9 to 14) (size 15 to 20)
#    0.000    2.000    0.000    4.800    0.000    7.200 
#    0.000    0.000    0.000    0.000    0.000    0.000 
#    0.000    0.000    0.000    0.000    0.000    0.000 
#
# Total GULP energy -223466.873136 kJ/mol
# GULP energy per Si atom -5586.671828 kJ/mol
# Density = 1.784931 g / cm^3
# Si number density = 17.890025 Si / 1000 Ang^3
#
#
#
# Elastic Constant Matrix: (Units=GPa)
#
#
# Indices 1 2 3 4 5 6 
#
# 1 113.5490 85.2014 109.2323 0.0000 0.0000 0.0000
# 2 85.2014 99.7817 92.3022 0.0000 0.0000 0.0000
# 3 109.2323 92.3022 154.1102 0.0000 0.0000 0.0000
# 4 0.0000 0.0000 0.0000 35.4729 0.0000 0.0000
# 5 0.0000 0.0000 0.0000 0.0000 21.4342 0.0000
# 6 0.0000 0.0000 0.0000 0.0000 0.0000 31.1034
#
#
#
# Elastic Compliance Matrix: (Units=1/GPa)
#
#
# Indices 1 2 3 4 5 6 
#
# 1 0.036583 -0.016260 -0.016191 0.000000 0.000000 0.000000
# 2 -0.016260 0.029700 -0.006263 0.000000 0.000000 0.000000
# 3 -0.016191 -0.006263 0.021716 0.000000 0.000000 0.000000
# 4 0.000000 0.000000 0.000000 0.028191 0.000000 0.000000
# 5 0.000000 0.000000 0.000000 0.000000 0.046655 0.000000
# 6 0.000000 0.000000 0.000000 0.000000 0.000000 0.032151
#
#
# Mechanical properties :
#
#
# Convention : Reuss Voigt Hill
#
# Bulk Modulus (GPa) = 94.60452 104.54585 99.57518
# Shear Modulus (GPa) = 18.11943 22.98243 20.55093
#
# Velocity S-wave (km/s) = 3.18594 3.58809 3.39298
# Velocity P-wave (km/s) = 8.15657 8.70234 8.43387
#
# Compressibility (1/GPa) = 0.01057032
#
# Stress axis : x y z
#
# Youngs Moduli (GPa) = 27.33513 33.67042 46.04836
#
# Poissons Ratio (x) = 0.54748 0.74557
# Poissons Ratio (y) = 0.44447 0.28841
# Poissons Ratio (z) = 0.44259 0.21089
#
# Static dielectric constant tensor:
#      x y z
#    x 1.593230 0.000000 0.000000 
#    y 0.000000 1.593580 0.000000 
#    z 0.000000 0.000000 1.577840 
# 
# From -- ./inp_files/18621.got.cif
#   From: 2010.05.17/outbox.cif.g08.bks.cpg/sg62_10_cif.got.tgz:18621.got - 2010.06.03 15:25:27.
