data_PCOD9466905
_publ_section_title
;
Structure prediction by ZEFSAII (Michael W. Deem and Ramdas Pophale) SiO2 
 PCOD9466905
Probable space group: P N M A
;
_chemical_formula_sum "Si O2"
_cell_formula_units_Z 56
_cell_length_a 11.471899
_cell_length_b 15.757823
_cell_length_c 13.249661
_cell_angle_alpha 90.000000
_cell_angle_beta 90.000000
_cell_angle_gamma 90.000000
_cell_volume 2395.169758
_symmetry_space_group_name_H-M "P N M A"
_symmetry_group_IT_number 62
_symmetry_cell_setting 'orthorhombic'
loop_
_space_group_symop_operation_xyz
x,y,z
1/2-x,-y,1/2+z
1/2+x,1/2-y,1/2-z
-x,1/2+y,-z
-x,-y,-z
1/2+x,y,1/2-z
1/2-x,1/2+y,1/2+z
x,1/2-y,z
loop_
_atom_site_type_symbol
_atom_site_label
_atom_site_fract_x
_atom_site_fract_y
_atom_site_fract_z
Si Si1 0.417219 0.501497 0.118438
Si Si2 0.313340 0.844691 0.982373
Si Si3 0.955508 0.852941 0.951633
Si Si4 0.665697 0.921322 0.161098
Si Si5 0.401794 0.343806 0.632364
Si Si6 0.812913 0.158017 0.468039
Si Si7 0.666049 0.938126 0.665259
O O1 0.372007 0.579607 0.048651
O O2 0.547284 0.526272 0.146762
O O3 0.351806 0.471879 0.221095
O O4 0.404143 0.413969 0.059313
O O5 0.369595 0.750000 0.982977
O O6 0.194250 0.836489 0.045791
O O7 0.265155 0.869604 0.870369
O O8 0.974019 0.750000 0.943122
O O9 0.043344 0.904072 0.878527
O O10 0.818333 0.866620 0.934508
O O11 0.989807 0.877730 0.067239
O O12 0.655411 0.894970 0.277189
O O13 0.677327 0.840767 0.089023
O O14 0.771699 0.978703 0.121185
O O15 0.433540 0.250000 0.671259
O O16 0.839042 0.250000 0.424025
#
# Coordination Sequence:
#
# PCOD9466905 Si02
#       7
#     8   8   8   8   8   8   8
#     4  12  27  45  69 106 145 187 244 293 367 437
#     4  10  22  44  72 100 138 189 242 297 357 429
#     4   9  22  45  74 102 132 183 243 292 348 422
#     4  12  25  41  64 105 141 184 232 288 363 432
#     4   9  19  38  66 101 137 175 226 287 352 422
#     4  11  26  48  72 101 144 188 236 300 363 428
#     4  11  24  43  72 100 137 187 237 299 350 425
#
# _framework density 23.380388
#
# number of rings (size 3 to 8) (size 9 to 14) (size 15 to 20)
#    0.000    1.429    2.857    2.143    4.000    2.857 
#    0.000    0.714    0.000    0.000    0.000    0.000 
#    0.000    0.000    0.000    0.000    0.000    0.000 
#
# Total GULP energy -311914.436987 kJ/mol
# GULP energy per Si atom -5569.900660 kJ/mol
# Density = 2.332717 g / cm^3
# Si number density = 23.380388 Si / 1000 Ang^3
#
#
#
# Elastic Constant Matrix: (Units=GPa)
#
#
# Indices 1 2 3 4 5 6 
#
# 1 63.7087 31.2839 29.9693 0.0000 0.0000 0.0000
# 2 31.2839 127.4458 42.0598 0.0000 0.0000 0.0000
# 3 29.9693 42.0598 77.0845 0.0000 0.0000 0.0000
# 4 0.0000 0.0000 0.0000 31.5884 0.0000 0.0000
# 5 0.0000 0.0000 0.0000 0.0000 -2.9225 0.0000
# 6 0.0000 0.0000 0.0000 0.0000 0.0000 -9.5854
#
#
#
# Elastic Compliance Matrix: (Units=1/GPa)
#
#
# Indices 1 2 3 4 5 6 
#
# 1 0.020031 -0.002862 -0.006226 0.000000 0.000000 0.000000
# 2 -0.002862 0.009979 -0.004332 0.000000 0.000000 0.000000
# 3 -0.006226 -0.004332 0.017757 0.000000 0.000000 0.000000
# 4 0.000000 0.000000 0.000000 0.031657 0.000000 0.000000
# 5 0.000000 0.000000 0.000000 0.000000 -0.342168 0.000000
# 6 0.000000 0.000000 0.000000 0.000000 0.000000 -0.104326
#
#
# Mechanical properties :
#
#
# Convention : Reuss Voigt Hill
#
# Bulk Modulus (GPa) = 47.78692 52.76279 50.27485
# Shear Modulus (GPa) = -15.00354 14.81117 -0.09618
#
# Velocity S-wave (km/s) = -2.53596 2.51965 -0.20305
# Velocity P-wave (km/s) = 3.45087 5.57503 4.63624
#
# Compressibility (1/GPa) = 0.02092623
#
# Stress axis : x y z
#
# Youngs Moduli (GPa) = 49.92348 100.21365 56.31594
#
# Poissons Ratio (x) = 0.28683 0.35062
# Poissons Ratio (y) = 0.14289 0.24396
# Poissons Ratio (z) = 0.31082 0.43412
#
# Static dielectric constant tensor:
#      x y z
#    x 1.929960 0.000000 0.000000 
#    y 0.000000 1.927850 0.000000 
#    z 0.000000 0.000000 1.981250 
# 
# From -- ./inp_files/18083.got.cif
#   From: 2010.05.17/outbox.cif.g08.bks.cpg/sg62_10_cif.got.tgz:18083.got - 2010.06.03 15:25:27.
