data_PCOD9466830
_publ_section_title
;
Structure prediction by ZEFSAII (Michael W. Deem and Ramdas Pophale) SiO2 
 PCOD9466830
Probable space group: P N M A
;
_chemical_formula_sum "Si O2"
_cell_formula_units_Z 40
_cell_length_a 18.684966
_cell_length_b 15.976059
_cell_length_c 5.172574
_cell_angle_alpha 90.000000
_cell_angle_beta 90.000000
_cell_angle_gamma 90.000000
_cell_volume 1544.076027
_symmetry_space_group_name_H-M "P N M A"
_symmetry_group_IT_number 62
_symmetry_cell_setting 'orthorhombic'
loop_
_space_group_symop_operation_xyz
x,y,z
1/2-x,-y,1/2+z
1/2+x,1/2-y,1/2-z
-x,1/2+y,-z
-x,-y,-z
1/2+x,y,1/2-z
1/2-x,1/2+y,1/2+z
x,1/2-y,z
loop_
_atom_site_type_symbol
_atom_site_label
_atom_site_fract_x
_atom_site_fract_y
_atom_site_fract_z
Si Si1 0.673412 0.948410 0.983930
Si Si2 0.740425 0.381307 0.113991
Si Si3 0.610853 0.397545 0.788350
Si Si4 0.894575 0.345789 0.875723
Si Si5 0.529480 0.348358 0.275262
O O1 0.608559 0.908984 0.139680
O O2 0.715814 0.020744 0.136203
O O3 0.639313 0.007465 0.761227
O O4 0.729280 0.875133 0.905924
O O5 0.674569 0.348698 0.944037
O O6 0.813392 0.354908 0.976020
O O7 0.550159 0.394536 0.010781
O O8 0.585771 0.365603 0.510612
O O9 0.908464 0.250000 0.794903
O O10 0.953536 0.366239 0.090214
O O11 0.531101 0.250000 0.213933
#
# Coordination Sequence:
#
# PCOD9466830 Si02
#       5
#     8   8   8   8   8
#     4  10  22  42  70  98 137 175 238 293 339 411
#     4  10  22  43  69 102 132 181 233 294 340 415
#     4  10  25  44  75 101 136 195 228 292 349 406
#     4  11  26  44  69  99 141 185 230 291 361 420
#     4  11  26  47  66 105 150 185 234 292 348 420
#
# _framework density 25.905457999999999
#
# number of rings (size 3 to 8) (size 9 to 14) (size 15 to 20)
#    1.200    0.400    2.000    0.600   11.200    4.000 
#    0.000    0.000    0.000    0.000    0.000    0.000 
#    0.000    0.000    0.000    0.000    0.000    0.000 
#
# Total GULP energy -222884.133668 kJ/mol
# GULP energy per Si atom -5572.103342 kJ/mol
# Density = 2.584650 g / cm^3
# Si number density = 25.905458 Si / 1000 Ang^3
#
#
#
# Elastic Constant Matrix: (Units=GPa)
#
#
# Indices 1 2 3 4 5 6 
#
# 1 127.7117 15.6864 0.8866 0.0000 0.0000 0.0000
# 2 15.6864 66.6060 8.8188 0.0000 0.0000 0.0000
# 3 0.8866 8.8188 84.7491 0.0000 0.0000 0.0000
# 4 0.0000 0.0000 0.0000 -130.3149 0.0000 0.0000
# 5 0.0000 0.0000 0.0000 0.0000 61.3996 0.0000
# 6 0.0000 0.0000 0.0000 0.0000 0.0000 4.2245
#
#
#
# Elastic Compliance Matrix: (Units=1/GPa)
#
#
# Indices 1 2 3 4 5 6 
#
# 1 0.008064 -0.001914 0.000115 0.000000 0.000000 0.000000
# 2 -0.001914 0.015678 -0.001611 0.000000 0.000000 0.000000
# 3 0.000115 -0.001611 0.011966 0.000000 0.000000 0.000000
# 4 0.000000 0.000000 0.000000 -0.007674 0.000000 0.000000
# 5 0.000000 0.000000 0.000000 0.000000 0.016287 0.000000
# 6 0.000000 0.000000 0.000000 0.000000 0.000000 0.236713
#
#
# Mechanical properties :
#
#
# Convention : Reuss Voigt Hill
#
# Bulk Modulus (GPa) = 34.61837 36.65002 35.63419
# Shear Modulus (GPa) = 16.80755 3.97350 10.39053
#
# Velocity S-wave (km/s) = 2.54993 1.23983 2.00491
# Velocity P-wave (km/s) = 4.69700 4.02839 4.37549
#
# Compressibility (1/GPa) = 0.02888640
#
# Stress axis : x y z
#
# Youngs Moduli (GPa) = 124.00045 63.78411 83.57000
#
# Poissons Ratio (x) = 0.12211 -0.00960
# Poissons Ratio (y) = 0.23740 0.13466
# Poissons Ratio (z) = -0.01424 0.10278
#
# Static dielectric constant tensor:
#      x y z
#    x 2.181390 0.000000 0.000000 
#    y 0.000000 1.990740 0.000000 
#    z 0.000000 0.000000 2.243970 
# 
# From -- ./inp_files/1645.got.cif
#   From: 2010.05.17/outbox.cif.g08.bks.cpg/sg62_1_cif.got.tgz:1645.got - 2010.06.03 15:25:27.
