data_PCOD9466889
_publ_section_title
;
Structure prediction by ZEFSAII (Michael W. Deem and Ramdas Pophale) SiO2 
 PCOD9466889
Probable space group: P N M A
;
_chemical_formula_sum "Si O2"
_cell_formula_units_Z 60
_cell_length_a 17.468188
_cell_length_b 25.539078
_cell_length_c 5.028923
_cell_angle_alpha 90.000000
_cell_angle_beta 90.000000
_cell_angle_gamma 90.000000
_cell_volume 2243.510249
_symmetry_space_group_name_H-M "P N M A"
_symmetry_group_IT_number 62
_symmetry_cell_setting 'orthorhombic'
loop_
_space_group_symop_operation_xyz
x,y,z
1/2-x,-y,1/2+z
1/2+x,1/2-y,1/2-z
-x,1/2+y,-z
-x,-y,-z
1/2+x,y,1/2-z
1/2-x,1/2+y,1/2+z
x,1/2-y,z
loop_
_atom_site_type_symbol
_atom_site_label
_atom_site_fract_x
_atom_site_fract_y
_atom_site_fract_z
Si Si1 0.370461 0.192322 0.053188
Si Si2 0.786084 0.810147 0.646876
Si Si3 0.314547 0.385693 0.687960
Si Si4 0.426034 0.545702 0.299588
Si Si5 0.514427 0.750000 0.910239
Si Si6 0.563039 0.357652 0.063718
Si Si7 0.770038 0.969534 0.946281
Si Si8 0.439404 0.066960 0.331767
O O1 0.393950 0.250000 0.918343
O O2 0.377891 0.145920 0.854256
O O3 0.434656 0.203249 0.270019
O O4 0.284237 0.192932 0.146886
O O5 0.801962 0.750000 0.570323
O O6 0.747791 0.844482 0.415587
O O7 0.862888 0.839466 0.736254
O O8 0.276101 0.424632 0.898213
O O9 0.361444 0.407841 0.437740
O O10 0.407159 0.598937 0.146114
O O11 0.360266 0.540312 0.523543
O O12 0.511527 0.550834 0.409472
O O13 0.422831 0.487086 0.171976
O O14 0.466130 0.800281 0.033952
O O15 0.497776 0.393405 0.196045
O O16 0.748103 0.018465 0.140407
#
# Coordination Sequence:
#
# PCOD9466889 Si02
#       8
#     8   8   8   8   4   8   8   8
#     4   9  23  43  67  96 142 189 249 311 380 461
#     4  11  24  43  71 104 146 194 254 317 390 465
#     4  12  24  45  76 104 143 200 258 313 388 470
#     4  11  26  49  69 108 152 199 253 325 388 472
#     4  10  22  44  66 104 140 198 250 312 396 472
#     4  12  24  43  74 105 149 194 250 324 390 479
#     4  12  29  48  80 116 155 202 261 320 388 468
#     4  11  27  46  72 111 144 203 254 321 402 463
#
# _framework density 26.743801999999999
#
# number of rings (size 3 to 8) (size 9 to 14) (size 15 to 20)
#    0.400    0.533    3.333    2.400    5.600    2.133 
#    1.200    0.667    0.000    0.000    0.000    0.000 
#    0.000    0.000    0.000    0.000    0.000    0.000 
#
# Total GULP energy -334154.702958 kJ/mol
# GULP energy per Si atom -5569.245049 kJ/mol
# Density = 2.668293 g / cm^3
# Si number density = 26.743802 Si / 1000 Ang^3
#
#
#
# Elastic Constant Matrix: (Units=GPa)
#
#
# Indices 1 2 3 4 5 6 
#
# 1 97.5763 56.2403 15.5978 0.0000 0.0000 0.0000
# 2 56.2403 198.7913 26.5014 0.0000 0.0000 0.0000
# 3 15.5978 26.5014 50.3704 0.0000 0.0000 0.0000
# 4 0.0000 0.0000 0.0000 23.7707 0.0000 0.0000
# 5 0.0000 0.0000 0.0000 0.0000 24.1197 0.0000
# 6 0.0000 0.0000 0.0000 0.0000 0.0000 32.9192
#
#
#
# Elastic Compliance Matrix: (Units=1/GPa)
#
#
# Indices 1 2 3 4 5 6 
#
# 1 0.012459 -0.003237 -0.002155 0.000000 0.000000 0.000000
# 2 -0.003237 0.006251 -0.002286 0.000000 0.000000 0.000000
# 3 -0.002155 -0.002286 0.021723 0.000000 0.000000 0.000000
# 4 0.000000 0.000000 0.000000 0.042069 0.000000 0.000000
# 5 0.000000 0.000000 0.000000 0.000000 0.041460 0.000000
# 6 0.000000 0.000000 0.000000 0.000000 0.000000 0.030377
#
#
# Mechanical properties :
#
#
# Convention : Reuss Voigt Hill
#
# Bulk Modulus (GPa) = 39.87887 60.37964 50.12926
# Shear Modulus (GPa) = 28.08125 32.72181 30.40153
#
# Velocity S-wave (km/s) = 3.24390 3.50169 3.37526
# Velocity P-wave (km/s) = 5.38278 6.24301 5.82879
#
# Compressibility (1/GPa) = 0.02507594
#
# Stress axis : x y z
#
# Youngs Moduli (GPa) = 80.26436 159.97109 46.03399
#
# Poissons Ratio (x) = 0.51791 0.09919
# Poissons Ratio (y) = 0.25986 0.10525
# Poissons Ratio (z) = 0.17294 0.36575
#
# Static dielectric constant tensor:
#      x y z
#    x 2.165340 0.000000 0.000000 
#    y 0.000000 2.272360 0.000000 
#    z 0.000000 0.000000 2.098430 
# 
# From -- ./inp_files/1832.got.cif
#   From: 2010.05.17/outbox.cif.g08.bks.cpg/sg62_1_cif.got.tgz:1832.got - 2010.06.03 15:25:27.
