data_PCOD9466021
_publ_section_title
;
Structure prediction by ZEFSAII (Michael W. Deem and Ramdas Pophale) SiO2 
 PCOD9466021
Probable space group: P N M A
;
_chemical_formula_sum "Si O2"
_cell_formula_units_Z 40
_cell_length_a 18.493368
_cell_length_b 8.639343
_cell_length_c 13.758435
_cell_angle_alpha 90.000000
_cell_angle_beta 90.000000
_cell_angle_gamma 90.000000
_cell_volume 2198.192719
_symmetry_space_group_name_H-M "P N M A"
_symmetry_group_IT_number 62
_symmetry_cell_setting 'orthorhombic'
loop_
_space_group_symop_operation_xyz
x,y,z
1/2-x,-y,1/2+z
1/2+x,1/2-y,1/2-z
-x,1/2+y,-z
-x,-y,-z
1/2+x,y,1/2-z
1/2-x,1/2+y,1/2+z
x,1/2-y,z
loop_
_atom_site_type_symbol
_atom_site_label
_atom_site_fract_x
_atom_site_fract_y
_atom_site_fract_z
Si Si1 0.333027 0.064968 0.410235
Si Si2 0.686723 0.563377 0.182297
Si Si3 0.975426 0.936626 0.191709
Si Si4 0.625643 0.064642 0.381564
Si Si5 0.033391 0.564463 0.401796
O O1 0.332786 0.250000 0.413175
O O2 0.259757 0.002905 0.362012
O O3 0.401780 0.005372 0.349194
O O4 0.341905 0.997821 0.518421
O O5 0.689627 0.750000 0.186909
O O6 0.670509 0.497877 0.289420
O O7 0.616657 0.518498 0.117578
O O8 0.974619 0.750000 0.184631
O O9 0.989693 0.980649 0.304305
O O10 0.044270 0.000252 0.132379
O O11 0.624373 0.250000 0.381533
O O12 0.031730 0.750000 0.406574
O O13 0.000000 0.500000 0.500000
#
# Coordination Sequence:
#
# PCOD9466021 Si02
#       5
#     8   8   8   8   8
#     4  12  24  38  59  88 117 152 193 238 291 347
#     4  10  22  41  59  83 117 152 191 239 289 343
#     4  10  21  39  59  84 116 152 193 240 288 343
#     4  11  22  39  61  85 114 151 191 238 291 347
#     4   9  20  37  60  84 112 149 189 231 281 336
#
# _framework density 18.196766
#
# number of rings (size 3 to 8) (size 9 to 14) (size 15 to 20)
#    0.000    1.600    0.000    6.600    0.000    6.400 
#    0.000    4.000    0.000    0.000    0.000    0.000 
#    0.000    0.000    0.000    0.000    0.000    0.000 
#
# Total GULP energy -223584.804208 kJ/mol
# GULP energy per Si atom -5589.620105 kJ/mol
# Density = 1.815535 g / cm^3
# Si number density = 18.196766 Si / 1000 Ang^3
#
#
#
# Elastic Constant Matrix: (Units=GPa)
#
#
# Indices 1 2 3 4 5 6 
#
# 1 176.6492 69.5346 131.4136 0.0000 0.0000 0.0000
# 2 69.5346 126.4914 65.2803 0.0000 0.0000 0.0000
# 3 131.4136 65.2803 142.8877 0.0000 0.0000 0.0000
# 4 0.0000 0.0000 0.0000 38.5153 0.0000 0.0000
# 5 0.0000 0.0000 0.0000 0.0000 23.6415 0.0000
# 6 0.0000 0.0000 0.0000 0.0000 0.0000 36.2671
#
#
#
# Elastic Compliance Matrix: (Units=1/GPa)
#
#
# Indices 1 2 3 4 5 6 
#
# 1 0.018230 -0.001791 -0.015948 0.000000 0.000000 0.000000
# 2 -0.001791 0.010521 -0.003160 0.000000 0.000000 0.000000
# 3 -0.015948 -0.003160 0.023109 0.000000 0.000000 0.000000
# 4 0.000000 0.000000 0.000000 0.025964 0.000000 0.000000
# 5 0.000000 0.000000 0.000000 0.000000 0.042299 0.000000
# 6 0.000000 0.000000 0.000000 0.000000 0.000000 0.027573
#
#
# Mechanical properties :
#
#
# Convention : Reuss Voigt Hill
#
# Bulk Modulus (GPa) = 99.36990 108.72059 104.04525
# Shear Modulus (GPa) = 25.92749 31.67143 28.79946
#
# Velocity S-wave (km/s) = 3.77880 4.17645 3.98259
# Velocity P-wave (km/s) = 8.58873 9.11778 8.85720
#
# Compressibility (1/GPa) = 0.01006341
#
# Stress axis : x y z
#
# Youngs Moduli (GPa) = 54.85539 95.05062 43.27309
#
# Poissons Ratio (x) = 0.17022 0.69011
# Poissons Ratio (y) = 0.09824 0.13672
# Poissons Ratio (z) = 0.87482 0.30031
#
# Static dielectric constant tensor:
#      x y z
#    x 1.597760 0.000000 0.000000 
#    y 0.000000 1.608930 0.000000 
#    z 0.000000 0.000000 1.608980 
# 
# From -- ./inp_files/13853.got.cif
#   From: 2010.05.17/outbox.cif.g08.bks.cpg/sg62_7_cif.got.tgz:13853.got - 2010.06.03 15:25:27.
