data_PCOD9466255
_publ_section_title
;
Structure prediction by ZEFSAII (Michael W. Deem and Ramdas Pophale) SiO2 
 PCOD9466255
Probable space group: P N M A
;
_chemical_formula_sum "Si O2"
_cell_formula_units_Z 32
_cell_length_a 10.405384
_cell_length_b 9.709304
_cell_length_c 14.692947
_cell_angle_alpha 90.000000
_cell_angle_beta 90.000000
_cell_angle_gamma 90.000000
_cell_volume 1484.414279
_symmetry_space_group_name_H-M "P N M A"
_symmetry_group_IT_number 62
_symmetry_cell_setting 'orthorhombic'
loop_
_space_group_symop_operation_xyz
x,y,z
1/2-x,-y,1/2+z
1/2+x,1/2-y,1/2-z
-x,1/2+y,-z
-x,-y,-z
1/2+x,y,1/2-z
1/2-x,1/2+y,1/2+z
x,1/2-y,z
loop_
_atom_site_type_symbol
_atom_site_label
_atom_site_fract_x
_atom_site_fract_y
_atom_site_fract_z
Si Si1 0.676025 0.997307 0.414172
Si Si2 0.550189 0.094810 0.918119
Si Si3 0.141334 0.906877 0.731355
Si Si4 0.390172 0.900903 0.390645
O O1 0.795988 0.897512 0.431598
O O2 0.543593 0.922842 0.392346
O O3 0.335421 0.020871 0.327421
O O4 0.655650 0.083733 0.505857
O O5 0.496016 0.250000 0.914810
O O6 0.542458 0.005458 0.825015
O O7 0.500000 0.000000 0.000000
O O8 0.097539 0.750000 0.739551
O O9 0.269832 0.913756 0.669709
O O10 0.357125 0.750000 0.354136
#
# Coordination Sequence:
#
# PCOD9466255 Si02
#       4
#     8   8   8   8
#     4   9  24  42  65  94 133 168 217 261 326 392
#     4  10  21  40  65  92 126 167 211 262 316 378
#     4  10  23  41  62  94 130 170 216 265 318 384
#     4  11  22  41  70  96 127 172 216 269 325 386
#
# _framework density 21.557324000000001
#
# number of rings (size 3 to 8) (size 9 to 14) (size 15 to 20)
#    1.500    0.500    0.000    3.000    0.000    8.000 
#    0.000    0.000    0.000    0.000    0.000    0.000 
#    0.000    0.000    0.000    0.000    0.000    0.000 
#
# Total GULP energy -178355.436975 kJ/mol
# GULP energy per Si atom -5573.607405 kJ/mol
# Density = 2.150826 g / cm^3
# Si number density = 21.557324 Si / 1000 Ang^3
#
#
#
# Elastic Constant Matrix: (Units=GPa)
#
#
# Indices 1 2 3 4 5 6 
#
# 1 47.6382 15.2498 27.9817 0.0000 0.0000 0.0000
# 2 15.2498 187.7798 42.8401 0.0000 0.0000 0.0000
# 3 27.9817 42.8401 99.6359 0.0000 0.0000 0.0000
# 4 0.0000 0.0000 0.0000 21.1161 0.0000 0.0000
# 5 0.0000 0.0000 0.0000 0.0000 23.9134 0.0000
# 6 0.0000 0.0000 0.0000 0.0000 0.0000 2.8377
#
#
#
# Elastic Compliance Matrix: (Units=1/GPa)
#
#
# Indices 1 2 3 4 5 6 
#
# 1 0.025177 -0.000478 -0.006865 0.000000 0.000000 0.000000
# 2 -0.000478 0.005914 -0.002408 0.000000 0.000000 0.000000
# 3 -0.006865 -0.002408 0.013000 0.000000 0.000000 0.000000
# 4 0.000000 0.000000 0.000000 0.047357 0.000000 0.000000
# 5 0.000000 0.000000 0.000000 0.000000 0.041817 0.000000
# 6 0.000000 0.000000 0.000000 0.000000 0.000000 0.352404
#
#
# Mechanical properties :
#
#
# Convention : Reuss Voigt Hill
#
# Bulk Modulus (GPa) = 40.67155 56.35523 48.51339
# Shear Modulus (GPa) = 9.73959 26.17226 17.95593
#
# Velocity S-wave (km/s) = 2.12786 3.48814 2.88920
# Velocity P-wave (km/s) = 4.99447 6.51319 5.80372
#
# Compressibility (1/GPa) = 0.02458721
#
# Stress axis : x y z
#
# Youngs Moduli (GPa) = 39.71867 169.09960 76.92316
#
# Poissons Ratio (x) = 0.08091 0.52808
# Poissons Ratio (y) = 0.01900 0.18525
# Poissons Ratio (z) = 0.27267 0.40724
#
# Static dielectric constant tensor:
#      x y z
#    x 1.793710 0.000000 0.000000 
#    y 0.000000 1.797560 0.000000 
#    z 0.000000 0.000000 1.794980 
# 
# From -- ./inp_files/17633.got.cif
#   From: 2010.05.17/outbox.cif.g08.bks.cpg/sg62_9_cif.got.tgz:17633.got - 2010.06.03 15:25:27.
