data_PCOD9466259
_publ_section_title
;
Structure prediction by ZEFSAII (Michael W. Deem and Ramdas Pophale) SiO2 
 PCOD9466259
Probable space group: P N M A
;
_chemical_formula_sum "Si O2"
_cell_formula_units_Z 60
_cell_length_a 19.801505
_cell_length_b 9.456015
_cell_length_c 15.877722
_cell_angle_alpha 90.000000
_cell_angle_beta 90.000000
_cell_angle_gamma 90.000000
_cell_volume 2972.997513
_symmetry_space_group_name_H-M "P N M A"
_symmetry_group_IT_number 62
_symmetry_cell_setting 'orthorhombic'
loop_
_space_group_symop_operation_xyz
x,y,z
1/2-x,-y,1/2+z
1/2+x,1/2-y,1/2-z
-x,1/2+y,-z
-x,-y,-z
1/2+x,y,1/2-z
1/2-x,1/2+y,1/2+z
x,1/2-y,z
loop_
_atom_site_type_symbol
_atom_site_label
_atom_site_fract_x
_atom_site_fract_y
_atom_site_fract_z
Si Si1 0.088617 0.010413 0.970743
Si Si2 0.500214 0.750000 0.459815
Si Si3 0.767694 0.079693 0.289422
Si Si4 0.265046 0.080904 0.407014
Si Si5 0.587567 0.579912 0.859124
Si Si6 0.635365 0.583863 0.042641
Si Si7 0.541985 0.918002 0.206636
Si Si8 0.376748 0.588251 0.656239
O O1 0.100083 0.088831 0.060225
O O2 0.046027 0.872355 0.992750
O O3 0.046646 0.123476 0.917626
O O4 0.161365 0.970410 0.935051
O O5 0.770139 0.250000 0.297027
O O6 0.757419 0.044878 0.191781
O O7 0.839801 0.031471 0.323245
O O8 0.700510 0.034715 0.338685
O O9 0.260839 0.250000 0.416532
O O10 0.203688 0.006283 0.455194
O O11 0.579868 0.750000 0.845439
O O12 0.527238 0.496505 0.815710
O O13 0.591516 0.554082 0.959399
O O14 0.653797 0.750000 0.038903
O O15 0.592119 0.559305 0.126849
O O16 0.533567 0.750000 0.218260
O O17 0.577182 0.987932 0.287418
O O18 0.379859 0.750000 0.689052
#
# Coordination Sequence:
#
# PCOD9466259 Si02
#       8
#     8   4   8   8   8   8   8   8
#     4  11  23  42  63  94 123 173 211 264 315 383
#     4  10  24  42  60  88 130 158 216 264 316 368
#     4   9  20  39  62  92 121 155 213 262 299 371
#     4  11  22  39  64  92 125 165 211 264 312 372
#     4  10  21  40  65  93 122 167 212 255 311 385
#     4  10  22  40  64  92 128 166 210 260 315 377
#     4  11  24  40  60  95 134 165 207 262 320 370
#     4  11  22  42  68  89 122 170 215 252 315 389
#
# _framework density 20.181650000000001
#
# number of rings (size 3 to 8) (size 9 to 14) (size 15 to 20)
#    0.000    1.600    2.667    1.600    1.867    4.267 
#    2.400    1.333    0.000    0.000    0.000    0.000 
#    0.000    0.000    0.000    0.000    0.000    0.000 
#
# Total GULP energy -334233.144634 kJ/mol
# GULP energy per Si atom -5570.552411 kJ/mol
# Density = 2.013572 g / cm^3
# Si number density = 20.181650 Si / 1000 Ang^3
#
#
#
# Elastic Constant Matrix: (Units=GPa)
#
#
# Indices 1 2 3 4 5 6 
#
# 1 111.8650 37.4015 9.5125 0.0000 0.0000 0.0000
# 2 37.4015 85.3162 8.9724 0.0000 0.0000 0.0000
# 3 9.5125 8.9724 27.1770 0.0000 0.0000 0.0000
# 4 0.0000 0.0000 0.0000 23.0717 0.0000 0.0000
# 5 0.0000 0.0000 0.0000 0.0000 26.3438 0.0000
# 6 0.0000 0.0000 0.0000 0.0000 0.0000 37.0292
#
#
#
# Elastic Compliance Matrix: (Units=1/GPa)
#
#
# Indices 1 2 3 4 5 6 
#
# 1 0.010606 -0.004413 -0.002256 0.000000 0.000000 0.000000
# 2 -0.004413 0.013978 -0.003070 0.000000 0.000000 0.000000
# 3 -0.002256 -0.003070 0.038599 0.000000 0.000000 0.000000
# 4 0.000000 0.000000 0.000000 0.043343 0.000000 0.000000
# 5 0.000000 0.000000 0.000000 0.000000 0.037960 0.000000
# 6 0.000000 0.000000 0.000000 0.000000 0.000000 0.027006
#
#
# Mechanical properties :
#
#
# Convention : Reuss Voigt Hill
#
# Bulk Modulus (GPa) = 22.87985 37.34789 30.11387
# Shear Modulus (GPa) = 24.32633 28.52038 26.42336
#
# Velocity S-wave (km/s) = 3.47561 3.76331 3.62232
# Velocity P-wave (km/s) = 5.24100 6.11796 5.69638
#
# Compressibility (1/GPa) = 0.04370658
#
# Stress axis : x y z
#
# Youngs Moduli (GPa) = 94.28217 71.53891 25.90740
#
# Poissons Ratio (x) = 0.31567 0.05844
# Poissons Ratio (y) = 0.41602 0.07955
# Poissons Ratio (z) = 0.21267 0.21966
#
# Static dielectric constant tensor:
#      x y z
#    x 1.728110 0.000000 0.000000 
#    y 0.000000 1.683710 0.000000 
#    z 0.000000 0.000000 1.746890 
# 
# From -- ./inp_files/24400.got.cif
#   From: 2010.05.17/outbox.cif.g08.bks.cpg/sg62_13_cif.got.tgz:24400.got - 2010.06.03 15:25:27.
