data_PCOD9466211
_publ_section_title
;
Structure prediction by ZEFSAII (Michael W. Deem and Ramdas Pophale) SiO2 
 PCOD9466211
Probable space group: P N M A
;
_chemical_formula_sum "Si O2"
_cell_formula_units_Z 52
_cell_length_a 14.145665
_cell_length_b 19.770845
_cell_length_c 9.358023
_cell_angle_alpha 90.000000
_cell_angle_beta 90.000000
_cell_angle_gamma 90.000000
_cell_volume 2617.174670
_symmetry_space_group_name_H-M "P N M A"
_symmetry_group_IT_number 62
_symmetry_cell_setting 'orthorhombic'
loop_
_space_group_symop_operation_xyz
x,y,z
1/2-x,-y,1/2+z
1/2+x,1/2-y,1/2-z
-x,1/2+y,-z
-x,-y,-z
1/2+x,y,1/2-z
1/2-x,1/2+y,1/2+z
x,1/2-y,z
loop_
_atom_site_type_symbol
_atom_site_label
_atom_site_fract_x
_atom_site_fract_y
_atom_site_fract_z
Si Si1 0.125478 0.250000 0.825739
Si Si2 0.799000 0.523006 0.464072
Si Si3 0.924718 0.107070 0.553481
Si Si4 0.401664 0.884161 0.831750
Si Si5 0.852121 0.750000 0.843842
Si Si6 0.406446 0.963740 0.550940
Si Si7 0.818610 0.250000 0.543218
Si Si8 0.918567 0.603546 0.236784
O O1 0.238623 0.250000 0.835078
O O2 0.093578 0.183488 0.742988
O O3 0.097517 0.250000 0.997147
O O4 0.855955 0.454320 0.506681
O O5 0.815715 0.579807 0.585058
O O6 0.689708 0.506127 0.444328
O O7 0.847375 0.555677 0.324284
O O8 0.874153 0.179723 0.556698
O O9 0.011358 0.115640 0.441918
O O10 0.976578 0.088583 0.702984
O O11 0.376293 0.814195 0.754541
O O12 0.427332 0.932676 0.702619
O O13 0.742559 0.750000 0.895724
O O14 0.394203 0.907256 0.428517
O O15 0.500000 0.000000 0.500000
#
# Coordination Sequence:
#
# PCOD9466211 Si02
#       8
#     4   8   8   8   4   8   4   8
#     4  10  21  40  63  88 123 165 209 257 315 364
#     4  11  24  41  62  92 131 165 212 261 314 390
#     4  11  22  41  65  97 122 168 218 250 307 391
#     4  11  22  40  64  91 125 167 211 261 314 372
#     4  10  21  40  63  88 123 165 209 257 315 364
#     4  12  23  38  61  93 127 164 203 268 326 364
#     4  10  22  40  64  88 126 178 206 246 312 378
#     4  11  22  40  64  91 125 167 211 261 314 372
#
# _framework density 19.868753000000002
#
# number of rings (size 3 to 8) (size 9 to 14) (size 15 to 20)
#    0.462    0.615    1.538    7.385    0.000    4.308 
#    0.000    0.000    0.000    3.692    0.000    0.000 
#    0.000    0.000    0.000    0.000    0.000    0.000 
#
# Total GULP energy -290229.411082 kJ/mol
# GULP energy per Si atom -5581.334829 kJ/mol
# Density = 1.982353 g / cm^3
# Si number density = 19.868753 Si / 1000 Ang^3
#
#
#
# Elastic Constant Matrix: (Units=GPa)
#
#
# Indices 1 2 3 4 5 6 
#
# 1 84.6353 37.5544 -4.6544 0.0000 0.0000 0.0000
# 2 37.5544 125.0111 3.3283 0.0000 0.0000 0.0000
# 3 -4.6544 3.3283 50.8611 0.0000 0.0000 0.0000
# 4 0.0000 0.0000 0.0000 44.5372 0.0000 0.0000
# 5 0.0000 0.0000 0.0000 0.0000 15.4008 0.0000
# 6 0.0000 0.0000 0.0000 0.0000 0.0000 20.3696
#
#
#
# Elastic Compliance Matrix: (Units=1/GPa)
#
#
# Indices 1 2 3 4 5 6 
#
# 1 0.013751 -0.004172 0.001531 0.000000 0.000000 0.000000
# 2 -0.004172 0.009279 -0.000989 0.000000 0.000000 0.000000
# 3 0.001531 -0.000989 0.019866 0.000000 0.000000 0.000000
# 4 0.000000 0.000000 0.000000 0.022453 0.000000 0.000000
# 5 0.000000 0.000000 0.000000 0.000000 0.064932 0.000000
# 6 0.000000 0.000000 0.000000 0.000000 0.000000 0.049093
#
#
# Mechanical properties :
#
#
# Convention : Reuss Voigt Hill
#
# Bulk Modulus (GPa) = 28.06051 36.99603 32.52827
# Shear Modulus (GPa) = 25.18757 31.01347 28.10052
#
# Velocity S-wave (km/s) = 3.56434 3.95513 3.76481
# Velocity P-wave (km/s) = 5.57610 6.28634 5.94184
#
# Compressibility (1/GPa) = 0.03563727
#
# Stress axis : x y z
#
# Youngs Moduli (GPa) = 72.72395 107.77261 50.33666
#
# Poissons Ratio (x) = 0.44958 -0.07708
# Poissons Ratio (y) = 0.30337 0.04978
# Poissons Ratio (z) = -0.11136 0.10658
#
# Static dielectric constant tensor:
#      x y z
#    x 1.637010 0.000000 0.000000 
#    y 0.000000 1.748840 0.000000 
#    z 0.000000 0.000000 1.780090 
# 
# From -- ./inp_files/6730.got.cif
#   From: 2010.05.17/outbox.cif.g08.bks.cpg/sg62_4_cif.got.tgz:6730.got - 2010.06.03 15:25:27.
