data_PCOD9466836
_publ_section_title
;
Structure prediction by ZEFSAII (Michael W. Deem and Ramdas Pophale) SiO2 
 PCOD9466836
Probable space group: P N M A
;
_chemical_formula_sum "Si O2"
_cell_formula_units_Z 28
_cell_length_a 9.383455
_cell_length_b 22.101761
_cell_length_c 5.106377
_cell_angle_alpha 90.000000
_cell_angle_beta 90.000000
_cell_angle_gamma 90.000000
_cell_volume 1059.016018
_symmetry_space_group_name_H-M "P N M A"
_symmetry_group_IT_number 62
_symmetry_cell_setting 'orthorhombic'
loop_
_space_group_symop_operation_xyz
x,y,z
1/2-x,-y,1/2+z
1/2+x,1/2-y,1/2-z
-x,1/2+y,-z
-x,-y,-z
1/2+x,y,1/2-z
1/2-x,1/2+y,1/2+z
x,1/2-y,z
loop_
_atom_site_type_symbol
_atom_site_label
_atom_site_fract_x
_atom_site_fract_y
_atom_site_fract_z
Si Si1 0.308211 0.423094 0.777790
Si Si2 0.388655 0.554091 0.776279
Si Si3 0.560843 0.840827 0.588211
Si Si4 0.799231 0.750000 0.822878
O O1 0.410874 0.481908 0.770044
O O2 0.199879 0.430090 0.533509
O O3 0.391465 0.361823 0.702719
O O4 0.209233 0.430032 0.027494
O O5 0.523706 0.597413 0.743425
O O6 0.686744 0.802267 0.716591
O O7 0.416998 0.801940 0.589818
#
# Coordination Sequence:
#
# PCOD9466836 Si02
#       4
#     8   8   8   4
#     4  10  22  42  75 112 146 187 238 309 378 436
#     4  10  22  42  75 112 146 187 238 309 378 436
#     4  11  21  46  72 106 146 193 250 300 358 437
#     4  10  24  42  76  98 146 202 246 298 352 436
#
# _framework density 26.439639
#
# number of rings (size 3 to 8) (size 9 to 14) (size 15 to 20)
#    0.000    1.714    2.857    0.857    0.000    2.286 
#    0.000   14.286    0.000    0.000    0.000    0.000 
#    0.000    0.000    0.000    0.000    0.000    0.000 
#
# Total GULP energy -156087.287332 kJ/mol
# GULP energy per Si atom -5574.545976 kJ/mol
# Density = 2.637946 g / cm^3
# Si number density = 26.439639 Si / 1000 Ang^3
#
#
#
# Elastic Constant Matrix: (Units=GPa)
#
#
# Indices 1 2 3 4 5 6 
#
# 1 171.7463 82.8591 61.8554 0.0000 0.0000 0.0000
# 2 82.8591 185.1079 30.2483 0.0000 0.0000 0.0000
# 3 61.8554 30.2483 140.8767 0.0000 0.0000 0.0000
# 4 0.0000 0.0000 0.0000 -1.4077 0.0000 0.0000
# 5 0.0000 0.0000 0.0000 0.0000 36.7383 0.0000
# 6 0.0000 0.0000 0.0000 0.0000 0.0000 107.1161
#
#
#
# Elastic Compliance Matrix: (Units=1/GPa)
#
#
# Indices 1 2 3 4 5 6 
#
# 1 0.008512 -0.003316 -0.003025 0.000000 0.000000 0.000000
# 2 -0.003316 0.006890 -0.000024 0.000000 0.000000 0.000000
# 3 -0.003025 -0.000024 0.008432 0.000000 0.000000 0.000000
# 4 0.000000 0.000000 0.000000 -0.710366 0.000000 0.000000
# 5 0.000000 0.000000 0.000000 0.000000 0.027220 0.000000
# 6 0.000000 0.000000 0.000000 0.000000 0.000000 0.009336
#
#
# Mechanical properties :
#
#
# Convention : Reuss Voigt Hill
#
# Bulk Modulus (GPa) = 90.05321 94.18404 92.11862
# Shear Modulus (GPa) = -7.89208 50.00721 21.05756
#
# Velocity S-wave (km/s) = -1.72957 4.35371 2.82519
# Velocity P-wave (km/s) = 5.49047 7.80850 6.74974
#
# Compressibility (1/GPa) = 0.01110455
#
# Stress axis : x y z
#
# Youngs Moduli (GPa) = 117.48343 145.13110 118.59799
#
# Poissons Ratio (x) = 0.48122 0.35881
# Poissons Ratio (y) = 0.38955 0.00280
# Poissons Ratio (z) = 0.35543 0.00342
#
# Static dielectric constant tensor:
#      x y z
#    x 2.062180 0.000000 0.000000 
#    y 0.000000 2.060240 0.000000 
#    z 0.000000 0.000000 2.168790 
# 
# From -- ./inp_files/155.got.cif
#   From: 2010.05.17/outbox.cif.g08.bks.cpg/sg62_1_cif.got.tgz:155.got - 2010.06.03 15:25:27.
