data_PCOD9466447
_publ_section_title
;
Structure prediction by ZEFSAII (Michael W. Deem and Ramdas Pophale) SiO2 
 PCOD9466447
Probable space group: P N M A
;
_chemical_formula_sum "Si O2"
_cell_formula_units_Z 56
_cell_length_a 13.904048
_cell_length_b 22.318282
_cell_length_c 8.380472
_cell_angle_alpha 90.000000
_cell_angle_beta 90.000000
_cell_angle_gamma 90.000000
_cell_volume 2600.581678
_symmetry_space_group_name_H-M "P N M A"
_symmetry_group_IT_number 62
_symmetry_cell_setting 'orthorhombic'
loop_
_space_group_symop_operation_xyz
x,y,z
1/2-x,-y,1/2+z
1/2+x,1/2-y,1/2-z
-x,1/2+y,-z
-x,-y,-z
1/2+x,y,1/2-z
1/2-x,1/2+y,1/2+z
x,1/2-y,z
loop_
_atom_site_type_symbol
_atom_site_label
_atom_site_fract_x
_atom_site_fract_y
_atom_site_fract_z
Si Si1 0.047507 0.017779 0.665828
Si Si2 0.072637 0.915194 0.910941
Si Si3 0.736656 0.082073 0.898171
Si Si4 0.999770 0.855132 0.197311
Si Si5 0.698333 0.817264 0.177606
Si Si6 0.401368 0.182684 0.157710
Si Si7 0.391400 0.815721 0.010706
O O1 0.033356 0.970421 0.807937
O O2 0.161582 0.029524 0.638669
O O3 0.000000 0.000000 0.500000
O O4 0.001485 0.081270 0.711559
O O5 0.160709 0.934527 0.026995
O O6 0.114878 0.868141 0.785216
O O7 0.994996 0.877398 0.015163
O O8 0.750381 0.122856 0.739836
O O9 0.681122 0.129586 0.012971
O O10 0.099591 0.820752 0.220213
O O11 0.923956 0.818433 0.302409
O O12 0.738557 0.750000 0.200670
O O13 0.668328 0.822890 0.993944
O O14 0.392383 0.250000 0.223378
O O15 0.509916 0.176426 0.087476
O O16 0.351465 0.750000 0.973030
#
# Coordination Sequence:
#
# PCOD9466447 Si02
#       7
#     8   8   8   8   8   8   8
#     4  11  23  41  60  78 110 154 194 235 287 345
#     4  11  22  36  57  85 114 144 185 243 288 330
#     4  10  22  35  55  84 109 143 191 236 284 336
#     4   9  19  34  56  84 107 140 188 228 274 334
#     4   9  17  34  57  82 113 147 180 226 283 341
#     4   9  19  35  57  82 113 151 188 225 282 345
#     4   9  17  35  58  81 113 153 188 225 276 343
#
# _framework density 21.533646000000001
#
# number of rings (size 3 to 8) (size 9 to 14) (size 15 to 20)
#    0.000    2.286    0.000    4.714    0.000    6.857 
#    0.000    7.143    0.000    3.429    0.000    0.000 
#    0.000    0.000    0.000    0.000    0.000    0.000 
#
# Total GULP energy -312196.339071 kJ/mol
# GULP energy per Si atom -5574.934626 kJ/mol
# Density = 2.148463 g / cm^3
# Si number density = 21.533646 Si / 1000 Ang^3
#
#
#
# Elastic Constant Matrix: (Units=GPa)
#
#
# Indices 1 2 3 4 5 6 
#
# 1 38.6980 -9.1381 -1.1713 0.0000 0.0000 0.0000
# 2 -9.1381 86.4472 31.1785 0.0000 0.0000 0.0000
# 3 -1.1713 31.1785 66.1845 0.0000 0.0000 0.0000
# 4 0.0000 0.0000 0.0000 31.6282 0.0000 0.0000
# 5 0.0000 0.0000 0.0000 0.0000 19.0208 0.0000
# 6 0.0000 0.0000 0.0000 0.0000 0.0000 33.4768
#
#
#
# Elastic Compliance Matrix: (Units=1/GPa)
#
#
# Indices 1 2 3 4 5 6 
#
# 1 0.026561 0.003178 -0.001027 0.000000 0.000000 0.000000
# 2 0.003178 0.014316 -0.006688 0.000000 0.000000 0.000000
# 3 -0.001027 -0.006688 0.018242 0.000000 0.000000 0.000000
# 4 0.000000 0.000000 0.000000 0.031617 0.000000 0.000000
# 5 0.000000 0.000000 0.000000 0.000000 0.052574 0.000000
# 6 0.000000 0.000000 0.000000 0.000000 0.000000 0.029871
#
#
# Mechanical properties :
#
#
# Convention : Reuss Voigt Hill
#
# Bulk Modulus (GPa) = 19.98225 25.89643 22.93934
# Shear Modulus (GPa) = 25.13379 28.18921 26.66150
#
# Velocity S-wave (km/s) = 3.42012 3.62204 3.52253
# Velocity P-wave (km/s) = 4.98959 5.43548 5.21730
#
# Compressibility (1/GPa) = 0.05004441
#
# Stress axis : x y z
#
# Youngs Moduli (GPa) = 37.64989 69.85332 54.81983
#
# Poissons Ratio (x) = -0.22200 0.05630
# Poissons Ratio (y) = -0.11965 0.36662
# Poissons Ratio (z) = 0.03867 0.46716
#
# Static dielectric constant tensor:
#      x y z
#    x 1.869870 0.000000 0.000000 
#    y 0.000000 1.777970 0.000000 
#    z 0.000000 0.000000 1.796250 
# 
# From -- ./inp_files/6790.got.cif
#   From: 2010.05.17/outbox.cif.g08.bks.cpg/sg62_4_cif.got.tgz:6790.got - 2010.06.03 15:25:27.
