data_PCOD9466285
_publ_section_title
;
Structure prediction by ZEFSAII (Michael W. Deem and Ramdas Pophale) SiO2 
 PCOD9466285
Probable space group: P N M A
;
_chemical_formula_sum "Si O2"
_cell_formula_units_Z 32
_cell_length_a 7.676995
_cell_length_b 14.170882
_cell_length_c 11.748895
_cell_angle_alpha 90.000000
_cell_angle_beta 90.000000
_cell_angle_gamma 90.000000
_cell_volume 1278.159823
_symmetry_space_group_name_H-M "P N M A"
_symmetry_group_IT_number 62
_symmetry_cell_setting 'orthorhombic'
loop_
_space_group_symop_operation_xyz
x,y,z
1/2-x,-y,1/2+z
1/2+x,1/2-y,1/2-z
-x,1/2+y,-z
-x,-y,-z
1/2+x,y,1/2-z
1/2-x,1/2+y,1/2+z
x,1/2-y,z
loop_
_atom_site_type_symbol
_atom_site_label
_atom_site_fract_x
_atom_site_fract_y
_atom_site_fract_z
Si Si1 0.960338 0.357326 0.708940
Si Si2 0.388688 0.579944 0.423813
Si Si3 0.118782 0.250000 0.090113
Si Si4 0.971844 0.750000 0.649154
Si Si5 0.151900 0.079053 0.499803
O O1 0.960105 0.250000 0.750943
O O2 0.986100 0.426466 0.814875
O O3 0.119397 0.369763 0.619694
O O4 0.786190 0.377812 0.638677
O O5 0.431167 0.658932 0.516867
O O6 0.324249 0.482041 0.478179
O O7 0.328181 0.250000 0.107572
O O8 0.036357 0.250000 0.215009
O O9 0.881071 0.656856 0.597074
O O10 0.000000 0.000000 0.500000
#
# Coordination Sequence:
#
# PCOD9466285 Si02
#       5
#     8   8   4   4   8
#     4  11  19  41  67  88 124 167 211 262 317 368
#     4  11  23  40  66  92 127 166 208 266 314 382
#     4  12  24  45  61  97 131 166 211 260 332 372
#     4  12  24  43  67  91 131 176 203 272 312 388
#     4  10  21  40  67  89 130 169 212 250 334 367
#
# _framework density 25.035993999999999
#
# number of rings (size 3 to 8) (size 9 to 14) (size 15 to 20)
#    0.000    1.000    8.750    0.000    3.500    0.000 
#    4.500    1.250    0.000    0.000    0.000    0.000 
#    0.000    0.000    0.000    0.000    0.000    0.000 
#
# Total GULP energy -179406.693291 kJ/mol
# GULP energy per Si atom -5606.459165 kJ/mol
# Density = 2.497901 g / cm^3
# Si number density = 25.035994 Si / 1000 Ang^3
#
#
#
# Elastic Constant Matrix: (Units=GPa)
#
#
# Indices 1 2 3 4 5 6 
#
# 1 53.7038 20.7456 2.2944 0.0000 0.0000 0.0000
# 2 20.7456 153.1295 62.9512 0.0000 0.0000 0.0000
# 3 2.2944 62.9512 202.2224 0.0000 0.0000 0.0000
# 4 0.0000 0.0000 0.0000 50.3745 0.0000 0.0000
# 5 0.0000 0.0000 0.0000 0.0000 48.3905 0.0000
# 6 0.0000 0.0000 0.0000 0.0000 0.0000 46.4261
#
#
#
# Elastic Compliance Matrix: (Units=1/GPa)
#
#
# Indices 1 2 3 4 5 6 
#
# 1 0.019734 -0.002960 0.000698 0.000000 0.000000 0.000000
# 2 -0.002960 0.007933 -0.002436 0.000000 0.000000 0.000000
# 3 0.000698 -0.002436 0.005695 0.000000 0.000000 0.000000
# 4 0.000000 0.000000 0.000000 0.019851 0.000000 0.000000
# 5 0.000000 0.000000 0.000000 0.000000 0.020665 0.000000
# 6 0.000000 0.000000 0.000000 0.000000 0.000000 0.021540
#
#
# Mechanical properties :
#
#
# Convention : Reuss Voigt Hill
#
# Bulk Modulus (GPa) = 41.72665 64.55978 53.14321
# Shear Modulus (GPa) = 44.32444 50.57585 47.45015
#
# Velocity S-wave (km/s) = 4.21221 4.49946 4.35820
# Velocity P-wave (km/s) = 6.35294 7.26885 6.82627
#
# Compressibility (1/GPa) = 0.02396550
#
# Stress axis : x y z
#
# Youngs Moduli (GPa) = 50.67287 126.05776 175.57971
#
# Poissons Ratio (x) = 0.37318 -0.12249
# Poissons Ratio (y) = 0.15001 0.42769
# Poissons Ratio (z) = -0.03535 0.30706
#
# Static dielectric constant tensor:
#      x y z
#    x 2.147300 0.000000 0.000000 
#    y 0.000000 1.749070 0.000000 
#    z 0.000000 0.000000 1.935400 
# 
# From -- ./inp_files/4857.got.cif
#   From: 2010.05.17/outbox.cif.g08.bks.cpg/sg62_3_cif.got.tgz:4857.got - 2010.06.03 15:25:27.
