data_PCOD9466278
_publ_section_title
;
Structure prediction by ZEFSAII (Michael W. Deem and Ramdas Pophale) SiO2 
 PCOD9466278
Probable space group: P N M A
;
_chemical_formula_sum "Si O2"
_cell_formula_units_Z 40
_cell_length_a 20.090505
_cell_length_b 11.763606
_cell_length_c 6.881004
_cell_angle_alpha 90.000000
_cell_angle_beta 90.000000
_cell_angle_gamma 90.000000
_cell_volume 1626.234364
_symmetry_space_group_name_H-M "P N M A"
_symmetry_group_IT_number 62
_symmetry_cell_setting 'orthorhombic'
loop_
_space_group_symop_operation_xyz
x,y,z
1/2-x,-y,1/2+z
1/2+x,1/2-y,1/2-z
-x,1/2+y,-z
-x,-y,-z
1/2+x,y,1/2-z
1/2-x,1/2+y,1/2+z
x,1/2-y,z
loop_
_atom_site_type_symbol
_atom_site_label
_atom_site_fract_x
_atom_site_fract_y
_atom_site_fract_z
Si Si1 0.303523 0.626006 0.993427
Si Si2 0.396344 0.625869 0.616846
Si Si3 0.356064 0.384590 0.960967
Si Si4 0.154535 0.586671 0.996423
Si Si5 0.469102 0.376033 0.227947
O O1 0.313211 0.750000 0.100870
O O2 0.353257 0.633256 0.811828
O O3 0.314747 0.491644 0.051934
O O4 0.226363 0.627065 0.933188
O O5 0.408235 0.750000 0.532219
O O6 0.354349 0.548460 0.473938
O O7 0.466738 0.568688 0.674105
O O8 0.342650 0.250000 0.015234
O O9 0.349535 0.388882 0.727849
O O10 0.430853 0.414181 0.035051
O O11 0.091184 0.631734 0.881208
O O12 0.495029 0.250000 0.179829
#
# Coordination Sequence:
#
# PCOD9466278 Si02
#       5
#     8   8   8   8   8
#     4  10  22  39  60  91 132 168 208 267 320 370
#     4   9  21  41  65  95 129 168 214 265 321 385
#     4  10  23  40  65  95 125 167 217 260 317 389
#     4  11  22  39  64  92 127 169 213 267 320 378
#     4  10  21  40  66  94 128 167 210 267 328 378
#
# _framework density 24.596699999999998
#
# number of rings (size 3 to 8) (size 9 to 14) (size 15 to 20)
#    0.000    2.000    0.000    2.400    5.600    4.000 
#    0.000    1.000    0.000    2.400    0.000    0.000 
#    0.000    0.000    0.000    0.000    0.000    0.000 
#
# Total GULP energy -222668.752808 kJ/mol
# GULP energy per Si atom -5566.718820 kJ/mol
# Density = 2.454072 g / cm^3
# Si number density = 24.596700 Si / 1000 Ang^3
#
#
#
# Elastic Constant Matrix: (Units=GPa)
#
#
# Indices 1 2 3 4 5 6 
#
# 1 163.2530 26.3432 29.3707 0.0000 0.0000 0.0000
# 2 26.3432 189.4480 14.2042 0.0000 0.0000 0.0000
# 3 29.3707 14.2042 81.0207 0.0000 0.0000 0.0000
# 4 0.0000 0.0000 0.0000 22.8202 0.0000 0.0000
# 5 0.0000 0.0000 0.0000 0.0000-1131.7864 0.0000
# 6 0.0000 0.0000 0.0000 0.0000 0.0000 16.1213
#
#
#
# Elastic Compliance Matrix: (Units=1/GPa)
#
#
# Indices 1 2 3 4 5 6 
#
# 1 0.006658 -0.000755 -0.002281 0.000000 0.000000 0.000000
# 2 -0.000755 0.005434 -0.000679 0.000000 0.000000 0.000000
# 3 -0.002281 -0.000679 0.013289 0.000000 0.000000 0.000000
# 4 0.000000 0.000000 0.000000 0.043821 0.000000 0.000000
# 5 0.000000 0.000000 0.000000 0.000000 -0.000884 0.000000
# 6 0.000000 0.000000 0.000000 0.000000 0.000000 0.062030
#
#
# Mechanical properties :
#
#
# Convention : Reuss Voigt Hill
#
# Bulk Modulus (GPa) = 55.70867 63.72865 59.71866
# Shear Modulus (GPa) = 34.78000 -194.31539 -79.76769
#
# Velocity S-wave (km/s) = 3.76441 -8.89787 -5.70093
# Velocity P-wave (km/s) = 6.44922 8.92172 4.35917
#
# Compressibility (1/GPa) = 0.01795053
#
# Stress axis : x y z
#
# Youngs Moduli (GPa) = 150.20323 184.01438 75.25294
#
# Poissons Ratio (x) = 0.13888 0.17166
# Poissons Ratio (y) = 0.11336 0.05111
# Poissons Ratio (z) = 0.34263 0.12497
#
# Static dielectric constant tensor:
#      x y z
#    x 1.918050 0.000000 0.000000 
#    y 0.000000 2.209320 0.000000 
#    z 0.000000 0.000000 1.961390 
# 
# From -- ./inp_files/7297.got.cif
#   From: 2010.05.17/outbox.cif.g08.bks.cpg/sg62_4_cif.got.tgz:7297.got - 2010.06.03 15:25:27.
