data_PCOD9466043
_publ_section_title
;
Structure prediction by ZEFSAII (Michael W. Deem and Ramdas Pophale) SiO2 
 PCOD9466043
Probable space group: P N M A
;
_chemical_formula_sum "Si O2"
_cell_formula_units_Z 64
_cell_length_a 12.247070
_cell_length_b 9.033946
_cell_length_c 31.094731
_cell_angle_alpha 90.000000
_cell_angle_beta 90.000000
_cell_angle_gamma 90.000000
_cell_volume 3440.301418
_symmetry_space_group_name_H-M "P N M A"
_symmetry_group_IT_number 62
_symmetry_cell_setting 'orthorhombic'
loop_
_space_group_symop_operation_xyz
x,y,z
1/2-x,-y,1/2+z
1/2+x,1/2-y,1/2-z
-x,1/2+y,-z
-x,-y,-z
1/2+x,y,1/2-z
1/2-x,1/2+y,1/2+z
x,1/2-y,z
loop_
_atom_site_type_symbol
_atom_site_label
_atom_site_fract_x
_atom_site_fract_y
_atom_site_fract_z
Si Si1 0.408077 0.069977 0.626659
Si Si2 0.739662 0.078227 0.173888
Si Si3 0.344461 0.571227 0.117883
Si Si4 0.548711 0.071527 0.708987
Si Si5 0.546896 0.073684 0.542619
Si Si6 0.244505 0.420367 0.426879
Si Si7 0.502693 0.573023 0.953159
Si Si8 0.511173 0.927875 0.193903
O O1 0.408336 0.250000 0.627361
O O2 0.281751 0.024269 0.622494
O O3 0.466400 0.021763 0.670983
O O4 0.478562 0.024707 0.584973
O O5 0.735937 0.250000 0.186263
O O6 0.769126 0.069176 0.123584
O O7 0.622019 0.005491 0.179692
O O8 0.832414 0.992975 0.199683
O O9 0.346728 0.750000 0.112516
O O10 0.405797 0.497311 0.077633
O O11 0.413573 0.535143 0.160901
O O12 0.553821 0.250000 0.707232
O O13 0.512830 0.029688 0.756905
O O14 0.538359 0.250000 0.539657
O O15 0.500000 0.000000 0.500000
O O16 0.671998 0.025065 0.548665
O O17 0.261562 0.250000 0.440999
O O18 0.117413 0.455443 0.433380
O O19 0.518016 0.750000 0.955987
O O20 0.500000 0.500000 0.000000
O O21 0.525234 0.750000 0.192345
#
# Coordination Sequence:
#
# PCOD9466043 Si02
#       8
#     8   8   8   8   8   8   8   8
#     4   9  20  38  59  84 119 156 192 241 298 348
#     4  11  22  39  62  87 122 159 197 248 304 358
#     4  10  21  39  60  87 120 158 197 240 298 357
#     4  10  21  39  63  91 120 155 203 251 294 351
#     4  11  23  39  61  89 120 157 199 248 300 358
#     4  10  22  41  62  84 118 158 198 247 299 353
#     4  11  24  42  62  88 119 156 198 248 300 355
#     4  10  22  37  63  92 119 156 203 250 292 349
#
# _framework density 18.603020999999998
#
# number of rings (size 3 to 8) (size 9 to 14) (size 15 to 20)
#    0.000    1.750    2.500    1.125    3.500    2.000 
#    0.000    1.250    0.000    0.000    0.000    0.000 
#    0.000    0.000    0.000    0.000    0.000    0.000 
#
# Total GULP energy -357409.390930 kJ/mol
# GULP energy per Si atom -5584.521733 kJ/mol
# Density = 1.856068 g / cm^3
# Si number density = 18.603021 Si / 1000 Ang^3
#
#
#
# Elastic Constant Matrix: (Units=GPa)
#
#
# Indices 1 2 3 4 5 6 
#
# 1 91.7836 24.3485 21.0434 0.0000 0.0000 0.0000
# 2 24.3485 23.2283 26.2067 0.0000 0.0000 0.0000
# 3 21.0434 26.2067 95.7053 0.0000 0.0000 0.0000
# 4 0.0000 0.0000 0.0000 26.2984 0.0000 0.0000
# 5 0.0000 0.0000 0.0000 0.0000 31.4886 0.0000
# 6 0.0000 0.0000 0.0000 0.0000 0.0000 24.7964
#
#
#
# Elastic Compliance Matrix: (Units=1/GPa)
#
#
# Indices 1 2 3 4 5 6 
#
# 1 0.015235 -0.017641 0.001481 0.000000 0.000000 0.000000
# 2 -0.017641 0.082722 -0.018773 0.000000 0.000000 0.000000
# 3 0.001481 -0.018773 0.015264 0.000000 0.000000 0.000000
# 4 0.000000 0.000000 0.000000 0.038025 0.000000 0.000000
# 5 0.000000 0.000000 0.000000 0.000000 0.031758 0.000000
# 6 0.000000 0.000000 0.000000 0.000000 0.000000 0.040328
#
#
# Mechanical properties :
#
#
# Convention : Reuss Voigt Hill
#
# Bulk Modulus (GPa) = 23.06502 39.32380 31.19441
# Shear Modulus (GPa) = 16.25222 25.79126 21.02174
#
# Velocity S-wave (km/s) = 2.95894 3.72748 3.36522
# Velocity P-wave (km/s) = 4.90909 6.30157 5.64840
#
# Compressibility (1/GPa) = 0.04335569
#
# Stress axis : x y z
#
# Youngs Moduli (GPa) = 65.63625 12.08864 65.51489
#
# Poissons Ratio (x) = 0.21325 -0.09700
# Poissons Ratio (y) = 1.15786 1.22990
# Poissons Ratio (z) = -0.09718 0.22694
#
# Static dielectric constant tensor:
#      x y z
#    x 1.618480 0.000000 0.000000 
#    y 0.000000 1.626110 0.000000 
#    z 0.000000 0.000000 1.647640 
# 
# From -- ./inp_files/32502.got.cif
#   From: 2010.05.17/outbox.cif.g08.bks.cpg/sg62_17_cif.got.tgz:32502.got - 2010.06.03 15:25:27.
