data_PCOD9466521
_publ_section_title
;
Structure prediction by ZEFSAII (Michael W. Deem and Ramdas Pophale) SiO2 
 PCOD9466521
Probable space group: P N M A
;
_chemical_formula_sum "Si O2"
_cell_formula_units_Z 48
_cell_length_a 11.394061
_cell_length_b 20.348845
_cell_length_c 11.310730
_cell_angle_alpha 90.000000
_cell_angle_beta 90.000000
_cell_angle_gamma 90.000000
_cell_volume 2622.460402
_symmetry_space_group_name_H-M "P N M A"
_symmetry_group_IT_number 62
_symmetry_cell_setting 'orthorhombic'
loop_
_space_group_symop_operation_xyz
x,y,z
1/2-x,-y,1/2+z
1/2+x,1/2-y,1/2-z
-x,1/2+y,-z
-x,-y,-z
1/2+x,y,1/2-z
1/2-x,1/2+y,1/2+z
x,1/2-y,z
loop_
_atom_site_type_symbol
_atom_site_label
_atom_site_fract_x
_atom_site_fract_y
_atom_site_fract_z
Si Si1 0.666867 0.673241 0.489626
Si Si2 0.057526 0.940057 0.155895
Si Si3 0.064889 0.327852 0.436062
Si Si4 0.449682 0.672683 0.659777
Si Si5 0.069219 0.941420 0.435920
Si Si6 0.337462 0.938450 0.512501
O O1 0.657668 0.750000 0.456542
O O2 0.625297 0.625418 0.385921
O O3 0.799422 0.660075 0.529634
O O4 0.576185 0.661971 0.597981
O O5 0.053094 0.946329 0.295644
O O6 0.928579 0.937885 0.096855
O O7 0.124252 0.001207 0.095903
O O8 0.041445 0.250000 0.450828
O O9 0.047605 0.344419 0.297813
O O10 0.983490 0.373270 0.515663
O O11 0.420532 0.750000 0.650020
O O12 0.359613 0.627546 0.588016
O O13 0.205785 0.945430 0.468852
O O14 0.000000 0.000000 0.500000
#
# Coordination Sequence:
#
# PCOD9466521 Si02
#       6
#     8   8   8   8   8   8
#     4   9  19  38  63  86 119 161 194 237 296 350
#     4  10  23  43  62  84 120 153 198 244 295 353
#     4  10  22  38  61  93 124 155 196 245 294 348
#     4   9  19  38  62  90 120 154 197 243 292 346
#     4  12  26  39  63  90 121 154 198 248 296 354
#     4  10  23  40  63  88 114 159 195 242 299 352
#
# _framework density 18.303422000000001
#
# number of rings (size 3 to 8) (size 9 to 14) (size 15 to 20)
#    0.000    2.000    0.000    2.000    7.000    1.333 
#    0.000    0.000    0.000    0.000    0.000    0.000 
#    0.000    0.000    0.000    0.000    0.000    0.000 
#
# Total GULP energy -268189.474296 kJ/mol
# GULP energy per Si atom -5587.280715 kJ/mol
# Density = 1.826176 g / cm^3
# Si number density = 18.303422 Si / 1000 Ang^3
#
#
#
# Elastic Constant Matrix: (Units=GPa)
#
#
# Indices 1 2 3 4 5 6 
#
# 1 118.0517 63.2170 78.0214 0.0000 0.0000 0.0000
# 2 63.2170 69.3100 73.6616 0.0000 0.0000 0.0000
# 3 78.0214 73.6616 181.6882 0.0000 0.0000 0.0000
# 4 0.0000 0.0000 0.0000 26.3497 0.0000 0.0000
# 5 0.0000 0.0000 0.0000 0.0000 10.5573 0.0000
# 6 0.0000 0.0000 0.0000 0.0000 0.0000 25.4226
#
#
#
# Elastic Compliance Matrix: (Units=1/GPa)
#
#
# Indices 1 2 3 4 5 6 
#
# 1 0.016876 -0.013513 -0.001768 0.000000 0.000000 0.000000
# 2 -0.013513 0.036171 -0.008862 0.000000 0.000000 0.000000
# 3 -0.001768 -0.008862 0.009856 0.000000 0.000000 0.000000
# 4 0.000000 0.000000 0.000000 0.037951 0.000000 0.000000
# 5 0.000000 0.000000 0.000000 0.000000 0.094721 0.000000
# 6 0.000000 0.000000 0.000000 0.000000 0.000000 0.039335
#
#
# Mechanical properties :
#
#
# Convention : Reuss Voigt Hill
#
# Bulk Modulus (GPa) = 68.41483 88.76112 78.58797
# Shear Modulus (GPa) = 17.35691 22.74258 20.04974
#
# Velocity S-wave (km/s) = 3.08277 3.52878 3.31329
# Velocity P-wave (km/s) = 7.08030 8.07481 7.59385
#
# Compressibility (1/GPa) = 0.01461671
#
# Stress axis : x y z
#
# Youngs Moduli (GPa) = 59.25656 27.64610 101.45772
#
# Poissons Ratio (x) = 0.37358 0.17942
# Poissons Ratio (y) = 0.80072 0.89914
# Poissons Ratio (z) = 0.10479 0.24501
#
# Static dielectric constant tensor:
#      x y z
#    x 1.604560 0.000000 0.000000 
#    y 0.000000 1.635990 0.000000 
#    z 0.000000 0.000000 1.587040 
# 
# From -- ./inp_files/12252.got.cif
#   From: 2010.05.17/outbox.cif.g08.bks.cpg/sg62_7_cif.got.tgz:12252.got - 2010.06.03 15:25:27.
