data_PCOD9466732
_publ_section_title
;
Structure prediction by ZEFSAII (Michael W. Deem and Ramdas Pophale) SiO2 
 PCOD9466732
Probable space group: P N M A
;
_chemical_formula_sum "Si O2"
_cell_formula_units_Z 36
_cell_length_a 5.098177
_cell_length_b 13.133657
_cell_length_c 21.385177
_cell_angle_alpha 90.000000
_cell_angle_beta 90.000000
_cell_angle_gamma 90.000000
_cell_volume 1431.902438
_symmetry_space_group_name_H-M "P N M A"
_symmetry_group_IT_number 62
_symmetry_cell_setting 'orthorhombic'
loop_
_space_group_symop_operation_xyz
x,y,z
1/2-x,-y,1/2+z
1/2+x,1/2-y,1/2-z
-x,1/2+y,-z
-x,-y,-z
1/2+x,y,1/2-z
1/2-x,1/2+y,1/2+z
x,1/2-y,z
loop_
_atom_site_type_symbol
_atom_site_label
_atom_site_fract_x
_atom_site_fract_y
_atom_site_fract_z
Si Si1 0.784650 0.250000 0.786352
Si Si2 0.323870 0.090790 0.291444
Si Si3 0.526409 0.927701 0.150703
Si Si4 0.886374 0.640294 0.044522
Si Si5 0.359286 0.569058 0.590436
O O1 0.595681 0.250000 0.724463
O O2 0.681260 0.351163 0.820095
O O3 0.062088 0.121461 0.254346
O O4 0.432754 0.117330 0.361030
O O5 0.255142 0.969741 0.303290
O O6 0.641997 0.872353 0.090473
O O7 0.391534 0.033650 0.129626
O O8 0.013986 0.750000 0.055923
O O9 0.049124 0.540875 0.063415
O O10 0.811244 0.632762 0.971719
#
# Coordination Sequence:
#
# PCOD9466732 Si02
#       5
#     4   8   8   8   8
#     4  12  28  36  58  96 138 178 214 258 324 410
#     4  11  21  38  64  92 126 170 214 268 328 394
#     4  11  22  38  60  91 135 174 214 268 321 400
#     4  10  22  41  64  95 130 172 223 278 328 386
#     4  10  23  39  65  96 129 174 222 268 333 396
#
# _framework density 25.141376999999999
#
# number of rings (size 3 to 8) (size 9 to 14) (size 15 to 20)
#    0.000    1.333    3.333    2.000    7.778    0.000 
#    0.000    0.000    0.000    1.333    0.000    0.000 
#    0.000    0.000    0.000    0.000    0.000    0.000 
#
# Total GULP energy -200946.731173 kJ/mol
# GULP energy per Si atom -5581.853644 kJ/mol
# Density = 2.508415 g / cm^3
# Si number density = 25.141377 Si / 1000 Ang^3
#
#
#
# Elastic Constant Matrix: (Units=GPa)
#
#
# Indices 1 2 3 4 5 6 
#
# 1 93.9309 14.9894 24.0968 0.0000 0.0000 0.0000
# 2 14.9894 72.3513 22.1867 0.0000 0.0000 0.0000
# 3 24.0968 22.1867 120.2151 0.0000 0.0000 0.0000
# 4 0.0000 0.0000 0.0000 16.3934 0.0000 0.0000
# 5 0.0000 0.0000 0.0000 0.0000 29.8136 0.0000
# 6 0.0000 0.0000 0.0000 0.0000 0.0000 -7.3996
#
#
#
# Elastic Compliance Matrix: (Units=1/GPa)
#
#
# Indices 1 2 3 4 5 6 
#
# 1 0.011432 -0.001766 -0.001966 0.000000 0.000000 0.000000
# 2 -0.001766 0.014923 -0.002400 0.000000 0.000000 0.000000
# 3 -0.001966 -0.002400 0.009155 0.000000 0.000000 0.000000
# 4 0.000000 0.000000 0.000000 0.061000 0.000000 0.000000
# 5 0.000000 0.000000 0.000000 0.000000 0.033542 0.000000
# 6 0.000000 0.000000 0.000000 0.000000 0.000000 -0.135142
#
#
# Mechanical properties :
#
#
# Convention : Reuss Voigt Hill
#
# Bulk Modulus (GPa) = 43.01521 45.44924 44.23223
# Shear Modulus (GPa) = 335.04885 22.77643 178.91264
#
# Velocity S-wave (km/s) = 11.55661 3.01314 8.44495
# Velocity P-wave (km/s) = 13.97212 5.49746 10.61702
#
# Compressibility (1/GPa) = 0.02324759
#
# Stress axis : x y z
#
# Youngs Moduli (GPa) = 87.47248 67.00929 109.22474
#
# Poissons Ratio (x) = 0.11832 0.21470
# Poissons Ratio (y) = 0.15445 0.26217
# Poissons Ratio (z) = 0.17194 0.16084
#
# Static dielectric constant tensor:
#      x y z
#    x 2.068660 0.000000 0.000000 
#    y 0.000000 1.997390 0.000000 
#    z 0.000000 0.000000 2.079490 
# 
# From -- ./inp_files/25191.got.cif
#   From: 2010.05.17/outbox.cif.g08.bks.cpg/sg62_13_cif.got.tgz:25191.got - 2010.06.03 15:25:27.
