data_PCOD9466617
_publ_section_title
;
Structure prediction by ZEFSAII (Michael W. Deem and Ramdas Pophale) SiO2 
 PCOD9466617
Probable space group: P N M A
;
_chemical_formula_sum "Si O2"
_cell_formula_units_Z 48
_cell_length_a 14.514938
_cell_length_b 24.850832
_cell_length_c 7.255973
_cell_angle_alpha 90.000000
_cell_angle_beta 90.000000
_cell_angle_gamma 90.000000
_cell_volume 2617.289582
_symmetry_space_group_name_H-M "P N M A"
_symmetry_group_IT_number 62
_symmetry_cell_setting 'orthorhombic'
loop_
_space_group_symop_operation_xyz
x,y,z
1/2-x,-y,1/2+z
1/2+x,1/2-y,1/2-z
-x,1/2+y,-z
-x,-y,-z
1/2+x,y,1/2-z
1/2-x,1/2+y,1/2+z
x,1/2-y,z
loop_
_atom_site_type_symbol
_atom_site_label
_atom_site_fract_x
_atom_site_fract_y
_atom_site_fract_z
Si Si1 0.062637 0.687953 0.313250
Si Si2 0.823327 0.439634 0.310616
Si Si3 0.202393 0.439969 0.543419
Si Si4 0.942107 0.812158 0.958210
Si Si5 0.480686 0.890964 0.880113
Si Si6 0.741583 0.139518 0.617944
O O1 0.044879 0.750000 0.365645
O O2 0.170748 0.675248 0.325915
O O3 0.022607 0.680116 0.108743
O O4 0.012052 0.647058 0.450929
O O5 0.801892 0.499452 0.381604
O O6 0.783719 0.433880 0.105412
O O7 0.772880 0.397269 0.445363
O O8 0.931741 0.427150 0.324776
O O9 0.106982 0.425504 0.441582
O O10 0.216559 0.399453 0.712910
O O11 0.942958 0.750000 0.897562
O O12 0.846184 0.825730 0.059017
O O13 0.955190 0.852453 0.789481
#
# Coordination Sequence:
#
# PCOD9466617 Si02
#       6
#     8   8   8   8   8   8
#     4  10  22  40  61  87 121 160 201 246 300 359
#     4  11  24  40  63  90 124 160 205 250 305 360
#     4  12  22  42  62  92 123 161 206 249 304 363
#     4  11  22  40  63  91 122 157 202 248 302 363
#     4  11  23  40  63  91 123 160 199 253 303 358
#     4  11  22  40  62  89 121 161 201 253 300 359
#
# _framework density 18.339583999999999
#
# number of rings (size 3 to 8) (size 9 to 14) (size 15 to 20)
#    0.000    1.000    5.000    2.500    0.000    0.000 
#    0.000    1.667    0.000    0.000    0.000    0.000 
#    0.000    0.000    0.000    0.000    0.000    0.000 
#
# Total GULP energy -268312.951130 kJ/mol
# GULP energy per Si atom -5589.853149 kJ/mol
# Density = 1.829784 g / cm^3
# Si number density = 18.339584 Si / 1000 Ang^3
#
#
#
# Elastic Constant Matrix: (Units=GPa)
#
#
# Indices 1 2 3 4 5 6 
#
# 1 26.1211 -19.7269 -7.2758 0.0000 0.0000 0.0000
# 2 -19.7269 25.0653 -3.5850 0.0000 0.0000 0.0000
# 3 -7.2758 -3.5850 44.9859 0.0000 0.0000 0.0000
# 4 0.0000 0.0000 0.0000 24.4361 0.0000 0.0000
# 5 0.0000 0.0000 0.0000 0.0000 29.9523 0.0000
# 6 0.0000 0.0000 0.0000 0.0000 0.0000 19.4796
#
#
#
# Elastic Compliance Matrix: (Units=1/GPa)
#
#
# Indices 1 2 3 4 5 6 
#
# 1 0.120437 0.098698 0.027344 0.000000 0.000000 0.000000
# 2 0.098698 0.121238 0.025624 0.000000 0.000000 0.000000
# 3 0.027344 0.025624 0.028694 0.000000 0.000000 0.000000
# 4 0.000000 0.000000 0.000000 0.040923 0.000000 0.000000
# 5 0.000000 0.000000 0.000000 0.000000 0.033386 0.000000
# 6 0.000000 0.000000 0.000000 0.000000 0.000000 0.051336
#
#
# Mechanical properties :
#
#
# Convention : Reuss Voigt Hill
#
# Bulk Modulus (GPa) = 1.74307 3.88855 2.81581
# Shear Modulus (GPa) = 17.61087 23.22425 20.41756
#
# Velocity S-wave (km/s) = 3.10218 3.56244 3.34024
# Velocity P-wave (km/s) = 3.71266 4.36419 4.05154
#
# Compressibility (1/GPa) = 0.57370074
#
# Stress axis : x y z
#
# Youngs Moduli (GPa) = 8.30309 8.24825 34.85083
#
# Poissons Ratio (x) = -0.81408 -0.95297
# Poissons Ratio (y) = -0.81949 -0.89303
# Poissons Ratio (z) = -0.22704 -0.21136
#
# Static dielectric constant tensor:
#      x y z
#    x 1.609210 0.000000 0.000000 
#    y 0.000000 1.589350 0.000000 
#    z 0.000000 0.000000 1.602970 
# 
# From -- ./inp_files/1151.got.cif
#   From: 2010.05.17/outbox.cif.g08.bks.cpg/sg62_1_cif.got.tgz:1151.got - 2010.06.03 15:25:27.
