data_PCOD9466475
_publ_section_title
;
Structure prediction by ZEFSAII (Michael W. Deem and Ramdas Pophale) SiO2 
 PCOD9466475
Probable space group: P N M A
;
_chemical_formula_sum "Si O2"
_cell_formula_units_Z 40
_cell_length_a 5.201778
_cell_length_b 12.851476
_cell_length_c 25.557845
_cell_angle_alpha 90.000000
_cell_angle_beta 90.000000
_cell_angle_gamma 90.000000
_cell_volume 1708.555359
_symmetry_space_group_name_H-M "P N M A"
_symmetry_group_IT_number 62
_symmetry_cell_setting 'orthorhombic'
loop_
_space_group_symop_operation_xyz
x,y,z
1/2-x,-y,1/2+z
1/2+x,1/2-y,1/2-z
-x,1/2+y,-z
-x,-y,-z
1/2+x,y,1/2-z
1/2-x,1/2+y,1/2+z
x,1/2-y,z
loop_
_atom_site_type_symbol
_atom_site_label
_atom_site_fract_x
_atom_site_fract_y
_atom_site_fract_z
Si Si1 0.115546 0.628767 0.714876
Si Si2 0.575822 0.134716 0.942684
Si Si3 0.218549 0.129489 0.784350
Si Si4 0.191823 0.552999 0.959138
Si Si5 0.088704 0.997172 0.132850
O O1 0.337369 0.612740 0.758984
O O2 0.129836 0.750000 0.698961
O O3 0.198424 0.555377 0.667368
O O4 0.482557 0.250000 0.929083
O O5 0.378312 0.039768 0.941507
O O6 0.792209 0.096143 0.902014
O O7 0.667292 0.134326 0.003535
O O8 0.504630 0.115482 0.761604
O O9 0.197644 0.250000 0.801203
O O10 0.123609 0.054449 0.829889
O O11 0.035691 0.580356 0.907311
O O12 0.000000 0.500000 0.000000
#
# Coordination Sequence:
#
# PCOD9466475 Si02
#       5
#     8   8   8   8   8
#     4  10  23  42  65  95 133 176 219 267 320 377
#     4  10  22  41  64  92 125 162 208 265 328 393
#     4  10  22  37  55  89 131 170 209 254 313 380
#     4   9  22  41  60  90 124 163 208 261 329 385
#     4  11  22  37  65  93 121 166 213 264 320 380
#
# _framework density 23.411593
#
# number of rings (size 3 to 8) (size 9 to 14) (size 15 to 20)
#    0.000    2.000    0.000    1.800    5.600    4.800 
#    0.000    8.000    0.000    0.000    0.000    0.000 
#    0.000    0.000    0.000    0.000    0.000    0.000 
#
# Total GULP energy -223635.644038 kJ/mol
# GULP energy per Si atom -5590.891101 kJ/mol
# Density = 2.335831 g / cm^3
# Si number density = 23.411593 Si / 1000 Ang^3
#
#
#
# Elastic Constant Matrix: (Units=GPa)
#
#
# Indices 1 2 3 4 5 6 
#
# 1 93.1286 8.0259 31.5197 0.0000 0.0000 0.0000
# 2 8.0259 98.6354 37.3881 0.0000 0.0000 0.0000
# 3 31.5197 37.3881 120.4446 0.0000 0.0000 0.0000
# 4 0.0000 0.0000 0.0000 15.8528 0.0000 0.0000
# 5 0.0000 0.0000 0.0000 0.0000 40.0431 0.0000
# 6 0.0000 0.0000 0.0000 0.0000 0.0000 15.1197
#
#
#
# Elastic Compliance Matrix: (Units=1/GPa)
#
#
# Indices 1 2 3 4 5 6 
#
# 1 0.011786 0.000238 -0.003158 0.000000 0.000000 0.000000
# 2 0.000238 0.011495 -0.003631 0.000000 0.000000 0.000000
# 3 -0.003158 -0.003631 0.010256 0.000000 0.000000 0.000000
# 4 0.000000 0.000000 0.000000 0.063080 0.000000 0.000000
# 5 0.000000 0.000000 0.000000 0.000000 0.024973 0.000000
# 6 0.000000 0.000000 0.000000 0.000000 0.000000 0.066139
#
#
# Mechanical properties :
#
#
# Convention : Reuss Voigt Hill
#
# Bulk Modulus (GPa) = 48.93345 51.78621 50.35983
# Shear Modulus (GPa) = 24.07971 29.88810 26.98391
#
# Velocity S-wave (km/s) = 3.21056 3.57688 3.39866
# Velocity P-wave (km/s) = 5.88985 6.26312 6.07935
#
# Compressibility (1/GPa) = 0.02043592
#
# Stress axis : x y z
#
# Youngs Moduli (GPa) = 84.84450 86.99311 97.50302
#
# Poissons Ratio (x) = -0.02072 0.30795
# Poissons Ratio (y) = -0.02020 0.35400
# Poissons Ratio (z) = 0.26797 0.31584
#
# Static dielectric constant tensor:
#      x y z
#    x -0.083610 0.000000 0.000000 
#    y 0.000000 1.888150 0.000000 
#    z 0.000000 0.000000 3.219800 
# 
# From -- ./inp_files/28250.got.cif
#   From: 2010.05.17/outbox.cif.g08.bks.cpg/sg62_15_cif.got.tgz:28250.got - 2010.06.03 15:25:27.
