data_PCOD9466410
_publ_section_title
;
Structure prediction by ZEFSAII (Michael W. Deem and Ramdas Pophale) SiO2 
 PCOD9466410
Probable space group: P N M A
;
_chemical_formula_sum "Si O2"
_cell_formula_units_Z 48
_cell_length_a 14.886894
_cell_length_b 18.388132
_cell_length_c 7.480556
_cell_angle_alpha 90.000000
_cell_angle_beta 90.000000
_cell_angle_gamma 90.000000
_cell_volume 2047.743647
_symmetry_space_group_name_H-M "P N M A"
_symmetry_group_IT_number 62
_symmetry_cell_setting 'orthorhombic'
loop_
_space_group_symop_operation_xyz
x,y,z
1/2-x,-y,1/2+z
1/2+x,1/2-y,1/2-z
-x,1/2+y,-z
-x,-y,-z
1/2+x,y,1/2-z
1/2-x,1/2+y,1/2+z
x,1/2-y,z
loop_
_atom_site_type_symbol
_atom_site_label
_atom_site_fract_x
_atom_site_fract_y
_atom_site_fract_z
Si Si1 0.845016 0.590625 0.912887
Si Si2 0.686484 0.874584 0.456013
Si Si3 0.493007 0.250000 0.103339
Si Si4 0.311291 0.995900 0.217918
Si Si5 0.539878 0.591871 0.741026
Si Si6 0.809304 0.750000 0.502848
Si Si7 0.687308 0.250000 0.562214
Si Si8 0.128581 0.750000 0.308943
O O1 0.760536 0.562370 0.795226
O O2 0.938099 0.573405 0.811285
O O3 0.834466 0.545271 0.097436
O O4 0.847170 0.675114 0.976002
O O5 0.602933 0.904061 0.565913
O O6 0.749700 0.817862 0.556187
O O7 0.645019 0.823149 0.301685
O O8 0.755341 0.934246 0.384565
O O9 0.459036 0.173761 0.182141
O O10 0.599311 0.250000 0.106808
O O11 0.467356 0.250000 0.895599
O O12 0.404588 0.031220 0.146530
O O13 0.822774 0.750000 0.283026
O O14 0.795233 0.250000 0.539080
#
# Coordination Sequence:
#
# PCOD9466410 Si02
#       8
#     8   8   4   8   8   4   4   4
#     4  12  26  49  74 111 147 199 242 310 367 448
#     4  10  23  46  72 100 141 198 233 308 368 437
#     4  12  27  43  69 115 139 190 248 318 354 451
#     4  12  25  46  73 106 147 192 241 303 378 428
#     4  12  28  46  72 105 151 193 247 303 375 440
#     4  10  23  43  71 106 141 182 255 296 369 429
#     4  10  21  46  77  98 142 199 241 296 362 436
#     4  10  21  42  71 105 138 185 252 296 363 440
#
# _framework density 23.440435000000001
#
# number of rings (size 3 to 8) (size 9 to 14) (size 15 to 20)
#    0.000    1.000    5.000    3.000    4.667    0.000 
#    3.000    1.667    0.000    0.000    0.000    0.000 
#    0.000    0.000    0.000    0.000    0.000    0.000 
#
# Total GULP energy -268003.082236 kJ/mol
# GULP energy per Si atom -5583.397547 kJ/mol
# Density = 2.338708 g / cm^3
# Si number density = 23.440435 Si / 1000 Ang^3
#
#
#
# Elastic Constant Matrix: (Units=GPa)
#
#
# Indices 1 2 3 4 5 6 
#
# 1 103.1530 20.1335 1.1025 0.0000 0.0000 0.0000
# 2 20.1335 157.6112 34.9097 0.0000 0.0000 0.0000
# 3 1.1025 34.9097 33.9939 0.0000 0.0000 0.0000
# 4 0.0000 0.0000 0.0000 10.3647 0.0000 0.0000
# 5 0.0000 0.0000 0.0000 0.0000 44.0987 0.0000
# 6 0.0000 0.0000 0.0000 0.0000 0.0000 568.7070
#
#
#
# Elastic Compliance Matrix: (Units=1/GPa)
#
#
# Indices 1 2 3 4 5 6 
#
# 1 0.009985 -0.001558 0.001276 0.000000 0.000000 0.000000
# 2 -0.001558 0.008456 -0.008633 0.000000 0.000000 0.000000
# 3 0.001276 -0.008633 0.038241 0.000000 0.000000 0.000000
# 4 0.000000 0.000000 0.000000 0.096482 0.000000 0.000000
# 5 0.000000 0.000000 0.000000 0.000000 0.022676 0.000000
# 6 0.000000 0.000000 0.000000 0.000000 0.000000 0.001758
#
#
# Mechanical properties :
#
#
# Convention : Reuss Voigt Hill
#
# Bulk Modulus (GPa) = 25.73869 45.22774 35.48321
# Shear Modulus (GPa) = 23.99469 140.54158 82.26814
#
# Velocity S-wave (km/s) = 3.20292 7.75158 5.93067
# Velocity P-wave (km/s) = 4.96815 9.97260 7.87830
#
# Compressibility (1/GPa) = 0.03885202
#
# Stress axis : x y z
#
# Youngs Moduli (GPa) = 100.15205 118.25972 26.14966
#
# Poissons Ratio (x) = 0.18427 -0.03337
# Poissons Ratio (y) = 0.15605 0.22576
# Poissons Ratio (z) = -0.12782 1.02096
#
# Static dielectric constant tensor:
#      x y z
#    x 1.843800 0.000000 0.000000 
#    y 0.000000 1.823280 0.000000 
#    z 0.000000 0.000000 1.977600 
# 
# From -- ./inp_files/6562.got.cif
#   From: 2010.05.17/outbox.cif.g08.bks.cpg/sg62_4_cif.got.tgz:6562.got - 2010.06.03 15:25:27.
