data_PCOD9466102
_publ_section_title
;
Structure prediction by ZEFSAII (Michael W. Deem and Ramdas Pophale) SiO2 
 PCOD9466102
Probable space group: P N M A
;
_chemical_formula_sum "Si O2"
_cell_formula_units_Z 48
_cell_length_a 9.220310
_cell_length_b 9.742455
_cell_length_c 27.031047
_cell_angle_alpha 90.000000
_cell_angle_beta 90.000000
_cell_angle_gamma 90.000000
_cell_volume 2428.157196
_symmetry_space_group_name_H-M "P N M A"
_symmetry_group_IT_number 62
_symmetry_cell_setting 'orthorhombic'
loop_
_space_group_symop_operation_xyz
x,y,z
1/2-x,-y,1/2+z
1/2+x,1/2-y,1/2-z
-x,1/2+y,-z
-x,-y,-z
1/2+x,y,1/2-z
1/2-x,1/2+y,1/2+z
x,1/2-y,z
loop_
_atom_site_type_symbol
_atom_site_label
_atom_site_fract_x
_atom_site_fract_y
_atom_site_fract_z
Si Si1 0.654453 0.408981 0.716893
Si Si2 0.115575 0.750000 0.929625
Si Si3 0.990583 0.508162 0.604971
Si Si4 0.554134 0.089043 0.214758
Si Si5 0.514066 0.750000 0.461129
Si Si6 0.652027 0.250000 0.926448
Si Si7 0.047910 0.250000 0.464256
Si Si8 0.148893 0.458066 0.894165
O O1 0.676407 0.250000 0.733492
O O2 0.547463 0.496388 0.750851
O O3 0.796764 0.504073 0.715728
O O4 0.606443 0.402519 0.659497
O O5 0.284133 0.750000 0.946597
O O6 0.098283 0.614528 0.897844
O O7 0.022500 0.750000 0.979655
O O8 0.997677 0.583093 0.657705
O O9 0.018511 0.614386 0.560400
O O10 0.824208 0.452975 0.600312
O O11 0.103225 0.384578 0.602718
O O12 0.566513 0.250000 0.229318
O O13 0.679482 0.750000 0.441129
O O14 0.428048 0.621820 0.438449
O O15 0.556065 0.250000 0.976958
#
# Coordination Sequence:
#
# PCOD9466102 Si02
#       8
#     8   4   8   8   4   4   4   8
#     4  11  24  41  66  94 124 158 205 254 310 366
#     4   9  20  35  64  87 117 160 202 253 292 359
#     4  10  21  39  63  87 116 161 207 242 296 364
#     4  11  24  42  67  92 123 160 206 254 307 369
#     4  11  21  39  54  91 126 156 199 251 308 345
#     4  11  23  33  60  89 126 160 193 255 302 351
#     4   9  18  39  58  89 119 156 206 249 296 349
#     4  10  21  39  64  85 118 159 207 242 295 366
#
# _framework density 19.768079
#
# number of rings (size 3 to 8) (size 9 to 14) (size 15 to 20)
#    0.000    1.667    1.667    2.500    9.333    1.333 
#    0.000    2.500    0.000    0.000    0.000    0.000 
#    0.000    0.000    0.000    0.000    0.000    0.000 
#
# Total GULP energy -267925.782792 kJ/mol
# GULP energy per Si atom -5581.787142 kJ/mol
# Density = 1.972309 g / cm^3
# Si number density = 19.768079 Si / 1000 Ang^3
#
#
#
# Elastic Constant Matrix: (Units=GPa)
#
#
# Indices 1 2 3 4 5 6 
#
# 1 29.6258 19.5221 21.8357 0.0000 0.0000 0.0000
# 2 19.5221 158.4728 22.7958 0.0000 0.0000 0.0000
# 3 21.8357 22.7958 51.6155 0.0000 0.0000 0.0000
# 4 0.0000 0.0000 0.0000 38.2091 0.0000 0.0000
# 5 0.0000 0.0000 0.0000 0.0000 28.6175 0.0000
# 6 0.0000 0.0000 0.0000 0.0000 0.0000 1.8361
#
#
#
# Elastic Compliance Matrix: (Units=1/GPa)
#
#
# Indices 1 2 3 4 5 6 
#
# 1 0.050682 -0.003374 -0.019951 0.000000 0.000000 0.000000
# 2 -0.003374 0.006963 -0.001648 0.000000 0.000000 0.000000
# 3 -0.019951 -0.001648 0.028542 0.000000 0.000000 0.000000
# 4 0.000000 0.000000 0.000000 0.026172 0.000000 0.000000
# 5 0.000000 0.000000 0.000000 0.000000 0.034944 0.000000
# 6 0.000000 0.000000 0.000000 0.000000 0.000000 0.544636
#
#
# Mechanical properties :
#
#
# Convention : Reuss Voigt Hill
#
# Bulk Modulus (GPa) = 27.59220 40.89126 34.24173
# Shear Modulus (GPa) = 6.63161 25.43658 16.03409
#
# Velocity S-wave (km/s) = 1.83357 3.59102 2.85109
# Velocity P-wave (km/s) = 4.29778 6.15827 5.31014
#
# Compressibility (1/GPa) = 0.03624212
#
# Stress axis : x y z
#
# Youngs Moduli (GPa) = 19.73078 143.61882 35.03613
#
# Poissons Ratio (x) = 0.48451 0.69900
# Poissons Ratio (y) = 0.06656 0.05774
# Poissons Ratio (z) = 0.39365 0.23668
#
# Static dielectric constant tensor:
#      x y z
#    x 1.717500 0.000000 0.000000 
#    y 0.000000 1.732860 0.000000 
#    z 0.000000 0.000000 1.690700 
# 
# From -- ./inp_files/32117.got.cif
#   From: 2010.05.17/outbox.cif.g08.bks.cpg/sg62_17_cif.got.tgz:32117.got - 2010.06.03 15:25:27.
