data_PCOD9466900
_publ_section_title
;
Structure prediction by ZEFSAII (Michael W. Deem and Ramdas Pophale) SiO2 
 PCOD9466900
Probable space group: P N M A
;
_chemical_formula_sum "Si O2"
_cell_formula_units_Z 36
_cell_length_a 11.841701
_cell_length_b 17.966304
_cell_length_c 7.326917
_cell_angle_alpha 90.000000
_cell_angle_beta 90.000000
_cell_angle_gamma 90.000000
_cell_volume 1558.813315
_symmetry_space_group_name_H-M "P N M A"
_symmetry_group_IT_number 62
_symmetry_cell_setting 'orthorhombic'
loop_
_space_group_symop_operation_xyz
x,y,z
1/2-x,-y,1/2+z
1/2+x,1/2-y,1/2-z
-x,1/2+y,-z
-x,-y,-z
1/2+x,y,1/2-z
1/2-x,1/2+y,1/2+z
x,1/2-y,z
loop_
_atom_site_type_symbol
_atom_site_label
_atom_site_fract_x
_atom_site_fract_y
_atom_site_fract_z
Si Si1 0.894166 0.379280 0.917111
Si Si2 0.715216 0.750000 0.218843
Si Si3 0.057857 0.250000 0.022340
Si Si4 0.215108 0.592824 0.731672
Si Si5 0.882485 0.005000 0.597275
Si Si6 0.606077 0.750000 0.859622
O O1 0.795335 0.321635 0.850551
O O2 0.900892 0.437487 0.758186
O O3 0.999035 0.324916 0.948188
O O4 0.870396 0.423584 0.102817
O O5 0.820414 0.750000 0.078805
O O6 0.605518 0.750000 0.080664
O O7 0.009661 0.250000 0.236714
O O8 0.199130 0.542477 0.553881
O O9 0.179770 0.677194 0.690899
O O10 0.334477 0.571650 0.820913
O O11 0.000000 0.000000 0.500000
#
# Coordination Sequence:
#
# PCOD9466900 Si02
#       6
#     8   4   4   8   8   4
#     4  10  23  44  64 101 141 172 236 280 333 426
#     4  11  21  43  73  96 142 187 219 294 352 394
#     4   9  23  39  67 102 134 179 225 286 348 408
#     4  11  24  47  67 102 143 177 236 288 339 415
#     4  12  26  43  71 102 136 188 223 282 354 409
#     4  10  22  44  70 102 136 184 240 284 336 426
#
# _framework density 23.094491000000001
#
# number of rings (size 3 to 8) (size 9 to 14) (size 15 to 20)
#    0.000    1.333    4.444    0.667    3.111    4.444 
#    0.000    0.000    0.000    0.000    0.000    0.000 
#    0.000    0.000    0.000    0.000    0.000    0.000 
#
# Total GULP energy -200803.687187 kJ/mol
# GULP energy per Si atom -5577.880200 kJ/mol
# Density = 2.304193 g / cm^3
# Si number density = 23.094491 Si / 1000 Ang^3
#
#
#
# Elastic Constant Matrix: (Units=GPa)
#
#
# Indices 1 2 3 4 5 6 
#
# 1 22.2917 -15.1105 -23.4575 0.0000 0.0000 0.0000
# 2 -15.1105 59.2199 7.6442 0.0000 0.0000 0.0000
# 3 -23.4575 7.6442 108.8055 0.0000 0.0000 0.0000
# 4 0.0000 0.0000 0.0000 222.2026 0.0000 0.0000
# 5 0.0000 0.0000 0.0000 0.0000 11.5862 0.0000
# 6 0.0000 0.0000 0.0000 0.0000 0.0000 3.3642
#
#
#
# Elastic Compliance Matrix: (Units=1/GPa)
#
#
# Indices 1 2 3 4 5 6 
#
# 1 0.070691 0.016217 0.014101 0.000000 0.000000 0.000000
# 2 0.016217 0.020761 0.002038 0.000000 0.000000 0.000000
# 3 0.014101 0.002038 0.012088 0.000000 0.000000 0.000000
# 4 0.000000 0.000000 0.000000 0.004500 0.000000 0.000000
# 5 0.000000 0.000000 0.000000 0.000000 0.086309 0.000000
# 6 0.000000 0.000000 0.000000 0.000000 0.000000 0.297244
#
#
# Mechanical properties :
#
#
# Convention : Reuss Voigt Hill
#
# Bulk Modulus (GPa) = 5.94347 14.27440 10.10894
# Shear Modulus (GPa) = 10.35270 62.18001 36.26635
#
# Velocity S-wave (km/s) = 2.11955 5.19448 3.96706
# Velocity P-wave (km/s) = 2.92731 6.49393 5.03688
#
# Compressibility (1/GPa) = 0.16825187
#
# Stress axis : x y z
#
# Youngs Moduli (GPa) = 14.14604 48.16686 82.72944
#
# Poissons Ratio (x) = -0.78113 -1.16657
# Poissons Ratio (y) = -0.22941 -0.16858
# Poissons Ratio (z) = -0.19947 -0.09815
#
# Static dielectric constant tensor:
#      x y z
#    x 1.942240 0.000000 0.000000 
#    y 0.000000 1.829030 0.000000 
#    z 0.000000 0.000000 1.908710 
# 
# From -- ./inp_files/5160.got.cif
#   From: 2010.05.17/outbox.cif.g08.bks.cpg/sg62_3_cif.got.tgz:5160.got - 2010.06.03 15:25:27.
