data_PCOD9466468
_publ_section_title
;
Structure prediction by ZEFSAII (Michael W. Deem and Ramdas Pophale) SiO2 
 PCOD9466468
Probable space group: P N M A
;
_chemical_formula_sum "Si O2"
_cell_formula_units_Z 40
_cell_length_a 16.796297
_cell_length_b 17.339734
_cell_length_c 5.765889
_cell_angle_alpha 90.000000
_cell_angle_beta 90.000000
_cell_angle_gamma 90.000000
_cell_volume 1679.276668
_symmetry_space_group_name_H-M "P N M A"
_symmetry_group_IT_number 62
_symmetry_cell_setting 'orthorhombic'
loop_
_space_group_symop_operation_xyz
x,y,z
1/2-x,-y,1/2+z
1/2+x,1/2-y,1/2-z
-x,1/2+y,-z
-x,-y,-z
1/2+x,y,1/2-z
1/2-x,1/2+y,1/2+z
x,1/2-y,z
loop_
_atom_site_type_symbol
_atom_site_label
_atom_site_fract_x
_atom_site_fract_y
_atom_site_fract_z
Si Si1 0.831647 0.250000 0.126146
Si Si2 0.322824 0.955941 0.826161
Si Si3 0.147435 0.581796 0.965911
Si Si4 0.093167 0.336945 0.995026
Si Si5 0.555738 0.034652 0.803566
Si Si6 0.758459 0.750000 0.132182
O O1 0.875921 0.169668 0.082071
O O2 0.793570 0.250000 0.390039
O O3 0.776140 0.250000 0.891909
O O4 0.232080 0.927787 0.831012
O O5 0.381675 0.895287 0.697843
O O6 0.332424 0.040802 0.711722
O O7 0.357750 0.957476 0.080498
O O8 0.073835 0.530615 0.882444
O O9 0.066194 0.250000 0.060788
O O10 0.038947 0.382815 0.811676
O O11 0.180366 0.320982 0.883691
O O12 0.500000 0.000000 0.000000
#
# Coordination Sequence:
#
# PCOD9466468 Si02
#       6
#     4   8   8   8   8   4
#     4  12  24  38  65 103 143 171 224 294 352 402
#     4  11  21  38  67  94 126 167 228 279 335 405
#     4  11  23  38  66  98 126 176 219 282 340 404
#     4   9  21  37  63  96 127 174 227 277 332 404
#     4  11  25  43  65  93 136 178 226 282 345 408
#     4  10  22  36  65 103 135 171 228 290 334 400
#
# _framework density 23.819779
#
# number of rings (size 3 to 8) (size 9 to 14) (size 15 to 20)
#    0.600    0.800    4.000    1.200    5.600    4.000 
#    1.800    0.000    4.400    0.000    0.000    0.000 
#    0.000    0.000    0.000    0.000    0.000    0.000 
#
# Total GULP energy -222836.704866 kJ/mol
# GULP energy per Si atom -5570.917622 kJ/mol
# Density = 2.376556 g / cm^3
# Si number density = 23.819779 Si / 1000 Ang^3
#
#
#
# Elastic Constant Matrix: (Units=GPa)
#
#
# Indices 1 2 3 4 5 6 
#
# 1 60.2653 33.5895 21.9008 0.0000 0.0000 0.0000
# 2 33.5895 180.9866 31.1711 0.0000 0.0000 0.0000
# 3 21.9008 31.1711 66.7742 0.0000 0.0000 0.0000
# 4 0.0000 0.0000 0.0000 22.3686 0.0000 0.0000
# 5 0.0000 0.0000 0.0000 0.0000 49.5309 0.0000
# 6 0.0000 0.0000 0.0000 0.0000 0.0000 35.4583
#
#
#
# Elastic Compliance Matrix: (Units=1/GPa)
#
#
# Indices 1 2 3 4 5 6 
#
# 1 0.020080 -0.002819 -0.005270 0.000000 0.000000 0.000000
# 2 -0.002819 0.006404 -0.002065 0.000000 0.000000 0.000000
# 3 -0.005270 -0.002065 0.017668 0.000000 0.000000 0.000000
# 4 0.000000 0.000000 0.000000 0.044706 0.000000 0.000000
# 5 0.000000 0.000000 0.000000 0.000000 0.020189 0.000000
# 6 0.000000 0.000000 0.000000 0.000000 0.000000 0.028202
#
#
# Mechanical properties :
#
#
# Convention : Reuss Voigt Hill
#
# Bulk Modulus (GPa) = 41.93860 53.48322 47.71091
# Shear Modulus (GPa) = 30.21064 36.22919 33.21991
#
# Velocity S-wave (km/s) = 3.56518 3.90419 3.73853
# Velocity P-wave (km/s) = 5.88152 6.54413 6.22165
#
# Compressibility (1/GPa) = 0.02384438
#
# Stress axis : x y z
#
# Youngs Moduli (GPa) = 49.80181 156.15020 56.59890
#
# Poissons Ratio (x) = 0.44018 0.29827
# Poissons Ratio (y) = 0.14039 0.11687
# Poissons Ratio (z) = 0.26245 0.32244
#
# Static dielectric constant tensor:
#      x y z
#    x 1.934210 0.000000 0.000000 
#    y 0.000000 2.062490 0.000000 
#    z 0.000000 0.000000 1.950090 
# 
# From -- ./inp_files/1594.got.cif
#   From: 2010.05.17/outbox.cif.g08.bks.cpg/sg62_1_cif.got.tgz:1594.got - 2010.06.03 15:25:27.
