data_PCOD9466602
_publ_section_title
;
Structure prediction by ZEFSAII (Michael W. Deem and Ramdas Pophale) SiO2 
 PCOD9466602
Probable space group: P N M A
;
_chemical_formula_sum "Si O2"
_cell_formula_units_Z 64
_cell_length_a 23.374004
_cell_length_b 15.553594
_cell_length_c 9.093005
_cell_angle_alpha 90.000000
_cell_angle_beta 90.000000
_cell_angle_gamma 90.000000
_cell_volume 3305.759862
_symmetry_space_group_name_H-M "P N M A"
_symmetry_group_IT_number 62
_symmetry_cell_setting 'orthorhombic'
loop_
_space_group_symop_operation_xyz
x,y,z
1/2-x,-y,1/2+z
1/2+x,1/2-y,1/2-z
-x,1/2+y,-z
-x,-y,-z
1/2+x,y,1/2-z
1/2-x,1/2+y,1/2+z
x,1/2-y,z
loop_
_atom_site_type_symbol
_atom_site_label
_atom_site_fract_x
_atom_site_fract_y
_atom_site_fract_z
Si Si1 0.141117 0.348352 0.923706
Si Si2 0.060341 0.992580 0.579598
Si Si3 0.359457 0.654344 0.087055
Si Si4 0.661562 0.597955 0.085970
Si Si5 0.850725 0.353776 0.924734
Si Si6 0.061694 0.515953 0.927739
Si Si7 0.751341 0.342085 0.373246
Si Si8 0.259956 0.571734 0.916416
O O1 0.117686 0.250000 0.940054
O O2 0.194024 0.356580 0.033728
O O3 0.162878 0.354608 0.755027
O O4 0.097923 0.427145 0.947510
O O5 0.102824 0.930352 0.490693
O O6 0.056197 0.969017 0.752055
O O7 0.091265 0.084869 0.571115
O O8 0.000000 0.000000 0.500000
O O9 0.381917 0.750000 0.068615
O O10 0.309057 0.636026 0.973590
O O11 0.650617 0.631392 0.249300
O O12 0.706951 0.518499 0.081126
O O13 0.695239 0.661426 0.980592
O O14 0.849269 0.250000 0.955497
O O15 0.904491 0.404701 0.996473
O O16 0.795474 0.405028 0.988057
O O17 0.000000 0.500000 0.000000
O O18 0.746038 0.250000 0.295603
O O19 0.758558 0.413513 0.250790
#
# Coordination Sequence:
#
# PCOD9466602 Si02
#       8
#     8   8   8   8   8   8   8   8
#     4   9  19  36  60  86 115 150 194 241 297 367
#     4  10  22  40  60  84 114 152 199 249 302 361
#     4   9  18  35  58  85 113 147 187 235 293 364
#     4  11  22  38  60  83 116 159 200 243 298 363
#     4  12  25  41  61  90 126 168 212 259 314 376
#     4  11  23  41  63  86 118 159 205 257 311 370
#     4  11  21  34  54  85 117 145 180 230 286 347
#     4  11  21  35  58  87 121 152 190 242 301 362
#
# _framework density 19.360147999999999
#
# number of rings (size 3 to 8) (size 9 to 14) (size 15 to 20)
#    0.000    1.500    0.000    6.000    0.000    4.500 
#    0.000    5.000    0.000    0.000    0.000    0.000 
#    0.000    0.000    0.000    0.000    0.000    0.000 
#
# Total GULP energy -357221.286134 kJ/mol
# GULP energy per Si atom -5581.582596 kJ/mol
# Density = 1.931608 g / cm^3
# Si number density = 19.360148 Si / 1000 Ang^3
#
#
#
# Elastic Constant Matrix: (Units=GPa)
#
#
# Indices 1 2 3 4 5 6 
#
# 1 109.0283 39.3941 55.6171 0.0000 0.0000 0.0000
# 2 39.3941 88.8187 39.7668 0.0000 0.0000 0.0000
# 3 55.6171 39.7668 113.5643 0.0000 0.0000 0.0000
# 4 0.0000 0.0000 0.0000 24.8672 0.0000 0.0000
# 5 0.0000 0.0000 0.0000 0.0000 36.5823 0.0000
# 6 0.0000 0.0000 0.0000 0.0000 0.0000 12.3156
#
#
#
# Elastic Compliance Matrix: (Units=1/GPa)
#
#
# Indices 1 2 3 4 5 6 
#
# 1 0.013073 -0.003477 -0.005185 0.000000 0.000000 0.000000
# 2 -0.003477 0.014277 -0.003297 0.000000 0.000000 0.000000
# 3 -0.005185 -0.003297 0.012499 0.000000 0.000000 0.000000
# 4 0.000000 0.000000 0.000000 0.040214 0.000000 0.000000
# 5 0.000000 0.000000 0.000000 0.000000 0.027336 0.000000
# 6 0.000000 0.000000 0.000000 0.000000 0.000000 0.081198
#
#
# Mechanical properties :
#
#
# Convention : Reuss Voigt Hill
#
# Bulk Modulus (GPa) = 62.76490 64.55192 63.65841
# Shear Modulus (GPa) = 22.95430 26.52858 24.74144
#
# Velocity S-wave (km/s) = 3.44706 3.70573 3.57873
# Velocity P-wave (km/s) = 6.95219 7.19201 7.07312
#
# Compressibility (1/GPa) = 0.01593247
#
# Stress axis : x y z
#
# Youngs Moduli (GPa) = 76.49274 70.04274 80.00500
#
# Poissons Ratio (x) = 0.24353 0.41482
# Poissons Ratio (y) = 0.26596 0.26374
# Poissons Ratio (z) = 0.39661 0.23090
#
# Static dielectric constant tensor:
#      x y z
#    x 1.639880 0.000000 0.000000 
#    y 0.000000 1.703000 0.000000 
#    z 0.000000 0.000000 1.678450 
# 
# From -- ./inp_files/9477.got.cif
#   From: 2010.05.17/outbox.cif.g08.bks.cpg/sg62_5_cif.got.tgz:9477.got - 2010.06.03 15:25:27.
