data_PCOD9466939
_publ_section_title
;
Structure prediction by ZEFSAII (Michael W. Deem and Ramdas Pophale) SiO2 
 PCOD9466939
Probable space group: P N M A
;
_chemical_formula_sum "Si O2"
_cell_formula_units_Z 48
_cell_length_a 20.567874
_cell_length_b 19.513020
_cell_length_c 5.226378
_cell_angle_alpha 90.000000
_cell_angle_beta 90.000000
_cell_angle_gamma 90.000000
_cell_volume 2097.561533
_symmetry_space_group_name_H-M "P N M A"
_symmetry_group_IT_number 62
_symmetry_cell_setting 'orthorhombic'
loop_
_space_group_symop_operation_xyz
x,y,z
1/2-x,-y,1/2+z
1/2+x,1/2-y,1/2-z
-x,1/2+y,-z
-x,-y,-z
1/2+x,y,1/2-z
1/2-x,1/2+y,1/2+z
x,1/2-y,z
loop_
_atom_site_type_symbol
_atom_site_label
_atom_site_fract_x
_atom_site_fract_y
_atom_site_fract_z
Si Si1 0.402478 0.461151 0.838186
Si Si2 0.667381 0.250000 0.679417
Si Si3 0.927876 0.622516 0.179649
Si Si4 0.255656 0.250000 0.320444
Si Si5 0.684047 0.031995 0.805463
Si Si6 0.698250 0.604997 0.505472
Si Si7 0.002995 0.082244 0.300060
O O1 0.367979 0.408450 0.650529
O O2 0.464996 0.506463 0.759841
O O3 0.347185 0.515375 0.918966
O O4 0.430010 0.425008 0.095803
O O5 0.619434 0.313897 0.654653
O O6 0.701040 0.250000 0.956729
O O7 0.721361 0.250000 0.455842
O O8 0.877880 0.559057 0.148109
O O9 0.958842 0.616619 0.461260
O O10 0.981948 0.621334 0.960126
O O11 0.294833 0.179254 0.368591
O O12 0.706051 0.959051 0.698638
O O13 0.739970 0.088841 0.819302
#
# Coordination Sequence:
#
# PCOD9466939 Si02
#       7
#     8   4   8   4   8   8   8
#     4  10  23  39  66  97 136 169 228 279 342 396
#     4  12  26  46  66  97 135 180 224 283 336 410
#     4  11  23  43  67  97 131 171 231 277 338 394
#     4  12  30  42  68  97 147 174 218 277 360 404
#     4  11  23  37  71  97 135 175 234 279 338 405
#     4  12  24  42  64 103 133 188 219 289 338 424
#     4  10  23  41  67 100 128 175 222 290 331 398
#
# _framework density 22.883714000000001
#
# number of rings (size 3 to 8) (size 9 to 14) (size 15 to 20)
#    0.000    1.000    5.000    1.000    9.333    2.000 
#    0.000    1.667    0.000    0.000    0.000    0.000 
#    0.000    0.000    0.000    0.000    0.000    0.000 
#
# Total GULP energy -268325.906263 kJ/mol
# GULP energy per Si atom -5590.123047 kJ/mol
# Density = 2.283163 g / cm^3
# Si number density = 22.883714 Si / 1000 Ang^3
#
#
#
# Elastic Constant Matrix: (Units=GPa)
#
#
# Indices 1 2 3 4 5 6 
#
# 1 95.1330 21.0404 26.3129 0.0000 0.0000 0.0000
# 2 21.0404 113.1103 10.0002 0.0000 0.0000 0.0000
# 3 26.3129 10.0002 101.3457 0.0000 0.0000 0.0000
# 4 0.0000 0.0000 0.0000 23.6257 0.0000 0.0000
# 5 0.0000 0.0000 0.0000 0.0000 49.8990 0.0000
# 6 0.0000 0.0000 0.0000 0.0000 0.0000 37.0625
#
#
#
# Elastic Compliance Matrix: (Units=1/GPa)
#
#
# Indices 1 2 3 4 5 6 
#
# 1 0.011728 -0.001929 -0.002855 0.000000 0.000000 0.000000
# 2 -0.001929 0.009236 -0.000410 0.000000 0.000000 0.000000
# 3 -0.002855 -0.000410 0.010649 0.000000 0.000000 0.000000
# 4 0.000000 0.000000 0.000000 0.042327 0.000000 0.000000
# 5 0.000000 0.000000 0.000000 0.000000 0.020040 0.000000
# 6 0.000000 0.000000 0.000000 0.000000 0.000000 0.026981
#
#
# Mechanical properties :
#
#
# Convention : Reuss Voigt Hill
#
# Bulk Modulus (GPa) = 47.11591 47.14400 47.12995
# Shear Modulus (GPa) = 36.12071 38.93315 37.52693
#
# Velocity S-wave (km/s) = 3.97728 4.12921 4.05396
# Velocity P-wave (km/s) = 6.45954 6.58636 6.52326
#
# Compressibility (1/GPa) = 0.02122426
#
# Stress axis : x y z
#
# Youngs Moduli (GPa) = 85.26730 108.27102 93.90666
#
# Poissons Ratio (x) = 0.20888 0.26807
# Poissons Ratio (y) = 0.16450 0.03855
# Poissons Ratio (z) = 0.24340 0.04444
#
# Static dielectric constant tensor:
#      x y z
#    x 1.941550 0.000000 0.000000 
#    y 0.000000 1.844750 0.000000 
#    z 0.000000 0.000000 1.953350 
# 
# From -- ./inp_files/2209.got.cif
#   From: 2010.05.17/outbox.cif.g08.bks.cpg/sg62_2_cif.got.tgz:2209.got - 2010.06.03 15:25:27.
