data_PCOD9466492
_publ_section_title
;
Structure prediction by ZEFSAII (Michael W. Deem and Ramdas Pophale) SiO2 
 PCOD9466492
Probable space group: P N M A
;
_chemical_formula_sum "Si O2"
_cell_formula_units_Z 40
_cell_length_a 14.785867
_cell_length_b 21.194581
_cell_length_c 5.896356
_cell_angle_alpha 90.000000
_cell_angle_beta 90.000000
_cell_angle_gamma 90.000000
_cell_volume 1847.801551
_symmetry_space_group_name_H-M "P N M A"
_symmetry_group_IT_number 62
_symmetry_cell_setting 'orthorhombic'
loop_
_space_group_symop_operation_xyz
x,y,z
1/2-x,-y,1/2+z
1/2+x,1/2-y,1/2-z
-x,1/2+y,-z
-x,-y,-z
1/2+x,y,1/2-z
1/2-x,1/2+y,1/2+z
x,1/2-y,z
loop_
_atom_site_type_symbol
_atom_site_label
_atom_site_fract_x
_atom_site_fract_y
_atom_site_fract_z
Si Si1 0.351633 0.126367 0.824999
Si Si2 0.351634 0.626367 0.175001
Si Si3 0.703594 0.500000 0.000000
Si Si4 0.500000 0.817519 0.890097
Si Si5 0.500000 0.076816 0.485336
O O1 0.250000 0.144059 0.750000
O O2 0.411586 0.177896 0.950900
O O3 0.410258 0.100185 0.616117
O O4 0.346926 0.066146 0.992346
O O5 0.250000 0.499501 0.750000
O O6 0.411586 0.677896 0.049100
O O7 0.410259 0.600185 0.383883
O O8 0.846926 0.566145 0.492346
O O9 0.500000 0.750000 0.765296
O O10 0.500000 0.880224 0.738017
O O11 0.500000 0.000000 0.500000
#
# Coordination Sequence:
#
# PCOD9466492 Si02
#       5
#     8   8   8   8   8
#     4  10  24  41  68  99 139 182 235 295 368 430
#     4  10  24  41  68  99 139 182 235 295 368 430
#     4  10  22  37  70 109 142 176 234 299 362 427
#     4  11  26  45  66  97 141 190 243 299 368 439
#     4  11  24  42  69 104 139 180 239 301 364 425
#
# _framework density 21.647345999999999
#
# number of rings (size 3 to 8) (size 9 to 14) (size 15 to 20)
#    0.000    1.600    0.000    2.400   22.400    7.200 
#    0.000    2.000    0.000    0.000    0.000    0.000 
#    0.000    0.000    0.000    0.000    0.000    0.000 
#
# Total GULP energy -222872.738389 kJ/mol
# GULP energy per Si atom -5571.818460 kJ/mol
# Density = 2.159808 g / cm^3
# Si number density = 21.647346 Si / 1000 Ang^3
#
#
#
# Elastic Constant Matrix: (Units=GPa)
#
#
# Indices 1 2 3 4 5 6 
#
# 1 170.1381 41.6876 59.2188 0.0000 0.0000 0.0000
# 2 41.6876 127.5887 50.4655 0.0000 0.0000 0.0000
# 3 59.2188 50.4655 107.2959 0.0000 0.0000 0.0000
# 4 0.0000 0.0000 0.0000 15.5767 0.0000 0.0000
# 5 0.0000 0.0000 0.0000 0.0000 30.6553 0.0000
# 6 0.0000 0.0000 0.0000 0.0000 0.0000 -17.8153
#
#
#
# Elastic Compliance Matrix: (Units=1/GPa)
#
#
# Indices 1 2 3 4 5 6 
#
# 1 0.007374 -0.000982 -0.003608 0.000000 0.000000 0.000000
# 2 -0.000982 0.009760 -0.004048 0.000000 0.000000 0.000000
# 3 -0.003608 -0.004048 0.013215 0.000000 0.000000 0.000000
# 4 0.000000 0.000000 0.000000 0.064199 0.000000 0.000000
# 5 0.000000 0.000000 0.000000 0.000000 0.032621 0.000000
# 6 0.000000 0.000000 0.000000 0.000000 0.000000 -0.056131
#
#
# Mechanical properties :
#
#
# Convention : Reuss Voigt Hill
#
# Bulk Modulus (GPa) = 76.49756 78.64072 77.56914
# Shear Modulus (GPa) = 53.95398 22.59337 38.27367
#
# Velocity S-wave (km/s) = 4.99782 3.23414 4.20938
# Velocity P-wave (km/s) = 8.28969 7.09600 7.71596
#
# Compressibility (1/GPa) = 0.01307231
#
# Stress axis : x y z
#
# Youngs Moduli (GPa) = 135.61110 102.46030 75.66963
#
# Poissons Ratio (x) = 0.10065 0.27300
# Poissons Ratio (y) = 0.13321 0.30633
# Poissons Ratio (z) = 0.48926 0.41479
#
# Static dielectric constant tensor:
#      x y z
#    x 1.862550 0.000000 0.000000 
#    y 0.000000 1.794780 0.000000 
#    z 0.000000 0.000000 1.873380 
# 
# From -- ./inp_files/1631.got.cif
#   From: 2010.05.17/outbox.cif.g08.bks.cpg/sg62_1_cif.got.tgz:1631.got - 2010.06.03 15:25:27.
