data_PCOD9466212
_publ_section_title
;
Structure prediction by ZEFSAII (Michael W. Deem and Ramdas Pophale) SiO2 
 PCOD9466212
Probable space group: P N M A
;
_chemical_formula_sum "Si O2"
_cell_formula_units_Z 48
_cell_length_a 12.631363
_cell_length_b 27.969467
_cell_length_c 5.442399
_cell_angle_alpha 90.000000
_cell_angle_beta 90.000000
_cell_angle_gamma 90.000000
_cell_volume 1922.758698
_symmetry_space_group_name_H-M "P N M A"
_symmetry_group_IT_number 62
_symmetry_cell_setting 'orthorhombic'
loop_
_space_group_symop_operation_xyz
x,y,z
1/2-x,-y,1/2+z
1/2+x,1/2-y,1/2-z
-x,1/2+y,-z
-x,-y,-z
1/2+x,y,1/2-z
1/2-x,1/2+y,1/2+z
x,1/2-y,z
loop_
_atom_site_type_symbol
_atom_site_label
_atom_site_fract_x
_atom_site_fract_y
_atom_site_fract_z
Si Si1 0.606598 0.966162 0.183624
Si Si2 0.250039 0.376929 0.739611
Si Si3 0.847357 0.698434 0.925492
Si Si4 0.482293 0.944534 0.682252
Si Si5 0.580532 0.805441 0.327660
Si Si6 0.056855 0.147674 0.448355
O O1 0.700158 0.928274 0.210449
O O2 0.525149 0.952062 0.406796
O O3 0.619432 0.022006 0.254938
O O4 0.561913 0.960226 0.906037
O O5 0.224422 0.343700 0.973453
O O6 0.331918 0.343600 0.583034
O O7 0.134522 0.382086 0.621935
O O8 0.801126 0.750000 0.979188
O O9 0.966053 0.696332 0.039263
O O10 0.871423 0.691375 0.640726
O O11 0.465914 0.889019 0.731179
O O12 0.615335 0.750000 0.320024
O O13 0.545526 0.830024 0.070415
#
# Coordination Sequence:
#
# PCOD9466212 Si02
#       6
#     8   8   8   8   8   8
#     4  10  22  43  69  98 130 176 221 273 332 401
#     4  11  23  39  63  95 129 171 221 276 337 404
#     4  10  23  40  61  92 129 168 220 279 336 397
#     4  10  22  43  70  96 132 173 222 274 333 396
#     4  10  21  40  63  88 127 173 221 272 335 404
#     4  11  23  39  63  93 132 174 219 285 334 401
#
# _framework density 24.964130000000001
#
# number of rings (size 3 to 8) (size 9 to 14) (size 15 to 20)
#    0.000    1.667    1.667    2.000    4.667    3.333 
#    3.000    1.667    0.000    0.000    0.000    0.000 
#    0.000    0.000    0.000    0.000    0.000    0.000 
#
# Total GULP energy -267822.647723 kJ/mol
# GULP energy per Si atom -5579.638494 kJ/mol
# Density = 2.490731 g / cm^3
# Si number density = 24.964130 Si / 1000 Ang^3
#
#
#
# Elastic Constant Matrix: (Units=GPa)
#
#
# Indices 1 2 3 4 5 6 
#
# 1 52.0361 -19.6714 18.0707 0.0000 0.0000 0.0000
# 2 -19.6714 89.6285 13.2716 0.0000 0.0000 0.0000
# 3 18.0707 13.2716 76.6655 0.0000 0.0000 0.0000
# 4 0.0000 0.0000 0.0000 23.6620 0.0000 0.0000
# 5 0.0000 0.0000 0.0000 0.0000 21.8114 0.0000
# 6 0.0000 0.0000 0.0000 0.0000 0.0000 34.9204
#
#
#
# Elastic Compliance Matrix: (Units=1/GPa)
#
#
# Indices 1 2 3 4 5 6 
#
# 1 0.023910 0.006242 -0.006716 0.000000 0.000000 0.000000
# 2 0.006242 0.013080 -0.003736 0.000000 0.000000 0.000000
# 3 -0.006716 -0.003736 0.015273 0.000000 0.000000 0.000000
# 4 0.000000 0.000000 0.000000 0.042262 0.000000 0.000000
# 5 0.000000 0.000000 0.000000 0.000000 0.045847 0.000000
# 6 0.000000 0.000000 0.000000 0.000000 0.000000 0.028637
#
#
# Mechanical properties :
#
#
# Convention : Reuss Voigt Hill
#
# Bulk Modulus (GPa) = 22.80832 26.85244 24.83038
# Shear Modulus (GPa) = 26.03581 29.85607 27.94594
#
# Velocity S-wave (km/s) = 3.23294 3.46202 3.34944
# Velocity P-wave (km/s) = 4.80543 5.17305 4.99263
#
# Compressibility (1/GPa) = 0.04384364
#
# Stress axis : x y z
#
# Youngs Moduli (GPa) = 41.82437 76.45078 65.47320
#
# Poissons Ratio (x) = -0.47721 0.43973
# Poissons Ratio (y) = -0.26107 0.24459
# Poissons Ratio (z) = 0.28090 0.28559
#
# Static dielectric constant tensor:
#      x y z
#    x 2.010080 0.000000 0.000000 
#    y 0.000000 2.004270 0.000000 
#    z 0.000000 0.000000 2.113210 
# 
# From -- ./inp_files/1172.got.cif
#   From: 2010.05.17/outbox.cif.g08.bks.cpg/sg62_1_cif.got.tgz:1172.got - 2010.06.03 15:25:27.
