data_PCOD9466405
_publ_section_title
;
Structure prediction by ZEFSAII (Michael W. Deem and Ramdas Pophale) SiO2 
 PCOD9466405
Probable space group: P N M A
;
_chemical_formula_sum "Si O2"
_cell_formula_units_Z 48
_cell_length_a 12.833322
_cell_length_b 18.987352
_cell_length_c 7.532809
_cell_angle_alpha 90.000000
_cell_angle_beta 90.000000
_cell_angle_gamma 90.000000
_cell_volume 1835.525611
_symmetry_space_group_name_H-M "P N M A"
_symmetry_group_IT_number 62
_symmetry_cell_setting 'orthorhombic'
loop_
_space_group_symop_operation_xyz
x,y,z
1/2-x,-y,1/2+z
1/2+x,1/2-y,1/2-z
-x,1/2+y,-z
-x,-y,-z
1/2+x,y,1/2-z
1/2-x,1/2+y,1/2+z
x,1/2-y,z
loop_
_atom_site_type_symbol
_atom_site_label
_atom_site_fract_x
_atom_site_fract_y
_atom_site_fract_z
Si Si1 0.684981 0.015912 0.243172
Si Si2 0.185782 0.401964 0.949167
Si Si3 0.158750 0.250000 0.929128
Si Si4 0.040859 0.604588 0.150301
Si Si5 0.203702 0.250000 0.339251
Si Si6 0.435719 0.870912 0.962363
Si Si7 0.920057 0.250000 0.361632
Si Si8 0.075812 0.750000 0.212516
O O1 0.732746 0.078153 0.361112
O O2 0.609538 0.055315 0.106281
O O3 0.772908 0.964161 0.171869
O O4 0.612856 0.962993 0.356338
O O5 0.212802 0.323990 0.887759
O O6 0.061155 0.400945 0.970028
O O7 0.049883 0.250000 0.825109
O O8 0.145955 0.250000 0.143388
O O9 0.990397 0.613692 0.348816
O O10 0.105102 0.676308 0.123609
O O11 0.162102 0.183259 0.451734
O O12 0.321168 0.250000 0.266085
O O13 0.517685 0.824431 0.846259
O O14 0.903911 0.250000 0.577224
#
# Coordination Sequence:
#
# PCOD9466405 Si02
#       8
#     8   8   4   8   4   8   4   4
#     4  12  24  40  68  99 138 185 233 299 371 431
#     4  11  25  43  68 101 140 188 242 302 361 451
#     4  10  21  42  69  92 142 188 238 295 358 427
#     4  10  22  42  65  94 136 183 230 293 362 433
#     4  11  21  40  72  99 140 192 247 304 356 438
#     4  10  22  40  64 102 139 182 238 300 357 429
#     4   9  21  38  68  99 135 188 241 288 363 433
#     4   8  19  38  65  90 127 178 232 281 343 426
#
# _framework density 26.150549999999999
#
# number of rings (size 3 to 8) (size 9 to 14) (size 15 to 20)
#    0.000    1.667    1.667    2.500    4.667    1.333 
#    0.000    1.667    0.000    1.000    0.000    0.000 
#    0.000    0.000    0.000    0.000    0.000    0.000 
#
# Total GULP energy -268259.728608 kJ/mol
# GULP energy per Si atom -5588.744346 kJ/mol
# Density = 2.609103 g / cm^3
# Si number density = 26.150550 Si / 1000 Ang^3
#
#
#
# Elastic Constant Matrix: (Units=GPa)
#
#
# Indices 1 2 3 4 5 6 
#
# 1 90.1967 33.8924 29.5898 0.0000 0.0000 0.0000
# 2 33.8924 166.3155 15.5764 0.0000 0.0000 0.0000
# 3 29.5898 15.5764 67.5831 0.0000 0.0000 0.0000
# 4 0.0000 0.0000 0.0000 42.3567 0.0000 0.0000
# 5 0.0000 0.0000 0.0000 0.0000 31.2051 0.0000
# 6 0.0000 0.0000 0.0000 0.0000 0.0000 36.7744
#
#
#
# Elastic Compliance Matrix: (Units=1/GPa)
#
#
# Indices 1 2 3 4 5 6 
#
# 1 0.013748 -0.002287 -0.005492 0.000000 0.000000 0.000000
# 2 -0.002287 0.006526 -0.000503 0.000000 0.000000 0.000000
# 3 -0.005492 -0.000503 0.017317 0.000000 0.000000 0.000000
# 4 0.000000 0.000000 0.000000 0.023609 0.000000 0.000000
# 5 0.000000 0.000000 0.000000 0.000000 0.032046 0.000000
# 6 0.000000 0.000000 0.000000 0.000000 0.000000 0.027193
#
#
# Mechanical properties :
#
#
# Convention : Reuss Voigt Hill
#
# Bulk Modulus (GPa) = 47.55810 53.57919 50.56865
# Shear Modulus (GPa) = 34.71935 38.40303 36.56119
#
# Velocity S-wave (km/s) = 3.64768 3.83631 3.74318
# Velocity P-wave (km/s) = 5.99721 6.33689 6.16939
#
# Compressibility (1/GPa) = 0.02102691
#
# Stress axis : x y z
#
# Youngs Moduli (GPa) = 72.73741 153.23671 57.74651
#
# Poissons Ratio (x) = 0.35049 0.31715
# Poissons Ratio (y) = 0.16637 0.02903
# Poissons Ratio (z) = 0.39948 0.07702
#
# Static dielectric constant tensor:
#      x y z
#    x 2.070950 0.000000 0.000000 
#    y 0.000000 2.070240 0.000000 
#    z 0.000000 0.000000 2.073340 
# 
# From -- ./inp_files/6540.got.cif
#   From: 2010.05.17/outbox.cif.g08.bks.cpg/sg62_4_cif.got.tgz:6540.got - 2010.06.03 15:25:27.
