data_PCOD9466499
_publ_section_title
;
Structure prediction by ZEFSAII (Michael W. Deem and Ramdas Pophale) SiO2 
 PCOD9466499
Probable space group: P N M A
;
_chemical_formula_sum "Si O2"
_cell_formula_units_Z 56
_cell_length_a 25.123797
_cell_length_b 8.730617
_cell_length_c 14.421185
_cell_angle_alpha 90.000000
_cell_angle_beta 90.000000
_cell_angle_gamma 90.000000
_cell_volume 3163.232839
_symmetry_space_group_name_H-M "P N M A"
_symmetry_group_IT_number 62
_symmetry_cell_setting 'orthorhombic'
loop_
_space_group_symop_operation_xyz
x,y,z
1/2-x,-y,1/2+z
1/2+x,1/2-y,1/2-z
-x,1/2+y,-z
-x,-y,-z
1/2+x,y,1/2-z
1/2-x,1/2+y,1/2+z
x,1/2-y,z
loop_
_atom_site_type_symbol
_atom_site_label
_atom_site_fract_x
_atom_site_fract_y
_atom_site_fract_z
Si Si1 0.608119 0.071363 0.645151
Si Si2 0.397346 0.072371 0.708910
Si Si3 0.001386 0.068056 0.104818
Si Si4 0.708465 0.933634 0.752685
Si Si5 0.223311 0.932484 0.530994
Si Si6 0.162545 0.924926 0.019376
Si Si7 0.181134 0.066797 0.352221
O O1 0.598899 0.250000 0.660535
O O2 0.553499 0.979064 0.655155
O O3 0.657792 0.012367 0.705458
O O4 0.626474 0.038288 0.539867
O O5 0.407224 0.250000 0.732402
O O6 0.354374 0.068240 0.625648
O O7 0.449898 0.999116 0.664224
O O8 0.369923 0.984668 0.793387
O O9 0.005755 0.250000 0.097164
O O10 0.000000 0.000000 0.000000
O O11 0.703803 0.750000 0.741726
O O12 0.709224 0.967198 0.862433
O O13 0.764486 0.978610 0.703818
O O14 0.232538 0.750000 0.523993
O O15 0.277150 0.023889 0.508522
O O16 0.182646 0.986593 0.452323
O O17 0.154533 0.750000 0.986255
O O18 0.182030 0.250000 0.362043
#
# Coordination Sequence:
#
# PCOD9466499 Si02
#       7
#     8   8   8   8   8   8   8
#     4  12  24  37  58  85 118 155 196 238 289 349
#     4  11  23  38  58  85 119 156 197 239 287 346
#     4  12  24  39  60  85 118 155 195 239 292 346
#     4  10  22  38  57  83 118 155 194 239 289 344
#     4  11  22  37  57  83 117 156 198 240 287 346
#     4  11  21  33  54  83 119 155 191 237 285 343
#     4  11  22  37  58  85 119 155 194 240 292 348
#
# _framework density 17.703406999999999
#
# number of rings (size 3 to 8) (size 9 to 14) (size 15 to 20)
#    0.000    0.857    4.286    4.286    0.000    2.857 
#    0.000    0.000    0.000    0.857    0.000    0.000 
#    0.000    0.000    0.000    0.000    0.000    0.000 
#
# Total GULP energy -312917.636379 kJ/mol
# GULP energy per Si atom -5587.814935 kJ/mol
# Density = 1.766311 g / cm^3
# Si number density = 17.703407 Si / 1000 Ang^3
#
#
#
# Elastic Constant Matrix: (Units=GPa)
#
#
# Indices 1 2 3 4 5 6 
#
# 1 59.7928 14.7364 -0.1821 0.0000 0.0000 0.0000
# 2 14.7364 70.4517 16.6162 0.0000 0.0000 0.0000
# 3 -0.1821 16.6162 62.7517 0.0000 0.0000 0.0000
# 4 0.0000 0.0000 0.0000 26.2557 0.0000 0.0000
# 5 0.0000 0.0000 0.0000 0.0000 29.0098 0.0000
# 6 0.0000 0.0000 0.0000 0.0000 0.0000 28.7828
#
#
#
# Elastic Compliance Matrix: (Units=1/GPa)
#
#
# Indices 1 2 3 4 5 6 
#
# 1 0.017704 -0.003963 0.001101 0.000000 0.000000 0.000000
# 2 -0.003963 0.016027 -0.004255 0.000000 0.000000 0.000000
# 3 0.001101 -0.004255 0.017066 0.000000 0.000000 0.000000
# 4 0.000000 0.000000 0.000000 0.038087 0.000000 0.000000
# 5 0.000000 0.000000 0.000000 0.000000 0.034471 0.000000
# 6 0.000000 0.000000 0.000000 0.000000 0.000000 0.034743
#
#
# Mechanical properties :
#
#
# Convention : Reuss Voigt Hill
#
# Bulk Modulus (GPa) = 27.35072 28.37081 27.86076
# Shear Modulus (GPa) = 27.09733 27.59805 27.34769
#
# Velocity S-wave (km/s) = 3.91657 3.95259 3.93462
# Velocity P-wave (km/s) = 5.99463 6.07380 6.03435
#
# Compressibility (1/GPa) = 0.03656210
#
# Stress axis : x y z
#
# Youngs Moduli (GPa) = 56.48298 62.39604 58.59675
#
# Poissons Ratio (x) = 0.24727 -0.06450
# Poissons Ratio (y) = 0.22383 0.24934
# Poissons Ratio (z) = -0.06217 0.26551
#
# Static dielectric constant tensor:
#      x y z
#    x 1.602430 0.000000 0.000000 
#    y 0.000000 1.596260 0.000000 
#    z 0.000000 0.000000 1.604280 
# 
# From -- ./inp_files/20272.got.cif
#   From: 2010.05.17/outbox.cif.g08.bks.cpg/sg62_11_cif.got.tgz:20272.got - 2010.06.03 15:25:27.
