data_PCOD9466724
_publ_section_title
;
Structure prediction by ZEFSAII (Michael W. Deem and Ramdas Pophale) SiO2 
 PCOD9466724
Probable space group: P N M A
;
_chemical_formula_sum "Si O2"
_cell_formula_units_Z 64
_cell_length_a 24.041033
_cell_length_b 8.874420
_cell_length_c 15.382106
_cell_angle_alpha 90.000000
_cell_angle_beta 90.000000
_cell_angle_gamma 90.000000
_cell_volume 3281.775762
_symmetry_space_group_name_H-M "P N M A"
_symmetry_group_IT_number 62
_symmetry_cell_setting 'orthorhombic'
loop_
_space_group_symop_operation_xyz
x,y,z
1/2-x,-y,1/2+z
1/2+x,1/2-y,1/2-z
-x,1/2+y,-z
-x,-y,-z
1/2+x,y,1/2-z
1/2-x,1/2+y,1/2+z
x,1/2-y,z
loop_
_atom_site_type_symbol
_atom_site_label
_atom_site_fract_x
_atom_site_fract_y
_atom_site_fract_z
Si Si1 0.242901 0.932617 0.734824
Si Si2 0.664906 0.568384 0.926087
Si Si3 0.130148 0.925806 0.001655
Si Si4 0.041620 0.430049 0.570490
Si Si5 0.368667 0.570479 0.685907
Si Si6 0.467253 0.929883 0.419021
Si Si7 0.971344 0.070663 0.742595
Si Si8 0.746621 0.428172 0.065723
O O1 0.238738 0.750000 0.736138
O O2 0.197882 0.982422 0.662360
O O3 0.305127 0.972909 0.704635
O O4 0.240616 0.981838 0.835684
O O5 0.662789 0.750000 0.925794
O O6 0.602881 0.502134 0.930168
O O7 0.700092 0.513618 0.009994
O O8 0.115491 0.750000 0.001499
O O9 0.195415 0.941904 0.985372
O O10 0.095109 0.009201 0.927889
O O11 0.115463 0.996665 0.094271
O O12 0.046370 0.250000 0.558141
O O13 0.000000 0.500000 0.500000
O O14 0.011028 0.459213 0.661892
O O15 0.371675 0.750000 0.679352
O O16 0.412250 0.512615 0.757192
O O17 0.467962 0.750000 0.425187
O O18 0.496047 0.975613 0.329580
O O19 0.500000 0.000000 0.500000
O O20 0.960733 0.250000 0.746624
O O21 0.731623 0.250000 0.070500
#
# Coordination Sequence:
#
# PCOD9466724 Si02
#       8
#     8   8   8   8   8   8   8   8
#     4   9  21  40  62  92 126 161 204 254 312 374
#     4  11  23  43  68  97 130 165 210 266 318 377
#     4  11  22  36  58  88 125 164 204 252 307 370
#     4  11  26  48  69  93 125 168 218 270 322 375
#     4  11  21  37  63  90 122 163 208 256 312 377
#     4  11  22  37  58  87 123 162 200 248 307 373
#     4  10  24  43  62  88 125 162 207 261 313 370
#     4  10  22  41  64  90 123 166 208 254 311 375
#
# _framework density 19.501636000000001
#
# number of rings (size 3 to 8) (size 9 to 14) (size 15 to 20)
#    0.000    1.500    2.500    1.875    3.500    2.000 
#    0.000    1.875    0.000    0.000    0.000    0.000 
#    0.000    0.000    0.000    0.000    0.000    0.000 
#
# Total GULP energy -357479.397991 kJ/mol
# GULP energy per Si atom -5585.615594 kJ/mol
# Density = 1.945725 g / cm^3
# Si number density = 19.501636 Si / 1000 Ang^3
#
#
#
# Elastic Constant Matrix: (Units=GPa)
#
#
# Indices 1 2 3 4 5 6 
#
# 1 146.9399 64.0193 66.8566 0.0000 0.0000 0.0000
# 2 64.0193 55.7323 46.4855 0.0000 0.0000 0.0000
# 3 66.8566 46.4855 123.5129 0.0000 0.0000 0.0000
# 4 0.0000 0.0000 0.0000 24.7867 0.0000 0.0000
# 5 0.0000 0.0000 0.0000 0.0000 26.4187 0.0000
# 6 0.0000 0.0000 0.0000 0.0000 0.0000 34.6031
#
#
#
# Elastic Compliance Matrix: (Units=1/GPa)
#
#
# Indices 1 2 3 4 5 6 
#
# 1 0.014032 -0.014260 -0.002229 0.000000 0.000000 0.000000
# 2 -0.014260 0.040644 -0.007578 0.000000 0.000000 0.000000
# 3 -0.002229 -0.007578 0.012155 0.000000 0.000000 0.000000
# 4 0.000000 0.000000 0.000000 0.040344 0.000000 0.000000
# 5 0.000000 0.000000 0.000000 0.000000 0.037852 0.000000
# 6 0.000000 0.000000 0.000000 0.000000 0.000000 0.028899
#
#
# Mechanical properties :
#
#
# Convention : Reuss Voigt Hill
#
# Bulk Modulus (GPa) = 53.48247 75.65642 64.56945
# Shear Modulus (GPa) = 21.90175 27.08328 24.49252
#
# Velocity S-wave (km/s) = 3.35486 3.73066 3.54774
# Velocity P-wave (km/s) = 6.51851 7.57867 7.06849
#
# Compressibility (1/GPa) = 0.01869771
#
# Stress axis : x y z
#
# Youngs Moduli (GPa) = 71.26386 24.60396 82.27210
#
# Poissons Ratio (x) = 0.35085 0.18336
# Poissons Ratio (y) = 1.01622 0.62346
# Poissons Ratio (z) = 0.15883 0.18645
#
# Static dielectric constant tensor:
#      x y z
#    x 1.691780 0.000000 0.000000 
#    y 0.000000 1.661520 0.000000 
#    z 0.000000 0.000000 1.714540 
# 
# From -- ./inp_files/20787.got.cif
#   From: 2010.05.17/outbox.cif.g08.bks.cpg/sg62_11_cif.got.tgz:20787.got - 2010.06.03 15:25:27.
