data_PCOD9466329
_publ_section_title
;
Structure prediction by ZEFSAII (Michael W. Deem and Ramdas Pophale) SiO2 
 PCOD9466329
Probable space group: P N M A
;
_chemical_formula_sum "Si O2"
_cell_formula_units_Z 48
_cell_length_a 5.112697
_cell_length_b 23.163938
_cell_length_c 17.758778
_cell_angle_alpha 90.000000
_cell_angle_beta 90.000000
_cell_angle_gamma 90.000000
_cell_volume 2103.175565
_symmetry_space_group_name_H-M "P N M A"
_symmetry_group_IT_number 62
_symmetry_cell_setting 'orthorhombic'
loop_
_space_group_symop_operation_xyz
x,y,z
1/2-x,-y,1/2+z
1/2+x,1/2-y,1/2-z
-x,1/2+y,-z
-x,-y,-z
1/2+x,y,1/2-z
1/2-x,1/2+y,1/2+z
x,1/2-y,z
loop_
_atom_site_type_symbol
_atom_site_label
_atom_site_fract_x
_atom_site_fract_y
_atom_site_fract_z
Si Si1 0.567316 0.250000 0.298920
Si Si2 0.907429 0.814455 0.469646
Si Si3 0.203357 0.467654 0.054836
Si Si4 0.367349 0.623138 0.303730
Si Si5 0.009334 0.569052 0.411327
Si Si6 0.412454 0.840250 0.571855
Si Si7 0.585897 0.250000 0.698271
O O1 0.272933 0.250000 0.268694
O O2 0.615402 0.305062 0.351752
O O3 0.895481 0.750000 0.436514
O O4 0.879648 0.867653 0.411453
O O5 0.675275 0.821736 0.529376
O O6 0.176606 0.822758 0.515665
O O7 0.332390 0.514625 0.110326
O O8 0.083912 0.408965 0.086898
O O9 0.426963 0.443370 0.998542
O O10 0.000000 0.500000 0.000000
O O11 0.133150 0.617317 0.242557
O O12 0.278638 0.577369 0.366316
O O13 0.367521 0.687943 0.339424
O O14 0.798929 0.250000 0.765637
#
# Coordination Sequence:
#
# PCOD9466329 Si02
#       7
#     4   8   8   8   8   8   4
#     4  12  24  42  64  92 132 178 212 260 328 396
#     4  11  20  36  62  95 124 154 202 269 320 363
#     4  10  21  41  64  92 123 162 209 274 326 369
#     4  10  22  38  58  84 123 164 201 241 293 370
#     4  10  23  37  62  94 124 164 208 257 325 373
#     4  11  22  40  63  90 125 161 211 266 317 377
#     4   8  16  34  52  74 108 152 190 228 278 332
#
# _framework density 22.822631999999999
#
# number of rings (size 3 to 8) (size 9 to 14) (size 15 to 20)
#    0.000    1.667    3.333    1.000    3.500    0.000 
#    0.000    1.667    0.000    0.000    0.000    0.000 
#    0.000    0.000    0.000    0.000    0.000    0.000 
#
# Total GULP energy -268395.511511 kJ/mol
# GULP energy per Si atom -5591.573156 kJ/mol
# Density = 2.277069 g / cm^3
# Si number density = 22.822632 Si / 1000 Ang^3
#
#
#
# Elastic Constant Matrix: (Units=GPa)
#
#
# Indices 1 2 3 4 5 6 
#
# 1 86.7452 19.6152 16.3511 0.0000 0.0000 0.0000
# 2 19.6152 172.3593 22.5601 0.0000 0.0000 0.0000
# 3 16.3511 22.5601 50.6321 0.0000 0.0000 0.0000
# 4 0.0000 0.0000 0.0000 29.6953 0.0000 0.0000
# 5 0.0000 0.0000 0.0000 0.0000 38.7417 0.0000
# 6 0.0000 0.0000 0.0000 0.0000 0.0000 26.9364
#
#
#
# Elastic Compliance Matrix: (Units=1/GPa)
#
#
# Indices 1 2 3 4 5 6 
#
# 1 0.012418 -0.000943 -0.003590 0.000000 0.000000 0.000000
# 2 -0.000943 0.006233 -0.002473 0.000000 0.000000 0.000000
# 3 -0.003590 -0.002473 0.022011 0.000000 0.000000 0.000000
# 4 0.000000 0.000000 0.000000 0.033675 0.000000 0.000000
# 5 0.000000 0.000000 0.000000 0.000000 0.025812 0.000000
# 6 0.000000 0.000000 0.000000 0.000000 0.000000 0.037125
#
#
# Mechanical properties :
#
#
# Convention : Reuss Voigt Hill
#
# Bulk Modulus (GPa) = 37.52263 47.42104 42.47184
# Shear Modulus (GPa) = 31.21699 35.82202 33.51950
#
# Velocity S-wave (km/s) = 3.70240 3.96609 3.83651
# Velocity P-wave (km/s) = 5.89523 6.46501 6.18668
#
# Compressibility (1/GPa) = 0.02665058
#
# Stress axis : x y z
#
# Youngs Moduli (GPa) = 80.52818 160.44120 45.43114
#
# Poissons Ratio (x) = 0.15135 0.16310
# Poissons Ratio (y) = 0.07596 0.11233
# Poissons Ratio (z) = 0.28909 0.39669
#
# Static dielectric constant tensor:
#      x y z
#    x 1.910520 0.000000 0.000000 
#    y 0.000000 1.925860 0.000000 
#    z 0.000000 0.000000 1.827240 
# 
# From -- ./inp_files/21608.got.cif
#   From: 2010.05.17/outbox.cif.g08.bks.cpg/sg62_11_cif.got.tgz:21608.got - 2010.06.03 15:25:27.
