data_PCOD9466898
_publ_section_title
;
Structure prediction by ZEFSAII (Michael W. Deem and Ramdas Pophale) SiO2 
 PCOD9466898
Probable space group: P N M A
;
_chemical_formula_sum "Si O2"
_cell_formula_units_Z 32
_cell_length_a 4.997445
_cell_length_b 14.923350
_cell_length_c 16.984337
_cell_angle_alpha 90.000000
_cell_angle_beta 90.000000
_cell_angle_gamma 90.000000
_cell_volume 1266.668429
_symmetry_space_group_name_H-M "P N M A"
_symmetry_group_IT_number 62
_symmetry_cell_setting 'orthorhombic'
loop_
_space_group_symop_operation_xyz
x,y,z
1/2-x,-y,1/2+z
1/2+x,1/2-y,1/2-z
-x,1/2+y,-z
-x,-y,-z
1/2+x,y,1/2-z
1/2-x,1/2+y,1/2+z
x,1/2-y,z
loop_
_atom_site_type_symbol
_atom_site_label
_atom_site_fract_x
_atom_site_fract_y
_atom_site_fract_z
Si Si1 0.272759 0.250000 0.000885
Si Si2 0.201582 0.146192 0.305991
Si Si3 0.841509 0.565926 0.303951
Si Si4 0.730740 0.750000 0.392816
Si Si5 0.576214 0.063484 0.427512
O O1 0.572048 0.250000 0.967798
O O2 0.069983 0.250000 0.926109
O O3 0.210670 0.342191 0.047157
O O4 0.418497 0.133430 0.236018
O O5 0.212876 0.250000 0.330586
O O6 0.312087 0.090131 0.378607
O O7 0.636750 0.556350 0.230983
O O8 0.793275 0.663125 0.341323
O O9 0.761284 0.496756 0.371699
O O10 0.500000 0.000000 0.500000
#
# Coordination Sequence:
#
# PCOD9466898 Si02
#       5
#     4   8   8   4   8
#     4  12  28  49  74 115 152 203 249 320 396 451
#     4  10  22  44  70 100 140 189 239 296 365 437
#     4  12  27  49  78 112 150 202 259 315 380 455
#     4  12  26  51  78 107 158 199 255 316 382 459
#     4  12  26  49  76 111 156 196 255 318 382 464
#
# _framework density 25.263121000000002
#
# number of rings (size 3 to 8) (size 9 to 14) (size 15 to 20)
#    0.000    0.500    3.750    3.750    0.000    5.000 
#    0.000    0.000    0.000    0.000    0.000    0.000 
#    0.000    0.000    0.000    0.000    0.000    0.000 
#
# Total GULP energy -179832.899731 kJ/mol
# GULP energy per Si atom -5619.778117 kJ/mol
# Density = 2.520562 g / cm^3
# Si number density = 25.263121 Si / 1000 Ang^3
#
#
#
# Elastic Constant Matrix: (Units=GPa)
#
#
# Indices 1 2 3 4 5 6 
#
# 1 92.3444 20.3454 19.6147 0.0000 0.0000 0.0000
# 2 20.3454 219.9573 91.1194 0.0000 0.0000 0.0000
# 3 19.6147 91.1194 141.1788 0.0000 0.0000 0.0000
# 4 0.0000 0.0000 0.0000 87.0288 0.0000 0.0000
# 5 0.0000 0.0000 0.0000 0.0000 0.2811 0.0000
# 6 0.0000 0.0000 0.0000 0.0000 0.0000 28.8966
#
#
#
# Elastic Compliance Matrix: (Units=1/GPa)
#
#
# Indices 1 2 3 4 5 6 
#
# 1 0.011204 -0.000534 -0.001212 0.000000 0.000000 0.000000
# 2 -0.000534 0.006231 -0.003947 0.000000 0.000000 0.000000
# 3 -0.001212 -0.003947 0.009799 0.000000 0.000000 0.000000
# 4 0.000000 0.000000 0.000000 0.011490 0.000000 0.000000
# 5 0.000000 0.000000 0.000000 0.000000 3.556976 0.000000
# 6 0.000000 0.000000 0.000000 0.000000 0.000000 0.034606
#
#
# Mechanical properties :
#
#
# Convention : Reuss Voigt Hill
#
# Bulk Modulus (GPa) = 63.10164 79.51549 71.30856
# Shear Modulus (GPa) = 1.37100 44.73471 23.05285
#
# Velocity S-wave (km/s) = 0.73747 4.21259 3.02406
# Velocity P-wave (km/s) = 5.07515 7.42998 6.36246
#
# Compressibility (1/GPa) = 0.01584745
#
# Stress axis : x y z
#
# Youngs Moduli (GPa) = 89.25263 160.48803 102.04839
#
# Poissons Ratio (x) = 0.08576 0.12366
# Poissons Ratio (y) = 0.04769 0.40282
# Poissons Ratio (z) = 0.10815 0.63350
#
# Static dielectric constant tensor:
#      x y z
#    x 1.954040 0.000000 0.000000 
#    y 0.000000 2.037190 0.000000 
#    z 0.000000 0.000000 1.964240 
# 
# From -- ./inp_files/21427.got.cif
#   From: 2010.05.17/outbox.cif.g08.bks.cpg/sg62_11_cif.got.tgz:21427.got - 2010.06.03 15:25:27.
