data_PCOD9466587
_publ_section_title
;
Structure prediction by ZEFSAII (Michael W. Deem and Ramdas Pophale) SiO2 
 PCOD9466587
Probable space group: P N M A
;
_chemical_formula_sum "Si O2"
_cell_formula_units_Z 40
_cell_length_a 9.039019
_cell_length_b 13.545772
_cell_length_c 13.692173
_cell_angle_alpha 90.000000
_cell_angle_beta 90.000000
_cell_angle_gamma 90.000000
_cell_volume 1676.476378
_symmetry_space_group_name_H-M "P N M A"
_symmetry_group_IT_number 62
_symmetry_cell_setting 'orthorhombic'
loop_
_space_group_symop_operation_xyz
x,y,z
1/2-x,-y,1/2+z
1/2+x,1/2-y,1/2-z
-x,1/2+y,-z
-x,-y,-z
1/2+x,y,1/2-z
1/2-x,1/2+y,1/2+z
x,1/2-y,z
loop_
_atom_site_type_symbol
_atom_site_label
_atom_site_fract_x
_atom_site_fract_y
_atom_site_fract_z
Si Si1 0.592399 0.250000 0.122759
Si Si2 0.388773 0.079090 0.106548
Si Si3 0.471648 0.092042 0.761867
Si Si4 0.224631 0.250000 0.803624
Si Si5 0.333200 0.750000 0.663385
Si Si6 0.859921 0.040055 0.942665
Si Si7 0.611522 0.750000 0.529214
O O1 0.517929 0.153802 0.075431
O O2 0.568995 0.250000 0.239261
O O3 0.768120 0.250000 0.114159
O O4 0.272295 0.154802 0.157190
O O5 0.457121 0.992699 0.171775
O O6 0.284972 0.022000 0.029987
O O7 0.353161 0.163058 0.813474
O O8 0.597995 0.163378 0.717255
O O9 0.391183 0.036219 0.672288
O O10 0.445660 0.750000 0.570964
O O11 0.851564 0.154867 0.966203
O O12 0.000000 0.000000 0.000000
#
# Coordination Sequence:
#
# PCOD9466587 Si02
#       7
#     4   8   8   4   4   8   4
#     4  11  27  43  71 102 140 183 238 289 338 414
#     4  11  24  45  72 101 138 182 242 281 343 420
#     4  11  23  44  71 106 133 183 233 288 337 423
#     4  10  22  39  70 102 134 172 237 284 336 401
#     4  11  23  45  72 105 136 186 237 280 338 431
#     4  12  26  44  72 101 142 183 227 285 363 413
#     4  12  26  45  69 107 144 179 230 293 352 418
#
# _framework density 23.859566000000001
#
# number of rings (size 3 to 8) (size 9 to 14) (size 15 to 20)
#    0.000    0.800    4.000    3.600    2.800    0.800 
#    0.000    2.000    0.000    0.000    0.000    0.000 
#    0.000    0.000    0.000    0.000    0.000    0.000 
#
# Total GULP energy -222756.257274 kJ/mol
# GULP energy per Si atom -5568.906432 kJ/mol
# Density = 2.380526 g / cm^3
# Si number density = 23.859566 Si / 1000 Ang^3
#
#
#
# Elastic Constant Matrix: (Units=GPa)
#
#
# Indices 1 2 3 4 5 6 
#
# 1 128.3684 65.1204 2.2515 0.0000 0.0000 0.0000
# 2 65.1204 191.0877 8.1269 0.0000 0.0000 0.0000
# 3 2.2515 8.1269 14.9645 0.0000 0.0000 0.0000
# 4 0.0000 0.0000 0.0000 18.2335 0.0000 0.0000
# 5 0.0000 0.0000 0.0000 0.0000 24.0421 0.0000
# 6 0.0000 0.0000 0.0000 0.0000 0.0000 66.1022
#
#
#
# Elastic Compliance Matrix: (Units=1/GPa)
#
#
# Indices 1 2 3 4 5 6 
#
# 1 0.009420 -0.003224 0.000334 0.000000 0.000000 0.000000
# 2 -0.003224 0.006461 -0.003024 0.000000 0.000000 0.000000
# 3 0.000334 -0.003024 0.068417 0.000000 0.000000 0.000000
# 4 0.000000 0.000000 0.000000 0.054844 0.000000 0.000000
# 5 0.000000 0.000000 0.000000 0.000000 0.041594 0.000000
# 6 0.000000 0.000000 0.000000 0.000000 0.000000 0.015128
#
#
# Mechanical properties :
#
#
# Convention : Reuss Voigt Hill
#
# Bulk Modulus (GPa) = 13.79898 53.93534 33.86716
# Shear Modulus (GPa) = 21.56588 38.93701 30.25144
#
# Velocity S-wave (km/s) = 3.00970 4.04409 3.56462
# Velocity P-wave (km/s) = 4.22773 6.66788 5.58276
#
# Compressibility (1/GPa) = 0.07246912
#
# Stress axis : x y z
#
# Youngs Moduli (GPa) = 106.15773 154.78374 14.61632
#
# Poissons Ratio (x) = 0.49909 -0.00488
# Poissons Ratio (y) = 0.34230 0.04419
# Poissons Ratio (z) = -0.03544 0.46799
#
# Static dielectric constant tensor:
#      x y z
#    x 1.948770 0.000000 0.000000 
#    y 0.000000 1.855340 0.000000 
#    z 0.000000 0.000000 1.954400 
# 
# From -- ./inp_files/16724.got.cif
#   From: 2010.05.17/outbox.cif.g08.bks.cpg/sg62_9_cif.got.tgz:16724.got - 2010.06.03 15:25:27.
