data_PCOD9466126
_publ_section_title
;
Structure prediction by ZEFSAII (Michael W. Deem and Ramdas Pophale) SiO2 
 PCOD9466126
Probable space group: P N M A
;
_chemical_formula_sum "Si O2"
_cell_formula_units_Z 60
_cell_length_a 12.344809
_cell_length_b 9.621245
_cell_length_c 23.783348
_cell_angle_alpha 90.000000
_cell_angle_beta 90.000000
_cell_angle_gamma 90.000000
_cell_volume 2824.806080
_symmetry_space_group_name_H-M "P N M A"
_symmetry_group_IT_number 62
_symmetry_cell_setting 'orthorhombic'
loop_
_space_group_symop_operation_xyz
x,y,z
1/2-x,-y,1/2+z
1/2+x,1/2-y,1/2-z
-x,1/2+y,-z
-x,-y,-z
1/2+x,y,1/2-z
1/2-x,1/2+y,1/2+z
x,1/2-y,z
loop_
_atom_site_type_symbol
_atom_site_label
_atom_site_fract_x
_atom_site_fract_y
_atom_site_fract_z
Si Si1 0.489150 0.250000 0.479358
Si Si2 0.238274 0.413857 0.908975
Si Si3 0.845880 0.506396 0.971294
Si Si4 0.946879 0.915397 0.631244
Si Si5 0.100147 0.088648 0.240822
Si Si6 0.849847 0.908933 0.394720
Si Si7 0.290767 0.602528 0.235779
Si Si8 0.036725 0.404513 0.833724
O O1 0.570532 0.373048 0.454787
O O2 0.412743 0.128200 0.508747
O O3 0.256314 0.250000 0.895845
O O4 0.335849 0.507814 0.886591
O O5 0.122964 0.452084 0.880196
O O6 0.219409 0.435091 0.974622
O O7 0.756158 0.464913 0.925846
O O8 0.941574 0.750000 0.619892
O O9 0.959437 0.932106 0.699092
O O10 0.046242 0.990853 0.600095
O O11 0.099527 0.250000 0.228717
O O12 0.218778 0.028103 0.251085
O O13 0.055424 0.006584 0.186914
O O14 0.873908 0.750000 0.413267
O O15 0.824743 0.903606 0.328415
O O16 0.228876 0.750000 0.244821
O O17 0.391012 0.606760 0.277524
O O18 0.996893 0.250000 0.849778
#
# Coordination Sequence:
#
# PCOD9466126 Si02
#       8
#     4   8   8   8   8   8   8   8
#     4  10  24  46  72  90 136 166 216 270 326 382
#     4  11  24  44  69  96 130 173 223 272 319 391
#     4  11  24  47  70  98 130 173 216 269 330 380
#     4  11  25  40  66  97 137 174 211 266 335 390
#     4  11  23  39  58  94 135 172 209 265 330 386
#     4  11  24  44  69  96 130 173 223 272 319 391
#     4  10  21  39  64  91 124 171 219 261 314 383
#     4  10  21  39  64  91 124 171 219 261 314 383
#
# _framework density 21.240393999999998
#
# number of rings (size 3 to 8) (size 9 to 14) (size 15 to 20)
#    0.000    1.333    4.000    0.800    1.867    5.333 
#    2.400    0.000    0.000    0.000    0.000    0.000 
#    0.000    0.000    0.000    0.000    0.000    0.000 
#
# Total GULP energy -334166.308870 kJ/mol
# GULP energy per Si atom -5569.438481 kJ/mol
# Density = 2.119205 g / cm^3
# Si number density = 21.240394 Si / 1000 Ang^3
#
#
#
# Elastic Constant Matrix: (Units=GPa)
#
#
# Indices 1 2 3 4 5 6 
#
# 1 52.4251 53.1597 1.8533 0.0000 0.0000 0.0000
# 2 53.1597 121.5904 2.2230 0.0000 0.0000 0.0000
# 3 1.8533 2.2230 60.9779 0.0000 0.0000 0.0000
# 4 0.0000 0.0000 0.0000 6.9351 0.0000 0.0000
# 5 0.0000 0.0000 0.0000 0.0000 28.0936 0.0000
# 6 0.0000 0.0000 0.0000 0.0000 0.0000 -230.3972
#
#
#
# Elastic Compliance Matrix: (Units=1/GPa)
#
#
# Indices 1 2 3 4 5 6 
#
# 1 0.034281 -0.014979 -0.000496 0.000000 0.000000 0.000000
# 2 -0.014979 0.014775 -0.000083 0.000000 0.000000 0.000000
# 3 -0.000496 -0.000083 0.016418 0.000000 0.000000 0.000000
# 4 0.000000 0.000000 0.000000 0.144194 0.000000 0.000000
# 5 0.000000 0.000000 0.000000 0.000000 0.035595 0.000000
# 6 0.000000 0.000000 0.000000 0.000000 0.000000 -0.004340
#
#
# Mechanical properties :
#
#
# Convention : Reuss Voigt Hill
#
# Bulk Modulus (GPa) = 29.10594 38.82948 33.96771
# Shear Modulus (GPa) = 17.63732 -27.22320 -4.79294
#
# Velocity S-wave (km/s) = 2.88474 -3.58393 -1.50380
# Velocity P-wave (km/s) = 4.98282 1.09298 3.60715
#
# Compressibility (1/GPa) = 0.03435725
#
# Stress axis : x y z
#
# Youngs Moduli (GPa) = 29.17076 67.68380 60.91061
#
# Poissons Ratio (x) = 1.01381 0.03020
# Poissons Ratio (y) = 0.43694 0.00508
# Poissons Ratio (z) = 0.01446 0.00564
#
# Static dielectric constant tensor:
#      x y z
#    x 1.764040 0.000000 0.000000 
#    y 0.000000 1.771300 0.000000 
#    z 0.000000 0.000000 1.781900 
# 
# From -- ./inp_files/31114.got.cif
#   From: 2010.05.17/outbox.cif.g08.bks.cpg/sg62_16_cif.got.tgz:31114.got - 2010.06.03 15:25:27.
