data_PCOD9466636
_publ_section_title
;
Structure prediction by ZEFSAII (Michael W. Deem and Ramdas Pophale) SiO2 
 PCOD9466636
Probable space group: P N M A
;
_chemical_formula_sum "Si O2"
_cell_formula_units_Z 56
_cell_length_a 21.677425
_cell_length_b 8.996965
_cell_length_c 14.784989
_cell_angle_alpha 90.000000
_cell_angle_beta 90.000000
_cell_angle_gamma 90.000000
_cell_volume 2883.531693
_symmetry_space_group_name_H-M "P N M A"
_symmetry_group_IT_number 62
_symmetry_cell_setting 'orthorhombic'
loop_
_space_group_symop_operation_xyz
x,y,z
1/2-x,-y,1/2+z
1/2+x,1/2-y,1/2-z
-x,1/2+y,-z
-x,-y,-z
1/2+x,y,1/2-z
1/2-x,1/2+y,1/2+z
x,1/2-y,z
loop_
_atom_site_type_symbol
_atom_site_label
_atom_site_fract_x
_atom_site_fract_y
_atom_site_fract_z
Si Si1 0.375093 0.425837 0.606296
Si Si2 0.671635 0.928160 0.076886
Si Si3 0.482262 0.927990 0.715782
Si Si4 0.537644 0.427165 0.081213
Si Si5 0.759319 0.072322 0.388817
Si Si6 0.214599 0.072278 0.797004
Si Si7 0.898118 0.073120 0.100541
O O1 0.366532 0.250000 0.620288
O O2 0.421439 0.491449 0.679761
O O3 0.309093 0.504803 0.607595
O O4 0.403778 0.450575 0.506612
O O5 0.661327 0.750000 0.080221
O O6 0.719938 0.966944 0.156245
O O7 0.607195 0.011604 0.083872
O O8 0.704445 0.962917 0.981182
O O9 0.473684 0.750000 0.706951
O O10 0.492351 0.961519 0.821201
O O11 0.540708 0.971132 0.654862
O O12 0.538276 0.250000 0.069969
O O13 0.500000 0.500000 0.000000
O O14 0.756121 0.250000 0.380931
O O15 0.790947 0.003749 0.300339
O O16 0.212078 0.250000 0.788851
O O17 0.160322 0.014958 0.861493
O O18 0.888094 0.250000 0.115034
#
# Coordination Sequence:
#
# PCOD9466636 Si02
#       7
#     8   8   8   8   8   8   8
#     4  11  22  38  63  96 127 160 206 259 307 366
#     4  10  23  43  64  88 124 164 203 251 309 368
#     4  10  23  42  63  88 123 169 210 251 313 377
#     4  11  25  43  65  91 123 163 211 260 310 370
#     4  11  23  40  63  89 123 166 203 250 313 373
#     4  11  23  40  63  95 127 161 208 260 310 368
#     4  10  22  40  62  91 127 165 207 254 309 375
#
# _framework density 19.420628000000001
#
# number of rings (size 3 to 8) (size 9 to 14) (size 15 to 20)
#    0.000    1.429    1.429    3.000    2.000    6.857 
#    0.000    0.000    0.000    0.000    0.000    0.000 
#    0.000    0.000    0.000    0.000    0.000    0.000 
#
# Total GULP energy -313203.779315 kJ/mol
# GULP energy per Si atom -5592.924631 kJ/mol
# Density = 1.937643 g / cm^3
# Si number density = 19.420628 Si / 1000 Ang^3
#
#
#
# Elastic Constant Matrix: (Units=GPa)
#
#
# Indices 1 2 3 4 5 6 
#
# 1 44.1806 13.7552 -5.9978 0.0000 0.0000 0.0000
# 2 13.7552 33.5628 30.6177 0.0000 0.0000 0.0000
# 3 -5.9978 30.6177 74.6662 0.0000 0.0000 0.0000
# 4 0.0000 0.0000 0.0000 31.4315 0.0000 0.0000
# 5 0.0000 0.0000 0.0000 0.0000 27.3593 0.0000
# 6 0.0000 0.0000 0.0000 0.0000 0.0000 34.5509
#
#
#
# Elastic Compliance Matrix: (Units=1/GPa)
#
#
# Indices 1 2 3 4 5 6 
#
# 1 0.032068 -0.024752 0.012726 0.000000 0.000000 0.000000
# 2 -0.024752 0.066706 -0.029342 0.000000 0.000000 0.000000
# 3 0.012726 -0.029342 0.026447 0.000000 0.000000 0.000000
# 4 0.000000 0.000000 0.000000 0.031815 0.000000 0.000000
# 5 0.000000 0.000000 0.000000 0.000000 0.036551 0.000000
# 6 0.000000 0.000000 0.000000 0.000000 0.000000 0.028943
#
#
# Mechanical properties :
#
#
# Convention : Reuss Voigt Hill
#
# Bulk Modulus (GPa) = 23.53730 25.46219 24.49974
# Shear Modulus (GPa) = 15.65303 26.27064 20.96183
#
# Velocity S-wave (km/s) = 2.84209 3.68192 3.28892
# Velocity P-wave (km/s) = 4.78707 5.58702 5.20244
#
# Compressibility (1/GPa) = 0.04248576
#
# Stress axis : x y z
#
# Youngs Moduli (GPa) = 31.18365 14.99116 37.81139
#
# Poissons Ratio (x) = 0.37105 -0.48117
# Poissons Ratio (y) = 0.77184 1.10945
# Poissons Ratio (z) = -0.39683 0.43987
#
# Static dielectric constant tensor:
#      x y z
#    x 1.639080 0.000000 0.000000 
#    y 0.000000 1.647460 0.000000 
#    z 0.000000 0.000000 1.679560 
# 
# From -- ./inp_files/20263.got.cif
#   From: 2010.05.17/outbox.cif.g08.bks.cpg/sg62_11_cif.got.tgz:20263.got - 2010.06.03 15:25:27.
