data_PCOD9466501
_publ_section_title
;
Structure prediction by ZEFSAII (Michael W. Deem and Ramdas Pophale) SiO2 
 PCOD9466501
Probable space group: P N M A
;
_chemical_formula_sum "Si O2"
_cell_formula_units_Z 48
_cell_length_a 9.602955
_cell_length_b 21.134039
_cell_length_c 8.944768
_cell_angle_alpha 90.000000
_cell_angle_beta 90.000000
_cell_angle_gamma 90.000000
_cell_volume 1815.333738
_symmetry_space_group_name_H-M "P N M A"
_symmetry_group_IT_number 62
_symmetry_cell_setting 'orthorhombic'
loop_
_space_group_symop_operation_xyz
x,y,z
1/2-x,-y,1/2+z
1/2+x,1/2-y,1/2-z
-x,1/2+y,-z
-x,-y,-z
1/2+x,y,1/2-z
1/2-x,1/2+y,1/2+z
x,1/2-y,z
loop_
_atom_site_type_symbol
_atom_site_label
_atom_site_fract_x
_atom_site_fract_y
_atom_site_fract_z
Si Si1 0.905364 0.324430 0.735282
Si Si2 0.171074 0.324745 0.572900
Si Si3 0.601979 0.021264 0.129783
Si Si4 0.344767 0.498186 0.561263
Si Si5 0.992003 0.652114 0.729744
Si Si6 0.265232 0.646572 0.560433
O O1 0.935240 0.250000 0.753827
O O2 0.824199 0.347545 0.881359
O O3 0.796851 0.331205 0.596599
O O4 0.050244 0.354612 0.679379
O O5 0.179185 0.250000 0.604809
O O6 0.107236 0.328187 0.408256
O O7 0.649970 0.977139 0.265667
O O8 0.521745 0.076499 0.216338
O O9 0.500000 0.000000 0.000000
O O10 0.741820 0.041175 0.044466
O O11 0.500000 0.500000 0.500000
O O12 0.279460 0.569916 0.555531
O O13 0.914627 0.671437 0.881704
O O14 0.148734 0.667526 0.683198
#
# Coordination Sequence:
#
# PCOD9466501 Si02
#       6
#     8   8   8   8   8   8
#     4   9  19  37  59  84 115 147 186 234 282 337
#     4   9  19  37  58  84 115 147 186 234 284 335
#     4  11  22  41  59  84 119 152 195 240 288 341
#     4  11  24  39  61  86 115 157 195 243 290 343
#     4  10  22  38  58  82 115 151 186 236 282 339
#     4  10  22  39  57  83 115 149 190 232 284 338
#
# _framework density 26.441420000000001
#
# number of rings (size 3 to 8) (size 9 to 14) (size 15 to 20)
#    0.000    2.000    1.667    1.000    7.000    4.667 
#    0.000    0.000    0.000    0.000    0.000    0.000 
#    0.000    0.000    0.000    0.000    0.000    0.000 
#
# Total GULP energy -268324.816253 kJ/mol
# GULP energy per Si atom -5590.100339 kJ/mol
# Density = 2.638124 g / cm^3
# Si number density = 26.441420 Si / 1000 Ang^3
#
#
#
# Elastic Constant Matrix: (Units=GPa)
#
#
# Indices 1 2 3 4 5 6 
#
# 1 137.3290 -15.8468 58.8375 0.0000 0.0000 0.0000
# 2 -15.8468 56.8751 -9.5349 0.0000 0.0000 0.0000
# 3 58.8375 -9.5349 85.5611 0.0000 0.0000 0.0000
# 4 0.0000 0.0000 0.0000 21.6185 0.0000 0.0000
# 5 0.0000 0.0000 0.0000 0.0000 57.5248 0.0000
# 6 0.0000 0.0000 0.0000 0.0000 0.0000 15.4368
#
#
#
# Elastic Compliance Matrix: (Units=1/GPa)
#
#
# Indices 1 2 3 4 5 6 
#
# 1 0.010491 0.001746 -0.007020 0.000000 0.000000 0.000000
# 2 0.001746 0.018208 0.000828 0.000000 0.000000 0.000000
# 3 -0.007020 0.000828 0.016607 0.000000 0.000000 0.000000
# 4 0.000000 0.000000 0.000000 0.046257 0.000000 0.000000
# 5 0.000000 0.000000 0.000000 0.000000 0.017384 0.000000
# 6 0.000000 0.000000 0.000000 0.000000 0.000000 0.064780
#
#
# Mechanical properties :
#
#
# Convention : Reuss Voigt Hill
#
# Bulk Modulus (GPa) = 27.46096 38.51963 32.99029
# Shear Modulus (GPa) = 25.67331 35.33665 30.50498
#
# Velocity S-wave (km/s) = 3.11939 3.65966 3.40027
# Velocity P-wave (km/s) = 4.83552 5.69711 5.28390
#
# Compressibility (1/GPa) = 0.03641534
#
# Stress axis : x y z
#
# Youngs Moduli (GPa) = 95.32203 54.92154 60.21566
#
# Poissons Ratio (x) = -0.09590 0.42269
# Poissons Ratio (y) = -0.16645 -0.04987
# Poissons Ratio (z) = 0.66912 -0.04549
#
# Static dielectric constant tensor:
#      x y z
#    x 2.040210 0.000000 0.000000 
#    y 0.000000 2.201000 0.000000 
#    z 0.000000 0.000000 2.111700 
# 
# From -- ./inp_files/4510.got.cif
#   From: 2010.05.17/outbox.cif.g08.bks.cpg/sg62_3_cif.got.tgz:4510.got - 2010.06.03 15:25:27.
