data_PCOD9466142
_publ_section_title
;
Structure prediction by ZEFSAII (Michael W. Deem and Ramdas Pophale) SiO2 
 PCOD9466142
Probable space group: P N M A
;
_chemical_formula_sum "Si O2"
_cell_formula_units_Z 64
_cell_length_a 15.365002
_cell_length_b 8.388187
_cell_length_c 24.221879
_cell_angle_alpha 90.000000
_cell_angle_beta 90.000000
_cell_angle_gamma 90.000000
_cell_volume 3121.825007
_symmetry_space_group_name_H-M "P N M A"
_symmetry_group_IT_number 62
_symmetry_cell_setting 'orthorhombic'
loop_
_space_group_symop_operation_xyz
x,y,z
1/2-x,-y,1/2+z
1/2+x,1/2-y,1/2-z
-x,1/2+y,-z
-x,-y,-z
1/2+x,y,1/2-z
1/2-x,1/2+y,1/2+z
x,1/2-y,z
loop_
_atom_site_type_symbol
_atom_site_label
_atom_site_fract_x
_atom_site_fract_y
_atom_site_fract_z
Si Si1 0.930075 0.443304 0.250718
Si Si2 0.269605 0.943179 0.752625
Si Si3 0.265283 0.936688 0.023842
Si Si4 0.822323 0.058763 0.867858
Si Si5 0.511138 0.938680 0.629186
Si Si6 0.576984 0.057849 0.165815
Si Si7 0.426457 0.064676 0.958858
Si Si8 0.589952 0.436438 0.525699
O O1 0.926091 0.250000 0.255107
O O2 0.830577 0.499698 0.245337
O O3 0.977242 0.480184 0.193190
O O4 0.990857 0.500043 0.301017
O O5 0.269113 0.750000 0.754352
O O6 0.336226 0.996787 0.800794
O O7 0.303943 0.997727 0.693208
O O8 0.288284 0.750000 0.021257
O O9 0.335951 0.033833 0.990182
O O10 0.171378 0.965381 0.996547
O O11 0.252451 0.983980 0.087950
O O12 0.831362 0.250000 0.868716
O O13 0.912855 0.981635 0.886858
O O14 0.526097 0.750000 0.622127
O O15 0.577421 0.033586 0.590794
O O16 0.576946 0.250000 0.169149
O O17 0.575299 0.012494 0.101813
O O18 0.441627 0.250000 0.950638
O O19 0.500000 0.000000 0.000000
O O20 0.500000 0.500000 0.500000
O O21 0.600961 0.250000 0.513471
#
# Coordination Sequence:
#
# PCOD9466142 Si02
#       8
#     8   8   8   8   8   8   8   8
#     4   9  20  38  63  95 123 163 211 254 317 390
#     4  10  21  39  65  94 127 168 211 259 322 393
#     4  11  25  45  67  94 130 175 222 273 329 391
#     4  11  23  39  62  93 129 164 211 271 327 388
#     4  11  21  38  63  91 127 171 215 260 315 387
#     4  10  21  42  67  96 133 171 217 271 324 390
#     4  12  28  49  71  97 130 174 228 284 340 398
#     4  12  24  39  60  94 133 173 215 262 322 389
#
# _framework density 20.500827999999998
#
# number of rings (size 3 to 8) (size 9 to 14) (size 15 to 20)
#    0.000    1.250    2.500    3.375    3.500    2.000 
#    0.000    1.250    0.000    0.000    0.000    0.000 
#    0.000    0.000    0.000    0.000    0.000    0.000 
#
# Total GULP energy -357660.717227 kJ/mol
# GULP energy per Si atom -5588.448707 kJ/mol
# Density = 2.045417 g / cm^3
# Si number density = 20.500828 Si / 1000 Ang^3
#
#
#
# Elastic Constant Matrix: (Units=GPa)
#
#
# Indices 1 2 3 4 5 6 
#
# 1 110.7316 7.1944 57.7146 0.0000 0.0000 0.0000
# 2 7.1944 23.6572 5.3519 0.0000 0.0000 0.0000
# 3 57.7146 5.3519 139.1329 0.0000 0.0000 0.0000
# 4 0.0000 0.0000 0.0000 30.6960 0.0000 0.0000
# 5 0.0000 0.0000 0.0000 0.0000 26.6306 0.0000
# 6 0.0000 0.0000 0.0000 0.0000 0.0000 21.1695
#
#
#
# Elastic Compliance Matrix: (Units=1/GPa)
#
#
# Indices 1 2 3 4 5 6 
#
# 1 0.011664 -0.002474 -0.004743 0.000000 0.000000 0.000000
# 2 -0.002474 0.043166 -0.000634 0.000000 0.000000 0.000000
# 3 -0.004743 -0.000634 0.009179 0.000000 0.000000 0.000000
# 4 0.000000 0.000000 0.000000 0.032578 0.000000 0.000000
# 5 0.000000 0.000000 0.000000 0.000000 0.037551 0.000000
# 6 0.000000 0.000000 0.000000 0.000000 0.000000 0.047238
#
#
# Mechanical properties :
#
#
# Convention : Reuss Voigt Hill
#
# Bulk Modulus (GPa) = 20.70109 46.00483 33.35296
# Shear Modulus (GPa) = 23.45431 29.24994 26.35213
#
# Velocity S-wave (km/s) = 3.38607 3.78136 3.58916
# Velocity P-wave (km/s) = 5.04053 6.44624 5.78623
#
# Compressibility (1/GPa) = 0.04830663
#
# Stress axis : x y z
#
# Youngs Moduli (GPa) = 85.73546 23.16623 108.94071
#
# Poissons Ratio (x) = 0.05731 0.51672
# Poissons Ratio (y) = 0.21211 0.06909
# Poissons Ratio (z) = 0.40666 0.01469
#
# Static dielectric constant tensor:
#      x y z
#    x 1.747190 0.000000 0.000000 
#    y 0.000000 1.694310 0.000000 
#    z 0.000000 0.000000 1.804440 
# 
# From -- ./inp_files/29918.got.cif
#   From: 2010.05.17/outbox.cif.g08.bks.cpg/sg62_15_cif.got.tgz:29918.got - 2010.06.03 15:25:27.
