data_PCOD9466762
_publ_section_title
;
Structure prediction by ZEFSAII (Michael W. Deem and Ramdas Pophale) SiO2 
 PCOD9466762
Probable space group: P N M A
;
_chemical_formula_sum "Si O2"
_cell_formula_units_Z 60
_cell_length_a 11.657212
_cell_length_b 15.296011
_cell_length_c 15.406566
_cell_angle_alpha 90.000000
_cell_angle_beta 90.000000
_cell_angle_gamma 90.000000
_cell_volume 2747.126958
_symmetry_space_group_name_H-M "P N M A"
_symmetry_group_IT_number 62
_symmetry_cell_setting 'orthorhombic'
loop_
_space_group_symop_operation_xyz
x,y,z
1/2-x,-y,1/2+z
1/2+x,1/2-y,1/2-z
-x,1/2+y,-z
-x,-y,-z
1/2+x,y,1/2-z
1/2-x,1/2+y,1/2+z
x,1/2-y,z
loop_
_atom_site_type_symbol
_atom_site_label
_atom_site_fract_x
_atom_site_fract_y
_atom_site_fract_z
Si Si1 0.445934 0.391471 0.655572
Si Si2 0.185821 0.028599 0.889638
Si Si3 0.132623 0.655694 0.832749
Si Si4 0.408992 0.655270 0.007605
Si Si5 0.253504 0.000836 0.577614
Si Si6 0.577057 0.605382 0.156835
Si Si7 0.962294 0.086586 0.342135
Si Si8 0.438753 0.250000 0.500584
O O1 0.566778 0.440273 0.649183
O O2 0.340935 0.459492 0.646386
O O3 0.438390 0.350329 0.750649
O O4 0.437361 0.325513 0.576124
O O5 0.206868 0.930325 0.853528
O O6 0.290465 0.090463 0.863869
O O7 0.179173 0.032710 0.993745
O O8 0.193419 0.750000 0.816053
O O9 0.054473 0.633580 0.749714
O O10 0.065445 0.675141 0.921971
O O11 0.349132 0.750000 0.009367
O O12 0.323622 0.579246 0.037075
O O13 0.510832 0.650895 0.078152
O O14 0.465022 0.637813 0.914399
O O15 0.164805 0.932649 0.618844
O O16 0.520822 0.508548 0.165280
#
# Coordination Sequence:
#
# PCOD9466762 Si02
#       8
#     8   8   8   8   8   8   8   4
#     4  12  26  43  72  96 138 187 225 283 347 406
#     4  12  22  45  72  95 142 181 230 282 338 417
#     4  10  22  41  67  97 136 173 229 276 340 409
#     4  11  24  42  68 101 142 173 226 295 345 392
#     4  11  22  40  71  99 134 182 234 277 339 416
#     4  11  24  44  69 101 129 184 239 273 336 425
#     4  11  20  45  69  99 134 180 228 286 334 409
#     4  10  26  44  62 102 144 172 224 286 336 420
#
# _framework density 21.841000999999999
#
# number of rings (size 3 to 8) (size 9 to 14) (size 15 to 20)
#    0.400    0.533    5.333    2.400    3.733    0.533 
#    1.200    0.000    2.933    0.000    0.000    0.000 
#    0.000    0.000    0.000    0.000    0.000    0.000 
#
# Total GULP energy -334348.269865 kJ/mol
# GULP energy per Si atom -5572.471164 kJ/mol
# Density = 2.179129 g / cm^3
# Si number density = 21.841001 Si / 1000 Ang^3
#
#
#
# Elastic Constant Matrix: (Units=GPa)
#
#
# Indices 1 2 3 4 5 6 
#
# 1 49.7868 -14.8808 -7.9088 0.0000 0.0000 0.0000
# 2 -14.8808 57.1468 11.5293 0.0000 0.0000 0.0000
# 3 -7.9088 11.5293 153.6310 0.0000 0.0000 0.0000
# 4 0.0000 0.0000 0.0000 14.4445 0.0000 0.0000
# 5 0.0000 0.0000 0.0000 0.0000 -70.8622 0.0000
# 6 0.0000 0.0000 0.0000 0.0000 0.0000 3.8996
#
#
#
# Elastic Compliance Matrix: (Units=1/GPa)
#
#
# Indices 1 2 3 4 5 6 
#
# 1 0.021857 0.005548 0.000709 0.000000 0.000000 0.000000
# 2 0.005548 0.019176 -0.001153 0.000000 0.000000 0.000000
# 3 0.000709 -0.001153 0.006632 0.000000 0.000000 0.000000
# 4 0.000000 0.000000 0.000000 0.069230 0.000000 0.000000
# 5 0.000000 0.000000 0.000000 0.000000 -0.014112 0.000000
# 6 0.000000 0.000000 0.000000 0.000000 0.000000 0.256436
#
#
# Mechanical properties :
#
#
# Convention : Reuss Voigt Hill
#
# Bulk Modulus (GPa) = 17.27939 26.44932 21.86435
# Shear Modulus (GPa) = 13.57577 7.61805 10.59691
#
# Velocity S-wave (km/s) = 2.49584 1.86963 2.20508
# Velocity P-wave (km/s) = 4.02917 4.09841 4.06394
#
# Compressibility (1/GPa) = 0.05787243
#
# Stress axis : x y z
#
# Youngs Moduli (GPa) = 45.75280 52.14775 150.78061
#
# Poissons Ratio (x) = -0.28934 -0.10687
# Poissons Ratio (y) = -0.25385 0.17392
# Poissons Ratio (z) = -0.03243 0.06015
#
# Static dielectric constant tensor:
#      x y z
#    x 1.783830 0.000000 0.000000 
#    y 0.000000 1.812490 0.000000 
#    z 0.000000 0.000000 1.788020 
# 
# From -- ./inp_files/18237.got.cif
#   From: 2010.05.17/outbox.cif.g08.bks.cpg/sg62_10_cif.got.tgz:18237.got - 2010.06.03 15:25:27.
