data_PCOD9466854
_publ_section_title
;
Structure prediction by ZEFSAII (Michael W. Deem and Ramdas Pophale) SiO2 
 PCOD9466854
Probable space group: P N M A
;
_chemical_formula_sum "Si O2"
_cell_formula_units_Z 48
_cell_length_a 22.830195
_cell_length_b 8.860587
_cell_length_c 12.094124
_cell_angle_alpha 90.000000
_cell_angle_beta 90.000000
_cell_angle_gamma 90.000000
_cell_volume 2446.507391
_symmetry_space_group_name_H-M "P N M A"
_symmetry_group_IT_number 62
_symmetry_cell_setting 'orthorhombic'
loop_
_space_group_symop_operation_xyz
x,y,z
1/2-x,-y,1/2+z
1/2+x,1/2-y,1/2-z
-x,1/2+y,-z
-x,-y,-z
1/2+x,y,1/2-z
1/2-x,1/2+y,1/2+z
x,1/2-y,z
loop_
_atom_site_type_symbol
_atom_site_label
_atom_site_fract_x
_atom_site_fract_y
_atom_site_fract_z
Si Si1 0.421623 0.428438 0.238685
Si Si2 0.150221 0.927209 0.166962
Si Si3 0.364143 0.430853 0.011875
Si Si4 0.648440 0.429281 0.574109
Si Si5 0.041108 0.574045 0.331643
Si Si6 0.730192 0.429789 0.147643
O O1 0.418556 0.250000 0.259910
O O2 0.404722 0.518590 0.348079
O O3 0.485486 0.473294 0.194797
O O4 0.376154 0.463936 0.139483
O O5 0.164460 0.750000 0.156346
O O6 0.089629 0.939301 0.235141
O O7 0.199048 0.008025 0.242066
O O8 0.144245 0.001850 0.047992
O O9 0.354070 0.250000 0.998338
O O10 0.423246 0.466415 0.942704
O O11 0.311471 0.518761 0.954079
O O12 0.651804 0.250000 0.568212
O O13 0.706980 0.496456 0.629069
O O14 0.023233 0.750000 0.339635
O O15 0.734843 0.250000 0.151883
#
# Coordination Sequence:
#
# PCOD9466854 Si02
#       6
#     8   8   8   8   8   8
#     4  11  23  38  60  91 126 161 205 254 301 360
#     4  10  22  43  66  89 120 158 203 251 304 366
#     4   9  20  39  62  90 124 162 204 252 301 356
#     4  12  26  42  61  87 122 163 206 254 305 362
#     4   9  19  38  63  90 122 159 199 250 308 363
#     4  11  23  40  64  91 121 158 201 250 306 367
#
# _framework density 19.619806000000001
#
# number of rings (size 3 to 8) (size 9 to 14) (size 15 to 20)
#    0.000    1.667    0.000    5.500    2.333    5.333 
#    0.000    0.000    0.000    0.000    0.000    0.000 
#    0.000    0.000    0.000    0.000    0.000    0.000 
#
# Total GULP energy -268441.778915 kJ/mol
# GULP energy per Si atom -5592.537061 kJ/mol
# Density = 1.957515 g / cm^3
# Si number density = 19.619806 Si / 1000 Ang^3
#
#
#
# Elastic Constant Matrix: (Units=GPa)
#
#
# Indices 1 2 3 4 5 6 
#
# 1 25.3747 12.2788 0.8801 0.0000 0.0000 0.0000
# 2 12.2788 102.0442 47.0110 0.0000 0.0000 0.0000
# 3 0.8801 47.0110 101.7100 0.0000 0.0000 0.0000
# 4 0.0000 0.0000 0.0000 28.2169 0.0000 0.0000
# 5 0.0000 0.0000 0.0000 0.0000 2.4776 0.0000
# 6 0.0000 0.0000 0.0000 0.0000 0.0000 34.4484
#
#
#
# Elastic Compliance Matrix: (Units=1/GPa)
#
#
# Indices 1 2 3 4 5 6 
#
# 1 0.042351 -0.006260 0.002527 0.000000 0.000000 0.000000
# 2 -0.006260 0.013376 -0.006128 0.000000 0.000000 0.000000
# 3 0.002527 -0.006128 0.012643 0.000000 0.000000 0.000000
# 4 0.000000 0.000000 0.000000 0.035440 0.000000 0.000000
# 5 0.000000 0.000000 0.000000 0.000000 0.403623 0.000000
# 6 0.000000 0.000000 0.000000 0.000000 0.000000 0.029029
#
#
# Mechanical properties :
#
#
# Convention : Reuss Voigt Hill
#
# Bulk Modulus (GPa) = 20.55640 38.82985 29.69312
# Shear Modulus (GPa) = 8.73515 24.29250 16.51383
#
# Velocity S-wave (km/s) = 2.11232 3.52257 2.90434
# Velocity P-wave (km/s) = 4.05577 6.03148 5.13946
#
# Compressibility (1/GPa) = 0.04864664
#
# Stress axis : x y z
#
# Youngs Moduli (GPa) = 23.61225 74.75924 79.09756
#
# Poissons Ratio (x) = 0.46801 -0.19988
# Poissons Ratio (y) = 0.14782 0.48474
# Poissons Ratio (z) = -0.05967 0.45816
#
# Static dielectric constant tensor:
#      x y z
#    x 1.672310 0.000000 0.000000 
#    y 0.000000 1.630020 0.000000 
#    z 0.000000 0.000000 1.680800 
# 
# From -- ./inp_files/15108.got.cif
#   From: 2010.05.17/outbox.cif.g08.bks.cpg/sg62_8_cif.got.tgz:15108.got - 2010.06.03 15:25:27.
