data_PCOD9466032
_publ_section_title
;
Structure prediction by ZEFSAII (Michael W. Deem and Ramdas Pophale) SiO2 
 PCOD9466032
Probable space group: P N M A
;
_chemical_formula_sum "Si O2"
_cell_formula_units_Z 64
_cell_length_a 9.375068
_cell_length_b 15.353810
_cell_length_c 18.283891
_cell_angle_alpha 90.000000
_cell_angle_beta 90.000000
_cell_angle_gamma 90.000000
_cell_volume 2631.838356
_symmetry_space_group_name_H-M "P N M A"
_symmetry_group_IT_number 62
_symmetry_cell_setting 'orthorhombic'
loop_
_space_group_symop_operation_xyz
x,y,z
1/2-x,-y,1/2+z
1/2+x,1/2-y,1/2-z
-x,1/2+y,-z
-x,-y,-z
1/2+x,y,1/2-z
1/2-x,1/2+y,1/2+z
x,1/2-y,z
loop_
_atom_site_type_symbol
_atom_site_label
_atom_site_fract_x
_atom_site_fract_y
_atom_site_fract_z
Si Si1 0.036152 0.571875 0.705234
Si Si2 0.438598 0.352349 0.353500
Si Si3 0.491707 0.347471 0.592060
Si Si4 0.344094 0.644556 0.924462
Si Si5 0.555037 0.857087 0.042086
Si Si6 0.287200 0.349454 0.818154
Si Si7 0.681300 0.970945 0.313202
Si Si8 0.322775 0.648713 0.551146
O O1 0.092713 0.637416 0.768109
O O2 0.172834 0.522623 0.674825
O O3 0.950106 0.617242 0.640634
O O4 0.932409 0.514625 0.756680
O O5 0.444477 0.250000 0.369505
O O6 0.309591 0.391636 0.400559
O O7 0.593309 0.387735 0.378795
O O8 0.428245 0.250000 0.599362
O O9 0.633763 0.351826 0.642165
O O10 0.389883 0.424213 0.617415
O O11 0.554794 0.354286 0.510841
O O12 0.336772 0.750000 0.925668
O O13 0.409044 0.617013 0.002445
O O14 0.560123 0.750000 0.044808
O O15 0.681564 0.886772 0.987073
O O16 0.599753 0.888502 0.122694
O O17 0.330777 0.250000 0.807632
O O18 0.271683 0.391957 0.740378
O O19 0.285807 0.750000 0.567160
#
# Coordination Sequence:
#
# PCOD9466032 Si02
#       8
#     8   8   8   8   8   8   8   8
#     4  12  25  40  55  80 119 153 189 234 281 332
#     4  10  21  39  60  84 113 146 187 237 284 334
#     4   9  18  37  62  87 113 147 191 234 276 334
#     4  10  21  39  60  84 112 146 188 235 285 338
#     4   8  16  33  60  87 110 140 185 234 280 333
#     4   9  18  37  62  87 114 148 189 233 279 333
#     4  12  23  40  57  80 119 155 191 231 278 334
#     4   8  16  33  60  87 109 139 187 236 277 329
#
# _framework density 24.317605
#
# number of rings (size 3 to 8) (size 9 to 14) (size 15 to 20)
#    0.000    2.250    2.500    2.250    1.750    0.000 
#    2.250    2.500    0.000    0.000    0.000    0.000 
#    0.000    0.000    0.000    0.000    0.000    0.000 
#
# Total GULP energy -357607.220042 kJ/mol
# GULP energy per Si atom -5587.612813 kJ/mol
# Density = 2.426226 g / cm^3
# Si number density = 24.317605 Si / 1000 Ang^3
#
#
#
# Elastic Constant Matrix: (Units=GPa)
#
#
# Indices 1 2 3 4 5 6 
#
# 1 63.3986 12.1063 -7.8564 0.0000 0.0000 0.0000
# 2 12.1063 28.3159 -8.0166 0.0000 0.0000 0.0000
# 3 -7.8564 -8.0166 18.7776 0.0000 0.0000 0.0000
# 4 0.0000 0.0000 0.0000 6.4600 0.0000 0.0000
# 5 0.0000 0.0000 0.0000 0.0000 31.3223 0.0000
# 6 0.0000 0.0000 0.0000 0.0000 0.0000 18.4064
#
#
#
# Elastic Compliance Matrix: (Units=1/GPa)
#
#
# Indices 1 2 3 4 5 6 
#
# 1 0.017533 -0.006164 0.004704 0.000000 0.000000 0.000000
# 2 -0.006164 0.042339 0.015496 0.000000 0.000000 0.000000
# 3 0.004704 0.015496 0.061839 0.000000 0.000000 0.000000
# 4 0.000000 0.000000 0.000000 0.154799 0.000000 0.000000
# 5 0.000000 0.000000 0.000000 0.000000 0.031926 0.000000
# 6 0.000000 0.000000 0.000000 0.000000 0.000000 0.054329
#
#
# Mechanical properties :
#
#
# Convention : Reuss Voigt Hill
#
# Bulk Modulus (GPa) = 6.67637 11.43985 9.05811
# Shear Modulus (GPa) = 12.99982 18.85499 15.92741
#
# Velocity S-wave (km/s) = 2.31462 2.78756 2.56202
# Velocity P-wave (km/s) = 3.14559 3.88268 3.53341
#
# Compressibility (1/GPa) = 0.14978199
#
# Stress axis : x y z
#
# Youngs Moduli (GPa) = 57.03438 23.61914 16.17112
#
# Poissons Ratio (x) = 0.14560 -0.07607
# Poissons Ratio (y) = 0.35159 -0.25059
# Poissons Ratio (z) = -0.26829 -0.36601
#
# Static dielectric constant tensor:
#      x y z
#    x 1.953770 0.000000 0.000000 
#    y 0.000000 2.003380 0.000000 
#    z 0.000000 0.000000 1.924240 
# 
# From -- ./inp_files/26160.got.cif
#   From: 2010.05.17/outbox.cif.g08.bks.cpg/sg62_14_cif.got.tgz:26160.got - 2010.06.03 15:25:27.
