data_PCOD9466069
_publ_section_title
;
Structure prediction by ZEFSAII (Michael W. Deem and Ramdas Pophale) SiO2 
 PCOD9466069
Probable space group: P N M A
;
_chemical_formula_sum "Si O2"
_cell_formula_units_Z 56
_cell_length_a 12.568293
_cell_length_b 13.297504
_cell_length_c 14.267522
_cell_angle_alpha 90.000000
_cell_angle_beta 90.000000
_cell_angle_gamma 90.000000
_cell_volume 2384.487100
_symmetry_space_group_name_H-M "P N M A"
_symmetry_group_IT_number 62
_symmetry_cell_setting 'orthorhombic'
loop_
_space_group_symop_operation_xyz
x,y,z
1/2-x,-y,1/2+z
1/2+x,1/2-y,1/2-z
-x,1/2+y,-z
-x,-y,-z
1/2+x,y,1/2-z
1/2-x,1/2+y,1/2+z
x,1/2-y,z
loop_
_atom_site_type_symbol
_atom_site_label
_atom_site_fract_x
_atom_site_fract_y
_atom_site_fract_z
Si Si1 0.145658 0.950174 0.496478
Si Si2 0.734940 0.130444 0.888313
Si Si3 0.977139 0.129264 0.943270
Si Si4 0.227116 0.138228 0.282242
Si Si5 0.151032 0.369399 0.076414
Si Si6 0.978482 0.565830 0.642079
Si Si7 0.871684 0.535488 0.209264
O O1 0.258015 0.895514 0.500573
O O2 0.062979 0.896399 0.566206
O O3 0.164889 0.060439 0.543184
O O4 0.084497 0.969944 0.400926
O O5 0.722306 0.250000 0.903087
O O6 0.856997 0.100705 0.914389
O O7 0.697351 0.101896 0.782892
O O8 0.972439 0.250000 0.950118
O O9 0.060215 0.099774 0.862500
O O10 0.035908 0.093821 0.039850
O O11 0.275677 0.250000 0.280797
O O12 0.200861 0.100123 0.176568
O O13 0.112929 0.141569 0.330366
O O14 0.297019 0.052906 0.331859
O O15 0.141772 0.250000 0.085766
O O16 0.044583 0.528559 0.729895
#
# Coordination Sequence:
#
# PCOD9466069 Si02
#       7
#     8   8   8   8   8   8   8
#     4  10  21  42  62  87 123 162 206 257 309 367
#     4  10  21  39  61  91 124 155 202 262 309 361
#     4  10  22  39  65  92 121 163 206 255 313 366
#     4  11  23  40  61  91 128 165 206 254 307 371
#     4  10  21  40  60  87 124 163 206 249 306 373
#     4  10  22  39  62  86 119 161 205 250 307 369
#     4  11  21  41  63  90 125 158 209 256 313 366
#
# _framework density 23.485133999999999
#
# number of rings (size 3 to 8) (size 9 to 14) (size 15 to 20)
#    0.000    1.714    2.857    2.143    0.000    2.286 
#    2.571    7.857    0.000    0.857    0.000    0.000 
#    0.000    0.000    0.000    0.000    0.000    0.000 
#
# Total GULP energy -312957.878526 kJ/mol
# GULP energy per Si atom -5588.533545 kJ/mol
# Density = 2.343168 g / cm^3
# Si number density = 23.485134 Si / 1000 Ang^3
#
#
#
# Elastic Constant Matrix: (Units=GPa)
#
#
# Indices 1 2 3 4 5 6 
#
# 1 123.3177 8.4602 13.8182 0.0000 0.0000 0.0000
# 2 8.4602 58.3308 -7.8998 0.0000 0.0000 0.0000
# 3 13.8182 -7.8998 29.1735 0.0000 0.0000 0.0000
# 4 0.0000 0.0000 0.0000 15.5575 0.0000 0.0000
# 5 0.0000 0.0000 0.0000 0.0000 41.6690 0.0000
# 6 0.0000 0.0000 0.0000 0.0000 0.0000 31.2445
#
#
#
# Elastic Compliance Matrix: (Units=1/GPa)
#
#
# Indices 1 2 3 4 5 6 
#
# 1 0.008762 -0.001903 -0.004666 0.000000 0.000000 0.000000
# 2 -0.001903 0.018209 0.005832 0.000000 0.000000 0.000000
# 3 -0.004666 0.005832 0.038067 0.000000 0.000000 0.000000
# 4 0.000000 0.000000 0.000000 0.064278 0.000000 0.000000
# 5 0.000000 0.000000 0.000000 0.000000 0.023999 0.000000
# 6 0.000000 0.000000 0.000000 0.000000 0.000000 0.032006
#
#
# Mechanical properties :
#
#
# Convention : Reuss Voigt Hill
#
# Bulk Modulus (GPa) = 15.73164 26.61994 21.17579
# Shear Modulus (GPa) = 24.04056 30.79044 27.41550
#
# Velocity S-wave (km/s) = 3.20292 3.62479 3.42036
# Velocity P-wave (km/s) = 4.51568 5.37384 4.96334
#
# Compressibility (1/GPa) = 0.06356615
#
# Stress axis : x y z
#
# Youngs Moduli (GPa) = 114.12294 54.91662 26.26958
#
# Poissons Ratio (x) = 0.10449 0.12256
# Poissons Ratio (y) = 0.21715 -0.15321
# Poissons Ratio (z) = 0.53246 -0.32028
#
# Static dielectric constant tensor:
#      x y z
#    x 1.894050 0.000000 0.000000 
#    y 0.000000 1.859930 0.000000 
#    z 0.000000 0.000000 1.937460 
# 
# From -- ./inp_files/18086.got.cif
#   From: 2010.05.17/outbox.cif.g08.bks.cpg/sg62_10_cif.got.tgz:18086.got - 2010.06.03 15:25:27.
