data_PCOD9466597
_publ_section_title
;
Structure prediction by ZEFSAII (Michael W. Deem and Ramdas Pophale) SiO2 
 PCOD9466597
Probable space group: P N M A
;
_chemical_formula_sum "Si O2"
_cell_formula_units_Z 64
_cell_length_a 15.095798
_cell_length_b 8.694801
_cell_length_c 26.549896
_cell_angle_alpha 90.000000
_cell_angle_beta 90.000000
_cell_angle_gamma 90.000000
_cell_volume 3484.805525
_symmetry_space_group_name_H-M "P N M A"
_symmetry_group_IT_number 62
_symmetry_cell_setting 'orthorhombic'
loop_
_space_group_symop_operation_xyz
x,y,z
1/2-x,-y,1/2+z
1/2+x,1/2-y,1/2-z
-x,1/2+y,-z
-x,-y,-z
1/2+x,y,1/2-z
1/2-x,1/2+y,1/2+z
x,1/2-y,z
loop_
_atom_site_type_symbol
_atom_site_label
_atom_site_fract_x
_atom_site_fract_y
_atom_site_fract_z
Si Si1 0.171202 0.564245 0.108952
Si Si2 0.357159 0.934845 0.866949
Si Si3 0.002460 0.933383 0.444282
Si Si4 0.900007 0.434866 0.001206
Si Si5 0.499404 0.935091 0.327286
Si Si6 0.331583 0.934998 0.394362
Si Si7 0.500393 0.434586 0.215607
Si Si8 0.861399 0.434240 0.369238
O O1 0.179679 0.750000 0.111423
O O2 0.260765 0.488105 0.128586
O O3 0.087650 0.516613 0.142969
O O4 0.149013 0.523639 0.051001
O O5 0.353140 0.750000 0.868655
O O6 0.412945 0.979733 0.817055
O O7 0.415710 0.995246 0.913444
O O8 0.259988 0.004360 0.871558
O O9 0.009202 0.750000 0.444957
O O10 0.914983 0.985753 0.414335
O O11 0.000000 0.000000 0.500000
O O12 0.904380 0.250000 0.003862
O O13 0.849719 0.499544 0.049930
O O14 0.000000 0.500000 0.000000
O O15 0.498952 0.750000 0.326575
O O16 0.413415 0.984354 0.358960
O O17 0.498361 0.994499 0.270579
O O18 0.330203 0.750000 0.396974
O O19 0.501417 0.250000 0.219973
O O20 0.414818 0.476521 0.181683
O O21 0.867810 0.250000 0.374829
#
# Coordination Sequence:
#
# PCOD9466597 Si02
#       8
#     8   8   8   8   8   8   8   8
#     4  10  22  40  59  86 121 157 198 245 296 355
#     4  10  22  41  61  87 121 156 197 247 299 354
#     4  11  22  38  60  86 117 156 198 243 295 354
#     4  11  22  39  61  85 121 160 198 248 303 355
#     4  10  22  40  61  86 119 156 201 250 297 352
#     4  11  23  40  60  89 123 159 204 247 295 359
#     4   9  21  41  62  85 118 154 196 249 301 354
#     4  10  22  40  60  87 120 155 197 245 296 354
#
# _framework density 18.365445000000001
#
# number of rings (size 3 to 8) (size 9 to 14) (size 15 to 20)
#    0.000    1.750    1.250    3.375    1.750    6.500 
#    0.000    5.000    0.000    0.000    0.000    0.000 
#    0.000    0.000    0.000    0.000    0.000    0.000 
#
# Total GULP energy -357591.988097 kJ/mol
# GULP energy per Si atom -5587.374814 kJ/mol
# Density = 1.832364 g / cm^3
# Si number density = 18.365445 Si / 1000 Ang^3
#
#
#
# Elastic Constant Matrix: (Units=GPa)
#
#
# Indices 1 2 3 4 5 6 
#
# 1 170.3684 41.5375 84.9962 0.0000 0.0000 0.0000
# 2 41.5375 54.4165 44.6047 0.0000 0.0000 0.0000
# 3 84.9962 44.6047 175.3264 0.0000 0.0000 0.0000
# 4 0.0000 0.0000 0.0000 35.3129 0.0000 0.0000
# 5 0.0000 0.0000 0.0000 0.0000 1.9695 0.0000
# 6 0.0000 0.0000 0.0000 0.0000 0.0000 36.0823
#
#
#
# Elastic Compliance Matrix: (Units=1/GPa)
#
#
# Indices 1 2 3 4 5 6 
#
# 1 0.008336 -0.003855 -0.003061 0.000000 0.000000 0.000000
# 2 -0.003855 0.025001 -0.004492 0.000000 0.000000 0.000000
# 3 -0.003061 -0.004492 0.008330 0.000000 0.000000 0.000000
# 4 0.000000 0.000000 0.000000 0.028318 0.000000 0.000000
# 5 0.000000 0.000000 0.000000 0.000000 0.507752 0.000000
# 6 0.000000 0.000000 0.000000 0.000000 0.000000 0.027714
#
#
# Mechanical properties :
#
#
# Convention : Reuss Voigt Hill
#
# Bulk Modulus (GPa) = 53.04098 82.48756 67.76427
# Shear Modulus (GPa) = 7.87959 29.93779 18.90869
#
# Velocity S-wave (km/s) = 2.07359 4.04185 3.21219
# Velocity P-wave (km/s) = 5.88868 8.17277 7.12287
#
# Compressibility (1/GPa) = 0.01885335
#
# Stress axis : x y z
#
# Youngs Moduli (GPa) = 119.95575 39.99843 120.04455
#
# Poissons Ratio (x) = 0.15417 0.36743
# Poissons Ratio (y) = 0.46237 0.53922
# Poissons Ratio (z) = 0.36716 0.17967
#
# Static dielectric constant tensor:
#      x y z
#    x 1.623730 0.000000 0.000000 
#    y 0.000000 1.619100 0.000000 
#    z 0.000000 0.000000 1.609300 
# 
# From -- ./inp_files/29899.got.cif
#   From: 2010.05.17/outbox.cif.g08.bks.cpg/sg62_15_cif.got.tgz:29899.got - 2010.06.03 15:25:27.
