data_PCOD9466485
_publ_section_title
;
Structure prediction by ZEFSAII (Michael W. Deem and Ramdas Pophale) SiO2 
 PCOD9466485
Probable space group: P N M A
;
_chemical_formula_sum "Si O2"
_cell_formula_units_Z 20
_cell_length_a 4.955303
_cell_length_b 7.417871
_cell_length_c 22.099586
_cell_angle_alpha 90.000000
_cell_angle_beta 90.000000
_cell_angle_gamma 90.000000
_cell_volume 812.332127
_symmetry_space_group_name_H-M "P N M A"
_symmetry_group_IT_number 62
_symmetry_cell_setting 'orthorhombic'
loop_
_space_group_symop_operation_xyz
x,y,z
1/2-x,-y,1/2+z
1/2+x,1/2-y,1/2-z
-x,1/2+y,-z
-x,-y,-z
1/2+x,y,1/2-z
1/2-x,1/2+y,1/2+z
x,1/2-y,z
loop_
_atom_site_type_symbol
_atom_site_label
_atom_site_fract_x
_atom_site_fract_y
_atom_site_fract_z
Si Si1 0.977447 0.750000 0.709958
Si Si2 0.719192 0.452321 0.876047
Si Si3 0.951461 0.250000 0.062122
Si Si4 0.953278 0.250000 0.520057
O O1 0.170356 0.750000 0.768749
O O2 0.058496 0.573155 0.671821
O O3 0.795452 0.250000 0.854116
O O4 0.964843 0.575304 0.899219
O O5 0.538990 0.411711 0.935425
O O6 0.149937 0.250000 0.003373
O O7 0.655023 0.250000 0.036359
#
# Coordination Sequence:
#
# PCOD9466485 Si02
#       4
#     4   8   4   4
#     4  11  26  47  64  84 118 157 206 267 306 336
#     4   9  23  40  62  95 118 160 204 242 294 368
#     4  11  20  40  58  94 132 162 184 237 296 360
#     4  10  22  37  62  90 132 159 192 236 294 364
#
# _framework density 24.620473
#
# number of rings (size 3 to 8) (size 9 to 14) (size 15 to 20)
#    1.200    0.800    0.000    2.400    0.000   11.200 
#    0.000    0.000    0.000    0.000    0.000    0.000 
#    0.000    0.000    0.000    0.000    0.000    0.000 
#
# Total GULP energy -112003.047269 kJ/mol
# GULP energy per Si atom -5600.152363 kJ/mol
# Density = 2.456444 g / cm^3
# Si number density = 24.620473 Si / 1000 Ang^3
#
#
#
# Elastic Constant Matrix: (Units=GPa)
#
#
# Indices 1 2 3 4 5 6 
#
# 1 63.6552 29.0680 8.1860 0.0000 0.0000 0.0000
# 2 29.0680 222.4675 51.2032 0.0000 0.0000 0.0000
# 3 8.1860 51.2032 82.7402 0.0000 0.0000 0.0000
# 4 0.0000 0.0000 0.0000 51.9510 0.0000 0.0000
# 5 0.0000 0.0000 0.0000 0.0000 37.6791 0.0000
# 6 0.0000 0.0000 0.0000 0.0000 0.0000 16.7809
#
#
#
# Elastic Compliance Matrix: (Units=1/GPa)
#
#
# Indices 1 2 3 4 5 6 
#
# 1 0.016715 -0.002103 -0.000352 0.000000 0.000000 0.000000
# 2 -0.002103 0.005506 -0.003199 0.000000 0.000000 0.000000
# 3 -0.000352 -0.003199 0.014101 0.000000 0.000000 0.000000
# 4 0.000000 0.000000 0.000000 0.019249 0.000000 0.000000
# 5 0.000000 0.000000 0.000000 0.000000 0.026540 0.000000
# 6 0.000000 0.000000 0.000000 0.000000 0.000000 0.059592
#
#
# Mechanical properties :
#
#
# Convention : Reuss Voigt Hill
#
# Bulk Modulus (GPa) = 39.97942 60.64191 50.31066
# Shear Modulus (GPa) = 30.98859 39.97590 35.48224
#
# Velocity S-wave (km/s) = 3.55160 4.03387 3.80039
# Velocity P-wave (km/s) = 5.75256 6.81031 6.30366
#
# Compressibility (1/GPa) = 0.02501287
#
# Stress axis : x y z
#
# Youngs Moduli (GPa) = 59.82557 181.61372 70.91785
#
# Poissons Ratio (x) = 0.38192 0.02499
# Poissons Ratio (y) = 0.12581 0.22690
# Poissons Ratio (z) = 0.02108 0.58106
#
# Static dielectric constant tensor:
#      x y z
#    x 1.882510 0.000000 0.000000 
#    y 0.000000 2.040870 0.000000 
#    z 0.000000 0.000000 1.948540 
# 
# From -- ./inp_files/21325.got.cif
#   From: 2010.05.17/outbox.cif.g08.bks.cpg/sg62_11_cif.got.tgz:21325.got - 2010.06.03 15:25:27.
