data_PCOD9466652
_publ_section_title
;
Structure prediction by ZEFSAII (Michael W. Deem and Ramdas Pophale) SiO2 
 PCOD9466652
Probable space group: P N M A
;
_chemical_formula_sum "Si O2"
_cell_formula_units_Z 48
_cell_length_a 15.259659
_cell_length_b 8.744276
_cell_length_c 19.061614
_cell_angle_alpha 90.000000
_cell_angle_beta 90.000000
_cell_angle_gamma 90.000000
_cell_volume 2543.480173
_symmetry_space_group_name_H-M "P N M A"
_symmetry_group_IT_number 62
_symmetry_cell_setting 'orthorhombic'
loop_
_space_group_symop_operation_xyz
x,y,z
1/2-x,-y,1/2+z
1/2+x,1/2-y,1/2-z
-x,1/2+y,-z
-x,-y,-z
1/2+x,y,1/2-z
1/2-x,1/2+y,1/2+z
x,1/2-y,z
loop_
_atom_site_type_symbol
_atom_site_label
_atom_site_fract_x
_atom_site_fract_y
_atom_site_fract_z
Si Si1 0.252739 0.566076 0.581624
Si Si2 0.095554 0.565897 0.982788
Si Si3 0.192924 0.066050 0.240546
Si Si4 0.006567 0.567383 0.283482
Si Si5 0.060097 0.434123 0.561928
Si Si6 0.636047 0.566018 0.677598
O O1 0.249007 0.750000 0.576818
O O2 0.330929 0.502635 0.533764
O O3 0.274551 0.524584 0.662434
O O4 0.159204 0.497096 0.559550
O O5 0.094497 0.750000 0.989036
O O6 0.118972 0.524578 0.902701
O O7 0.000000 0.500000 0.000000
O O8 0.183545 0.250000 0.242107
O O9 0.268165 0.020263 0.295292
O O10 0.101073 0.993230 0.260777
O O11 0.006211 0.750000 0.281272
O O12 0.980299 0.520191 0.362465
O O13 0.935466 0.504504 0.229094
O O14 0.061842 0.250000 0.557648
O O15 0.000000 0.500000 0.500000
O O16 0.629978 0.750000 0.683277
#
# Coordination Sequence:
#
# PCOD9466652 Si02
#       6
#     8   8   8   8   8   8
#     4  11  23  42  67  94 125 166 210 259 314 371
#     4  11  24  41  63  93 128 167 209 257 311 371
#     4  10  22  40  64  90 120 163 207 251 307 374
#     4  11  24  40  63  95 126 158 202 262 314 359
#     4  11  25  43  63  92 127 167 210 257 314 374
#     4  10  22  42  64  89 121 164 209 248 303 373
#
# _framework density 18.871780000000001
#
# number of rings (size 3 to 8) (size 9 to 14) (size 15 to 20)
#    0.000    1.333    1.667    3.000    2.333    9.333 
#    0.000    0.000    0.000    0.000    0.000    0.000 
#    0.000    0.000    0.000    0.000    0.000    0.000 
#
# Total GULP energy -268438.996440 kJ/mol
# GULP energy per Si atom -5592.479092 kJ/mol
# Density = 1.882883 g / cm^3
# Si number density = 18.871780 Si / 1000 Ang^3
#
#
#
# Elastic Constant Matrix: (Units=GPa)
#
#
# Indices 1 2 3 4 5 6 
#
# 1 122.5539 25.4725 24.8306 0.0000 0.0000 0.0000
# 2 25.4725 33.3519 32.0192 0.0000 0.0000 0.0000
# 3 24.8306 32.0192 92.4600 0.0000 0.0000 0.0000
# 4 0.0000 0.0000 0.0000 31.7723 0.0000 0.0000
# 5 0.0000 0.0000 0.0000 0.0000 41.6069 0.0000
# 6 0.0000 0.0000 0.0000 0.0000 0.0000 12.8736
#
#
#
# Elastic Compliance Matrix: (Units=1/GPa)
#
#
# Indices 1 2 3 4 5 6 
#
# 1 0.009700 -0.007351 -0.000059 0.000000 0.000000 0.000000
# 2 -0.007351 0.050488 -0.015510 0.000000 0.000000 0.000000
# 3 -0.000059 -0.015510 0.016203 0.000000 0.000000 0.000000
# 4 0.000000 0.000000 0.000000 0.031474 0.000000 0.000000
# 5 0.000000 0.000000 0.000000 0.000000 0.024034 0.000000
# 6 0.000000 0.000000 0.000000 0.000000 0.000000 0.077678
#
#
# Mechanical properties :
#
#
# Convention : Reuss Voigt Hill
#
# Bulk Modulus (GPa) = 32.73383 45.89006 39.31194
# Shear Modulus (GPa) = 18.82524 28.32014 23.57269
#
# Velocity S-wave (km/s) = 3.16180 3.87804 3.53809
# Velocity P-wave (km/s) = 5.54187 6.66497 6.12920
#
# Compressibility (1/GPa) = 0.03054944
#
# Stress axis : x y z
#
# Youngs Moduli (GPa) = 103.09700 19.80662 61.71875
#
# Poissons Ratio (x) = 0.14561 0.00365
# Poissons Ratio (y) = 0.75790 0.95726
# Poissons Ratio (z) = 0.00609 0.30720
#
# Static dielectric constant tensor:
#      x y z
#    x 1.602280 0.000000 0.000000 
#    y 0.000000 1.635690 0.000000 
#    z 0.000000 0.000000 1.636610 
# 
# From -- ./inp_files/23650.got.cif
#   From: 2010.05.17/outbox.cif.g08.bks.cpg/sg62_12_cif.got.tgz:23650.got - 2010.06.03 15:25:27.
