data_PCOD9466559
_publ_section_title
;
Structure prediction by ZEFSAII (Michael W. Deem and Ramdas Pophale) SiO2 
 PCOD9466559
Probable space group: P N M A
;
_chemical_formula_sum "Si O2"
_cell_formula_units_Z 44
_cell_length_a 4.903468
_cell_length_b 25.434864
_cell_length_c 15.089272
_cell_angle_alpha 90.000000
_cell_angle_beta 90.000000
_cell_angle_gamma 90.000000
_cell_volume 1881.919544
_symmetry_space_group_name_H-M "P N M A"
_symmetry_group_IT_number 62
_symmetry_cell_setting 'orthorhombic'
loop_
_space_group_symop_operation_xyz
x,y,z
1/2-x,-y,1/2+z
1/2+x,1/2-y,1/2-z
-x,1/2+y,-z
-x,-y,-z
1/2+x,y,1/2-z
1/2-x,1/2+y,1/2+z
x,1/2-y,z
loop_
_atom_site_type_symbol
_atom_site_label
_atom_site_fract_x
_atom_site_fract_y
_atom_site_fract_z
Si Si1 0.678215 0.923990 0.888335
Si Si2 0.040646 0.390051 0.562372
Si Si3 0.693921 0.857846 0.610954
Si Si4 0.647284 0.965946 0.307529
Si Si5 0.739463 0.311049 0.689237
Si Si6 0.371591 0.750000 0.802446
O O1 0.389663 0.904095 0.850404
O O2 0.888457 0.876391 0.875026
O O3 0.789220 0.977054 0.847759
O O4 0.628170 0.927588 0.994605
O O5 0.227115 0.357992 0.492767
O O6 0.235046 0.423485 0.625098
O O7 0.845366 0.351293 0.616266
O O8 0.775148 0.802639 0.650206
O O9 0.333314 0.960095 0.280862
O O10 0.434366 0.318725 0.724687
O O11 0.771609 0.250000 0.661157
O O12 0.194369 0.750000 0.712043
#
# Coordination Sequence:
#
# PCOD9466559 Si02
#       6
#     8   8   8   8   8   4
#     4  10  24  43  65  94 129 169 213 267 317 385
#     4  10  25  41  67  91 133 164 220 259 320 382
#     4  10  25  42  69  94 127 170 212 263 323 374
#     4  12  26  41  67  95 129 172 215 265 323 382
#     4  10  22  39  61  91 126 167 208 261 320 379
#     4  12  26  46  70  98 132 166 216 268 318 380
#
# _framework density 23.380385
#
# number of rings (size 3 to 8) (size 9 to 14) (size 15 to 20)
#    1.091    0.364    0.000    3.818    6.364    5.091 
#    1.636    0.000    0.000    0.000    0.000    0.000 
#    0.000    0.000    0.000    0.000    0.000    0.000 
#
# Total GULP energy -246323.981332 kJ/mol
# GULP energy per Si atom -5598.272303 kJ/mol
# Density = 2.332717 g / cm^3
# Si number density = 23.380385 Si / 1000 Ang^3
#
#
#
# Elastic Constant Matrix: (Units=GPa)
#
#
# Indices 1 2 3 4 5 6 
#
# 1 72.8494 0.1392 -6.2261 0.0000 0.0000 0.0000
# 2 0.1392 97.7320 36.7743 0.0000 0.0000 0.0000
# 3 -6.2261 36.7743 68.9101 0.0000 0.0000 0.0000
# 4 0.0000 0.0000 0.0000 21.3864 0.0000 0.0000
# 5 0.0000 0.0000 0.0000 0.0000 16.7966 0.0000
# 6 0.0000 0.0000 0.0000 0.0000 0.0000 20.4904
#
#
#
# Elastic Compliance Matrix: (Units=1/GPa)
#
#
# Indices 1 2 3 4 5 6 
#
# 1 0.013863 -0.000614 0.001580 0.000000 0.000000 0.000000
# 2 -0.000614 0.012830 -0.006902 0.000000 0.000000 0.000000
# 3 0.001580 -0.006902 0.018338 0.000000 0.000000 0.000000
# 4 0.000000 0.000000 0.000000 0.046759 0.000000 0.000000
# 5 0.000000 0.000000 0.000000 0.000000 0.059536 0.000000
# 6 0.000000 0.000000 0.000000 0.000000 0.000000 0.048803
#
#
# Mechanical properties :
#
#
# Convention : Reuss Voigt Hill
#
# Bulk Modulus (GPa) = 30.15814 33.42959 31.79386
# Shear Modulus (GPa) = 22.41601 25.65495 24.03548
#
# Velocity S-wave (km/s) = 3.09973 3.31612 3.20975
# Velocity P-wave (km/s) = 5.07327 5.38437 5.23113
#
# Compressibility (1/GPa) = 0.03315855
#
# Stress axis : x y z
#
# Youngs Moduli (GPa) = 72.13346 77.94142 54.53164
#
# Poissons Ratio (x) = 0.04789 -0.08618
# Poissons Ratio (y) = 0.04432 0.37640
# Poissons Ratio (z) = -0.11400 0.53798
#
# Static dielectric constant tensor:
#      x y z
#    x 1.838230 0.000000 0.000000 
#    y 0.000000 1.829110 0.000000 
#    z 0.000000 0.000000 1.912900 
# 
# From -- ./inp_files/16204.got.cif
#   From: 2010.05.17/outbox.cif.g08.bks.cpg/sg62_9_cif.got.tgz:16204.got - 2010.06.03 15:25:27.
