data_PCOD9466249
_publ_section_title
;
Structure prediction by ZEFSAII (Michael W. Deem and Ramdas Pophale) SiO2 
 PCOD9466249
Probable space group: P N M A
;
_chemical_formula_sum "Si O2"
_cell_formula_units_Z 48
_cell_length_a 12.074553
_cell_length_b 17.063786
_cell_length_c 12.208677
_cell_angle_alpha 90.000000
_cell_angle_beta 90.000000
_cell_angle_gamma 90.000000
_cell_volume 2515.446367
_symmetry_space_group_name_H-M "P N M A"
_symmetry_group_IT_number 62
_symmetry_cell_setting 'orthorhombic'
loop_
_space_group_symop_operation_xyz
x,y,z
1/2-x,-y,1/2+z
1/2+x,1/2-y,1/2-z
-x,1/2+y,-z
-x,-y,-z
1/2+x,y,1/2-z
1/2-x,1/2+y,1/2+z
x,1/2-y,z
loop_
_atom_site_type_symbol
_atom_site_label
_atom_site_fract_x
_atom_site_fract_y
_atom_site_fract_z
Si Si1 0.153258 0.423815 0.532642
Si Si2 0.096475 0.909468 0.093749
Si Si3 0.076098 0.401883 0.095161
Si Si4 0.964767 0.341611 0.671363
Si Si5 0.675148 0.611487 0.969809
Si Si6 0.466798 0.659454 0.836528
O O1 0.276517 0.395442 0.560341
O O2 0.155102 0.517854 0.531034
O O3 0.110350 0.392187 0.416163
O O4 0.066317 0.391632 0.621773
O O5 0.066314 0.869088 0.207774
O O6 0.081753 0.003515 0.106480
O O7 0.014177 0.883333 0.997368
O O8 0.197464 0.373920 0.057717
O O9 0.044918 0.366417 0.211864
O O10 0.993392 0.250000 0.668887
O O11 0.863487 0.356515 0.587389
O O12 0.591423 0.647427 0.880938
O O13 0.436282 0.750000 0.849955
#
# Coordination Sequence:
#
# PCOD9466249 Si02
#       6
#     8   8   8   8   8   8
#     4  10  21  40  65  88 117 159 206 246 289 352
#     4  10  23  41  63  90 118 155 204 250 292 347
#     4  10  23  41  63  90 118 155 204 250 292 347
#     4  11  23  39  61  90 125 158 194 244 305 359
#     4  10  21  40  65  88 117 159 206 246 289 352
#     4  11  23  39  61  90 125 158 194 244 305 359
#
# _framework density 19.082101000000002
#
# number of rings (size 3 to 8) (size 9 to 14) (size 15 to 20)
#    0.000    1.667    0.000    6.000    4.667    3.333 
#    0.000    0.000    0.000    0.000    0.000    0.000 
#    0.000    0.000    0.000    0.000    0.000    0.000 
#
# Total GULP energy -268358.756103 kJ/mol
# GULP energy per Si atom -5590.807419 kJ/mol
# Density = 1.903867 g / cm^3
# Si number density = 19.082101 Si / 1000 Ang^3
#
#
#
# Elastic Constant Matrix: (Units=GPa)
#
#
# Indices 1 2 3 4 5 6 
#
# 1 89.3066 8.1403 64.7161 0.0000 0.0000 0.0000
# 2 8.1403 28.6682 18.5087 0.0000 0.0000 0.0000
# 3 64.7161 18.5087 144.0996 0.0000 0.0000 0.0000
# 4 0.0000 0.0000 0.0000 91.9935 0.0000 0.0000
# 5 0.0000 0.0000 0.0000 0.0000 3.0798 0.0000
# 6 0.0000 0.0000 0.0000 0.0000 0.0000 -5.4614
#
#
#
# Elastic Compliance Matrix: (Units=1/GPa)
#
#
# Indices 1 2 3 4 5 6 
#
# 1 0.016600 0.000109 -0.007469 0.000000 0.000000 0.000000
# 2 0.000109 0.038037 -0.004934 0.000000 0.000000 0.000000
# 3 -0.007469 -0.004934 0.010928 0.000000 0.000000 0.000000
# 4 0.000000 0.000000 0.000000 0.010870 0.000000 0.000000
# 5 0.000000 0.000000 0.000000 0.000000 0.324692 0.000000
# 6 0.000000 0.000000 0.000000 0.000000 0.000000 -0.183103
#
#
# Mechanical properties :
#
#
# Convention : Reuss Voigt Hill
#
# Bulk Modulus (GPa) = 24.40518 49.42271 36.91394
# Shear Modulus (GPa) = 19.51050 29.30302 24.40676
#
# Velocity S-wave (km/s) = 3.20105 3.92296 3.58025
# Velocity P-wave (km/s) = 5.14583 6.81731 6.03967
#
# Compressibility (1/GPa) = 0.04097491
#
# Stress axis : x y z
#
# Youngs Moduli (GPa) = 60.24106 26.29038 91.50920
#
# Poissons Ratio (x) = -0.00286 0.68349
# Poissons Ratio (y) = -0.00655 0.45154
# Poissons Ratio (z) = 0.44995 0.12973
#
# Static dielectric constant tensor:
#      x y z
#    x 1.647340 0.000000 0.000000 
#    y 0.000000 1.657750 0.000000 
#    z 0.000000 0.000000 1.618140 
# 
# From -- ./inp_files/12222.got.cif
#   From: 2010.05.17/outbox.cif.g08.bks.cpg/sg62_7_cif.got.tgz:12222.got - 2010.06.03 15:25:27.
