data_PCOD9466799
_publ_section_title
;
Structure prediction by ZEFSAII (Michael W. Deem and Ramdas Pophale) SiO2 
 PCOD9466799
Probable space group: P N M A
;
_chemical_formula_sum "Si O2"
_cell_formula_units_Z 56
_cell_length_a 14.304852
_cell_length_b 23.235816
_cell_length_c 9.085716
_cell_angle_alpha 90.000000
_cell_angle_beta 90.000000
_cell_angle_gamma 90.000000
_cell_volume 3019.954886
_symmetry_space_group_name_H-M "P N M A"
_symmetry_group_IT_number 62
_symmetry_cell_setting 'orthorhombic'
loop_
_space_group_symop_operation_xyz
x,y,z
1/2-x,-y,1/2+z
1/2+x,1/2-y,1/2-z
-x,1/2+y,-z
-x,-y,-z
1/2+x,y,1/2-z
1/2-x,1/2+y,1/2+z
x,1/2-y,z
loop_
_atom_site_type_symbol
_atom_site_label
_atom_site_fract_x
_atom_site_fract_y
_atom_site_fract_z
Si Si1 0.368507 0.382994 0.211415
Si Si2 0.538739 0.394230 0.412552
Si Si3 0.820219 0.509759 0.412738
Si Si4 0.483802 0.818180 0.998037
Si Si5 0.826300 0.818020 0.738087
Si Si6 0.132726 0.501905 0.252188
Si Si7 0.530506 0.408404 0.758421
O O1 0.432609 0.387367 0.357043
O O2 0.349952 0.445747 0.141297
O O3 0.433080 0.347086 0.097366
O O4 0.270192 0.352592 0.246316
O O5 0.602478 0.340757 0.362669
O O6 0.578438 0.449002 0.322760
O O7 0.547255 0.402815 0.585440
O O8 0.828042 0.515014 0.588037
O O9 0.715996 0.518851 0.355639
O O10 0.888300 0.555015 0.335826
O O11 0.497968 0.750000 0.006469
O O12 0.386180 0.828810 0.910710
O O13 0.479383 0.848826 0.155139
O O14 0.808984 0.750000 0.749994
O O15 0.062729 0.554174 0.277394
#
# Coordination Sequence:
#
# PCOD9466799 Si02
#       7
#     8   8   8   8   8   8   8
#     4  11  21  40  65  92 122 168 206 257 313 374
#     4  11  24  39  63  92 128 163 207 256 315 374
#     4  12  24  37  65  92 132 167 203 256 320 378
#     4  10  23  44  66  90 123 167 214 262 319 374
#     4  10  22  42  66  90 121 165 218 262 310 380
#     4  12  24  41  60  94 130 165 208 253 314 382
#     4  12  25  40  62  95 129 165 206 264 317 377
#
# _framework density 18.543323000000001
#
# number of rings (size 3 to 8) (size 9 to 14) (size 15 to 20)
#    0.000    0.857    4.286    3.857    2.000    1.143 
#    0.000    0.000    0.000    2.571    0.000    0.000 
#    0.000    0.000    0.000    0.000    0.000    0.000 
#
# Total GULP energy -313140.069279 kJ/mol
# GULP energy per Si atom -5591.786951 kJ/mol
# Density = 1.850112 g / cm^3
# Si number density = 18.543323 Si / 1000 Ang^3
#
#
#
# Elastic Constant Matrix: (Units=GPa)
#
#
# Indices 1 2 3 4 5 6 
#
# 1 137.0083 42.2084 72.4839 0.0000 0.0000 0.0000
# 2 42.2084 91.6172 51.6310 0.0000 0.0000 0.0000
# 3 72.4839 51.6310 192.1844 0.0000 0.0000 0.0000
# 4 0.0000 0.0000 0.0000 22.8730 0.0000 0.0000
# 5 0.0000 0.0000 0.0000 0.0000 16.2544 0.0000
# 6 0.0000 0.0000 0.0000 0.0000 0.0000 38.1566
#
#
#
# Elastic Compliance Matrix: (Units=1/GPa)
#
#
# Indices 1 2 3 4 5 6 
#
# 1 0.009707 -0.002839 -0.002898 0.000000 0.000000 0.000000
# 2 -0.002839 0.013692 -0.002608 0.000000 0.000000 0.000000
# 3 -0.002898 -0.002608 0.006997 0.000000 0.000000 0.000000
# 4 0.000000 0.000000 0.000000 0.043720 0.000000 0.000000
# 5 0.000000 0.000000 0.000000 0.000000 0.061522 0.000000
# 6 0.000000 0.000000 0.000000 0.000000 0.000000 0.026208
#
#
# Mechanical properties :
#
#
# Convention : Reuss Voigt Hill
#
# Bulk Modulus (GPa) = 72.95796 83.71739 78.33767
# Shear Modulus (GPa) = 27.30692 32.42259 29.86476
#
# Velocity S-wave (km/s) = 3.84161 4.18602 4.01751
# Velocity P-wave (km/s) = 7.68813 8.28303 7.99112
#
# Compressibility (1/GPa) = 0.01370652
#
# Stress axis : x y z
#
# Youngs Moduli (GPa) = 103.02198 73.03322 142.91620
#
# Poissons Ratio (x) = 0.20731 0.41422
# Poissons Ratio (y) = 0.29243 0.37272
# Poissons Ratio (z) = 0.29860 0.19047
#
# Static dielectric constant tensor:
#      x y z
#    x 1.628220 0.000000 0.000000 
#    y 0.000000 1.645460 0.000000 
#    z 0.000000 0.000000 1.621090 
# 
# From -- ./inp_files/6767.got.cif
#   From: 2010.05.17/outbox.cif.g08.bks.cpg/sg62_4_cif.got.tgz:6767.got - 2010.06.03 15:25:27.
