data_PCOD9466628
_publ_section_title
;
Structure prediction by ZEFSAII (Michael W. Deem and Ramdas Pophale) SiO2 
 PCOD9466628
Probable space group: P N M A
;
_chemical_formula_sum "Si O2"
_cell_formula_units_Z 48
_cell_length_a 17.201445
_cell_length_b 8.932345
_cell_length_c 17.126978
_cell_angle_alpha 90.000000
_cell_angle_beta 90.000000
_cell_angle_gamma 90.000000
_cell_volume 2631.547174
_symmetry_space_group_name_H-M "P N M A"
_symmetry_group_IT_number 62
_symmetry_cell_setting 'orthorhombic'
loop_
_space_group_symop_operation_xyz
x,y,z
1/2-x,-y,1/2+z
1/2+x,1/2-y,1/2-z
-x,1/2+y,-z
-x,-y,-z
1/2+x,y,1/2-z
1/2-x,1/2+y,1/2+z
x,1/2-y,z
loop_
_atom_site_type_symbol
_atom_site_label
_atom_site_fract_x
_atom_site_fract_y
_atom_site_fract_z
Si Si1 0.846541 0.570700 0.681483
Si Si2 0.321114 0.070774 0.653559
Si Si3 0.501099 0.928858 0.914512
Si Si4 0.856774 0.928259 0.322995
Si Si5 0.414783 0.070545 0.495834
Si Si6 0.817722 0.570951 0.144544
O O1 0.837646 0.750000 0.680446
O O2 0.852792 0.513334 0.770379
O O3 0.922867 0.529716 0.632536
O O4 0.769177 0.495341 0.646503
O O5 0.325467 0.250000 0.668188
O O6 0.229576 0.033991 0.645712
O O7 0.368292 0.036193 0.575613
O O8 0.503113 0.750000 0.921134
O O9 0.575765 0.985509 0.867023
O O10 0.500000 0.000000 0.000000
O O11 0.868293 0.750000 0.333346
O O12 0.853936 0.959775 0.230268
O O13 0.419761 0.250000 0.488658
O O14 0.500000 0.000000 0.500000
O O15 0.368084 0.003190 0.423043
O O16 0.814618 0.750000 0.134968
#
# Coordination Sequence:
#
# PCOD9466628 Si02
#       6
#     8   8   8   8   8   8
#     4  10  22  40  62  89 120 156 199 249 301 356
#     4   9  21  41  63  87 118 159 200 244 300 356
#     4  11  25  40  59  90 122 156 199 246 298 353
#     4   9  20  40  63  86 117 155 197 245 299 354
#     4  11  24  40  61  91 126 161 202 251 300 355
#     4  10  22  41  64  91 120 159 202 245 303 361
#
# _framework density 18.240220999999998
#
# number of rings (size 3 to 8) (size 9 to 14) (size 15 to 20)
#    0.000    2.000    0.000    3.000    4.667    7.333 
#    0.000    0.000    0.000    0.000    0.000    0.000 
#    0.000    0.000    0.000    0.000    0.000    0.000 
#
# Total GULP energy -268206.543188 kJ/mol
# GULP energy per Si atom -5587.636316 kJ/mol
# Density = 1.819871 g / cm^3
# Si number density = 18.240221 Si / 1000 Ang^3
#
#
#
# Elastic Constant Matrix: (Units=GPa)
#
#
# Indices 1 2 3 4 5 6 
#
# 1 168.8704 85.7718 141.4754 0.0000 0.0000 0.0000
# 2 85.7718 70.6265 86.8945 0.0000 0.0000 0.0000
# 3 141.4754 86.8945 154.9345 0.0000 0.0000 0.0000
# 4 0.0000 0.0000 0.0000 37.9191 0.0000 0.0000
# 5 0.0000 0.0000 0.0000 0.0000 25.9560 0.0000
# 6 0.0000 0.0000 0.0000 0.0000 0.0000 35.6670
#
#
#
# Elastic Compliance Matrix: (Units=1/GPa)
#
#
# Indices 1 2 3 4 5 6 
#
# 1 0.026456 -0.007765 -0.019802 0.000000 0.000000 0.000000
# 2 -0.007765 0.047958 -0.019806 0.000000 0.000000 0.000000
# 3 -0.019802 -0.019806 0.035645 0.000000 0.000000 0.000000
# 4 0.000000 0.000000 0.000000 0.026372 0.000000 0.000000
# 5 0.000000 0.000000 0.000000 0.000000 0.038527 0.000000
# 6 0.000000 0.000000 0.000000 0.000000 0.000000 0.028037
#
#
# Mechanical properties :
#
#
# Convention : Reuss Voigt Hill
#
# Bulk Modulus (GPa) = 65.31482 113.63499 89.47490
# Shear Modulus (GPa) = 16.51004 25.26107 20.88556
#
# Velocity S-wave (km/s) = 3.01183 3.72548 3.38750
# Velocity P-wave (km/s) = 6.92681 8.99666 8.02872
#
# Compressibility (1/GPa) = 0.01531046
#
# Stress axis : x y z
#
# Youngs Moduli (GPa) = 37.79875 20.85162 28.05460
#
# Poissons Ratio (x) = 0.16192 0.55555
# Poissons Ratio (y) = 0.29352 0.55565
# Poissons Ratio (z) = 0.74851 0.41299
#
# Static dielectric constant tensor:
#      x y z
#    x 1.600920 0.000000 0.000000 
#    y 0.000000 1.607010 0.000000 
#    z 0.000000 0.000000 1.599540 
# 
# From -- ./inp_files/19609.got.cif
#   From: 2010.05.17/outbox.cif.g08.bks.cpg/sg62_10_cif.got.tgz:19609.got - 2010.06.03 15:25:27.
