data_PCOD9466427
_publ_section_title
;
Structure prediction by ZEFSAII (Michael W. Deem and Ramdas Pophale) SiO2 
 PCOD9466427
Probable space group: P N M A
;
_chemical_formula_sum "Si O2"
_cell_formula_units_Z 40
_cell_length_a 9.238556
_cell_length_b 30.774424
_cell_length_c 4.981661
_cell_angle_alpha 90.000000
_cell_angle_beta 90.000000
_cell_angle_gamma 90.000000
_cell_volume 1416.342214
_symmetry_space_group_name_H-M "P N M A"
_symmetry_group_IT_number 62
_symmetry_cell_setting 'orthorhombic'
loop_
_space_group_symop_operation_xyz
x,y,z
1/2-x,-y,1/2+z
1/2+x,1/2-y,1/2-z
-x,1/2+y,-z
-x,-y,-z
1/2+x,y,1/2-z
1/2-x,1/2+y,1/2+z
x,1/2-y,z
loop_
_atom_site_type_symbol
_atom_site_label
_atom_site_fract_x
_atom_site_fract_y
_atom_site_fract_z
Si Si1 0.456991 0.250000 0.870479
Si Si2 0.044784 0.418476 0.924830
Si Si3 0.381939 0.750000 0.612428
Si Si4 0.040657 0.656011 0.403284
Si Si5 0.767482 0.471767 0.950058
Si Si6 0.215357 0.153257 0.272347
O O1 0.606852 0.250000 0.707772
O O2 0.477152 0.250000 0.190800
O O3 0.406860 0.297897 0.787543
O O4 0.150082 0.441813 0.707541
O O5 0.935641 0.385104 0.774779
O O6 0.921838 0.451042 0.033724
O O7 0.141884 0.388167 0.120614
O O8 0.320064 0.797255 0.678023
O O9 0.118238 0.650145 0.688939
O O10 0.867457 0.654921 0.445673
O O11 0.797144 0.508516 0.723410
#
# Coordination Sequence:
#
# PCOD9466427 Si02
#       6
#     4   8   4   8   8   8
#     4  10  21  44  68 107 153 202 242 294 357 419
#     4  12  26  45  78 108 144 194 244 309 370 450
#     4  10  21  44  68 107 153 202 242 294 357 419
#     4  11  25  44  72 109 153 199 251 301 360 437
#     4  12  30  52  76 107 146 187 242 310 390 456
#     4  11  25  44  72 109 153 199 251 301 360 437
#
# _framework density 28.241764
#
# number of rings (size 3 to 8) (size 9 to 14) (size 15 to 20)
#    0.000    0.800    4.000    1.800    8.400    0.000 
#    0.000    2.000    0.000    0.000    0.000    0.000 
#    0.000    0.000    0.000    0.000    0.000    0.000 
#
# Total GULP energy -223378.528251 kJ/mol
# GULP energy per Si atom -5584.463206 kJ/mol
# Density = 2.817748 g / cm^3
# Si number density = 28.241764 Si / 1000 Ang^3
#
#
#
# Elastic Constant Matrix: (Units=GPa)
#
#
# Indices 1 2 3 4 5 6 
#
# 1 99.3088 48.5705 -4.6388 0.0000 0.0000 0.0000
# 2 48.5705 156.4309 21.6577 0.0000 0.0000 0.0000
# 3 -4.6388 21.6577 71.3746 0.0000 0.0000 0.0000
# 4 0.0000 0.0000 0.0000 49.4965 0.0000 0.0000
# 5 0.0000 0.0000 0.0000 0.0000 34.3521 0.0000
# 6 0.0000 0.0000 0.0000 0.0000 0.0000 31.0259
#
#
#
# Elastic Compliance Matrix: (Units=1/GPa)
#
#
# Indices 1 2 3 4 5 6 
#
# 1 0.012145 -0.004050 0.002018 0.000000 0.000000 0.000000
# 2 -0.004050 0.008024 -0.002698 0.000000 0.000000 0.000000
# 3 0.002018 -0.002698 0.014960 0.000000 0.000000 0.000000
# 4 0.000000 0.000000 0.000000 0.020203 0.000000 0.000000
# 5 0.000000 0.000000 0.000000 0.000000 0.029110 0.000000
# 6 0.000000 0.000000 0.000000 0.000000 0.000000 0.032231
#
#
# Mechanical properties :
#
#
# Convention : Reuss Voigt Hill
#
# Bulk Modulus (GPa) = 38.95727 50.92145 44.93936
# Shear Modulus (GPa) = 37.12227 40.40989 38.76608
#
# Velocity S-wave (km/s) = 3.62946 3.78677 3.70895
# Velocity P-wave (km/s) = 5.60251 6.09829 5.85565
#
# Compressibility (1/GPa) = 0.02566915
#
# Stress axis : x y z
#
# Youngs Moduli (GPa) = 82.33955 124.63062 66.84310
#
# Poissons Ratio (x) = 0.50479 -0.13491
# Poissons Ratio (y) = 0.33350 0.18034
# Poissons Ratio (z) = -0.16619 0.33624
#
# Static dielectric constant tensor:
#      x y z
#    x 2.251060 0.000000 0.000000 
#    y 0.000000 2.245070 0.000000 
#    z 0.000000 0.000000 2.207820 
# 
# From -- ./inp_files/637.got.cif
#   From: 2010.05.17/outbox.cif.g08.bks.cpg/sg62_1_cif.got.tgz:637.got - 2010.06.03 15:25:27.
