data_PCOD9466899
_publ_section_title
;
Structure prediction by ZEFSAII (Michael W. Deem and Ramdas Pophale) SiO2 
 PCOD9466899
Probable space group: P N M A
;
_chemical_formula_sum "Si O2"
_cell_formula_units_Z 40
_cell_length_a 11.294000
_cell_length_b 18.611633
_cell_length_c 8.907340
_cell_angle_alpha 90.000000
_cell_angle_beta 90.000000
_cell_angle_gamma 90.000000
_cell_volume 1872.320936
_symmetry_space_group_name_H-M "P N M A"
_symmetry_group_IT_number 62
_symmetry_cell_setting 'orthorhombic'
loop_
_space_group_symop_operation_xyz
x,y,z
1/2-x,-y,1/2+z
1/2+x,1/2-y,1/2-z
-x,1/2+y,-z
-x,-y,-z
1/2+x,y,1/2-z
1/2-x,1/2+y,1/2+z
x,1/2-y,z
loop_
_atom_site_type_symbol
_atom_site_label
_atom_site_fract_x
_atom_site_fract_y
_atom_site_fract_z
Si Si1 0.111570 0.960513 0.074847
Si Si2 0.535965 0.166081 0.980686
Si Si3 0.229629 0.833927 0.574592
Si Si4 0.548550 0.165269 0.640244
Si Si5 0.694888 0.062471 0.170041
O O1 0.066792 0.879483 0.096504
O O2 0.142166 0.998239 0.231451
O O3 0.221648 0.964463 0.962915
O O4 0.000000 0.000000 0.000000
O O5 0.564642 0.250000 0.012901
O O6 0.394126 0.159183 0.988059
O O7 0.594038 0.112735 0.098961
O O8 0.579242 0.148227 0.812977
O O9 0.240518 0.750000 0.620518
O O10 0.341628 0.851139 0.468809
O O11 0.232471 0.886674 0.715743
O O12 0.524935 0.250000 0.632243
#
# Coordination Sequence:
#
# PCOD9466899 Si02
#       5
#     8   8   8   8   8
#     4  12  28  47  69 102 141 183 233 287 351 410
#     4  10  24  45  73 104 135 180 230 282 345 415
#     4  10  22  44  70 101 139 177 228 287 343 411
#     4  10  24  45  72 101 136 181 231 285 346 415
#     4  12  27  44  69 101 139 186 230 284 345 409
#
# _framework density 21.363855999999998
#
# number of rings (size 3 to 8) (size 9 to 14) (size 15 to 20)
#    0.000    1.200    2.000    1.800    8.400    2.400 
#    0.000    0.000    0.000    0.000    0.000    0.000 
#    0.000    0.000    0.000    0.000    0.000    0.000 
#
# Total GULP energy -223925.840563 kJ/mol
# GULP energy per Si atom -5598.146014 kJ/mol
# Density = 2.131523 g / cm^3
# Si number density = 21.363856 Si / 1000 Ang^3
#
#
#
# Elastic Constant Matrix: (Units=GPa)
#
#
# Indices 1 2 3 4 5 6 
#
# 1 76.1567 32.5777 31.5516 0.0000 0.0000 0.0000
# 2 32.5777 62.0483 44.3683 0.0000 0.0000 0.0000
# 3 31.5516 44.3683 94.9083 0.0000 0.0000 0.0000
# 4 0.0000 0.0000 0.0000 45.0184 0.0000 0.0000
# 5 0.0000 0.0000 0.0000 0.0000 37.3020 0.0000
# 6 0.0000 0.0000 0.0000 0.0000 0.0000 29.7714
#
#
#
# Elastic Compliance Matrix: (Units=1/GPa)
#
#
# Indices 1 2 3 4 5 6 
#
# 1 0.017249 -0.007445 -0.002254 0.000000 0.000000 0.000000
# 2 -0.007445 0.027422 -0.010345 0.000000 0.000000 0.000000
# 3 -0.002254 -0.010345 0.016122 0.000000 0.000000 0.000000
# 4 0.000000 0.000000 0.000000 0.022213 0.000000 0.000000
# 5 0.000000 0.000000 0.000000 0.000000 0.026808 0.000000
# 6 0.000000 0.000000 0.000000 0.000000 0.000000 0.033589
#
#
# Mechanical properties :
#
#
# Convention : Reuss Voigt Hill
#
# Bulk Modulus (GPa) = 48.29387 50.01204 49.15296
# Shear Modulus (GPa) = 26.26149 30.72610 28.49379
#
# Velocity S-wave (km/s) = 3.50987 3.79651 3.65600
# Velocity P-wave (km/s) = 6.25140 6.53288 6.39369
#
# Compressibility (1/GPa) = 0.02070656
#
# Stress axis : x y z
#
# Youngs Moduli (GPa) = 57.97327 36.46676 62.02792
#
# Poissons Ratio (x) = 0.27148 0.13982
# Poissons Ratio (y) = 0.43159 0.64165
# Poissons Ratio (z) = 0.13068 0.37723
#
# Static dielectric constant tensor:
#      x y z
#    x 1.723920 0.000000 0.000000 
#    y 0.000000 1.783320 0.000000 
#    z 0.000000 0.000000 1.752900 
# 
# From -- ./inp_files/5015.got.cif
#   From: 2010.05.17/outbox.cif.g08.bks.cpg/sg62_3_cif.got.tgz:5015.got - 2010.06.03 15:25:27.
