data_PCOD9466153
_publ_section_title
;
Structure prediction by ZEFSAII (Michael W. Deem and Ramdas Pophale) SiO2 
 PCOD9466153
Probable space group: P N M A
;
_chemical_formula_sum "Si O2"
_cell_formula_units_Z 64
_cell_length_a 15.718174
_cell_length_b 17.814545
_cell_length_c 11.362591
_cell_angle_alpha 90.000000
_cell_angle_beta 90.000000
_cell_angle_gamma 90.000000
_cell_volume 3181.663172
_symmetry_space_group_name_H-M "P N M A"
_symmetry_group_IT_number 62
_symmetry_cell_setting 'orthorhombic'
loop_
_space_group_symop_operation_xyz
x,y,z
1/2-x,-y,1/2+z
1/2+x,1/2-y,1/2-z
-x,1/2+y,-z
-x,-y,-z
1/2+x,y,1/2-z
1/2-x,1/2+y,1/2+z
x,1/2-y,z
loop_
_atom_site_type_symbol
_atom_site_label
_atom_site_fract_x
_atom_site_fract_y
_atom_site_fract_z
Si Si1 0.584684 0.011469 0.425208
Si Si2 0.164826 0.336138 0.059978
Si Si3 0.728231 0.568669 0.583475
Si Si4 0.538801 0.916532 0.980975
Si Si5 0.871130 0.662005 0.449501
Si Si6 0.299812 0.662400 0.285875
Si Si7 0.842584 0.160750 0.297156
Si Si8 0.348026 0.056206 0.799602
O O1 0.601967 0.098992 0.398446
O O2 0.500000 0.000000 0.500000
O O3 0.663662 0.978162 0.501451
O O4 0.586915 0.969868 0.300058
O O5 0.135453 0.250000 0.074869
O O6 0.177256 0.351656 0.920934
O O7 0.254756 0.343216 0.127149
O O8 0.794736 0.615860 0.506768
O O9 0.677992 0.624146 0.671055
O O10 0.787012 0.511955 0.659324
O O11 0.605160 0.909923 0.087736
O O12 0.459500 0.861668 0.994571
O O13 0.589199 0.892050 0.864046
O O14 0.500000 0.000000 0.000000
O O15 0.856333 0.750000 0.465909
O O16 0.871777 0.644395 0.309737
O O17 0.281489 0.750000 0.277242
O O18 0.216528 0.617411 0.250642
O O19 0.865776 0.250000 0.291853
#
# Coordination Sequence:
#
# PCOD9466153 Si02
#       8
#     8   8   8   8   8   8   8   8
#     4  12  27  43  66 100 135 176 217 278 333 394
#     4  10  21  42  67  95 128 173 224 267 329 398
#     4  12  24  43  72  94 132 175 225 270 331 406
#     4  12  26  40  67 104 133 170 217 283 331 393
#     4  11  25  44  66  97 134 175 220 273 337 400
#     4  10  21  39  66  93 125 170 218 269 321 388
#     4  11  24  44  70  97 132 176 225 275 335 400
#     4  12  24  42  68  98 130 172 225 270 331 399
#
# _framework density 20.115265000000001
#
# number of rings (size 3 to 8) (size 9 to 14) (size 15 to 20)
#    0.000    0.750    6.250    0.750    5.250    0.500 
#    0.000    1.875    0.000    0.000    0.000    0.000 
#    0.000    0.000    0.000    0.000    0.000    0.000 
#
# Total GULP energy -357590.726129 kJ/mol
# GULP energy per Si atom -5587.355096 kJ/mol
# Density = 2.006948 g / cm^3
# Si number density = 20.115265 Si / 1000 Ang^3
#
#
#
# Elastic Constant Matrix: (Units=GPa)
#
#
# Indices 1 2 3 4 5 6 
#
# 1 46.5350 8.9746 -11.0552 0.0000 0.0000 0.0000
# 2 8.9746 40.7639 13.1138 0.0000 0.0000 0.0000
# 3 -11.0552 13.1138 55.8308 0.0000 0.0000 0.0000
# 4 0.0000 0.0000 0.0000 18.2870 0.0000 0.0000
# 5 0.0000 0.0000 0.0000 0.0000 21.5136 0.0000
# 6 0.0000 0.0000 0.0000 0.0000 0.0000 19.1247
#
#
#
# Elastic Compliance Matrix: (Units=1/GPa)
#
#
# Indices 1 2 3 4 5 6 
#
# 1 0.024514 -0.007527 0.006622 0.000000 0.000000 0.000000
# 2 -0.007527 0.028848 -0.008267 0.000000 0.000000 0.000000
# 3 0.006622 -0.008267 0.021164 0.000000 0.000000 0.000000
# 4 0.000000 0.000000 0.000000 0.054684 0.000000 0.000000
# 5 0.000000 0.000000 0.000000 0.000000 0.046482 0.000000
# 6 0.000000 0.000000 0.000000 0.000000 0.000000 0.052288
#
#
# Mechanical properties :
#
#
# Convention : Reuss Voigt Hill
#
# Bulk Modulus (GPa) = 17.79898 18.35512 18.07705
# Shear Modulus (GPa) = 18.86422 20.59149 19.72785
#
# Velocity S-wave (km/s) = 3.06568 3.20296 3.13508
# Velocity P-wave (km/s) = 4.62590 4.77738 4.70225
#
# Compressibility (1/GPa) = 0.05618300
#
# Stress axis : x y z
#
# Youngs Moduli (GPa) = 40.79273 34.66434 47.24956
#
# Poissons Ratio (x) = 0.26093 -0.31290
# Poissons Ratio (y) = 0.30706 0.39059
# Poissons Ratio (z) = -0.27014 0.28655
#
# Static dielectric constant tensor:
#      x y z
#    x 1.609210 0.000000 0.000000 
#    y 0.000000 1.718200 0.000000 
#    z 0.000000 0.000000 1.745840 
# 
# From -- ./inp_files/13609.got.cif
#   From: 2010.05.17/outbox.cif.g08.bks.cpg/sg62_7_cif.got.tgz:13609.got - 2010.06.03 15:25:27.
