data_PCOD9466695
_publ_section_title
;
Structure prediction by ZEFSAII (Michael W. Deem and Ramdas Pophale) SiO2 
 PCOD9466695
Probable space group: P N M A
;
_chemical_formula_sum "Si O2"
_cell_formula_units_Z 44
_cell_length_a 8.419544
_cell_length_b 28.429138
_cell_length_c 8.755489
_cell_angle_alpha 90.000000
_cell_angle_beta 90.000000
_cell_angle_gamma 90.000000
_cell_volume 2095.717159
_symmetry_space_group_name_H-M "P N M A"
_symmetry_group_IT_number 62
_symmetry_cell_setting 'orthorhombic'
loop_
_space_group_symop_operation_xyz
x,y,z
1/2-x,-y,1/2+z
1/2+x,1/2-y,1/2-z
-x,1/2+y,-z
-x,-y,-z
1/2+x,y,1/2-z
1/2-x,1/2+y,1/2+z
x,1/2-y,z
loop_
_atom_site_type_symbol
_atom_site_label
_atom_site_fract_x
_atom_site_fract_y
_atom_site_fract_z
Si Si1 0.487252 0.678377 0.875618
Si Si2 0.654334 0.609519 0.078028
Si Si3 0.859170 0.942793 0.287244
Si Si4 0.393116 0.585202 0.691045
Si Si5 0.214970 0.750000 0.817013
Si Si6 0.688731 0.970559 0.583747
O O1 0.435464 0.632411 0.781075
O O2 0.329549 0.709224 0.894772
O O3 0.608674 0.709234 0.773960
O O4 0.572237 0.658433 0.028660
O O5 0.519351 0.572630 0.128929
O O6 0.778208 0.604286 0.217553
O O7 0.751863 0.594405 0.927996
O O8 0.749843 0.968234 0.412356
O O9 0.871257 0.979901 0.149119
O O10 0.334853 0.546967 0.812706
O O11 0.549864 0.567026 0.608097
#
# Coordination Sequence:
#
# PCOD9466695 Si02
#       6
#     8   8   8   8   4   8
#     4  11  21  42  71 112 132 171 222 300 359 421
#     4  12  25  45  66 102 144 186 235 286 355 415
#     4  12  27  44  65 101 147 202 239 292 333 413
#     4  12  22  41  70  99 142 184 238 299 340 417
#     4  10  22  40  76 110 132 158 226 300 360 436
#     4  12  24  41  65  98 143 196 251 283 338 396
#
# _framework density 20.995199
#
# number of rings (size 3 to 8) (size 9 to 14) (size 15 to 20)
#    0.000    0.364    5.455    3.273    0.000    4.364 
#    0.000    1.818    0.000    4.364    0.000    0.000 
#    0.000    0.000    0.000    0.000    0.000    0.000 
#
# Total GULP energy -244935.938742 kJ/mol
# GULP energy per Si atom -5566.725881 kJ/mol
# Density = 2.094741 g / cm^3
# Si number density = 20.995199 Si / 1000 Ang^3
#
#
#
# Elastic Constant Matrix: (Units=GPa)
#
#
# Indices 1 2 3 4 5 6 
#
# 1 54.5623 5.8164 10.3813 0.0000 0.0000 0.0000
# 2 5.8164 84.1221 -3.0617 0.0000 0.0000 0.0000
# 3 10.3813 -3.0617 61.9502 0.0000 0.0000 0.0000
# 4 0.0000 0.0000 0.0000 30.2834 0.0000 0.0000
# 5 0.0000 0.0000 0.0000 0.0000 34.7595 0.0000
# 6 0.0000 0.0000 0.0000 0.0000 0.0000 51.4880
#
#
#
# Elastic Compliance Matrix: (Units=1/GPa)
#
#
# Indices 1 2 3 4 5 6 
#
# 1 0.019104 -0.001440 -0.003273 0.000000 0.000000 0.000000
# 2 -0.001440 0.012017 0.000835 0.000000 0.000000 0.000000
# 3 -0.003273 0.000835 0.016732 0.000000 0.000000 0.000000
# 4 0.000000 0.000000 0.000000 0.033021 0.000000 0.000000
# 5 0.000000 0.000000 0.000000 0.000000 0.028769 0.000000
# 6 0.000000 0.000000 0.000000 0.000000 0.000000 0.019422
#
#
# Mechanical properties :
#
#
# Convention : Reuss Voigt Hill
#
# Bulk Modulus (GPa) = 24.93862 25.21184 25.07523
# Shear Modulus (GPa) = 33.29202 35.80608 34.54905
#
# Velocity S-wave (km/s) = 3.98640 4.13418 4.06096
# Velocity P-wave (km/s) = 5.75261 5.90110 5.82733
#
# Compressibility (1/GPa) = 0.04009844
#
# Stress axis : x y z
#
# Youngs Moduli (GPa) = 52.34552 83.21231 59.76689
#
# Poissons Ratio (x) = 0.11983 0.19559
# Poissons Ratio (y) = 0.07538 -0.04992
# Poissons Ratio (z) = 0.17130 -0.06950
#
# Static dielectric constant tensor:
#      x y z
#    x 1.812560 0.000000 0.000000 
#    y 0.000000 1.739700 0.000000 
#    z 0.000000 0.000000 1.753280 
# 
# From -- ./inp_files/4462.got.cif
#   From: 2010.05.17/outbox.cif.g08.bks.cpg/sg62_3_cif.got.tgz:4462.got - 2010.06.03 15:25:27.
