data_PCOD9466873
_publ_section_title
;
Structure prediction by ZEFSAII (Michael W. Deem and Ramdas Pophale) SiO2 
 PCOD9466873
Probable space group: P N M A
;
_chemical_formula_sum "Si O2"
_cell_formula_units_Z 44
_cell_length_a 14.842928
_cell_length_b 16.810395
_cell_length_c 7.833782
_cell_angle_alpha 90.000000
_cell_angle_beta 90.000000
_cell_angle_gamma 90.000000
_cell_volume 1954.649897
_symmetry_space_group_name_H-M "P N M A"
_symmetry_group_IT_number 62
_symmetry_cell_setting 'orthorhombic'
loop_
_space_group_symop_operation_xyz
x,y,z
1/2-x,-y,1/2+z
1/2+x,1/2-y,1/2-z
-x,1/2+y,-z
-x,-y,-z
1/2+x,y,1/2-z
1/2-x,1/2+y,1/2+z
x,1/2-y,z
loop_
_atom_site_type_symbol
_atom_site_label
_atom_site_fract_x
_atom_site_fract_y
_atom_site_fract_z
Si Si1 0.529178 0.088785 0.360719
Si Si2 0.778058 0.596839 0.265853
Si Si3 0.457294 0.910759 0.014081
Si Si4 0.049795 0.750000 0.538792
Si Si5 0.746153 0.250000 0.526139
Si Si6 0.653213 0.961736 0.549706
Si Si7 0.059315 0.250000 0.105893
O O1 0.422298 0.077682 0.329594
O O2 0.535832 0.166397 0.479622
O O3 0.586052 0.018652 0.442548
O O4 0.575979 0.103516 0.179445
O O5 0.875957 0.593273 0.353999
O O6 0.765275 0.672603 0.145763
O O7 0.704864 0.593293 0.416580
O O8 0.776691 0.516651 0.151356
O O9 0.520862 0.833866 0.049106
O O10 0.500000 0.000000 0.000000
O O11 0.156326 0.750000 0.556444
O O12 0.999436 0.750000 0.721665
O O13 0.667117 0.250000 0.386171
#
# Coordination Sequence:
#
# PCOD9466873 Si02
#       7
#     8   8   8   4   4   8   4
#     4  10  22  43  68  99 137 180 237 293 359 427
#     4  12  26  44  71 106 147 187 247 300 364 447
#     4  11  23  45  72 101 146 194 235 305 369 440
#     4  10  27  45  72 111 141 190 246 308 385 442
#     4  12  27  48  73 107 148 193 242 313 373 445
#     4  11  24  40  67 105 134 186 237 291 355 438
#     4  10  22  47  71 100 141 185 234 301 358 439
#
# _framework density 22.510427
#
# number of rings (size 3 to 8) (size 9 to 14) (size 15 to 20)
#    0.000    1.091    3.636    1.636    5.091    0.727 
#   16.364    0.000    0.000    0.000    0.000    0.000 
#    0.000    0.000    0.000    0.000    0.000    0.000 
#
# Total GULP energy -245417.860181 kJ/mol
# GULP energy per Si atom -5577.678640 kJ/mol
# Density = 2.245919 g / cm^3
# Si number density = 22.510427 Si / 1000 Ang^3
#
#
#
# Elastic Constant Matrix: (Units=GPa)
#
#
# Indices 1 2 3 4 5 6 
#
# 1 130.2984 47.9994 33.8368 0.0000 0.0000 0.0000
# 2 47.9994 111.3093 6.4469 0.0000 0.0000 0.0000
# 3 33.8368 6.4469 75.1134 0.0000 0.0000 0.0000
# 4 0.0000 0.0000 0.0000 1081.1260 0.0000 0.0000
# 5 0.0000 0.0000 0.0000 0.0000 41.2501 0.0000
# 6 0.0000 0.0000 0.0000 0.0000 0.0000 20.8719
#
#
#
# Elastic Compliance Matrix: (Units=1/GPa)
#
#
# Indices 1 2 3 4 5 6 
#
# 1 0.010342 -0.004211 -0.004297 0.000000 0.000000 0.000000
# 2 -0.004211 0.010743 0.000975 0.000000 0.000000 0.000000
# 3 -0.004297 0.000975 0.015165 0.000000 0.000000 0.000000
# 4 0.000000 0.000000 0.000000 0.000925 0.000000 0.000000
# 5 0.000000 0.000000 0.000000 0.000000 0.024242 0.000000
# 6 0.000000 0.000000 0.000000 0.000000 0.000000 0.047911
#
#
# Mechanical properties :
#
#
# Convention : Reuss Voigt Hill
#
# Bulk Modulus (GPa) = 47.20578 54.80968 51.00773
# Shear Modulus (GPa) = 38.03521 243.87880 140.95701
#
# Velocity S-wave (km/s) = 4.11502 10.41996 7.92177
# Velocity P-wave (km/s) = 6.60258 13.00649 10.31414
#
# Compressibility (1/GPa) = 0.02118385
#
# Stress axis : x y z
#
# Youngs Moduli (GPa) = 96.69488 93.08128 65.93961
#
# Poissons Ratio (x) = 0.39194 0.28336
# Poissons Ratio (y) = 0.40716 -0.06428
# Poissons Ratio (z) = 0.41553 -0.09073
#
# Static dielectric constant tensor:
#      x y z
#    x 1.817250 0.000000 0.000000 
#    y 0.000000 2.042430 0.000000 
#    z 0.000000 0.000000 1.874420 
# 
# From -- ./inp_files/6387.got.cif
#   From: 2010.05.17/outbox.cif.g08.bks.cpg/sg62_4_cif.got.tgz:6387.got - 2010.06.03 15:25:27.
