data_PCOD9466487
_publ_section_title
;
Structure prediction by ZEFSAII (Michael W. Deem and Ramdas Pophale) SiO2 
 PCOD9466487
Probable space group: P N M A
;
_chemical_formula_sum "Si O2"
_cell_formula_units_Z 36
_cell_length_a 7.227684
_cell_length_b 9.251777
_cell_length_c 21.110612
_cell_angle_alpha 90.000000
_cell_angle_beta 90.000000
_cell_angle_gamma 90.000000
_cell_volume 1411.643838
_symmetry_space_group_name_H-M "P N M A"
_symmetry_group_IT_number 62
_symmetry_cell_setting 'orthorhombic'
loop_
_space_group_symop_operation_xyz
x,y,z
1/2-x,-y,1/2+z
1/2+x,1/2-y,1/2-z
-x,1/2+y,-z
-x,-y,-z
1/2+x,y,1/2-z
1/2-x,1/2+y,1/2+z
x,1/2-y,z
loop_
_atom_site_type_symbol
_atom_site_label
_atom_site_fract_x
_atom_site_fract_y
_atom_site_fract_z
Si Si1 0.735468 0.991953 0.397428
Si Si2 0.265503 0.250000 0.441321
Si Si3 0.859909 0.750000 0.992961
Si Si4 0.993575 0.750000 0.453219
Si Si5 0.511014 0.414144 0.207048
Si Si6 0.635823 0.998250 0.657190
O O1 0.891279 0.886732 0.424251
O O2 0.686067 0.108428 0.451227
O O3 0.541705 0.922524 0.373332
O O4 0.833962 0.068520 0.337896
O O5 0.418413 0.250000 0.497577
O O6 0.065184 0.250000 0.472478
O O7 0.305662 0.388131 0.398441
O O8 0.715043 0.750000 0.050628
O O9 0.584072 0.250000 0.198609
O O10 0.453340 0.430334 0.279474
O O11 0.662127 0.535278 0.185973
#
# Coordination Sequence:
#
# PCOD9466487 Si02
#       6
#     8   4   4   4   8   8
#     4  11  25  42  66 101 132 174 223 265 328 397
#     4  10  22  37  63  98 129 168 220 269 328 376
#     4  10  22  41  68  93 125 168 229 267 313 375
#     4  12  26  46  63  93 144 184 213 264 329 403
#     4  12  20  36  68 101 131 159 216 286 339 375
#     4  11  22  36  65 101 128 165 215 283 329 382
#
# _framework density 25.502184
#
# number of rings (size 3 to 8) (size 9 to 14) (size 15 to 20)
#    0.000    0.889    5.556    2.000    0.000    5.333 
#    0.000    1.111    0.000    0.000    0.000    0.000 
#    0.000    0.000    0.000    0.000    0.000    0.000 
#
# Total GULP energy -201172.507919 kJ/mol
# GULP energy per Si atom -5588.125220 kJ/mol
# Density = 2.544414 g / cm^3
# Si number density = 25.502184 Si / 1000 Ang^3
#
#
#
# Elastic Constant Matrix: (Units=GPa)
#
#
# Indices 1 2 3 4 5 6 
#
# 1 148.3052 -5.5739 16.8295 0.0000 0.0000 0.0000
# 2 -5.5739 51.0815 8.3894 0.0000 0.0000 0.0000
# 3 16.8295 8.3894 90.1575 0.0000 0.0000 0.0000
# 4 0.0000 0.0000 0.0000 69.8362 0.0000 0.0000
# 5 0.0000 0.0000 0.0000 0.0000 65.3146 0.0000
# 6 0.0000 0.0000 0.0000 0.0000 0.0000 7.5059
#
#
#
# Elastic Compliance Matrix: (Units=1/GPa)
#
#
# Indices 1 2 3 4 5 6 
#
# 1 0.006937 0.000985 -0.001387 0.000000 0.000000 0.000000
# 2 0.000985 0.020020 -0.002047 0.000000 0.000000 0.000000
# 3 -0.001387 -0.002047 0.011541 0.000000 0.000000 0.000000
# 4 0.000000 0.000000 0.000000 0.014319 0.000000 0.000000
# 5 0.000000 0.000000 0.000000 0.000000 0.015311 0.000000
# 6 0.000000 0.000000 0.000000 0.000000 0.000000 0.133228
#
#
# Mechanical properties :
#
#
# Convention : Reuss Voigt Hill
#
# Bulk Modulus (GPa) = 29.76092 36.53712 33.14902
# Shear Modulus (GPa) = 22.99344 46.52464 34.75904
#
# Velocity S-wave (km/s) = 3.00597 4.27586 3.69586
# Velocity P-wave (km/s) = 4.87269 6.22378 5.58921
#
# Compressibility (1/GPa) = 0.03360111
#
# Stress axis : x y z
#
# Youngs Moduli (GPa) = 144.15025 49.94968 86.64770
#
# Poissons Ratio (x) = -0.04919 0.12014
# Poissons Ratio (y) = -0.14194 0.17735
# Poissons Ratio (z) = 0.19988 0.10223
#
# Static dielectric constant tensor:
#      x y z
#    x 2.028240 0.000000 0.000000 
#    y 0.000000 2.152540 0.000000 
#    z 0.000000 0.000000 1.980680 
# 
# From -- ./inp_files/25649.got.cif
#   From: 2010.05.17/outbox.cif.g08.bks.cpg/sg62_13_cif.got.tgz:25649.got - 2010.06.03 15:25:27.
