data_PCOD9466283
_publ_section_title
;
Structure prediction by ZEFSAII (Michael W. Deem and Ramdas Pophale) SiO2 
 PCOD9466283
Probable space group: P N M A
;
_chemical_formula_sum "Si O2"
_cell_formula_units_Z 40
_cell_length_a 11.436137
_cell_length_b 18.809585
_cell_length_c 7.631067
_cell_angle_alpha 90.000000
_cell_angle_beta 90.000000
_cell_angle_gamma 90.000000
_cell_volume 1641.511122
_symmetry_space_group_name_H-M "P N M A"
_symmetry_group_IT_number 62
_symmetry_cell_setting 'orthorhombic'
loop_
_space_group_symop_operation_xyz
x,y,z
1/2-x,-y,1/2+z
1/2+x,1/2-y,1/2-z
-x,1/2+y,-z
-x,-y,-z
1/2+x,y,1/2-z
1/2-x,1/2+y,1/2+z
x,1/2-y,z
loop_
_atom_site_type_symbol
_atom_site_label
_atom_site_fract_x
_atom_site_fract_y
_atom_site_fract_z
Si Si1 0.985177 0.166061 0.611461
Si Si2 0.539233 0.328949 0.508278
Si Si3 0.617934 0.472910 0.407488
Si Si4 0.677356 0.068236 0.051502
Si Si5 0.341662 0.330910 0.218553
O O1 0.011844 0.250000 0.578592
O O2 0.960860 0.159005 0.818020
O O3 0.095591 0.116706 0.567882
O O4 0.883140 0.148020 0.475285
O O5 0.590585 0.250000 0.528773
O O6 0.627741 0.393131 0.484812
O O7 0.459919 0.330451 0.335716
O O8 0.500000 0.500000 0.500000
O O9 0.732716 0.517933 0.450929
O O10 0.601222 0.472973 0.197669
O O11 0.756344 0.118590 0.175164
O O12 0.296675 0.250000 0.218114
#
# Coordination Sequence:
#
# PCOD9466283 Si02
#       5
#     8   8   8   8   8
#     4  10  21  40  66  97 131 173 224 278 334 396
#     4  10  21  42  66  89 128 169 212 277 331 385
#     4  12  25  43  65  98 137 176 225 278 334 399
#     4  12  23  41  65  95 134 183 221 276 335 405
#     4  10  21  41  67  96 129 170 222 277 333 395
#
# _framework density 24.367792000000001
#
# number of rings (size 3 to 8) (size 9 to 14) (size 15 to 20)
#    0.000    1.200    4.000    1.800    0.000    2.400 
#    3.600    4.000    0.000    0.000    0.000    0.000 
#    0.000    0.000    0.000    0.000    0.000    0.000 
#
# Total GULP energy -223969.705678 kJ/mol
# GULP energy per Si atom -5599.242642 kJ/mol
# Density = 2.431233 g / cm^3
# Si number density = 24.367792 Si / 1000 Ang^3
#
#
#
# Elastic Constant Matrix: (Units=GPa)
#
#
# Indices 1 2 3 4 5 6 
#
# 1 60.0499 24.5360 3.6044 0.0000 0.0000 0.0000
# 2 24.5360 80.1488 2.6785 0.0000 0.0000 0.0000
# 3 3.6044 2.6785 109.4090 0.0000 0.0000 0.0000
# 4 0.0000 0.0000 0.0000 28.2161 0.0000 0.0000
# 5 0.0000 0.0000 0.0000 0.0000 34.5850 0.0000
# 6 0.0000 0.0000 0.0000 0.0000 0.0000 14.0709
#
#
#
# Elastic Compliance Matrix: (Units=1/GPa)
#
#
# Indices 1 2 3 4 5 6 
#
# 1 0.019059 -0.005818 -0.000485 0.000000 0.000000 0.000000
# 2 -0.005818 0.014263 -0.000158 0.000000 0.000000 0.000000
# 3 -0.000485 -0.000158 0.009160 0.000000 0.000000 0.000000
# 4 0.000000 0.000000 0.000000 0.035441 0.000000 0.000000
# 5 0.000000 0.000000 0.000000 0.000000 0.028914 0.000000
# 6 0.000000 0.000000 0.000000 0.000000 0.000000 0.071069
#
#
# Mechanical properties :
#
#
# Convention : Reuss Voigt Hill
#
# Bulk Modulus (GPa) = 33.82987 34.58286 34.20636
# Shear Modulus (GPa) = 24.91501 29.96032 27.43767
#
# Velocity S-wave (km/s) = 3.20106 3.51023 3.35920
# Velocity P-wave (km/s) = 5.25124 5.53641 5.39571
#
# Compressibility (1/GPa) = 0.02955967
#
# Stress axis : x y z
#
# Youngs Moduli (GPa) = 52.46777 70.11022 109.17194
#
# Poissons Ratio (x) = 0.40793 0.05300
# Poissons Ratio (y) = 0.30528 0.01720
# Poissons Ratio (z) = 0.02547 0.01104
#
# Static dielectric constant tensor:
#      x y z
#    x 1.956170 0.000000 0.000000 
#    y 0.000000 2.024350 0.000000 
#    z 0.000000 0.000000 1.935100 
# 
# From -- ./inp_files/5188.got.cif
#   From: 2010.05.17/outbox.cif.g08.bks.cpg/sg62_3_cif.got.tgz:5188.got - 2010.06.03 15:25:27.
