data_PCOD9466263
_publ_section_title
;
Structure prediction by ZEFSAII (Michael W. Deem and Ramdas Pophale) SiO2 
 PCOD9466263
Probable space group: P N M A
;
_chemical_formula_sum "Si O2"
_cell_formula_units_Z 48
_cell_length_a 9.701017
_cell_length_b 20.632489
_cell_length_c 9.288998
_cell_angle_alpha 90.000000
_cell_angle_beta 90.000000
_cell_angle_gamma 90.000000
_cell_volume 1859.249859
_symmetry_space_group_name_H-M "P N M A"
_symmetry_group_IT_number 62
_symmetry_cell_setting 'orthorhombic'
loop_
_space_group_symop_operation_xyz
x,y,z
1/2-x,-y,1/2+z
1/2+x,1/2-y,1/2-z
-x,1/2+y,-z
-x,-y,-z
1/2+x,y,1/2-z
1/2-x,1/2+y,1/2+z
x,1/2-y,z
loop_
_atom_site_type_symbol
_atom_site_label
_atom_site_fract_x
_atom_site_fract_y
_atom_site_fract_z
Si Si1 0.028773 0.126908 0.591067
Si Si2 0.107356 0.035693 0.105965
Si Si3 0.014693 0.250000 0.403512
Si Si4 0.157588 0.016023 0.425018
Si Si5 0.210881 0.672845 0.220878
Si Si6 0.881764 0.132049 0.091531
Si Si7 0.238557 0.750000 0.727781
O O1 0.064582 0.185617 0.483296
O O2 0.044568 0.058626 0.512664
O O3 0.145966 0.134208 0.711906
O O4 0.883235 0.143989 0.655843
O O5 0.114583 0.000291 0.261101
O O6 0.034409 0.105300 0.126516
O O7 0.255376 0.031970 0.028280
O O8 0.000000 0.000000 0.000000
O O9 0.099275 0.250000 0.253060
O O10 0.848899 0.250000 0.417112
O O11 0.274961 0.072356 0.395803
O O12 0.232501 0.750000 0.234106
O O13 0.131774 0.658456 0.070613
O O14 0.827758 0.187108 0.196835
#
# Coordination Sequence:
#
# PCOD9466263 Si02
#       7
#     8   8   4   8   8   8   4
#     4  11  22  41  66  95 141 178 234 295 350 425
#     4  10  23  44  69  97 135 178 236 290 351 415
#     4  12  22  41  61  93 137 182 227 298 356 432
#     4  10  22  43  70  93 135 182 231 294 351 411
#     4  11  19  39  66  97 138 183 225 281 357 422
#     4  10  21  40  65  95 137 178 222 287 347 420
#     4  12  22  41  69  95 139 180 227 286 368 422
#
# _framework density 25.816865
#
# number of rings (size 3 to 8) (size 9 to 14) (size 15 to 20)
#    0.000    1.333    5.833    1.000    2.333    0.000 
#    3.000    6.667    0.000    0.000    0.000    0.000 
#    0.000    0.000    0.000    0.000    0.000    0.000 
#
# Total GULP energy -268752.071711 kJ/mol
# GULP energy per Si atom -5599.001494 kJ/mol
# Density = 2.575810 g / cm^3
# Si number density = 25.816865 Si / 1000 Ang^3
#
#
#
# Elastic Constant Matrix: (Units=GPa)
#
#
# Indices 1 2 3 4 5 6 
#
# 1 73.7097 -26.1287 25.5186 0.0000 0.0000 0.0000
# 2 -26.1287 92.1785 4.6852 0.0000 0.0000 0.0000
# 3 25.5186 4.6852 112.1293 0.0000 0.0000 0.0000
# 4 0.0000 0.0000 0.0000 31.9928 0.0000 0.0000
# 5 0.0000 0.0000 0.0000 0.0000 56.6391 0.0000
# 6 0.0000 0.0000 0.0000 0.0000 0.0000 19.9954
#
#
#
# Elastic Compliance Matrix: (Units=1/GPa)
#
#
# Indices 1 2 3 4 5 6 
#
# 1 0.016705 0.004939 -0.004008 0.000000 0.000000 0.000000
# 2 0.004939 0.012332 -0.001639 0.000000 0.000000 0.000000
# 3 -0.004008 -0.001639 0.009899 0.000000 0.000000 0.000000
# 4 0.000000 0.000000 0.000000 0.031257 0.000000 0.000000
# 5 0.000000 0.000000 0.000000 0.000000 0.017656 0.000000
# 6 0.000000 0.000000 0.000000 0.000000 0.000000 0.050012
#
#
# Mechanical properties :
#
#
# Convention : Reuss Voigt Hill
#
# Bulk Modulus (GPa) = 26.65326 31.79641 29.22484
# Shear Modulus (GPa) = 32.94166 39.98827 36.46496
#
# Velocity S-wave (km/s) = 3.57595 3.93990 3.76233
# Velocity P-wave (km/s) = 5.23415 5.74804 5.49710
#
# Compressibility (1/GPa) = 0.03751886
#
# Stress axis : x y z
#
# Youngs Moduli (GPa) = 59.86184 81.09114 101.02076
#
# Poissons Ratio (x) = -0.40050 0.40491
# Poissons Ratio (y) = -0.29565 0.16560
# Poissons Ratio (z) = 0.23994 0.13293
#
# Static dielectric constant tensor:
#      x y z
#    x 2.107430 0.000000 0.000000 
#    y 0.000000 2.072660 0.000000 
#    z 0.000000 0.000000 2.015160 
# 
# From -- ./inp_files/5353.got.cif
#   From: 2010.05.17/outbox.cif.g08.bks.cpg/sg62_3_cif.got.tgz:5353.got - 2010.06.03 15:25:27.
