data_PCOD9466673
_publ_section_title
;
Structure prediction by ZEFSAII (Michael W. Deem and Ramdas Pophale) SiO2 
 PCOD9466673
Probable space group: P N M A
;
_chemical_formula_sum "Si O2"
_cell_formula_units_Z 40
_cell_length_a 10.283973
_cell_length_b 10.977216
_cell_length_c 16.605947
_cell_angle_alpha 90.000000
_cell_angle_beta 90.000000
_cell_angle_gamma 90.000000
_cell_volume 1874.635276
_symmetry_space_group_name_H-M "P N M A"
_symmetry_group_IT_number 62
_symmetry_cell_setting 'orthorhombic'
loop_
_space_group_symop_operation_xyz
x,y,z
1/2-x,-y,1/2+z
1/2+x,1/2-y,1/2-z
-x,1/2+y,-z
-x,-y,-z
1/2+x,y,1/2-z
1/2-x,1/2+y,1/2+z
x,1/2-y,z
loop_
_atom_site_type_symbol
_atom_site_label
_atom_site_fract_x
_atom_site_fract_y
_atom_site_fract_z
Si Si1 0.696409 0.990527 0.318557
Si Si2 0.739874 0.250000 0.399978
Si Si3 0.193022 0.616630 0.349038
Si Si4 0.435359 0.250000 0.446698
Si Si5 0.534714 0.750000 0.033088
Si Si6 0.563301 0.005628 0.588413
Si Si7 0.760195 0.750000 0.412806
O O1 0.696610 0.978623 0.222551
O O2 0.766527 0.874244 0.360528
O O3 0.742420 0.122439 0.350444
O O4 0.547634 0.973295 0.346965
O O5 0.593502 0.250000 0.439953
O O6 0.863586 0.250000 0.459915
O O7 0.199774 0.750000 0.308608
O O8 0.074064 0.633611 0.410484
O O9 0.319812 0.597367 0.403045
O O10 0.384827 0.369246 0.402313
O O11 0.374275 0.250000 0.536161
O O12 0.380621 0.750000 0.024443
O O13 0.500000 0.000000 0.500000
#
# Coordination Sequence:
#
# PCOD9466673 Si02
#       7
#     8   4   8   4   4   8   4
#     4  11  24  40  68  99 133 178 222 296 337 414
#     4  10  24  48  68  93 139 183 229 277 359 399
#     4  10  24  39  66  94 138 176 225 279 349 405
#     4  10  22  40  66 101 119 175 232 282 316 409
#     4  10  25  41  62 103 137 180 216 293 343 418
#     4  11  22  40  69  97 131 180 239 281 332 414
#     4  12  23  37  68  99 131 162 237 268 348 390
#
# _framework density 21.337484
#
# number of rings (size 3 to 8) (size 9 to 14) (size 15 to 20)
#    0.600    0.800    3.000    2.400    5.600    1.600 
#    0.000    0.000    0.000    0.000    0.000    0.000 
#    0.000    0.000    0.000    0.000    0.000    0.000 
#
# Total GULP energy -222942.560674 kJ/mol
# GULP energy per Si atom -5573.564017 kJ/mol
# Density = 2.128892 g / cm^3
# Si number density = 21.337484 Si / 1000 Ang^3
#
#
#
# Elastic Constant Matrix: (Units=GPa)
#
#
# Indices 1 2 3 4 5 6 
#
# 1 37.4774 10.6566 14.9015 0.0000 0.0000 0.0000
# 2 10.6566 110.5007 13.6240 0.0000 0.0000 0.0000
# 3 14.9015 13.6240 71.7283 0.0000 0.0000 0.0000
# 4 0.0000 0.0000 0.0000 31.8051 0.0000 0.0000
# 5 0.0000 0.0000 0.0000 0.0000 17.2322 0.0000
# 6 0.0000 0.0000 0.0000 0.0000 0.0000 19.3968
#
#
#
# Elastic Compliance Matrix: (Units=1/GPa)
#
#
# Indices 1 2 3 4 5 6 
#
# 1 0.029574 -0.002145 -0.005737 0.000000 0.000000 0.000000
# 2 -0.002145 0.009422 -0.001344 0.000000 0.000000 0.000000
# 3 -0.005737 -0.001344 0.015389 0.000000 0.000000 0.000000
# 4 0.000000 0.000000 0.000000 0.031442 0.000000 0.000000
# 5 0.000000 0.000000 0.000000 0.000000 0.058031 0.000000
# 6 0.000000 0.000000 0.000000 0.000000 0.000000 0.051555
#
#
# Mechanical properties :
#
#
# Convention : Reuss Voigt Hill
#
# Bulk Modulus (GPa) = 27.82908 33.11897 30.47403
# Shear Modulus (GPa) = 22.13953 25.72176 23.93064
#
# Velocity S-wave (km/s) = 3.22466 3.47576 3.35256
# Velocity P-wave (km/s) = 5.18991 5.62699 5.41287
#
# Compressibility (1/GPa) = 0.03593363
#
# Stress axis : x y z
#
# Youngs Moduli (GPa) = 33.81398 106.13148 64.98337
#
# Poissons Ratio (x) = 0.22763 0.37278
# Poissons Ratio (y) = 0.07252 0.08734
# Poissons Ratio (z) = 0.19397 0.14265
#
# Static dielectric constant tensor:
#      x y z
#    x 1.763660 0.000000 0.000000 
#    y 0.000000 1.834040 0.000000 
#    z 0.000000 0.000000 1.820970 
# 
# From -- ./inp_files/17845.got.cif
#   From: 2010.05.17/outbox.cif.g08.bks.cpg/sg62_9_cif.got.tgz:17845.got - 2010.06.03 15:25:27.
