data_PCOD9466857
_publ_section_title
;
Structure prediction by ZEFSAII (Michael W. Deem and Ramdas Pophale) SiO2 
 PCOD9466857
Probable space group: P N M A
;
_chemical_formula_sum "Si O2"
_cell_formula_units_Z 64
_cell_length_a 15.317262
_cell_length_b 9.055142
_cell_length_c 23.834208
_cell_angle_alpha 90.000000
_cell_angle_beta 90.000000
_cell_angle_gamma 90.000000
_cell_volume 3305.804232
_symmetry_space_group_name_H-M "P N M A"
_symmetry_group_IT_number 62
_symmetry_cell_setting 'orthorhombic'
loop_
_space_group_symop_operation_xyz
x,y,z
1/2-x,-y,1/2+z
1/2+x,1/2-y,1/2-z
-x,1/2+y,-z
-x,-y,-z
1/2+x,y,1/2-z
1/2-x,1/2+y,1/2+z
x,1/2-y,z
loop_
_atom_site_type_symbol
_atom_site_label
_atom_site_fract_x
_atom_site_fract_y
_atom_site_fract_z
Si Si1 0.164620 0.420263 0.129747
Si Si2 0.077811 0.575577 0.033040
Si Si3 0.243999 0.075437 0.462703
Si Si4 0.846518 0.921578 0.370004
Si Si5 0.403253 0.920851 0.756178
Si Si6 0.910418 0.577242 0.242930
Si Si7 0.239122 0.928279 0.831183
Si Si8 0.584119 0.574718 0.973400
O O1 0.180383 0.250000 0.113147
O O2 0.090173 0.491957 0.091772
O O3 0.249698 0.518442 0.120390
O O4 0.140858 0.422830 0.194962
O O5 0.063709 0.750000 0.041143
O O6 0.166089 0.556231 0.996657
O O7 0.000000 0.500000 0.000000
O O8 0.220863 0.250000 0.465078
O O9 0.256283 0.035907 0.397213
O O10 0.168585 0.982907 0.492721
O O11 0.853085 0.750000 0.386261
O O12 0.868065 0.935822 0.304682
O O13 0.907603 0.018511 0.409577
O O14 0.423917 0.750000 0.770583
O O15 0.329291 0.975064 0.799936
O O16 0.493140 0.009233 0.749811
O O17 0.916865 0.750000 0.228276
O O18 0.845356 0.497417 0.199335
O O19 0.233400 0.750000 0.825428
O O20 0.578910 0.750000 0.975613
O O21 0.500000 0.500000 0.000000
#
# Coordination Sequence:
#
# PCOD9466857 Si02
#       8
#     8   8   8   8   8   8   8   8
#     4  11  22  40  66  94 122 161 213 263 314 372
#     4  11  24  41  63  92 130 168 209 262 315 375
#     4  10  23  43  65  92 128 168 211 260 316 371
#     4  11  23  42  65  93 128 164 207 261 318 374
#     4  10  23  41  64  92 124 165 211 257 309 374
#     4  11  25  41  63  95 129 165 206 259 315 370
#     4  10  22  43  66  91 125 167 211 256 308 373
#     4  12  26  43  67  95 127 167 212 261 313 376
#
# _framework density 19.359888999999999
#
# number of rings (size 3 to 8) (size 9 to 14) (size 15 to 20)
#    0.000    1.250    2.500    2.625    3.500    4.000 
#    0.000    0.000    0.000    0.000    0.000    0.000 
#    0.000    0.000    0.000    0.000    0.000    0.000 
#
# Total GULP energy -357762.205584 kJ/mol
# GULP energy per Si atom -5590.034462 kJ/mol
# Density = 1.931582 g / cm^3
# Si number density = 19.359889 Si / 1000 Ang^3
#
#
#
# Elastic Constant Matrix: (Units=GPa)
#
#
# Indices 1 2 3 4 5 6 
#
# 1 60.9586 38.3614 -4.1546 0.0000 0.0000 0.0000
# 2 38.3614 103.4461 36.5065 0.0000 0.0000 0.0000
# 3 -4.1546 36.5065 69.3099 0.0000 0.0000 0.0000
# 4 0.0000 0.0000 0.0000 30.7270 0.0000 0.0000
# 5 0.0000 0.0000 0.0000 0.0000 28.0155 0.0000
# 6 0.0000 0.0000 0.0000 0.0000 0.0000 28.0161
#
#
#
# Elastic Compliance Matrix: (Units=1/GPa)
#
#
# Indices 1 2 3 4 5 6 
#
# 1 0.024281 -0.011691 0.007613 0.000000 0.000000 0.000000
# 2 -0.011691 0.017503 -0.009920 0.000000 0.000000 0.000000
# 3 0.007613 -0.009920 0.020109 0.000000 0.000000 0.000000
# 4 0.000000 0.000000 0.000000 0.032545 0.000000 0.000000
# 5 0.000000 0.000000 0.000000 0.000000 0.035694 0.000000
# 6 0.000000 0.000000 0.000000 0.000000 0.000000 0.035694
#
#
# Mechanical properties :
#
#
# Convention : Reuss Voigt Hill
#
# Bulk Modulus (GPa) = 29.50047 41.68235 35.59141
# Shear Modulus (GPa) = 24.37599 28.21847 26.29723
#
# Velocity S-wave (km/s) = 3.55223 3.82196 3.68956
# Velocity P-wave (km/s) = 5.66528 6.40730 6.04768
#
# Compressibility (1/GPa) = 0.03389777
#
# Stress axis : x y z
#
# Youngs Moduli (GPa) = 41.18529 57.13318 49.72841
#
# Poissons Ratio (x) = 0.66793 -0.37859
# Poissons Ratio (y) = 0.48149 0.49330
# Poissons Ratio (z) = -0.31355 0.56675
#
# Static dielectric constant tensor:
#      x y z
#    x 1.605610 0.000000 0.000000 
#    y 0.000000 1.655490 0.000000 
#    z 0.000000 0.000000 1.665430 
# 
# From -- ./inp_files/29897.got.cif
#   From: 2010.05.17/outbox.cif.g08.bks.cpg/sg62_15_cif.got.tgz:29897.got - 2010.06.03 15:25:27.
