data_PCOD9466931
_publ_section_title
;
Structure prediction by ZEFSAII (Michael W. Deem and Ramdas Pophale) SiO2 
 PCOD9466931
Probable space group: P N M A
;
_chemical_formula_sum "Si O2"
_cell_formula_units_Z 28
_cell_length_a 12.269656
_cell_length_b 7.444123
_cell_length_c 11.146670
_cell_angle_alpha 90.000000
_cell_angle_beta 90.000000
_cell_angle_gamma 90.000000
_cell_volume 1018.101485
_symmetry_space_group_name_H-M "P N M A"
_symmetry_group_IT_number 62
_symmetry_cell_setting 'orthorhombic'
loop_
_space_group_symop_operation_xyz
x,y,z
1/2-x,-y,1/2+z
1/2+x,1/2-y,1/2-z
-x,1/2+y,-z
-x,-y,-z
1/2+x,y,1/2-z
1/2-x,1/2+y,1/2+z
x,1/2-y,z
loop_
_atom_site_type_symbol
_atom_site_label
_atom_site_fract_x
_atom_site_fract_y
_atom_site_fract_z
Si Si1 0.674886 0.250000 0.256360
Si Si2 0.012994 0.548563 0.145965
Si Si3 0.719750 0.033493 0.571219
Si Si4 0.410135 0.035962 0.102425
O O1 0.603046 0.402572 0.327013
O O2 0.734525 0.408372 0.176222
O O3 0.052441 0.750000 0.126253
O O4 0.909220 0.500728 0.061719
O O5 0.948426 0.553688 0.276443
O O6 0.734687 0.250000 0.590608
O O7 0.795573 0.986926 0.457101
O O8 0.405397 0.250000 0.126934
O O9 0.500000 0.000000 0.000000
#
# Coordination Sequence:
#
# PCOD9466931 Si02
#       4
#     4   8   8   8
#     4  12  20  36  60  82 116 148 190 228 286 334
#     4  11  22  36  56  89 115 146 187 238 284 331
#     4  10  23  37  55  87 117 148 186 235 285 334
#     4  11  19  34  57  85 110 143 186 232 280 335
#
# _framework density 27.502172000000002
#
# number of rings (size 3 to 8) (size 9 to 14) (size 15 to 20)
#    0.000    1.143    4.286    2.571    2.000    0.000 
#    0.000    0.000    0.000    1.714    0.000    0.000 
#    0.000    0.000    0.000    0.000    0.000    0.000 
#
# Total GULP energy -156205.632454 kJ/mol
# GULP energy per Si atom -5578.772588 kJ/mol
# Density = 2.743958 g / cm^3
# Si number density = 27.502172 Si / 1000 Ang^3
#
#
#
# Elastic Constant Matrix: (Units=GPa)
#
#
# Indices 1 2 3 4 5 6 
#
# 1 171.9155 57.7510 38.4952 0.0000 0.0000 0.0000
# 2 57.7510 202.7626 50.5822 0.0000 0.0000 0.0000
# 3 38.4952 50.5822 39.0786 0.0000 0.0000 0.0000
# 4 0.0000 0.0000 0.0000 54.2037 0.0000 0.0000
# 5 0.0000 0.0000 0.0000 0.0000 25.3469 0.0000
# 6 0.0000 0.0000 0.0000 0.0000 0.0000 37.4614
#
#
#
# Elastic Compliance Matrix: (Units=1/GPa)
#
#
# Indices 1 2 3 4 5 6 
#
# 1 0.007489 -0.000432 -0.006817 0.000000 0.000000 0.000000
# 2 -0.000432 0.007309 -0.009034 0.000000 0.000000 0.000000
# 3 -0.006817 -0.009034 0.043999 0.000000 0.000000 0.000000
# 4 0.000000 0.000000 0.000000 0.018449 0.000000 0.000000
# 5 0.000000 0.000000 0.000000 0.000000 0.039453 0.000000
# 6 0.000000 0.000000 0.000000 0.000000 0.000000 0.026694
#
#
# Mechanical properties :
#
#
# Convention : Reuss Voigt Hill
#
# Bulk Modulus (GPa) = 38.12685 78.60149 58.36417
# Shear Modulus (GPa) = 27.07056 41.19761 34.13409
#
# Velocity S-wave (km/s) = 3.14077 3.87457 3.52681
# Velocity P-wave (km/s) = 5.20057 6.97557 6.15241
#
# Compressibility (1/GPa) = 0.02622823
#
# Stress axis : x y z
#
# Youngs Moduli (GPa) = 133.53770 136.82196 22.72785
#
# Poissons Ratio (x) = 0.05914 0.15494
# Poissons Ratio (y) = 0.05772 0.20533
# Poissons Ratio (z) = 0.91036 1.23612
#
# Static dielectric constant tensor:
#      x y z
#    x 1.986380 0.000000 0.000000 
#    y 0.000000 1.867560 0.000000 
#    z 0.000000 0.000000 2.363930 
# 
# From -- ./inp_files/12703.got.cif
#   From: 2010.05.17/outbox.cif.g08.bks.cpg/sg62_7_cif.got.tgz:12703.got - 2010.06.03 15:25:27.
