data_PCOD9466608
_publ_section_title
;
Structure prediction by ZEFSAII (Michael W. Deem and Ramdas Pophale) SiO2 
 PCOD9466608
Probable space group: P N M A
;
_chemical_formula_sum "Si O2"
_cell_formula_units_Z 64
_cell_length_a 11.577032
_cell_length_b 18.276833
_cell_length_c 14.373705
_cell_angle_alpha 90.000000
_cell_angle_beta 90.000000
_cell_angle_gamma 90.000000
_cell_volume 3041.353521
_symmetry_space_group_name_H-M "P N M A"
_symmetry_group_IT_number 62
_symmetry_cell_setting 'orthorhombic'
loop_
_space_group_symop_operation_xyz
x,y,z
1/2-x,-y,1/2+z
1/2+x,1/2-y,1/2-z
-x,1/2+y,-z
-x,-y,-z
1/2+x,y,1/2-z
1/2-x,1/2+y,1/2+z
x,1/2-y,z
loop_
_atom_site_type_symbol
_atom_site_label
_atom_site_fract_x
_atom_site_fract_y
_atom_site_fract_z
Si Si1 0.192761 0.832524 0.883935
Si Si2 0.953444 0.475297 0.095559
Si Si3 0.340227 0.544953 0.138119
Si Si4 0.067834 0.336969 0.500256
Si Si5 0.545683 0.047065 0.223377
Si Si6 0.735981 0.941323 0.166616
Si Si7 0.677962 0.904268 0.970693
Si Si8 0.319015 0.833093 0.695505
O O1 0.152074 0.750000 0.903629
O O2 0.102081 0.894869 0.909055
O O3 0.314888 0.841489 0.938546
O O4 0.219318 0.839028 0.774005
O O5 0.855990 0.529742 0.129368
O O6 0.053773 0.481687 0.170928
O O7 0.000000 0.500000 0.000000
O O8 0.426859 0.486073 0.186885
O O9 0.259429 0.574058 0.223169
O O10 0.303195 0.491094 0.052829
O O11 0.403655 0.614109 0.091502
O O12 0.046330 0.250000 0.516175
O O13 0.953891 0.374824 0.454741
O O14 0.574371 0.130153 0.248302
O O15 0.645392 0.008164 0.166142
O O16 0.696201 0.889331 0.081535
O O17 0.767384 0.866432 0.899398
O O18 0.348197 0.750000 0.677841
#
# Coordination Sequence:
#
# PCOD9466608 Si02
#       8
#     8   8   8   8   8   8   8   8
#     4  10  22  40  60  90 135 171 207 262 333 402
#     4  11  23  38  62  91 125 165 216 264 315 384
#     4  11  23  39  69  91 128 175 221 269 331 396
#     4  11  24  41  65  98 129 171 224 276 334 395
#     4  11  21  40  60  94 127 172 213 264 326 387
#     4  11  23  40  62  95 126 161 222 268 319 387
#     4  12  22  39  68  97 128 170 220 275 327 394
#     4  11  22  39  64  99 138 169 210 274 338 394
#
# _framework density 21.043263
#
# number of rings (size 3 to 8) (size 9 to 14) (size 15 to 20)
#    0.000    1.000    3.750    3.750    1.750    0.500 
#    0.000    4.375    0.000    3.000    0.000    0.000 
#    0.000    0.000    0.000    0.000    0.000    0.000 
#
# Total GULP energy -356537.514291 kJ/mol
# GULP energy per Si atom -5570.898661 kJ/mol
# Density = 2.099537 g / cm^3
# Si number density = 21.043263 Si / 1000 Ang^3
#
#
#
# Elastic Constant Matrix: (Units=GPa)
#
#
# Indices 1 2 3 4 5 6 
#
# 1 49.7077 13.3001 24.0887 0.0000 0.0000 0.0000
# 2 13.3001 91.8663 37.0764 0.0000 0.0000 0.0000
# 3 24.0887 37.0764 117.9127 0.0000 0.0000 0.0000
# 4 0.0000 0.0000 0.0000 27.2949 0.0000 0.0000
# 5 0.0000 0.0000 0.0000 0.0000 28.2832 0.0000
# 6 0.0000 0.0000 0.0000 0.0000 0.0000 13.6196
#
#
#
# Elastic Compliance Matrix: (Units=1/GPa)
#
#
# Indices 1 2 3 4 5 6 
#
# 1 0.022534 -0.001609 -0.004098 0.000000 0.000000 0.000000
# 2 -0.001609 0.012582 -0.003628 0.000000 0.000000 0.000000
# 3 -0.004098 -0.003628 0.010459 0.000000 0.000000 0.000000
# 4 0.000000 0.000000 0.000000 0.036637 0.000000 0.000000
# 5 0.000000 0.000000 0.000000 0.000000 0.035357 0.000000
# 6 0.000000 0.000000 0.000000 0.000000 0.000000 0.073424
#
#
# Mechanical properties :
#
#
# Convention : Reuss Voigt Hill
#
# Bulk Modulus (GPa) = 37.16534 45.37967 41.27251
# Shear Modulus (GPa) = 22.86977 26.17429 24.52203
#
# Velocity S-wave (km/s) = 3.30024 3.53063 3.41737
# Velocity P-wave (km/s) = 5.67643 6.18322 5.93523
#
# Compressibility (1/GPa) = 0.02690679
#
# Stress axis : x y z
#
# Youngs Moduli (GPa) = 44.37776 79.47607 95.61421
#
# Poissons Ratio (x) = 0.12784 0.39180
# Poissons Ratio (y) = 0.07139 0.34687
# Poissons Ratio (z) = 0.18185 0.28832
#
# Static dielectric constant tensor:
#      x y z
#    x 1.876460 0.000000 0.000000 
#    y 0.000000 1.758050 0.000000 
#    z 0.000000 0.000000 1.824190 
# 
# From -- ./inp_files/18280.got.cif
#   From: 2010.05.17/outbox.cif.g08.bks.cpg/sg62_10_cif.got.tgz:18280.got - 2010.06.03 15:25:27.
