data_PCOD9466219
_publ_section_title
;
Structure prediction by ZEFSAII (Michael W. Deem and Ramdas Pophale) SiO2 
 PCOD9466219
Probable space group: P N M A
;
_chemical_formula_sum "Si O2"
_cell_formula_units_Z 56
_cell_length_a 14.122359
_cell_length_b 8.344816
_cell_length_c 19.485178
_cell_angle_alpha 90.000000
_cell_angle_beta 90.000000
_cell_angle_gamma 90.000000
_cell_volume 2296.298753
_symmetry_space_group_name_H-M "P N M A"
_symmetry_group_IT_number 62
_symmetry_cell_setting 'orthorhombic'
loop_
_space_group_symop_operation_xyz
x,y,z
1/2-x,-y,1/2+z
1/2+x,1/2-y,1/2-z
-x,1/2+y,-z
-x,-y,-z
1/2+x,y,1/2-z
1/2-x,1/2+y,1/2+z
x,1/2-y,z
loop_
_atom_site_type_symbol
_atom_site_label
_atom_site_fract_x
_atom_site_fract_y
_atom_site_fract_z
Si Si1 0.099451 0.935912 0.419889
Si Si2 0.544194 0.939926 0.570788
Si Si3 0.440775 0.563269 0.285194
Si Si4 0.076256 0.568263 0.643967
Si Si5 0.725421 0.439493 0.204937
Si Si6 0.232322 0.941870 0.001963
Si Si7 0.218523 0.563921 0.149945
O O1 0.075390 0.750000 0.420546
O O2 0.003169 0.034967 0.412352
O O3 0.161059 0.978512 0.352229
O O4 0.168877 0.979188 0.482203
O O5 0.531478 0.750000 0.577477
O O6 0.655917 0.972368 0.557138
O O7 0.500000 0.000000 0.500000
O O8 0.513746 0.022850 0.641352
O O9 0.452748 0.750000 0.270023
O O10 0.470765 0.461576 0.218883
O O11 0.329720 0.518226 0.293917
O O12 0.111215 0.750000 0.640339
O O13 0.166724 0.452688 0.642864
O O14 0.732818 0.250000 0.190690
O O15 0.689160 0.468382 0.282607
O O16 0.245162 0.750000 0.006833
O O17 0.189343 0.996605 0.074743
O O18 0.193059 0.750000 0.159158
#
# Coordination Sequence:
#
# PCOD9466219 Si02
#       7
#     8   8   8   8   8   8   8
#     4  12  24  39  63  92 123 162 211 259 309 373
#     4  11  23  40  62  90 126 166 209 258 315 373
#     4  11  21  38  62  89 119 156 203 254 309 367
#     4  11  23  40  62  90 123 162 205 257 314 368
#     4  11  21  37  61  88 120 161 206 254 310 371
#     4  10  23  42  64  89 124 166 207 256 313 373
#     4  10  21  40  63  90 124 163 209 259 312 368
#
# _framework density 24.387069
#
# number of rings (size 3 to 8) (size 9 to 14) (size 15 to 20)
#    0.000    1.143    1.429    7.714    0.000    3.429 
#    0.000    4.286    0.000    0.000    0.000    0.000 
#    0.000    0.000    0.000    0.000    0.000    0.000 
#
# Total GULP energy -313661.255276 kJ/mol
# GULP energy per Si atom -5601.093844 kJ/mol
# Density = 2.433156 g / cm^3
# Si number density = 24.387069 Si / 1000 Ang^3
#
#
#
# Elastic Constant Matrix: (Units=GPa)
#
#
# Indices 1 2 3 4 5 6 
#
# 1 54.4075 -2.4906 1.4081 0.0000 0.0000 0.0000
# 2 -2.4906 63.9398 5.7749 0.0000 0.0000 0.0000
# 3 1.4081 5.7749 99.8597 0.0000 0.0000 0.0000
# 4 0.0000 0.0000 0.0000 36.6432 0.0000 0.0000
# 5 0.0000 0.0000 0.0000 0.0000 46.6636 0.0000
# 6 0.0000 0.0000 0.0000 0.0000 0.0000 16.2574
#
#
#
# Elastic Compliance Matrix: (Units=1/GPa)
#
#
# Indices 1 2 3 4 5 6 
#
# 1 0.018422 0.000745 -0.000303 0.000000 0.000000 0.000000
# 2 0.000745 0.015752 -0.000921 0.000000 0.000000 0.000000
# 3 -0.000303 -0.000921 0.010072 0.000000 0.000000 0.000000
# 4 0.000000 0.000000 0.000000 0.027290 0.000000 0.000000
# 5 0.000000 0.000000 0.000000 0.000000 0.021430 0.000000
# 6 0.000000 0.000000 0.000000 0.000000 0.000000 0.061510
#
#
# Mechanical properties :
#
#
# Convention : Reuss Voigt Hill
#
# Bulk Modulus (GPa) = 23.10184 25.28799 24.19491
# Shear Modulus (GPa) = 29.43541 34.14715 31.79128
#
# Velocity S-wave (km/s) = 3.47797 3.74600 3.61447
# Velocity P-wave (km/s) = 5.06181 5.39463 5.23087
#
# Compressibility (1/GPa) = 0.04328659
#
# Stress axis : x y z
#
# Youngs Moduli (GPa) = 54.28360 63.48417 99.28906
#
# Poissons Ratio (x) = -0.04729 0.03007
# Poissons Ratio (y) = -0.04044 0.09149
# Poissons Ratio (z) = 0.01644 0.05850
#
# Static dielectric constant tensor:
#      x y z
#    x 2.038810 0.000000 0.000000 
#    y 0.000000 1.811560 0.000000 
#    z 0.000000 0.000000 1.997260 
# 
# From -- ./inp_files/27072.got.cif
#   From: 2010.05.17/outbox.cif.g08.bks.cpg/sg62_14_cif.got.tgz:27072.got - 2010.06.03 15:25:27.
