data_PCOD9466606
_publ_section_title
;
Structure prediction by ZEFSAII (Michael W. Deem and Ramdas Pophale) SiO2 
 PCOD9466606
Probable space group: P N M A
;
_chemical_formula_sum "Si O2"
_cell_formula_units_Z 48
_cell_length_a 31.568474
_cell_length_b 8.795765
_cell_length_c 9.120011
_cell_angle_alpha 90.000000
_cell_angle_beta 90.000000
_cell_angle_gamma 90.000000
_cell_volume 2532.343228
_symmetry_space_group_name_H-M "P N M A"
_symmetry_group_IT_number 62
_symmetry_cell_setting 'orthorhombic'
loop_
_space_group_symop_operation_xyz
x,y,z
1/2-x,-y,1/2+z
1/2+x,1/2-y,1/2-z
-x,1/2+y,-z
-x,-y,-z
1/2+x,y,1/2-z
1/2-x,1/2+y,1/2+z
x,1/2-y,z
loop_
_atom_site_type_symbol
_atom_site_label
_atom_site_fract_x
_atom_site_fract_y
_atom_site_fract_z
Si Si1 0.873864 0.068247 0.083571
Si Si2 0.539736 0.932536 0.412611
Si Si3 0.710252 0.433438 0.079800
Si Si4 0.539853 0.067247 0.086913
Si Si5 0.375247 0.932995 0.091877
Si Si6 0.792394 0.932322 0.921819
O O1 0.869689 0.250000 0.084496
O O2 0.875973 0.008271 0.249185
O O3 0.917019 0.028372 0.998111
O O4 0.833718 0.997263 0.001427
O O5 0.536118 0.750000 0.405665
O O6 0.500000 0.000000 0.500000
O O7 0.540898 0.000366 0.249907
O O8 0.714112 0.250000 0.072973
O O9 0.708169 0.477220 0.250604
O O10 0.667072 0.476737 0.996503
O O11 0.750564 0.506414 0.001480
O O12 0.536612 0.250000 0.093503
O O13 0.582993 0.027423 0.000853
O O14 0.500000 0.000000 0.000000
O O15 0.374740 0.750000 0.109657
O O16 0.793253 0.750000 0.929640
#
# Coordination Sequence:
#
# PCOD9466606 Si02
#       6
#     8   8   8   8   8   8
#     4  11  24  40  60  88 120 154 196 245 294 349
#     4  11  24  41  62  89 121 159 202 249 301 355
#     4  10  22  40  60  86 118 152 195 243 291 347
#     4  11  23  40  63  91 123 159 200 246 297 356
#     4  10  22  40  62  87 118 157 198 242 294 352
#     4  11  23  39  61  87 117 155 195 239 294 353
#
# _framework density 18.954775999999999
#
# number of rings (size 3 to 8) (size 9 to 14) (size 15 to 20)
#    0.000    1.333    0.000    5.000    0.000   12.667 
#    0.000    0.000    0.000    0.000    0.000    0.000 
#    0.000    0.000    0.000    0.000    0.000    0.000 
#
# Total GULP energy -268556.505552 kJ/mol
# GULP energy per Si atom -5594.927199 kJ/mol
# Density = 1.891163 g / cm^3
# Si number density = 18.954776 Si / 1000 Ang^3
#
#
#
# Elastic Constant Matrix: (Units=GPa)
#
#
# Indices 1 2 3 4 5 6 
#
# 1 234.7942 81.2945 146.3762 0.0000 0.0000 0.0000
# 2 81.2945 49.7736 76.7430 0.0000 0.0000 0.0000
# 3 146.3762 76.7430 240.9707 0.0000 0.0000 0.0000
# 4 0.0000 0.0000 0.0000 38.9286 0.0000 0.0000
# 5 0.0000 0.0000 0.0000 0.0000 43.2391 0.0000
# 6 0.0000 0.0000 0.0000 0.0000 0.0000 33.1945
#
#
#
# Elastic Compliance Matrix: (Units=1/GPa)
#
#
# Indices 1 2 3 4 5 6 
#
# 1 0.010162 -0.013910 -0.001743 0.000000 0.000000 0.000000
# 2 -0.013910 0.058515 -0.010186 0.000000 0.000000 0.000000
# 3 -0.001743 -0.010186 0.008452 0.000000 0.000000 0.000000
# 4 0.000000 0.000000 0.000000 0.025688 0.000000 0.000000
# 5 0.000000 0.000000 0.000000 0.000000 0.023127 0.000000
# 6 0.000000 0.000000 0.000000 0.000000 0.000000 0.030125
#
#
# Mechanical properties :
#
#
# Convention : Reuss Voigt Hill
#
# Bulk Modulus (GPa) = 39.28977 126.04067 82.66522
# Shear Modulus (GPa) = 23.12341 37.81411 30.46876
#
# Velocity S-wave (km/s) = 3.49653 4.47135 4.01364
# Velocity P-wave (km/s) = 6.08885 9.65904 8.07376
#
# Compressibility (1/GPa) = 0.02545192
#
# Stress axis : x y z
#
# Youngs Moduli (GPa) = 98.41006 17.08959 118.30866
#
# Poissons Ratio (x) = 0.23771 0.20617
# Poissons Ratio (y) = 1.36887 1.20511
# Poissons Ratio (z) = 0.17149 0.17408
#
# Static dielectric constant tensor:
#      x y z
#    x 1.622370 0.000000 0.000000 
#    y 0.000000 1.639050 0.000000 
#    z 0.000000 0.000000 1.616150 
# 
# From -- ./inp_files/10197.got.cif
#   From: 2010.05.17/outbox.cif.g08.bks.cpg/sg62_6_cif.got.tgz:10197.got - 2010.06.03 15:25:27.
