data_PCOD9466187
_publ_section_title
;
Structure prediction by ZEFSAII (Michael W. Deem and Ramdas Pophale) SiO2 
 PCOD9466187
Probable space group: P N M A
;
_chemical_formula_sum "Si O2"
_cell_formula_units_Z 48
_cell_length_a 12.882317
_cell_length_b 28.150700
_cell_length_c 5.469919
_cell_angle_alpha 90.000000
_cell_angle_beta 90.000000
_cell_angle_gamma 90.000000
_cell_volume 1983.645565
_symmetry_space_group_name_H-M "P N M A"
_symmetry_group_IT_number 62
_symmetry_cell_setting 'orthorhombic'
loop_
_space_group_symop_operation_xyz
x,y,z
1/2-x,-y,1/2+z
1/2+x,1/2-y,1/2-z
-x,1/2+y,-z
-x,-y,-z
1/2+x,y,1/2-z
1/2-x,1/2+y,1/2+z
x,1/2-y,z
loop_
_atom_site_type_symbol
_atom_site_label
_atom_site_fract_x
_atom_site_fract_y
_atom_site_fract_z
Si Si1 0.271741 0.441704 0.651595
Si Si2 0.646107 0.461306 0.347076
Si Si3 0.177003 0.305736 0.302892
Si Si4 0.682899 0.646267 0.062581
Si Si5 0.505769 0.124983 0.244122
Si Si6 0.598302 0.698881 0.433956
O O1 0.361989 0.481573 0.668399
O O2 0.217979 0.447598 0.388160
O O3 0.303205 0.388232 0.707666
O O4 0.197451 0.451866 0.887379
O O5 0.550736 0.425887 0.315012
O O6 0.147010 0.250000 0.276458
O O7 0.089099 0.341899 0.403229
O O8 0.286484 0.303757 0.447572
O O9 0.213421 0.334318 0.058794
O O10 0.619704 0.692161 0.149017
O O11 0.604250 0.618482 0.888630
O O12 0.477479 0.158797 0.469714
O O13 0.554134 0.750000 0.491015
#
# Coordination Sequence:
#
# PCOD9466187 Si02
#       6
#     8   8   8   8   8   8
#     4  10  22  42  69  96 132 175 220 270 330 393
#     4  10  22  42  68  97 131 176 219 269 330 397
#     4  10  21  40  62  85 124 171 217 268 330 396
#     4  11  23  38  63  91 129 171 217 278 329 395
#     4  11  23  38  63  93 128 168 220 272 332 396
#     4  10  23  40  60  92 128 167 215 273 330 391
#
# _framework density 24.197873000000001
#
# number of rings (size 3 to 8) (size 9 to 14) (size 15 to 20)
#    0.000    1.667    1.667    2.000    4.667    4.000 
#    0.000    2.500    0.000    0.000    0.000    0.000 
#    0.000    0.000    0.000    0.000    0.000    0.000 
#
# Total GULP energy -267834.943933 kJ/mol
# GULP energy per Si atom -5579.894665 kJ/mol
# Density = 2.414280 g / cm^3
# Si number density = 24.197873 Si / 1000 Ang^3
#
#
#
# Elastic Constant Matrix: (Units=GPa)
#
#
# Indices 1 2 3 4 5 6 
#
# 1 58.5081 7.3538 18.7569 0.0000 0.0000 0.0000
# 2 7.3538 115.3670 13.4112 0.0000 0.0000 0.0000
# 3 18.7569 13.4112 66.5395 0.0000 0.0000 0.0000
# 4 0.0000 0.0000 0.0000 25.9110 0.0000 0.0000
# 5 0.0000 0.0000 0.0000 0.0000 17.4928 0.0000
# 6 0.0000 0.0000 0.0000 0.0000 0.0000 36.1403
#
#
#
# Elastic Compliance Matrix: (Units=1/GPa)
#
#
# Indices 1 2 3 4 5 6 
#
# 1 0.018830 -0.000597 -0.005188 0.000000 0.000000 0.000000
# 2 -0.000597 0.008895 -0.001624 0.000000 0.000000 0.000000
# 3 -0.005188 -0.001624 0.016818 0.000000 0.000000 0.000000
# 4 0.000000 0.000000 0.000000 0.038594 0.000000 0.000000
# 5 0.000000 0.000000 0.000000 0.000000 0.057166 0.000000
# 6 0.000000 0.000000 0.000000 0.000000 0.000000 0.027670
#
#
# Mechanical properties :
#
#
# Convention : Reuss Voigt Hill
#
# Bulk Modulus (GPa) = 33.64214 35.49538 34.56876
# Shear Modulus (GPa) = 25.94712 29.30167 27.62440
#
# Velocity S-wave (km/s) = 3.27814 3.48360 3.38243
# Velocity P-wave (km/s) = 5.31614 5.55709 5.43795
#
# Compressibility (1/GPa) = 0.02972462
#
# Stress axis : x y z
#
# Youngs Moduli (GPa) = 53.10736 112.42400 59.45871
#
# Poissons Ratio (x) = 0.06714 0.30845
# Poissons Ratio (y) = 0.03172 0.09659
# Poissons Ratio (z) = 0.27550 0.18263
#
# Static dielectric constant tensor:
#      x y z
#    x 1.964000 0.000000 0.000000 
#    y 0.000000 1.983100 0.000000 
#    z 0.000000 0.000000 1.998040 
# 
# From -- ./inp_files/1136.got.cif
#   From: 2010.05.17/outbox.cif.g08.bks.cpg/sg62_1_cif.got.tgz:1136.got - 2010.06.03 15:25:27.
