data_PCOD9466864
_publ_section_title
;
Structure prediction by ZEFSAII (Michael W. Deem and Ramdas Pophale) SiO2 
 PCOD9466864
Probable space group: P N M A
;
_chemical_formula_sum "Si O2"
_cell_formula_units_Z 64
_cell_length_a 11.946843
_cell_length_b 9.064963
_cell_length_c 30.676089
_cell_angle_alpha 90.000000
_cell_angle_beta 90.000000
_cell_angle_gamma 90.000000
_cell_volume 3322.149570
_symmetry_space_group_name_H-M "P N M A"
_symmetry_group_IT_number 62
_symmetry_cell_setting 'orthorhombic'
loop_
_space_group_symop_operation_xyz
x,y,z
1/2-x,-y,1/2+z
1/2+x,1/2-y,1/2-z
-x,1/2+y,-z
-x,-y,-z
1/2+x,y,1/2-z
1/2-x,1/2+y,1/2+z
x,1/2-y,z
loop_
_atom_site_type_symbol
_atom_site_label
_atom_site_fract_x
_atom_site_fract_y
_atom_site_fract_z
Si Si1 0.484148 0.421562 0.300148
Si Si2 0.982795 0.922472 0.046319
Si Si3 0.240079 0.421074 0.170390
Si Si4 0.434878 0.426279 0.039696
Si Si5 0.670575 0.927679 0.617970
Si Si6 0.764796 0.422507 0.921082
Si Si7 0.931441 0.926756 0.629445
Si Si8 0.559705 0.074717 0.789779
O O1 0.459783 0.250000 0.288705
O O2 0.609311 0.427660 0.318977
O O3 0.397614 0.467127 0.338024
O O4 0.480116 0.519520 0.257189
O O5 0.956526 0.750000 0.040368
O O6 0.103726 0.934176 0.069515
O O7 0.890025 0.997930 0.076834
O O8 0.000000 0.000000 0.000000
O O9 0.274897 0.250000 0.169291
O O10 0.259292 0.495630 0.123949
O O11 0.315897 0.509283 0.204106
O O12 0.428859 0.250000 0.034739
O O13 0.312005 0.497302 0.043409
O O14 0.500345 0.458371 0.085045
O O15 0.500000 0.500000 0.000000
O O16 0.662524 0.750000 0.612986
O O17 0.801075 0.966763 0.622757
O O18 0.735017 0.250000 0.918662
O O19 0.936716 0.750000 0.636871
O O20 0.985792 0.007044 0.670916
O O21 0.559569 0.250000 0.792804
#
# Coordination Sequence:
#
# PCOD9466864 Si02
#       8
#     8   8   8   8   8   8   8   8
#     4  10  23  42  66  93 123 165 211 257 311 374
#     4  11  25  42  64  94 129 166 207 257 311 372
#     4  11  22  41  68  93 122 162 211 260 311 373
#     4  11  24  41  64  93 128 168 210 260 314 374
#     4  10  22  43  67  92 124 163 210 260 312 370
#     4  11  23  41  65  93 126 162 207 263 315 366
#     4  10  23  43  65  90 125 168 212 257 310 371
#     4  12  26  41  63  94 130 167 207 258 313 371
#
# _framework density 19.264634999999998
#
# number of rings (size 3 to 8) (size 9 to 14) (size 15 to 20)
#    0.000    1.250    2.500    2.625    3.500    4.000 
#    0.000    0.000    0.000    0.000    0.000    0.000 
#    0.000    0.000    0.000    0.000    0.000    0.000 
#
# Total GULP energy -357825.053510 kJ/mol
# GULP energy per Si atom -5591.016461 kJ/mol
# Density = 1.922079 g / cm^3
# Si number density = 19.264635 Si / 1000 Ang^3
#
#
#
# Elastic Constant Matrix: (Units=GPa)
#
#
# Indices 1 2 3 4 5 6 
#
# 1 83.9025 37.2066 16.4802 0.0000 0.0000 0.0000
# 2 37.2066 93.9664 52.9323 0.0000 0.0000 0.0000
# 3 16.4802 52.9323 85.8972 0.0000 0.0000 0.0000
# 4 0.0000 0.0000 0.0000 35.4520 0.0000 0.0000
# 5 0.0000 0.0000 0.0000 0.0000 22.5899 0.0000
# 6 0.0000 0.0000 0.0000 0.0000 0.0000 28.2252
#
#
#
# Elastic Compliance Matrix: (Units=1/GPa)
#
#
# Indices 1 2 3 4 5 6 
#
# 1 0.014532 -0.006408 0.001161 0.000000 0.000000 0.000000
# 2 -0.006408 0.019126 -0.010557 0.000000 0.000000 0.000000
# 3 0.001161 -0.010557 0.017924 0.000000 0.000000 0.000000
# 4 0.000000 0.000000 0.000000 0.028207 0.000000 0.000000
# 5 0.000000 0.000000 0.000000 0.000000 0.044268 0.000000
# 6 0.000000 0.000000 0.000000 0.000000 0.000000 0.035429
#
#
# Mechanical properties :
#
#
# Convention : Reuss Voigt Hill
#
# Bulk Modulus (GPa) = 50.06291 53.00046 51.53169
# Shear Modulus (GPa) = 25.28411 27.72988 26.50699
#
# Velocity S-wave (km/s) = 3.62672 3.79808 3.71339
# Velocity P-wave (km/s) = 6.60158 6.84145 6.72258
#
# Compressibility (1/GPa) = 0.01997487
#
# Stress axis : x y z
#
# Youngs Moduli (GPa) = 68.81269 52.28500 55.78993
#
# Poissons Ratio (x) = 0.33504 -0.06475
# Poissons Ratio (y) = 0.44094 0.58895
# Poissons Ratio (z) = -0.07986 0.55195
#
# Static dielectric constant tensor:
#      x y z
#    x 1.666860 0.000000 0.000000 
#    y 0.000000 1.646080 0.000000 
#    z 0.000000 0.000000 1.626660 
# 
# From -- ./inp_files/32447.got.cif
#   From: 2010.05.17/outbox.cif.g08.bks.cpg/sg62_17_cif.got.tgz:32447.got - 2010.06.03 15:25:27.
