data_PCOD9466182
_publ_section_title
;
Structure prediction by ZEFSAII (Michael W. Deem and Ramdas Pophale) SiO2 
 PCOD9466182
Probable space group: P N M A
;
_chemical_formula_sum "Si O2"
_cell_formula_units_Z 48
_cell_length_a 10.430177
_cell_length_b 8.822894
_cell_length_c 29.709129
_cell_angle_alpha 90.000000
_cell_angle_beta 90.000000
_cell_angle_gamma 90.000000
_cell_volume 2733.963169
_symmetry_space_group_name_H-M "P N M A"
_symmetry_group_IT_number 62
_symmetry_cell_setting 'orthorhombic'
loop_
_space_group_symop_operation_xyz
x,y,z
1/2-x,-y,1/2+z
1/2+x,1/2-y,1/2-z
-x,1/2+y,-z
-x,-y,-z
1/2+x,y,1/2-z
1/2-x,1/2+y,1/2+z
x,1/2-y,z
loop_
_atom_site_type_symbol
_atom_site_label
_atom_site_fract_x
_atom_site_fract_y
_atom_site_fract_z
Si Si1 0.226756 0.930955 0.283818
Si Si2 0.223878 0.430761 0.381064
Si Si3 0.623740 0.432906 0.023468
Si Si4 0.381565 0.069475 0.527204
Si Si5 0.990670 0.567443 0.780403
Si Si6 0.025709 0.428761 0.115419
O O1 0.230858 0.750000 0.279842
O O2 0.198397 0.980152 0.335284
O O3 0.367140 0.000089 0.272457
O O4 0.116212 0.999715 0.252332
O O5 0.207730 0.250000 0.372643
O O6 0.141359 0.476928 0.424260
O O7 0.373899 0.452618 0.393315
O O8 0.618711 0.250000 0.022590
O O9 0.500000 0.500000 0.000000
O O10 0.749772 0.481187 0.995896
O O11 0.388719 0.250000 0.523682
O O12 0.500000 0.000000 0.500000
O O13 0.394141 0.019528 0.578895
O O14 0.996964 0.750000 0.776339
O O15 0.954229 0.531401 0.832338
O O16 0.051144 0.250000 0.109724
#
# Coordination Sequence:
#
# PCOD9466182 Si02
#       6
#     8   8   8   8   8   8
#     4  11  22  37  60  91 118 144 189 246 291 332
#     4   9  18  37  59  79 112 154 191 226 276 349
#     4  10  22  39  56  80 114 151 189 232 280 337
#     4  11  21  35  57  84 113 145 185 233 279 328
#     4  10  21  40  62  83 115 157 193 229 284 354
#     4   9  18  35  59  85 110 142 189 233 275 334
#
# _framework density 17.556930999999999
#
# number of rings (size 3 to 8) (size 9 to 14) (size 15 to 20)
#    0.000    2.000    1.667    3.500    0.000    5.333 
#    3.000    0.000    0.000    0.000    0.000    0.000 
#    0.000    0.000    0.000    0.000    0.000    0.000 
#
# Total GULP energy -267961.720885 kJ/mol
# GULP energy per Si atom -5582.535852 kJ/mol
# Density = 1.751697 g / cm^3
# Si number density = 17.556931 Si / 1000 Ang^3
#
#
#
# Elastic Constant Matrix: (Units=GPa)
#
#
# Indices 1 2 3 4 5 6 
#
# 1 132.1970 57.0165 94.8139 0.0000 0.0000 0.0000
# 2 57.0165 70.2542 63.9416 0.0000 0.0000 0.0000
# 3 94.8139 63.9416 132.2227 0.0000 0.0000 0.0000
# 4 0.0000 0.0000 0.0000 33.9749 0.0000 0.0000
# 5 0.0000 0.0000 0.0000 0.0000 37.1632 0.0000
# 6 0.0000 0.0000 0.0000 0.0000 0.0000 30.5424
#
#
#
# Elastic Compliance Matrix: (Units=1/GPa)
#
#
# Indices 1 2 3 4 5 6 
#
# 1 0.016383 -0.004651 -0.009499 0.000000 0.000000 0.000000
# 2 -0.004651 0.026744 -0.009598 0.000000 0.000000 0.000000
# 3 -0.009499 -0.009598 0.019016 0.000000 0.000000 0.000000
# 4 0.000000 0.000000 0.000000 0.029434 0.000000 0.000000
# 5 0.000000 0.000000 0.000000 0.000000 0.026908 0.000000
# 6 0.000000 0.000000 0.000000 0.000000 0.000000 0.032741
#
#
# Mechanical properties :
#
#
# Convention : Reuss Voigt Hill
#
# Bulk Modulus (GPa) = 68.27069 85.13532 76.70301
# Shear Modulus (GPa) = 24.55731 28.26289 26.41010
#
# Velocity S-wave (km/s) = 3.74401 4.01657 3.88268
# Velocity P-wave (km/s) = 7.59341 8.37297 7.99270
#
# Compressibility (1/GPa) = 0.01464757
#
# Stress axis : x y z
#
# Youngs Moduli (GPa) = 61.03857 37.39107 52.58693
#
# Poissons Ratio (x) = 0.17389 0.49952
# Poissons Ratio (y) = 0.28387 0.50475
# Poissons Ratio (z) = 0.57980 0.35889
#
# Static dielectric constant tensor:
#      x y z
#    x 1.568730 0.000000 0.000000 
#    y 0.000000 1.587960 0.000000 
#    z 0.000000 0.000000 1.601220 
# 
# From -- ./inp_files/31995.got.cif
#   From: 2010.05.17/outbox.cif.g08.bks.cpg/sg62_16_cif.got.tgz:31995.got - 2010.06.03 15:25:27.
