data_PCOD9466615
_publ_section_title
;
Structure prediction by ZEFSAII (Michael W. Deem and Ramdas Pophale) SiO2 
 PCOD9466615
Probable space group: P N M A
;
_chemical_formula_sum "Si O2"
_cell_formula_units_Z 48
_cell_length_a 9.571804
_cell_length_b 25.821978
_cell_length_c 8.343414
_cell_angle_alpha 90.000000
_cell_angle_beta 90.000000
_cell_angle_gamma 90.000000
_cell_volume 2062.182503
_symmetry_space_group_name_H-M "P N M A"
_symmetry_group_IT_number 62
_symmetry_cell_setting 'orthorhombic'
loop_
_space_group_symop_operation_xyz
x,y,z
1/2-x,-y,1/2+z
1/2+x,1/2-y,1/2-z
-x,1/2+y,-z
-x,-y,-z
1/2+x,y,1/2-z
1/2-x,1/2+y,1/2+z
x,1/2-y,z
loop_
_atom_site_type_symbol
_atom_site_label
_atom_site_fract_x
_atom_site_fract_y
_atom_site_fract_z
Si Si1 0.839368 0.469519 0.625613
Si Si2 0.704624 0.308536 0.615157
Si Si3 0.907787 0.810309 0.754366
Si Si4 0.164670 0.632241 0.888174
Si Si5 0.907939 0.479225 0.255304
Si Si6 0.550587 0.637983 0.251266
O O1 0.859982 0.480229 0.439434
O O2 0.677428 0.475288 0.667850
O O3 0.911891 0.415358 0.665116
O O4 0.926950 0.510435 0.733655
O O5 0.666249 0.250000 0.658537
O O6 0.665769 0.315573 0.429221
O O7 0.865518 0.319057 0.651422
O O8 0.609295 0.347280 0.719073
O O9 0.903030 0.750000 0.706462
O O10 0.821653 0.847879 0.637987
O O11 0.064249 0.829902 0.785204
O O12 0.134871 0.574341 0.826969
O O13 0.117528 0.636121 0.071314
#
# Coordination Sequence:
#
# PCOD9466615 Si02
#       6
#     8   8   8   8   8   8
#     4  11  24  41  62  89 119 154 197 242 292 350
#     4  10  22  40  61  87 120 157 197 242 292 346
#     4  10  22  40  61  87 120 157 197 242 292 346
#     4  11  23  39  61  89 120 155 196 242 293 349
#     4  11  24  41  62  89 119 154 197 242 292 350
#     4  11  23  39  61  89 120 155 196 242 293 349
#
# _framework density 23.276309000000001
#
# number of rings (size 3 to 8) (size 9 to 14) (size 15 to 20)
#    0.000    1.333    0.000    5.000    0.000   12.667 
#    0.000    0.000    0.000    0.000    0.000    0.000 
#    0.000    0.000    0.000    0.000    0.000    0.000 
#
# Total GULP energy -268745.054553 kJ/mol
# GULP energy per Si atom -5598.855303 kJ/mol
# Density = 2.322333 g / cm^3
# Si number density = 23.276309 Si / 1000 Ang^3
#
#
#
# Elastic Constant Matrix: (Units=GPa)
#
#
# Indices 1 2 3 4 5 6 
#
# 1 49.9682 -14.0331 7.1932 0.0000 0.0000 0.0000
# 2 -14.0331 62.0198 -4.6944 0.0000 0.0000 0.0000
# 3 7.1932 -4.6944 25.0964 0.0000 0.0000 0.0000
# 4 0.0000 0.0000 0.0000 22.5276 0.0000 0.0000
# 5 0.0000 0.0000 0.0000 0.0000 32.6728 0.0000
# 6 0.0000 0.0000 0.0000 0.0000 0.0000 46.8164
#
#
#
# Elastic Compliance Matrix: (Units=1/GPa)
#
#
# Indices 1 2 3 4 5 6 
#
# 1 0.022088 0.004583 -0.005474 0.000000 0.000000 0.000000
# 2 0.004583 0.017307 0.001924 0.000000 0.000000 0.000000
# 3 -0.005474 0.001924 0.041775 0.000000 0.000000 0.000000
# 4 0.000000 0.000000 0.000000 0.044390 0.000000 0.000000
# 5 0.000000 0.000000 0.000000 0.000000 0.030606 0.000000
# 6 0.000000 0.000000 0.000000 0.000000 0.000000 0.021360
#
#
# Mechanical properties :
#
#
# Convention : Reuss Voigt Hill
#
# Bulk Modulus (GPa) = 12.01398 12.66844 12.34121
# Shear Modulus (GPa) = 24.60573 30.31126 27.45850
#
# Velocity S-wave (km/s) = 3.25486 3.61257 3.43837
# Velocity P-wave (km/s) = 4.39296 4.78072 4.59094
#
# Compressibility (1/GPa) = 0.08323634
#
# Stress axis : x y z
#
# Youngs Moduli (GPa) = 45.27359 57.78156 23.93772
#
# Poissons Ratio (x) = -0.26484 0.13103
# Poissons Ratio (y) = -0.20751 -0.04604
# Poissons Ratio (z) = 0.24781 -0.11114
#
# Static dielectric constant tensor:
#      x y z
#    x 1.829950 0.000000 0.000000 
#    y 0.000000 1.873610 0.000000 
#    z 0.000000 0.000000 1.817690 
# 
# From -- ./inp_files/4495.got.cif
#   From: 2010.05.17/outbox.cif.g08.bks.cpg/sg62_3_cif.got.tgz:4495.got - 2010.06.03 15:25:27.
