data_PCOD9466543
_publ_section_title
;
Structure prediction by ZEFSAII (Michael W. Deem and Ramdas Pophale) SiO2 
 PCOD9466543
Probable space group: P N M A
;
_chemical_formula_sum "Si O2"
_cell_formula_units_Z 48
_cell_length_a 9.127417
_cell_length_b 8.737794
_cell_length_c 31.598008
_cell_angle_alpha 90.000000
_cell_angle_beta 90.000000
_cell_angle_gamma 90.000000
_cell_volume 2520.051399
_symmetry_space_group_name_H-M "P N M A"
_symmetry_group_IT_number 62
_symmetry_cell_setting 'orthorhombic'
loop_
_space_group_symop_operation_xyz
x,y,z
1/2-x,-y,1/2+z
1/2+x,1/2-y,1/2-z
-x,1/2+y,-z
-x,-y,-z
1/2+x,y,1/2-z
1/2-x,1/2+y,1/2+z
x,1/2-y,z
loop_
_atom_site_type_symbol
_atom_site_label
_atom_site_fract_x
_atom_site_fract_y
_atom_site_fract_z
Si Si1 0.911800 0.933714 0.289862
Si Si2 0.919162 0.565405 0.459062
Si Si3 0.082327 0.566888 0.876674
Si Si4 0.578539 0.566125 0.458612
Si Si5 0.914484 0.566468 0.789990
Si Si6 0.591968 0.934662 0.125709
O O1 0.899945 0.750000 0.288023
O O2 0.000724 0.975071 0.332359
O O3 0.750657 0.005267 0.290832
O O4 0.999303 0.993930 0.249274
O O5 0.922903 0.750000 0.461075
O O6 0.749109 0.518503 0.457963
O O7 0.000000 0.500000 0.500000
O O8 0.002982 0.518742 0.416271
O O9 0.080857 0.750000 0.881164
O O10 0.248500 0.508880 0.873901
O O11 0.002811 0.493121 0.916893
O O12 0.996389 0.526172 0.833685
O O13 0.500000 0.500000 0.500000
O O14 0.572317 0.750000 0.459702
O O15 0.914328 0.750000 0.785701
O O16 0.607994 0.750000 0.124969
#
# Coordination Sequence:
#
# PCOD9466543 Si02
#       6
#     8   8   8   8   8   8
#     4  11  23  40  64  91 119 157 206 252 299 361
#     4  10  22  39  59  85 116 151 191 237 290 346
#     4  11  24  40  60  88 120 157 199 242 295 357
#     4  11  23  40  62  88 120 156 197 245 296 353
#     4  11  24  41  61  88 124 161 198 247 306 362
#     4  10  22  40  61  86 117 154 196 245 298 351
#
# _framework density 19.047231
#
# number of rings (size 3 to 8) (size 9 to 14) (size 15 to 20)
#    0.000    1.333    0.000    5.000    0.000   12.667 
#    0.000    0.000    0.000    0.000    0.000    0.000 
#    0.000    0.000    0.000    0.000    0.000    0.000 
#
# Total GULP energy -268553.577800 kJ/mol
# GULP energy per Si atom -5594.866204 kJ/mol
# Density = 1.900388 g / cm^3
# Si number density = 19.047231 Si / 1000 Ang^3
#
#
#
# Elastic Constant Matrix: (Units=GPa)
#
#
# Indices 1 2 3 4 5 6 
#
# 1 203.7153 49.9279 112.3748 0.0000 0.0000 0.0000
# 2 49.9279 37.2255 57.1783 0.0000 0.0000 0.0000
# 3 112.3748 57.1783 203.8209 0.0000 0.0000 0.0000
# 4 0.0000 0.0000 0.0000 34.7871 0.0000 0.0000
# 5 0.0000 0.0000 0.0000 0.0000 43.7761 0.0000
# 6 0.0000 0.0000 0.0000 0.0000 0.0000 37.1815
#
#
#
# Elastic Compliance Matrix: (Units=1/GPa)
#
#
# Indices 1 2 3 4 5 6 
#
# 1 0.007951 -0.006907 -0.002446 0.000000 0.000000 0.000000
# 2 -0.006907 0.053203 -0.011117 0.000000 0.000000 0.000000
# 3 -0.002446 -0.011117 0.009374 0.000000 0.000000 0.000000
# 4 0.000000 0.000000 0.000000 0.028746 0.000000 0.000000
# 5 0.000000 0.000000 0.000000 0.000000 0.022844 0.000000
# 6 0.000000 0.000000 0.000000 0.000000 0.000000 0.026895
#
#
# Mechanical properties :
#
#
# Convention : Reuss Voigt Hill
#
# Bulk Modulus (GPa) = 33.79824 98.19154 65.99489
# Shear Modulus (GPa) = 25.02319 38.16764 31.59541
#
# Velocity S-wave (km/s) = 3.62849 4.48129 4.07725
# Velocity P-wave (km/s) = 5.94454 8.85660 7.54245
#
# Compressibility (1/GPa) = 0.02958734
#
# Stress axis : x y z
#
# Youngs Moduli (GPa) = 125.77194 18.79600 106.68273
#
# Poissons Ratio (x) = 0.12982 0.26095
# Poissons Ratio (y) = 0.86868 1.18600
# Poissons Ratio (z) = 0.30765 0.20896
#
# Static dielectric constant tensor:
#      x y z
#    x 1.620390 0.000000 0.000000 
#    y 0.000000 1.644270 0.000000 
#    z 0.000000 0.000000 1.625980 
# 
# From -- ./inp_files/31996.got.cif
#   From: 2010.05.17/outbox.cif.g08.bks.cpg/sg62_16_cif.got.tgz:31996.got - 2010.06.03 15:25:27.
