data_PCOD9466095
_publ_section_title
;
Structure prediction by ZEFSAII (Michael W. Deem and Ramdas Pophale) SiO2 
 PCOD9466095
Probable space group: P N M A
;
_chemical_formula_sum "Si O2"
_cell_formula_units_Z 56
_cell_length_a 15.208214
_cell_length_b 20.284907
_cell_length_c 8.358248
_cell_angle_alpha 90.000000
_cell_angle_beta 90.000000
_cell_angle_gamma 90.000000
_cell_volume 2578.496160
_symmetry_space_group_name_H-M "P N M A"
_symmetry_group_IT_number 62
_symmetry_cell_setting 'orthorhombic'
loop_
_space_group_symop_operation_xyz
x,y,z
1/2-x,-y,1/2+z
1/2+x,1/2-y,1/2-z
-x,1/2+y,-z
-x,-y,-z
1/2+x,y,1/2-z
1/2-x,1/2+y,1/2+z
x,1/2-y,z
loop_
_atom_site_type_symbol
_atom_site_label
_atom_site_fract_x
_atom_site_fract_y
_atom_site_fract_z
Si Si1 0.373469 0.674177 0.982622
Si Si2 0.084087 0.564881 0.273726
Si Si3 0.657877 0.581382 0.891666
Si Si4 0.157715 0.389991 0.003153
Si Si5 0.019735 0.423714 0.251993
Si Si6 0.223564 0.063050 0.657514
Si Si7 0.971318 0.818630 0.178358
O O1 0.351181 0.750000 0.934800
O O2 0.295924 0.624902 0.042185
O O3 0.431169 0.680019 0.143959
O O4 0.430152 0.632277 0.855588
O O5 0.111211 0.599115 0.441099
O O6 0.030862 0.498652 0.314054
O O7 0.174172 0.549817 0.182601
O O8 0.030205 0.617009 0.171458
O O9 0.754194 0.614837 0.889797
O O10 0.584279 0.591923 0.755888
O O11 0.679316 0.503509 0.904497
O O12 0.078743 0.426281 0.093334
O O13 0.185898 0.423580 0.835810
O O14 0.109951 0.324023 0.943789
O O15 0.020137 0.750000 0.152631
#
# Coordination Sequence:
#
# PCOD9466095 Si02
#       7
#     8   8   8   8   8   8   8
#     4  10  21  39  63  90 125 173 220 268 332 402
#     4  11  21  37  67  98 126 168 223 279 333 393
#     4  11  21  39  63  96 132 169 222 274 335 398
#     4  10  24  40  59  97 131 173 211 281 339 383
#     4  12  21  38  67  95 130 174 226 279 332 395
#     4  10  21  39  62  91 135 167 218 271 333 401
#     4  10  22  43  65  90 129 172 220 270 331 403
#
# _framework density 21.718084000000001
#
# number of rings (size 3 to 8) (size 9 to 14) (size 15 to 20)
#    0.000    1.429    4.286    2.143    0.000    3.429 
#    2.571    2.857    0.000    0.000    0.000    0.000 
#    0.000    0.000    0.000    0.000    0.000    0.000 
#
# Total GULP energy -312262.914192 kJ/mol
# GULP energy per Si atom -5576.123468 kJ/mol
# Density = 2.166865 g / cm^3
# Si number density = 21.718084 Si / 1000 Ang^3
#
#
#
# Elastic Constant Matrix: (Units=GPa)
#
#
# Indices 1 2 3 4 5 6 
#
# 1 122.4356 44.6493 38.1941 0.0000 0.0000 0.0000
# 2 44.6493 111.4455 34.7835 0.0000 0.0000 0.0000
# 3 38.1941 34.7835 28.5694 0.0000 0.0000 0.0000
# 4 0.0000 0.0000 0.0000 -8.3267 0.0000 0.0000
# 5 0.0000 0.0000 0.0000 0.0000 36.0618 0.0000
# 6 0.0000 0.0000 0.0000 0.0000 0.0000 17.5581
#
#
#
# Elastic Compliance Matrix: (Units=1/GPa)
#
#
# Indices 1 2 3 4 5 6 
#
# 1 0.014020 0.000376 -0.019201 0.000000 0.000000 0.000000
# 2 0.000376 0.014483 -0.018135 0.000000 0.000000 0.000000
# 3 -0.019201 -0.018135 0.082752 0.000000 0.000000 0.000000
# 4 0.000000 0.000000 0.000000 -0.120096 0.000000 0.000000
# 5 0.000000 0.000000 0.000000 0.000000 0.027730 0.000000
# 6 0.000000 0.000000 0.000000 0.000000 0.000000 0.056954
#
#
# Mechanical properties :
#
#
# Convention : Reuss Voigt Hill
#
# Bulk Modulus (GPa) = 26.78526 55.30049 41.04288
# Shear Modulus (GPa) = 30.82427 18.71353 24.76890
#
# Velocity S-wave (km/s) = 3.77143 2.93858 3.38075
# Velocity P-wave (km/s) = 5.59686 6.08538 5.84623
#
# Compressibility (1/GPa) = 0.03733396
#
# Stress axis : x y z
#
# Youngs Moduli (GPa) = 71.32460 69.04814 12.08424
#
# Poissons Ratio (x) = -0.02595 0.23203
# Poissons Ratio (y) = -0.02681 0.21915
# Poissons Ratio (z) = 1.36953 1.25221
#
# Static dielectric constant tensor:
#      x y z
#    x 1.805440 0.000000 0.000000 
#    y 0.000000 1.780140 0.000000 
#    z 0.000000 0.000000 1.836810 
# 
# From -- ./inp_files/6798.got.cif
#   From: 2010.05.17/outbox.cif.g08.bks.cpg/sg62_4_cif.got.tgz:6798.got - 2010.06.03 15:25:27.
