data_PCOD9466104
_publ_section_title
;
Structure prediction by ZEFSAII (Michael W. Deem and Ramdas Pophale) SiO2 
 PCOD9466104
Probable space group: P N M A
;
_chemical_formula_sum "Si O2"
_cell_formula_units_Z 28
_cell_length_a 4.970035
_cell_length_b 19.602256
_cell_length_c 12.243756
_cell_angle_alpha 90.000000
_cell_angle_beta 90.000000
_cell_angle_gamma 90.000000
_cell_volume 1192.834441
_symmetry_space_group_name_H-M "P N M A"
_symmetry_group_IT_number 62
_symmetry_cell_setting 'orthorhombic'
loop_
_space_group_symop_operation_xyz
x,y,z
1/2-x,-y,1/2+z
1/2+x,1/2-y,1/2-z
-x,1/2+y,-z
-x,-y,-z
1/2+x,y,1/2-z
1/2-x,1/2+y,1/2+z
x,1/2-y,z
loop_
_atom_site_type_symbol
_atom_site_label
_atom_site_fract_x
_atom_site_fract_y
_atom_site_fract_z
Si Si1 0.964342 0.673578 0.513914
Si Si2 0.268969 0.070150 0.169809
Si Si3 0.730883 0.585031 0.322959
Si Si4 0.375285 0.250000 0.323582
O O1 0.076031 0.750000 0.490007
O O2 0.168753 0.621722 0.571800
O O3 0.728409 0.688226 0.602223
O O4 0.829347 0.639927 0.409382
O O5 0.499452 0.078822 0.261087
O O6 0.273753 0.991421 0.131160
O O7 0.425178 0.591521 0.282767
O O8 0.178770 0.250000 0.217544
#
# Coordination Sequence:
#
# PCOD9466104 Si02
#       4
#     8   8   8   4
#     4  10  23  39  62  91 120 160 193 247 299 355
#     4  10  21  39  63  88 120 155 197 249 295 351
#     4  10  23  42  61  86 119 160 204 243 287 348
#     4  10  22  38  56  86 118 146 186 234 294 348
#
# _framework density 23.473500999999999
#
# number of rings (size 3 to 8) (size 9 to 14) (size 15 to 20)
#    0.857    1.143    0.000    2.571    0.000    5.714 
#    0.000    8.571    0.000    0.000    0.000    0.000 
#    0.000    0.000    0.000    0.000    0.000    0.000 
#
# Total GULP energy -156671.200176 kJ/mol
# GULP energy per Si atom -5595.400006 kJ/mol
# Density = 2.342007 g / cm^3
# Si number density = 23.473501 Si / 1000 Ang^3
#
#
#
# Elastic Constant Matrix: (Units=GPa)
#
#
# Indices 1 2 3 4 5 6 
#
# 1 85.1277 -10.0063 -12.9789 0.0000 0.0000 0.0000
# 2 -10.0063 122.0609 45.0272 0.0000 0.0000 0.0000
# 3 -12.9789 45.0272 44.2416 0.0000 0.0000 0.0000
# 4 0.0000 0.0000 0.0000 55.3387 0.0000 0.0000
# 5 0.0000 0.0000 0.0000 0.0000 13.1936 0.0000
# 6 0.0000 0.0000 0.0000 0.0000 0.0000 14.7194
#
#
#
# Elastic Compliance Matrix: (Units=1/GPa)
#
#
# Indices 1 2 3 4 5 6 
#
# 1 0.012317 -0.000518 0.004140 0.000000 0.000000 0.000000
# 2 -0.000518 0.013139 -0.013524 0.000000 0.000000 0.000000
# 3 0.004140 -0.013524 0.037582 0.000000 0.000000 0.000000
# 4 0.000000 0.000000 0.000000 0.018071 0.000000 0.000000
# 5 0.000000 0.000000 0.000000 0.000000 0.075795 0.000000
# 6 0.000000 0.000000 0.000000 0.000000 0.000000 0.067937
#
#
# Mechanical properties :
#
#
# Convention : Reuss Voigt Hill
#
# Bulk Modulus (GPa) = 23.12911 32.83491 27.98201
# Shear Modulus (GPa) = 19.30080 31.94289 25.62184
#
# Velocity S-wave (km/s) = 2.87058 3.69291 3.30740
# Velocity P-wave (km/s) = 4.56746 5.67467 5.15090
#
# Compressibility (1/GPa) = 0.04323557
#
# Stress axis : x y z
#
# Youngs Moduli (GPa) = 81.18557 76.10803 26.60833
#
# Poissons Ratio (x) = 0.03939 -0.11016
# Poissons Ratio (y) = 0.04202 0.35986
# Poissons Ratio (z) = -0.33612 1.02931
#
# Static dielectric constant tensor:
#      x y z
#    x 1.868620 0.000000 0.000000 
#    y 0.000000 1.965210 0.000000 
#    z 0.000000 0.000000 1.838620 
# 
# From -- ./inp_files/10602.got.cif
#   From: 2010.05.17/outbox.cif.g08.bks.cpg/sg62_6_cif.got.tgz:10602.got - 2010.06.03 15:25:27.
