data_PCOD9466568
_publ_section_title
;
Structure prediction by ZEFSAII (Michael W. Deem and Ramdas Pophale) SiO2 
 PCOD9466568
Probable space group: P N M A
;
_chemical_formula_sum "Si O2"
_cell_formula_units_Z 64
_cell_length_a 32.776922
_cell_length_b 9.286630
_cell_length_c 10.690187
_cell_angle_alpha 90.000000
_cell_angle_beta 90.000000
_cell_angle_gamma 90.000000
_cell_volume 3253.955523
_symmetry_space_group_name_H-M "P N M A"
_symmetry_group_IT_number 62
_symmetry_cell_setting 'orthorhombic'
loop_
_space_group_symop_operation_xyz
x,y,z
1/2-x,-y,1/2+z
1/2+x,1/2-y,1/2-z
-x,1/2+y,-z
-x,-y,-z
1/2+x,y,1/2-z
1/2-x,1/2+y,1/2+z
x,1/2-y,z
loop_
_atom_site_type_symbol
_atom_site_label
_atom_site_fract_x
_atom_site_fract_y
_atom_site_fract_z
Si Si1 0.167761 0.923659 0.630522
Si Si2 0.084207 0.922079 0.760419
Si Si3 0.205022 0.086825 0.865525
Si Si4 0.087624 0.089991 0.265720
Si Si5 0.661086 0.908934 0.250509
Si Si6 0.215390 0.077813 0.411896
Si Si7 0.126081 0.479362 0.012530
Si Si8 0.498738 0.076935 0.133361
O O1 0.172702 0.750000 0.620176
O O2 0.120564 0.956493 0.663365
O O3 0.192706 0.987671 0.748033
O O4 0.184548 0.009856 0.512500
O O5 0.082105 0.750000 0.767487
O O6 0.040567 0.974610 0.711686
O O7 0.098337 0.972846 0.897156
O O8 0.217126 0.250000 0.829223
O O9 0.164695 0.097477 0.950497
O O10 0.241772 0.002438 0.931169
O O11 0.096134 0.250000 0.317673
O O12 0.098039 0.095126 0.117583
O O13 0.041347 0.051245 0.295341
O O14 0.119826 0.971708 0.312922
O O15 0.671789 0.750000 0.206273
O O16 0.648667 0.906106 0.396443
O O17 0.696543 0.022253 0.219962
O O18 0.218131 0.250000 0.418104
O O19 0.495181 0.250000 0.116100
O O20 0.500000 0.000000 0.000000
#
# Coordination Sequence:
#
# PCOD9466568 Si02
#       8
#     8   8   8   8   8   8   8   8
#     4  10  22  41  62  88 123 161 209 257 310 371
#     4   9  19  38  62  90 122 164 206 254 310 363
#     4  11  23  41  64  90 123 162 207 256 314 372
#     4   9  20  38  60  90 126 161 199 253 316 364
#     4  10  22  39  63  89 119 159 208 254 306 368
#     4  12  26  41  62  90 125 163 208 258 314 376
#     4   9  21  38  66  89 123 160 208 253 310 368
#     4  10  22  40  62  91 128 165 206 258 307 369
#
# _framework density 19.668369999999999
#
# number of rings (size 3 to 8) (size 9 to 14) (size 15 to 20)
#    0.750    1.250    0.000    3.000    3.500    2.500 
#    0.000    3.125    0.000    0.000    0.000    0.000 
#    0.000    0.000    0.000    0.000    0.000    0.000 
#
# Total GULP energy -356484.986037 kJ/mol
# GULP energy per Si atom -5570.077907 kJ/mol
# Density = 1.962360 g / cm^3
# Si number density = 19.668370 Si / 1000 Ang^3
#
#
#
# Elastic Constant Matrix: (Units=GPa)
#
#
# Indices 1 2 3 4 5 6 
#
# 1 120.8141 43.2336 49.8370 0.0000 0.0000 0.0000
# 2 43.2336 89.5476 21.2332 0.0000 0.0000 0.0000
# 3 49.8370 21.2332 86.0094 0.0000 0.0000 0.0000
# 4 0.0000 0.0000 0.0000 11.5302 0.0000 0.0000
# 5 0.0000 0.0000 0.0000 0.0000 27.1751 0.0000
# 6 0.0000 0.0000 0.0000 0.0000 0.0000 10.4951
#
#
#
# Elastic Compliance Matrix: (Units=1/GPa)
#
#
# Indices 1 2 3 4 5 6 
#
# 1 0.012409 -0.004553 -0.006066 0.000000 0.000000 0.000000
# 2 -0.004553 0.013532 -0.000703 0.000000 0.000000 0.000000
# 3 -0.006066 -0.000703 0.015315 0.000000 0.000000 0.000000
# 4 0.000000 0.000000 0.000000 0.086729 0.000000 0.000000
# 5 0.000000 0.000000 0.000000 0.000000 0.036798 0.000000
# 6 0.000000 0.000000 0.000000 0.000000 0.000000 0.095282
#
#
# Mechanical properties :
#
#
# Convention : Reuss Voigt Hill
#
# Bulk Modulus (GPa) = 53.72649 58.33096 56.02873
# Shear Modulus (GPa) = 17.30630 21.97790 19.64210
#
# Velocity S-wave (km/s) = 2.96954 3.34642 3.16359
# Velocity P-wave (km/s) = 6.25564 6.68229 6.47248
#
# Compressibility (1/GPa) = 0.01861279
#
# Stress axis : x y z
#
# Youngs Moduli (GPa) = 80.58887 73.89985 65.29516
#
# Poissons Ratio (x) = 0.33643 0.39609
# Poissons Ratio (y) = 0.36688 0.04588
# Poissons Ratio (z) = 0.48886 0.05193
#
# Static dielectric constant tensor:
#      x y z
#    x 1.697630 0.000000 0.000000 
#    y 0.000000 1.699100 0.000000 
#    z 0.000000 0.000000 1.729500 
# 
# From -- ./inp_files/15905.got.cif
#   From: 2010.05.17/outbox.cif.g08.bks.cpg/sg62_8_cif.got.tgz:15905.got - 2010.06.03 15:25:27.
