data_PCOD9466317
_publ_section_title
;
Structure prediction by ZEFSAII (Michael W. Deem and Ramdas Pophale) SiO2 
 PCOD9466317
Probable space group: P N M A
;
_chemical_formula_sum "Si O2"
_cell_formula_units_Z 64
_cell_length_a 15.248995
_cell_length_b 19.607590
_cell_length_c 10.021844
_cell_angle_alpha 90.000000
_cell_angle_beta 90.000000
_cell_angle_gamma 90.000000
_cell_volume 2996.491688
_symmetry_space_group_name_H-M "P N M A"
_symmetry_group_IT_number 62
_symmetry_cell_setting 'orthorhombic'
loop_
_space_group_symop_operation_xyz
x,y,z
1/2-x,-y,1/2+z
1/2+x,1/2-y,1/2-z
-x,1/2+y,-z
-x,-y,-z
1/2+x,y,1/2-z
1/2-x,1/2+y,1/2+z
x,1/2-y,z
loop_
_atom_site_type_symbol
_atom_site_label
_atom_site_fract_x
_atom_site_fract_y
_atom_site_fract_z
Si Si1 0.333843 0.829363 0.469879
Si Si2 0.382998 0.476809 0.944888
Si Si3 0.757796 0.586220 0.487789
Si Si4 0.928004 0.054223 0.051466
Si Si5 0.985170 0.331059 0.860363
Si Si6 0.650763 0.332238 0.223521
Si Si7 0.517077 0.583133 0.840769
Si Si8 0.814295 0.128517 0.719395
O O1 0.352491 0.750000 0.491135
O O2 0.412160 0.852892 0.369178
O O3 0.336062 0.857266 0.622128
O O4 0.242225 0.835600 0.394067
O O5 0.336878 0.533852 0.034555
O O6 0.460589 0.515367 0.870671
O O7 0.318764 0.449211 0.831625
O O8 0.417708 0.414696 0.034407
O O9 0.671196 0.540220 0.509255
O O10 0.784347 0.630546 0.618092
O O11 0.736325 0.632466 0.359834
O O12 0.932460 0.066708 0.207073
O O13 0.948565 0.127393 0.985773
O O14 0.000000 0.000000 0.000000
O O15 0.979580 0.250000 0.872637
O O16 0.915748 0.350623 0.744735
O O17 0.659946 0.250000 0.215595
O O18 0.552812 0.356541 0.180373
#
# Coordination Sequence:
#
# PCOD9466317 Si02
#       8
#     8   8   8   8   8   8   8   8
#     4  10  22  40  67  96 130 174 221 282 340 402
#     4  10  24  40  61  94 138 167 221 277 329 402
#     4  10  25  40  64  98 130 181 223 279 342 401
#     4  11  23  38  66  97 128 177 229 272 341 407
#     4  10  22  42  65  94 130 173 226 279 336 411
#     4  10  22  44  69  98 132 174 230 284 344 408
#     4  10  21  41  63  93 132 172 218 271 336 397
#     4  11  24  41  66  96 133 179 224 278 342 411
#
# _framework density 21.358311
#
# number of rings (size 3 to 8) (size 9 to 14) (size 15 to 20)
#    0.000    1.750    1.250    1.875    5.250    6.500 
#    0.000    2.500    0.000    0.000    0.000    0.000 
#    0.000    0.000    0.000    0.000    0.000    0.000 
#
# Total GULP energy -356631.934685 kJ/mol
# GULP energy per Si atom -5572.373979 kJ/mol
# Density = 2.130970 g / cm^3
# Si number density = 21.358311 Si / 1000 Ang^3
#
#
#
# Elastic Constant Matrix: (Units=GPa)
#
#
# Indices 1 2 3 4 5 6 
#
# 1 67.1493 8.1059 42.1646 0.0000 0.0000 0.0000
# 2 8.1059 47.5695 27.0839 0.0000 0.0000 0.0000
# 3 42.1646 27.0839 108.4696 0.0000 0.0000 0.0000
# 4 0.0000 0.0000 0.0000 21.4811 0.0000 0.0000
# 5 0.0000 0.0000 0.0000 0.0000 30.2334 0.0000
# 6 0.0000 0.0000 0.0000 0.0000 0.0000 29.5912
#
#
#
# Elastic Compliance Matrix: (Units=1/GPa)
#
#
# Indices 1 2 3 4 5 6 
#
# 1 0.019757 0.001173 -0.007973 0.000000 0.000000 0.000000
# 2 0.001173 0.024575 -0.006592 0.000000 0.000000 0.000000
# 3 -0.007973 -0.006592 0.013964 0.000000 0.000000 0.000000
# 4 0.000000 0.000000 0.000000 0.046553 0.000000 0.000000
# 5 0.000000 0.000000 0.000000 0.000000 0.033076 0.000000
# 6 0.000000 0.000000 0.000000 0.000000 0.000000 0.033794
#
#
# Mechanical properties :
#
#
# Convention : Reuss Voigt Hill
#
# Bulk Modulus (GPa) = 31.73371 41.98857 36.86114
# Shear Modulus (GPa) = 23.92261 25.98341 24.95301
#
# Velocity S-wave (km/s) = 3.35036 3.49169 3.42176
# Velocity P-wave (km/s) = 5.46412 5.99647 5.73647
#
# Compressibility (1/GPa) = 0.03151224
#
# Stress axis : x y z
#
# Youngs Moduli (GPa) = 50.61524 40.69136 71.61090
#
# Poissons Ratio (x) = -0.04772 0.57094
# Poissons Ratio (y) = -0.05936 0.47206
# Poissons Ratio (z) = 0.40354 0.26824
#
# Static dielectric constant tensor:
#      x y z
#    x 1.859270 0.000000 0.000000 
#    y 0.000000 1.751700 0.000000 
#    z 0.000000 0.000000 1.825290 
# 
# From -- ./inp_files/6939.got.cif
#   From: 2010.05.17/outbox.cif.g08.bks.cpg/sg62_4_cif.got.tgz:6939.got - 2010.06.03 15:25:27.
