data_PCOD9466817
_publ_section_title
;
Structure prediction by ZEFSAII (Michael W. Deem and Ramdas Pophale) SiO2 
 PCOD9466817
Probable space group: P N M A
;
_chemical_formula_sum "Si O2"
_cell_formula_units_Z 48
_cell_length_a 5.527255
_cell_length_b 13.565523
_cell_length_c 27.194372
_cell_angle_alpha 90.000000
_cell_angle_beta 90.000000
_cell_angle_gamma 90.000000
_cell_volume 2039.036863
_symmetry_space_group_name_H-M "P N M A"
_symmetry_group_IT_number 62
_symmetry_cell_setting 'orthorhombic'
loop_
_space_group_symop_operation_xyz
x,y,z
1/2-x,-y,1/2+z
1/2+x,1/2-y,1/2-z
-x,1/2+y,-z
-x,-y,-z
1/2+x,y,1/2-z
1/2-x,1/2+y,1/2+z
x,1/2-y,z
loop_
_atom_site_type_symbol
_atom_site_label
_atom_site_fract_x
_atom_site_fract_y
_atom_site_fract_z
Si Si1 0.936991 0.367424 0.720590
Si Si2 0.890690 0.134878 0.952459
Si Si3 0.885935 0.974085 0.372295
Si Si4 0.249107 0.365525 0.270395
Si Si5 0.748645 0.542992 0.547482
Si Si6 0.520915 0.138908 0.366554
O O1 0.686919 0.387814 0.749552
O O2 0.937964 0.250000 0.710757
O O3 0.949596 0.424448 0.668886
O O4 0.942397 0.250000 0.956628
O O5 0.776920 0.108329 0.899637
O O6 0.712613 0.097811 0.996146
O O7 0.121097 0.063190 0.959527
O O8 0.711764 0.057301 0.350460
O O9 0.028944 0.026399 0.416512
O O10 0.993201 0.407389 0.253918
O O11 0.238179 0.250000 0.255130
O O12 0.298297 0.367213 0.328488
O O13 0.563700 0.610089 0.579138
O O14 0.616887 0.250000 0.364346
#
# Coordination Sequence:
#
# PCOD9466817 Si02
#       6
#     8   8   8   8   8   8
#     4  10  24  45  72 106 143 184 232 289 354 420
#     4  10  22  42  68  96 132 174 222 282 348 419
#     4  11  24  41  66  99 134 176 229 288 345 415
#     4   9  19  35  55  82 118 165 224 275 326 400
#     4  10  23  42  63  98 132 170 224 282 348 418
#     4  10  23  39  59  89 128 176 223 280 347 415
#
# _framework density 23.540527999999998
#
# number of rings (size 3 to 8) (size 9 to 14) (size 15 to 20)
#    0.000    2.000    0.000    1.500    7.000    4.000 
#    0.000    0.000    0.000    0.000    0.000    0.000 
#    0.000    0.000    0.000    0.000    0.000    0.000 
#
# Total GULP energy -268641.611157 kJ/mol
# GULP energy per Si atom -5596.700232 kJ/mol
# Density = 2.348695 g / cm^3
# Si number density = 23.540528 Si / 1000 Ang^3
#
#
#
# Elastic Constant Matrix: (Units=GPa)
#
#
# Indices 1 2 3 4 5 6 
#
# 1 75.5772 34.9911 18.5838 0.0000 0.0000 0.0000
# 2 34.9911 159.9016 43.4902 0.0000 0.0000 0.0000
# 3 18.5838 43.4902 88.3600 0.0000 0.0000 0.0000
# 4 0.0000 0.0000 0.0000 25.8843 0.0000 0.0000
# 5 0.0000 0.0000 0.0000 0.0000 37.7383 0.0000
# 6 0.0000 0.0000 0.0000 0.0000 0.0000 27.2962
#
#
#
# Elastic Compliance Matrix: (Units=1/GPa)
#
#
# Indices 1 2 3 4 5 6 
#
# 1 0.014960 -0.002792 -0.001772 0.000000 0.000000 0.000000
# 2 -0.002792 0.007741 -0.003223 0.000000 0.000000 0.000000
# 3 -0.001772 -0.003223 0.013276 0.000000 0.000000 0.000000
# 4 0.000000 0.000000 0.000000 0.038633 0.000000 0.000000
# 5 0.000000 0.000000 0.000000 0.000000 0.026498 0.000000
# 6 0.000000 0.000000 0.000000 0.000000 0.000000 0.036635
#
#
# Mechanical properties :
#
#
# Convention : Reuss Voigt Hill
#
# Bulk Modulus (GPa) = 49.01112 57.55212 53.28162
# Shear Modulus (GPa) = 31.22664 33.30202 32.26433
#
# Velocity S-wave (km/s) = 3.64607 3.76529 3.70616
# Velocity P-wave (km/s) = 6.21210 6.58820 6.40291
#
# Compressibility (1/GPa) = 0.02040353
#
# Stress axis : x y z
#
# Youngs Moduli (GPa) = 66.84600 129.17647 75.32115
#
# Poissons Ratio (x) = 0.36061 0.13349
# Poissons Ratio (y) = 0.18661 0.24277
# Poissons Ratio (z) = 0.11847 0.41635
#
# Static dielectric constant tensor:
#      x y z
#    x 1.931030 0.000000 0.000000 
#    y 0.000000 1.864740 0.000000 
#    z 0.000000 0.000000 1.891270 
# 
# From -- ./inp_files/30401.got.cif
#   From: 2010.05.17/outbox.cif.g08.bks.cpg/sg62_16_cif.got.tgz:30401.got - 2010.06.03 15:25:27.
