data_PCOD9466432
_publ_section_title
;
Structure prediction by ZEFSAII (Michael W. Deem and Ramdas Pophale) SiO2 
 PCOD9466432
Probable space group: P N M A
;
_chemical_formula_sum "Si O2"
_cell_formula_units_Z 40
_cell_length_a 11.403242
_cell_length_b 14.314567
_cell_length_c 10.401545
_cell_angle_alpha 90.000000
_cell_angle_beta 90.000000
_cell_angle_gamma 90.000000
_cell_volume 1697.869899
_symmetry_space_group_name_H-M "P N M A"
_symmetry_group_IT_number 62
_symmetry_cell_setting 'orthorhombic'
loop_
_space_group_symop_operation_xyz
x,y,z
1/2-x,-y,1/2+z
1/2+x,1/2-y,1/2-z
-x,1/2+y,-z
-x,-y,-z
1/2+x,y,1/2-z
1/2-x,1/2+y,1/2+z
x,1/2-y,z
loop_
_atom_site_type_symbol
_atom_site_label
_atom_site_fract_x
_atom_site_fract_y
_atom_site_fract_z
Si Si1 0.150424 0.250000 0.955209
Si Si2 0.397672 0.750000 0.972766
Si Si3 0.022759 0.903271 0.146181
Si Si4 0.260957 0.250000 0.234602
Si Si5 0.344130 0.048550 0.263470
Si Si6 0.232150 0.057808 0.516203
Si Si7 0.601434 0.750000 0.152569
O O1 0.071639 0.340906 0.930477
O O2 0.259405 0.250000 0.857776
O O3 0.209457 0.250000 0.093180
O O4 0.339617 0.845538 0.025769
O O5 0.532085 0.750000 0.017188
O O6 0.353758 0.750000 0.826583
O O7 0.135474 0.920683 0.059722
O O8 0.060086 0.839639 0.266642
O O9 0.962152 0.998073 0.192505
O O10 0.338307 0.159522 0.264154
O O11 0.243747 0.021891 0.369538
O O12 0.316756 0.013868 0.120191
#
# Coordination Sequence:
#
# PCOD9466432 Si02
#       7
#     4   4   8   4   8   8   4
#     4  11  24  46  69 106 138 178 235 289 347 414
#     4  10  21  45  68 101 139 178 230 290 353 414
#     4  11  23  40  74  99 137 182 233 288 343 416
#     4  10  25  45  64  94 147 182 225 289 353 421
#     4  11  23  44  67  99 142 180 234 281 349 411
#     4  11  23  44  70 104 136 184 230 289 350 418
#     4  11  22  40  71 107 132 178 240 292 333 421
#
# _framework density 23.558933
#
# number of rings (size 3 to 8) (size 9 to 14) (size 15 to 20)
#    0.000    1.200    2.000    4.200    2.800    0.000 
#   14.400    2.000    0.000    0.000    0.000    0.000 
#    0.000    0.000    0.000    0.000    0.000    0.000 
#
# Total GULP energy -224107.807067 kJ/mol
# GULP energy per Si atom -5602.695177 kJ/mol
# Density = 2.350531 g / cm^3
# Si number density = 23.558933 Si / 1000 Ang^3
#
#
#
# Elastic Constant Matrix: (Units=GPa)
#
#
# Indices 1 2 3 4 5 6 
#
# 1 72.7660 9.8325 -16.5896 0.0000 0.0000 0.0000
# 2 9.8325 78.9114 21.4400 0.0000 0.0000 0.0000
# 3 -16.5896 21.4400 74.1153 0.0000 0.0000 0.0000
# 4 0.0000 0.0000 0.0000 9.9415 0.0000 0.0000
# 5 0.0000 0.0000 0.0000 0.0000 19.6747 0.0000
# 6 0.0000 0.0000 0.0000 0.0000 0.0000 -4.7296
#
#
#
# Elastic Compliance Matrix: (Units=1/GPa)
#
#
# Indices 1 2 3 4 5 6 
#
# 1 0.015127 -0.003044 0.004266 0.000000 0.000000 0.000000
# 2 -0.003044 0.014366 -0.004837 0.000000 0.000000 0.000000
# 3 0.004266 -0.004837 0.015847 0.000000 0.000000 0.000000
# 4 0.000000 0.000000 0.000000 0.100588 0.000000 0.000000
# 5 0.000000 0.000000 0.000000 0.000000 0.050827 0.000000
# 6 0.000000 0.000000 0.000000 0.000000 0.000000 -0.211434
#
#
# Mechanical properties :
#
#
# Convention : Reuss Voigt Hill
#
# Bulk Modulus (GPa) = 26.23979 28.35094 27.29536
# Shear Modulus (GPa) = 951.73794 19.05130 485.39462
#
# Velocity S-wave (km/s) = 20.12110 2.84679 14.36946
# Velocity P-wave (km/s) = 23.47283 4.78182 16.93871
#
# Compressibility (1/GPa) = 0.03811006
#
# Stress axis : x y z
#
# Youngs Moduli (GPa) = 66.10838 69.60904 63.10448
#
# Poissons Ratio (x) = 0.21189 -0.26923
# Poissons Ratio (y) = 0.20123 0.30524
# Poissons Ratio (z) = -0.28205 0.33671
#
# Static dielectric constant tensor:
#      x y z
#    x 1.837060 0.000000 0.000000 
#    y 0.000000 1.869600 0.000000 
#    z 0.000000 0.000000 1.938060 
# 
# From -- ./inp_files/12114.got.cif
#   From: 2010.05.17/outbox.cif.g08.bks.cpg/sg62_7_cif.got.tgz:12114.got - 2010.06.03 15:25:27.
