data_PCOD9466682
_publ_section_title
;
Structure prediction by ZEFSAII (Michael W. Deem and Ramdas Pophale) SiO2 
 PCOD9466682
Probable space group: P N M A
;
_chemical_formula_sum "Si O2"
_cell_formula_units_Z 40
_cell_length_a 9.466819
_cell_length_b 12.826652
_cell_length_c 14.512342
_cell_angle_alpha 90.000000
_cell_angle_beta 90.000000
_cell_angle_gamma 90.000000
_cell_volume 1762.198756
_symmetry_space_group_name_H-M "P N M A"
_symmetry_group_IT_number 62
_symmetry_cell_setting 'orthorhombic'
loop_
_space_group_symop_operation_xyz
x,y,z
1/2-x,-y,1/2+z
1/2+x,1/2-y,1/2-z
-x,1/2+y,-z
-x,-y,-z
1/2+x,y,1/2-z
1/2-x,1/2+y,1/2+z
x,1/2-y,z
loop_
_atom_site_type_symbol
_atom_site_label
_atom_site_fract_x
_atom_site_fract_y
_atom_site_fract_z
Si Si1 0.533066 0.750000 0.326758
Si Si2 0.440121 0.134052 0.266204
Si Si3 0.841199 0.042860 0.507978
Si Si4 0.585054 0.978714 0.405295
Si Si5 0.671700 0.362267 0.135538
Si Si6 0.696354 0.750000 0.130276
O O1 0.584955 0.856554 0.377116
O O2 0.595269 0.750000 0.221483
O O3 0.360592 0.750000 0.334933
O O4 0.482648 0.250000 0.302457
O O5 0.272306 0.133933 0.275458
O O6 0.510603 0.128208 0.166591
O O7 0.505895 0.041734 0.325038
O O8 0.831207 0.150461 0.563899
O O9 0.740262 0.028702 0.420325
O O10 0.776873 0.954672 0.574476
O O11 0.000000 0.000000 0.500000
O O12 0.500000 0.000000 0.500000
O O13 0.690719 0.250000 0.089665
#
# Coordination Sequence:
#
# PCOD9466682 Si02
#       6
#     4   8   8   8   8   4
#     4  12  28  48  80 104 153 198 249 299 375 454
#     4  10  22  40  67  94 132 175 224 279 346 421
#     4  12  29  44  71 104 147 184 243 300 355 425
#     4  12  25  44  70 102 138 187 237 296 356 421
#     4  10  22  42  65  96 132 176 224 277 346 417
#     4  12  28  52  74 112 147 200 247 297 375 454
#
# _framework density 22.698916000000001
#
# number of rings (size 3 to 8) (size 9 to 14) (size 15 to 20)
#    0.000    0.800    4.000    1.200   11.200    0.000 
#    0.000    0.000    0.000    0.000    0.000    0.000 
#    0.000    0.000    0.000    0.000    0.000    0.000 
#
# Total GULP energy -223237.324107 kJ/mol
# GULP energy per Si atom -5580.933103 kJ/mol
# Density = 2.264725 g / cm^3
# Si number density = 22.698916 Si / 1000 Ang^3
#
#
#
# Elastic Constant Matrix: (Units=GPa)
#
#
# Indices 1 2 3 4 5 6 
#
# 1 158.7847 29.6893 14.1833 0.0000 0.0000 0.0000
# 2 29.6893 196.9107 66.4990 0.0000 0.0000 0.0000
# 3 14.1833 66.4990 48.8442 0.0000 0.0000 0.0000
# 4 0.0000 0.0000 0.0000 60.4269 0.0000 0.0000
# 5 0.0000 0.0000 0.0000 0.0000 41.8334 0.0000
# 6 0.0000 0.0000 0.0000 0.0000 0.0000 7.3431
#
#
#
# Elastic Compliance Matrix: (Units=1/GPa)
#
#
# Indices 1 2 3 4 5 6 
#
# 1 0.006508 -0.000635 -0.001025 0.000000 0.000000 0.000000
# 2 -0.000635 0.009463 -0.012698 0.000000 0.000000 0.000000
# 3 -0.001025 -0.012698 0.038059 0.000000 0.000000 0.000000
# 4 0.000000 0.000000 0.000000 0.016549 0.000000 0.000000
# 5 0.000000 0.000000 0.000000 0.000000 0.023904 0.000000
# 6 0.000000 0.000000 0.000000 0.000000 0.000000 0.136182
#
#
# Mechanical properties :
#
#
# Convention : Reuss Voigt Hill
#
# Bulk Modulus (GPa) = 39.50613 69.47587 54.49100
# Shear Modulus (GPa) = 18.66925 41.53188 30.10057
#
# Velocity S-wave (km/s) = 2.87099 4.28212 3.64549
# Velocity P-wave (km/s) = 5.33220 7.42447 6.46356
#
# Compressibility (1/GPa) = 0.02531253
#
# Stress axis : x y z
#
# Youngs Moduli (GPa) = 153.65344 105.67898 26.27477
#
# Poissons Ratio (x) = 0.06711 0.02694
# Poissons Ratio (y) = 0.09757 0.33365
# Poissons Ratio (z) = 0.15754 1.34196
#
# Static dielectric constant tensor:
#      x y z
#    x 1.893420 0.000000 0.000000 
#    y 0.000000 1.513540 0.000000 
#    z 0.000000 0.000000 2.009740 
# 
# From -- ./inp_files/21947.got.cif
#   From: 2010.05.17/outbox.cif.g08.bks.cpg/sg62_11_cif.got.tgz:21947.got - 2010.06.03 15:25:27.
