data_PCOD9466915
_publ_section_title
;
Structure prediction by ZEFSAII (Michael W. Deem and Ramdas Pophale) SiO2 
 PCOD9466915
Probable space group: P N M A
;
_chemical_formula_sum "Si O2"
_cell_formula_units_Z 40
_cell_length_a 23.787172
_cell_length_b 12.941281
_cell_length_c 5.361665
_cell_angle_alpha 90.000000
_cell_angle_beta 90.000000
_cell_angle_gamma 90.000000
_cell_volume 1650.516065
_symmetry_space_group_name_H-M "P N M A"
_symmetry_group_IT_number 62
_symmetry_cell_setting 'orthorhombic'
loop_
_space_group_symop_operation_xyz
x,y,z
1/2-x,-y,1/2+z
1/2+x,1/2-y,1/2-z
-x,1/2+y,-z
-x,-y,-z
1/2+x,y,1/2-z
1/2-x,1/2+y,1/2+z
x,1/2-y,z
loop_
_atom_site_type_symbol
_atom_site_label
_atom_site_fract_x
_atom_site_fract_y
_atom_site_fract_z
Si Si1 0.864391 0.921995 0.728836
Si Si2 0.949648 0.750000 0.868573
Si Si3 0.939788 0.451833 0.435947
Si Si4 0.254542 0.064920 0.221608
Si Si5 0.975529 0.250000 0.640023
Si Si6 0.366565 0.369363 0.464283
O O1 0.909222 0.849771 0.863941
O O2 0.802917 0.873153 0.720365
O O3 0.894420 0.957216 0.473740
O O4 0.856237 0.033485 0.856920
O O5 0.984901 0.750000 0.609156
O O6 0.987279 0.750000 0.113732
O O7 0.924647 0.399602 0.175120
O O8 0.000000 0.500000 0.500000
O O9 0.938753 0.353219 0.619000
O O10 0.313612 0.120737 0.270233
O O11 0.249843 0.976072 0.437833
O O12 0.366151 0.250000 0.543045
#
# Coordination Sequence:
#
# PCOD9466915 Si02
#       6
#     8   4   8   8   4   8
#     4  11  26  45  73 105 148 195 245 306 366 445
#     4  12  28  48  71 103 150 194 250 296 371 427
#     4  12  24  43  71 101 149 189 246 301 365 434
#     4  10  22  45  71 102 143 184 239 296 358 435
#     4  12  28  44  69 105 144 196 242 302 359 445
#     4  11  25  44  72 109 147 193 243 304 368 439
#
# _framework density 24.234843000000001
#
# number of rings (size 3 to 8) (size 9 to 14) (size 15 to 20)
#    0.000    0.800    5.000    1.200    5.600    1.600 
#    0.000    0.000    8.800    0.000    0.000    0.000 
#    0.000    0.000    0.000    0.000    0.000    0.000 
#
# Total GULP energy -223343.147301 kJ/mol
# GULP energy per Si atom -5583.578683 kJ/mol
# Density = 2.417968 g / cm^3
# Si number density = 24.234843 Si / 1000 Ang^3
#
#
#
# Elastic Constant Matrix: (Units=GPa)
#
#
# Indices 1 2 3 4 5 6 
#
# 1 106.9477 15.2804 19.0346 0.0000 0.0000 0.0000
# 2 15.2804 125.3462 15.8464 0.0000 0.0000 0.0000
# 3 19.0346 15.8464 83.6809 0.0000 0.0000 0.0000
# 4 0.0000 0.0000 0.0000 27.5204 0.0000 0.0000
# 5 0.0000 0.0000 0.0000 0.0000 43.7745 0.0000
# 6 0.0000 0.0000 0.0000 0.0000 0.0000 21.7968
#
#
#
# Elastic Compliance Matrix: (Units=1/GPa)
#
#
# Indices 1 2 3 4 5 6 
#
# 1 0.009852 -0.000940 -0.002063 0.000000 0.000000 0.000000
# 2 -0.000940 0.008263 -0.001351 0.000000 0.000000 0.000000
# 3 -0.002063 -0.001351 0.012675 0.000000 0.000000 0.000000
# 4 0.000000 0.000000 0.000000 0.036337 0.000000 0.000000
# 5 0.000000 0.000000 0.000000 0.000000 0.022844 0.000000
# 6 0.000000 0.000000 0.000000 0.000000 0.000000 0.045878
#
#
# Mechanical properties :
#
#
# Convention : Reuss Voigt Hill
#
# Bulk Modulus (GPa) = 45.28518 46.25528 45.77023
# Shear Modulus (GPa) = 32.91236 36.33923 34.62580
#
# Velocity S-wave (km/s) = 3.68918 3.87649 3.78400
# Velocity P-wave (km/s) = 6.07234 6.25811 6.16592
#
# Compressibility (1/GPa) = 0.02208228
#
# Stress axis : x y z
#
# Youngs Moduli (GPa) = 101.50369 121.01693 78.89402
#
# Poissons Ratio (x) = 0.11378 0.16275
# Poissons Ratio (y) = 0.09543 0.10658
# Poissons Ratio (z) = 0.20939 0.16349
#
# Static dielectric constant tensor:
#      x y z
#    x 2.030000 0.000000 0.000000 
#    y 0.000000 1.906540 0.000000 
#    z 0.000000 0.000000 2.021000 
# 
# From -- ./inp_files/2678.got.cif
#   From: 2010.05.17/outbox.cif.g08.bks.cpg/sg62_2_cif.got.tgz:2678.got - 2010.06.03 15:25:27.
