data_PCOD9466438
_publ_section_title
;
Structure prediction by ZEFSAII (Michael W. Deem and Ramdas Pophale) SiO2 
 PCOD9466438
Probable space group: P N M A
;
_chemical_formula_sum "Si O2"
_cell_formula_units_Z 28
_cell_length_a 6.937530
_cell_length_b 5.781393
_cell_length_c 23.563580
_cell_angle_alpha 90.000000
_cell_angle_beta 90.000000
_cell_angle_gamma 90.000000
_cell_volume 945.101907
_symmetry_space_group_name_H-M "P N M A"
_symmetry_group_IT_number 62
_symmetry_cell_setting 'orthorhombic'
loop_
_space_group_symop_operation_xyz
x,y,z
1/2-x,-y,1/2+z
1/2+x,1/2-y,1/2-z
-x,1/2+y,-z
-x,-y,-z
1/2+x,y,1/2-z
1/2-x,1/2+y,1/2+z
x,1/2-y,z
loop_
_atom_site_type_symbol
_atom_site_label
_atom_site_fract_x
_atom_site_fract_y
_atom_site_fract_z
Si Si1 0.122480 0.250000 0.779526
Si Si2 0.160320 0.750000 0.778311
Si Si3 0.206913 0.250000 0.645567
Si Si4 0.230906 0.997334 0.500046
Si Si5 0.150915 0.250000 0.893617
Si Si6 0.935066 0.250000 0.345682
O O1 0.049514 0.510527 0.786270
O O2 0.193272 0.250000 0.714499
O O3 0.267769 0.250000 0.834118
O O4 0.194488 0.750000 0.710992
O O5 0.348406 0.750000 0.818771
O O6 0.431420 0.250000 0.627575
O O7 0.115514 0.499359 0.625751
O O8 0.293740 0.750000 0.526592
O O9 0.299907 0.962782 0.434841
O O10 0.295955 0.250000 0.519965
O O11 0.000000 0.000000 0.500000
#
# Coordination Sequence:
#
# PCOD9466438 Si02
#       6
#     4   4   4   8   4   4
#     4  10  23  32  52  72 110 144 188 209 266 316
#     4  10  22  36  53  68  99 141 192 231 260 296
#     4  10  23  32  52  72 110 144 188 209 266 316
#     4   8  16  30  50  74 110 136 168 226 283 325
#     4  10  22  32  56  80 116 146 178 220 286 318
#     4  10  22  36  53  68  99 141 192 231 260 296
#
# _framework density 29.626432999999999
#
# number of rings (size 3 to 8) (size 9 to 14) (size 15 to 20)
#    0.857    1.714    0.000    0.857   20.000    0.000 
#    0.000    0.000    0.000    0.000    0.000    0.000 
#    0.000   22.857    0.000    0.000    0.000    0.000 
#
# Total GULP energy -156246.105553 kJ/mol
# GULP energy per Si atom -5580.218055 kJ/mol
# Density = 2.955900 g / cm^3
# Si number density = 29.626433 Si / 1000 Ang^3
#
#
#
# Elastic Constant Matrix: (Units=GPa)
#
#
# Indices 1 2 3 4 5 6 
#
# 1 147.4868 64.4695 26.1305 0.0000 0.0000 0.0000
# 2 64.4695 371.3114 65.5498 0.0000 0.0000 0.0000
# 3 26.1305 65.5498 136.4473 0.0000 0.0000 0.0000
# 4 0.0000 0.0000 0.0000 57.8871 0.0000 0.0000
# 5 0.0000 0.0000 0.0000 0.0000 17.5755 0.0000
# 6 0.0000 0.0000 0.0000 0.0000 0.0000 39.5857
#
#
#
# Elastic Compliance Matrix: (Units=1/GPa)
#
#
# Indices 1 2 3 4 5 6 
#
# 1 0.007432 -0.001135 -0.000878 0.000000 0.000000 0.000000
# 2 -0.001135 0.003116 -0.001280 0.000000 0.000000 0.000000
# 3 -0.000878 -0.001280 0.008112 0.000000 0.000000 0.000000
# 4 0.000000 0.000000 0.000000 0.017275 0.000000 0.000000
# 5 0.000000 0.000000 0.000000 0.000000 0.056897 0.000000
# 6 0.000000 0.000000 0.000000 0.000000 0.000000 0.025262
#
#
# Mechanical properties :
#
#
# Convention : Reuss Voigt Hill
#
# Bulk Modulus (GPa) = 82.82077 107.50500 95.16289
# Shear Modulus (GPa) = 38.84871 56.28272 47.56571
#
# Velocity S-wave (km/s) = 3.62510 4.36334 4.01124
# Velocity P-wave (km/s) = 6.74815 7.85815 7.32421
#
# Compressibility (1/GPa) = 0.01207427
#
# Stress axis : x y z
#
# Youngs Moduli (GPa) = 134.55112 320.90430 123.27926
#
# Poissons Ratio (x) = 0.36437 0.10822
# Poissons Ratio (y) = 0.15278 0.15775
# Poissons Ratio (z) = 0.11811 0.41062
#
# Static dielectric constant tensor:
#      x y z
#    x 2.348420 0.000000 0.000000 
#    y 0.000000 2.292240 0.000000 
#    z 0.000000 0.000000 2.478040 
# 
# From -- ./inp_files/30612.got.cif
#   From: 2010.05.17/outbox.cif.g08.bks.cpg/sg62_16_cif.got.tgz:30612.got - 2010.06.03 15:25:27.
