data_PCOD9466577
_publ_section_title
;
Structure prediction by ZEFSAII (Michael W. Deem and Ramdas Pophale) SiO2 
 PCOD9466577
Probable space group: P N M A
;
_chemical_formula_sum "Si O2"
_cell_formula_units_Z 64
_cell_length_a 9.369773
_cell_length_b 13.937349
_cell_length_c 22.611172
_cell_angle_alpha 90.000000
_cell_angle_beta 90.000000
_cell_angle_gamma 90.000000
_cell_volume 2952.788347
_symmetry_space_group_name_H-M "P N M A"
_symmetry_group_IT_number 62
_symmetry_cell_setting 'orthorhombic'
loop_
_space_group_symop_operation_xyz
x,y,z
1/2-x,-y,1/2+z
1/2+x,1/2-y,1/2-z
-x,1/2+y,-z
-x,-y,-z
1/2+x,y,1/2-z
1/2-x,1/2+y,1/2+z
x,1/2-y,z
loop_
_atom_site_type_symbol
_atom_site_label
_atom_site_fract_x
_atom_site_fract_y
_atom_site_fract_z
Si Si1 0.907784 0.637015 0.531734
Si Si2 0.119848 0.971763 0.952516
Si Si3 0.476663 0.547924 0.090914
Si Si4 0.747410 0.858904 0.113377
Si Si5 0.764524 0.957370 0.314665
Si Si6 0.159950 0.361549 0.240343
Si Si7 0.968636 0.860002 0.221469
Si Si8 0.381691 0.137429 0.332269
O O1 0.919249 0.750000 0.545214
O O2 0.742198 0.603145 0.527340
O O3 0.977994 0.608867 0.469295
O O4 0.981494 0.562211 0.577259
O O5 0.074917 0.927204 0.888361
O O6 0.197644 0.071507 0.937724
O O7 0.000000 0.000000 0.000000
O O8 0.597401 0.595208 0.132093
O O9 0.322928 0.558441 0.120106
O O10 0.728283 0.750000 0.094324
O O11 0.862322 0.860583 0.165525
O O12 0.618815 0.904232 0.297871
O O13 0.885739 0.919708 0.270555
O O14 0.740011 0.069301 0.304545
O O15 0.194821 0.250000 0.232486
O O16 0.994862 0.372997 0.221604
O O17 0.225697 0.387187 0.304844
O O18 0.989701 0.750000 0.240945
O O19 0.381624 0.250000 0.349608
#
# Coordination Sequence:
#
# PCOD9466577 Si02
#       8
#     8   8   8   8   8   8   8   8
#     4  10  23  44  67  94 129 176 230 283 344 414
#     4  11  24  40  66  97 137 177 226 283 346 418
#     4  10  24  42  67  95 126 173 224 281 337 408
#     4  10  22  42  63  87 125 168 218 273 332 395
#     4  12  23  40  65  94 136 169 218 280 340 408
#     4  10  22  39  65  95 130 170 216 271 342 409
#     4  11  25  41  63  97 132 176 223 274 343 411
#     4  10  22  42  65  97 133 173 222 278 342 416
#
# _framework density 21.674429
#
# number of rings (size 3 to 8) (size 9 to 14) (size 15 to 20)
#    0.000    1.500    0.000    4.125    3.500    7.500 
#    0.000    1.250    0.000    0.000    0.000    0.000 
#    0.000    0.000    0.000    0.000    0.000    0.000 
#
# Total GULP energy -357529.406346 kJ/mol
# GULP energy per Si atom -5586.396974 kJ/mol
# Density = 2.162510 g / cm^3
# Si number density = 21.674429 Si / 1000 Ang^3
#
#
#
# Elastic Constant Matrix: (Units=GPa)
#
#
# Indices 1 2 3 4 5 6 
#
# 1 113.5821 42.9480 51.6543 0.0000 0.0000 0.0000
# 2 42.9480 150.3645 36.0193 0.0000 0.0000 0.0000
# 3 51.6543 36.0193 55.2036 0.0000 0.0000 0.0000
# 4 0.0000 0.0000 0.0000 21.5008 0.0000 0.0000
# 5 0.0000 0.0000 0.0000 0.0000 39.4148 0.0000
# 6 0.0000 0.0000 0.0000 0.0000 0.0000 20.5165
#
#
#
# Elastic Compliance Matrix: (Units=1/GPa)
#
#
# Indices 1 2 3 4 5 6 
#
# 1 0.015486 -0.001128 -0.013754 0.000000 0.000000 0.000000
# 2 -0.001128 0.007965 -0.004141 0.000000 0.000000 0.000000
# 3 -0.013754 -0.004141 0.033686 0.000000 0.000000 0.000000
# 4 0.000000 0.000000 0.000000 0.046510 0.000000 0.000000
# 5 0.000000 0.000000 0.000000 0.000000 0.025371 0.000000
# 6 0.000000 0.000000 0.000000 0.000000 0.000000 0.048741
#
#
# Mechanical properties :
#
#
# Convention : Reuss Voigt Hill
#
# Bulk Modulus (GPa) = 52.38278 64.48815 58.43546
# Shear Modulus (GPa) = 22.50541 28.85501 25.68021
#
# Velocity S-wave (km/s) = 3.22582 3.65265 3.44585
# Velocity P-wave (km/s) = 6.17212 6.89977 6.54606
#
# Compressibility (1/GPa) = 0.01909024
#
# Stress axis : x y z
#
# Youngs Moduli (GPa) = 64.57536 125.55285 29.68579
#
# Poissons Ratio (x) = 0.14168 0.40829
# Poissons Ratio (y) = 0.07287 0.12293
# Poissons Ratio (z) = 0.88816 0.51991
#
# Static dielectric constant tensor:
#      x y z
#    x 1.832450 0.000000 0.000000 
#    y 0.000000 1.777240 0.000000 
#    z 0.000000 0.000000 1.825460 
# 
# From -- ./inp_files/28972.got.cif
#   From: 2010.05.17/outbox.cif.g08.bks.cpg/sg62_15_cif.got.tgz:28972.got - 2010.06.03 15:25:27.
