data_PCOD9466742
_publ_section_title
;
Structure prediction by ZEFSAII (Michael W. Deem and Ramdas Pophale) SiO2 
 PCOD9466742
Probable space group: P N M A
;
_chemical_formula_sum "Si O2"
_cell_formula_units_Z 32
_cell_length_a 14.151342
_cell_length_b 18.166644
_cell_length_c 5.166862
_cell_angle_alpha 90.000000
_cell_angle_beta 90.000000
_cell_angle_gamma 90.000000
_cell_volume 1328.309243
_symmetry_space_group_name_H-M "P N M A"
_symmetry_group_IT_number 62
_symmetry_cell_setting 'orthorhombic'
loop_
_space_group_symop_operation_xyz
x,y,z
1/2-x,-y,1/2+z
1/2+x,1/2-y,1/2-z
-x,1/2+y,-z
-x,-y,-z
1/2+x,y,1/2-z
1/2-x,1/2+y,1/2+z
x,1/2-y,z
loop_
_atom_site_type_symbol
_atom_site_label
_atom_site_fract_x
_atom_site_fract_y
_atom_site_fract_z
Si Si1 0.470329 0.662588 0.099237
Si Si2 0.779185 0.834915 0.679575
Si Si3 0.427632 0.398205 0.401686
Si Si4 0.304399 0.973160 0.499863
O O1 0.490332 0.750000 0.080837
O O2 0.359432 0.652950 0.037052
O O3 0.524858 0.620179 0.870852
O O4 0.508593 0.632731 0.368899
O O5 0.782555 0.750000 0.758278
O O6 0.674093 0.856601 0.592166
O O7 0.805889 0.889289 0.912550
O O8 0.399452 0.483764 0.428708
O O9 0.235329 0.987168 0.259395
#
# Coordination Sequence:
#
# PCOD9466742 Si02
#       4
#     8   8   8   8
#     4  11  24  40  64  98 127 166 219 255 309 386
#     4  10  23  43  67  94 129 168 209 264 318 370
#     4  11  23  42  66  92 131 169 206 264 317 367
#     4  10  22  41  65  94 125 166 216 256 310 383
#
# _framework density 24.090776000000002
#
# number of rings (size 3 to 8) (size 9 to 14) (size 15 to 20)
#    0.000    1.500    0.000    5.250    0.000    8.000 
#    0.000   13.750    0.000    0.000    0.000    0.000 
#    0.000    0.000    0.000    0.000    0.000    0.000 
#
# Total GULP energy -179418.575431 kJ/mol
# GULP energy per Si atom -5606.830482 kJ/mol
# Density = 2.403594 g / cm^3
# Si number density = 24.090776 Si / 1000 Ang^3
#
#
#
# Elastic Constant Matrix: (Units=GPa)
#
#
# Indices 1 2 3 4 5 6 
#
# 1 132.3348 58.3482 21.6385 0.0000 0.0000 0.0000
# 2 58.3482 160.4379 45.7724 0.0000 0.0000 0.0000
# 3 21.6385 45.7724 120.4473 0.0000 0.0000 0.0000
# 4 0.0000 0.0000 0.0000 27.2976 0.0000 0.0000
# 5 0.0000 0.0000 0.0000 0.0000 37.0744 0.0000
# 6 0.0000 0.0000 0.0000 0.0000 0.0000 33.8453
#
#
#
# Elastic Compliance Matrix: (Units=1/GPa)
#
#
# Indices 1 2 3 4 5 6 
#
# 1 0.009019 -0.003160 -0.000419 0.000000 0.000000 0.000000
# 2 -0.003160 0.008098 -0.002510 0.000000 0.000000 0.000000
# 3 -0.000419 -0.002510 0.009331 0.000000 0.000000 0.000000
# 4 0.000000 0.000000 0.000000 0.036633 0.000000 0.000000
# 5 0.000000 0.000000 0.000000 0.000000 0.026973 0.000000
# 6 0.000000 0.000000 0.000000 0.000000 0.000000 0.029546
#
#
# Mechanical properties :
#
#
# Convention : Reuss Voigt Hill
#
# Bulk Modulus (GPa) = 70.07816 73.85979 71.96897
# Shear Modulus (GPa) = 36.62047 38.80753 37.71400
#
# Velocity S-wave (km/s) = 3.90308 4.01794 3.96093
# Velocity P-wave (km/s) = 7.03309 7.22846 7.13145
#
# Compressibility (1/GPa) = 0.01426978
#
# Stress axis : x y z
#
# Youngs Moduli (GPa) = 110.88265 123.48272 107.16430
#
# Poissons Ratio (x) = 0.39024 0.04493
# Poissons Ratio (y) = 0.35042 0.26896
# Poissons Ratio (z) = 0.04648 0.30991
#
# Static dielectric constant tensor:
#      x y z
#    x 1.947080 0.000000 0.000000 
#    y 0.000000 1.936130 0.000000 
#    z 0.000000 0.000000 1.848540 
# 
# From -- ./inp_files/923.got.cif
#   From: 2010.05.17/outbox.cif.g08.bks.cpg/sg62_1_cif.got.tgz:923.got - 2010.06.03 15:25:27.
