data_PCOD9466159
_publ_section_title
;
Structure prediction by ZEFSAII (Michael W. Deem and Ramdas Pophale) SiO2 
 PCOD9466159
Probable space group: P N M A
;
_chemical_formula_sum "Si O2"
_cell_formula_units_Z 64
_cell_length_a 8.971985
_cell_length_b 31.079971
_cell_length_c 10.798558
_cell_angle_alpha 90.000000
_cell_angle_beta 90.000000
_cell_angle_gamma 90.000000
_cell_volume 3011.167463
_symmetry_space_group_name_H-M "P N M A"
_symmetry_group_IT_number 62
_symmetry_cell_setting 'orthorhombic'
loop_
_space_group_symop_operation_xyz
x,y,z
1/2-x,-y,1/2+z
1/2+x,1/2-y,1/2-z
-x,1/2+y,-z
-x,-y,-z
1/2+x,y,1/2-z
1/2-x,1/2+y,1/2+z
x,1/2-y,z
loop_
_atom_site_type_symbol
_atom_site_label
_atom_site_fract_x
_atom_site_fract_y
_atom_site_fract_z
Si Si1 0.619061 0.065787 0.423114
Si Si2 0.823634 0.430231 0.220805
Si Si3 0.471068 0.198084 0.168542
Si Si4 0.135684 0.301136 0.082898
Si Si5 0.511241 0.640188 0.401557
Si Si6 0.220061 0.024679 0.851402
Si Si7 0.316335 0.633930 0.972582
Si Si8 0.514063 0.419362 0.827182
O O1 0.495573 0.063423 0.315637
O O2 0.775206 0.078314 0.360868
O O3 0.552213 0.100734 0.516394
O O4 0.647711 0.025286 0.511615
O O5 0.750265 0.476045 0.186257
O O6 0.757440 0.391839 0.140337
O O7 0.491823 0.250000 0.157932
O O8 0.517574 0.185795 0.309416
O O9 0.300539 0.187997 0.133331
O O10 0.580121 0.171757 0.078797
O O11 0.128836 0.250000 0.072277
O O12 0.093045 0.321762 0.951576
O O13 0.679960 0.649896 0.442132
O O14 0.508773 0.621932 0.263112
O O15 0.114346 0.046587 0.748801
O O16 0.362589 0.055608 0.855245
O O17 0.406637 0.598998 0.052246
#
# Coordination Sequence:
#
# PCOD9466159 Si02
#       8
#     8   8   8   8   8   8   8   8
#     4  10  24  39  60  90 123 166 209 273 322 378
#     4  11  24  40  62  92 127 163 222 270 324 385
#     4  10  22  39  64  99 135 169 204 260 325 390
#     4  10  21  39  67  98 132 168 207 258 325 387
#     4  10  22  42  61  90 124 166 215 263 316 383
#     4  11  24  42  64  84 129 169 217 272 329 379
#     4  11  24  39  63  92 126 168 218 264 320 387
#     4  11  24  42  63  89 121 176 219 263 324 386
#
# _framework density 21.254214999999999
#
# number of rings (size 3 to 8) (size 9 to 14) (size 15 to 20)
#    0.000    1.500    1.250    2.625    7.000    4.000 
#    0.000    0.625    0.000    0.000    0.000    0.000 
#    0.000    0.000    0.000    0.000    0.000    0.000 
#
# Total GULP energy -357709.053442 kJ/mol
# GULP energy per Si atom -5589.203960 kJ/mol
# Density = 2.120584 g / cm^3
# Si number density = 21.254215 Si / 1000 Ang^3
#
#
#
# Elastic Constant Matrix: (Units=GPa)
#
#
# Indices 1 2 3 4 5 6 
#
# 1 104.1015 32.3944 14.6653 0.0000 0.0000 0.0000
# 2 32.3944 62.6322 3.7466 0.0000 0.0000 0.0000
# 3 14.6653 3.7466 14.1102 0.0000 0.0000 0.0000
# 4 0.0000 0.0000 0.0000 20.4864 0.0000 0.0000
# 5 0.0000 0.0000 0.0000 0.0000 22.6722 0.0000
# 6 0.0000 0.0000 0.0000 0.0000 0.0000 39.6308
#
#
#
# Elastic Compliance Matrix: (Units=1/GPa)
#
#
# Indices 1 2 3 4 5 6 
#
# 1 0.013213 -0.006110 -0.012111 0.000000 0.000000 0.000000
# 2 -0.006110 0.019049 0.001292 0.000000 0.000000 0.000000
# 3 -0.012111 0.001292 0.083115 0.000000 0.000000 0.000000
# 4 0.000000 0.000000 0.000000 0.048813 0.000000 0.000000
# 5 0.000000 0.000000 0.000000 0.000000 0.044107 0.000000
# 6 0.000000 0.000000 0.000000 0.000000 0.000000 0.025233
#
#
# Mechanical properties :
#
#
# Convention : Reuss Voigt Hill
#
# Bulk Modulus (GPa) = 12.26691 31.38406 21.82549
# Shear Modulus (GPa) = 16.97446 25.22705 21.10076
#
# Velocity S-wave (km/s) = 2.82909 3.44891 3.15426
# Velocity P-wave (km/s) = 4.05656 5.53697 4.85354
#
# Compressibility (1/GPa) = 0.08152009
#
# Stress axis : x y z
#
# Youngs Moduli (GPa) = 75.68113 52.49626 12.03155
#
# Poissons Ratio (x) = 0.32074 0.14571
# Poissons Ratio (y) = 0.46239 -0.01555
# Poissons Ratio (z) = 0.91656 -0.06783
#
# Static dielectric constant tensor:
#      x y z
#    x 1.795480 0.000000 0.000000 
#    y 0.000000 1.755610 0.000000 
#    z 0.000000 0.000000 1.764120 
# 
# From -- ./inp_files/11578.got.cif
#   From: 2010.05.17/outbox.cif.g08.bks.cpg/sg62_6_cif.got.tgz:11578.got - 2010.06.03 15:25:27.
