data_PCOD9466513
_publ_section_title
;
Structure prediction by ZEFSAII (Michael W. Deem and Ramdas Pophale) SiO2 
 PCOD9466513
Probable space group: P N M A
;
_chemical_formula_sum "Si O2"
_cell_formula_units_Z 32
_cell_length_a 11.857290
_cell_length_b 16.300365
_cell_length_c 8.099820
_cell_angle_alpha 90.000000
_cell_angle_beta 90.000000
_cell_angle_gamma 90.000000
_cell_volume 1565.518265
_symmetry_space_group_name_H-M "P N M A"
_symmetry_group_IT_number 62
_symmetry_cell_setting 'orthorhombic'
loop_
_space_group_symop_operation_xyz
x,y,z
1/2-x,-y,1/2+z
1/2+x,1/2-y,1/2-z
-x,1/2+y,-z
-x,-y,-z
1/2+x,y,1/2-z
1/2-x,1/2+y,1/2+z
x,1/2-y,z
loop_
_atom_site_type_symbol
_atom_site_label
_atom_site_fract_x
_atom_site_fract_y
_atom_site_fract_z
Si Si1 0.572423 0.916829 0.012655
Si Si2 0.517391 0.905718 0.664735
Si Si3 0.378500 0.158831 0.651485
Si Si4 0.188493 0.003297 0.028793
O O1 0.542155 0.869942 0.843484
O O2 0.702179 0.945493 0.007854
O O3 0.558439 0.866989 0.180972
O O4 0.500000 0.000000 0.000000
O O5 0.538968 0.847934 0.507426
O O6 0.609831 0.978262 0.627897
O O7 0.395137 0.946522 0.648637
O O8 0.331967 0.250000 0.665315
O O9 0.289958 0.086033 0.610110
#
# Coordination Sequence:
#
# PCOD9466513 Si02
#       4
#     8   8   8   8
#     4  12  20  36  65  88 113 158 208 237 288 365
#     4   9  20  37  59  82 116 159 194 230 299 351
#     4  10  22  38  60  92 122 147 197 257 301 341
#     4   9  19  39  59  86 117 154 199 237 288 365
#
# _framework density 20.440517
#
# number of rings (size 3 to 8) (size 9 to 14) (size 15 to 20)
#    1.500    0.500    2.500    1.500    0.000    1.000 
#    0.000    5.000    0.000    3.000    0.000    0.000 
#    0.000    0.000    0.000    0.000    0.000    0.000 
#
# Total GULP energy -178177.431843 kJ/mol
# GULP energy per Si atom -5568.044745 kJ/mol
# Density = 2.039399 g / cm^3
# Si number density = 20.440517 Si / 1000 Ang^3
#
#
#
# Elastic Constant Matrix: (Units=GPa)
#
#
# Indices 1 2 3 4 5 6 
#
# 1 72.1694 9.4589 7.2924 0.0000 0.0000 0.0000
# 2 9.4589 69.1714 28.2532 0.0000 0.0000 0.0000
# 3 7.2924 28.2532 162.3404 0.0000 0.0000 0.0000
# 4 0.0000 0.0000 0.0000 8.6276 0.0000 0.0000
# 5 0.0000 0.0000 0.0000 0.0000 6.3837 0.0000
# 6 0.0000 0.0000 0.0000 0.0000 0.0000 7.0078
#
#
#
# Elastic Compliance Matrix: (Units=1/GPa)
#
#
# Indices 1 2 3 4 5 6 
#
# 1 0.014125 -0.001800 -0.000321 0.000000 0.000000 0.000000
# 2 -0.001800 0.015793 -0.002668 0.000000 0.000000 0.000000
# 3 -0.000321 -0.002668 0.006639 0.000000 0.000000 0.000000
# 4 0.000000 0.000000 0.000000 0.115907 0.000000 0.000000
# 5 0.000000 0.000000 0.000000 0.000000 0.156649 0.000000
# 6 0.000000 0.000000 0.000000 0.000000 0.000000 0.142699
#
#
# Mechanical properties :
#
#
# Convention : Reuss Voigt Hill
#
# Bulk Modulus (GPa) = 37.06764 43.74335 40.40550
# Shear Modulus (GPa) = 10.62966 21.64893 16.13929
#
# Velocity S-wave (km/s) = 2.28289 3.25794 2.81298
# Velocity P-wave (km/s) = 5.01224 5.96649 5.51006
#
# Compressibility (1/GPa) = 0.02697771
#
# Stress axis : x y z
#
# Youngs Moduli (GPa) = 70.79800 63.32067 150.63444
#
# Poissons Ratio (x) = 0.11400 0.04838
# Poissons Ratio (y) = 0.12746 0.40184
# Poissons Ratio (z) = 0.02274 0.16892
#
# Static dielectric constant tensor:
#      x y z
#    x 1.710540 0.000000 0.000000 
#    y 0.000000 1.719560 0.000000 
#    z 0.000000 0.000000 1.842090 
# 
# From -- ./inp_files/4961.got.cif
#   From: 2010.05.17/outbox.cif.g08.bks.cpg/sg62_3_cif.got.tgz:4961.got - 2010.06.03 15:25:27.
