data_PCOD9466579
_publ_section_title
;
Structure prediction by ZEFSAII (Michael W. Deem and Ramdas Pophale) SiO2 
 PCOD9466579
Probable space group: P N M A
;
_chemical_formula_sum "Si O2"
_cell_formula_units_Z 48
_cell_length_a 17.725398
_cell_length_b 20.827121
_cell_length_c 6.539938
_cell_angle_alpha 90.000000
_cell_angle_beta 90.000000
_cell_angle_gamma 90.000000
_cell_volume 2414.342430
_symmetry_space_group_name_H-M "P N M A"
_symmetry_group_IT_number 62
_symmetry_cell_setting 'orthorhombic'
loop_
_space_group_symop_operation_xyz
x,y,z
1/2-x,-y,1/2+z
1/2+x,1/2-y,1/2-z
-x,1/2+y,-z
-x,-y,-z
1/2+x,y,1/2-z
1/2-x,1/2+y,1/2+z
x,1/2-y,z
loop_
_atom_site_type_symbol
_atom_site_label
_atom_site_fract_x
_atom_site_fract_y
_atom_site_fract_z
Si Si1 0.000357 0.175398 0.239562
Si Si2 0.348901 0.989951 0.674682
Si Si3 0.872521 0.325232 0.561823
Si Si4 0.603813 0.398523 0.960770
Si Si5 0.974959 0.088777 0.855971
Si Si6 0.732057 0.094724 0.661707
O O1 0.007040 0.250000 0.178503
O O2 0.919842 0.165797 0.352966
O O3 0.063376 0.156543 0.406520
O O4 0.005327 0.126126 0.052891
O O5 0.422692 0.027789 0.596573
O O6 0.283908 0.041410 0.726832
O O7 0.370587 0.953418 0.882455
O O8 0.316718 0.940730 0.510303
O O9 0.870178 0.250000 0.605482
O O10 0.919698 0.361902 0.736124
O O11 0.789732 0.355445 0.560517
O O12 0.541549 0.425661 0.803267
O O13 0.675034 0.376147 0.827827
#
# Coordination Sequence:
#
# PCOD9466579 Si02
#       6
#     8   8   8   8   8   8
#     4  10  22  41  65  91 122 160 213 261 306 366
#     4  11  23  39  60  90 126 164 204 252 313 377
#     4   9  21  40  62  89 119 161 210 255 308 372
#     4  11  23  40  59  92 124 163 205 256 313 364
#     4  10  22  39  66  89 119 161 209 258 312 366
#     4  11  23  37  62  89 129 166 202 257 311 376
#
# _framework density 19.881191000000001
#
# number of rings (size 3 to 8) (size 9 to 14) (size 15 to 20)
#    0.000    1.667    1.667    2.000    2.333    5.333 
#    0.000    2.500    0.000    0.000    0.000    0.000 
#    0.000    0.000    0.000    0.000    0.000    0.000 
#
# Total GULP energy -268317.225534 kJ/mol
# GULP energy per Si atom -5589.942199 kJ/mol
# Density = 1.983594 g / cm^3
# Si number density = 19.881191 Si / 1000 Ang^3
#
#
#
# Elastic Constant Matrix: (Units=GPa)
#
#
# Indices 1 2 3 4 5 6 
#
# 1 106.3221 21.9952 40.9225 0.0000 0.0000 0.0000
# 2 21.9952 28.1021 16.0170 0.0000 0.0000 0.0000
# 3 40.9225 16.0170 85.5931 0.0000 0.0000 0.0000
# 4 0.0000 0.0000 0.0000 21.6360 0.0000 0.0000
# 5 0.0000 0.0000 0.0000 0.0000 25.8237 0.0000
# 6 0.0000 0.0000 0.0000 0.0000 0.0000 15.3038
#
#
#
# Elastic Compliance Matrix: (Units=1/GPa)
#
#
# Indices 1 2 3 4 5 6 
#
# 1 0.012728 -0.007269 -0.004725 0.000000 0.000000 0.000000
# 2 -0.007269 0.043984 -0.004755 0.000000 0.000000 0.000000
# 3 -0.004725 -0.004755 0.014832 0.000000 0.000000 0.000000
# 4 0.000000 0.000000 0.000000 0.046219 0.000000 0.000000
# 5 0.000000 0.000000 0.000000 0.000000 0.038724 0.000000
# 6 0.000000 0.000000 0.000000 0.000000 0.000000 0.065343
#
#
# Mechanical properties :
#
#
# Convention : Reuss Voigt Hill
#
# Bulk Modulus (GPa) = 26.28437 41.98741 34.13589
# Shear Modulus (GPa) = 18.65597 21.95820 20.30709
#
# Velocity S-wave (km/s) = 3.06661 3.32696 3.19944
# Velocity P-wave (km/s) = 5.07821 5.99360 5.55479
#
# Compressibility (1/GPa) = 0.03804542
#
# Stress axis : x y z
#
# Youngs Moduli (GPa) = 78.56872 22.73551 67.42122
#
# Poissons Ratio (x) = 0.16526 0.31856
# Poissons Ratio (y) = 0.57110 0.32062
# Poissons Ratio (z) = 0.37124 0.10812
#
# Static dielectric constant tensor:
#      x y z
#    x 1.707150 0.000000 0.000000 
#    y 0.000000 1.670540 0.000000 
#    z 0.000000 0.000000 1.683820 
# 
# From -- ./inp_files/1699.got.cif
#   From: 2010.05.17/outbox.cif.g08.bks.cpg/sg62_1_cif.got.tgz:1699.got - 2010.06.03 15:25:27.
