data_PCOD9466400
_publ_section_title
;
Structure prediction by ZEFSAII (Michael W. Deem and Ramdas Pophale) SiO2 
 PCOD9466400
Probable space group: P N M A
;
_chemical_formula_sum "Si O2"
_cell_formula_units_Z 60
_cell_length_a 26.646458
_cell_length_b 12.343170
_cell_length_c 8.499075
_cell_angle_alpha 90.000000
_cell_angle_beta 90.000000
_cell_angle_gamma 90.000000
_cell_volume 2795.360734
_symmetry_space_group_name_H-M "P N M A"
_symmetry_group_IT_number 62
_symmetry_cell_setting 'orthorhombic'
loop_
_space_group_symop_operation_xyz
x,y,z
1/2-x,-y,1/2+z
1/2+x,1/2-y,1/2-z
-x,1/2+y,-z
-x,-y,-z
1/2+x,y,1/2-z
1/2-x,1/2+y,1/2+z
x,1/2-y,z
loop_
_atom_site_type_symbol
_atom_site_label
_atom_site_fract_x
_atom_site_fract_y
_atom_site_fract_z
Si Si1 0.845363 0.627767 0.890507
Si Si2 0.594291 0.549544 0.194448
Si Si3 0.797236 0.624146 0.432839
Si Si4 0.459243 0.370212 0.492374
Si Si5 0.338107 0.250000 0.907357
Si Si6 0.565141 0.410828 0.621092
Si Si7 0.417759 0.868757 0.029067
Si Si8 0.248869 0.429278 0.904865
O O1 0.845317 0.750000 0.822329
O O2 0.865812 0.533338 0.777247
O O3 0.791550 0.599425 0.960933
O O4 0.884050 0.626191 0.037812
O O5 0.561105 0.594836 0.336879
O O6 0.619749 0.652396 0.113378
O O7 0.565525 0.469585 0.076062
O O8 0.782850 0.750000 0.448524
O O9 0.857485 0.617390 0.445702
O O10 0.770153 0.548663 0.560210
O O11 0.778618 0.582884 0.262644
O O12 0.442679 0.250000 0.453526
O O13 0.519193 0.376528 0.508834
O O14 0.437617 0.459024 0.375059
O O15 0.293986 0.344336 0.912784
O O16 0.559709 0.369755 0.796653
O O17 0.427270 0.750000 0.957001
#
# Coordination Sequence:
#
# PCOD9466400 Si02
#       8
#     8   8   8   8   4   8   8   8
#     4  11  21  38  64  94 119 161 215 260 304 366
#     4  11  24  40  63  88 129 168 204 254 314 375
#     4  11  24  42  60  89 124 163 210 256 302 368
#     4  10  21  42  67  94 124 163 205 256 319 384
#     4  12  22  42  56  86 128 166 200 254 304 376
#     4  10  22  40  67  95 124 158 209 262 319 365
#     4  11  22  41  62  91 127 161 206 263 308 360
#     4  12  23  41  63  88 123 169 209 253 315 362
#
# _framework density 21.464136
#
# number of rings (size 3 to 8) (size 9 to 14) (size 15 to 20)
#    0.000    1.067    4.667    2.400    0.000    0.533 
#    2.400    0.667    0.000    0.000    0.000    0.000 
#    0.000    0.000    0.000    0.000    0.000    0.000 
#
# Total GULP energy -334439.330797 kJ/mol
# GULP energy per Si atom -5573.988847 kJ/mol
# Density = 2.141528 g / cm^3
# Si number density = 21.464136 Si / 1000 Ang^3
#
#
#
# Elastic Constant Matrix: (Units=GPa)
#
#
# Indices 1 2 3 4 5 6 
#
# 1 40.2328 2.0861 -18.4651 0.0000 0.0000 0.0000
# 2 2.0861 166.8942 7.3182 0.0000 0.0000 0.0000
# 3 -18.4651 7.3182 30.0790 0.0000 0.0000 0.0000
# 4 0.0000 0.0000 0.0000 16.7171 0.0000 0.0000
# 5 0.0000 0.0000 0.0000 0.0000 18.0765 0.0000
# 6 0.0000 0.0000 0.0000 0.0000 0.0000 16.5390
#
#
#
# Elastic Compliance Matrix: (Units=1/GPa)
#
#
# Indices 1 2 3 4 5 6 
#
# 1 0.034922 -0.001391 0.021777 0.000000 0.000000 0.000000
# 2 -0.001391 0.006112 -0.002341 0.000000 0.000000 0.000000
# 3 0.021777 -0.002341 0.047184 0.000000 0.000000 0.000000
# 4 0.000000 0.000000 0.000000 0.059819 0.000000 0.000000
# 5 0.000000 0.000000 0.000000 0.000000 0.055320 0.000000
# 6 0.000000 0.000000 0.000000 0.000000 0.000000 0.060463
#
#
# Mechanical properties :
#
#
# Convention : Reuss Voigt Hill
#
# Bulk Modulus (GPa) = 8.04469 24.34273 16.19371
# Shear Modulus (GPa) = 18.57582 26.68431 22.63007
#
# Velocity S-wave (km/s) = 2.94502 3.52974 3.25055
# Velocity P-wave (km/s) = 3.91411 5.28940 4.65285
#
# Compressibility (1/GPa) = 0.12430564
#
# Stress axis : x y z
#
# Youngs Moduli (GPa) = 28.63525 163.61607 21.19376
#
# Poissons Ratio (x) = 0.22766 -0.46153
# Poissons Ratio (y) = 0.03984 0.04962
# Poissons Ratio (z) = -0.62358 0.38305
#
# Static dielectric constant tensor:
#      x y z
#    x 1.763340 0.000000 0.000000 
#    y 0.000000 1.808390 0.000000 
#    z 0.000000 0.000000 1.802660 
# 
# From -- ./inp_files/9911.got.cif
#   From: 2010.05.17/outbox.cif.g08.bks.cpg/sg62_5_cif.got.tgz:9911.got - 2010.06.03 15:25:27.
