data_PCOD9466993
_publ_section_title
;
Structure prediction by ZEFSAII (Michael W. Deem and Ramdas Pophale) SiO2 
 PCOD9466993
Probable space group: P N M A
;
_chemical_formula_sum "Si O2"
_cell_formula_units_Z 48
_cell_length_a 23.800645
_cell_length_b 14.580722
_cell_length_c 5.138821
_cell_angle_alpha 90.000000
_cell_angle_beta 90.000000
_cell_angle_gamma 90.000000
_cell_volume 1783.328074
_symmetry_space_group_name_H-M "P N M A"
_symmetry_group_IT_number 62
_symmetry_cell_setting 'orthorhombic'
loop_
_space_group_symop_operation_xyz
x,y,z
1/2-x,-y,1/2+z
1/2+x,1/2-y,1/2-z
-x,1/2+y,-z
-x,-y,-z
1/2+x,y,1/2-z
1/2-x,1/2+y,1/2+z
x,1/2-y,z
loop_
_atom_site_type_symbol
_atom_site_label
_atom_site_fract_x
_atom_site_fract_y
_atom_site_fract_z
Si Si1 0.509206 0.250000 0.700691
Si Si2 0.728594 0.915593 0.930191
Si Si3 0.655771 0.448872 0.191503
Si Si4 0.372356 0.421126 0.396802
Si Si5 0.555363 0.750000 0.785747
Si Si6 0.532699 0.040483 0.753906
Si Si7 0.237307 0.250000 0.770275
Si Si8 0.658479 0.250000 0.227635
O O1 0.500373 0.250000 0.389233
O O2 0.534744 0.150181 0.752581
O O3 0.456508 0.250000 0.906917
O O4 0.725415 0.837786 0.149366
O O5 0.699110 0.012720 0.980745
O O6 0.794316 0.930676 0.902843
O O7 0.688990 0.887183 0.690689
O O8 0.624220 0.536348 0.313991
O O9 0.628675 0.348235 0.176900
O O10 0.412128 0.337767 0.321494
O O11 0.403318 0.504037 0.238786
O O12 0.500000 0.000000 0.500000
O O13 0.500000 0.000000 0.000000
O O14 0.209658 0.250000 0.485405
O O15 0.185522 0.250000 0.982879
#
# Coordination Sequence:
#
# PCOD9466993 Si02
#       8
#     4   8   8   8   4   8   4   4
#     4  12  24  53  79 108 154 196 248 335 399 468
#     4  11  23  43  67 105 151 200 246 307 368 441
#     4  11  24  43  69 100 156 199 254 302 367 446
#     4  12  27  44  76 114 147 203 255 319 382 477
#     4  12  27  47  80 112 144 192 259 323 400 454
#     4  12  26  50  79 112 151 201 254 327 405 468
#     4  10  23  41  70  98 140 194 257 301 366 424
#     4  10  24  43  67  96 140 208 252 297 359 438
#
# _framework density 26.915965
#
# number of rings (size 3 to 8) (size 9 to 14) (size 15 to 20)
#    0.000    0.667    5.000    1.500    9.333    1.333 
#    0.000    0.833    0.000    0.000    0.000    0.000 
#    0.000    0.000    0.000    0.000    0.000    0.000 
#
# Total GULP energy -267979.326341 kJ/mol
# GULP energy per Si atom -5582.902632 kJ/mol
# Density = 2.685470 g / cm^3
# Si number density = 26.915965 Si / 1000 Ang^3
#
#
#
# Elastic Constant Matrix: (Units=GPa)
#
#
# Indices 1 2 3 4 5 6 
#
# 1 48.1148 6.1415 3.6028 0.0000 0.0000 0.0000
# 2 6.1415 166.4702 -13.2092 0.0000 0.0000 0.0000
# 3 3.6028 -13.2092 96.1634 0.0000 0.0000 0.0000
# 4 0.0000 0.0000 0.0000 32.6049 0.0000 0.0000
# 5 0.0000 0.0000 0.0000 0.0000 34.7343 0.0000
# 6 0.0000 0.0000 0.0000 0.0000 0.0000 34.9774
#
#
#
# Elastic Compliance Matrix: (Units=1/GPa)
#
#
# Indices 1 2 3 4 5 6 
#
# 1 0.020959 -0.000845 -0.000901 0.000000 0.000000 0.000000
# 2 -0.000845 0.006107 0.000871 0.000000 0.000000 0.000000
# 3 -0.000901 0.000871 0.010552 0.000000 0.000000 0.000000
# 4 0.000000 0.000000 0.000000 0.030670 0.000000 0.000000
# 5 0.000000 0.000000 0.000000 0.000000 0.028790 0.000000
# 6 0.000000 0.000000 0.000000 0.000000 0.000000 0.028590
#
#
# Mechanical properties :
#
#
# Convention : Reuss Voigt Hill
#
# Bulk Modulus (GPa) = 27.88026 33.75763 30.81894
# Shear Modulus (GPa) = 35.87434 41.41089 38.64262
#
# Velocity S-wave (km/s) = 3.65475 3.92666 3.79314
# Velocity P-wave (km/s) = 5.30946 5.75563 5.53704
#
# Compressibility (1/GPa) = 0.03586768
#
# Stress axis : x y z
#
# Youngs Moduli (GPa) = 47.71235 163.73784 94.76589
#
# Poissons Ratio (x) = 0.13832 0.08541
# Poissons Ratio (y) = 0.04030 -0.08250
# Poissons Ratio (z) = 0.04300 -0.14254
#
# Static dielectric constant tensor:
#      x y z
#    x 2.169710 0.000000 0.000000 
#    y 0.000000 3.161990 0.000000 
#    z 0.000000 0.000000 2.650370 
# 
# From -- ./inp_files/3230.got.cif
#   From: 2010.05.17/outbox.cif.g08.bks.cpg/sg62_2_cif.got.tgz:3230.got - 2010.06.03 15:25:27.
