data_PCOD9466614
_publ_section_title
;
Structure prediction by ZEFSAII (Michael W. Deem and Ramdas Pophale) SiO2 
 PCOD9466614
Probable space group: P N M A
;
_chemical_formula_sum "Si O2"
_cell_formula_units_Z 48
_cell_length_a 9.714403
_cell_length_b 7.618763
_cell_length_c 26.831519
_cell_angle_alpha 90.000000
_cell_angle_beta 90.000000
_cell_angle_gamma 90.000000
_cell_volume 1985.847251
_symmetry_space_group_name_H-M "P N M A"
_symmetry_group_IT_number 62
_symmetry_cell_setting 'orthorhombic'
loop_
_space_group_symop_operation_xyz
x,y,z
1/2-x,-y,1/2+z
1/2+x,1/2-y,1/2-z
-x,1/2+y,-z
-x,-y,-z
1/2+x,y,1/2-z
1/2-x,1/2+y,1/2+z
x,1/2-y,z
loop_
_atom_site_type_symbol
_atom_site_label
_atom_site_fract_x
_atom_site_fract_y
_atom_site_fract_z
Si Si1 0.552984 0.034676 0.189742
Si Si2 0.958517 0.453657 0.574269
Si Si3 0.016589 0.550094 0.136056
Si Si4 0.660402 0.950551 0.543482
Si Si5 0.234854 0.965605 0.062049
Si Si6 0.843287 0.452039 0.229980
O O1 0.554816 0.250000 0.188130
O O2 0.426338 0.972683 0.223572
O O3 0.696518 0.972717 0.214215
O O4 0.544285 0.967810 0.133900
O O5 0.948609 0.250000 0.559410
O O6 0.824028 0.548142 0.554125
O O7 0.107700 0.523617 0.558396
O O8 0.039742 0.750000 0.152100
O O9 0.157560 0.477322 0.112351
O O10 0.913868 0.548865 0.088455
O O11 0.943589 0.456563 0.181909
O O12 0.612673 0.750000 0.545590
O O13 0.651195 0.020566 0.487162
O O14 0.234067 0.750000 0.062333
O O15 0.815817 0.250000 0.242924
#
# Coordination Sequence:
#
# PCOD9466614 Si02
#       6
#     8   8   8   8   8   8
#     4  10  22  40  61  86 118 154 194 239 290 350
#     4  11  22  39  61  88 121 156 196 244 296 348
#     4  11  22  39  61  88 121 156 196 244 296 348
#     4  11  21  39  62  85 118 159 200 243 292 347
#     4   9  22  39  58  87 122 157 196 243 290 347
#     4  10  22  40  61  86 118 154 194 239 290 350
#
# _framework density 24.171043000000001
#
# number of rings (size 3 to 8) (size 9 to 14) (size 15 to 20)
#    0.000    1.667    1.667    2.500    2.333    0.667 
#    0.000    7.500    0.000    0.000    0.000    0.000 
#    0.000    0.000    0.000    0.000    0.000    0.000 
#
# Total GULP energy -268584.524505 kJ/mol
# GULP energy per Si atom -5595.510927 kJ/mol
# Density = 2.411603 g / cm^3
# Si number density = 24.171043 Si / 1000 Ang^3
#
#
#
# Elastic Constant Matrix: (Units=GPa)
#
#
# Indices 1 2 3 4 5 6 
#
# 1 46.0948 3.1458 10.6823 0.0000 0.0000 0.0000
# 2 3.1458 68.3055 -8.8510 0.0000 0.0000 0.0000
# 3 10.6823 -8.8510 72.3131 0.0000 0.0000 0.0000
# 4 0.0000 0.0000 0.0000 13.6036 0.0000 0.0000
# 5 0.0000 0.0000 0.0000 0.0000 45.2424 0.0000
# 6 0.0000 0.0000 0.0000 0.0000 0.0000-2942.0371
#
#
#
# Elastic Compliance Matrix: (Units=1/GPa)
#
#
# Indices 1 2 3 4 5 6 
#
# 1 0.022613 -0.001498 -0.003524 0.000000 0.000000 0.000000
# 2 -0.001498 0.014975 0.002054 0.000000 0.000000 0.000000
# 3 -0.003524 0.002054 0.014601 0.000000 0.000000 0.000000
# 4 0.000000 0.000000 0.000000 0.073510 0.000000 0.000000
# 5 0.000000 0.000000 0.000000 0.000000 0.022103 0.000000
# 6 0.000000 0.000000 0.000000 0.000000 0.000000 -0.000340
#
#
# Mechanical properties :
#
#
# Convention : Reuss Voigt Hill
#
# Bulk Modulus (GPa) = 21.61977 21.85195 21.73586
# Shear Modulus (GPa) = 29.61807 -564.52246 -267.45219
#
# Velocity S-wave (km/s) = 3.50430 -15.29903 -10.53043
# Velocity P-wave (km/s) = 5.03363 17.40747 11.78310
#
# Compressibility (1/GPa) = 0.04625397
#
# Stress axis : x y z
#
# Youngs Moduli (GPa) = 44.22175 66.77665 68.48965
#
# Poissons Ratio (x) = 0.10004 0.24135
# Poissons Ratio (y) = 0.06625 -0.14069
# Poissons Ratio (z) = 0.15583 -0.13718
#
# Static dielectric constant tensor:
#      x y z
#    x 1.937650 0.000000 0.000000 
#    y 0.000000 1.899050 0.000000 
#    z 0.000000 0.000000 1.878160 
# 
# From -- ./inp_files/32007.got.cif
#   From: 2010.05.17/outbox.cif.g08.bks.cpg/sg62_17_cif.got.tgz:32007.got - 2010.06.03 15:25:27.
