data_PCOD9466821
_publ_section_title
;
Structure prediction by ZEFSAII (Michael W. Deem and Ramdas Pophale) SiO2 
 PCOD9466821
Probable space group: P N M A
;
_chemical_formula_sum "Si O2"
_cell_formula_units_Z 48
_cell_length_a 9.408153
_cell_length_b 28.071896
_cell_length_c 8.824944
_cell_angle_alpha 90.000000
_cell_angle_beta 90.000000
_cell_angle_gamma 90.000000
_cell_volume 2330.709122
_symmetry_space_group_name_H-M "P N M A"
_symmetry_group_IT_number 62
_symmetry_cell_setting 'orthorhombic'
loop_
_space_group_symop_operation_xyz
x,y,z
1/2-x,-y,1/2+z
1/2+x,1/2-y,1/2-z
-x,1/2+y,-z
-x,-y,-z
1/2+x,y,1/2-z
1/2-x,1/2+y,1/2+z
x,1/2-y,z
loop_
_atom_site_type_symbol
_atom_site_label
_atom_site_fract_x
_atom_site_fract_y
_atom_site_fract_z
Si Si1 0.305687 0.884787 0.600072
Si Si2 0.697876 0.193723 0.911221
Si Si3 0.355109 0.517018 0.425884
Si Si4 0.026987 0.124234 0.399883
Si Si5 0.030192 0.192675 0.902691
Si Si6 0.611124 0.036030 0.928354
O O1 0.308764 0.932588 0.498716
O O2 0.393475 0.895541 0.752291
O O3 0.386509 0.840797 0.520053
O O4 0.140880 0.871394 0.627700
O O5 0.703498 0.250000 0.931538
O O6 0.608660 0.184731 0.757896
O O7 0.863165 0.178081 0.897969
O O8 0.611163 0.171058 0.049250
O O9 0.500000 0.500000 0.500000
O O10 0.249977 0.475017 0.474485
O O11 0.364562 0.524303 0.246530
O O12 0.053867 0.088357 0.539566
O O13 0.038597 0.250000 0.935060
O O14 0.500000 0.000000 0.000000
#
# Coordination Sequence:
#
# PCOD9466821 Si02
#       6
#     8   8   8   8   8   8
#     4  12  26  44  66  99 132 179 227 281 346 404
#     4  10  22  42  69 100 133 175 223 278 340 406
#     4  12  27  43  72  98 135 180 223 284 337 412
#     4  12  26  43  68  95 137 176 227 284 339 413
#     4  10  22  42  69  99 134 174 223 278 340 407
#     4  12  25  47  66 100 135 176 229 275 342 404
#
# _framework density 20.59459
#
# number of rings (size 3 to 8) (size 9 to 14) (size 15 to 20)
#    0.000    0.667    1.667    6.000    4.667    2.667 
#    0.000    0.000    0.000    0.000    0.000    0.000 
#    0.000    0.000    0.000    0.000    0.000    0.000 
#
# Total GULP energy -268380.024090 kJ/mol
# GULP energy per Si atom -5591.250502 kJ/mol
# Density = 2.054772 g / cm^3
# Si number density = 20.594590 Si / 1000 Ang^3
#
#
#
# Elastic Constant Matrix: (Units=GPa)
#
#
# Indices 1 2 3 4 5 6 
#
# 1 186.3653 29.0186 32.5955 0.0000 0.0000 0.0000
# 2 29.0186 46.1709 18.2629 0.0000 0.0000 0.0000
# 3 32.5955 18.2629 113.4551 0.0000 0.0000 0.0000
# 4 0.0000 0.0000 0.0000 39.6091 0.0000 0.0000
# 5 0.0000 0.0000 0.0000 0.0000 28.9928 0.0000
# 6 0.0000 0.0000 0.0000 0.0000 0.0000 35.2822
#
#
#
# Elastic Compliance Matrix: (Units=1/GPa)
#
#
# Indices 1 2 3 4 5 6 
#
# 1 0.006100 -0.003354 -0.001213 0.000000 0.000000 0.000000
# 2 -0.003354 0.024976 -0.003057 0.000000 0.000000 0.000000
# 3 -0.001213 -0.003057 0.009654 0.000000 0.000000 0.000000
# 4 0.000000 0.000000 0.000000 0.025247 0.000000 0.000000
# 5 0.000000 0.000000 0.000000 0.000000 0.034491 0.000000
# 6 0.000000 0.000000 0.000000 0.000000 0.000000 0.028343
#
#
# Mechanical properties :
#
#
# Convention : Reuss Voigt Hill
#
# Bulk Modulus (GPa) = 39.24136 56.19391 47.71764
# Shear Modulus (GPa) = 32.77544 38.51779 35.64662
#
# Velocity S-wave (km/s) = 3.99364 4.32937 4.16489
# Velocity P-wave (km/s) = 6.35304 7.23438 6.80799
#
# Compressibility (1/GPa) = 0.02548331
#
# Stress axis : x y z
#
# Youngs Moduli (GPa) = 163.92923 40.03850 103.57884
#
# Poissons Ratio (x) = 0.13430 0.12560
# Poissons Ratio (y) = 0.54987 0.31661
# Poissons Ratio (z) = 0.19878 0.12239
#
# Static dielectric constant tensor:
#      x y z
#    x 1.696620 0.000000 0.000000 
#    y 0.000000 1.782600 0.000000 
#    z 0.000000 0.000000 1.737380 
# 
# From -- ./inp_files/4547.got.cif
#   From: 2010.05.17/outbox.cif.g08.bks.cpg/sg62_3_cif.got.tgz:4547.got - 2010.06.03 15:25:27.
