data_PCOD9466307
_publ_section_title
;
Structure prediction by ZEFSAII (Michael W. Deem and Ramdas Pophale) SiO2 
 PCOD9466307
Probable space group: P N M A
;
_chemical_formula_sum "Si O2"
_cell_formula_units_Z 32
_cell_length_a 29.789119
_cell_length_b 8.362946
_cell_length_c 5.186043
_cell_angle_alpha 90.000000
_cell_angle_beta 90.000000
_cell_angle_gamma 90.000000
_cell_volume 1291.971892
_symmetry_space_group_name_H-M "P N M A"
_symmetry_group_IT_number 62
_symmetry_cell_setting 'orthorhombic'
loop_
_space_group_symop_operation_xyz
x,y,z
1/2-x,-y,1/2+z
1/2+x,1/2-y,1/2-z
-x,1/2+y,-z
-x,-y,-z
1/2+x,y,1/2-z
1/2-x,1/2+y,1/2+z
x,1/2-y,z
loop_
_atom_site_type_symbol
_atom_site_label
_atom_site_fract_x
_atom_site_fract_y
_atom_site_fract_z
Si Si1 0.166251 0.575839 0.358510
Si Si2 0.247910 0.250000 0.005162
Si Si3 0.687222 0.250000 0.983461
Si Si4 0.050816 0.441505 0.492691
Si Si5 0.392917 0.555878 0.480575
O O1 0.146269 0.750000 0.422480
O O2 0.218271 0.603868 0.439336
O O3 0.156793 0.406768 0.490460
O O4 0.153045 0.536383 0.061643
O O5 0.223538 0.250000 0.281053
O O6 0.211164 0.250000 0.786111
O O7 0.049969 0.250000 0.513640
O O8 0.075238 0.482712 0.226010
O O9 0.000000 0.500000 0.500000
O O10 0.079387 0.502904 0.735575
O O11 0.386503 0.750000 0.474377
#
# Coordination Sequence:
#
# PCOD9466307 Si02
#       5
#     8   4   4   8   8
#     4  10  24  41  66  95 122 172 210 256 317 373
#     4  10  26  40  68  90 125 166 215 254 324 366
#     4  12  22  48  60  92 131 162 205 278 304 370
#     4  10  22  38  63  89 121 162 201 248 308 363
#     4  10  21  41  59  87 125 162 200 252 309 363
#
# _framework density 24.768340999999999
#
# number of rings (size 3 to 8) (size 9 to 14) (size 15 to 20)
#    0.750    1.000    1.250    2.250    0.000    6.000 
#    0.000    0.000    0.000    0.000    0.000    0.000 
#    0.000    0.000    0.000    0.000    0.000    0.000 
#
# Total GULP energy -178842.092687 kJ/mol
# GULP energy per Si atom -5588.815396 kJ/mol
# Density = 2.471197 g / cm^3
# Si number density = 24.768341 Si / 1000 Ang^3
#
#
#
# Elastic Constant Matrix: (Units=GPa)
#
#
# Indices 1 2 3 4 5 6 
#
# 1 137.3843 19.2930 74.0876 0.0000 0.0000 0.0000
# 2 19.2930 147.0493 25.6072 0.0000 0.0000 0.0000
# 3 74.0876 25.6072 157.3298 0.0000 0.0000 0.0000
# 4 0.0000 0.0000 0.0000 24.4061 0.0000 0.0000
# 5 0.0000 0.0000 0.0000 0.0000 44.7705 0.0000
# 6 0.0000 0.0000 0.0000 0.0000 0.0000 44.8803
#
#
#
# Elastic Compliance Matrix: (Units=1/GPa)
#
#
# Indices 1 2 3 4 5 6 
#
# 1 0.009791 -0.000496 -0.004530 0.000000 0.000000 0.000000
# 2 -0.000496 0.007024 -0.000910 0.000000 0.000000 0.000000
# 3 -0.004530 -0.000910 0.008637 0.000000 0.000000 0.000000
# 4 0.000000 0.000000 0.000000 0.040973 0.000000 0.000000
# 5 0.000000 0.000000 0.000000 0.000000 0.022336 0.000000
# 6 0.000000 0.000000 0.000000 0.000000 0.000000 0.022281
#
#
# Mechanical properties :
#
#
# Convention : Reuss Voigt Hill
#
# Bulk Modulus (GPa) = 73.63001 75.52655 74.57828
# Shear Modulus (GPa) = 39.23340 44.32974 41.78157
#
# Velocity S-wave (km/s) = 3.98429 4.23516 4.11164
# Velocity P-wave (km/s) = 7.13849 7.38071 7.26061
#
# Compressibility (1/GPa) = 0.01358142
#
# Stress axis : x y z
#
# Youngs Moduli (GPa) = 102.12962 142.37078 115.77502
#
# Poissons Ratio (x) = 0.07058 0.52448
# Poissons Ratio (y) = 0.05063 0.10533
# Poissons Ratio (z) = 0.46267 0.12952
#
# Static dielectric constant tensor:
#      x y z
#    x 1.963540 0.000000 0.000000 
#    y 0.000000 1.976610 0.000000 
#    z 0.000000 0.000000 2.050770 
# 
# From -- ./inp_files/3430.got.cif
#   From: 2010.05.17/outbox.cif.g08.bks.cpg/sg62_2_cif.got.tgz:3430.got - 2010.06.03 15:25:27.
