data_PCOD9466276
_publ_section_title
;
Structure prediction by ZEFSAII (Michael W. Deem and Ramdas Pophale) SiO2 
 PCOD9466276
Probable space group: P N M A
;
_chemical_formula_sum "Si O2"
_cell_formula_units_Z 48
_cell_length_a 19.273031
_cell_length_b 8.783254
_cell_length_c 15.349380
_cell_angle_alpha 90.000000
_cell_angle_beta 90.000000
_cell_angle_gamma 90.000000
_cell_volume 2598.341920
_symmetry_space_group_name_H-M "P N M A"
_symmetry_group_IT_number 62
_symmetry_cell_setting 'orthorhombic'
loop_
_space_group_symop_operation_xyz
x,y,z
1/2-x,-y,1/2+z
1/2+x,1/2-y,1/2-z
-x,1/2+y,-z
-x,-y,-z
1/2+x,y,1/2-z
1/2-x,1/2+y,1/2+z
x,1/2-y,z
loop_
_atom_site_type_symbol
_atom_site_label
_atom_site_fract_x
_atom_site_fract_y
_atom_site_fract_z
Si Si1 0.822696 0.432733 0.624999
Si Si2 0.670256 0.931304 0.623324
Si Si3 0.926798 0.067383 0.468246
Si Si4 0.076921 0.567870 0.214222
Si Si5 0.079738 0.067716 0.721667
Si Si6 0.425288 0.568641 0.525933
O O1 0.810880 0.250000 0.625266
O O2 0.749893 0.517401 0.624482
O O3 0.868694 0.469628 0.540197
O O4 0.868344 0.469770 0.710270
O O5 0.664192 0.750000 0.620900
O O6 0.631415 0.995575 0.708454
O O7 0.631308 0.002048 0.540050
O O8 0.932493 0.250000 0.463128
O O9 0.909435 0.999154 0.374228
O O10 0.000000 0.000000 0.500000
O O11 0.080187 0.750000 0.198088
O O12 0.089906 0.480588 0.124720
O O13 0.999310 0.534136 0.248456
O O14 0.087831 0.250000 0.720440
O O15 0.500000 0.500000 0.500000
O O16 0.427937 0.750000 0.517579
#
# Coordination Sequence:
#
# PCOD9466276 Si02
#       6
#     8   8   8   8   8   8
#     4  10  23  44  65  91 129 169 207 260 317 372
#     4  12  26  43  64  94 128 167 211 262 318 377
#     4  11  22  39  65  96 129 167 215 262 313 375
#     4  10  21  40  66  94 125 165 211 258 313 376
#     4  11  22  40  66  95 127 167 209 259 316 376
#     4  12  24  40  65  95 127 166 211 262 314 375
#
# _framework density 18.473319
#
# number of rings (size 3 to 8) (size 9 to 14) (size 15 to 20)
#    0.000    1.000    3.333    4.000    0.000    4.000 
#    0.000    0.000    0.000    0.000    0.000    0.000 
#    0.000    0.000    0.000    0.000    0.000    0.000 
#
# Total GULP energy -268534.496926 kJ/mol
# GULP energy per Si atom -5594.468686 kJ/mol
# Density = 1.843127 g / cm^3
# Si number density = 18.473319 Si / 1000 Ang^3
#
#
#
# Elastic Constant Matrix: (Units=GPa)
#
#
# Indices 1 2 3 4 5 6 
#
# 1 159.5220 94.9205 97.0980 0.0000 0.0000 0.0000
# 2 94.9205 117.5647 101.7946 0.0000 0.0000 0.0000
# 3 97.0980 101.7946 200.1634 0.0000 0.0000 0.0000
# 4 0.0000 0.0000 0.0000 37.2684 0.0000 0.0000
# 5 0.0000 0.0000 0.0000 0.0000 31.5090 0.0000
# 6 0.0000 0.0000 0.0000 0.0000 0.0000 33.2408
#
#
#
# Elastic Compliance Matrix: (Units=1/GPa)
#
#
# Indices 1 2 3 4 5 6 
#
# 1 0.012361 -0.008556 -0.001645 0.000000 0.000000 0.000000
# 2 -0.008556 0.021120 -0.006591 0.000000 0.000000 0.000000
# 3 -0.001645 -0.006591 0.009146 0.000000 0.000000 0.000000
# 4 0.000000 0.000000 0.000000 0.026832 0.000000 0.000000
# 5 0.000000 0.000000 0.000000 0.000000 0.031737 0.000000
# 6 0.000000 0.000000 0.000000 0.000000 0.000000 0.030083
#
#
# Mechanical properties :
#
#
# Convention : Reuss Voigt Hill
#
# Bulk Modulus (GPa) = 110.56955 118.31960 114.44458
# Shear Modulus (GPa) = 29.78369 32.63278 31.20823
#
# Velocity S-wave (km/s) = 4.01965 4.20751 4.11465
# Velocity P-wave (km/s) = 9.02923 9.36975 9.20106
#
# Compressibility (1/GPa) = 0.00904408
#
# Stress axis : x y z
#
# Youngs Moduli (GPa) = 80.89964 47.34811 109.34120
#
# Poissons Ratio (x) = 0.40509 0.17989
# Poissons Ratio (y) = 0.69215 0.72062
# Poissons Ratio (z) = 0.13310 0.31205
#
# Static dielectric constant tensor:
#      x y z
#    x 1.601700 0.000000 0.000000 
#    y 0.000000 1.617280 0.000000 
#    z 0.000000 0.000000 1.613760 
# 
# From -- ./inp_files/19577.got.cif
#   From: 2010.05.17/outbox.cif.g08.bks.cpg/sg62_10_cif.got.tgz:19577.got - 2010.06.03 15:25:27.
