data_PCOD9466201
_publ_section_title
;
Structure prediction by ZEFSAII (Michael W. Deem and Ramdas Pophale) SiO2 
 PCOD9466201
Probable space group: P N M A
;
_chemical_formula_sum "Si O2"
_cell_formula_units_Z 48
_cell_length_a 22.379148
_cell_length_b 7.987066
_cell_length_c 12.591019
_cell_angle_alpha 90.000000
_cell_angle_beta 90.000000
_cell_angle_gamma 90.000000
_cell_volume 2250.565727
_symmetry_space_group_name_H-M "P N M A"
_symmetry_group_IT_number 62
_symmetry_cell_setting 'orthorhombic'
loop_
_space_group_symop_operation_xyz
x,y,z
1/2-x,-y,1/2+z
1/2+x,1/2-y,1/2-z
-x,1/2+y,-z
-x,-y,-z
1/2+x,y,1/2-z
1/2-x,1/2+y,1/2+z
x,1/2-y,z
loop_
_atom_site_type_symbol
_atom_site_label
_atom_site_fract_x
_atom_site_fract_y
_atom_site_fract_z
Si Si1 0.932414 0.945977 0.523252
Si Si2 0.302436 0.955591 0.572081
Si Si3 0.861074 0.952285 0.149398
Si Si4 0.503816 0.450783 0.623103
Si Si5 0.171907 0.552866 0.624482
Si Si6 0.610305 0.446382 0.246210
O O1 0.936911 0.750000 0.543243
O O2 0.902675 0.022428 0.630206
O O3 0.887163 0.974818 0.426607
O O4 0.000000 0.000000 0.500000
O O5 0.303442 0.750000 0.573611
O O6 0.335631 0.007945 0.464285
O O7 0.233735 0.010334 0.574098
O O8 0.338215 0.015974 0.676390
O O9 0.858784 0.750000 0.151060
O O10 0.930322 0.001860 0.161034
O O11 0.825875 0.020193 0.250044
O O12 0.500000 0.500000 0.500000
O O13 0.498007 0.250000 0.633433
O O14 0.451210 0.535996 0.688565
O O15 0.168088 0.750000 0.605090
O O16 0.625004 0.250000 0.232759
#
# Coordination Sequence:
#
# PCOD9466201 Si02
#       6
#     8   8   8   8   8   8
#     4  11  24  42  67  93 125 163 208 258 311 372
#     4   9  20  40  61  86 121 161 200 248 307 361
#     4  10  21  40  63  85 119 160 201 248 302 360
#     4  11  21  35  59  89 121 157 196 246 302 359
#     4  11  24  40  63  91 124 162 206 253 306 368
#     4  10  21  40  63  87 120 162 204 251 305 361
#
# _framework density 21.327970000000001
#
# number of rings (size 3 to 8) (size 9 to 14) (size 15 to 20)
#    0.000    1.667    1.667    2.500    2.333    5.333 
#    0.000    2.500    0.000    0.000    0.000    0.000 
#    0.000    0.000    0.000    0.000    0.000    0.000 
#
# Total GULP energy -268202.001628 kJ/mol
# GULP energy per Si atom -5587.541701 kJ/mol
# Density = 2.127943 g / cm^3
# Si number density = 21.327970 Si / 1000 Ang^3
#
#
#
# Elastic Constant Matrix: (Units=GPa)
#
#
# Indices 1 2 3 4 5 6 
#
# 1 120.5823 0.9789 24.9782 0.0000 0.0000 0.0000
# 2 0.9789 9.7916 -5.8239 0.0000 0.0000 0.0000
# 3 24.9782 -5.8239 103.8526 0.0000 0.0000 0.0000
# 4 0.0000 0.0000 0.0000 20.9468 0.0000 0.0000
# 5 0.0000 0.0000 0.0000 0.0000 20.4444 0.0000
# 6 0.0000 0.0000 0.0000 0.0000 0.0000 20.8590
#
#
#
# Elastic Compliance Matrix: (Units=1/GPa)
#
#
# Indices 1 2 3 4 5 6 
#
# 1 0.008774 -0.002206 -0.002234 0.000000 0.000000 0.000000
# 2 -0.002206 0.106207 0.006487 0.000000 0.000000 0.000000
# 3 -0.002234 0.006487 0.010530 0.000000 0.000000 0.000000
# 4 0.000000 0.000000 0.000000 0.047740 0.000000 0.000000
# 5 0.000000 0.000000 0.000000 0.000000 0.048913 0.000000
# 6 0.000000 0.000000 0.000000 0.000000 0.000000 0.047941
#
#
# Mechanical properties :
#
#
# Convention : Reuss Voigt Hill
#
# Bulk Modulus (GPa) = 7.71578 30.49922 19.10750
# Shear Modulus (GPa) = 16.17007 26.72292 21.44649
#
# Velocity S-wave (km/s) = 2.75646 3.54355 3.17449
# Velocity P-wave (km/s) = 3.70895 5.57436 4.73444
#
# Compressibility (1/GPa) = 0.12960446
#
# Stress axis : x y z
#
# Youngs Moduli (GPa) = 113.97637 9.41556 94.96604
#
# Poissons Ratio (x) = 0.02077 0.21215
# Poissons Ratio (y) = 0.25142 -0.61600
# Poissons Ratio (z) = 0.25462 -0.06107
#
# Static dielectric constant tensor:
#      x y z
#    x 1.728510 0.000000 0.000000 
#    y 0.000000 1.773320 0.000000 
#    z 0.000000 0.000000 1.756690 
# 
# From -- ./inp_files/15126.got.cif
#   From: 2010.05.17/outbox.cif.g08.bks.cpg/sg62_8_cif.got.tgz:15126.got - 2010.06.03 15:25:27.
