data_PCOD9466207
_publ_section_title
;
Structure prediction by ZEFSAII (Michael W. Deem and Ramdas Pophale) SiO2 
 PCOD9466207
Probable space group: P N M A
;
_chemical_formula_sum "Si O2"
_cell_formula_units_Z 48
_cell_length_a 31.602036
_cell_length_b 8.717832
_cell_length_c 9.132565
_cell_angle_alpha 90.000000
_cell_angle_beta 90.000000
_cell_angle_gamma 90.000000
_cell_volume 2516.032988
_symmetry_space_group_name_H-M "P N M A"
_symmetry_group_IT_number 62
_symmetry_cell_setting 'orthorhombic'
loop_
_space_group_symop_operation_xyz
x,y,z
1/2-x,-y,1/2+z
1/2+x,1/2-y,1/2-z
-x,1/2+y,-z
-x,-y,-z
1/2+x,y,1/2-z
1/2-x,1/2+y,1/2+z
x,1/2-y,z
loop_
_atom_site_type_symbol
_atom_site_label
_atom_site_fract_x
_atom_site_fract_y
_atom_site_fract_z
Si Si1 0.791891 0.435018 0.410062
Si Si2 0.626423 0.934610 0.419488
Si Si3 0.960060 0.434447 0.087542
Si Si4 0.378112 0.064688 0.922292
Si Si5 0.540328 0.066831 0.914671
Si Si6 0.292258 0.566238 0.416328
O O1 0.791173 0.250000 0.399712
O O2 0.834341 0.477326 0.497921
O O3 0.750144 0.484504 0.498424
O O4 0.792363 0.502551 0.247901
O O5 0.631044 0.750000 0.426929
O O6 0.583178 0.975728 0.502860
O O7 0.666587 0.008836 0.497589
O O8 0.623683 0.977389 0.248763
O O9 0.962783 0.250000 0.093771
O O10 0.959188 0.501437 0.250455
O O11 0.000000 0.500000 0.000000
O O12 0.383096 0.250000 0.931528
O O13 0.417443 0.986855 0.002229
O O14 0.537746 0.250000 0.910796
O O15 0.500000 0.000000 0.000000
O O16 0.292260 0.750000 0.411067
#
# Coordination Sequence:
#
# PCOD9466207 Si02
#       6
#     8   8   8   8   8   8
#     4  10  22  39  59  85 119 157 195 241 296 349
#     4  10  22  40  62  87 120 159 194 238 297 355
#     4  11  23  40  63  91 122 159 202 246 298 357
#     4  10  21  40  63  87 118 157 200 243 294 355
#     4  12  25  41  62  89 121 157 199 249 302 356
#     4  11  23  38  60  89 118 153 199 245 289 348
#
# _framework density 19.077650999999999
#
# number of rings (size 3 to 8) (size 9 to 14) (size 15 to 20)
#    0.000    1.333    0.000    5.500    0.000   10.667 
#    0.000    0.000    0.000    0.000    0.000    0.000 
#    0.000    0.000    0.000    0.000    0.000    0.000 
#
# Total GULP energy -268551.381170 kJ/mol
# GULP energy per Si atom -5594.820441 kJ/mol
# Density = 1.903423 g / cm^3
# Si number density = 19.077651 Si / 1000 Ang^3
#
#
#
# Elastic Constant Matrix: (Units=GPa)
#
#
# Indices 1 2 3 4 5 6 
#
# 1 229.4462 78.1349 141.7284 0.0000 0.0000 0.0000
# 2 78.1349 58.3204 71.2296 0.0000 0.0000 0.0000
# 3 141.7284 71.2296 235.7727 0.0000 0.0000 0.0000
# 4 0.0000 0.0000 0.0000 34.7254 0.0000 0.0000
# 5 0.0000 0.0000 0.0000 0.0000 44.3020 0.0000
# 6 0.0000 0.0000 0.0000 0.0000 0.0000 35.2128
#
#
#
# Elastic Compliance Matrix: (Units=1/GPa)
#
#
# Indices 1 2 3 4 5 6 
#
# 1 0.009062 -0.008696 -0.002820 0.000000 0.000000 0.000000
# 2 -0.008696 0.035518 -0.005503 0.000000 0.000000 0.000000
# 3 -0.002820 -0.005503 0.007599 0.000000 0.000000 0.000000
# 4 0.000000 0.000000 0.000000 0.028797 0.000000 0.000000
# 5 0.000000 0.000000 0.000000 0.000000 0.022572 0.000000
# 6 0.000000 0.000000 0.000000 0.000000 0.000000 0.028399
#
#
# Mechanical properties :
#
#
# Convention : Reuss Voigt Hill
#
# Bulk Modulus (GPa) = 55.12432 122.85836 88.99134
# Shear Modulus (GPa) = 29.06425 38.34445 33.70435
#
# Velocity S-wave (km/s) = 3.90740 4.48807 4.20776
# Velocity P-wave (km/s) = 7.02243 9.56012 8.38780
#
# Compressibility (1/GPa) = 0.01814081
#
# Stress axis : x y z
#
# Youngs Moduli (GPa) = 110.35698 28.15435 131.59576
#
# Poissons Ratio (x) = 0.24483 0.37109
# Poissons Ratio (y) = 0.95967 0.72419
# Poissons Ratio (z) = 0.31119 0.15494
#
# Static dielectric constant tensor:
#      x y z
#    x 1.630810 0.000000 0.000000 
#    y 0.000000 1.648230 0.000000 
#    z 0.000000 0.000000 1.620830 
# 
# From -- ./inp_files/10200.got.cif
#   From: 2010.05.17/outbox.cif.g08.bks.cpg/sg62_6_cif.got.tgz:10200.got - 2010.06.03 15:25:27.
