data_PCOD9466731
_publ_section_title
;
Structure prediction by ZEFSAII (Michael W. Deem and Ramdas Pophale) SiO2 
 PCOD9466731
Probable space group: P N M A
;
_chemical_formula_sum "Si O2"
_cell_formula_units_Z 60
_cell_length_a 11.636603
_cell_length_b 8.053308
_cell_length_c 28.134856
_cell_angle_alpha 90.000000
_cell_angle_beta 90.000000
_cell_angle_gamma 90.000000
_cell_volume 2636.605925
_symmetry_space_group_name_H-M "P N M A"
_symmetry_group_IT_number 62
_symmetry_cell_setting 'orthorhombic'
loop_
_space_group_symop_operation_xyz
x,y,z
1/2-x,-y,1/2+z
1/2+x,1/2-y,1/2-z
-x,1/2+y,-z
-x,-y,-z
1/2+x,y,1/2-z
1/2-x,1/2+y,1/2+z
x,1/2-y,z
loop_
_atom_site_type_symbol
_atom_site_label
_atom_site_fract_x
_atom_site_fract_y
_atom_site_fract_z
Si Si1 0.666075 0.750000 0.222982
Si Si2 0.178478 0.945967 0.986552
Si Si3 0.437449 0.058858 0.137346
Si Si4 0.045662 0.070488 0.742888
Si Si5 0.532466 0.554332 0.597251
Si Si6 0.207355 0.556334 0.093520
Si Si7 0.791539 0.435303 0.182236
Si Si8 0.922747 0.053726 0.545143
O O1 0.587196 0.891764 0.253264
O O2 0.714657 0.597528 0.189663
O O3 0.155612 0.750000 0.991415
O O4 0.078738 0.015752 0.952921
O O5 0.299698 0.968126 0.960151
O O6 0.194470 0.012036 0.039701
O O7 0.465832 0.250000 0.144737
O O8 0.450531 0.965362 0.187054
O O9 0.305877 0.038786 0.120997
O O10 0.514145 0.990767 0.094149
O O11 0.110959 0.250000 0.749406
O O12 0.114122 0.944842 0.775143
O O13 0.504282 0.750000 0.592364
O O14 0.419239 0.462096 0.614682
O O15 0.635841 0.544436 0.634297
O O16 0.242159 0.750000 0.091540
O O17 0.737684 0.250000 0.182615
O O18 0.906304 0.250000 0.542694
O O19 0.000000 0.000000 0.500000
#
# Coordination Sequence:
#
# PCOD9466731 Si02
#       8
#     4   8   8   8   8   8   8   8
#     4  10  24  46  72 100 142 182 228 296 348 418
#     4  10  22  41  64  94 132 174 223 279 333 401
#     4  12  25  42  66  97 134 178 227 281 347 419
#     4  10  24  45  70 100 139 175 226 290 346 416
#     4  10  24  42  65  96 133 175 228 282 340 411
#     4  11  23  40  65  94 132 179 228 279 339 409
#     4  11  24  46  73 105 140 183 235 287 355 425
#     4  12  24  39  63  93 130 173 221 276 339 408
#
# _framework density 22.756529
#
# number of rings (size 3 to 8) (size 9 to 14) (size 15 to 20)
#    0.400    0.800    2.000    3.600    2.800    3.200 
#    2.400    1.333    0.000    0.000    0.000    0.000 
#    0.000    0.000    0.000    0.000    0.000    0.000 
#
# Total GULP energy -334309.728942 kJ/mol
# GULP energy per Si atom -5571.828816 kJ/mol
# Density = 2.270473 g / cm^3
# Si number density = 22.756529 Si / 1000 Ang^3
#
#
#
# Elastic Constant Matrix: (Units=GPa)
#
#
# Indices 1 2 3 4 5 6 
#
# 1 55.9159 8.1009 -1.7250 0.0000 0.0000 0.0000
# 2 8.1009 78.9787 24.4155 0.0000 0.0000 0.0000
# 3 -1.7250 24.4155 65.4765 0.0000 0.0000 0.0000
# 4 0.0000 0.0000 0.0000 11.4628 0.0000 0.0000
# 5 0.0000 0.0000 0.0000 0.0000 46.0057 0.0000
# 6 0.0000 0.0000 0.0000 0.0000 0.0000 2.6645
#
#
#
# Elastic Compliance Matrix: (Units=1/GPa)
#
#
# Indices 1 2 3 4 5 6 
#
# 1 0.018256 -0.002285 0.001333 0.000000 0.000000 0.000000
# 2 -0.002285 0.014597 -0.005503 0.000000 0.000000 0.000000
# 3 0.001333 -0.005503 0.017360 0.000000 0.000000 0.000000
# 4 0.000000 0.000000 0.000000 0.087239 0.000000 0.000000
# 5 0.000000 0.000000 0.000000 0.000000 0.021736 0.000000
# 6 0.000000 0.000000 0.000000 0.000000 0.000000 0.375309
#
#
# Mechanical properties :
#
#
# Convention : Reuss Voigt Hill
#
# Bulk Modulus (GPa) = 26.80738 29.10597 27.95668
# Shear Modulus (GPa) = 8.93109 23.33190 16.13149
#
# Velocity S-wave (km/s) = 1.98322 3.20548 2.66536
# Velocity P-wave (km/s) = 4.12915 5.14957 4.66733
#
# Compressibility (1/GPa) = 0.03730316
#
# Stress axis : x y z
#
# Youngs Moduli (GPa) = 54.77619 68.50589 57.60396
#
# Poissons Ratio (x) = 0.15651 -0.07678
# Poissons Ratio (y) = 0.12514 0.31702
# Poissons Ratio (z) = -0.07301 0.37701
#
# Static dielectric constant tensor:
#      x y z
#    x 1.937140 0.000000 0.000000 
#    y 0.000000 1.862600 0.000000 
#    z 0.000000 0.000000 1.836360 
# 
# From -- ./inp_files/31146.got.cif
#   From: 2010.05.17/outbox.cif.g08.bks.cpg/sg62_16_cif.got.tgz:31146.got - 2010.06.03 15:25:27.
