data_PCOD9466151
_publ_section_title
;
Structure prediction by ZEFSAII (Michael W. Deem and Ramdas Pophale) SiO2 
 PCOD9466151
Probable space group: P N M A
;
_chemical_formula_sum "Si O2"
_cell_formula_units_Z 64
_cell_length_a 9.989729
_cell_length_b 13.829376
_cell_length_c 23.602287
_cell_angle_alpha 90.000000
_cell_angle_beta 90.000000
_cell_angle_gamma 90.000000
_cell_volume 3260.696509
_symmetry_space_group_name_H-M "P N M A"
_symmetry_group_IT_number 62
_symmetry_cell_setting 'orthorhombic'
loop_
_space_group_symop_operation_xyz
x,y,z
1/2-x,-y,1/2+z
1/2+x,1/2-y,1/2-z
-x,1/2+y,-z
-x,-y,-z
1/2+x,y,1/2-z
1/2-x,1/2+y,1/2+z
x,1/2-y,z
loop_
_atom_site_type_symbol
_atom_site_label
_atom_site_fract_x
_atom_site_fract_y
_atom_site_fract_z
Si Si1 0.042963 0.865566 0.905402
Si Si2 0.485590 0.365691 0.537517
Si Si3 0.987187 0.366575 0.782559
Si Si4 0.314094 0.952928 0.374289
Si Si5 0.481762 0.049327 0.844601
Si Si6 0.644723 0.134163 0.308303
Si Si7 0.553910 0.865455 0.792824
Si Si8 0.262065 0.366121 0.626332
O O1 0.066468 0.750000 0.898782
O O2 0.909588 0.893056 0.869985
O O3 0.158788 0.932053 0.878949
O O4 0.023643 0.888309 0.971374
O O5 0.497057 0.250000 0.542392
O O6 0.609479 0.409889 0.571388
O O7 0.352133 0.393264 0.572194
O O8 0.999970 0.250000 0.781318
O O9 0.108858 0.410371 0.819414
O O10 0.983057 0.407159 0.719241
O O11 0.852093 0.390831 0.818154
O O12 0.159473 0.925471 0.372214
O O13 0.616636 0.087283 0.873208
O O14 0.489921 0.933101 0.840190
O O15 0.655137 0.250000 0.308625
O O16 0.791366 0.101642 0.289813
O O17 0.528655 0.111546 0.263793
O O18 0.546260 0.750000 0.802504
O O19 0.246699 0.250000 0.626891
#
# Coordination Sequence:
#
# PCOD9466151 Si02
#       8
#     8   8   8   8   8   8   8   8
#     4  10  21  39  66  90 111 153 205 241 288 351
#     4   9  20  41  66  85 111 152 200 250 293 347
#     4  10  22  39  59  85 120 158 197 237 284 353
#     4  11  23  37  58  91 118 153 195 249 293 337
#     4  12  24  33  57  88 120 160 191 239 295 350
#     4   9  20  37  59  82 112 152 192 236 281 341
#     4  10  23  38  55  85 123 158 190 234 293 348
#     4   9  20  38  58  82 115 153 192 243 297 346
#
# _framework density 19.627707000000001
#
# number of rings (size 3 to 8) (size 9 to 14) (size 15 to 20)
#    0.000    2.000    0.000    3.375    8.750    3.500 
#    0.000    0.625    0.000    0.000    0.000    0.000 
#    0.000    0.000    0.000    0.000    0.000    0.000 
#
# Total GULP energy -357460.603076 kJ/mol
# GULP energy per Si atom -5585.321923 kJ/mol
# Density = 1.958303 g / cm^3
# Si number density = 19.627707 Si / 1000 Ang^3
#
#
#
# Elastic Constant Matrix: (Units=GPa)
#
#
# Indices 1 2 3 4 5 6 
#
# 1 172.0219 40.8393 58.1478 0.0000 0.0000 0.0000
# 2 40.8393 82.4040 35.2528 0.0000 0.0000 0.0000
# 3 58.1478 35.2528 55.9481 0.0000 0.0000 0.0000
# 4 0.0000 0.0000 0.0000 17.4874 0.0000 0.0000
# 5 0.0000 0.0000 0.0000 0.0000 4.2550 0.0000
# 6 0.0000 0.0000 0.0000 0.0000 0.0000 24.3992
#
#
#
# Elastic Compliance Matrix: (Units=1/GPa)
#
#
# Indices 1 2 3 4 5 6 
#
# 1 0.008985 -0.000627 -0.008943 0.000000 0.000000 0.000000
# 2 -0.000627 0.016657 -0.009844 0.000000 0.000000 0.000000
# 3 -0.008943 -0.009844 0.033371 0.000000 0.000000 0.000000
# 4 0.000000 0.000000 0.000000 0.057184 0.000000 0.000000
# 5 0.000000 0.000000 0.000000 0.000000 0.235020 0.000000
# 6 0.000000 0.000000 0.000000 0.000000 0.000000 0.040985
#
#
# Mechanical properties :
#
#
# Convention : Reuss Voigt Hill
#
# Bulk Modulus (GPa) = 49.54168 64.31710 56.92939
# Shear Modulus (GPa) = 11.42178 20.97058 16.19618
#
# Velocity S-wave (km/s) = 2.41492 3.27221 2.87569
# Velocity P-wave (km/s) = 5.75076 6.86412 6.33196
#
# Compressibility (1/GPa) = 0.02018502
#
# Stress axis : x y z
#
# Youngs Moduli (GPa) = 111.29480 60.03320 29.96579
#
# Poissons Ratio (x) = 0.03764 0.26799
# Poissons Ratio (y) = 0.06979 0.29499
# Poissons Ratio (z) = 0.99534 0.59097
#
# Static dielectric constant tensor:
#      x y z
#    x 1.668990 0.000000 0.000000 
#    y 0.000000 1.751540 0.000000 
#    z 0.000000 0.000000 1.665120 
# 
# From -- ./inp_files/28964.got.cif
#   From: 2010.05.17/outbox.cif.g08.bks.cpg/sg62_15_cif.got.tgz:28964.got - 2010.06.03 15:25:27.
