data_PCOD9466658
_publ_section_title
;
Structure prediction by ZEFSAII (Michael W. Deem and Ramdas Pophale) SiO2 
 PCOD9466658
Probable space group: P N M A
;
_chemical_formula_sum "Si O2"
_cell_formula_units_Z 32
_cell_length_a 9.980862
_cell_length_b 8.753192
_cell_length_c 18.174544
_cell_angle_alpha 90.000000
_cell_angle_beta 90.000000
_cell_angle_gamma 90.000000
_cell_volume 1587.808157
_symmetry_space_group_name_H-M "P N M A"
_symmetry_group_IT_number 62
_symmetry_cell_setting 'orthorhombic'
loop_
_space_group_symop_operation_xyz
x,y,z
1/2-x,-y,1/2+z
1/2+x,1/2-y,1/2-z
-x,1/2+y,-z
-x,-y,-z
1/2+x,y,1/2-z
1/2-x,1/2+y,1/2+z
x,1/2-y,z
loop_
_atom_site_type_symbol
_atom_site_label
_atom_site_fract_x
_atom_site_fract_y
_atom_site_fract_z
Si Si1 0.018331 0.567807 0.211820
Si Si2 0.097623 0.568205 0.937338
Si Si3 0.312492 0.567939 0.165570
Si Si4 0.647563 0.568986 0.991629
O O1 0.996994 0.750000 0.201500
O O2 0.956124 0.483432 0.141785
O O3 0.940981 0.524895 0.286008
O O4 0.177298 0.541653 0.212021
O O5 0.097623 0.750000 0.943861
O O6 0.245620 0.503733 0.952706
O O7 0.000000 0.500000 0.000000
O O8 0.319095 0.750000 0.148317
O O9 0.304684 0.475715 0.090268
O O10 0.644315 0.750000 0.001523
O O11 0.500000 0.500000 0.000000
#
# Coordination Sequence:
#
# PCOD9466658 Si02
#       4
#     8   8   8   8
#     4  10  22  40  64  94 130 171 213 262 321 384
#     4  12  24  42  67  96 128 169 216 266 320 380
#     4  10  22  41  64  94 131 170 213 261 320 384
#     4  12  26  44  67  96 131 170 216 271 325 382
#
# _framework density 20.153566999999999
#
# number of rings (size 3 to 8) (size 9 to 14) (size 15 to 20)
#    0.000    1.000    2.500    4.500    3.500    1.000 
#    0.000    0.000    0.000    0.000    0.000    0.000 
#    0.000    0.000    0.000    0.000    0.000    0.000 
#
# Total GULP energy -179071.502608 kJ/mol
# GULP energy per Si atom -5595.984456 kJ/mol
# Density = 2.010770 g / cm^3
# Si number density = 20.153567 Si / 1000 Ang^3
#
#
#
# Elastic Constant Matrix: (Units=GPa)
#
#
# Indices 1 2 3 4 5 6 
#
# 1 85.9167 16.6573 -19.7502 0.0000 0.0000 0.0000
# 2 16.6573 80.2922 1.6181 0.0000 0.0000 0.0000
# 3 -19.7502 1.6181 16.3289 0.0000 0.0000 0.0000
# 4 0.0000 0.0000 0.0000 34.7720 0.0000 0.0000
# 5 0.0000 0.0000 0.0000 0.0000 43.5333 0.0000
# 6 0.0000 0.0000 0.0000 0.0000 0.0000 28.8351
#
#
#
# Elastic Compliance Matrix: (Units=1/GPa)
#
#
# Indices 1 2 3 4 5 6 
#
# 1 0.017330 -0.004026 0.021360 0.000000 0.000000 0.000000
# 2 -0.004026 0.013415 -0.006198 0.000000 0.000000 0.000000
# 3 0.021360 -0.006198 0.087690 0.000000 0.000000 0.000000
# 4 0.000000 0.000000 0.000000 0.028759 0.000000 0.000000
# 5 0.000000 0.000000 0.000000 0.000000 0.022971 0.000000
# 6 0.000000 0.000000 0.000000 0.000000 0.000000 0.034680
#
#
# Mechanical properties :
#
#
# Convention : Reuss Voigt Hill
#
# Bulk Modulus (GPa) = 7.10704 19.95426 13.53065
# Shear Modulus (GPa) = 21.78886 33.69558 27.74222
#
# Velocity S-wave (km/s) = 3.29164 4.09337 3.71420
# Velocity P-wave (km/s) = 4.24036 5.68010 5.01219
#
# Compressibility (1/GPa) = 0.14070558
#
# Stress axis : x y z
#
# Youngs Moduli (GPa) = 57.70433 74.54568 11.40378
#
# Poissons Ratio (x) = 0.30010 -0.24358
# Poissons Ratio (y) = 0.23230 0.07069
# Poissons Ratio (z) = -1.23254 0.46207
#
# Static dielectric constant tensor:
#      x y z
#    x 1.723880 0.000000 0.000000 
#    y 0.000000 1.679170 0.000000 
#    z 0.000000 0.000000 1.684720 
# 
# From -- ./inp_files/22734.got.cif
#   From: 2010.05.17/outbox.cif.g08.bks.cpg/sg62_12_cif.got.tgz:22734.got - 2010.06.03 15:25:27.
