data_PCOD9466804
_publ_section_title
;
Structure prediction by ZEFSAII (Michael W. Deem and Ramdas Pophale) SiO2 
 PCOD9466804
Probable space group: P N M A
;
_chemical_formula_sum "Si O2"
_cell_formula_units_Z 64
_cell_length_a 7.879959
_cell_length_b 14.358083
_cell_length_c 26.787911
_cell_angle_alpha 90.000000
_cell_angle_beta 90.000000
_cell_angle_gamma 90.000000
_cell_volume 3030.813861
_symmetry_space_group_name_H-M "P N M A"
_symmetry_group_IT_number 62
_symmetry_cell_setting 'orthorhombic'
loop_
_space_group_symop_operation_xyz
x,y,z
1/2-x,-y,1/2+z
1/2+x,1/2-y,1/2-z
-x,1/2+y,-z
-x,-y,-z
1/2+x,y,1/2-z
1/2-x,1/2+y,1/2+z
x,1/2-y,z
loop_
_atom_site_type_symbol
_atom_site_label
_atom_site_fract_x
_atom_site_fract_y
_atom_site_fract_z
Si Si1 0.395410 0.508055 0.949919
Si Si2 0.442204 0.139874 0.360208
Si Si3 0.263954 0.355409 0.210580
Si Si4 0.937181 0.560138 0.655124
Si Si5 0.916714 0.360853 0.030564
Si Si6 0.483633 0.139196 0.679067
Si Si7 0.388372 0.862066 0.430005
Si Si8 0.215349 0.542615 0.263363
O O1 0.498127 0.533695 0.900090
O O2 0.260620 0.588419 0.962661
O O3 0.287926 0.416684 0.934577
O O4 0.500000 0.500000 0.000000
O O5 0.405893 0.250000 0.357788
O O6 0.594096 0.123284 0.321423
O O7 0.260780 0.089882 0.352446
O O8 0.507577 0.118977 0.416467
O O9 0.250954 0.250000 0.230558
O O10 0.434317 0.364761 0.177826
O O11 0.274070 0.437362 0.250743
O O12 0.931169 0.476063 0.695297
O O13 0.893799 0.250000 0.027332
O O14 0.010168 0.389295 0.980008
O O15 0.460432 0.250000 0.681048
O O16 0.513438 0.112243 0.621180
O O17 0.650758 0.106884 0.708777
O O18 0.340324 0.088200 0.711364
O O19 0.364999 0.750000 0.429406
#
# Coordination Sequence:
#
# PCOD9466804 Si02
#       8
#     8   8   8   8   8   8   8   8
#     4  11  24  39  64  97 128 168 205 263 330 388
#     4   9  20  39  63  93 130 174 214 253 311 386
#     4  11  25  40  65 100 135 178 218 259 325 401
#     4  11  23  42  62  93 136 173 214 268 321 384
#     4   9  20  40  65  93 126 165 208 259 315 388
#     4  11  24  44  69  92 123 173 224 283 341 382
#     4  10  22  42  67  92 123 166 218 268 326 389
#     4  12  23  44  64  93 131 166 225 280 323 397
#
# _framework density 21.116441999999999
#
# number of rings (size 3 to 8) (size 9 to 14) (size 15 to 20)
#    0.000    1.500    2.500    1.875    3.500    3.000 
#    0.000    0.000    0.000    0.000    0.000    0.000 
#    0.000    0.000    0.000    0.000    0.000    0.000 
#
# Total GULP energy -357366.132931 kJ/mol
# GULP energy per Si atom -5583.845827 kJ/mol
# Density = 2.106838 g / cm^3
# Si number density = 21.116442 Si / 1000 Ang^3
#
#
#
# Elastic Constant Matrix: (Units=GPa)
#
#
# Indices 1 2 3 4 5 6 
#
# 1 50.5284 11.5978 25.9851 0.0000 0.0000 0.0000
# 2 11.5978 76.0162 47.4822 0.0000 0.0000 0.0000
# 3 25.9851 47.4822 158.4032 0.0000 0.0000 0.0000
# 4 0.0000 0.0000 0.0000 21.6847 0.0000 0.0000
# 5 0.0000 0.0000 0.0000 0.0000 33.6495 0.0000
# 6 0.0000 0.0000 0.0000 0.0000 0.0000 26.1741
#
#
#
# Elastic Compliance Matrix: (Units=1/GPa)
#
#
# Indices 1 2 3 4 5 6 
#
# 1 0.021725 -0.001339 -0.003162 0.000000 0.000000 0.000000
# 2 -0.001339 0.016268 -0.004657 0.000000 0.000000 0.000000
# 3 -0.003162 -0.004657 0.008228 0.000000 0.000000 0.000000
# 4 0.000000 0.000000 0.000000 0.046115 0.000000 0.000000
# 5 0.000000 0.000000 0.000000 0.000000 0.029718 0.000000
# 6 0.000000 0.000000 0.000000 0.000000 0.000000 0.038206
#
#
# Mechanical properties :
#
#
# Convention : Reuss Voigt Hill
#
# Bulk Modulus (GPa) = 35.83753 50.56423 43.20088
# Shear Modulus (GPa) = 26.61307 29.62717 28.12012
#
# Velocity S-wave (km/s) = 3.55392 3.74978 3.65316
# Velocity P-wave (km/s) = 5.81797 6.53798 6.18845
#
# Compressibility (1/GPa) = 0.02790371
#
# Stress axis : x y z
#
# Youngs Moduli (GPa) = 46.03093 61.46963 121.54118
#
# Poissons Ratio (x) = 0.08232 0.38436
# Poissons Ratio (y) = 0.06164 0.56599
# Poissons Ratio (z) = 0.14557 0.28625
#
# Static dielectric constant tensor:
#      x y z
#    x 1.819270 0.000000 0.000000 
#    y 0.000000 1.767220 0.000000 
#    z 0.000000 0.000000 1.824920 
# 
# From -- ./inp_files/28984.got.cif
#   From: 2010.05.17/outbox.cif.g08.bks.cpg/sg62_15_cif.got.tgz:28984.got - 2010.06.03 15:25:27.
