data_PCOD9466226
_publ_section_title
;
Structure prediction by ZEFSAII (Michael W. Deem and Ramdas Pophale) SiO2 
 PCOD9466226
Probable space group: P N M A
;
_chemical_formula_sum "Si O2"
_cell_formula_units_Z 36
_cell_length_a 8.096969
_cell_length_b 19.824422
_cell_length_c 8.836936
_cell_angle_alpha 90.000000
_cell_angle_beta 90.000000
_cell_angle_gamma 90.000000
_cell_volume 1418.484910
_symmetry_space_group_name_H-M "P N M A"
_symmetry_group_IT_number 62
_symmetry_cell_setting 'orthorhombic'
loop_
_space_group_symop_operation_xyz
x,y,z
1/2-x,-y,1/2+z
1/2+x,1/2-y,1/2-z
-x,1/2+y,-z
-x,-y,-z
1/2+x,y,1/2-z
1/2-x,1/2+y,1/2+z
x,1/2-y,z
loop_
_atom_site_type_symbol
_atom_site_label
_atom_site_fract_x
_atom_site_fract_y
_atom_site_fract_z
Si Si1 0.652466 0.888183 0.723634
Si Si2 0.039963 0.113344 0.939781
Si Si3 0.056233 0.360684 0.492491
Si Si4 0.773367 0.542026 0.297291
Si Si5 0.528131 0.250000 0.740237
O O1 0.487880 0.890774 0.617898
O O2 0.785552 0.851519 0.617533
O O3 0.600030 0.856438 0.882521
O O4 0.704835 0.964900 0.756248
O O5 0.898843 0.063917 0.871048
O O6 0.013133 0.189612 0.885524
O O7 0.201482 0.085135 0.856506
O O8 0.093985 0.431388 0.578319
O O9 0.047850 0.307774 0.627056
#
# Coordination Sequence:
#
# PCOD9466226 Si02
#       5
#     8   8   8   8   4
#     4  11  22  40  66  99 126 168 222 269 325 381
#     4  10  23  39  66  90 129 175 215 272 318 394
#     4  10  24  41  65  93 136 174 212 275 319 389
#     4  10  21  40  63  97 131 167 215 272 333 379
#     4  10  24  46  60  88 128 174 218 256 332 376
#
# _framework density 25.379190999999999
#
# number of rings (size 3 to 8) (size 9 to 14) (size 15 to 20)
#    0.000    1.778    0.000    2.667    0.000   20.444 
#    0.000    0.000    0.000    0.000    0.000    0.000 
#    0.000    0.000    0.000    0.000    0.000    0.000 
#
# Total GULP energy -200603.027321 kJ/mol
# GULP energy per Si atom -5572.306314 kJ/mol
# Density = 2.532143 g / cm^3
# Si number density = 25.379191 Si / 1000 Ang^3
#
#
#
# Elastic Constant Matrix: (Units=GPa)
#
#
# Indices 1 2 3 4 5 6 
#
# 1 39.9590 17.1046 29.3879 0.0000 0.0000 0.0000
# 2 17.1046 144.0504 39.9725 0.0000 0.0000 0.0000
# 3 29.3879 39.9725 136.2164 0.0000 0.0000 0.0000
# 4 0.0000 0.0000 0.0000 14.6145 0.0000 0.0000
# 5 0.0000 0.0000 0.0000 0.0000 34.2458 0.0000
# 6 0.0000 0.0000 0.0000 0.0000 0.0000 -35.7343
#
#
#
# Elastic Compliance Matrix: (Units=1/GPa)
#
#
# Indices 1 2 3 4 5 6 
#
# 1 0.030234 -0.001938 -0.005954 0.000000 0.000000 0.000000
# 2 -0.001938 0.007682 -0.001836 0.000000 0.000000 0.000000
# 3 -0.005954 -0.001836 0.009165 0.000000 0.000000 0.000000
# 4 0.000000 0.000000 0.000000 0.068425 0.000000 0.000000
# 5 0.000000 0.000000 0.000000 0.000000 0.029201 0.000000
# 6 0.000000 0.000000 0.000000 0.000000 0.000000 -0.027984
#
#
# Mechanical properties :
#
#
# Convention : Reuss Voigt Hill
#
# Bulk Modulus (GPa) = 36.20005 54.79506 45.49756
# Shear Modulus (GPa) = 34.39120 18.20926 26.30023
#
# Velocity S-wave (km/s) = 3.68515 2.68150 3.22264
# Velocity P-wave (km/s) = 5.69226 5.58791 5.64032
#
# Compressibility (1/GPa) = 0.02762427
#
# Stress axis : x y z
#
# Youngs Moduli (GPa) = 33.07516 130.18119 109.11500
#
# Poissons Ratio (x) = 0.25226 0.64969
# Poissons Ratio (y) = 0.06409 0.20035
# Poissons Ratio (z) = 0.19694 0.23902
#
# Static dielectric constant tensor:
#      x y z
#    x 2.193770 0.000000 0.000000 
#    y 0.000000 1.905210 0.000000 
#    z 0.000000 0.000000 1.988160 
# 
# From -- ./inp_files/4175.got.cif
#   From: 2010.05.17/outbox.cif.g08.bks.cpg/sg62_3_cif.got.tgz:4175.got - 2010.06.03 15:25:27.
