data_PCOD9466444
_publ_section_title
;
Structure prediction by ZEFSAII (Michael W. Deem and Ramdas Pophale) SiO2 
 PCOD9466444
Probable space group: P N M A
;
_chemical_formula_sum "Si O2"
_cell_formula_units_Z 28
_cell_length_a 19.180206
_cell_length_b 5.731145
_cell_length_c 10.063765
_cell_angle_alpha 90.000000
_cell_angle_beta 90.000000
_cell_angle_gamma 90.000000
_cell_volume 1106.254756
_symmetry_space_group_name_H-M "P N M A"
_symmetry_group_IT_number 62
_symmetry_cell_setting 'orthorhombic'
loop_
_space_group_symop_operation_xyz
x,y,z
1/2-x,-y,1/2+z
1/2+x,1/2-y,1/2-z
-x,1/2+y,-z
-x,-y,-z
1/2+x,y,1/2-z
1/2-x,1/2+y,1/2+z
x,1/2-y,z
loop_
_atom_site_type_symbol
_atom_site_label
_atom_site_fract_x
_atom_site_fract_y
_atom_site_fract_z
Si Si1 0.174391 0.250000 0.268119
Si Si2 0.154890 0.250000 0.975676
Si Si3 0.295569 0.250000 0.846225
Si Si4 0.919690 0.250000 0.453833
Si Si5 0.418359 0.750000 0.035738
Si Si6 0.462087 0.999326 0.356435
O O1 0.134023 0.250000 0.129103
O O2 0.212540 0.502870 0.270454
O O3 0.127268 0.250000 0.400681
O O4 0.236960 0.250000 0.959850
O O5 0.118178 0.035021 0.900874
O O6 0.371734 0.250000 0.913069
O O7 0.902560 0.504210 0.392683
O O8 0.000645 0.250000 0.494725
O O9 0.484516 0.750000 0.293269
O O10 0.500000 0.000000 0.500000
O O11 0.475679 0.250000 0.292070
#
# Coordination Sequence:
#
# PCOD9466444 Si02
#       6
#     4   4   4   4   4   8
#     4  10  22  35  53  86 104 146 203 220 267 354
#     4  10  22  34  62  75 118 155 179 237 284 322
#     4  10  22  35  53  81 112 147 187 228 281 332
#     4   8  14  28  49  68  96 129 164 217 271 304
#     4   8  14  28  49  70  94 125 169 224 257 308
#     4   8  16  30  52  78  98 136 179 217 274 329
#
# _framework density 25.310625000000002
#
# number of rings (size 3 to 8) (size 9 to 14) (size 15 to 20)
#    0.857    2.286    0.000    0.000    4.000    0.000 
#    0.000    0.000    6.286    0.000    7.429    0.000 
#    0.000    0.000    0.000    0.000    0.000    0.000 
#
# Total GULP energy -156068.738739 kJ/mol
# GULP energy per Si atom -5573.883526 kJ/mol
# Density = 2.525302 g / cm^3
# Si number density = 25.310625 Si / 1000 Ang^3
#
#
#
# Elastic Constant Matrix: (Units=GPa)
#
#
# Indices 1 2 3 4 5 6 
#
# 1 42.9292 8.2016 8.8517 0.0000 0.0000 0.0000
# 2 8.2016 317.2261 59.4688 0.0000 0.0000 0.0000
# 3 8.8517 59.4688 93.1130 0.0000 0.0000 0.0000
# 4 0.0000 0.0000 0.0000 37.0746 0.0000 0.0000
# 5 0.0000 0.0000 0.0000 0.0000 25.8663 0.0000
# 6 0.0000 0.0000 0.0000 0.0000 0.0000 11.6079
#
#
#
# Elastic Compliance Matrix: (Units=1/GPa)
#
#
# Indices 1 2 3 4 5 6 
#
# 1 0.023773 -0.000217 -0.002121 0.000000 0.000000 0.000000
# 2 -0.000217 0.003583 -0.002268 0.000000 0.000000 0.000000
# 3 -0.002121 -0.002268 0.012390 0.000000 0.000000 0.000000
# 4 0.000000 0.000000 0.000000 0.026973 0.000000 0.000000
# 5 0.000000 0.000000 0.000000 0.000000 0.038660 0.000000
# 6 0.000000 0.000000 0.000000 0.000000 0.000000 0.086148
#
#
# Mechanical properties :
#
#
# Convention : Reuss Voigt Hill
#
# Bulk Modulus (GPa) = 32.75091 67.36806 50.05948
# Shear Modulus (GPa) = 23.70600 40.02617 31.86608
#
# Velocity S-wave (km/s) = 3.06372 3.98099 3.55209
# Velocity P-wave (km/s) = 5.04805 6.91414 6.05344
#
# Compressibility (1/GPa) = 0.03053350
#
# Stress axis : x y z
#
# Youngs Moduli (GPa) = 42.06448 279.09066 80.71228
#
# Poissons Ratio (x) = 0.06055 0.17122
# Poissons Ratio (y) = 0.00913 0.18304
# Poissons Ratio (z) = 0.08924 0.63292
#
# Static dielectric constant tensor:
#      x y z
#    x 1.969680 0.000000 0.000000 
#    y 0.000000 2.129640 0.000000 
#    z 0.000000 0.000000 1.995420 
# 
# From -- ./inp_files/14503.got.cif
#   From: 2010.05.17/outbox.cif.g08.bks.cpg/sg62_8_cif.got.tgz:14503.got - 2010.06.03 15:25:27.
