data_PCOD9466416
_publ_section_title
;
Structure prediction by ZEFSAII (Michael W. Deem and Ramdas Pophale) SiO2 
 PCOD9466416
Probable space group: P N M A
;
_chemical_formula_sum "Si O2"
_cell_formula_units_Z 52
_cell_length_a 14.050380
_cell_length_b 15.913995
_cell_length_c 9.622558
_cell_angle_alpha 90.000000
_cell_angle_beta 90.000000
_cell_angle_gamma 90.000000
_cell_volume 2151.581616
_symmetry_space_group_name_H-M "P N M A"
_symmetry_group_IT_number 62
_symmetry_cell_setting 'orthorhombic'
loop_
_space_group_symop_operation_xyz
x,y,z
1/2-x,-y,1/2+z
1/2+x,1/2-y,1/2-z
-x,1/2+y,-z
-x,-y,-z
1/2+x,y,1/2-z
1/2-x,1/2+y,1/2+z
x,1/2-y,z
loop_
_atom_site_type_symbol
_atom_site_label
_atom_site_fract_x
_atom_site_fract_y
_atom_site_fract_z
Si Si1 0.348892 0.574026 0.297564
Si Si2 0.549637 0.250000 0.179268
Si Si3 0.776345 0.750000 0.833865
Si Si4 0.329461 0.385765 0.354976
Si Si5 0.632484 0.408559 0.014772
Si Si6 0.122919 0.916353 0.333746
Si Si7 0.017859 0.652969 0.073833
Si Si8 0.615794 0.750000 0.002206
O O1 0.360161 0.473759 0.291371
O O2 0.385657 0.604337 0.147871
O O3 0.237040 0.589295 0.316077
O O4 0.412172 0.614504 0.419346
O O5 0.609995 0.250000 0.321357
O O6 0.438625 0.250000 0.146098
O O7 0.588364 0.332417 0.100847
O O8 0.729011 0.829581 0.754581
O O9 0.729344 0.750000 0.982896
O O10 0.247275 0.404210 0.468531
O O11 0.421966 0.349645 0.431652
O O12 0.602442 0.497186 0.083961
O O13 0.074471 0.905922 0.183883
O O14 0.090946 0.835304 0.420687
O O15 0.016803 0.750000 0.120956
#
# Coordination Sequence:
#
# PCOD9466416 Si02
#       8
#     8   4   4   8   8   8   8   4
#     4  11  24  40  67  96 132 175 217 269 334 391
#     4  10  24  43  68 101 123 180 224 260 341 392
#     4  10  22  43  68  87 133 173 216 271 334 392
#     4  10  21  43  64  94 128 172 215 267 331 391
#     4  10  22  42  69  93 133 170 219 273 320 395
#     4  11  25  42  65 101 134 172 222 277 327 380
#     4  12  24  41  67  98 131 173 221 271 326 396
#     4  12  24  42  64  96 136 167 222 279 323 394
#
# _framework density 24.168268999999999
#
# number of rings (size 3 to 8) (size 9 to 14) (size 15 to 20)
#    0.000    1.231    3.077    2.308    2.154    3.692 
#    2.769    0.000    0.000    0.000    0.000    0.000 
#    0.000    0.000    0.000    0.000    0.000    0.000 
#
# Total GULP energy -290880.437563 kJ/mol
# GULP energy per Si atom -5593.854569 kJ/mol
# Density = 2.411326 g / cm^3
# Si number density = 24.168269 Si / 1000 Ang^3
#
#
#
# Elastic Constant Matrix: (Units=GPa)
#
#
# Indices 1 2 3 4 5 6 
#
# 1 113.3589 14.1488 -7.8700 0.0000 0.0000 0.0000
# 2 14.1488 127.5190 0.1824 0.0000 0.0000 0.0000
# 3 -7.8700 0.1824 28.0158 0.0000 0.0000 0.0000
# 4 0.0000 0.0000 0.0000 29.7362 0.0000 0.0000
# 5 0.0000 0.0000 0.0000 0.0000 37.4781 0.0000
# 6 0.0000 0.0000 0.0000 0.0000 0.0000 20.6457
#
#
#
# Elastic Compliance Matrix: (Units=1/GPa)
#
#
# Indices 1 2 3 4 5 6 
#
# 1 0.009127 -0.001016 0.002570 0.000000 0.000000 0.000000
# 2 -0.001016 0.007955 -0.000337 0.000000 0.000000 0.000000
# 3 0.002570 -0.000337 0.036418 0.000000 0.000000 0.000000
# 4 0.000000 0.000000 0.000000 0.033629 0.000000 0.000000
# 5 0.000000 0.000000 0.000000 0.000000 0.026682 0.000000
# 6 0.000000 0.000000 0.000000 0.000000 0.000000 0.048436
#
#
# Mechanical properties :
#
#
# Convention : Reuss Voigt Hill
#
# Bulk Modulus (GPa) = 17.87817 31.31291 24.59554
# Shear Modulus (GPa) = 28.01764 35.06750 31.54257
#
# Velocity S-wave (km/s) = 3.40850 3.81330 3.61657
# Velocity P-wave (km/s) = 4.78581 5.68970 5.25721
#
# Compressibility (1/GPa) = 0.05593412
#
# Stress axis : x y z
#
# Youngs Moduli (GPa) = 109.56683 125.70364 27.45866
#
# Poissons Ratio (x) = 0.12776 -0.07058
# Poissons Ratio (y) = 0.11136 0.00926
# Poissons Ratio (z) = -0.28164 0.04240
#
# Static dielectric constant tensor:
#      x y z
#    x 1.953090 0.000000 0.000000 
#    y 0.000000 1.874460 0.000000 
#    z 0.000000 0.000000 1.933460 
# 
# From -- ./inp_files/13420.got.cif
#   From: 2010.05.17/outbox.cif.g08.bks.cpg/sg62_7_cif.got.tgz:13420.got - 2010.06.03 15:25:27.
