data_PCOD9466798
_publ_section_title
;
Structure prediction by ZEFSAII (Michael W. Deem and Ramdas Pophale) SiO2 
 PCOD9466798
Probable space group: P N M A
;
_chemical_formula_sum "Si O2"
_cell_formula_units_Z 48
_cell_length_a 11.038306
_cell_length_b 8.568090
_cell_length_c 23.767722
_cell_angle_alpha 90.000000
_cell_angle_beta 90.000000
_cell_angle_gamma 90.000000
_cell_volume 2247.884579
_symmetry_space_group_name_H-M "P N M A"
_symmetry_group_IT_number 62
_symmetry_cell_setting 'orthorhombic'
loop_
_space_group_symop_operation_xyz
x,y,z
1/2-x,-y,1/2+z
1/2+x,1/2-y,1/2-z
-x,1/2+y,-z
-x,-y,-z
1/2+x,y,1/2-z
1/2-x,1/2+y,1/2+z
x,1/2-y,z
loop_
_atom_site_type_symbol
_atom_site_label
_atom_site_fract_x
_atom_site_fract_y
_atom_site_fract_z
Si Si1 0.812262 0.934709 0.582862
Si Si2 0.807979 0.566028 0.978497
Si Si3 0.573137 0.433220 0.917136
Si Si4 0.321657 0.935283 0.313810
Si Si5 0.580583 0.934444 0.372128
Si Si6 0.314163 0.065963 0.188649
O O1 0.824123 0.750000 0.579811
O O2 0.709308 0.991958 0.539625
O O3 0.939687 0.012659 0.566518
O O4 0.776846 0.989293 0.645088
O O5 0.827045 0.750000 0.982931
O O6 0.679203 0.528297 0.948101
O O7 0.905661 0.490780 0.936475
O O8 0.589697 0.250000 0.928372
O O9 0.593935 0.471258 0.851301
O O10 0.300145 0.750000 0.308792
O O11 0.450620 0.958985 0.344414
O O12 0.322154 0.011894 0.252700
O O13 0.609146 0.750000 0.370349
O O14 0.681610 0.025305 0.336086
O O15 0.337324 0.250000 0.183237
#
# Coordination Sequence:
#
# PCOD9466798 Si02
#       6
#     8   8   8   8   8   8
#     4  12  25  41  62  92 127 163 208 258 310 368
#     4  11  22  40  65  93 126 163 206 255 310 370
#     4  11  22  40  65  93 126 164 208 257 311 366
#     4  11  25  43  63  90 124 165 209 255 310 367
#     4  10  22  42  66  90 121 162 208 254 308 369
#     4  11  23  40  64  92 125 162 206 255 308 368
#
# _framework density 21.35341
#
# number of rings (size 3 to 8) (size 9 to 14) (size 15 to 20)
#    0.000    1.000    0.000    9.500    2.333    3.333 
#    0.000    0.000    0.000    0.000    0.000    0.000 
#    0.000    0.000    0.000    0.000    0.000    0.000 
#
# Total GULP energy -268768.431748 kJ/mol
# GULP energy per Si atom -5599.342328 kJ/mol
# Density = 2.130481 g / cm^3
# Si number density = 21.353410 Si / 1000 Ang^3
#
#
#
# Elastic Constant Matrix: (Units=GPa)
#
#
# Indices 1 2 3 4 5 6 
#
# 1 39.1969 3.8110 -5.8569 0.0000 0.0000 0.0000
# 2 3.8110 72.8545 -12.2509 0.0000 0.0000 0.0000
# 3 -5.8569 -12.2509 87.1317 0.0000 0.0000 0.0000
# 4 0.0000 0.0000 0.0000 39.5523 0.0000 0.0000
# 5 0.0000 0.0000 0.0000 0.0000 24.2055 0.0000
# 6 0.0000 0.0000 0.0000 0.0000 0.0000 25.7817
#
#
#
# Elastic Compliance Matrix: (Units=1/GPa)
#
#
# Indices 1 2 3 4 5 6 
#
# 1 0.025855 -0.001086 0.001585 0.000000 0.000000 0.000000
# 2 -0.001086 0.014104 0.001910 0.000000 0.000000 0.000000
# 3 0.001585 0.001910 0.011852 0.000000 0.000000 0.000000
# 4 0.000000 0.000000 0.000000 0.025283 0.000000 0.000000
# 5 0.000000 0.000000 0.000000 0.000000 0.041313 0.000000
# 6 0.000000 0.000000 0.000000 0.000000 0.000000 0.038787
#
#
# Mechanical properties :
#
#
# Convention : Reuss Voigt Hill
#
# Bulk Modulus (GPa) = 17.65865 18.95439 18.30652
# Shear Modulus (GPa) = 29.19685 32.13990 30.66838
#
# Velocity S-wave (km/s) = 3.70173 3.88382 3.79387
# Velocity P-wave (km/s) = 5.15346 5.38590 5.27096
#
# Compressibility (1/GPa) = 0.05662948
#
# Stress axis : x y z
#
# Youngs Moduli (GPa) = 38.67775 70.90196 84.37403
#
# Poissons Ratio (x) = 0.07699 -0.13375
# Poissons Ratio (y) = 0.04200 -0.16116
# Poissons Ratio (z) = -0.06131 -0.13543
#
# Static dielectric constant tensor:
#      x y z
#    x 1.767640 0.000000 0.000000 
#    y 0.000000 1.692930 0.000000 
#    z 0.000000 0.000000 1.798290 
# 
# From -- ./inp_files/29272.got.cif
#   From: 2010.05.17/outbox.cif.g08.bks.cpg/sg62_15_cif.got.tgz:29272.got - 2010.06.03 15:25:27.
