data_PCOD9466679
_publ_section_title
;
Structure prediction by ZEFSAII (Michael W. Deem and Ramdas Pophale) SiO2 
 PCOD9466679
Probable space group: P N M A
;
_chemical_formula_sum "Si O2"
_cell_formula_units_Z 40
_cell_length_a 13.890490
_cell_length_b 12.435129
_cell_length_c 9.703147
_cell_angle_alpha 90.000000
_cell_angle_beta 90.000000
_cell_angle_gamma 90.000000
_cell_volume 1676.024921
_symmetry_space_group_name_H-M "P N M A"
_symmetry_group_IT_number 62
_symmetry_cell_setting 'orthorhombic'
loop_
_space_group_symop_operation_xyz
x,y,z
1/2-x,-y,1/2+z
1/2+x,1/2-y,1/2-z
-x,1/2+y,-z
-x,-y,-z
1/2+x,y,1/2-z
1/2-x,1/2+y,1/2+z
x,1/2-y,z
loop_
_atom_site_type_symbol
_atom_site_label
_atom_site_fract_x
_atom_site_fract_y
_atom_site_fract_z
Si Si1 0.600644 0.632302 0.113643
Si Si2 0.506535 0.999054 0.663433
Si Si3 0.296363 0.532527 0.011817
Si Si4 0.679588 0.364058 0.719380
Si Si5 0.673198 0.375139 0.290164
O O1 0.569325 0.750000 0.068822
O O2 0.545632 0.593168 0.248683
O O3 0.606707 0.541079 0.997906
O O4 0.713942 0.634876 0.155487
O O5 0.616907 0.030988 0.687573
O O6 0.500000 0.000000 0.500000
O O7 0.442390 0.896713 0.708198
O O8 0.289713 0.586432 0.860133
O O9 0.308810 0.629428 0.117424
O O10 0.219085 0.454537 0.092641
O O11 0.634589 0.250000 0.675115
O O12 0.695365 0.250000 0.316456
#
# Coordination Sequence:
#
# PCOD9466679 Si02
#       5
#     8   8   8   8   8
#     4  10  22  40  66  99 137 184 229 284 355 418
#     4  11  24  42  69 101 140 186 241 298 352 430
#     4  11  21  43  70 102 142 189 235 293 356 425
#     4  11  23  41  69 101 139 185 231 291 356 419
#     4  11  25  45  71 108 151 191 243 304 363 432
#
# _framework density 23.865995000000002
#
# number of rings (size 3 to 8) (size 9 to 14) (size 15 to 20)
#    0.000    1.200    4.000    3.000    0.000    6.400 
#    0.000    4.000    0.000    0.000    0.000    0.000 
#    0.000    0.000    0.000    0.000    0.000    0.000 
#
# Total GULP energy -222844.664185 kJ/mol
# GULP energy per Si atom -5571.116605 kJ/mol
# Density = 2.381167 g / cm^3
# Si number density = 23.865995 Si / 1000 Ang^3
#
#
#
# Elastic Constant Matrix: (Units=GPa)
#
#
# Indices 1 2 3 4 5 6 
#
# 1 86.2741 3.9864 1.1213 0.0000 0.0000 0.0000
# 2 3.9864 116.2203 -3.0069 0.0000 0.0000 0.0000
# 3 1.1213 -3.0069 96.4211 0.0000 0.0000 0.0000
# 4 0.0000 0.0000 0.0000 4.7773 0.0000 0.0000
# 5 0.0000 0.0000 0.0000 0.0000 31.7691 0.0000
# 6 0.0000 0.0000 0.0000 0.0000 0.0000 30.1682
#
#
#
# Elastic Compliance Matrix: (Units=1/GPa)
#
#
# Indices 1 2 3 4 5 6 
#
# 1 0.011611 -0.000402 -0.000148 0.000000 0.000000 0.000000
# 2 -0.000402 0.008625 0.000274 0.000000 0.000000 0.000000
# 3 -0.000148 0.000274 0.010381 0.000000 0.000000 0.000000
# 4 0.000000 0.000000 0.000000 0.209324 0.000000 0.000000
# 5 0.000000 0.000000 0.000000 0.000000 0.031477 0.000000
# 6 0.000000 0.000000 0.000000 0.000000 0.000000 0.033148
#
#
# Mechanical properties :
#
#
# Convention : Reuss Voigt Hill
#
# Bulk Modulus (GPa) = 33.26009 33.67969 33.46989
# Shear Modulus (GPa) = 15.86593 33.13056 24.49824
#
# Velocity S-wave (km/s) = 2.58115 3.72989 3.20737
# Velocity P-wave (km/s) = 4.78012 5.71769 5.26980
#
# Compressibility (1/GPa) = 0.03006607
#
# Stress axis : x y z
#
# Youngs Moduli (GPa) = 86.12183 115.93904 96.32593
#
# Poissons Ratio (x) = 0.04662 0.01422
# Poissons Ratio (y) = 0.03463 -0.02636
# Poissons Ratio (z) = 0.01271 -0.03173
#
# Static dielectric constant tensor:
#      x y z
#    x 2.034880 0.000000 0.000000 
#    y 0.000000 2.057170 0.000000 
#    z 0.000000 0.000000 1.957600 
# 
# From -- ./inp_files/6127.got.cif
#   From: 2010.05.17/outbox.cif.g08.bks.cpg/sg62_4_cif.got.tgz:6127.got - 2010.06.03 15:25:27.
