data_PCOD9466334
_publ_section_title
;
Structure prediction by ZEFSAII (Michael W. Deem and Ramdas Pophale) SiO2 
 PCOD9466334
Probable space group: P N M A
;
_chemical_formula_sum "Si O2"
_cell_formula_units_Z 64
_cell_length_a 14.939416
_cell_length_b 9.035610
_cell_length_c 22.497729
_cell_angle_alpha 90.000000
_cell_angle_beta 90.000000
_cell_angle_gamma 90.000000
_cell_volume 3036.895019
_symmetry_space_group_name_H-M "P N M A"
_symmetry_group_IT_number 62
_symmetry_cell_setting 'orthorhombic'
loop_
_space_group_symop_operation_xyz
x,y,z
1/2-x,-y,1/2+z
1/2+x,1/2-y,1/2-z
-x,1/2+y,-z
-x,-y,-z
1/2+x,y,1/2-z
1/2-x,1/2+y,1/2+z
x,1/2-y,z
loop_
_atom_site_type_symbol
_atom_site_label
_atom_site_fract_x
_atom_site_fract_y
_atom_site_fract_z
Si Si1 0.309026 0.576417 0.800252
Si Si2 0.125343 0.073370 0.631311
Si Si3 0.065584 0.574919 0.205883
Si Si4 0.369782 0.919985 0.462149
Si Si5 0.306250 0.573168 0.004677
Si Si6 0.965989 0.580784 0.909533
Si Si7 0.379041 0.073728 0.256402
Si Si8 0.943345 0.575902 0.591465
O O1 0.316535 0.750000 0.783566
O O2 0.359518 0.481116 0.751013
O O3 0.203885 0.541181 0.800173
O O4 0.362304 0.558482 0.861483
O O5 0.128524 0.250000 0.641189
O O6 0.186562 0.036573 0.574301
O O7 0.147793 0.986638 0.691307
O O8 0.025459 0.023724 0.612151
O O9 0.059332 0.750000 0.206993
O O10 0.082945 0.516623 0.139616
O O11 0.970881 0.504304 0.225404
O O12 0.366199 0.750000 0.441916
O O13 0.415387 0.922593 0.527631
O O14 0.272915 0.989024 0.471743
O O15 0.435491 0.014782 0.420936
O O16 0.292211 0.750000 0.998893
O O17 0.399984 0.539262 0.972038
O O18 0.972041 0.750000 0.888952
O O19 0.393438 0.250000 0.253830
O O20 0.970275 0.750000 0.592233
#
# Coordination Sequence:
#
# PCOD9466334 Si02
#       8
#     8   8   8   8   8   8   8   8
#     4  10  23  42  65  92 123 165 213 254 308 376
#     4  11  23  40  61  91 125 160 203 256 315 367
#     4  12  25  41  65  97 130 162 205 260 317 371
#     4  10  22  40  62  93 123 158 207 257 305 359
#     4  10  23  39  61  91 124 160 203 255 312 371
#     4  10  22  41  64  87 124 167 205 247 304 368
#     4  11  24  42  65  92 125 167 213 258 311 379
#     4  10  21  41  65  88 118 161 206 251 309 374
#
# _framework density 21.074155999999999
#
# number of rings (size 3 to 8) (size 9 to 14) (size 15 to 20)
#    0.000    1.500    1.250    3.000    3.500    4.000 
#    0.000    0.000    0.000    0.000    0.000    0.000 
#    0.000    0.000    0.000    0.000    0.000    0.000 
#
# Total GULP energy -358031.452238 kJ/mol
# GULP energy per Si atom -5594.241441 kJ/mol
# Density = 2.102619 g / cm^3
# Si number density = 21.074156 Si / 1000 Ang^3
#
#
#
# Elastic Constant Matrix: (Units=GPa)
#
#
# Indices 1 2 3 4 5 6 
#
# 1 65.9122 30.5272 -11.8842 0.0000 0.0000 0.0000
# 2 30.5272 68.0649 10.9031 0.0000 0.0000 0.0000
# 3 -11.8842 10.9031 43.8692 0.0000 0.0000 0.0000
# 4 0.0000 0.0000 0.0000 24.1546 0.0000 0.0000
# 5 0.0000 0.0000 0.0000 0.0000 6.0481 0.0000
# 6 0.0000 0.0000 0.0000 0.0000 0.0000 24.1453
#
#
#
# Elastic Compliance Matrix: (Units=1/GPa)
#
#
# Indices 1 2 3 4 5 6 
#
# 1 0.021958 -0.011249 0.008744 0.000000 0.000000 0.000000
# 2 -0.011249 0.021064 -0.008283 0.000000 0.000000 0.000000
# 3 0.008744 -0.008283 0.027222 0.000000 0.000000 0.000000
# 4 0.000000 0.000000 0.000000 0.041400 0.000000 0.000000
# 5 0.000000 0.000000 0.000000 0.000000 0.165340 0.000000
# 6 0.000000 0.000000 0.000000 0.000000 0.000000 0.041416
#
#
# Mechanical properties :
#
#
# Convention : Reuss Voigt Hill
#
# Bulk Modulus (GPa) = 20.54651 26.32651 23.43651
# Shear Modulus (GPa) = 14.03710 20.75629 17.39670
#
# Velocity S-wave (km/s) = 2.58366 3.14174 2.87627
# Velocity P-wave (km/s) = 4.32101 5.06756 4.70910
#
# Compressibility (1/GPa) = 0.04867007
#
# Stress axis : x y z
#
# Youngs Moduli (GPa) = 45.54076 47.47469 36.73443
#
# Poissons Ratio (x) = 0.53405 -0.32122
# Poissons Ratio (y) = 0.51229 0.30425
# Poissons Ratio (z) = -0.39822 0.39321
#
# Static dielectric constant tensor:
#      x y z
#    x 1.738900 0.000000 0.000000 
#    y 0.000000 1.710900 0.000000 
#    z 0.000000 0.000000 1.774850 
# 
# From -- ./inp_files/29904.got.cif
#   From: 2010.05.17/outbox.cif.g08.bks.cpg/sg62_15_cif.got.tgz:29904.got - 2010.06.03 15:25:27.
