data_PCOD9466063
_publ_section_title
;
Structure prediction by ZEFSAII (Michael W. Deem and Ramdas Pophale) SiO2 
 PCOD9466063
Probable space group: P N M A
;
_chemical_formula_sum "Si O2"
_cell_formula_units_Z 56
_cell_length_a 5.854691
_cell_length_b 15.804833
_cell_length_c 27.820878
_cell_angle_alpha 90.000000
_cell_angle_beta 90.000000
_cell_angle_gamma 90.000000
_cell_volume 2574.332988
_symmetry_space_group_name_H-M "P N M A"
_symmetry_group_IT_number 62
_symmetry_cell_setting 'orthorhombic'
loop_
_space_group_symop_operation_xyz
x,y,z
1/2-x,-y,1/2+z
1/2+x,1/2-y,1/2-z
-x,1/2+y,-z
-x,-y,-z
1/2+x,y,1/2-z
1/2-x,1/2+y,1/2+z
x,1/2-y,z
loop_
_atom_site_type_symbol
_atom_site_label
_atom_site_fract_x
_atom_site_fract_y
_atom_site_fract_z
Si Si1 0.409639 0.071008 0.462906
Si Si2 0.547019 0.349267 0.268052
Si Si3 0.911012 0.154141 0.762466
Si Si4 0.043667 0.978190 0.396394
Si Si5 0.435946 0.607696 0.362281
Si Si6 0.728212 0.842322 0.446612
Si Si7 0.345995 0.922070 0.632644
O O1 0.325613 0.144674 0.497669
O O2 0.586524 0.100949 0.422003
O O3 0.500000 0.000000 0.500000
O O4 0.213302 0.024860 0.432628
O O5 0.292939 0.383719 0.252897
O O6 0.541121 0.250000 0.254678
O O7 0.575808 0.361000 0.325408
O O8 0.157110 0.115451 0.745736
O O9 0.898958 0.250000 0.741798
O O10 0.952372 0.157767 0.819413
O O11 0.168075 0.910896 0.361737
O O12 0.878351 0.920690 0.428491
O O13 0.918420 0.051987 0.367298
O O14 0.503942 0.647465 0.413253
O O15 0.536234 0.512983 0.357995
O O16 0.830456 0.750000 0.437787
#
# Coordination Sequence:
#
# PCOD9466063 Si02
#       7
#     8   8   8   8   8   8   8
#     4  11  20  41  62  87 129 170 208 265 331 391
#     4  10  24  46  70  99 138 177 219 282 350 404
#     4  10  23  40  58  82 119 163 203 253 314 366
#     4  10  21  39  61  87 122 166 210 260 319 383
#     4  10  22  39  59  88 122 160 206 263 315 379
#     4  11  23  37  60  92 122 162 212 260 318 389
#     4  10  23  38  67  94 120 168 215 262 322 401
#
# _framework density 21.753207
#
# number of rings (size 3 to 8) (size 9 to 14) (size 15 to 20)
#    0.000    1.714    4.286    0.857    8.000    2.857 
#    0.000    0.714    0.000    0.000    0.000    0.000 
#    0.000    0.000    0.000    0.000    0.000    0.000 
#
# Total GULP energy -311911.966601 kJ/mol
# GULP energy per Si atom -5569.856546 kJ/mol
# Density = 2.170370 g / cm^3
# Si number density = 21.753207 Si / 1000 Ang^3
#
#
#
# Elastic Constant Matrix: (Units=GPa)
#
#
# Indices 1 2 3 4 5 6 
#
# 1 104.2667 -0.6410 15.3598 0.0000 0.0000 0.0000
# 2 -0.6410 26.0388 -11.8196 0.0000 0.0000 0.0000
# 3 15.3598 -11.8196 52.7122 0.0000 0.0000 0.0000
# 4 0.0000 0.0000 0.0000 29.8523 0.0000 0.0000
# 5 0.0000 0.0000 0.0000 0.0000 29.2871 0.0000
# 6 0.0000 0.0000 0.0000 0.0000 0.0000 8.3167
#
#
#
# Elastic Compliance Matrix: (Units=1/GPa)
#
#
# Indices 1 2 3 4 5 6 
#
# 1 0.010055 -0.001205 -0.003200 0.000000 0.000000 0.000000
# 2 -0.001205 0.042901 0.009971 0.000000 0.000000 0.000000
# 3 -0.003200 0.009971 0.022139 0.000000 0.000000 0.000000
# 4 0.000000 0.000000 0.000000 0.033498 0.000000 0.000000
# 5 0.000000 0.000000 0.000000 0.000000 0.034145 0.000000
# 6 0.000000 0.000000 0.000000 0.000000 0.000000 0.120240
#
#
# Mechanical properties :
#
#
# Convention : Reuss Voigt Hill
#
# Bulk Modulus (GPa) = 11.59747 20.97954 16.28851
# Shear Modulus (GPa) = 17.81972 25.49914 21.65943
#
# Velocity S-wave (km/s) = 2.86523 3.42746 3.15888
# Velocity P-wave (km/s) = 4.03597 5.03275 4.56167
#
# Compressibility (1/GPa) = 0.08622569
#
# Stress axis : x y z
#
# Youngs Moduli (GPa) = 99.45511 23.30971 45.16888
#
# Poissons Ratio (x) = 0.02809 0.14454
# Poissons Ratio (y) = 0.11985 -0.45037
# Poissons Ratio (z) = 0.31826 -0.23241
#
# Static dielectric constant tensor:
#      x y z
#    x 1.953760 0.000000 0.000000 
#    y 0.000000 1.798340 0.000000 
#    z 0.000000 0.000000 1.818660 
# 
# From -- ./inp_files/31617.got.cif
#   From: 2010.05.17/outbox.cif.g08.bks.cpg/sg62_16_cif.got.tgz:31617.got - 2010.06.03 15:25:27.
