data_PCOD9466822
_publ_section_title
;
Structure prediction by ZEFSAII (Michael W. Deem and Ramdas Pophale) SiO2 
 PCOD9466822
Probable space group: P N M A
;
_chemical_formula_sum "Si O2"
_cell_formula_units_Z 40
_cell_length_a 8.932809
_cell_length_b 14.971405
_cell_length_c 12.524496
_cell_angle_alpha 90.000000
_cell_angle_beta 90.000000
_cell_angle_gamma 90.000000
_cell_volume 1674.984781
_symmetry_space_group_name_H-M "P N M A"
_symmetry_group_IT_number 62
_symmetry_cell_setting 'orthorhombic'
loop_
_space_group_symop_operation_xyz
x,y,z
1/2-x,-y,1/2+z
1/2+x,1/2-y,1/2-z
-x,1/2+y,-z
-x,-y,-z
1/2+x,y,1/2-z
1/2-x,1/2+y,1/2+z
x,1/2-y,z
loop_
_atom_site_type_symbol
_atom_site_label
_atom_site_fract_x
_atom_site_fract_y
_atom_site_fract_z
Si Si1 0.627921 0.856803 0.888201
Si Si2 0.858636 0.063815 0.028380
Si Si3 0.814136 0.855946 0.326090
Si Si4 0.061021 0.145573 0.197739
Si Si5 0.131748 0.576900 0.373729
O O1 0.631047 0.750000 0.877835
O O2 0.498763 0.889734 0.809754
O O3 0.785518 0.895458 0.845750
O O4 0.609494 0.876801 0.011191
O O5 0.930327 0.133102 0.111670
O O6 0.731035 0.007687 0.089187
O O7 0.790073 0.111203 0.924247
O O8 0.000000 0.000000 0.000000
O O9 0.849041 0.750000 0.338002
O O10 0.730870 0.871798 0.213999
O O11 0.963588 0.916431 0.327857
O O12 0.089873 0.250000 0.211724
#
# Coordination Sequence:
#
# PCOD9466822 Si02
#       5
#     8   8   8   8   8
#     4  10  22  42  69 103 140 186 242 305 367 442
#     4  12  26  47  74 109 148 195 249 316 385 446
#     4  12  28  51  77 109 152 208 260 313 382 463
#     4  10  23  42  69 100 141 188 239 299 370 447
#     4  12  27  47  76 109 151 197 257 319 379 444
#
# _framework density 23.880814999999998
#
# number of rings (size 3 to 8) (size 9 to 14) (size 15 to 20)
#    0.000    0.800    2.000    4.200    5.600    1.600 
#    0.000    0.000    0.000    0.000    0.000    0.000 
#    0.000    0.000    0.000    0.000    0.000    0.000 
#
# Total GULP energy -223903.633142 kJ/mol
# GULP energy per Si atom -5597.590829 kJ/mol
# Density = 2.382646 g / cm^3
# Si number density = 23.880815 Si / 1000 Ang^3
#
#
#
# Elastic Constant Matrix: (Units=GPa)
#
#
# Indices 1 2 3 4 5 6 
#
# 1 95.6535 12.8389 59.3071 0.0000 0.0000 0.0000
# 2 12.8389 71.9473 20.9895 0.0000 0.0000 0.0000
# 3 59.3071 20.9895 135.4303 0.0000 0.0000 0.0000
# 4 0.0000 0.0000 0.0000 3.3264 0.0000 0.0000
# 5 0.0000 0.0000 0.0000 0.0000 55.2458 0.0000
# 6 0.0000 0.0000 0.0000 0.0000 0.0000 20.9494
#
#
#
# Elastic Compliance Matrix: (Units=1/GPa)
#
#
# Indices 1 2 3 4 5 6 
#
# 1 0.014391 -0.000764 -0.006184 0.000000 0.000000 0.000000
# 2 -0.000764 0.014598 -0.001928 0.000000 0.000000 0.000000
# 3 -0.006184 -0.001928 0.010391 0.000000 0.000000 0.000000
# 4 0.000000 0.000000 0.000000 0.300621 0.000000 0.000000
# 5 0.000000 0.000000 0.000000 0.000000 0.018101 0.000000
# 6 0.000000 0.000000 0.000000 0.000000 0.000000 0.047734
#
#
# Mechanical properties :
#
#
# Convention : Reuss Voigt Hill
#
# Bulk Modulus (GPa) = 46.23571 54.36689 50.30130
# Shear Modulus (GPa) = 11.60644 29.89737 20.75190
#
# Velocity S-wave (km/s) = 2.20697 3.54212 2.95104
# Velocity P-wave (km/s) = 5.08894 6.28841 5.72020
#
# Compressibility (1/GPa) = 0.02162830
#
# Stress axis : x y z
#
# Youngs Moduli (GPa) = 69.48837 68.50331 96.24135
#
# Poissons Ratio (x) = 0.05234 0.59512
# Poissons Ratio (y) = 0.05309 0.18554
# Poissons Ratio (z) = 0.42969 0.13206
#
# Static dielectric constant tensor:
#      x y z
#    x 1.884780 0.000000 0.000000 
#    y 0.000000 1.923850 0.000000 
#    z 0.000000 0.000000 1.866130 
# 
# From -- ./inp_files/11089.got.cif
#   From: 2010.05.17/outbox.cif.g08.bks.cpg/sg62_6_cif.got.tgz:11089.got - 2010.06.03 15:25:27.
