data_PCOD9466920
_publ_section_title
;
Structure prediction by ZEFSAII (Michael W. Deem and Ramdas Pophale) SiO2 
 PCOD9466920
Probable space group: P N M A
;
_chemical_formula_sum "Si O2"
_cell_formula_units_Z 48
_cell_length_a 14.159490
_cell_length_b 24.778219
_cell_length_c 6.553581
_cell_angle_alpha 90.000000
_cell_angle_beta 90.000000
_cell_angle_gamma 90.000000
_cell_volume 2299.303867
_symmetry_space_group_name_H-M "P N M A"
_symmetry_group_IT_number 62
_symmetry_cell_setting 'orthorhombic'
loop_
_space_group_symop_operation_xyz
x,y,z
1/2-x,-y,1/2+z
1/2+x,1/2-y,1/2-z
-x,1/2+y,-z
-x,-y,-z
1/2+x,y,1/2-z
1/2-x,1/2+y,1/2+z
x,1/2-y,z
loop_
_atom_site_type_symbol
_atom_site_label
_atom_site_fract_x
_atom_site_fract_y
_atom_site_fract_z
Si Si1 0.052292 0.462193 0.659350
Si Si2 0.029264 0.617265 0.038932
Si Si3 0.347913 0.687742 0.590530
Si Si4 0.165217 0.563102 0.710279
Si Si5 0.187797 0.635267 0.331027
Si Si6 0.677826 0.384442 0.048670
O O1 0.998135 0.439078 0.852851
O O2 0.138323 0.500642 0.727713
O O3 0.082244 0.410170 0.529379
O O4 0.000000 0.500000 0.500000
O O5 0.093406 0.649676 0.204280
O O6 0.933983 0.649629 0.985653
O O7 0.093114 0.600091 0.844716
O O8 0.372853 0.750000 0.568614
O O9 0.249630 0.675568 0.471214
O O10 0.332389 0.670296 0.825376
O O11 0.163839 0.585585 0.480565
O O12 0.268792 0.574766 0.799147
O O13 0.259107 0.620148 0.151144
#
# Coordination Sequence:
#
# PCOD9466920 Si02
#       6
#     8   8   8   8   8   8
#     4  12  22  37  66  96 138 180 214 257 337 402
#     4  11  23  42  67 101 138 171 227 279 322 410
#     4  11  25  45  69  93 127 175 226 288 344 386
#     4  10  23  38  65  97 137 176 211 265 330 400
#     4  10  22  46  65  97 134 170 222 275 329 404
#     4  10  24  41  62  95 134 168 223 271 323 410
#
# _framework density 20.875883000000002
#
# number of rings (size 3 to 8) (size 9 to 14) (size 15 to 20)
#    0.000    1.333    3.333    1.500    2.333    1.333 
#    0.000    6.667    0.000    0.000    0.000    0.000 
#    0.000    0.000    0.000    0.000    0.000    0.000 
#
# Total GULP energy -267909.580803 kJ/mol
# GULP energy per Si atom -5581.449600 kJ/mol
# Density = 2.082837 g / cm^3
# Si number density = 20.875883 Si / 1000 Ang^3
#
#
#
# Elastic Constant Matrix: (Units=GPa)
#
#
# Indices 1 2 3 4 5 6 
#
# 1 63.8296 16.4721 28.5688 0.0000 0.0000 0.0000
# 2 16.4721 67.9700 27.7152 0.0000 0.0000 0.0000
# 3 28.5688 27.7152 114.4702 0.0000 0.0000 0.0000
# 4 0.0000 0.0000 0.0000 16.2283 0.0000 0.0000
# 5 0.0000 0.0000 0.0000 0.0000 40.8668 0.0000
# 6 0.0000 0.0000 0.0000 0.0000 0.0000 20.0112
#
#
#
# Elastic Compliance Matrix: (Units=1/GPa)
#
#
# Indices 1 2 3 4 5 6 
#
# 1 0.018113 -0.002825 -0.003836 0.000000 0.000000 0.000000
# 2 -0.002825 0.016765 -0.003354 0.000000 0.000000 0.000000
# 3 -0.003836 -0.003354 0.010505 0.000000 0.000000 0.000000
# 4 0.000000 0.000000 0.000000 0.061621 0.000000 0.000000
# 5 0.000000 0.000000 0.000000 0.000000 0.024470 0.000000
# 6 0.000000 0.000000 0.000000 0.000000 0.000000 0.049972
#
#
# Mechanical properties :
#
#
# Convention : Reuss Voigt Hill
#
# Bulk Modulus (GPa) = 39.44496 43.53134 41.48815
# Shear Modulus (GPa) = 23.81776 26.98884 25.40330
#
# Velocity S-wave (km/s) = 3.38142 3.59949 3.49216
# Velocity P-wave (km/s) = 5.84648 6.17841 6.01474
#
# Compressibility (1/GPa) = 0.02535178
#
# Stress axis : x y z
#
# Youngs Moduli (GPa) = 55.20914 59.64946 95.18897
#
# Poissons Ratio (x) = 0.16852 0.36519
# Poissons Ratio (y) = 0.15598 0.31925
# Poissons Ratio (z) = 0.21181 0.20006
#
# Static dielectric constant tensor:
#      x y z
#    x 1.833660 0.000000 0.000000 
#    y 0.000000 1.728160 0.000000 
#    z 0.000000 0.000000 1.790040 
# 
# From -- ./inp_files/1158.got.cif
#   From: 2010.05.17/outbox.cif.g08.bks.cpg/sg62_1_cif.got.tgz:1158.got - 2010.06.03 15:25:27.
