data_PCOD9466922
_publ_section_title
;
Structure prediction by ZEFSAII (Michael W. Deem and Ramdas Pophale) SiO2 
 PCOD9466922
Probable space group: P N M A
;
_chemical_formula_sum "Si O2"
_cell_formula_units_Z 60
_cell_length_a 18.535782
_cell_length_b 25.379989
_cell_length_c 6.610807
_cell_angle_alpha 90.000000
_cell_angle_beta 90.000000
_cell_angle_gamma 90.000000
_cell_volume 3109.974448
_symmetry_space_group_name_H-M "P N M A"
_symmetry_group_IT_number 62
_symmetry_cell_setting 'orthorhombic'
loop_
_space_group_symop_operation_xyz
x,y,z
1/2-x,-y,1/2+z
1/2+x,1/2-y,1/2-z
-x,1/2+y,-z
-x,-y,-z
1/2+x,y,1/2-z
1/2-x,1/2+y,1/2+z
x,1/2-y,z
loop_
_atom_site_type_symbol
_atom_site_label
_atom_site_fract_x
_atom_site_fract_y
_atom_site_fract_z
Si Si1 0.930307 0.006331 0.142681
Si Si2 0.243432 0.750000 0.968307
Si Si3 0.926122 0.097505 0.479918
Si Si4 0.206046 0.657058 0.664983
Si Si5 0.713302 0.072303 0.081159
Si Si6 0.676083 0.963207 0.289922
Si Si7 0.320464 0.807911 0.329057
Si Si8 0.082528 0.106436 0.641865
O O1 0.938957 0.053142 0.306532
O O2 0.918583 0.951119 0.255384
O O3 0.864080 0.018924 0.994534
O O4 0.000000 0.000000 0.000000
O O5 0.210124 0.703772 0.824427
O O6 0.281430 0.794903 0.117145
O O7 0.875060 0.143874 0.400118
O O8 0.879682 0.070023 0.657351
O O9 0.002092 0.117103 0.565723
O O10 0.237669 0.603950 0.763614
O O11 0.259515 0.672079 0.482269
O O12 0.699286 0.013836 0.162292
O O13 0.754375 0.068700 0.866194
O O14 0.637276 0.100779 0.046270
O O15 0.347032 0.750000 0.404207
O O16 0.383800 0.849541 0.289053
#
# Coordination Sequence:
#
# PCOD9466922 Si02
#       8
#     8   4   8   8   8   8   8   8
#     4  12  23  43  63  95 147 190 219 272 338 401
#     4  10  22  46  70  96 124 164 228 290 350 402
#     4  12  26  41  65 102 144 177 226 271 338 421
#     4  12  23  45  71  97 127 175 225 283 347 404
#     4  12  22  39  69  94 134 179 227 273 325 395
#     4  12  23  41  60 100 142 178 233 273 317 409
#     4  10  23  45  73  94 125 169 231 287 343 394
#     4  12  23  43  66  98 137 183 223 282 333 401
#
# _framework density 19.292763999999998
#
# number of rings (size 3 to 8) (size 9 to 14) (size 15 to 20)
#    0.400    0.000    6.000    4.400    0.000    0.000 
#    1.200    0.000    0.000    0.000    0.000    0.000 
#    0.000    0.000    0.000    0.000    0.000    0.000 
#
# Total GULP energy -334340.400305 kJ/mol
# GULP energy per Si atom -5572.340005 kJ/mol
# Density = 1.924885 g / cm^3
# Si number density = 19.292764 Si / 1000 Ang^3
#
#
#
# Elastic Constant Matrix: (Units=GPa)
#
#
# Indices 1 2 3 4 5 6 
#
# 1 101.3237 23.9346 24.9592 0.0000 0.0000 0.0000
# 2 23.9346 67.3250 13.7952 0.0000 0.0000 0.0000
# 3 24.9592 13.7952 48.8612 0.0000 0.0000 0.0000
# 4 0.0000 0.0000 0.0000 31.3586 0.0000 0.0000
# 5 0.0000 0.0000 0.0000 0.0000 35.7599 0.0000
# 6 0.0000 0.0000 0.0000 0.0000 0.0000 12.9349
#
#
#
# Elastic Compliance Matrix: (Units=1/GPa)
#
#
# Indices 1 2 3 4 5 6 
#
# 1 0.011894 -0.003167 -0.005182 0.000000 0.000000 0.000000
# 2 -0.003167 0.016608 -0.003072 0.000000 0.000000 0.000000
# 3 -0.005182 -0.003072 0.023980 0.000000 0.000000 0.000000
# 4 0.000000 0.000000 0.000000 0.031889 0.000000 0.000000
# 5 0.000000 0.000000 0.000000 0.000000 0.027964 0.000000
# 6 0.000000 0.000000 0.000000 0.000000 0.000000 0.077310
#
#
# Mechanical properties :
#
#
# Convention : Reuss Voigt Hill
#
# Bulk Modulus (GPa) = 33.73480 38.09867 35.91673
# Shear Modulus (GPa) = 22.48541 26.33208 24.40874
#
# Velocity S-wave (km/s) = 3.41762 3.69842 3.56079
# Velocity P-wave (km/s) = 5.75302 6.16671 5.96345
#
# Compressibility (1/GPa) = 0.02964298
#
# Stress axis : x y z
#
# Youngs Moduli (GPa) = 84.07780 60.21026 41.70117
#
# Poissons Ratio (x) = 0.19066 0.21607
# Poissons Ratio (y) = 0.26624 0.12809
# Poissons Ratio (z) = 0.43565 0.18494
#
# Static dielectric constant tensor:
#      x y z
#    x 1.677680 0.000000 0.000000 
#    y 0.000000 1.671170 0.000000 
#    z 0.000000 0.000000 1.690110 
# 
# From -- ./inp_files/1811.got.cif
#   From: 2010.05.17/outbox.cif.g08.bks.cpg/sg62_1_cif.got.tgz:1811.got - 2010.06.03 15:25:27.
