data_PCOD9466674
_publ_section_title
;
Structure prediction by ZEFSAII (Michael W. Deem and Ramdas Pophale) SiO2 
 PCOD9466674
Probable space group: P N M A
;
_chemical_formula_sum "Si O2"
_cell_formula_units_Z 48
_cell_length_a 6.646703
_cell_length_b 20.445217
_cell_length_c 13.852077
_cell_angle_alpha 90.000000
_cell_angle_beta 90.000000
_cell_angle_gamma 90.000000
_cell_volume 1882.404250
_symmetry_space_group_name_H-M "P N M A"
_symmetry_group_IT_number 62
_symmetry_cell_setting 'orthorhombic'
loop_
_space_group_symop_operation_xyz
x,y,z
1/2-x,-y,1/2+z
1/2+x,1/2-y,1/2-z
-x,1/2+y,-z
-x,-y,-z
1/2+x,y,1/2-z
1/2-x,1/2+y,1/2+z
x,1/2-y,z
loop_
_atom_site_type_symbol
_atom_site_label
_atom_site_fract_x
_atom_site_fract_y
_atom_site_fract_z
Si Si1 0.299956 0.116129 0.137189
Si Si2 0.594883 0.750000 0.776373
Si Si3 0.397523 0.571494 0.004268
Si Si4 0.270448 0.250000 0.426763
Si Si5 0.783082 0.413614 0.660769
Si Si6 0.092149 0.978398 0.143490
Si Si7 0.051921 0.175720 0.963055
O O1 0.302817 0.178370 0.207881
O O2 0.196645 0.047784 0.166624
O O3 0.524816 0.102843 0.095654
O O4 0.167367 0.136896 0.045572
O O5 0.431267 0.750000 0.863893
O O6 0.564466 0.750000 0.660319
O O7 0.525212 0.601186 0.094302
O O8 0.179325 0.555474 0.047171
O O9 0.500000 0.500000 0.000000
O O10 0.323012 0.311104 0.497658
O O11 0.852676 0.432191 0.766479
O O12 0.647736 0.477456 0.633018
O O13 0.624846 0.356060 0.636341
O O14 0.130505 0.250000 0.962543
#
# Coordination Sequence:
#
# PCOD9466674 Si02
#       7
#     8   4   8   4   8   8   8
#     4  10  22  40  66  92 132 167 215 273 337 394
#     4  12  22  42  64  95 126 171 215 281 330 401
#     4   9  21  40  59  95 127 168 211 267 330 392
#     4  10  24  40  62  91 124 165 219 263 332 397
#     4  11  22  41  68  93 136 172 221 273 326 398
#     4  11  23  40  64 101 133 173 221 272 332 393
#     4   9  21  44  63  92 128 172 218 271 329 393
#
# _framework density 25.499306000000001
#
# number of rings (size 3 to 8) (size 9 to 14) (size 15 to 20)
#    0.500    1.333    2.500    1.000    2.333    8.667 
#    3.000    0.833    1.833    0.000    0.000    0.000 
#    0.000    0.000    0.000    0.000    0.000    0.000 
#
# Total GULP energy -267601.971671 kJ/mol
# GULP energy per Si atom -5575.041076 kJ/mol
# Density = 2.544127 g / cm^3
# Si number density = 25.499306 Si / 1000 Ang^3
#
#
#
# Elastic Constant Matrix: (Units=GPa)
#
#
# Indices 1 2 3 4 5 6 
#
# 1 83.2352 9.5027 11.3189 0.0000 0.0000 0.0000
# 2 9.5027 116.3402 63.8817 0.0000 0.0000 0.0000
# 3 11.3189 63.8817 106.9181 0.0000 0.0000 0.0000
# 4 0.0000 0.0000 0.0000 51.8652 0.0000 0.0000
# 5 0.0000 0.0000 0.0000 0.0000 47.3337 0.0000
# 6 0.0000 0.0000 0.0000 0.0000 0.0000 32.8950
#
#
#
# Elastic Compliance Matrix: (Units=1/GPa)
#
#
# Indices 1 2 3 4 5 6 
#
# 1 0.012204 -0.000428 -0.001036 0.000000 0.000000 0.000000
# 2 -0.000428 0.012807 -0.007607 0.000000 0.000000 0.000000
# 3 -0.001036 -0.007607 0.014008 0.000000 0.000000 0.000000
# 4 0.000000 0.000000 0.000000 0.019281 0.000000 0.000000
# 5 0.000000 0.000000 0.000000 0.000000 0.021127 0.000000
# 6 0.000000 0.000000 0.000000 0.000000 0.000000 0.030400
#
#
# Mechanical properties :
#
#
# Convention : Reuss Voigt Hill
#
# Bulk Modulus (GPa) = 47.89992 52.87779 50.38886
# Shear Modulus (GPa) = 37.05711 41.20480 39.13095
#
# Velocity S-wave (km/s) = 3.81630 4.02421 3.92163
# Velocity P-wave (km/s) = 6.18421 6.50956 6.34897
#
# Compressibility (1/GPa) = 0.02087686
#
# Stress axis : x y z
#
# Youngs Moduli (GPa) = 81.94087 78.08056 71.38969
#
# Poissons Ratio (x) = 0.03340 0.07399
# Poissons Ratio (y) = 0.03505 0.54305
# Poissons Ratio (z) = 0.08492 0.59395
#
# Static dielectric constant tensor:
#      x y z
#    x 2.254730 0.000000 0.000000 
#    y 0.000000 2.089620 0.000000 
#    z 0.000000 0.000000 1.981790 
# 
# From -- ./inp_files/17107.got.cif
#   From: 2010.05.17/outbox.cif.g08.bks.cpg/sg62_9_cif.got.tgz:17107.got - 2010.06.03 15:25:27.
