data_PCOD9466618
_publ_section_title
;
Structure prediction by ZEFSAII (Michael W. Deem and Ramdas Pophale) SiO2 
 PCOD9466618
Probable space group: P N M A
;
_chemical_formula_sum "Si O2"
_cell_formula_units_Z 40
_cell_length_a 5.109440
_cell_length_b 25.081048
_cell_length_c 14.903039
_cell_angle_alpha 90.000000
_cell_angle_beta 90.000000
_cell_angle_gamma 90.000000
_cell_volume 1909.826086
_symmetry_space_group_name_H-M "P N M A"
_symmetry_group_IT_number 62
_symmetry_cell_setting 'orthorhombic'
loop_
_space_group_symop_operation_xyz
x,y,z
1/2-x,-y,1/2+z
1/2+x,1/2-y,1/2-z
-x,1/2+y,-z
-x,-y,-z
1/2+x,y,1/2-z
1/2-x,1/2+y,1/2+z
x,1/2-y,z
loop_
_atom_site_type_symbol
_atom_site_label
_atom_site_fract_x
_atom_site_fract_y
_atom_site_fract_z
Si Si1 0.586510 0.066086 0.694420
Si Si2 0.894754 0.366859 0.977124
Si Si3 0.460523 0.535199 0.588480
Si Si4 0.601872 0.812109 0.960602
Si Si5 0.917558 0.400402 0.313798
O O1 0.881831 0.076135 0.725187
O O2 0.488150 0.101744 0.611165
O O3 0.561059 0.004167 0.665486
O O4 0.903027 0.409499 0.059510
O O5 0.611957 0.340298 0.975366
O O6 0.111376 0.322851 0.000068
O O7 0.500000 0.500000 0.500000
O O8 0.165019 0.553277 0.614669
O O9 0.548194 0.750000 0.949664
O O10 0.586477 0.844948 0.867828
O O11 0.677142 0.403821 0.244155
#
# Coordination Sequence:
#
# PCOD9466618 Si02
#       5
#     8   8   8   8   8
#     4  11  22  37  61  90 123 157 194 243 300 359
#     4  10  22  40  61  88 120 155 201 249 293 357
#     4   9  20  37  58  87 122 162 198 230 283 356
#     4  11  23  41  64  85 113 160 206 248 302 361
#     4  11  22  37  57  86 123 154 192 246 295 343
#
# _framework density 20.944313999999999
#
# number of rings (size 3 to 8) (size 9 to 14) (size 15 to 20)
#    0.000    1.600    0.000    5.400    0.000    4.000 
#    0.000   17.000    0.000   12.000    0.000    0.000 
#    0.000    0.000    0.000    0.000    0.000    0.000 
#
# Total GULP energy -223479.335057 kJ/mol
# GULP energy per Si atom -5586.983376 kJ/mol
# Density = 2.089664 g / cm^3
# Si number density = 20.944314 Si / 1000 Ang^3
#
#
#
# Elastic Constant Matrix: (Units=GPa)
#
#
# Indices 1 2 3 4 5 6 
#
# 1 76.5952 18.6181 10.2890 0.0000 0.0000 0.0000
# 2 18.6181 115.4816 34.9785 0.0000 0.0000 0.0000
# 3 10.2890 34.9785 79.2121 0.0000 0.0000 0.0000
# 4 0.0000 0.0000 0.0000 20.8613 0.0000 0.0000
# 5 0.0000 0.0000 0.0000 0.0000 39.6760 0.0000
# 6 0.0000 0.0000 0.0000 0.0000 0.0000 24.2793
#
#
#
# Elastic Compliance Matrix: (Units=1/GPa)
#
#
# Indices 1 2 3 4 5 6 
#
# 1 0.013647 -0.001920 -0.000925 0.000000 0.000000 0.000000
# 2 -0.001920 0.010267 -0.004284 0.000000 0.000000 0.000000
# 3 -0.000925 -0.004284 0.014636 0.000000 0.000000 0.000000
# 4 0.000000 0.000000 0.000000 0.047936 0.000000 0.000000
# 5 0.000000 0.000000 0.000000 0.000000 0.025204 0.000000
# 6 0.000000 0.000000 0.000000 0.000000 0.000000 0.041187
#
#
# Mechanical properties :
#
#
# Convention : Reuss Voigt Hill
#
# Bulk Modulus (GPa) = 41.16645 44.34000 42.75322
# Shear Modulus (GPa) = 28.53370 30.79022 29.66196
#
# Velocity S-wave (km/s) = 3.69502 3.83835 3.76737
# Velocity P-wave (km/s) = 6.15647 6.39220 6.27544
#
# Compressibility (1/GPa) = 0.02429162
#
# Stress axis : x y z
#
# Youngs Moduli (GPa) = 73.27849 97.40355 68.32365
#
# Poissons Ratio (x) = 0.18702 0.06318
# Poissons Ratio (y) = 0.14070 0.29271
# Poissons Ratio (z) = 0.06776 0.41729
#
# Static dielectric constant tensor:
#      x y z
#    x 1.776580 0.000000 0.000000 
#    y 0.000000 1.725220 0.000000 
#    z 0.000000 0.000000 1.795350 
# 
# From -- ./inp_files/16158.got.cif
#   From: 2010.05.17/outbox.cif.g08.bks.cpg/sg62_9_cif.got.tgz:16158.got - 2010.06.03 15:25:27.
