data_PCOD9466989
_publ_section_title
;
Structure prediction by ZEFSAII (Michael W. Deem and Ramdas Pophale) SiO2 
 PCOD9466989
Probable space group: P N M A
;
_chemical_formula_sum "Si O2"
_cell_formula_units_Z 44
_cell_length_a 13.971271
_cell_length_b 16.982924
_cell_length_c 9.483965
_cell_angle_alpha 90.000000
_cell_angle_beta 90.000000
_cell_angle_gamma 90.000000
_cell_volume 2250.289146
_symmetry_space_group_name_H-M "P N M A"
_symmetry_group_IT_number 62
_symmetry_cell_setting 'orthorhombic'
loop_
_space_group_symop_operation_xyz
x,y,z
1/2-x,-y,1/2+z
1/2+x,1/2-y,1/2-z
-x,1/2+y,-z
-x,-y,-z
1/2+x,y,1/2-z
1/2-x,1/2+y,1/2+z
x,1/2-y,z
loop_
_atom_site_type_symbol
_atom_site_label
_atom_site_fract_x
_atom_site_fract_y
_atom_site_fract_z
Si Si1 0.486375 0.750000 0.090250
Si Si2 0.223510 0.603546 0.817431
Si Si3 0.569534 0.603531 0.914800
Si Si4 0.276906 0.750000 0.993709
Si Si5 0.601723 0.996835 0.182805
Si Si6 0.938775 0.077271 0.964936
Si Si7 0.557158 0.750000 0.411775
O O1 0.370649 0.750000 0.089757
O O2 0.524741 0.750000 0.249654
O O3 0.523664 0.674536 0.002886
O O4 0.153476 0.628486 0.691085
O O5 0.302159 0.540843 0.772710
O O6 0.277657 0.675138 0.891459
O O7 0.155002 0.570033 0.939482
O O8 0.486658 0.557901 0.828282
O O9 0.610130 0.541641 0.028960
O O10 0.173623 0.750000 0.072054
O O11 0.581503 0.930921 0.298939
O O12 0.975872 0.167408 0.983905
O O13 0.000000 0.000000 0.000000
#
# Coordination Sequence:
#
# PCOD9466989 Si02
#       7
#     4   8   8   4   8   8   4
#     4  12  21  45  67  94 138 178 224 283 337 410
#     4  11  22  41  64  95 131 173 226 275 336 403
#     4  11  23  38  67  94 129 175 221 274 333 401
#     4  10  23  41  67  94 128 182 222 279 341 402
#     4  11  22  40  61  98 126 174 222 267 343 398
#     4  11  22  43  66  94 134 174 220 279 339 395
#     4  10  24  44  66  96 140 172 226 278 344 408
#
# _framework density 19.553042999999999
#
# number of rings (size 3 to 8) (size 9 to 14) (size 15 to 20)
#    0.000    1.091    5.455    1.636    0.000    0.000 
#    6.545    0.909    0.000    0.000    0.000    0.000 
#    0.000    0.000    0.000    0.000    0.000    0.000 
#
# Total GULP energy -245554.821327 kJ/mol
# GULP energy per Si atom -5580.791394 kJ/mol
# Density = 1.950854 g / cm^3
# Si number density = 19.553043 Si / 1000 Ang^3
#
#
#
# Elastic Constant Matrix: (Units=GPa)
#
#
# Indices 1 2 3 4 5 6 
#
# 1 54.1403 29.7713 18.9854 0.0000 0.0000 0.0000
# 2 29.7713 107.2842 1.5988 0.0000 0.0000 0.0000
# 3 18.9854 1.5988 59.2298 0.0000 0.0000 0.0000
# 4 0.0000 0.0000 0.0000 28.3752 0.0000 0.0000
# 5 0.0000 0.0000 0.0000 0.0000 27.0794 0.0000
# 6 0.0000 0.0000 0.0000 0.0000 0.0000 21.1315
#
#
#
# Elastic Compliance Matrix: (Units=1/GPa)
#
#
# Indices 1 2 3 4 5 6 
#
# 1 0.024955 -0.006809 -0.007815 0.000000 0.000000 0.000000
# 2 -0.006809 0.011182 0.001881 0.000000 0.000000 0.000000
# 3 -0.007815 0.001881 0.019338 0.000000 0.000000 0.000000
# 4 0.000000 0.000000 0.000000 0.035242 0.000000 0.000000
# 5 0.000000 0.000000 0.000000 0.000000 0.036928 0.000000
# 6 0.000000 0.000000 0.000000 0.000000 0.000000 0.047323
#
#
# Mechanical properties :
#
#
# Convention : Reuss Voigt Hill
#
# Bulk Modulus (GPa) = 33.34595 35.70725 34.52660
# Shear Modulus (GPa) = 23.75848 26.67047 25.21447
#
# Velocity S-wave (km/s) = 3.48958 3.69725 3.59492
# Velocity P-wave (km/s) = 5.77298 6.04381 5.90995
#
# Compressibility (1/GPa) = 0.02998865
#
# Stress axis : x y z
#
# Youngs Moduli (GPa) = 40.07201 89.42641 51.71247
#
# Poissons Ratio (x) = 0.60886 0.40415
# Poissons Ratio (y) = 0.27283 -0.09725
# Poissons Ratio (z) = 0.31317 -0.16817
#
# Static dielectric constant tensor:
#      x y z
#    x 1.664280 0.000000 0.000000 
#    y 0.000000 1.748200 0.000000 
#    z 0.000000 0.000000 1.660280 
# 
# From -- ./inp_files/6375.got.cif
#   From: 2010.05.17/outbox.cif.g08.bks.cpg/sg62_4_cif.got.tgz:6375.got - 2010.06.03 15:25:27.
