data_PCOD9466610
_publ_section_title
;
Structure prediction by ZEFSAII (Michael W. Deem and Ramdas Pophale) SiO2 
 PCOD9466610
Probable space group: P N M A
;
_chemical_formula_sum "Si O2"
_cell_formula_units_Z 64
_cell_length_a 15.799564
_cell_length_b 8.116124
_cell_length_c 24.445103
_cell_angle_alpha 90.000000
_cell_angle_beta 90.000000
_cell_angle_gamma 90.000000
_cell_volume 3134.625395
_symmetry_space_group_name_H-M "P N M A"
_symmetry_group_IT_number 62
_symmetry_cell_setting 'orthorhombic'
loop_
_space_group_symop_operation_xyz
x,y,z
1/2-x,-y,1/2+z
1/2+x,1/2-y,1/2-z
-x,1/2+y,-z
-x,-y,-z
1/2+x,y,1/2-z
1/2-x,1/2+y,1/2+z
x,1/2-y,z
loop_
_atom_site_type_symbol
_atom_site_label
_atom_site_fract_x
_atom_site_fract_y
_atom_site_fract_z
Si Si1 0.848452 0.442082 0.253243
Si Si2 0.907255 0.048719 0.625189
Si Si3 0.586343 0.445086 0.352941
Si Si4 0.237179 0.445620 0.070361
Si Si5 0.340150 0.444212 0.756044
Si Si6 0.402503 0.946210 0.367134
Si Si7 0.249047 0.048104 0.946455
Si Si8 0.904338 0.943711 0.369227
O O1 0.870022 0.250000 0.255757
O O2 0.747337 0.465568 0.258045
O O3 0.875281 0.511855 0.194659
O O4 0.891953 0.530720 0.304367
O O5 0.909282 0.250000 0.625386
O O6 0.876978 0.999028 0.685897
O O7 0.836965 0.995912 0.581608
O O8 0.002833 0.992414 0.614553
O O9 0.598141 0.250000 0.345048
O O10 0.660929 0.511209 0.392069
O O11 0.595527 0.527554 0.293563
O O12 0.494166 0.477144 0.377340
O O13 0.222576 0.250000 0.066062
O O14 0.326315 0.473100 0.100064
O O15 0.239577 0.510699 0.008548
O O16 0.320603 0.250000 0.760789
O O17 0.409414 0.750000 0.372397
O O18 0.329252 0.003839 0.408373
O O19 0.249733 0.250000 0.946441
O O20 0.899953 0.750000 0.381292
#
# Coordination Sequence:
#
# PCOD9466610 Si02
#       8
#     8   8   8   8   8   8   8   8
#     4  12  23  37  59  89 125 157 189 243 310 363
#     4   9  19  36  60  89 116 149 196 244 289 344
#     4  11  23  38  57  88 126 159 195 245 305 359
#     4  10  22  40  61  84 118 161 201 246 303 354
#     4  11  20  36  63  90 118 156 201 243 292 362
#     4  11  22  39  64  89 115 157 207 248 295 360
#     4   9  19  39  63  85 114 157 204 250 298 353
#     4  11  22  37  61  90 120 156 201 246 290 354
#
# _framework density 20.417111999999999
#
# number of rings (size 3 to 8) (size 9 to 14) (size 15 to 20)
#    0.000    1.500    2.500    3.375    0.000    2.500 
#    0.000    3.125    0.000    0.000    0.000    0.000 
#    0.000    0.000    0.000    0.000    0.000    0.000 
#
# Total GULP energy -357770.910495 kJ/mol
# GULP energy per Si atom -5590.170476 kJ/mol
# Density = 2.037064 g / cm^3
# Si number density = 20.417112 Si / 1000 Ang^3
#
#
#
# Elastic Constant Matrix: (Units=GPa)
#
#
# Indices 1 2 3 4 5 6 
#
# 1 95.9547 -5.0056 34.6883 0.0000 0.0000 0.0000
# 2 -5.0056 9.5311 -5.4075 0.0000 0.0000 0.0000
# 3 34.6883 -5.4075 113.1754 0.0000 0.0000 0.0000
# 4 0.0000 0.0000 0.0000 15.4624 0.0000 0.0000
# 5 0.0000 0.0000 0.0000 0.0000 -4.4630 0.0000
# 6 0.0000 0.0000 0.0000 0.0000 0.0000 20.9712
#
#
#
# Elastic Compliance Matrix: (Units=1/GPa)
#
#
# Indices 1 2 3 4 5 6 
#
# 1 0.011889 0.004293 -0.003439 0.000000 0.000000 0.000000
# 2 0.004293 0.109394 0.003911 0.000000 0.000000 0.000000
# 3 -0.003439 0.003911 0.010077 0.000000 0.000000 0.000000
# 4 0.000000 0.000000 0.000000 0.064673 0.000000 0.000000
# 5 0.000000 0.000000 0.000000 0.000000 -0.224062 0.000000
# 6 0.000000 0.000000 0.000000 0.000000 0.000000 0.047684
#
#
# Mechanical properties :
#
#
# Convention : Reuss Voigt Hill
#
# Bulk Modulus (GPa) = 7.09779 29.69019 18.39399
# Shear Modulus (GPa) = 87.58598 19.35318 53.46958
#
# Velocity S-wave (km/s) = 6.55679 3.08212 5.12303
# Velocity P-wave (km/s) = 7.79781 5.21913 6.63495
#
# Compressibility (1/GPa) = 0.14088901
#
# Stress axis : x y z
#
# Youngs Moduli (GPa) = 84.11374 9.14131 99.23889
#
# Poissons Ratio (x) = -0.03924 0.34126
# Poissons Ratio (y) = -0.36109 -0.38812
# Poissons Ratio (z) = 0.28925 -0.03575
#
# Static dielectric constant tensor:
#      x y z
#    x 1.722690 0.000000 0.000000 
#    y 0.000000 1.719800 0.000000 
#    z 0.000000 0.000000 1.698470 
# 
# From -- ./inp_files/29869.got.cif
#   From: 2010.05.17/outbox.cif.g08.bks.cpg/sg62_15_cif.got.tgz:29869.got - 2010.06.03 15:25:27.
