data_PCOD9466046
_publ_section_title
;
Structure prediction by ZEFSAII (Michael W. Deem and Ramdas Pophale) SiO2 
 PCOD9466046
Probable space group: P N M A
;
_chemical_formula_sum "Si O2"
_cell_formula_units_Z 60
_cell_length_a 10.201102
_cell_length_b 27.101449
_cell_length_c 9.333266
_cell_angle_alpha 90.000000
_cell_angle_beta 90.000000
_cell_angle_gamma 90.000000
_cell_volume 2580.318077
_symmetry_space_group_name_H-M "P N M A"
_symmetry_group_IT_number 62
_symmetry_cell_setting 'orthorhombic'
loop_
_space_group_symop_operation_xyz
x,y,z
1/2-x,-y,1/2+z
1/2+x,1/2-y,1/2-z
-x,1/2+y,-z
-x,-y,-z
1/2+x,y,1/2-z
1/2-x,1/2+y,1/2+z
x,1/2-y,z
loop_
_atom_site_type_symbol
_atom_site_label
_atom_site_fract_x
_atom_site_fract_y
_atom_site_fract_z
Si Si1 0.803057 0.250000 0.600735
Si Si2 0.710462 0.336455 0.818636
Si Si3 0.987176 0.507433 0.669536
Si Si4 0.388662 0.884233 0.745416
Si Si5 0.140222 0.990790 0.933951
Si Si6 0.856383 0.379638 0.081538
Si Si7 0.196243 0.575832 0.365049
Si Si8 0.039702 0.836995 0.501825
O O1 0.758406 0.293543 0.714866
O O2 0.858091 0.293243 0.492286
O O3 0.716166 0.388480 0.732882
O O4 0.565350 0.325199 0.875917
O O5 0.805508 0.343927 0.956470
O O6 0.919757 0.559501 0.706312
O O7 0.899641 0.461090 0.719470
O O8 0.000000 0.500000 0.500000
O O9 0.119291 0.506847 0.761234
O O10 0.233507 0.874462 0.773174
O O11 0.486816 0.876966 0.609620
O O12 0.454742 0.847155 0.858900
O O13 0.226487 0.038154 0.966976
O O14 0.179840 0.935312 0.967941
O O15 0.000000 0.000000 0.000000
O O16 0.108863 0.612422 0.457848
#
# Coordination Sequence:
#
# PCOD9466046 Si02
#       8
#     4   8   8   8   8   8   8   8
#     4  10  22  42  70  94 118 158 216 290 346 408
#     4  10  22  41  64  95 128 167 222 287 347 403
#     4  11  21  35  55  81 125 178 221 262 322 396
#     4  10  21  39  60  89 129 179 216 270 328 409
#     4  11  24  36  55  90 131 176 231 278 321 396
#     4  10  22  40  60  89 134 173 225 271 334 406
#     4  11  21  35  61  88 127 175 224 268 330 397
#     4  10  21  39  64  91 125 166 216 275 348 404
#
# _framework density 23.252946000000001
#
# number of rings (size 3 to 8) (size 9 to 14) (size 15 to 20)
#    0.000    1.600    2.667    2.000    1.867    4.267 
#    0.000    4.667    0.000    0.000    0.000    0.000 
#    0.000    0.000    0.000    0.000    0.000    0.000 
#
# Total GULP energy -334151.977798 kJ/mol
# GULP energy per Si atom -5569.199630 kJ/mol
# Density = 2.320002 g / cm^3
# Si number density = 23.252946 Si / 1000 Ang^3
#
#
#
# Elastic Constant Matrix: (Units=GPa)
#
#
# Indices 1 2 3 4 5 6 
#
# 1 50.4832 4.7523 0.9755 0.0000 0.0000 0.0000
# 2 4.7523 116.5104 8.5927 0.0000 0.0000 0.0000
# 3 0.9755 8.5927 55.4860 0.0000 0.0000 0.0000
# 4 0.0000 0.0000 0.0000 31.2129 0.0000 0.0000
# 5 0.0000 0.0000 0.0000 0.0000 29.7710 0.0000
# 6 0.0000 0.0000 0.0000 0.0000 0.0000 21.0652
#
#
#
# Elastic Compliance Matrix: (Units=1/GPa)
#
#
# Indices 1 2 3 4 5 6 
#
# 1 0.019888 -0.000794 -0.000227 0.000000 0.000000 0.000000
# 2 -0.000794 0.008714 -0.001335 0.000000 0.000000 0.000000
# 3 -0.000227 -0.001335 0.018233 0.000000 0.000000 0.000000
# 4 0.000000 0.000000 0.000000 0.032038 0.000000 0.000000
# 5 0.000000 0.000000 0.000000 0.000000 0.033590 0.000000
# 6 0.000000 0.000000 0.000000 0.000000 0.000000 0.047472
#
#
# Mechanical properties :
#
#
# Convention : Reuss Voigt Hill
#
# Bulk Modulus (GPa) = 23.74069 27.90230 25.82149
# Shear Modulus (GPa) = 27.98173 30.28709 29.13441
#
# Velocity S-wave (km/s) = 3.47272 3.61294 3.54352
# Velocity P-wave (km/s) = 5.12948 5.42494 5.27928
#
# Compressibility (1/GPa) = 0.04212178
#
# Stress axis : x y z
#
# Youngs Moduli (GPa) = 50.28222 114.76016 54.84453
#
# Poissons Ratio (x) = 0.09117 0.01243
# Poissons Ratio (y) = 0.03995 0.07324
# Poissons Ratio (z) = 0.01139 0.15326
#
# Static dielectric constant tensor:
#      x y z
#    x 1.975890 0.000000 0.000000 
#    y 0.000000 1.798420 0.000000 
#    z 0.000000 0.000000 1.972230 
# 
# From -- ./inp_files/11435.got.cif
#   From: 2010.05.17/outbox.cif.g08.bks.cpg/sg62_6_cif.got.tgz:11435.got - 2010.06.03 15:25:27.
