data_PCOD9466192
_publ_section_title
;
Structure prediction by ZEFSAII (Michael W. Deem and Ramdas Pophale) SiO2 
 PCOD9466192
Probable space group: P N M A
;
_chemical_formula_sum "Si O2"
_cell_formula_units_Z 32
_cell_length_a 12.537673
_cell_length_b 12.966443
_cell_length_c 8.270496
_cell_angle_alpha 90.000000
_cell_angle_beta 90.000000
_cell_angle_gamma 90.000000
_cell_volume 1344.526449
_symmetry_space_group_name_H-M "P N M A"
_symmetry_group_IT_number 62
_symmetry_cell_setting 'orthorhombic'
loop_
_space_group_symop_operation_xyz
x,y,z
1/2-x,-y,1/2+z
1/2+x,1/2-y,1/2-z
-x,1/2+y,-z
-x,-y,-z
1/2+x,y,1/2-z
1/2-x,1/2+y,1/2+z
x,1/2-y,z
loop_
_atom_site_type_symbol
_atom_site_label
_atom_site_fract_x
_atom_site_fract_y
_atom_site_fract_z
Si Si1 0.652621 0.428707 0.363897
Si Si2 0.834440 0.428136 0.586268
Si Si3 0.802644 0.250000 0.807879
Si Si4 0.997483 0.250000 0.025208
Si Si5 0.946003 0.250000 0.381510
Si Si6 0.798987 0.750000 0.650508
O O1 0.739597 0.480900 0.482222
O O2 0.607264 0.500561 0.219977
O O3 0.567576 0.355306 0.455970
O O4 0.722419 0.347727 0.261970
O O5 0.774077 0.347291 0.701018
O O6 0.906913 0.352847 0.476157
O O7 0.745357 0.250000 0.975132
O O8 0.927540 0.250000 0.862860
O O9 0.073366 0.250000 0.376865
O O10 0.924153 0.250000 0.187841
#
# Coordination Sequence:
#
# PCOD9466192 Si02
#       6
#     8   8   4   4   4   4
#     4  10  22  39  61  90 123 158 199 247 300 357
#     4  11  22  38  61  90 121 160 201 245 300 359
#     4  11  22  38  62  85 120 165 204 249 300 352
#     4  10  22  40  61  89 123 158 199 251 300 355
#     4   9  21  38  61  89 120 155 201 247 298 360
#     4  10  21  40  62  87 121 162 202 251 298 351
#
# _framework density 23.800201999999999
#
# number of rings (size 3 to 8) (size 9 to 14) (size 15 to 20)
#    0.000    2.000    0.000    6.000    0.000    9.000 
#    0.000    5.000    0.000    0.000    0.000    0.000 
#    0.000    0.000    0.000    0.000    0.000    0.000 
#
# Total GULP energy -178407.457750 kJ/mol
# GULP energy per Si atom -5575.233055 kJ/mol
# Density = 2.374603 g / cm^3
# Si number density = 23.800202 Si / 1000 Ang^3
#
#
#
# Elastic Constant Matrix: (Units=GPa)
#
#
# Indices 1 2 3 4 5 6 
#
# 1 63.5695 -6.1036 27.6503 0.0000 0.0000 0.0000
# 2 -6.1036 63.8004 8.2008 0.0000 0.0000 0.0000
# 3 27.6503 8.2008 99.8028 0.0000 0.0000 0.0000
# 4 0.0000 0.0000 0.0000 235.6873 0.0000 0.0000
# 5 0.0000 0.0000 0.0000 0.0000 44.5583 0.0000
# 6 0.0000 0.0000 0.0000 0.0000 0.0000 4.7169
#
#
#
# Elastic Compliance Matrix: (Units=1/GPa)
#
#
# Indices 1 2 3 4 5 6 
#
# 1 0.018249 0.002421 -0.005255 0.000000 0.000000 0.000000
# 2 0.002421 0.016162 -0.001999 0.000000 0.000000 0.000000
# 3 -0.005255 -0.001999 0.011640 0.000000 0.000000 0.000000
# 4 0.000000 0.000000 0.000000 0.004243 0.000000 0.000000
# 5 0.000000 0.000000 0.000000 0.000000 0.022442 0.000000
# 6 0.000000 0.000000 0.000000 0.000000 0.000000 0.212004
#
#
# Mechanical properties :
#
#
# Convention : Reuss Voigt Hill
#
# Bulk Modulus (GPa) = 27.48280 31.85197 29.66738
# Shear Modulus (GPa) = 16.31140 70.15419 43.23280
#
# Velocity S-wave (km/s) = 2.62075 5.43510 4.26665
# Velocity P-wave (km/s) = 4.55304 7.26630 6.06339
#
# Compressibility (1/GPa) = 0.03638640
#
# Stress axis : x y z
#
# Youngs Moduli (GPa) = 54.79772 61.87178 85.91171
#
# Poissons Ratio (x) = -0.14981 0.45145
# Poissons Ratio (y) = -0.13268 0.17173
# Poissons Ratio (z) = 0.28795 0.12367
#
# Static dielectric constant tensor:
#      x y z
#    x 1.983700 0.000000 0.000000 
#    y 0.000000 2.117030 0.000000 
#    z 0.000000 0.000000 1.888280 
# 
# From -- ./inp_files/5897.got.cif
#   From: 2010.05.17/outbox.cif.g08.bks.cpg/sg62_3_cif.got.tgz:5897.got - 2010.06.03 15:25:27.
