data_PCOD9466711
_publ_section_title
;
Structure prediction by ZEFSAII (Michael W. Deem and Ramdas Pophale) SiO2 
 PCOD9466711
Probable space group: P N M A
;
_chemical_formula_sum "Si O2"
_cell_formula_units_Z 56
_cell_length_a 21.839260
_cell_length_b 8.119181
_cell_length_c 15.158929
_cell_angle_alpha 90.000000
_cell_angle_beta 90.000000
_cell_angle_gamma 90.000000
_cell_volume 2687.934371
_symmetry_space_group_name_H-M "P N M A"
_symmetry_group_IT_number 62
_symmetry_cell_setting 'orthorhombic'
loop_
_space_group_symop_operation_xyz
x,y,z
1/2-x,-y,1/2+z
1/2+x,1/2-y,1/2-z
-x,1/2+y,-z
-x,-y,-z
1/2+x,y,1/2-z
1/2-x,1/2+y,1/2+z
x,1/2-y,z
loop_
_atom_site_type_symbol
_atom_site_label
_atom_site_fract_x
_atom_site_fract_y
_atom_site_fract_z
Si Si1 0.436405 0.949166 0.605618
Si Si2 0.024241 0.053415 0.596106
Si Si3 0.812471 0.446499 0.204109
Si Si4 0.701085 0.556686 0.085744
Si Si5 0.923429 0.051907 0.086826
Si Si6 0.590072 0.054999 0.201959
Si Si7 0.165107 0.551182 0.604320
O O1 0.436914 0.750000 0.605772
O O2 0.507364 0.007788 0.604786
O O3 0.405226 0.002292 0.696727
O O4 0.407458 0.006639 0.513907
O O5 0.021759 0.250000 0.602759
O O6 0.093483 0.993246 0.606458
O O7 0.000000 0.000000 0.500000
O O8 0.978645 0.975967 0.667874
O O9 0.820497 0.250000 0.211424
O O10 0.754158 0.477863 0.143677
O O11 0.873192 0.512503 0.155220
O O12 0.806117 0.509627 0.303983
O O13 0.714452 0.750000 0.080087
O O14 0.636931 0.531823 0.136180
O O15 0.694249 0.487813 0.986667
O O16 0.924922 0.250000 0.093268
O O17 0.602831 0.250000 0.198504
O O18 0.169846 0.750000 0.600694
#
# Coordination Sequence:
#
# PCOD9466711 Si02
#       7
#     8   8   8   8   8   8   8
#     4   9  19  35  58  86 117 152 189 235 293 351
#     4  12  23  36  60  92 124 157 194 245 303 360
#     4  10  22  41  63  84 115 160 203 245 300 358
#     4  11  24  40  59  85 117 152 198 249 292 349
#     4   9  18  35  58  85 115 150 192 239 288 343
#     4  11  22  38  60  86 120 159 197 241 298 361
#     4  10  22  42  64  86 118 159 201 249 305 363
#
# _framework density 20.833842000000001
#
# number of rings (size 3 to 8) (size 9 to 14) (size 15 to 20)
#    0.000    1.714    1.429    3.000    0.000    6.286 
#    0.000    7.143    0.000    0.000    0.000    0.000 
#    0.000    0.000    0.000    0.000    0.000    0.000 
#
# Total GULP energy -312924.295523 kJ/mol
# GULP energy per Si atom -5587.933849 kJ/mol
# Density = 2.078642 g / cm^3
# Si number density = 20.833842 Si / 1000 Ang^3
#
#
#
# Elastic Constant Matrix: (Units=GPa)
#
#
# Indices 1 2 3 4 5 6 
#
# 1 55.0559 -10.7766 48.8182 0.0000 0.0000 0.0000
# 2 -10.7766 12.2083 7.5692 0.0000 0.0000 0.0000
# 3 48.8182 7.5692 181.4824 0.0000 0.0000 0.0000
# 4 0.0000 0.0000 0.0000 24.8745 0.0000 0.0000
# 5 0.0000 0.0000 0.0000 0.0000 15.9671 0.0000
# 6 0.0000 0.0000 0.0000 0.0000 0.0000 25.2578
#
#
#
# Elastic Compliance Matrix: (Units=1/GPa)
#
#
# Indices 1 2 3 4 5 6 
#
# 1 0.035562 0.038314 -0.011164 0.000000 0.000000 0.000000
# 2 0.038314 0.125364 -0.015535 0.000000 0.000000 0.000000
# 3 -0.011164 -0.015535 0.009161 0.000000 0.000000 0.000000
# 4 0.000000 0.000000 0.000000 0.040202 0.000000 0.000000
# 5 0.000000 0.000000 0.000000 0.000000 0.062629 0.000000
# 6 0.000000 0.000000 0.000000 0.000000 0.000000 0.039592
#
#
# Mechanical properties :
#
#
# Convention : Reuss Voigt Hill
#
# Bulk Modulus (GPa) = 5.17286 37.77424 21.47355
# Shear Modulus (GPa) = 14.13550 26.76227 20.44889
#
# Velocity S-wave (km/s) = 2.60761 3.58796 3.13632
# Velocity P-wave (km/s) = 3.39918 5.94434 4.84198
#
# Compressibility (1/GPa) = 0.19331678
#
# Stress axis : x y z
#
# Youngs Moduli (GPa) = 28.11981 7.97676 109.15594
#
# Poissons Ratio (x) = -0.30562 1.21863
# Poissons Ratio (y) = -1.07737 1.69573
# Poissons Ratio (z) = 0.31393 0.12392
#
# Static dielectric constant tensor:
#      x y z
#    x 1.720680 0.000000 0.000000 
#    y 0.000000 1.730970 0.000000 
#    z 0.000000 0.000000 1.771600 
# 
# From -- ./inp_files/20395.got.cif
#   From: 2010.05.17/outbox.cif.g08.bks.cpg/sg62_11_cif.got.tgz:20395.got - 2010.06.03 15:25:27.
