data_PCOD9466300
_publ_section_title
;
Structure prediction by ZEFSAII (Michael W. Deem and Ramdas Pophale) SiO2 
 PCOD9466300
Probable space group: P N M A
;
_chemical_formula_sum "Si O2"
_cell_formula_units_Z 60
_cell_length_a 8.800363
_cell_length_b 18.220642
_cell_length_c 16.718163
_cell_angle_alpha 90.000000
_cell_angle_beta 90.000000
_cell_angle_gamma 90.000000
_cell_volume 2680.728409
_symmetry_space_group_name_H-M "P N M A"
_symmetry_group_IT_number 62
_symmetry_cell_setting 'orthorhombic'
loop_
_space_group_symop_operation_xyz
x,y,z
1/2-x,-y,1/2+z
1/2+x,1/2-y,1/2-z
-x,1/2+y,-z
-x,-y,-z
1/2+x,y,1/2-z
1/2-x,1/2+y,1/2+z
x,1/2-y,z
loop_
_atom_site_type_symbol
_atom_site_label
_atom_site_fract_x
_atom_site_fract_y
_atom_site_fract_z
Si Si1 0.365657 0.135080 0.974317
Si Si2 0.789316 0.666519 0.189364
Si Si3 0.979240 0.498215 0.609205
Si Si4 0.233157 0.885809 0.866097
Si Si5 0.057895 0.250000 0.417436
Si Si6 0.069870 0.928654 0.218284
Si Si7 0.250461 0.075006 0.184941
Si Si8 0.579321 0.163518 0.429812
O O1 0.324570 0.166226 0.886052
O O2 0.468656 0.063897 0.957471
O O3 0.459846 0.187965 0.031512
O O4 0.195007 0.125746 0.009010
O O5 0.840716 0.750000 0.203824
O O6 0.698960 0.632028 0.264394
O O7 0.930181 0.611131 0.175142
O O8 0.115515 0.554508 0.624164
O O9 0.823297 0.542815 0.605736
O O10 0.984044 0.455025 0.694183
O O11 0.342477 0.815312 0.872629
O O12 0.192089 0.906062 0.773937
O O13 0.087926 0.868692 0.920680
O O14 0.141993 0.003105 0.183151
O O15 0.159958 0.145825 0.154575
O O16 0.573237 0.250000 0.446818
#
# Coordination Sequence:
#
# PCOD9466300 Si02
#       8
#     8   8   8   8   4   8   8   8
#     4  11  26  47  71 101 153 199 237 298 371 464
#     4  11  21  42  69 100 142 183 240 300 374 439
#     4  10  23  46  73 103 141 190 248 301 368 444
#     4  11  25  45  75 105 145 189 254 315 357 442
#     4  12  24  48  70 104 154 198 246 288 378 460
#     4  10  21  40  69 104 138 178 241 314 359 432
#     4  11  24  46  73 107 141 186 254 314 379 424
#     4  12  26  45  67 105 145 187 241 305 377 446
#
# _framework density 22.381976999999999
#
# number of rings (size 3 to 8) (size 9 to 14) (size 15 to 20)
#    0.000    1.067    3.333    2.800    4.667    2.667 
#    2.400    0.000    0.000    0.000    0.000    0.000 
#    0.000    0.000    0.000    0.000    0.000    0.000 
#
# Total GULP energy -334047.723900 kJ/mol
# GULP energy per Si atom -5567.462065 kJ/mol
# Density = 2.233103 g / cm^3
# Si number density = 22.381977 Si / 1000 Ang^3
#
#
#
# Elastic Constant Matrix: (Units=GPa)
#
#
# Indices 1 2 3 4 5 6 
#
# 1 97.9217 42.1646 33.8192 0.0000 0.0000 0.0000
# 2 42.1646 120.7851 33.0074 0.0000 0.0000 0.0000
# 3 33.8192 33.0074 55.7550 0.0000 0.0000 0.0000
# 4 0.0000 0.0000 0.0000 34.7150 0.0000 0.0000
# 5 0.0000 0.0000 0.0000 0.0000 29.9136 0.0000
# 6 0.0000 0.0000 0.0000 0.0000 0.0000 36.2651
#
#
#
# Elastic Compliance Matrix: (Units=1/GPa)
#
#
# Indices 1 2 3 4 5 6 
#
# 1 0.013781 -0.003014 -0.006575 0.000000 0.000000 0.000000
# 2 -0.003014 0.010536 -0.004409 0.000000 0.000000 0.000000
# 3 -0.006575 -0.004409 0.024534 0.000000 0.000000 0.000000
# 4 0.000000 0.000000 0.000000 0.028806 0.000000 0.000000
# 5 0.000000 0.000000 0.000000 0.000000 0.033430 0.000000
# 6 0.000000 0.000000 0.000000 0.000000 0.000000 0.027575
#
#
# Mechanical properties :
#
#
# Convention : Reuss Voigt Hill
#
# Bulk Modulus (GPa) = 47.95020 54.71601 51.33310
# Shear Modulus (GPa) = 28.80036 31.21013 30.00525
#
# Velocity S-wave (km/s) = 3.59104 3.73826 3.66539
# Velocity P-wave (km/s) = 6.21806 6.56752 6.39517
#
# Compressibility (1/GPa) = 0.02085497
#
# Stress axis : x y z
#
# Youngs Moduli (GPa) = 72.56500 94.91010 40.75980
#
# Poissons Ratio (x) = 0.28606 0.26798
# Poissons Ratio (y) = 0.21871 0.17972
# Poissons Ratio (z) = 0.47709 0.41849
#
# Static dielectric constant tensor:
#      x y z
#    x 1.862650 0.000000 0.000000 
#    y 0.000000 1.826210 0.000000 
#    z 0.000000 0.000000 1.869720 
# 
# From -- ./inp_files/22450.got.cif
#   From: 2010.05.17/outbox.cif.g08.bks.cpg/sg62_12_cif.got.tgz:22450.got - 2010.06.03 15:25:27.
