data_PCOD9466344
_publ_section_title
;
Structure prediction by ZEFSAII (Michael W. Deem and Ramdas Pophale) SiO2 
 PCOD9466344
Probable space group: P N M A
;
_chemical_formula_sum "Si O2"
_cell_formula_units_Z 64
_cell_length_a 24.162090
_cell_length_b 8.821075
_cell_length_c 15.653982
_cell_angle_alpha 90.000000
_cell_angle_beta 90.000000
_cell_angle_gamma 90.000000
_cell_volume 3336.420972
_symmetry_space_group_name_H-M "P N M A"
_symmetry_group_IT_number 62
_symmetry_cell_setting 'orthorhombic'
loop_
_space_group_symop_operation_xyz
x,y,z
1/2-x,-y,1/2+z
1/2+x,1/2-y,1/2-z
-x,1/2+y,-z
-x,-y,-z
1/2+x,y,1/2-z
1/2-x,1/2+y,1/2+z
x,1/2-y,z
loop_
_atom_site_type_symbol
_atom_site_label
_atom_site_fract_x
_atom_site_fract_y
_atom_site_fract_z
Si Si1 0.955448 0.932668 0.751336
Si Si2 0.629993 0.068407 0.104631
Si Si3 0.853686 0.568888 0.413459
Si Si4 0.252096 0.430154 0.846775
Si Si5 0.125547 0.431478 0.092711
Si Si6 0.748321 0.069426 0.338912
Si Si7 0.143132 0.569871 0.914179
Si Si8 0.577172 0.068540 0.745142
O O1 0.962926 0.750000 0.749942
O O2 0.918908 0.975868 0.668725
O O3 0.919345 0.970233 0.835247
O O4 0.014345 0.012385 0.752348
O O5 0.638146 0.250000 0.115129
O O6 0.687059 0.988203 0.129720
O O7 0.619094 0.037032 0.005096
O O8 0.843358 0.750000 0.409076
O O9 0.795549 0.483039 0.404092
O O10 0.891897 0.526340 0.333334
O O11 0.248587 0.250000 0.852727
O O12 0.240699 0.484372 0.750036
O O13 0.205056 0.503585 0.905770
O O14 0.123600 0.250000 0.078832
O O15 0.186797 0.467547 0.128594
O O16 0.117619 0.515035 0.003422
O O17 0.751221 0.250000 0.324924
O O18 0.144994 0.750000 0.909980
O O19 0.108677 0.505372 0.834578
O O20 0.579639 0.250000 0.736748
#
# Coordination Sequence:
#
# PCOD9466344 Si02
#       8
#     8   8   8   8   8   8   8   8
#     4  10  22  42  65  89 121 163 207 255 305 359
#     4  10  21  41  65  92 124 162 205 249 303 364
#     4  10  22  39  62  91 125 162 201 251 303 357
#     4  12  23  37  61  93 128 162 198 248 307 364
#     4  10  22  41  64  92 125 159 201 251 307 363
#     4  11  21  37  63  92 124 163 201 245 302 367
#     4  12  25  41  64  92 122 162 206 250 308 368
#     4  11  24  42  62  89 123 162 208 259 306 356
#
# _framework density 19.182231000000002
#
# number of rings (size 3 to 8) (size 9 to 14) (size 15 to 20)
#    0.000    1.250    2.500    3.750    0.000    6.000 
#    0.000    0.000    0.000    0.000    0.000    0.000 
#    0.000    0.000    0.000    0.000    0.000    0.000 
#
# Total GULP energy -357949.382622 kJ/mol
# GULP energy per Si atom -5592.959103 kJ/mol
# Density = 1.913857 g / cm^3
# Si number density = 19.182231 Si / 1000 Ang^3
#
#
#
# Elastic Constant Matrix: (Units=GPa)
#
#
# Indices 1 2 3 4 5 6 
#
# 1 112.7533 43.2184 34.2708 0.0000 0.0000 0.0000
# 2 43.2184 57.3133 46.0547 0.0000 0.0000 0.0000
# 3 34.2708 46.0547 104.7238 0.0000 0.0000 0.0000
# 4 0.0000 0.0000 0.0000 21.4762 0.0000 0.0000
# 5 0.0000 0.0000 0.0000 0.0000 6.8632 0.0000
# 6 0.0000 0.0000 0.0000 0.0000 0.0000 29.4022
#
#
#
# Elastic Compliance Matrix: (Units=1/GPa)
#
#
# Indices 1 2 3 4 5 6 
#
# 1 0.012475 -0.009475 0.000084 0.000000 0.000000 0.000000
# 2 -0.009475 0.034180 -0.011931 0.000000 0.000000 0.000000
# 3 0.000084 -0.011931 0.014768 0.000000 0.000000 0.000000
# 4 0.000000 0.000000 0.000000 0.046563 0.000000 0.000000
# 5 0.000000 0.000000 0.000000 0.000000 0.145705 0.000000
# 6 0.000000 0.000000 0.000000 0.000000 0.000000 0.034011
#
#
# Mechanical properties :
#
#
# Convention : Reuss Voigt Hill
#
# Bulk Modulus (GPa) = 53.24677 57.98645 55.61661
# Shear Modulus (GPa) = 14.85425 21.63143 18.24284
#
# Velocity S-wave (km/s) = 2.78578 3.36174 3.08722
# Velocity P-wave (km/s) = 6.17787 6.73523 6.46256
#
# Compressibility (1/GPa) = 0.01878048
#
# Stress axis : x y z
#
# Youngs Moduli (GPa) = 80.16042 29.25716 67.71344
#
# Poissons Ratio (x) = 0.27721 -0.00571
# Poissons Ratio (y) = 0.75950 0.80787
# Poissons Ratio (z) = -0.00676 0.34906
#
# Static dielectric constant tensor:
#      x y z
#    x 1.632280 0.000000 0.000000 
#    y 0.000000 1.639410 0.000000 
#    z 0.000000 0.000000 1.675650 
# 
# From -- ./inp_files/20942.got.cif
#   From: 2010.05.17/outbox.cif.g08.bks.cpg/sg62_11_cif.got.tgz:20942.got - 2010.06.03 15:25:27.
