data_PCOD9466139
_publ_section_title
;
Structure prediction by ZEFSAII (Michael W. Deem and Ramdas Pophale) SiO2 
 PCOD9466139
Probable space group: P N M A
;
_chemical_formula_sum "Si O2"
_cell_formula_units_Z 64
_cell_length_a 20.597791
_cell_length_b 26.182614
_cell_length_c 5.020361
_cell_angle_alpha 90.000000
_cell_angle_beta 90.000000
_cell_angle_gamma 90.000000
_cell_volume 2707.500824
_symmetry_space_group_name_H-M "P N M A"
_symmetry_group_IT_number 62
_symmetry_cell_setting 'orthorhombic'
loop_
_space_group_symop_operation_xyz
x,y,z
1/2-x,-y,1/2+z
1/2+x,1/2-y,1/2-z
-x,1/2+y,-z
-x,-y,-z
1/2+x,y,1/2-z
1/2-x,1/2+y,1/2+z
x,1/2-y,z
loop_
_atom_site_type_symbol
_atom_site_label
_atom_site_fract_x
_atom_site_fract_y
_atom_site_fract_z
Si Si1 0.458857 0.304542 0.258805
Si Si2 0.238165 0.380950 0.252585
Si Si3 0.325211 0.309372 0.589292
Si Si4 0.345340 0.910437 0.249165
Si Si5 0.094051 0.610816 0.398288
Si Si6 0.981492 0.035196 0.258184
Si Si7 0.022483 0.117373 0.954645
Si Si8 0.288938 0.486601 0.354782
O O1 0.472647 0.250000 0.145505
O O2 0.392251 0.304631 0.426579
O O3 0.513751 0.325238 0.451962
O O4 0.446976 0.343528 0.025878
O O5 0.272136 0.330889 0.378566
O O6 0.201485 0.383313 0.970129
O O7 0.290023 0.427729 0.268511
O O8 0.184931 0.399055 0.465616
O O9 0.311541 0.250000 0.686496
O O10 0.341758 0.357102 0.797069
O O11 0.417338 0.890285 0.270275
O O12 0.344487 0.971520 0.309211
O O13 0.082516 0.564978 0.611927
O O14 0.048567 0.597255 0.145045
O O15 0.000000 0.000000 0.500000
O O16 0.031752 0.081554 0.210237
O O17 0.000000 0.000000 0.000000
O O18 0.231533 0.509618 0.164329
#
# Coordination Sequence:
#
# PCOD9466139 Si02
#       8
#     8   8   8   8   8   8   8   8
#     4   9  20  39  64  90 124 166 215 268 325 393
#     4  10  22  39  63  91 124 166 216 268 319 389
#     4  10  22  41  65  95 127 169 221 286 344 391
#     4  10  22  39  63  90 128 168 208 261 321 387
#     4  10  21  39  65  93 129 170 222 269 332 396
#     4  11  22  39  60  94 140 172 209 260 327 395
#     4  10  22  39  64  93 131 172 214 263 330 399
#     4   8  16  35  55  80 111 154 205 239 289 362
#
# _framework density 23.638036
#
# number of rings (size 3 to 8) (size 9 to 14) (size 15 to 20)
#    0.000    2.250    1.250    0.375    5.250    1.500 
#    0.000    3.750    0.000    0.000    0.000    0.000 
#    0.000    0.000    0.000    0.000    0.000    0.000 
#
# Total GULP energy -356352.357882 kJ/mol
# GULP energy per Si atom -5568.005592 kJ/mol
# Density = 2.358424 g / cm^3
# Si number density = 23.638036 Si / 1000 Ang^3
#
#
#
# Elastic Constant Matrix: (Units=GPa)
#
#
# Indices 1 2 3 4 5 6 
#
# 1 60.8624 7.2076 12.1766 0.0000 0.0000 0.0000
# 2 7.2076 110.0580 15.5811 0.0000 0.0000 0.0000
# 3 12.1766 15.5811 102.2513 0.0000 0.0000 0.0000
# 4 0.0000 0.0000 0.0000 28.4030 0.0000 0.0000
# 5 0.0000 0.0000 0.0000 0.0000 16.0918 0.0000
# 6 0.0000 0.0000 0.0000 0.0000 0.0000 9.9389
#
#
#
# Elastic Compliance Matrix: (Units=1/GPa)
#
#
# Indices 1 2 3 4 5 6 
#
# 1 0.016907 -0.000840 -0.001885 0.000000 0.000000 0.000000
# 2 -0.000840 0.009328 -0.001321 0.000000 0.000000 0.000000
# 3 -0.001885 -0.001321 0.010206 0.000000 0.000000 0.000000
# 4 0.000000 0.000000 0.000000 0.035208 0.000000 0.000000
# 5 0.000000 0.000000 0.000000 0.000000 0.062143 0.000000
# 6 0.000000 0.000000 0.000000 0.000000 0.000000 0.100615
#
#
# Mechanical properties :
#
#
# Convention : Reuss Voigt Hill
#
# Bulk Modulus (GPa) = 35.27705 38.12248 36.69976
# Shear Modulus (GPa) = 19.84523 26.76718 23.30620
#
# Velocity S-wave (km/s) = 2.90064 3.36873 3.14341
# Velocity P-wave (km/s) = 5.11610 5.59408 5.36042
#
# Compressibility (1/GPa) = 0.02834704
#
# Stress axis : x y z
#
# Youngs Moduli (GPa) = 59.14638 107.20157 97.98455
#
# Poissons Ratio (x) = 0.09008 0.18473
# Poissons Ratio (y) = 0.04970 0.12947
# Poissons Ratio (z) = 0.11151 0.14165
#
# Static dielectric constant tensor:
#      x y z
#    x 1.996130 0.000000 0.000000 
#    y 0.000000 1.788620 0.000000 
#    z 0.000000 0.000000 2.277470 
# 
# From -- ./inp_files/2418.got.cif
#   From: 2010.05.17/outbox.cif.g08.bks.cpg/sg62_2_cif.got.tgz:2418.got - 2010.06.03 15:25:27.
