data_PCOD9466111
_publ_section_title
;
Structure prediction by ZEFSAII (Michael W. Deem and Ramdas Pophale) SiO2 
 PCOD9466111
Probable space group: P N M A
;
_chemical_formula_sum "Si O2"
_cell_formula_units_Z 48
_cell_length_a 7.956716
_cell_length_b 31.268492
_cell_length_c 8.603286
_cell_angle_alpha 90.000000
_cell_angle_beta 90.000000
_cell_angle_gamma 90.000000
_cell_volume 2140.450330
_symmetry_space_group_name_H-M "P N M A"
_symmetry_group_IT_number 62
_symmetry_cell_setting 'orthorhombic'
loop_
_space_group_symop_operation_xyz
x,y,z
1/2-x,-y,1/2+z
1/2+x,1/2-y,1/2-z
-x,1/2+y,-z
-x,-y,-z
1/2+x,y,1/2-z
1/2-x,1/2+y,1/2+z
x,1/2-y,z
loop_
_atom_site_type_symbol
_atom_site_label
_atom_site_fract_x
_atom_site_fract_y
_atom_site_fract_z
Si Si1 0.746958 0.878770 0.509575
Si Si2 0.623845 0.957940 0.328106
Si Si3 0.889172 0.380178 0.335018
Si Si4 0.900494 0.201070 0.849535
Si Si5 0.723725 0.700929 0.013888
Si Si6 0.737483 0.040220 0.508115
O O1 0.716089 0.914565 0.379922
O O2 0.614419 0.884653 0.649929
O O3 0.716361 0.832868 0.434106
O O4 0.926963 0.882781 0.590349
O O5 0.624971 0.963567 0.143715
O O6 0.438437 0.955655 0.400227
O O7 0.717770 0.998478 0.402887
O O8 0.812486 0.334470 0.385149
O O9 0.781087 0.418617 0.406946
O O10 0.842891 0.250000 0.871995
O O11 0.893553 0.193104 0.664682
O O12 0.087190 0.196955 0.919048
O O13 0.700134 0.750000 0.960379
#
# Coordination Sequence:
#
# PCOD9466111 Si02
#       6
#     8   8   8   8   8   8
#     4  12  25  41  62  88 122 160 201 249 300 357
#     4  11  24  42  65  92 123 159 200 246 297 354
#     4  12  25  41  62  88 122 160 201 249 300 357
#     4  10  21  39  63  90 121 158 201 248 299 356
#     4  10  21  39  63  90 121 158 201 248 299 356
#     4  11  24  42  65  92 123 159 200 246 297 354
#
# _framework density 22.425187999999999
#
# number of rings (size 3 to 8) (size 9 to 14) (size 15 to 20)
#    0.000    1.000    0.000    7.000    0.000    8.000 
#    0.000    0.000    0.000    0.000    0.000    0.000 
#    0.000    0.000    0.000    0.000    0.000    0.000 
#
# Total GULP energy -268962.316798 kJ/mol
# GULP energy per Si atom -5603.381600 kJ/mol
# Density = 2.237415 g / cm^3
# Si number density = 22.425188 Si / 1000 Ang^3
#
#
#
# Elastic Constant Matrix: (Units=GPa)
#
#
# Indices 1 2 3 4 5 6 
#
# 1 63.9332 19.5843 -18.8426 0.0000 0.0000 0.0000
# 2 19.5843 73.2701 25.3564 0.0000 0.0000 0.0000
# 3 -18.8426 25.3564 60.6223 0.0000 0.0000 0.0000
# 4 0.0000 0.0000 0.0000 34.5029 0.0000 0.0000
# 5 0.0000 0.0000 0.0000 0.0000 37.0774 0.0000
# 6 0.0000 0.0000 0.0000 0.0000 0.0000 -203.3127
#
#
#
# Elastic Compliance Matrix: (Units=1/GPa)
#
#
# Indices 1 2 3 4 5 6 
#
# 1 0.021721 -0.009520 0.010733 0.000000 0.000000 0.000000
# 2 -0.009520 0.020131 -0.011379 0.000000 0.000000 0.000000
# 3 0.010733 -0.011379 0.024591 0.000000 0.000000 0.000000
# 4 0.000000 0.000000 0.000000 0.028983 0.000000 0.000000
# 5 0.000000 0.000000 0.000000 0.000000 0.026971 0.000000
# 6 0.000000 0.000000 0.000000 0.000000 0.000000 -0.004919
#
#
# Mechanical properties :
#
#
# Convention : Reuss Voigt Hill
#
# Bulk Modulus (GPa) = 21.68688 27.78020 24.73354
# Shear Modulus (GPa) = 32.64127 -14.89797 8.87165
#
# Velocity S-wave (km/s) = 3.81932 -2.58028 1.99115
# Velocity P-wave (km/s) = 5.39828 1.88088 4.04222
#
# Compressibility (1/GPa) = 0.04611082
#
# Stress axis : x y z
#
# Youngs Moduli (GPa) = 46.03853 49.67534 40.66494
#
# Poissons Ratio (x) = 0.47292 -0.43647
# Poissons Ratio (y) = 0.43830 0.46273
# Poissons Ratio (z) = -0.49414 0.56526
#
# Static dielectric constant tensor:
#      x y z
#    x 1.859900 0.000000 0.000000 
#    y 0.000000 1.766440 0.000000 
#    z 0.000000 0.000000 1.773970 
# 
# From -- ./inp_files/4538.got.cif
#   From: 2010.05.17/outbox.cif.g08.bks.cpg/sg62_3_cif.got.tgz:4538.got - 2010.06.03 15:25:27.
