data_PCOD9466114
_publ_section_title
;
Structure prediction by ZEFSAII (Michael W. Deem and Ramdas Pophale) SiO2 
 PCOD9466114
Probable space group: P N M A
;
_chemical_formula_sum "Si O2"
_cell_formula_units_Z 64
_cell_length_a 12.831638
_cell_length_b 8.835720
_cell_length_c 27.904145
_cell_angle_alpha 90.000000
_cell_angle_beta 90.000000
_cell_angle_gamma 90.000000
_cell_volume 3163.681565
_symmetry_space_group_name_H-M "P N M A"
_symmetry_group_IT_number 62
_symmetry_cell_setting 'orthorhombic'
loop_
_space_group_symop_operation_xyz
x,y,z
1/2-x,-y,1/2+z
1/2+x,1/2-y,1/2-z
-x,1/2+y,-z
-x,-y,-z
1/2+x,y,1/2-z
1/2-x,1/2+y,1/2+z
x,1/2-y,z
loop_
_atom_site_type_symbol
_atom_site_label
_atom_site_fract_x
_atom_site_fract_y
_atom_site_fract_z
Si Si1 0.910465 0.433908 0.844878
Si Si2 0.002571 0.075443 0.638377
Si Si3 0.085089 0.919165 0.469661
Si Si4 0.800026 0.574206 0.672415
Si Si5 0.726714 0.072999 0.579471
Si Si6 0.106750 0.430230 0.775986
Si Si7 0.487670 0.076629 0.552110
Si Si8 0.187084 0.570107 0.679678
O O1 0.907776 0.250000 0.845172
O O2 0.925010 0.483999 0.900888
O O3 0.802048 0.497522 0.823914
O O4 0.010255 0.476504 0.810971
O O5 0.016504 0.250000 0.653300
O O6 0.953910 0.075718 0.585265
O O7 0.112427 0.989945 0.637462
O O8 0.916265 0.992709 0.671301
O O9 0.087595 0.750000 0.487843
O O10 0.205006 0.969436 0.466926
O O11 0.000000 0.000000 0.500000
O O12 0.798145 0.750000 0.686813
O O13 0.757122 0.549038 0.618877
O O14 0.718145 0.472905 0.701052
O O15 0.755378 0.250000 0.593004
O O16 0.605438 0.076695 0.571559
O O17 0.098706 0.250000 0.769630
O O18 0.119649 0.513281 0.725345
O O19 0.452855 0.250000 0.544248
O O20 0.500000 0.000000 0.500000
O O21 0.196330 0.750000 0.680262
#
# Coordination Sequence:
#
# PCOD9466114 Si02
#       8
#     8   8   8   8   8   8   8   8
#     4  10  23  45  69  93 127 174 223 265 319 398
#     4  10  22  42  63  86 123 168 210 249 309 389
#     4   9  19  34  58  86 117 156 205 259 312 372
#     4  11  21  35  61  94 122 151 200 266 318 361
#     4   9  18  37  57  80 115 161 210 255 311 381
#     4  11  23  43  69  91 122 169 215 254 312 389
#     4  10  21  39  63  92 125 166 220 270 320 385
#     4  12  27  43  63  96 134 166 209 271 328 377
#
# _framework density 20.229595
#
# number of rings (size 3 to 8) (size 9 to 14) (size 15 to 20)
#    0.000    1.750    1.250    3.750    1.750    5.500 
#    0.000    2.500    0.000    0.000    0.000    0.000 
#    0.000    0.000    0.000    0.000    0.000    0.000 
#
# Total GULP energy -356617.665926 kJ/mol
# GULP energy per Si atom -5572.151030 kJ/mol
# Density = 2.018355 g / cm^3
# Si number density = 20.229595 Si / 1000 Ang^3
#
#
#
# Elastic Constant Matrix: (Units=GPa)
#
#
# Indices 1 2 3 4 5 6 
#
# 1 105.3334 22.7818 22.9674 0.0000 0.0000 0.0000
# 2 22.7818 55.8714 21.9444 0.0000 0.0000 0.0000
# 3 22.9674 21.9444 55.5439 0.0000 0.0000 0.0000
# 4 0.0000 0.0000 0.0000 26.2780 0.0000 0.0000
# 5 0.0000 0.0000 0.0000 0.0000 32.3257 0.0000
# 6 0.0000 0.0000 0.0000 0.0000 0.0000 24.2971
#
#
#
# Elastic Compliance Matrix: (Units=1/GPa)
#
#
# Indices 1 2 3 4 5 6 
#
# 1 0.010887 -0.003162 -0.003253 0.000000 0.000000 0.000000
# 2 -0.003162 0.022104 -0.007426 0.000000 0.000000 0.000000
# 3 -0.003253 -0.007426 0.022282 0.000000 0.000000 0.000000
# 4 0.000000 0.000000 0.000000 0.038055 0.000000 0.000000
# 5 0.000000 0.000000 0.000000 0.000000 0.030935 0.000000
# 6 0.000000 0.000000 0.000000 0.000000 0.000000 0.041157
#
#
# Mechanical properties :
#
#
# Convention : Reuss Voigt Hill
#
# Bulk Modulus (GPa) = 36.24026 39.12621 37.68323
# Shear Modulus (GPa) = 24.71613 26.51718 25.61665
#
# Velocity S-wave (km/s) = 3.49919 3.62444 3.56237
# Velocity P-wave (km/s) = 5.85484 6.07441 5.96564
#
# Compressibility (1/GPa) = 0.02759362
#
# Stress axis : x y z
#
# Youngs Moduli (GPa) = 91.85550 45.24094 44.87847
#
# Poissons Ratio (x) = 0.14303 0.14597
# Poissons Ratio (y) = 0.29041 0.33325
# Poissons Ratio (z) = 0.29877 0.33594
#
# Static dielectric constant tensor:
#      x y z
#    x 1.803830 0.000000 0.000000 
#    y 0.000000 1.698180 0.000000 
#    z 0.000000 0.000000 1.947580 
# 
# From -- ./inp_files/32602.got.cif
#   From: 2010.05.17/outbox.cif.g08.bks.cpg/sg62_17_cif.got.tgz:32602.got - 2010.06.03 15:25:27.
