data_PCOD9466850
_publ_section_title
;
Structure prediction by ZEFSAII (Michael W. Deem and Ramdas Pophale) SiO2 
 PCOD9466850
Probable space group: P N M A
;
_chemical_formula_sum "Si O2"
_cell_formula_units_Z 60
_cell_length_a 22.280094
_cell_length_b 11.965650
_cell_length_c 11.786512
_cell_angle_alpha 90.000000
_cell_angle_beta 90.000000
_cell_angle_gamma 90.000000
_cell_volume 3142.234676
_symmetry_space_group_name_H-M "P N M A"
_symmetry_group_IT_number 62
_symmetry_cell_setting 'orthorhombic'
loop_
_space_group_symop_operation_xyz
x,y,z
1/2-x,-y,1/2+z
1/2+x,1/2-y,1/2-z
-x,1/2+y,-z
-x,-y,-z
1/2+x,y,1/2-z
1/2-x,1/2+y,1/2+z
x,1/2-y,z
loop_
_atom_site_type_symbol
_atom_site_label
_atom_site_fract_x
_atom_site_fract_y
_atom_site_fract_z
Si Si1 0.612478 0.460749 0.983271
Si Si2 0.551323 0.621014 0.824012
Si Si3 0.331655 0.998909 0.583550
Si Si4 0.853032 0.750000 0.336260
Si Si5 0.719533 0.871395 0.992444
Si Si6 0.415931 0.883475 0.763349
Si Si7 0.163630 0.618237 0.845680
Si Si8 0.242166 0.078513 0.762441
O O1 0.561741 0.540165 0.930188
O O2 0.615153 0.347678 0.912917
O O3 0.673612 0.530886 0.962586
O O4 0.606458 0.431595 0.115720
O O5 0.551350 0.750000 0.862080
O O6 0.487683 0.600637 0.764159
O O7 0.605941 0.605823 0.735502
O O8 0.349138 0.063443 0.468825
O O9 0.288979 0.077486 0.659793
O O10 0.286167 0.899324 0.549629
O O11 0.383992 0.949045 0.661108
O O12 0.815003 0.653053 0.266736
O O13 0.699226 0.750000 0.950680
O O14 0.724644 0.874674 0.127694
O O15 0.403342 0.750000 0.757174
O O16 0.177860 0.750000 0.856139
O O17 0.218640 0.546267 0.793844
#
# Coordination Sequence:
#
# PCOD9466850 Si02
#       8
#     8   8   8   4   8   8   8   8
#     4  12  22  39  65  91 121 167 211 258 313 371
#     4  10  22  43  65  89 122 162 213 266 313 361
#     4  11  23  39  59  94 122 163 205 248 308 375
#     4  12  22  38  62  88 130 162 208 250 310 372
#     4  11  22  36  59  88 124 158 200 251 312 372
#     4  11  24  41  62  90 128 165 209 261 307 370
#     4  10  23  41  66  90 122 165 207 252 314 375
#     4  11  22  37  59  90 125 162 193 255 307 368
#
# _framework density 19.094691000000001
#
# number of rings (size 3 to 8) (size 9 to 14) (size 15 to 20)
#    0.000    1.067    5.333    1.200    0.933    2.667 
#    0.000    0.000    1.467    0.000    0.000    0.000 
#    0.000    0.000    0.000    0.000    0.000    0.000 
#
# Total GULP energy -334066.184713 kJ/mol
# GULP energy per Si atom -5567.769745 kJ/mol
# Density = 1.905123 g / cm^3
# Si number density = 19.094691 Si / 1000 Ang^3
#
#
#
# Elastic Constant Matrix: (Units=GPa)
#
#
# Indices 1 2 3 4 5 6 
#
# 1 54.9635 33.5533 10.9439 0.0000 0.0000 0.0000
# 2 33.5533 125.7832 24.9022 0.0000 0.0000 0.0000
# 3 10.9439 24.9022 87.9646 0.0000 0.0000 0.0000
# 4 0.0000 0.0000 0.0000 16.1642 0.0000 0.0000
# 5 0.0000 0.0000 0.0000 0.0000 27.8299 0.0000
# 6 0.0000 0.0000 0.0000 0.0000 0.0000 7.2842
#
#
#
# Elastic Compliance Matrix: (Units=1/GPa)
#
#
# Indices 1 2 3 4 5 6 
#
# 1 0.021839 -0.005602 -0.001131 0.000000 0.000000 0.000000
# 2 -0.005602 0.009859 -0.002094 0.000000 0.000000 0.000000
# 3 -0.001131 -0.002094 0.012102 0.000000 0.000000 0.000000
# 4 0.000000 0.000000 0.000000 0.061865 0.000000 0.000000
# 5 0.000000 0.000000 0.000000 0.000000 0.035933 0.000000
# 6 0.000000 0.000000 0.000000 0.000000 0.000000 0.137283
#
#
# Mechanical properties :
#
#
# Convention : Reuss Voigt Hill
#
# Bulk Modulus (GPa) = 38.24734 45.27890 41.76312
# Shear Modulus (GPa) = 16.38005 23.54313 19.96159
#
# Velocity S-wave (km/s) = 2.93206 3.51517 3.23677
# Velocity P-wave (km/s) = 5.61573 6.34347 5.99066
#
# Compressibility (1/GPa) = 0.02614561
#
# Stress axis : x y z
#
# Youngs Moduli (GPa) = 45.79018 101.42974 82.63250
#
# Poissons Ratio (x) = 0.56817 0.09347
# Poissons Ratio (y) = 0.25650 0.17304
# Poissons Ratio (z) = 0.05180 0.21241
#
# Static dielectric constant tensor:
#      x y z
#    x 1.665250 0.000000 0.000000 
#    y 0.000000 1.675860 0.000000 
#    z 0.000000 0.000000 1.676880 
# 
# From -- ./inp_files/14875.got.cif
#   From: 2010.05.17/outbox.cif.g08.bks.cpg/sg62_8_cif.got.tgz:14875.got - 2010.06.03 15:25:27.
