data_PCOD9466256
_publ_section_title
;
Structure prediction by ZEFSAII (Michael W. Deem and Ramdas Pophale) SiO2 
 PCOD9466256
Probable space group: P N M A
;
_chemical_formula_sum "Si O2"
_cell_formula_units_Z 40
_cell_length_a 12.721333
_cell_length_b 8.905562
_cell_length_c 15.904423
_cell_angle_alpha 90.000000
_cell_angle_beta 90.000000
_cell_angle_gamma 90.000000
_cell_volume 1801.821939
_symmetry_space_group_name_H-M "P N M A"
_symmetry_group_IT_number 62
_symmetry_cell_setting 'orthorhombic'
loop_
_space_group_symop_operation_xyz
x,y,z
1/2-x,-y,1/2+z
1/2+x,1/2-y,1/2-z
-x,1/2+y,-z
-x,-y,-z
1/2+x,y,1/2-z
1/2-x,1/2+y,1/2+z
x,1/2-y,z
loop_
_atom_site_type_symbol
_atom_site_label
_atom_site_fract_x
_atom_site_fract_y
_atom_site_fract_z
Si Si1 0.866751 0.573655 0.731330
Si Si2 0.976677 0.424261 0.588710
Si Si3 0.146717 0.072890 0.007257
Si Si4 0.508607 0.424482 0.636116
Si Si5 0.179735 0.926011 0.639661
O O1 0.867425 0.750000 0.716319
O O2 0.764287 0.538643 0.787571
O O3 0.881910 0.490103 0.643691
O O4 0.965857 0.528858 0.790339
O O5 0.961241 0.250000 0.576784
O O6 0.082648 0.463176 0.640082
O O7 0.000000 0.500000 0.500000
O O8 0.116365 0.250000 0.022215
O O9 0.260296 0.059321 0.049698
O O10 0.120078 0.044866 0.909569
O O11 0.074544 0.960331 0.061346
O O12 0.503114 0.250000 0.661303
O O13 0.148136 0.750000 0.647938
#
# Coordination Sequence:
#
# PCOD9466256 Si02
#       5
#     8   8   8   8   8
#     4  10  21  40  65  92 126 167 211 264 322 380
#     4  12  26  45  68  94 128 171 217 267 323 385
#     4   8  15  28  49  80 120 162 200 248 307 367
#     4   9  15  26  49  83 120 157 200 251 309 367
#     4   9  19  39  65  92 125 166 212 263 318 381
#
# _framework density 22.199753000000001
#
# number of rings (size 3 to 8) (size 9 to 14) (size 15 to 20)
#    0.000    2.400    0.000    4.200    0.000    4.800 
#    3.600    0.000    0.000    0.000    0.000    0.000 
#    0.000    0.000    0.000    0.000    0.000    0.000 
#
# Total GULP energy -223296.488091 kJ/mol
# GULP energy per Si atom -5582.412202 kJ/mol
# Density = 2.214923 g / cm^3
# Si number density = 22.199753 Si / 1000 Ang^3
#
#
#
# Elastic Constant Matrix: (Units=GPa)
#
#
# Indices 1 2 3 4 5 6 
#
# 1 55.0361 27.2997 21.1033 0.0000 0.0000 0.0000
# 2 27.2997 80.0584 40.3379 0.0000 0.0000 0.0000
# 3 21.1033 40.3379 95.0586 0.0000 0.0000 0.0000
# 4 0.0000 0.0000 0.0000 37.1911 0.0000 0.0000
# 5 0.0000 0.0000 0.0000 0.0000 24.0275 0.0000
# 6 0.0000 0.0000 0.0000 0.0000 0.0000 27.1053
#
#
#
# Elastic Compliance Matrix: (Units=1/GPa)
#
#
# Indices 1 2 3 4 5 6 
#
# 1 0.022220 -0.006476 -0.002185 0.000000 0.000000 0.000000
# 2 -0.006476 0.017775 -0.006105 0.000000 0.000000 0.000000
# 3 -0.002185 -0.006105 0.013596 0.000000 0.000000 0.000000
# 4 0.000000 0.000000 0.000000 0.026888 0.000000 0.000000
# 5 0.000000 0.000000 0.000000 0.000000 0.041619 0.000000
# 6 0.000000 0.000000 0.000000 0.000000 0.000000 0.036893
#
#
# Mechanical properties :
#
#
# Convention : Reuss Voigt Hill
#
# Bulk Modulus (GPa) = 41.56503 45.29277 43.42890
# Shear Modulus (GPa) = 25.43972 27.09227 26.26600
#
# Velocity S-wave (km/s) = 3.38886 3.49719 3.44345
# Velocity P-wave (km/s) = 5.83749 6.06249 5.95105
#
# Compressibility (1/GPa) = 0.02405869
#
# Stress axis : x y z
#
# Youngs Moduli (GPa) = 45.00451 56.25764 73.55335
#
# Poissons Ratio (x) = 0.36433 0.16070
# Poissons Ratio (y) = 0.29146 0.44906
# Poissons Ratio (z) = 0.09832 0.34346
#
# Static dielectric constant tensor:
#      x y z
#    x 1.908980 0.000000 0.000000 
#    y 0.000000 1.738770 0.000000 
#    z 0.000000 0.000000 1.888250 
# 
# From -- ./inp_files/23464.got.cif
#   From: 2010.05.17/outbox.cif.g08.bks.cpg/sg62_12_cif.got.tgz:23464.got - 2010.06.03 15:25:27.
