data_PCOD9466691
_publ_section_title
;
Structure prediction by ZEFSAII (Michael W. Deem and Ramdas Pophale) SiO2 
 PCOD9466691
Probable space group: P N M A
;
_chemical_formula_sum "Si O2"
_cell_formula_units_Z 40
_cell_length_a 27.073123
_cell_length_b 8.636794
_cell_length_c 9.060145
_cell_angle_alpha 90.000000
_cell_angle_beta 90.000000
_cell_angle_gamma 90.000000
_cell_volume 2118.488280
_symmetry_space_group_name_H-M "P N M A"
_symmetry_group_IT_number 62
_symmetry_cell_setting 'orthorhombic'
loop_
_space_group_symop_operation_xyz
x,y,z
1/2-x,-y,1/2+z
1/2+x,1/2-y,1/2-z
-x,1/2+y,-z
-x,-y,-z
1/2+x,y,1/2-z
1/2-x,1/2+y,1/2+z
x,1/2-y,z
loop_
_atom_site_type_symbol
_atom_site_label
_atom_site_fract_x
_atom_site_fract_y
_atom_site_fract_z
Si Si1 0.501539 0.750000 0.767708
Si Si2 0.928564 0.750000 0.002493
Si Si3 0.584243 0.004652 0.756153
Si Si4 0.836304 0.750000 0.780735
Si Si5 0.409209 0.750000 0.987646
Si Si6 0.218330 0.571524 0.134555
Si Si7 0.696661 0.577427 0.712476
O O1 0.473850 0.750000 0.610431
O O2 0.538435 0.606979 0.780840
O O3 0.458709 0.750000 0.889398
O O4 0.928356 0.894433 0.112397
O O5 0.878636 0.750000 0.906512
O O6 0.637832 0.932782 0.724588
O O7 0.590801 0.105556 0.902657
O O8 0.863230 0.750000 0.623022
O O9 0.808960 0.582257 0.799377
O O10 0.202351 0.750000 0.174275
O O11 0.274413 0.547201 0.189623
O O12 0.212404 0.559026 0.958174
O O13 0.711477 0.750000 0.761933
#
# Coordination Sequence:
#
# PCOD9466691 Si02
#       7
#     4   4   8   4   4   8   8
#     4  11  22  43  66  95 128 166 218 277 324 390
#     4  10  22  40  70  91 127 171 209 273 332 383
#     4  11  22  41  66  95 126 170 221 261 331 392
#     4  11  22  47  62  93 140 170 219 272 315 385
#     4  10  26  40  66  91 133 173 210 268 335 384
#     4  11  26  41  66  97 133 172 223 261 324 389
#     4  11  24  42  64  95 130 172 214 270 317 392
#
# _framework density 18.881387
#
# number of rings (size 3 to 8) (size 9 to 14) (size 15 to 20)
#    0.000    1.200    4.000    1.200    7.000    0.000 
#    1.800    0.000    4.400    0.000    0.000    0.000 
#    0.000    0.000    0.000    0.000    0.000    0.000 
#
# Total GULP energy -223141.288572 kJ/mol
# GULP energy per Si atom -5578.532214 kJ/mol
# Density = 1.883841 g / cm^3
# Si number density = 18.881387 Si / 1000 Ang^3
#
#
#
# Elastic Constant Matrix: (Units=GPa)
#
#
# Indices 1 2 3 4 5 6 
#
# 1 82.2211 41.2097 33.1438 0.0000 0.0000 0.0000
# 2 41.2097 123.8162 42.3867 0.0000 0.0000 0.0000
# 3 33.1438 42.3867 100.1666 0.0000 0.0000 0.0000
# 4 0.0000 0.0000 0.0000 3.5180 0.0000 0.0000
# 5 0.0000 0.0000 0.0000 0.0000 23.4630 0.0000
# 6 0.0000 0.0000 0.0000 0.0000 0.0000 316.5386
#
#
#
# Elastic Compliance Matrix: (Units=1/GPa)
#
#
# Indices 1 2 3 4 5 6 
#
# 1 0.015558 -0.003995 -0.003458 0.000000 0.000000 0.000000
# 2 -0.003995 0.010470 -0.003109 0.000000 0.000000 0.000000
# 3 -0.003458 -0.003109 0.012443 0.000000 0.000000 0.000000
# 4 0.000000 0.000000 0.000000 0.284256 0.000000 0.000000
# 5 0.000000 0.000000 0.000000 0.000000 0.042620 0.000000
# 6 0.000000 0.000000 0.000000 0.000000 0.000000 0.003159
#
#
# Mechanical properties :
#
#
# Convention : Reuss Voigt Hill
#
# Bulk Modulus (GPa) = 57.63914 59.96494 58.80204
# Shear Modulus (GPa) = 12.64504 81.33482 46.98993
#
# Velocity S-wave (km/s) = 2.59068 6.57041 4.99409
# Velocity P-wave (km/s) = 6.28825 9.45452 8.02901
#
# Compressibility (1/GPa) = 0.01734932
#
# Stress axis : x y z
#
# Youngs Moduli (GPa) = 64.27471 95.50847 80.36637
#
# Poissons Ratio (x) = 0.38151 0.27788
# Poissons Ratio (y) = 0.25675 0.24985
# Poissons Ratio (z) = 0.22224 0.29692
#
# Static dielectric constant tensor:
#      x y z
#    x 1.644940 0.000000 0.000000 
#    y 0.000000 1.681700 0.000000 
#    z 0.000000 0.000000 1.607740 
# 
# From -- ./inp_files/9153.got.cif
#   From: 2010.05.17/outbox.cif.g08.bks.cpg/sg62_5_cif.got.tgz:9153.got - 2010.06.03 15:25:27.
