data_PCOD9466366
_publ_section_title
;
Structure prediction by ZEFSAII (Michael W. Deem and Ramdas Pophale) SiO2 
 PCOD9466366
Probable space group: P N M A
;
_chemical_formula_sum "Si O2"
_cell_formula_units_Z 48
_cell_length_a 10.056315
_cell_length_b 17.040856
_cell_length_c 13.338573
_cell_angle_alpha 90.000000
_cell_angle_beta 90.000000
_cell_angle_gamma 90.000000
_cell_volume 2285.807456
_symmetry_space_group_name_H-M "P N M A"
_symmetry_group_IT_number 62
_symmetry_cell_setting 'orthorhombic'
loop_
_space_group_symop_operation_xyz
x,y,z
1/2-x,-y,1/2+z
1/2+x,1/2-y,1/2-z
-x,1/2+y,-z
-x,-y,-z
1/2+x,y,1/2-z
1/2-x,1/2+y,1/2+z
x,1/2-y,z
loop_
_atom_site_type_symbol
_atom_site_label
_atom_site_fract_x
_atom_site_fract_y
_atom_site_fract_z
Si Si1 0.833324 0.604972 0.843503
Si Si2 0.294653 0.073510 0.602229
Si Si3 0.531422 0.157200 0.969195
Si Si4 0.449224 0.158794 0.200140
Si Si5 0.207591 0.656091 0.316400
Si Si6 0.951735 0.660450 0.043850
O O1 0.798244 0.519239 0.884204
O O2 0.705651 0.640005 0.787699
O O3 0.957807 0.605594 0.768853
O O4 0.872374 0.656194 0.939925
O O5 0.159665 0.105237 0.553531
O O6 0.306362 0.112044 0.712272
O O7 0.422215 0.103967 0.541229
O O8 0.563568 0.250000 0.954978
O O9 0.412211 0.137531 0.892678
O O10 0.482973 0.147157 0.083043
O O11 0.475372 0.250000 0.225440
O O12 0.205357 0.750000 0.299848
O O13 0.347954 0.637393 0.369328
O O14 0.995896 0.750000 0.062159
#
# Coordination Sequence:
#
# PCOD9466366 Si02
#       6
#     8   8   8   8   8   8
#     4  12  28  44  69 100 136 176 223 284 336 386
#     4  12  26  39  65 104 140 169 215 273 345 403
#     4  10  22  43  70  97 129 178 227 273 329 399
#     4  11  25  48  71  95 128 179 235 276 325 391
#     4  10  21  41  68  94 132 178 225 272 331 400
#     4  11  23  45  69  93 133 179 226 276 329 396
#
# _framework density 20.999144999999999
#
# number of rings (size 3 to 8) (size 9 to 14) (size 15 to 20)
#    0.000    1.000    1.667    4.500    7.000    4.667 
#    0.000    0.000    0.000    0.000    0.000    0.000 
#    0.000    0.000    0.000    0.000    0.000    0.000 
#
# Total GULP energy -268744.764536 kJ/mol
# GULP energy per Si atom -5598.849261 kJ/mol
# Density = 2.095135 g / cm^3
# Si number density = 20.999145 Si / 1000 Ang^3
#
#
#
# Elastic Constant Matrix: (Units=GPa)
#
#
# Indices 1 2 3 4 5 6 
#
# 1 70.7683 17.6688 -7.0333 0.0000 0.0000 0.0000
# 2 17.6688 41.4849 -14.7815 0.0000 0.0000 0.0000
# 3 -7.0333 -14.7815 31.2398 0.0000 0.0000 0.0000
# 4 0.0000 0.0000 0.0000 -116.2907 0.0000 0.0000
# 5 0.0000 0.0000 0.0000 0.0000 36.3251 0.0000
# 6 0.0000 0.0000 0.0000 0.0000 0.0000 403.2976
#
#
#
# Elastic Compliance Matrix: (Units=1/GPa)
#
#
# Indices 1 2 3 4 5 6 
#
# 1 0.015817 -0.006577 0.000449 0.000000 0.000000 0.000000
# 2 -0.006577 0.031728 0.013532 0.000000 0.000000 0.000000
# 3 0.000449 0.013532 0.038514 0.000000 0.000000 0.000000
# 4 0.000000 0.000000 0.000000 -0.008599 0.000000 0.000000
# 5 0.000000 0.000000 0.000000 0.000000 0.027529 0.000000
# 6 0.000000 0.000000 0.000000 0.000000 0.000000 0.002480
#
#
# Mechanical properties :
#
#
# Convention : Reuss Voigt Hill
#
# Bulk Modulus (GPa) = 9.91395 15.02233 12.46814
# Shear Modulus (GPa) = 39.59366 74.50899 57.05133
#
# Velocity S-wave (km/s) = 4.34693 5.96313 5.21799
# Velocity P-wave (km/s) = 5.47045 7.38791 6.50027
#
# Compressibility (1/GPa) = 0.10086792
#
# Stress axis : x y z
#
# Youngs Moduli (GPa) = 63.22202 31.51823 25.96436
#
# Poissons Ratio (x) = 0.20728 -0.01166
# Poissons Ratio (y) = 0.41579 -0.35134
# Poissons Ratio (z) = -0.02840 -0.42650
#
# Static dielectric constant tensor:
#      x y z
#    x 1.736680 0.000000 0.000000 
#    y 0.000000 1.727030 0.000000 
#    z 0.000000 0.000000 1.721820 
# 
# From -- ./inp_files/16915.got.cif
#   From: 2010.05.17/outbox.cif.g08.bks.cpg/sg62_9_cif.got.tgz:16915.got - 2010.06.03 15:25:27.
