data_PCOD9466558
_publ_section_title
;
Structure prediction by ZEFSAII (Michael W. Deem and Ramdas Pophale) SiO2 
 PCOD9466558
Probable space group: P N M A
;
_chemical_formula_sum "Si O2"
_cell_formula_units_Z 64
_cell_length_a 22.941313
_cell_length_b 14.413073
_cell_length_c 8.858329
_cell_angle_alpha 90.000000
_cell_angle_beta 90.000000
_cell_angle_gamma 90.000000
_cell_volume 2929.049172
_symmetry_space_group_name_H-M "P N M A"
_symmetry_group_IT_number 62
_symmetry_cell_setting 'orthorhombic'
loop_
_space_group_symop_operation_xyz
x,y,z
1/2-x,-y,1/2+z
1/2+x,1/2-y,1/2-z
-x,1/2+y,-z
-x,-y,-z
1/2+x,y,1/2-z
1/2-x,1/2+y,1/2+z
x,1/2-y,z
loop_
_atom_site_type_symbol
_atom_site_label
_atom_site_fract_x
_atom_site_fract_y
_atom_site_fract_z
Si Si1 0.886446 0.142077 0.008628
Si Si2 0.398567 0.853763 0.627519
Si Si3 0.477132 0.858415 0.075779
Si Si4 0.300280 0.481178 0.104120
Si Si5 0.085943 0.858756 0.645099
Si Si6 0.474488 0.026265 0.661577
Si Si7 0.847058 0.849980 0.559153
Si Si8 0.312530 0.965138 0.445763
O O1 0.870641 0.250000 0.996289
O O2 0.918212 0.128906 0.172649
O O3 0.833954 0.068412 0.007186
O O4 0.928333 0.108054 0.874899
O O5 0.423300 0.750000 0.602101
O O6 0.352075 0.846367 0.761378
O O7 0.367238 0.897685 0.481854
O O8 0.442060 0.930203 0.695991
O O9 0.484922 0.750000 0.122654
O O10 0.483896 0.930774 0.212729
O O11 0.528496 0.879248 0.954191
O O12 0.412460 0.863656 0.006835
O O13 0.357955 0.418088 0.097276
O O14 0.297139 0.524885 0.270820
O O15 0.308413 0.565927 0.990707
O O16 0.241665 0.433129 0.046859
O O17 0.098140 0.750000 0.622069
O O18 0.500000 0.000000 0.500000
O O19 0.825830 0.750000 0.503115
#
# Coordination Sequence:
#
# PCOD9466558 Si02
#       8
#     8   8   8   8   8   8   8   8
#     4   9  20  40  61  85 118 155 199 248 301 361
#     4  10  23  42  60  85 121 161 207 252 301 363
#     4  10  22  39  61  91 126 159 201 250 298 357
#     4  11  22  39  62  89 123 155 201 254 304 365
#     4   9  20  38  62  88 115 156 203 247 299 356
#     4  11  24  36  57  90 122 163 198 239 300 354
#     4  10  23  40  62  90 122 164 204 251 308 360
#     4  10  23  40  62  90 119 160 201 252 311 361
#
# _framework density 21.850093999999999
#
# number of rings (size 3 to 8) (size 9 to 14) (size 15 to 20)
#    0.000    2.000    0.000    1.875    7.000    4.500 
#    0.000    2.500    0.000    0.000    0.000    0.000 
#    0.000    0.000    0.000    0.000    0.000    0.000 
#
# Total GULP energy -357439.067742 kJ/mol
# GULP energy per Si atom -5584.985433 kJ/mol
# Density = 2.180036 g / cm^3
# Si number density = 21.850094 Si / 1000 Ang^3
#
#
#
# Elastic Constant Matrix: (Units=GPa)
#
#
# Indices 1 2 3 4 5 6 
#
# 1 37.5923 16.3251 1.9525 0.0000 0.0000 0.0000
# 2 16.3251 112.8615 19.6241 0.0000 0.0000 0.0000
# 3 1.9525 19.6241 47.6406 0.0000 0.0000 0.0000
# 4 0.0000 0.0000 0.0000 26.4256 0.0000 0.0000
# 5 0.0000 0.0000 0.0000 0.0000 37.2306 0.0000
# 6 0.0000 0.0000 0.0000 0.0000 0.0000 15.5311
#
#
#
# Elastic Compliance Matrix: (Units=1/GPa)
#
#
# Indices 1 2 3 4 5 6 
#
# 1 0.028398 -0.004207 0.000569 0.000000 0.000000 0.000000
# 2 -0.004207 0.010167 -0.004016 0.000000 0.000000 0.000000
# 3 0.000569 -0.004016 0.022621 0.000000 0.000000 0.000000
# 4 0.000000 0.000000 0.000000 0.037842 0.000000 0.000000
# 5 0.000000 0.000000 0.000000 0.000000 0.026860 0.000000
# 6 0.000000 0.000000 0.000000 0.000000 0.000000 0.064387
#
#
# Mechanical properties :
#
#
# Convention : Reuss Voigt Hill
#
# Bulk Modulus (GPa) = 21.79593 30.43308 26.11450
# Shear Modulus (GPa) = 22.63715 26.51697 24.57706
#
# Velocity S-wave (km/s) = 3.22222 3.48744 3.35745
# Velocity P-wave (km/s) = 4.88267 5.49314 5.19688
#
# Compressibility (1/GPa) = 0.04588013
#
# Stress axis : x y z
#
# Youngs Moduli (GPa) = 35.21314 98.35614 44.20608
#
# Poissons Ratio (x) = 0.41375 -0.02515
# Poissons Ratio (y) = 0.14813 0.17752
# Poissons Ratio (z) = -0.02003 0.39496
#
# Static dielectric constant tensor:
#      x y z
#    x 1.844310 0.000000 0.000000 
#    y 0.000000 1.886130 0.000000 
#    z 0.000000 0.000000 1.816470 
# 
# From -- ./inp_files/9469.got.cif
#   From: 2010.05.17/outbox.cif.g08.bks.cpg/sg62_5_cif.got.tgz:9469.got - 2010.06.03 15:25:27.
