data_PCOD9466502
_publ_section_title
;
Structure prediction by ZEFSAII (Michael W. Deem and Ramdas Pophale) SiO2 
 PCOD9466502
Probable space group: P N M A
;
_chemical_formula_sum "Si O2"
_cell_formula_units_Z 48
_cell_length_a 22.877988
_cell_length_b 8.943432
_cell_length_c 12.109852
_cell_angle_alpha 90.000000
_cell_angle_beta 90.000000
_cell_angle_gamma 90.000000
_cell_volume 2477.769328
_symmetry_space_group_name_H-M "P N M A"
_symmetry_group_IT_number 62
_symmetry_cell_setting 'orthorhombic'
loop_
_space_group_symop_operation_xyz
x,y,z
1/2-x,-y,1/2+z
1/2+x,1/2-y,1/2-z
-x,1/2+y,-z
-x,-y,-z
1/2+x,y,1/2-z
1/2-x,1/2+y,1/2+z
x,1/2-y,z
loop_
_atom_site_type_symbol
_atom_site_label
_atom_site_fract_x
_atom_site_fract_y
_atom_site_fract_z
Si Si1 0.854019 0.070554 0.291949
Si Si2 0.157087 0.418302 0.936185
Si Si3 0.886612 0.567731 0.713285
Si Si4 0.275393 0.932390 0.638347
Si Si5 0.435502 0.069504 0.006446
Si Si6 0.041618 0.416580 0.084182
O O1 0.853766 0.250000 0.289648
O O2 0.789302 0.020128 0.329302
O O3 0.902934 0.024891 0.380068
O O4 0.862065 0.010175 0.169300
O O5 0.173292 0.250000 0.900719
O O6 0.207360 0.484536 0.015030
O O7 0.102957 0.406545 0.019884
O O8 0.888253 0.750000 0.705626
O O9 0.825219 0.525575 0.772275
O O10 0.897854 0.492705 0.596196
O O11 0.939467 0.521066 0.796662
O O12 0.276837 0.750000 0.633679
O O13 0.438620 0.250000 0.001873
O O14 0.500000 0.000000 0.000000
O O15 0.017724 0.250000 0.102419
O O16 0.000000 0.500000 0.000000
#
# Coordination Sequence:
#
# PCOD9466502 Si02
#       6
#     8   8   8   8   8   8
#     4  10  22  38  58  84 114 149 186 234 286 337
#     4   9  19  36  57  82 111 144 183 227 279 340
#     4   9  19  38  61  83 112 149 187 231 286 344
#     4   8  17  37  61  84 114 147 180 229 293 345
#     4  11  25  41  58  83 118 158 199 240 285 340
#     4   9  19  34  55  82 109 142 181 227 280 329
#
# _framework density 19.372263
#
# number of rings (size 3 to 8) (size 9 to 14) (size 15 to 20)
#    0.000    2.667    0.000    2.500    4.667    2.667 
#    0.000    3.333    0.000    0.000    0.000    0.000 
#    0.000    0.000    0.000    0.000    0.000    0.000 
#
# Total GULP energy -267580.720821 kJ/mol
# GULP energy per Si atom -5574.598350 kJ/mol
# Density = 1.932817 g / cm^3
# Si number density = 19.372263 Si / 1000 Ang^3
#
#
#
# Elastic Constant Matrix: (Units=GPa)
#
#
# Indices 1 2 3 4 5 6 
#
# 1 58.4086 13.1232 21.7045 0.0000 0.0000 0.0000
# 2 13.1232 16.2867 19.0282 0.0000 0.0000 0.0000
# 3 21.7045 19.0282 123.8820 0.0000 0.0000 0.0000
# 4 0.0000 0.0000 0.0000 28.0875 0.0000 0.0000
# 5 0.0000 0.0000 0.0000 0.0000 10.2677 0.0000
# 6 0.0000 0.0000 0.0000 0.0000 0.0000 22.4639
#
#
#
# Elastic Compliance Matrix: (Units=1/GPa)
#
#
# Indices 1 2 3 4 5 6 
#
# 1 0.021082 -0.015443 -0.001322 0.000000 0.000000 0.000000
# 2 -0.015443 0.086140 -0.010525 0.000000 0.000000 0.000000
# 3 -0.001322 -0.010525 0.009920 0.000000 0.000000 0.000000
# 4 0.000000 0.000000 0.000000 0.035603 0.000000 0.000000
# 5 0.000000 0.000000 0.000000 0.000000 0.097393 0.000000
# 6 0.000000 0.000000 0.000000 0.000000 0.000000 0.044516
#
#
# Mechanical properties :
#
#
# Convention : Reuss Voigt Hill
#
# Bulk Modulus (GPa) = 15.98398 34.03214 25.00806
# Shear Modulus (GPa) = 13.51033 21.81190 17.66111
#
# Velocity S-wave (km/s) = 2.64371 3.35914 3.02266
# Velocity P-wave (km/s) = 4.19378 5.71407 5.01191
#
# Compressibility (1/GPa) = 0.06256263
#
# Stress axis : x y z
#
# Youngs Moduli (GPa) = 47.43490 11.60900 100.80189
#
# Poissons Ratio (x) = 0.17927 0.13322
# Poissons Ratio (y) = 0.73252 1.06099
# Poissons Ratio (z) = 0.06269 0.12219
#
# Static dielectric constant tensor:
#      x y z
#    x 1.713450 0.000000 0.000000 
#    y 0.000000 1.683050 0.000000 
#    z 0.000000 0.000000 1.686120 
# 
# From -- ./inp_files/15095.got.cif
#   From: 2010.05.17/outbox.cif.g08.bks.cpg/sg62_8_cif.got.tgz:15095.got - 2010.06.03 15:25:27.
