data_PCOD9466859
_publ_section_title
;
Structure prediction by ZEFSAII (Michael W. Deem and Ramdas Pophale) SiO2 
 PCOD9466859
Probable space group: P N M A
;
_chemical_formula_sum "Si O2"
_cell_formula_units_Z 32
_cell_length_a 5.248029
_cell_length_b 18.180108
_cell_length_c 14.035926
_cell_angle_alpha 90.000000
_cell_angle_beta 90.000000
_cell_angle_gamma 90.000000
_cell_volume 1339.163966
_symmetry_space_group_name_H-M "P N M A"
_symmetry_group_IT_number 62
_symmetry_cell_setting 'orthorhombic'
loop_
_space_group_symop_operation_xyz
x,y,z
1/2-x,-y,1/2+z
1/2+x,1/2-y,1/2-z
-x,1/2+y,-z
-x,-y,-z
1/2+x,y,1/2-z
1/2-x,1/2+y,1/2+z
x,1/2-y,z
loop_
_atom_site_type_symbol
_atom_site_label
_atom_site_fract_x
_atom_site_fract_y
_atom_site_fract_z
Si Si1 0.251453 0.466603 0.549702
Si Si2 0.180511 0.338847 0.804159
Si Si3 0.941781 0.162596 0.501910
Si Si4 0.750577 0.911688 0.809658
O O1 0.500000 0.500000 0.500000
O O2 0.201285 0.380924 0.528422
O O3 0.242580 0.504108 0.653274
O O4 0.000000 0.500000 0.500000
O O5 0.412984 0.363332 0.737364
O O6 0.175618 0.250000 0.801695
O O7 0.254328 0.359124 0.911224
O O8 0.982129 0.250000 0.503457
O O9 0.824820 0.137184 0.401527
O O10 0.531232 0.898076 0.731606
#
# Coordination Sequence:
#
# PCOD9466859 Si02
#       4
#     8   8   8   8
#     4  10  22  43  66  92 132 183 238 291 345 417
#     4   9  19  35  56  87 126 166 211 270 345 413
#     4  10  23  43  70 104 141 181 234 304 368 425
#     4  11  24  43  68  99 139 190 236 279 345 433
#
# _framework density 23.895506000000001
#
# number of rings (size 3 to 8) (size 9 to 14) (size 15 to 20)
#    0.000    2.000    0.000    3.000    0.000    9.000 
#    0.000   17.500    0.000    0.000    0.000    0.000 
#    0.000    0.000    0.000    0.000    0.000    0.000 
#
# Total GULP energy -179065.226664 kJ/mol
# GULP energy per Si atom -5595.788333 kJ/mol
# Density = 2.384112 g / cm^3
# Si number density = 23.895506 Si / 1000 Ang^3
#
#
#
# Elastic Constant Matrix: (Units=GPa)
#
#
# Indices 1 2 3 4 5 6 
#
# 1 138.3176 34.8394 29.5203 0.0000 0.0000 0.0000
# 2 34.8394 147.5776 48.5591 0.0000 0.0000 0.0000
# 3 29.5203 48.5591 111.6864 0.0000 0.0000 0.0000
# 4 0.0000 0.0000 0.0000 46.9541 0.0000 0.0000
# 5 0.0000 0.0000 0.0000 0.0000 40.0416 0.0000
# 6 0.0000 0.0000 0.0000 0.0000 0.0000 32.5527
#
#
#
# Elastic Compliance Matrix: (Units=1/GPa)
#
#
# Indices 1 2 3 4 5 6 
#
# 1 0.007894 -0.001373 -0.001489 0.000000 0.000000 0.000000
# 2 -0.001373 0.008146 -0.003179 0.000000 0.000000 0.000000
# 3 -0.001489 -0.003179 0.010729 0.000000 0.000000 0.000000
# 4 0.000000 0.000000 0.000000 0.021297 0.000000 0.000000
# 5 0.000000 0.000000 0.000000 0.000000 0.024974 0.000000
# 6 0.000000 0.000000 0.000000 0.000000 0.000000 0.030719
#
#
# Mechanical properties :
#
#
# Convention : Reuss Voigt Hill
#
# Bulk Modulus (GPa) = 68.09127 69.26882 68.68005
# Shear Modulus (GPa) = 41.41186 42.88721 42.14953
#
# Velocity S-wave (km/s) = 4.16750 4.24108 4.20445
# Velocity P-wave (km/s) = 7.19129 7.28241 7.23699
#
# Compressibility (1/GPa) = 0.01468617
#
# Stress axis : x y z
#
# Youngs Moduli (GPa) = 126.68624 122.75511 93.20226
#
# Poissons Ratio (x) = 0.16860 0.13880
# Poissons Ratio (y) = 0.17400 0.29627
# Poissons Ratio (z) = 0.18866 0.39022
#
# Static dielectric constant tensor:
#      x y z
#    x 2.004570 0.000000 0.000000 
#    y 0.000000 2.014050 0.000000 
#    z 0.000000 0.000000 1.918340 
# 
# From -- ./inp_files/10641.got.cif
#   From: 2010.05.17/outbox.cif.g08.bks.cpg/sg62_6_cif.got.tgz:10641.got - 2010.06.03 15:25:27.
