data_PCOD9466205
_publ_section_title
;
Structure prediction by ZEFSAII (Michael W. Deem and Ramdas Pophale) SiO2 
 PCOD9466205
Probable space group: P N M A
;
_chemical_formula_sum "Si O2"
_cell_formula_units_Z 48
_cell_length_a 19.351119
_cell_length_b 8.793480
_cell_length_c 15.285121
_cell_angle_alpha 90.000000
_cell_angle_beta 90.000000
_cell_angle_gamma 90.000000
_cell_volume 2600.972407
_symmetry_space_group_name_H-M "P N M A"
_symmetry_group_IT_number 62
_symmetry_cell_setting 'orthorhombic'
loop_
_space_group_symop_operation_xyz
x,y,z
1/2-x,-y,1/2+z
1/2+x,1/2-y,1/2-z
-x,1/2+y,-z
-x,-y,-z
1/2+x,y,1/2-z
1/2-x,1/2+y,1/2+z
x,1/2-y,z
loop_
_atom_site_type_symbol
_atom_site_label
_atom_site_fract_x
_atom_site_fract_y
_atom_site_fract_z
Si Si1 0.677611 0.069124 0.997560
Si Si2 0.076278 0.568667 0.151464
Si Si3 0.922509 0.932547 0.658374
Si Si4 0.829350 0.931181 0.998908
Si Si5 0.081048 0.930728 0.647523
Si Si6 0.925138 0.068477 0.146898
O O1 0.689493 0.250000 0.997368
O O2 0.750267 0.984095 0.998828
O O3 0.632820 0.021416 0.913590
O O4 0.631961 0.031067 0.083114
O O5 0.075750 0.750000 0.144752
O O6 0.091529 0.516368 0.250603
O O7 0.131421 0.498829 0.085171
O O8 0.000252 0.503512 0.129185
O O9 0.921697 0.750000 0.674549
O O10 0.000831 0.970549 0.629154
O O11 0.834122 0.750000 0.998003
O O12 0.868782 0.997200 0.083348
O O13 0.089807 0.750000 0.632027
O O14 0.091650 0.958940 0.750867
O O15 0.929158 0.250000 0.133699
#
# Coordination Sequence:
#
# PCOD9466205 Si02
#       6
#     8   8   8   8   8   8
#     4  11  23  38  58  85 118 154 192 236 285 338
#     4  11  22  38  62  89 115 147 191 238 283 337
#     4   9  20  39  61  86 117 152 189 234 287 336
#     4  12  25  40  58  82 116 155 193 235 286 343
#     4   9  19  37  61  87 116 151 188 231 283 338
#     4  10  21  40  63  87 116 149 189 236 286 338
#
# _framework density 18.454635
#
# number of rings (size 3 to 8) (size 9 to 14) (size 15 to 20)
#    0.000    1.667    0.000    6.000    0.000    6.000 
#    0.000    1.667    0.000    0.000    0.000    0.000 
#    0.000    0.000    0.000    0.000    0.000    0.000 
#
# Total GULP energy -268358.557901 kJ/mol
# GULP energy per Si atom -5590.803290 kJ/mol
# Density = 1.841263 g / cm^3
# Si number density = 18.454635 Si / 1000 Ang^3
#
#
#
# Elastic Constant Matrix: (Units=GPa)
#
#
# Indices 1 2 3 4 5 6 
#
# 1 148.0124 90.8083 98.4136 0.0000 0.0000 0.0000
# 2 90.8083 126.0845 80.7127 0.0000 0.0000 0.0000
# 3 98.4136 80.7127 98.5050 0.0000 0.0000 0.0000
# 4 0.0000 0.0000 0.0000 -29.3199 0.0000 0.0000
# 5 0.0000 0.0000 0.0000 0.0000 -23.2887 0.0000
# 6 0.0000 0.0000 0.0000 0.0000 0.0000 33.9160
#
#
#
# Elastic Compliance Matrix: (Units=1/GPa)
#
#
# Indices 1 2 3 4 5 6 
#
# 1 0.020849 -0.003537 -0.017931 0.000000 0.000000 0.000000
# 2 -0.003537 0.017281 -0.010626 0.000000 0.000000 0.000000
# 3 -0.017931 -0.010626 0.036773 0.000000 0.000000 0.000000
# 4 0.000000 0.000000 0.000000 -0.034107 0.000000 0.000000
# 5 0.000000 0.000000 0.000000 0.000000 -0.042939 0.000000
# 6 0.000000 0.000000 0.000000 0.000000 0.000000 0.029485
#
#
# Mechanical properties :
#
#
# Convention : Reuss Voigt Hill
#
# Bulk Modulus (GPa) = 93.33256 101.38570 97.35913
# Shear Modulus (GPa) = 52.57628 3.10596 27.84112
#
# Velocity S-wave (km/s) = 5.34334 1.29872 3.88832
# Velocity P-wave (km/s) = 9.42084 7.57007 8.54571
#
# Compressibility (1/GPa) = 0.01071437
#
# Stress axis : x y z
#
# Youngs Moduli (GPa) = 47.96464 57.86863 27.19400
#
# Poissons Ratio (x) = 0.20468 0.48762
# Poissons Ratio (y) = 0.16965 0.28895
# Poissons Ratio (z) = 0.86007 0.61489
#
# Static dielectric constant tensor:
#      x y z
#    x 1.603070 0.000000 0.000000 
#    y 0.000000 1.616730 0.000000 
#    z 0.000000 0.000000 1.617820 
# 
# From -- ./inp_files/19543.got.cif
#   From: 2010.05.17/outbox.cif.g08.bks.cpg/sg62_10_cif.got.tgz:19543.got - 2010.06.03 15:25:27.
