data_PCOD9466457
_publ_section_title
;
Structure prediction by ZEFSAII (Michael W. Deem and Ramdas Pophale) SiO2 
 PCOD9466457
Probable space group: P N M A
;
_chemical_formula_sum "Si O2"
_cell_formula_units_Z 64
_cell_length_a 11.342598
_cell_length_b 17.571458
_cell_length_c 18.641681
_cell_angle_alpha 90.000000
_cell_angle_beta 90.000000
_cell_angle_gamma 90.000000
_cell_volume 3715.398582
_symmetry_space_group_name_H-M "P N M A"
_symmetry_group_IT_number 62
_symmetry_cell_setting 'orthorhombic'
loop_
_space_group_symop_operation_xyz
x,y,z
1/2-x,-y,1/2+z
1/2+x,1/2-y,1/2-z
-x,1/2+y,-z
-x,-y,-z
1/2+x,y,1/2-z
1/2-x,1/2+y,1/2+z
x,1/2-y,z
loop_
_atom_site_type_symbol
_atom_site_label
_atom_site_fract_x
_atom_site_fract_y
_atom_site_fract_z
Si Si1 0.519502 0.161118 0.944084
Si Si2 0.745520 0.910188 0.846699
Si Si3 0.674910 0.412678 0.068716
Si Si4 0.494420 0.971446 0.686102
Si Si5 0.746293 0.835424 0.996257
Si Si6 0.387456 0.977949 0.452567
Si Si7 0.483488 0.515446 0.151426
Si Si8 0.679464 0.839398 0.696387
O O1 0.540477 0.250000 0.925825
O O2 0.531158 0.100075 0.879898
O O3 0.606010 0.134468 0.008282
O O4 0.385248 0.154443 0.972722
O O5 0.741907 0.851300 0.911586
O O6 0.735957 0.867269 0.770961
O O7 0.866130 0.957128 0.845981
O O8 0.636737 0.967614 0.856625
O O9 0.782143 0.461561 0.035992
O O10 0.583652 0.471319 0.105966
O O11 0.733501 0.361430 0.131111
O O12 0.560894 0.889900 0.690820
O O13 0.573512 0.018164 0.630313
O O14 0.486390 0.009220 0.764256
O O15 0.785048 0.750000 0.011288
O O16 0.835002 0.896689 0.028218
O O17 0.500000 0.000000 0.500000
O O18 0.655873 0.750000 0.696776
#
# Coordination Sequence:
#
# PCOD9466457 Si02
#       8
#     8   8   8   8   8   8   8   8
#     4  11  23  38  61  90 115 148 196 256 304 336
#     4  11  20  37  58  87 115 152 194 239 286 361
#     4  11  20  38  59  86 118 155 197 238 291 355
#     4  10  23  38  58  83 114 156 200 233 286 357
#     4  11  22  36  58  88 117 147 193 247 298 347
#     4  11  22  39  61  85 116 159 197 233 285 355
#     4  11  21  38  62  85 115 154 199 241 293 348
#     4  10  22  36  53  84 125 156 183 235 299 357
#
# _framework density 17.225608000000001
#
# number of rings (size 3 to 8) (size 9 to 14) (size 15 to 20)
#    0.000    1.250    5.000    1.875    0.000    1.000 
#    0.000    1.250    0.000    0.750    0.000    0.000 
#    0.000    0.000    0.000    0.000    0.000    0.000 
#
# Total GULP energy -357397.845118 kJ/mol
# GULP energy per Si atom -5584.341330 kJ/mol
# Density = 1.718640 g / cm^3
# Si number density = 17.225608 Si / 1000 Ang^3
#
#
#
# Elastic Constant Matrix: (Units=GPa)
#
#
# Indices 1 2 3 4 5 6 
#
# 1 98.2520 57.0729 28.2857 0.0000 0.0000 0.0000
# 2 57.0729 143.6584 69.8770 0.0000 0.0000 0.0000
# 3 28.2857 69.8770 62.7862 0.0000 0.0000 0.0000
# 4 0.0000 0.0000 0.0000 13.3600 0.0000 0.0000
# 5 0.0000 0.0000 0.0000 0.0000 23.8668 0.0000
# 6 0.0000 0.0000 0.0000 0.0000 0.0000 18.7089
#
#
#
# Elastic Compliance Matrix: (Units=1/GPa)
#
#
# Indices 1 2 3 4 5 6 
#
# 1 0.013233 -0.005140 -0.000241 0.000000 0.000000 0.000000
# 2 -0.005140 0.017173 -0.016797 0.000000 0.000000 0.000000
# 3 -0.000241 -0.016797 0.034730 0.000000 0.000000 0.000000
# 4 0.000000 0.000000 0.000000 0.074850 0.000000 0.000000
# 5 0.000000 0.000000 0.000000 0.000000 0.041899 0.000000
# 6 0.000000 0.000000 0.000000 0.000000 0.000000 0.053451
#
#
# Mechanical properties :
#
#
# Convention : Reuss Voigt Hill
#
# Bulk Modulus (GPa) = 48.12407 68.35198 58.23803
# Shear Modulus (GPa) = 17.44475 21.15121 19.29798
#
# Velocity S-wave (km/s) = 3.18578 3.50793 3.35073
# Velocity P-wave (km/s) = 6.44441 7.49493 6.98944
#
# Compressibility (1/GPa) = 0.02077962
#
# Stress axis : x y z
#
# Youngs Moduli (GPa) = 75.56840 58.23009 28.79372
#
# Poissons Ratio (x) = 0.29930 0.00694
# Poissons Ratio (y) = 0.38842 0.48365
# Poissons Ratio (z) = 0.01823 0.97810
#
# Static dielectric constant tensor:
#      x y z
#    x 1.580300 0.000000 0.000000 
#    y 0.000000 1.554140 0.000000 
#    z 0.000000 0.000000 1.597070 
# 
# From -- ./inp_files/23334.got.cif
#   From: 2010.05.17/outbox.cif.g08.bks.cpg/sg62_12_cif.got.tgz:23334.got - 2010.06.03 15:25:27.
