data_PCOD9466349
_publ_section_title
;
Structure prediction by ZEFSAII (Michael W. Deem and Ramdas Pophale) SiO2 
 PCOD9466349
Probable space group: P N M A
;
_chemical_formula_sum "Si O2"
_cell_formula_units_Z 60
_cell_length_a 13.171203
_cell_length_b 21.044240
_cell_length_c 11.540887
_cell_angle_alpha 90.000000
_cell_angle_beta 90.000000
_cell_angle_gamma 90.000000
_cell_volume 3198.879481
_symmetry_space_group_name_H-M "P N M A"
_symmetry_group_IT_number 62
_symmetry_cell_setting 'orthorhombic'
loop_
_space_group_symop_operation_xyz
x,y,z
1/2-x,-y,1/2+z
1/2+x,1/2-y,1/2-z
-x,1/2+y,-z
-x,-y,-z
1/2+x,y,1/2-z
1/2-x,1/2+y,1/2+z
x,1/2-y,z
loop_
_atom_site_type_symbol
_atom_site_label
_atom_site_fract_x
_atom_site_fract_y
_atom_site_fract_z
Si Si1 0.582305 0.644380 0.798965
Si Si2 0.967746 0.750000 0.844253
Si Si3 0.478012 0.825515 0.043337
Si Si4 0.054588 0.506866 0.812985
Si Si5 0.706658 0.348707 0.424361
Si Si6 0.650326 0.003218 0.435931
Si Si7 0.185693 0.411207 0.662431
Si Si8 0.687400 0.822927 0.168414
O O1 0.544927 0.694262 0.704420
O O2 0.566380 0.572508 0.756323
O O3 0.698712 0.655846 0.836166
O O4 0.515895 0.656817 0.914928
O O5 0.885877 0.694723 0.885364
O O6 0.458109 0.750000 0.046213
O O7 0.381515 0.865626 0.082190
O O8 0.572201 0.838561 0.130553
O O9 0.110320 0.450645 0.745155
O O10 0.937556 0.491568 0.841036
O O11 0.107307 0.514379 0.938209
O O12 0.674911 0.422182 0.433039
O O13 0.748105 0.327712 0.549897
O O14 0.748664 0.961934 0.408413
O O15 0.262587 0.369330 0.739101
O O16 0.689711 0.750000 0.209848
#
# Coordination Sequence:
#
# PCOD9466349 Si02
#       8
#     8   4   8   8   8   8   8   8
#     4  11  23  42  65  96 127 171 219 270 330 389
#     4  12  22  38  68  94 126 168 220 272 318 384
#     4  10  23  42  65  94 131 166 219 271 321 397
#     4  11  24  41  63  92 132 168 213 268 326 393
#     4  11  21  40  66  93 124 174 219 256 329 401
#     4  11  24  41  61  93 134 168 216 270 321 394
#     4  12  23  40  67  96 127 170 216 275 330 381
#     4  10  21  41  66  89 123 172 218 254 326 402
#
# _framework density 18.756568000000001
#
# number of rings (size 3 to 8) (size 9 to 14) (size 15 to 20)
#    0.000    1.067    5.333    1.600    0.000    2.667 
#    0.000    0.000    1.467    0.000    0.000    0.000 
#    0.000    0.000    0.000    0.000    0.000    0.000 
#
# Total GULP energy -334281.908900 kJ/mol
# GULP energy per Si atom -5571.365148 kJ/mol
# Density = 1.871388 g / cm^3
# Si number density = 18.756568 Si / 1000 Ang^3
#
#
#
# Elastic Constant Matrix: (Units=GPa)
#
#
# Indices 1 2 3 4 5 6 
#
# 1 41.8561 31.8581 2.1393 0.0000 0.0000 0.0000
# 2 31.8581 125.7226 16.8803 0.0000 0.0000 0.0000
# 3 2.1393 16.8803 11.5826 0.0000 0.0000 0.0000
# 4 0.0000 0.0000 0.0000 67.2422 0.0000 0.0000
# 5 0.0000 0.0000 0.0000 0.0000 17.9522 0.0000
# 6 0.0000 0.0000 0.0000 0.0000 0.0000 44.9911
#
#
#
# Elastic Compliance Matrix: (Units=1/GPa)
#
#
# Indices 1 2 3 4 5 6 
#
# 1 0.030037 -0.008537 0.006894 0.000000 0.000000 0.000000
# 2 -0.008537 0.012315 -0.016371 0.000000 0.000000 0.000000
# 3 0.006894 -0.016371 0.108922 0.000000 0.000000 0.000000
# 4 0.000000 0.000000 0.000000 0.014872 0.000000 0.000000
# 5 0.000000 0.000000 0.000000 0.000000 0.055703 0.000000
# 6 0.000000 0.000000 0.000000 0.000000 0.000000 0.022227
#
#
# Mechanical properties :
#
#
# Convention : Reuss Voigt Hill
#
# Bulk Modulus (GPa) = 8.67718 31.21296 19.94507
# Shear Modulus (GPa) = 15.69759 34.58936 25.14347
#
# Velocity S-wave (km/s) = 2.89608 4.29898 3.66528
# Velocity P-wave (km/s) = 3.97735 6.42797 5.34500
#
# Compressibility (1/GPa) = 0.11524488
#
# Stress axis : x y z
#
# Youngs Moduli (GPa) = 33.29257 81.19933 9.18087
#
# Poissons Ratio (x) = 0.69319 -0.06329
# Poissons Ratio (y) = 0.28421 0.15030
# Poissons Ratio (z) = -0.22950 1.32934
#
# Static dielectric constant tensor:
#      x y z
#    x 1.637120 0.000000 0.000000 
#    y 0.000000 1.625440 0.000000 
#    z 0.000000 0.000000 1.632900 
# 
# From -- ./inp_files/12459.got.cif
#   From: 2010.05.17/outbox.cif.g08.bks.cpg/sg62_7_cif.got.tgz:12459.got - 2010.06.03 15:25:27.
