data_PCOD9466663
_publ_section_title
;
Structure prediction by ZEFSAII (Michael W. Deem and Ramdas Pophale) SiO2 
 PCOD9466663
Probable space group: P N M A
;
_chemical_formula_sum "Si O2"
_cell_formula_units_Z 32
_cell_length_a 5.277188
_cell_length_b 10.210477
_cell_length_c 27.638370
_cell_angle_alpha 90.000000
_cell_angle_beta 90.000000
_cell_angle_gamma 90.000000
_cell_volume 1489.227421
_symmetry_space_group_name_H-M "P N M A"
_symmetry_group_IT_number 62
_symmetry_cell_setting 'orthorhombic'
loop_
_space_group_symop_operation_xyz
x,y,z
1/2-x,-y,1/2+z
1/2+x,1/2-y,1/2-z
-x,1/2+y,-z
-x,-y,-z
1/2+x,y,1/2-z
1/2-x,1/2+y,1/2+z
x,1/2-y,z
loop_
_atom_site_type_symbol
_atom_site_label
_atom_site_fract_x
_atom_site_fract_y
_atom_site_fract_z
Si Si1 0.959777 0.473305 0.444069
Si Si2 0.514094 0.101880 0.217742
Si Si3 0.706547 0.101923 0.855084
Si Si4 0.530159 0.890331 0.605278
O O1 0.913665 0.598190 0.409033
O O2 0.700959 0.395350 0.433251
O O3 0.000000 0.500000 0.500000
O O4 0.206265 0.404781 0.421946
O O5 0.781641 0.090094 0.244569
O O6 0.497536 0.250000 0.196764
O O7 0.466837 0.988670 0.178812
O O8 0.743031 0.250000 0.838505
O O9 0.961703 0.014554 0.861279
O O10 0.519583 0.750000 0.631151
#
# Coordination Sequence:
#
# PCOD9466663 Si02
#       4
#     8   8   8   8
#     4  10  23  42  62  95 131 173 217 264 317 377
#     4  10  23  43  67  94 123 163 215 264 316 385
#     4  10  25  42  64  97 135 168 208 265 330 388
#     4  10  22  40  65  90 121 168 219 262 305 368
#
# _framework density 21.487649000000001
#
# number of rings (size 3 to 8) (size 9 to 14) (size 15 to 20)
#    1.500    0.500    0.000    2.250    3.500    4.000 
#    0.000    0.000    0.000    0.000    0.000    0.000 
#    0.000    0.000    0.000    0.000    0.000    0.000 
#
# Total GULP energy -178399.139404 kJ/mol
# GULP energy per Si atom -5574.973106 kJ/mol
# Density = 2.143874 g / cm^3
# Si number density = 21.487649 Si / 1000 Ang^3
#
#
#
# Elastic Constant Matrix: (Units=GPa)
#
#
# Indices 1 2 3 4 5 6 
#
# 1 135.4293 18.8455 23.3905 0.0000 0.0000 0.0000
# 2 18.8455 180.7721 51.4461 0.0000 0.0000 0.0000
# 3 23.3905 51.4461 85.2993 0.0000 0.0000 0.0000
# 4 0.0000 0.0000 0.0000 58.8917 0.0000 0.0000
# 5 0.0000 0.0000 0.0000 0.0000 34.8915 0.0000
# 6 0.0000 0.0000 0.0000 0.0000 0.0000 22.6769
#
#
#
# Elastic Compliance Matrix: (Units=1/GPa)
#
#
# Indices 1 2 3 4 5 6 
#
# 1 0.007760 -0.000246 -0.001980 0.000000 0.000000 0.000000
# 2 -0.000246 0.006686 -0.003965 0.000000 0.000000 0.000000
# 3 -0.001980 -0.003965 0.014658 0.000000 0.000000 0.000000
# 4 0.000000 0.000000 0.000000 0.016980 0.000000 0.000000
# 5 0.000000 0.000000 0.000000 0.000000 0.028660 0.000000
# 6 0.000000 0.000000 0.000000 0.000000 0.000000 0.044098
#
#
# Mechanical properties :
#
#
# Convention : Reuss Voigt Hill
#
# Bulk Modulus (GPa) = 59.79878 65.42944 62.61411
# Shear Modulus (GPa) = 36.55050 43.81328 40.18189
#
# Velocity S-wave (km/s) = 4.12879 4.52043 4.32904
# Velocity P-wave (km/s) = 7.11471 7.60010 7.36141
#
# Compressibility (1/GPa) = 0.01672275
#
# Stress axis : x y z
#
# Youngs Moduli (GPa) = 128.86533 149.56966 68.22328
#
# Poissons Ratio (x) = 0.03673 0.13507
# Poissons Ratio (y) = 0.03164 0.27051
# Poissons Ratio (z) = 0.25513 0.59305
#
# Static dielectric constant tensor:
#      x y z
#    x 1.792500 0.000000 0.000000 
#    y 0.000000 1.743100 0.000000 
#    z 0.000000 0.000000 1.793390 
# 
# From -- ./inp_files/31409.got.cif
#   From: 2010.05.17/outbox.cif.g08.bks.cpg/sg62_16_cif.got.tgz:31409.got - 2010.06.03 15:25:27.
