data_PCOD9466977
_publ_section_title
;
Structure prediction by ZEFSAII (Michael W. Deem and Ramdas Pophale) SiO2 
 PCOD9466977
Probable space group: P N M A
;
_chemical_formula_sum "Si O2"
_cell_formula_units_Z 60
_cell_length_a 15.333441
_cell_length_b 18.901902
_cell_length_c 7.946175
_cell_angle_alpha 90.000000
_cell_angle_beta 90.000000
_cell_angle_gamma 90.000000
_cell_volume 2303.049429
_symmetry_space_group_name_H-M "P N M A"
_symmetry_group_IT_number 62
_symmetry_cell_setting 'orthorhombic'
loop_
_space_group_symop_operation_xyz
x,y,z
1/2-x,-y,1/2+z
1/2+x,1/2-y,1/2-z
-x,1/2+y,-z
-x,-y,-z
1/2+x,y,1/2-z
1/2-x,1/2+y,1/2+z
x,1/2-y,z
loop_
_atom_site_type_symbol
_atom_site_label
_atom_site_fract_x
_atom_site_fract_y
_atom_site_fract_z
Si Si1 0.410771 0.354835 0.803939
Si Si2 0.670453 0.427769 0.868132
Si Si3 0.533628 0.750000 0.441345
Si Si4 0.629124 0.520245 0.394190
Si Si5 0.054696 0.331738 0.437981
Si Si6 0.582188 0.934555 0.753904
Si Si7 0.620837 0.136114 0.503103
Si Si8 0.703092 0.824227 0.872182
O O1 0.399320 0.311436 0.634121
O O2 0.410339 0.437359 0.762400
O O3 0.501401 0.329150 0.884477
O O4 0.340867 0.335465 0.944725
O O5 0.642052 0.373155 0.013015
O O6 0.603519 0.494324 0.858490
O O7 0.656954 0.388650 0.687407
O O8 0.768211 0.458023 0.892369
O O9 0.462183 0.686658 0.484831
O O10 0.578138 0.545092 0.560438
O O11 0.616118 0.437080 0.400162
O O12 0.062684 0.250000 0.381459
O O13 0.990475 0.381686 0.328423
O O14 0.670659 0.888925 0.765158
O O15 0.696059 0.176564 0.404828
O O16 0.669000 0.750000 0.800199
#
# Coordination Sequence:
#
# PCOD9466977 Si02
#       8
#     8   8   4   8   8   8   8   8
#     4  11  21  40  67  98 127 164 220 272 324 388
#     4  11  21  41  69  97 126 172 227 270 317 394
#     4  12  22  42  64 100 130 166 224 274 330 386
#     4  11  25  42  65 101 135 170 215 275 336 390
#     4  11  22  44  68  95 126 176 227 270 324 394
#     4  10  23  41  63  94 137 170 214 263 339 394
#     4  11  22  39  67  98 124 165 221 279 317 387
#     4  11  20  39  68  92 123 172 219 269 319 387
#
# _framework density 26.052415
#
# number of rings (size 3 to 8) (size 9 to 14) (size 15 to 20)
#    0.000    1.067    6.000    1.600    0.000    0.533 
#    3.600    1.333    0.000    0.000    0.000    0.000 
#    0.000    0.000    0.000    0.000    0.000    0.000 
#
# Total GULP energy -334957.959740 kJ/mol
# GULP energy per Si atom -5582.632662 kJ/mol
# Density = 2.599312 g / cm^3
# Si number density = 26.052415 Si / 1000 Ang^3
#
#
#
# Elastic Constant Matrix: (Units=GPa)
#
#
# Indices 1 2 3 4 5 6 
#
# 1 91.5774 45.8802 21.5061 0.0000 0.0000 0.0000
# 2 45.8802 196.0437 41.4833 0.0000 0.0000 0.0000
# 3 21.5061 41.4833 61.9644 0.0000 0.0000 0.0000
# 4 0.0000 0.0000 0.0000 17.7378 0.0000 0.0000
# 5 0.0000 0.0000 0.0000 0.0000 26.3569 0.0000
# 6 0.0000 0.0000 0.0000 0.0000 0.0000 20.7461
#
#
#
# Elastic Compliance Matrix: (Units=1/GPa)
#
#
# Indices 1 2 3 4 5 6 
#
# 1 0.012784 -0.002392 -0.002836 0.000000 0.000000 0.000000
# 2 -0.002392 0.006390 -0.003448 0.000000 0.000000 0.000000
# 3 -0.002836 -0.003448 0.019431 0.000000 0.000000 0.000000
# 4 0.000000 0.000000 0.000000 0.056377 0.000000 0.000000
# 5 0.000000 0.000000 0.000000 0.000000 0.037941 0.000000
# 6 0.000000 0.000000 0.000000 0.000000 0.000000 0.048202
#
#
# Mechanical properties :
#
#
# Convention : Reuss Voigt Hill
#
# Bulk Modulus (GPa) = 47.04981 63.03608 55.04295
# Shear Modulus (GPa) = 24.32379 29.01588 26.66983
#
# Velocity S-wave (km/s) = 3.05888 3.34091 3.20300
# Velocity P-wave (km/s) = 5.52943 6.25545 5.90361
#
# Compressibility (1/GPa) = 0.02125407
#
# Stress axis : x y z
#
# Youngs Moduli (GPa) = 78.22306 156.48837 51.46464
#
# Poissons Ratio (x) = 0.37429 0.14594
# Poissons Ratio (y) = 0.18709 0.17745
# Poissons Ratio (z) = 0.22182 0.53957
#
# Static dielectric constant tensor:
#      x y z
#    x 2.061270 0.000000 0.000000 
#    y 0.000000 2.013510 0.000000 
#    z 0.000000 0.000000 2.130210 
# 
# From -- ./inp_files/7950.got.cif
#   From: 2010.05.17/outbox.cif.g08.bks.cpg/sg62_4_cif.got.tgz:7950.got - 2010.06.03 15:25:27.
