data_PCOD9466347
_publ_section_title
;
Structure prediction by ZEFSAII (Michael W. Deem and Ramdas Pophale) SiO2 
 PCOD9466347
Probable space group: P N M A
;
_chemical_formula_sum "Si O2"
_cell_formula_units_Z 40
_cell_length_a 18.448751
_cell_length_b 11.634136
_cell_length_c 9.019516
_cell_angle_alpha 90.000000
_cell_angle_beta 90.000000
_cell_angle_gamma 90.000000
_cell_volume 1935.906326
_symmetry_space_group_name_H-M "P N M A"
_symmetry_group_IT_number 62
_symmetry_cell_setting 'orthorhombic'
loop_
_space_group_symop_operation_xyz
x,y,z
1/2-x,-y,1/2+z
1/2+x,1/2-y,1/2-z
-x,1/2+y,-z
-x,-y,-z
1/2+x,y,1/2-z
1/2-x,1/2+y,1/2+z
x,1/2-y,z
loop_
_atom_site_type_symbol
_atom_site_label
_atom_site_fract_x
_atom_site_fract_y
_atom_site_fract_z
Si Si1 0.936906 0.453706 0.187904
Si Si2 0.705959 0.613215 0.863936
Si Si3 0.939545 0.383555 0.849156
Si Si4 0.029059 0.124740 0.439331
Si Si5 0.328662 0.973890 0.852887
O O1 0.864344 0.439322 0.281439
O O2 0.978212 0.575663 0.184938
O O3 0.995942 0.375910 0.273427
O O4 0.924705 0.417674 0.019326
O O5 0.696040 0.750000 0.882740
O O6 0.773737 0.587301 0.758163
O O7 0.711054 0.549369 0.021824
O O8 0.931559 0.250000 0.832137
O O9 0.882404 0.445837 0.742810
O O10 0.007998 0.250000 0.505928
O O11 0.115414 0.112752 0.432441
O O12 0.000000 0.000000 0.500000
#
# Coordination Sequence:
#
# PCOD9466347 Si02
#       5
#     8   8   8   8   8
#     4  10  22  39  65  96 129 174 221 268 336 400
#     4  12  24  44  65  92 134 176 220 280 341 406
#     4  10  21  41  65  95 131 170 222 279 330 397
#     4  11  22  40  67  98 130 173 224 278 333 399
#     4  11  25  42  66  98 131 175 227 274 340 410
#
# _framework density 20.662157000000001
#
# number of rings (size 3 to 8) (size 9 to 14) (size 15 to 20)
#    0.000    1.200    2.000    4.200    0.000    3.200 
#    0.000   12.000    0.000    0.000    0.000    0.000 
#    0.000    0.000    0.000    0.000    0.000    0.000 
#
# Total GULP energy -223280.668780 kJ/mol
# GULP energy per Si atom -5582.016720 kJ/mol
# Density = 2.061513 g / cm^3
# Si number density = 20.662157 Si / 1000 Ang^3
#
#
#
# Elastic Constant Matrix: (Units=GPa)
#
#
# Indices 1 2 3 4 5 6 
#
# 1 75.3350 11.9233 9.4303 0.0000 0.0000 0.0000
# 2 11.9233 103.4071 26.3689 0.0000 0.0000 0.0000
# 3 9.4303 26.3689 107.0054 0.0000 0.0000 0.0000
# 4 0.0000 0.0000 0.0000 16.1879 0.0000 0.0000
# 5 0.0000 0.0000 0.0000 0.0000 41.1714 0.0000
# 6 0.0000 0.0000 0.0000 0.0000 0.0000 4.1848
#
#
#
# Elastic Compliance Matrix: (Units=1/GPa)
#
#
# Indices 1 2 3 4 5 6 
#
# 1 0.013596 -0.001347 -0.000866 0.000000 0.000000 0.000000
# 2 -0.001347 0.010452 -0.002457 0.000000 0.000000 0.000000
# 3 -0.000866 -0.002457 0.010027 0.000000 0.000000 0.000000
# 4 0.000000 0.000000 0.000000 0.061775 0.000000 0.000000
# 5 0.000000 0.000000 0.000000 0.000000 0.024289 0.000000
# 6 0.000000 0.000000 0.000000 0.000000 0.000000 0.238959
#
#
# Mechanical properties :
#
#
# Convention : Reuss Voigt Hill
#
# Bulk Modulus (GPa) = 40.42856 42.35470 41.39163
# Shear Modulus (GPa) = 13.27376 28.17715 20.72546
#
# Velocity S-wave (km/s) = 2.53735 3.69685 3.17055
# Velocity P-wave (km/s) = 5.30972 6.22619 5.78613
#
# Compressibility (1/GPa) = 0.02473499
#
# Stress axis : x y z
#
# Youngs Moduli (GPa) = 73.55302 95.67231 99.72923
#
# Poissons Ratio (x) = 0.12884 0.08640
# Poissons Ratio (y) = 0.09906 0.24504
# Poissons Ratio (z) = 0.06372 0.23507
#
# Static dielectric constant tensor:
#      x y z
#    x 1.737390 0.000000 0.000000 
#    y 0.000000 1.777910 0.000000 
#    z 0.000000 0.000000 1.797840 
# 
# From -- ./inp_files/7264.got.cif
#   From: 2010.05.17/outbox.cif.g08.bks.cpg/sg62_4_cif.got.tgz:7264.got - 2010.06.03 15:25:27.
