data_PCOD9466089
_publ_section_title
;
Structure prediction by ZEFSAII (Michael W. Deem and Ramdas Pophale) SiO2 
 PCOD9466089
Probable space group: P N M A
;
_chemical_formula_sum "Si O2"
_cell_formula_units_Z 64
_cell_length_a 17.354824
_cell_length_b 15.785490
_cell_length_c 11.852329
_cell_angle_alpha 90.000000
_cell_angle_beta 90.000000
_cell_angle_gamma 90.000000
_cell_volume 3246.997688
_symmetry_space_group_name_H-M "P N M A"
_symmetry_group_IT_number 62
_symmetry_cell_setting 'orthorhombic'
loop_
_space_group_symop_operation_xyz
x,y,z
1/2-x,-y,1/2+z
1/2+x,1/2-y,1/2-z
-x,1/2+y,-z
-x,-y,-z
1/2+x,y,1/2-z
1/2-x,1/2+y,1/2+z
x,1/2-y,z
loop_
_atom_site_type_symbol
_atom_site_label
_atom_site_fract_x
_atom_site_fract_y
_atom_site_fract_z
Si Si1 0.367411 0.349329 0.910665
Si Si2 0.718370 0.562191 0.708338
Si Si3 0.694685 0.346817 0.008863
Si Si4 0.538421 0.147032 0.882274
Si Si5 0.911491 0.542831 0.923320
Si Si6 0.308240 0.406868 0.674592
Si Si7 0.240738 0.347827 0.080710
Si Si8 0.553563 0.480776 0.674185
O O1 0.368300 0.250000 0.938444
O O2 0.454651 0.379242 0.930466
O O3 0.348255 0.360466 0.778917
O O4 0.297990 0.386699 0.985881
O O5 0.768202 0.592262 0.601934
O O6 0.759814 0.482939 0.768619
O O7 0.718472 0.636881 0.800066
O O8 0.632251 0.532939 0.683009
O O9 0.693121 0.250000 0.050668
O O10 0.609112 0.370197 0.966852
O O11 0.749959 0.352542 0.899525
O O12 0.538056 0.250000 0.860670
O O13 0.550139 0.091422 0.769251
O O14 0.871153 0.451056 0.905991
O O15 0.841779 0.607854 0.911233
O O16 0.978582 0.541485 0.829677
O O17 0.945188 0.557251 0.047678
O O18 0.228167 0.250000 0.055606
#
# Coordination Sequence:
#
# PCOD9466089 Si02
#       8
#     8   8   8   8   8   8   8   8
#     4  10  21  39  62  90 122 158 205 260 314 375
#     4  11  23  39  64  87 124 167 210 256 313 377
#     4  11  23  40  62  93 128 170 213 263 323 379
#     4  10  22  39  63  97 130 163 208 269 329 377
#     4  10  22  37  61  89 122 166 201 254 310 372
#     4  11  20  36  61  91 122 162 211 257 308 378
#     4  10  23  43  62  85 120 165 212 254 309 380
#     4  11  20  39  61  91 130 157 206 256 313 378
#
# _framework density 19.710515000000001
#
# number of rings (size 3 to 8) (size 9 to 14) (size 15 to 20)
#    0.000    1.500    3.750    1.500    1.750    0.500 
#    4.500    2.500    0.000    0.000    0.000    0.000 
#    0.000    0.000    0.000    0.000    0.000    0.000 
#
# Total GULP energy -357016.105257 kJ/mol
# GULP energy per Si atom -5578.376645 kJ/mol
# Density = 1.966565 g / cm^3
# Si number density = 19.710515 Si / 1000 Ang^3
#
#
#
# Elastic Constant Matrix: (Units=GPa)
#
#
# Indices 1 2 3 4 5 6 
#
# 1 112.7713 37.4555 25.8680 0.0000 0.0000 0.0000
# 2 37.4555 50.4172 25.0863 0.0000 0.0000 0.0000
# 3 25.8680 25.0863 70.6349 0.0000 0.0000 0.0000
# 4 0.0000 0.0000 0.0000 22.7774 0.0000 0.0000
# 5 0.0000 0.0000 0.0000 0.0000 24.0948 0.0000
# 6 0.0000 0.0000 0.0000 0.0000 0.0000 24.7697
#
#
#
# Elastic Compliance Matrix: (Units=1/GPa)
#
#
# Indices 1 2 3 4 5 6 
#
# 1 0.011898 -0.008103 -0.001480 0.000000 0.000000 0.000000
# 2 -0.008103 0.029611 -0.007549 0.000000 0.000000 0.000000
# 3 -0.001480 -0.007549 0.017380 0.000000 0.000000 0.000000
# 4 0.000000 0.000000 0.000000 0.043903 0.000000 0.000000
# 5 0.000000 0.000000 0.000000 0.000000 0.041503 0.000000
# 6 0.000000 0.000000 0.000000 0.000000 0.000000 0.040372
#
#
# Mechanical properties :
#
#
# Convention : Reuss Voigt Hill
#
# Bulk Modulus (GPa) = 40.60750 45.62700 43.11725
# Shear Modulus (GPa) = 22.01302 24.02261 23.01782
#
# Velocity S-wave (km/s) = 3.34551 3.49488 3.42101
# Velocity P-wave (km/s) = 5.96405 6.28366 6.12594
#
# Compressibility (1/GPa) = 0.02462599
#
# Stress axis : x y z
#
# Youngs Moduli (GPa) = 84.04593 33.77176 57.53709
#
# Poissons Ratio (x) = 0.27366 0.08513
# Poissons Ratio (y) = 0.68104 0.43433
# Poissons Ratio (z) = 0.12435 0.25493
#
# Static dielectric constant tensor:
#      x y z
#    x 1.743250 0.000000 0.000000 
#    y 0.000000 1.698060 0.000000 
#    z 0.000000 0.000000 1.707670 
# 
# From -- ./inp_files/14327.got.cif
#   From: 2010.05.17/outbox.cif.g08.bks.cpg/sg62_8_cif.got.tgz:14327.got - 2010.06.03 15:25:27.
