data_PCOD9466988
_publ_section_title
;
Structure prediction by ZEFSAII (Michael W. Deem and Ramdas Pophale) SiO2 
 PCOD9466988
Probable space group: P N M A
;
_chemical_formula_sum "Si O2"
_cell_formula_units_Z 56
_cell_length_a 9.491692
_cell_length_b 14.293132
_cell_length_c 20.864035
_cell_angle_alpha 90.000000
_cell_angle_beta 90.000000
_cell_angle_gamma 90.000000
_cell_volume 2830.540311
_symmetry_space_group_name_H-M "P N M A"
_symmetry_group_IT_number 62
_symmetry_cell_setting 'orthorhombic'
loop_
_space_group_symop_operation_xyz
x,y,z
1/2-x,-y,1/2+z
1/2+x,1/2-y,1/2-z
-x,1/2+y,-z
-x,-y,-z
1/2+x,y,1/2-z
1/2-x,1/2+y,1/2+z
x,1/2-y,z
loop_
_atom_site_type_symbol
_atom_site_label
_atom_site_fract_x
_atom_site_fract_y
_atom_site_fract_z
Si Si1 0.500456 0.910837 0.748652
Si Si2 0.406918 0.512759 0.364321
Si Si3 0.175114 0.361519 0.370229
Si Si4 0.753291 0.349371 0.330178
Si Si5 0.301886 0.990805 0.564828
Si Si6 0.763126 0.138655 0.550769
Si Si7 0.084123 0.140879 0.514102
O O1 0.407555 0.913402 0.812979
O O2 0.403110 0.856518 0.698039
O O3 0.640547 0.859108 0.771224
O O4 0.545697 0.003635 0.709945
O O5 0.322538 0.415881 0.378144
O O6 0.546492 0.519133 0.407595
O O7 0.301285 0.594954 0.384598
O O8 0.187669 0.250000 0.356273
O O9 0.091657 0.370220 0.437137
O O10 0.777840 0.250000 0.362994
O O11 0.773210 0.434363 0.377933
O O12 0.313180 0.917574 0.506517
O O13 0.205109 0.076070 0.543074
O O14 0.743748 0.250000 0.546764
O O15 0.929138 0.117480 0.540725
O O16 0.111348 0.250000 0.527910
#
# Coordination Sequence:
#
# PCOD9466988 Si02
#       7
#     8   8   8   8   8   8   8
#     4  11  23  38  58  87 126 166 211 256 316 380
#     4  11  25  40  61  96 130 170 214 260 324 380
#     4  11  22  38  63  93 132 170 209 263 319 388
#     4  11  22  35  57  90 127 166 207 257 316 380
#     4  11  23  39  61  96 132 165 211 262 316 383
#     4  11  23  41  64  92 127 168 215 263 316 378
#     4  10  23  41  66  97 129 171 214 261 323 388
#
# _framework density 19.784208
#
# number of rings (size 3 to 8) (size 9 to 14) (size 15 to 20)
#    0.000    1.143    2.857    3.429    2.000    5.143 
#    0.000    0.000    0.000    1.714    0.000    0.000 
#    0.000    0.000    0.000    0.000    0.000    0.000 
#
# Total GULP energy -312773.570819 kJ/mol
# GULP energy per Si atom -5585.242336 kJ/mol
# Density = 1.973918 g / cm^3
# Si number density = 19.784208 Si / 1000 Ang^3
#
#
#
# Elastic Constant Matrix: (Units=GPa)
#
#
# Indices 1 2 3 4 5 6 
#
# 1 108.3397 47.4967 46.3071 0.0000 0.0000 0.0000
# 2 47.4967 88.2271 55.7615 0.0000 0.0000 0.0000
# 3 46.3071 55.7615 92.6922 0.0000 0.0000 0.0000
# 4 0.0000 0.0000 0.0000 22.0385 0.0000 0.0000
# 5 0.0000 0.0000 0.0000 0.0000 36.3719 0.0000
# 6 0.0000 0.0000 0.0000 0.0000 0.0000 -0.4500
#
#
#
# Elastic Compliance Matrix: (Units=1/GPa)
#
#
# Indices 1 2 3 4 5 6 
#
# 1 0.012796 -0.004596 -0.003628 0.000000 0.000000 0.000000
# 2 -0.004596 0.019938 -0.009698 0.000000 0.000000 0.000000
# 3 -0.003628 -0.009698 0.018435 0.000000 0.000000 0.000000
# 4 0.000000 0.000000 0.000000 0.045375 0.000000 0.000000
# 5 0.000000 0.000000 0.000000 0.000000 0.027494 0.000000
# 6 0.000000 0.000000 0.000000 0.000000 0.000000 -2.222123
#
#
# Mechanical properties :
#
#
# Convention : Reuss Voigt Hill
#
# Bulk Modulus (GPa) = 65.25235 65.37661 65.31448
# Shear Modulus (GPa) = -2.43057 20.90499 9.23721
#
# Velocity S-wave (km/s) = -1.10960 3.25414 2.16313
# Velocity P-wave (km/s) = 5.60464 6.87283 6.27088
#
# Compressibility (1/GPa) = 0.01532512
#
# Stress axis : x y z
#
# Youngs Moduli (GPa) = 78.15201 50.15556 54.24449
#
# Poissons Ratio (x) = 0.23049 0.19679
# Poissons Ratio (y) = 0.35916 0.52608
# Poissons Ratio (z) = 0.28352 0.48643
#
# Static dielectric constant tensor:
#      x y z
#    x 1.735400 0.000000 0.000000 
#    y 0.000000 1.689930 0.000000 
#    z 0.000000 0.000000 1.741840 
# 
# From -- ./inp_files/25988.got.cif
#   From: 2010.05.17/outbox.cif.g08.bks.cpg/sg62_13_cif.got.tgz:25988.got - 2010.06.03 15:25:27.
