data_PCOD9466728
_publ_section_title
;
Structure prediction by ZEFSAII (Michael W. Deem and Ramdas Pophale) SiO2 
 PCOD9466728
Probable space group: P N M A
;
_chemical_formula_sum "Si O2"
_cell_formula_units_Z 56
_cell_length_a 19.116784
_cell_length_b 8.865575
_cell_length_c 17.409249
_cell_angle_alpha 90.000000
_cell_angle_beta 90.000000
_cell_angle_gamma 90.000000
_cell_volume 2950.541845
_symmetry_space_group_name_H-M "P N M A"
_symmetry_group_IT_number 62
_symmetry_cell_setting 'orthorhombic'
loop_
_space_group_symop_operation_xyz
x,y,z
1/2-x,-y,1/2+z
1/2+x,1/2-y,1/2-z
-x,1/2+y,-z
-x,-y,-z
1/2+x,y,1/2-z
1/2-x,1/2+y,1/2+z
x,1/2-y,z
loop_
_atom_site_type_symbol
_atom_site_label
_atom_site_fract_x
_atom_site_fract_y
_atom_site_fract_z
Si Si1 0.652894 0.069725 0.035437
Si Si2 0.294815 0.931410 0.410010
Si Si3 0.900354 0.069549 0.378493
Si Si4 0.283511 0.931519 0.231189
Si Si5 0.944916 0.931201 0.679841
Si Si6 0.372702 0.069664 0.674411
Si Si7 0.924186 0.930681 0.984781
O O1 0.654499 0.250000 0.028395
O O2 0.609612 0.029938 0.112182
O O3 0.731023 0.006837 0.044603
O O4 0.615608 0.000958 0.961279
O O5 0.286576 0.750000 0.414414
O O6 0.290190 0.975120 0.320580
O O7 0.368636 0.971195 0.448559
O O8 0.896698 0.250000 0.384238
O O9 0.977458 0.028677 0.348282
O O10 0.842357 0.009798 0.319608
O O11 0.291694 0.750000 0.226211
O O12 0.206560 0.969488 0.199346
O O13 0.942060 0.750000 0.691627
O O14 0.922807 0.013894 0.757346
O O15 0.377279 0.250000 0.666353
O O16 0.393844 0.991801 0.595222
O O17 0.929531 0.750000 0.982015
O O18 0.000000 0.000000 0.000000
#
# Coordination Sequence:
#
# PCOD9466728 Si02
#       7
#     8   8   8   8   8   8   8
#     4  11  22  39  64  92 124 162 205 252 303 366
#     4  10  22  42  65  91 123 162 207 258 311 367
#     4  11  24  39  60  90 125 162 201 248 306 365
#     4  10  22  41  64  93 125 160 208 257 307 368
#     4  10  23  41  61  92 127 161 203 251 306 367
#     4  11  23  41  66  91 122 164 207 255 313 371
#     4  11  25  43  65  93 129 167 211 262 313 372
#
# _framework density 18.979564
#
# number of rings (size 3 to 8) (size 9 to 14) (size 15 to 20)
#    0.000    1.429    1.429    3.000    2.000    6.857 
#    0.000    0.000    0.000    0.000    0.000    0.000 
#    0.000    0.000    0.000    0.000    0.000    0.000 
#
# Total GULP energy -313195.480049 kJ/mol
# GULP energy per Si atom -5592.776429 kJ/mol
# Density = 1.893637 g / cm^3
# Si number density = 18.979564 Si / 1000 Ang^3
#
#
#
# Elastic Constant Matrix: (Units=GPa)
#
#
# Indices 1 2 3 4 5 6 
#
# 1 128.1704 47.6481 85.2921 0.0000 0.0000 0.0000
# 2 47.6481 34.8670 45.5247 0.0000 0.0000 0.0000
# 3 85.2921 45.5247 112.5757 0.0000 0.0000 0.0000
# 4 0.0000 0.0000 0.0000 19.3418 0.0000 0.0000
# 5 0.0000 0.0000 0.0000 0.0000 -17.3184 0.0000
# 6 0.0000 0.0000 0.0000 0.0000 0.0000 28.7705
#
#
#
# Elastic Compliance Matrix: (Units=1/GPa)
#
#
# Indices 1 2 3 4 5 6 
#
# 1 0.018857 -0.015075 -0.008190 0.000000 0.000000 0.000000
# 2 -0.015075 0.072815 -0.018025 0.000000 0.000000 0.000000
# 3 -0.008190 -0.018025 0.022377 0.000000 0.000000 0.000000
# 4 0.000000 0.000000 0.000000 0.051702 0.000000 0.000000
# 5 0.000000 0.000000 0.000000 0.000000 -0.057742 0.000000
# 6 0.000000 0.000000 0.000000 0.000000 0.000000 0.034758
#
#
# Mechanical properties :
#
#
# Convention : Reuss Voigt Hill
#
# Bulk Modulus (GPa) = 31.77673 70.28256 51.02965
# Shear Modulus (GPa) = 21.20111 12.63532 16.91822
#
# Velocity S-wave (km/s) = 3.34585 2.58298 2.98886
# Velocity P-wave (km/s) = 5.63074 6.78283 6.23346
#
# Compressibility (1/GPa) = 0.03146957
#
# Stress axis : x y z
#
# Youngs Moduli (GPa) = 53.03136 13.73334 44.68810
#
# Poissons Ratio (x) = 0.20703 0.36602
# Poissons Ratio (y) = 0.79945 0.80548
# Poissons Ratio (z) = 0.43435 0.24754
#
# Static dielectric constant tensor:
#      x y z
#    x 1.631960 0.000000 0.000000 
#    y 0.000000 1.634510 0.000000 
#    z 0.000000 0.000000 1.630400 
# 
# From -- ./inp_files/20293.got.cif
#   From: 2010.05.17/outbox.cif.g08.bks.cpg/sg62_11_cif.got.tgz:20293.got - 2010.06.03 15:25:27.
