data_PCOD9466404
_publ_section_title
;
Structure prediction by ZEFSAII (Michael W. Deem and Ramdas Pophale) SiO2 
 PCOD9466404
Probable space group: P N M A
;
_chemical_formula_sum "Si O2"
_cell_formula_units_Z 32
_cell_length_a 9.541425
_cell_length_b 21.567877
_cell_length_c 6.813708
_cell_angle_alpha 90.000000
_cell_angle_beta 90.000000
_cell_angle_gamma 90.000000
_cell_volume 1402.181255
_symmetry_space_group_name_H-M "P N M A"
_symmetry_group_IT_number 62
_symmetry_cell_setting 'orthorhombic'
loop_
_space_group_symop_operation_xyz
x,y,z
1/2-x,-y,1/2+z
1/2+x,1/2-y,1/2-z
-x,1/2+y,-z
-x,-y,-z
1/2+x,y,1/2-z
1/2-x,1/2+y,1/2+z
x,1/2-y,z
loop_
_atom_site_type_symbol
_atom_site_label
_atom_site_fract_x
_atom_site_fract_y
_atom_site_fract_z
Si Si1 0.106396 0.134726 0.331736
Si Si2 0.680941 0.818863 0.992389
Si Si3 0.976628 0.492293 0.263905
Si Si4 0.775178 0.073571 0.809824
O O1 0.209665 0.169296 0.183712
O O2 0.200007 0.105614 0.506451
O O3 0.978970 0.174977 0.417610
O O4 0.025853 0.077337 0.228519
O O5 0.703432 0.750000 0.075057
O O6 0.705739 0.873661 0.147020
O O7 0.423685 0.458659 0.656894
O O8 0.819785 0.516214 0.232885
O O9 0.500000 0.000000 0.000000
#
# Coordination Sequence:
#
# PCOD9466404 Si02
#       4
#     8   8   8   8
#     4  11  26  46  69 104 138 179 229 292 346 413
#     4  12  27  46  68  98 139 190 237 276 337 413
#     4  10  21  42  69 103 134 168 226 282 355 405
#     4  11  23  45  69 104 135 180 225 288 351 411
#
# _framework density 22.821586
#
# number of rings (size 3 to 8) (size 9 to 14) (size 15 to 20)
#    0.000    1.000    5.000    2.250    7.000    3.000 
#    0.000    0.000    0.000    0.000    0.000    0.000 
#    0.000    0.000    0.000    0.000    0.000    0.000 
#
# Total GULP energy -179202.655403 kJ/mol
# GULP energy per Si atom -5600.082981 kJ/mol
# Density = 2.276964 g / cm^3
# Si number density = 22.821586 Si / 1000 Ang^3
#
#
#
# Elastic Constant Matrix: (Units=GPa)
#
#
# Indices 1 2 3 4 5 6 
#
# 1 103.0291 14.1042 17.6193 0.0000 0.0000 0.0000
# 2 14.1042 96.6178 13.7688 0.0000 0.0000 0.0000
# 3 17.6193 13.7688 58.3406 0.0000 0.0000 0.0000
# 4 0.0000 0.0000 0.0000 20.9452 0.0000 0.0000
# 5 0.0000 0.0000 0.0000 0.0000 40.3628 0.0000
# 6 0.0000 0.0000 0.0000 0.0000 0.0000 13.4845
#
#
#
# Elastic Compliance Matrix: (Units=1/GPa)
#
#
# Indices 1 2 3 4 5 6 
#
# 1 0.010347 -0.001102 -0.002865 0.000000 0.000000 0.000000
# 2 -0.001102 0.010828 -0.002223 0.000000 0.000000 0.000000
# 3 -0.002865 -0.002223 0.018530 0.000000 0.000000 0.000000
# 4 0.000000 0.000000 0.000000 0.047744 0.000000 0.000000
# 5 0.000000 0.000000 0.000000 0.000000 0.024775 0.000000
# 6 0.000000 0.000000 0.000000 0.000000 0.000000 0.074159
#
#
# Mechanical properties :
#
#
# Convention : Reuss Voigt Hill
#
# Bulk Modulus (GPa) = 36.59510 38.77469 37.68489
# Shear Modulus (GPa) = 24.05346 29.12484 26.58915
#
# Velocity S-wave (km/s) = 3.25003 3.57627 3.41704
# Velocity P-wave (km/s) = 5.49124 5.83782 5.66718
#
# Compressibility (1/GPa) = 0.02732606
#
# Stress axis : x y z
#
# Youngs Moduli (GPa) = 96.64848 92.35581 53.96531
#
# Poissons Ratio (x) = 0.10179 0.15459
# Poissons Ratio (y) = 0.10652 0.11994
# Poissons Ratio (z) = 0.27687 0.20526
#
# Static dielectric constant tensor:
#      x y z
#    x 1.824470 0.000000 0.000000 
#    y 0.000000 1.799940 0.000000 
#    z 0.000000 0.000000 1.946270 
# 
# From -- ./inp_files/4981.got.cif
#   From: 2010.05.17/outbox.cif.g08.bks.cpg/sg62_3_cif.got.tgz:4981.got - 2010.06.03 15:25:27.
