data_PCOD9466461
_publ_section_title
;
Structure prediction by ZEFSAII (Michael W. Deem and Ramdas Pophale) SiO2 
 PCOD9466461
Probable space group: P N M A
;
_chemical_formula_sum "Si O2"
_cell_formula_units_Z 40
_cell_length_a 7.665761
_cell_length_b 22.792440
_cell_length_c 12.384787
_cell_angle_alpha 90.000000
_cell_angle_beta 90.000000
_cell_angle_gamma 90.000000
_cell_volume 2163.887294
_symmetry_space_group_name_H-M "P N M A"
_symmetry_group_IT_number 62
_symmetry_cell_setting 'orthorhombic'
loop_
_space_group_symop_operation_xyz
x,y,z
1/2-x,-y,1/2+z
1/2+x,1/2-y,1/2-z
-x,1/2+y,-z
-x,-y,-z
1/2+x,y,1/2-z
1/2-x,1/2+y,1/2+z
x,1/2-y,z
loop_
_atom_site_type_symbol
_atom_site_label
_atom_site_fract_x
_atom_site_fract_y
_atom_site_fract_z
Si Si1 0.002343 0.899247 0.969299
Si Si2 0.035068 0.479444 0.848041
Si Si3 0.161853 0.359603 0.350837
Si Si4 0.218830 0.817776 0.612818
Si Si5 0.075416 0.495276 0.381007
O O1 0.163353 0.861544 0.922790
O O2 0.829175 0.860108 0.965314
O O3 0.973353 0.956734 0.892219
O O4 0.054107 0.927940 0.083871
O O5 0.235352 0.476147 0.882209
O O6 0.026414 0.477097 0.719474
O O7 0.218162 0.336622 0.233240
O O8 0.101655 0.427367 0.349285
O O9 0.990038 0.326221 0.391909
O O10 0.262421 0.750000 0.595032
O O11 0.000000 0.500000 0.500000
#
# Coordination Sequence:
#
# PCOD9466461 Si02
#       5
#     8   8   8   8   8
#     4  10  22  38  55  84 127 160 196 247 307 375
#     4  10  22  36  59  88 125 163 197 241 319 374
#     4  11  21  35  54  81 125 160 200 250 305 365
#     4  12  22  35  57  87 120 160 208 261 313 363
#     4  11  22  36  60  87 129 162 201 248 305 381
#
# _framework density 18.485250000000001
#
# number of rings (size 3 to 8) (size 9 to 14) (size 15 to 20)
#    0.000    1.200    4.000    3.000    8.400    0.800 
#    0.000    0.000    0.000    0.000    0.000    7.000 
#    0.000    0.000    0.000    0.000    0.000    0.000 
#
# Total GULP energy -223286.708038 kJ/mol
# GULP energy per Si atom -5582.167701 kJ/mol
# Density = 1.844318 g / cm^3
# Si number density = 18.485250 Si / 1000 Ang^3
#
#
#
# Elastic Constant Matrix: (Units=GPa)
#
#
# Indices 1 2 3 4 5 6 
#
# 1 57.4772 30.9228 13.3609 0.0000 0.0000 0.0000
# 2 30.9228 72.5962 23.7984 0.0000 0.0000 0.0000
# 3 13.3609 23.7984 103.0348 0.0000 0.0000 0.0000
# 4 0.0000 0.0000 0.0000 19.1438 0.0000 0.0000
# 5 0.0000 0.0000 0.0000 0.0000 19.6961 0.0000
# 6 0.0000 0.0000 0.0000 0.0000 0.0000 23.5500
#
#
#
# Elastic Compliance Matrix: (Units=1/GPa)
#
#
# Indices 1 2 3 4 5 6 
#
# 1 0.022626 -0.009387 -0.000766 0.000000 0.000000 0.000000
# 2 -0.009387 0.018797 -0.003125 0.000000 0.000000 0.000000
# 3 -0.000766 -0.003125 0.010526 0.000000 0.000000 0.000000
# 4 0.000000 0.000000 0.000000 0.052236 0.000000 0.000000
# 5 0.000000 0.000000 0.000000 0.000000 0.050771 0.000000
# 6 0.000000 0.000000 0.000000 0.000000 0.000000 0.042463
#
#
# Mechanical properties :
#
#
# Convention : Reuss Voigt Hill
#
# Bulk Modulus (GPa) = 39.37653 41.03027 40.20340
# Shear Modulus (GPa) = 21.51088 23.47972 22.49530
#
# Velocity S-wave (km/s) = 3.41497 3.56783 3.49224
# Velocity P-wave (km/s) = 6.07431 6.26235 6.16904
#
# Compressibility (1/GPa) = 0.02539584
#
# Stress axis : x y z
#
# Youngs Moduli (GPa) = 44.19634 53.19870 94.99864
#
# Poissons Ratio (x) = 0.49936 0.07276
# Poissons Ratio (y) = 0.41486 0.29683
# Poissons Ratio (z) = 0.03385 0.16622
#
# Static dielectric constant tensor:
#      x y z
#    x 1.710130 0.000000 0.000000 
#    y 0.000000 1.634070 0.000000 
#    z 0.000000 0.000000 1.707100 
# 
# From -- ./inp_files/11080.got.cif
#   From: 2010.05.17/outbox.cif.g08.bks.cpg/sg62_6_cif.got.tgz:11080.got - 2010.06.03 15:25:27.
