data_PCOD9466147
_publ_section_title
;
Structure prediction by ZEFSAII (Michael W. Deem and Ramdas Pophale) SiO2 
 PCOD9466147
Probable space group: P N M A
;
_chemical_formula_sum "Si O2"
_cell_formula_units_Z 48
_cell_length_a 14.403863
_cell_length_b 15.372279
_cell_length_c 9.468350
_cell_angle_alpha 90.000000
_cell_angle_beta 90.000000
_cell_angle_gamma 90.000000
_cell_volume 2096.483957
_symmetry_space_group_name_H-M "P N M A"
_symmetry_group_IT_number 62
_symmetry_cell_setting 'orthorhombic'
loop_
_space_group_symop_operation_xyz
x,y,z
1/2-x,-y,1/2+z
1/2+x,1/2-y,1/2-z
-x,1/2+y,-z
-x,-y,-z
1/2+x,y,1/2-z
1/2-x,1/2+y,1/2+z
x,1/2-y,z
loop_
_atom_site_type_symbol
_atom_site_label
_atom_site_fract_x
_atom_site_fract_y
_atom_site_fract_z
Si Si1 0.527478 0.853695 0.197953
Si Si2 0.863493 0.650781 0.844605
Si Si3 0.949741 0.143456 0.023195
Si Si4 0.175053 0.072147 0.654420
Si Si5 0.255773 0.150192 0.400028
Si Si6 0.715259 0.589122 0.053646
O O1 0.506929 0.750000 0.193231
O O2 0.554238 0.877925 0.358529
O O3 0.433792 0.906264 0.163913
O O4 0.615986 0.872980 0.099922
O O5 0.890190 0.750000 0.810344
O O6 0.956133 0.609200 0.907182
O O7 0.820873 0.610007 0.703383
O O8 0.783384 0.649911 0.961905
O O9 0.949052 0.250000 0.027391
O O10 0.858446 0.110892 0.103390
O O11 0.222060 0.147940 0.560336
O O12 0.225817 0.068573 0.804926
O O13 0.196260 0.989980 0.554198
O O14 0.265627 0.250000 0.352328
#
# Coordination Sequence:
#
# PCOD9466147 Si02
#       6
#     8   8   8   8   8   8
#     4  11  23  42  72 102 130 172 229 284 330 392
#     4  10  21  39  65  96 132 173 224 282 333 394
#     4   9  18  36  64  98 128 165 215 271 338 388
#     4  12  25  43  65  97 139 180 224 271 335 403
#     4  10  21  39  65  96 132 173 224 282 333 394
#     4  12  25  43  65  97 139 180 224 271 335 403
#
# _framework density 22.895475999999999
#
# number of rings (size 3 to 8) (size 9 to 14) (size 15 to 20)
#    0.000    1.333    3.333    2.500    0.000    2.667 
#    0.000   10.000    0.000    0.000    0.000    0.000 
#    0.000    0.000    0.000    0.000    0.000    0.000 
#
# Total GULP energy -268246.497933 kJ/mol
# GULP energy per Si atom -5588.468707 kJ/mol
# Density = 2.284336 g / cm^3
# Si number density = 22.895476 Si / 1000 Ang^3
#
#
#
# Elastic Constant Matrix: (Units=GPa)
#
#
# Indices 1 2 3 4 5 6 
#
# 1 118.6163 -10.2860 15.2170 0.0000 0.0000 0.0000
# 2 -10.2860 36.2633 6.5921 0.0000 0.0000 0.0000
# 3 15.2170 6.5921 98.1779 0.0000 0.0000 0.0000
# 4 0.0000 0.0000 0.0000 17.3174 0.0000 0.0000
# 5 0.0000 0.0000 0.0000 0.0000 44.5059 0.0000
# 6 0.0000 0.0000 0.0000 0.0000 0.0000 17.7926
#
#
#
# Elastic Compliance Matrix: (Units=1/GPa)
#
#
# Indices 1 2 3 4 5 6 
#
# 1 0.008874 0.002801 -0.001564 0.000000 0.000000 0.000000
# 2 0.002801 0.028801 -0.002368 0.000000 0.000000 0.000000
# 3 -0.001564 -0.002368 0.010587 0.000000 0.000000 0.000000
# 4 0.000000 0.000000 0.000000 0.057745 0.000000 0.000000
# 5 0.000000 0.000000 0.000000 0.000000 0.022469 0.000000
# 6 0.000000 0.000000 0.000000 0.000000 0.000000 0.056203
#
#
# Mechanical properties :
#
#
# Convention : Reuss Voigt Hill
#
# Bulk Modulus (GPa) = 21.73833 30.67819 26.20826
# Shear Modulus (GPa) = 24.71892 32.02545 28.37218
#
# Velocity S-wave (km/s) = 3.28936 3.74407 3.52405
# Velocity P-wave (km/s) = 4.89302 5.66737 5.29437
#
# Compressibility (1/GPa) = 0.04600169
#
# Stress axis : x y z
#
# Youngs Moduli (GPa) = 112.68816 34.72081 94.45607
#
# Poissons Ratio (x) = -0.09726 0.14768
# Poissons Ratio (y) = -0.31568 0.22367
# Poissons Ratio (z) = 0.17619 0.08222
#
# Static dielectric constant tensor:
#      x y z
#    x 1.855780 0.000000 0.000000 
#    y 0.000000 1.922720 0.000000 
#    z 0.000000 0.000000 1.817100 
# 
# From -- ./inp_files/6506.got.cif
#   From: 2010.05.17/outbox.cif.g08.bks.cpg/sg62_4_cif.got.tgz:6506.got - 2010.06.03 15:25:27.
