data_PCOD9466351
_publ_section_title
;
Structure prediction by ZEFSAII (Michael W. Deem and Ramdas Pophale) SiO2 
 PCOD9466351
Probable space group: P N M A
;
_chemical_formula_sum "Si O2"
_cell_formula_units_Z 48
_cell_length_a 10.286665
_cell_length_b 7.358782
_cell_length_c 30.633101
_cell_angle_alpha 90.000000
_cell_angle_beta 90.000000
_cell_angle_gamma 90.000000
_cell_volume 2318.843810
_symmetry_space_group_name_H-M "P N M A"
_symmetry_group_IT_number 62
_symmetry_cell_setting 'orthorhombic'
loop_
_space_group_symop_operation_xyz
x,y,z
1/2-x,-y,1/2+z
1/2+x,1/2-y,1/2-z
-x,1/2+y,-z
-x,-y,-z
1/2+x,y,1/2-z
1/2-x,1/2+y,1/2+z
x,1/2-y,z
loop_
_atom_site_type_symbol
_atom_site_label
_atom_site_fract_x
_atom_site_fract_y
_atom_site_fract_z
Si Si1 0.647915 0.534357 0.485221
Si Si2 0.547809 0.750000 0.205043
Si Si3 0.081445 0.970468 0.851825
Si Si4 0.836840 0.750000 0.220588
Si Si5 0.014433 0.529675 0.631805
Si Si6 0.216751 0.469585 0.428574
Si Si7 0.695254 0.042353 0.385524
O O1 0.500000 0.500000 0.500000
O O2 0.665521 0.750000 0.481380
O O3 0.741464 0.464519 0.523764
O O4 0.673943 0.457868 0.437496
O O5 0.683972 0.750000 0.230300
O O6 0.426755 0.750000 0.237318
O O7 0.541204 0.574545 0.173566
O O8 0.085782 0.750000 0.847264
O O9 0.174804 0.019559 0.892568
O O10 0.935075 0.032126 0.863543
O O11 0.130220 0.075325 0.809406
O O12 0.008284 0.750000 0.636457
O O13 0.162749 0.467344 0.624991
O O14 0.922982 0.479471 0.590735
O O15 0.219524 0.250000 0.430806
O O16 0.701032 0.250000 0.370261
#
# Coordination Sequence:
#
# PCOD9466351 Si02
#       7
#     8   4   8   4   8   8   8
#     4  11  21  33  55  90 129 168 215 277 310 364
#     4  12  28  46  68 102 128 158 220 266 330 398
#     4  10  21  41  66  90 126 170 211 254 316 388
#     4  12  28  44  68 102 126 164 210 274 324 394
#     4  10  23  45  68  89 130 175 208 263 324 390
#     4   9  18  37  60  84 124 170 214 252 309 375
#     4  10  22  39  61  94 127 170 218 261 320 377
#
# _framework density 20.699971999999999
#
# number of rings (size 3 to 8) (size 9 to 14) (size 15 to 20)
#    0.000    1.667    3.333    0.500    4.667    1.333 
#    4.500    0.000    0.000    0.000    0.000    0.000 
#    0.000    0.000    0.000    0.000    0.000    0.000 
#
# Total GULP energy -268149.632401 kJ/mol
# GULP energy per Si atom -5586.450675 kJ/mol
# Density = 2.065286 g / cm^3
# Si number density = 20.699972 Si / 1000 Ang^3
#
#
#
# Elastic Constant Matrix: (Units=GPa)
#
#
# Indices 1 2 3 4 5 6 
#
# 1 136.9825 5.6615 5.5372 0.0000 0.0000 0.0000
# 2 5.6615 84.4379 -1.8079 0.0000 0.0000 0.0000
# 3 5.5372 -1.8079 39.5192 0.0000 0.0000 0.0000
# 4 0.0000 0.0000 0.0000 20.5383 0.0000 0.0000
# 5 0.0000 0.0000 0.0000 0.0000 41.5175 0.0000
# 6 0.0000 0.0000 0.0000 0.0000 0.0000 1.6200
#
#
#
# Elastic Compliance Matrix: (Units=1/GPa)
#
#
# Indices 1 2 3 4 5 6 
#
# 1 0.007364 -0.000516 -0.001055 0.000000 0.000000 0.000000
# 2 -0.000516 0.011891 0.000616 0.000000 0.000000 0.000000
# 3 -0.001055 0.000616 0.025480 0.000000 0.000000 0.000000
# 4 0.000000 0.000000 0.000000 0.048690 0.000000 0.000000
# 5 0.000000 0.000000 0.000000 0.000000 0.024086 0.000000
# 6 0.000000 0.000000 0.000000 0.000000 0.000000 0.617269
#
#
# Mechanical properties :
#
#
# Convention : Reuss Voigt Hill
#
# Bulk Modulus (GPa) = 23.35126 31.08015 27.21570
# Shear Modulus (GPa) = 6.65809 29.50508 18.08159
#
# Velocity S-wave (km/s) = 1.79540 3.77950 2.95872
# Velocity P-wave (km/s) = 3.95009 5.83895 4.98481
#
# Compressibility (1/GPa) = 0.04282425
#
# Stress axis : x y z
#
# Youngs Moduli (GPa) = 135.79192 84.09835 39.24615
#
# Poissons Ratio (x) = 0.04342 0.04142
# Poissons Ratio (y) = 0.07012 -0.02419
# Poissons Ratio (z) = 0.14332 -0.05183
#
# Static dielectric constant tensor:
#      x y z
#    x 1.749370 0.000000 0.000000 
#    y 0.000000 1.748520 0.000000 
#    z 0.000000 0.000000 1.663560 
# 
# From -- ./inp_files/32060.got.cif
#   From: 2010.05.17/outbox.cif.g08.bks.cpg/sg62_17_cif.got.tgz:32060.got - 2010.06.03 15:25:27.
