data_PCOD9466622
_publ_section_title
;
Structure prediction by ZEFSAII (Michael W. Deem and Ramdas Pophale) SiO2 
 PCOD9466622
Probable space group: P N M A
;
_chemical_formula_sum "Si O2"
_cell_formula_units_Z 64
_cell_length_a 9.429093
_cell_length_b 23.707907
_cell_length_c 14.559820
_cell_angle_alpha 90.000000
_cell_angle_beta 90.000000
_cell_angle_gamma 90.000000
_cell_volume 3254.761275
_symmetry_space_group_name_H-M "P N M A"
_symmetry_group_IT_number 62
_symmetry_cell_setting 'orthorhombic'
loop_
_space_group_symop_operation_xyz
x,y,z
1/2-x,-y,1/2+z
1/2+x,1/2-y,1/2-z
-x,1/2+y,-z
-x,-y,-z
1/2+x,y,1/2-z
1/2-x,1/2+y,1/2+z
x,1/2-y,z
loop_
_atom_site_type_symbol
_atom_site_label
_atom_site_fract_x
_atom_site_fract_y
_atom_site_fract_z
Si Si1 0.004032 0.687142 0.153899
Si Si2 0.973134 0.425707 0.264057
Si Si3 0.669787 0.006375 0.492648
Si Si4 0.226286 0.992743 0.310040
Si Si5 0.960517 0.685001 0.365191
Si Si6 0.710610 0.111467 0.367206
Si Si7 0.718268 0.592078 0.365014
Si Si8 0.763309 0.184568 0.537414
O O1 0.050143 0.750000 0.119450
O O2 0.023573 0.687977 0.262840
O O3 0.841089 0.681232 0.124310
O O4 0.079891 0.630657 0.121040
O O5 0.859440 0.465611 0.211301
O O6 0.867273 0.386850 0.323127
O O7 0.082622 0.469763 0.311412
O O8 0.078926 0.387912 0.202655
O O9 0.732202 0.948126 0.453377
O O10 0.500000 0.000000 0.500000
O O11 0.738226 0.027864 0.587412
O O12 0.700788 0.049999 0.412271
O O13 0.214828 0.945980 0.228613
O O14 0.916624 0.750000 0.387252
O O15 0.839358 0.638862 0.360627
O O16 0.081776 0.664317 0.434049
O O17 0.697523 0.154071 0.450643
O O18 0.778884 0.250000 0.515148
#
# Coordination Sequence:
#
# PCOD9466622 Si02
#       8
#     8   8   8   8   8   8   8   8
#     4  10  22  40  61  90 128 169 206 249 308 375
#     4  10  22  44  60  85 125 162 203 268 315 377
#     4  12  24  38  60  91 127 166 213 258 316 385
#     4  11  24  40  58  89 130 160 214 256 311 376
#     4  10  23  40  60  94 130 163 206 256 307 371
#     4  11  23  41  66  86 122 165 211 265 328 369
#     4  12  24  37  64  92 126 172 209 255 309 382
#     4  10  23  43  66  93 125 163 213 264 316 381
#
# _framework density 19.663499999999999
#
# number of rings (size 3 to 8) (size 9 to 14) (size 15 to 20)
#    0.000    1.250    3.750    1.875    8.750    2.500 
#    0.000    0.625    0.000    0.000    0.000    0.000 
#    0.000    0.000    0.000    0.000    0.000    0.000 
#
# Total GULP energy -357049.467567 kJ/mol
# GULP energy per Si atom -5578.897931 kJ/mol
# Density = 1.961875 g / cm^3
# Si number density = 19.663500 Si / 1000 Ang^3
#
#
#
# Elastic Constant Matrix: (Units=GPa)
#
#
# Indices 1 2 3 4 5 6 
#
# 1 76.8533 10.5769 22.1555 0.0000 0.0000 0.0000
# 2 10.5769 47.1949 11.3079 0.0000 0.0000 0.0000
# 3 22.1555 11.3079 65.1637 0.0000 0.0000 0.0000
# 4 0.0000 0.0000 0.0000 66.2440 0.0000 0.0000
# 5 0.0000 0.0000 0.0000 0.0000 26.8489 0.0000
# 6 0.0000 0.0000 0.0000 0.0000 0.0000 21.9444
#
#
#
# Elastic Compliance Matrix: (Units=1/GPa)
#
#
# Indices 1 2 3 4 5 6 
#
# 1 0.014637 -0.002179 -0.004599 0.000000 0.000000 0.000000
# 2 -0.002179 0.022432 -0.003152 0.000000 0.000000 0.000000
# 3 -0.004599 -0.003152 0.017456 0.000000 0.000000 0.000000
# 4 0.000000 0.000000 0.000000 0.015096 0.000000 0.000000
# 5 0.000000 0.000000 0.000000 0.000000 0.037245 0.000000
# 6 0.000000 0.000000 0.000000 0.000000 0.000000 0.045570
#
#
# Mechanical properties :
#
#
# Convention : Reuss Voigt Hill
#
# Bulk Modulus (GPa) = 28.84531 30.81028 29.82779
# Shear Modulus (GPa) = 27.19595 32.68558 29.94076
#
# Velocity S-wave (km/s) = 3.72300 4.08149 3.90636
# Velocity P-wave (km/s) = 5.76040 6.15745 5.96223
#
# Compressibility (1/GPa) = 0.03466769
#
# Stress axis : x y z
#
# Youngs Moduli (GPa) = 68.31848 44.57885 57.28545
#
# Poissons Ratio (x) = 0.09712 0.26343
# Poissons Ratio (y) = 0.14884 0.18056
# Poissons Ratio (z) = 0.31417 0.14051
#
# Static dielectric constant tensor:
#      x y z
#    x 1.744720 0.000000 0.000000 
#    y 0.000000 1.702710 0.000000 
#    z 0.000000 0.000000 1.725120 
# 
# From -- ./inp_files/17357.got.cif
#   From: 2010.05.17/outbox.cif.g08.bks.cpg/sg62_9_cif.got.tgz:17357.got - 2010.06.03 15:25:27.
