data_PCOD9466890
_publ_section_title
;
Structure prediction by ZEFSAII (Michael W. Deem and Ramdas Pophale) SiO2 
 PCOD9466890
Probable space group: P N M A
;
_chemical_formula_sum "Si O2"
_cell_formula_units_Z 40
_cell_length_a 9.255026
_cell_length_b 25.036020
_cell_length_c 7.059548
_cell_angle_alpha 90.000000
_cell_angle_beta 90.000000
_cell_angle_gamma 90.000000
_cell_volume 1635.760921
_symmetry_space_group_name_H-M "P N M A"
_symmetry_group_IT_number 62
_symmetry_cell_setting 'orthorhombic'
loop_
_space_group_symop_operation_xyz
x,y,z
1/2-x,-y,1/2+z
1/2+x,1/2-y,1/2-z
-x,1/2+y,-z
-x,-y,-z
1/2+x,y,1/2-z
1/2-x,1/2+y,1/2+z
x,1/2-y,z
loop_
_atom_site_type_symbol
_atom_site_label
_atom_site_fract_x
_atom_site_fract_y
_atom_site_fract_z
Si Si1 0.171505 0.086878 0.722019
Si Si2 0.557935 0.312781 0.259724
Si Si3 0.593332 0.975661 0.825026
Si Si4 0.573298 0.904117 0.497355
Si Si5 0.174871 0.859718 0.543148
O O1 0.254208 0.092731 0.523683
O O2 0.006414 0.089451 0.794914
O O3 0.195992 0.022955 0.748731
O O4 0.246581 0.134099 0.842886
O O5 0.535872 0.250000 0.270223
O O6 0.472829 0.348173 0.414498
O O7 0.721784 0.326554 0.316266
O O8 0.484942 0.335006 0.065490
O O9 0.516096 0.950109 0.639788
O O10 0.668320 0.921799 0.897981
O O11 0.500000 0.000000 0.000000
#
# Coordination Sequence:
#
# PCOD9466890 Si02
#       5
#     8   8   8   8   8
#     4  11  22  39  61  96 139 175 212 275 337 410
#     4  10  22  44  66  91 130 178 231 292 343 398
#     4  11  23  40  65  98 140 184 221 270 339 417
#     4  10  24  40  63  98 133 175 227 271 335 413
#     4  10  23  39  65  99 128 174 232 274 334 414
#
# _framework density 24.453451999999999
#
# number of rings (size 3 to 8) (size 9 to 14) (size 15 to 20)
#    0.000    1.600    0.000    3.600    0.000   20.800 
#    0.000    5.000    0.000    0.000    0.000    1.400 
#    0.000    0.000    0.000    0.000    0.000    0.000 
#
# Total GULP energy -222831.102355 kJ/mol
# GULP energy per Si atom -5570.777559 kJ/mol
# Density = 2.439779 g / cm^3
# Si number density = 24.453452 Si / 1000 Ang^3
#
#
#
# Elastic Constant Matrix: (Units=GPa)
#
#
# Indices 1 2 3 4 5 6 
#
# 1 96.6614 23.5450 30.0504 0.0000 0.0000 0.0000
# 2 23.5450 145.3286 33.9531 0.0000 0.0000 0.0000
# 3 30.0504 33.9531 94.1628 0.0000 0.0000 0.0000
# 4 0.0000 0.0000 0.0000 17.0660 0.0000 0.0000
# 5 0.0000 0.0000 0.0000 0.0000 48.6611 0.0000
# 6 0.0000 0.0000 0.0000 0.0000 0.0000 43.0939
#
#
#
# Elastic Compliance Matrix: (Units=1/GPa)
#
#
# Indices 1 2 3 4 5 6 
#
# 1 0.011647 -0.001112 -0.003316 0.000000 0.000000 0.000000
# 2 -0.001112 0.007620 -0.002393 0.000000 0.000000 0.000000
# 3 -0.003316 -0.002393 0.012541 0.000000 0.000000 0.000000
# 4 0.000000 0.000000 0.000000 0.058596 0.000000 0.000000
# 5 0.000000 0.000000 0.000000 0.000000 0.020550 0.000000
# 6 0.000000 0.000000 0.000000 0.000000 0.000000 0.023205
#
#
# Mechanical properties :
#
#
# Convention : Reuss Voigt Hill
#
# Bulk Modulus (GPa) = 55.04667 56.80554 55.92610
# Shear Modulus (GPa) = 32.49767 38.33780 35.41774
#
# Velocity S-wave (km/s) = 3.64945 3.96382 3.80988
# Velocity P-wave (km/s) = 6.34961 6.65054 6.50182
#
# Compressibility (1/GPa) = 0.01816640
#
# Stress axis : x y z
#
# Youngs Moduli (GPa) = 85.85760 131.23064 79.73916
#
# Poissons Ratio (x) = 0.14597 0.26441
# Poissons Ratio (y) = 0.09550 0.19079
# Poissons Ratio (z) = 0.28470 0.31400
#
# Static dielectric constant tensor:
#      x y z
#    x 2.055950 0.000000 0.000000 
#    y 0.000000 1.854220 0.000000 
#    z 0.000000 0.000000 2.171820 
# 
# From -- ./inp_files/4295.got.cif
#   From: 2010.05.17/outbox.cif.g08.bks.cpg/sg62_3_cif.got.tgz:4295.got - 2010.06.03 15:25:27.
