data_PCOD9466735
_publ_section_title
;
Structure prediction by ZEFSAII (Michael W. Deem and Ramdas Pophale) SiO2 
 PCOD9466735
Probable space group: P N M A
;
_chemical_formula_sum "Si O2"
_cell_formula_units_Z 60
_cell_length_a 10.443205
_cell_length_b 21.448060
_cell_length_c 12.582789
_cell_angle_alpha 90.000000
_cell_angle_beta 90.000000
_cell_angle_gamma 90.000000
_cell_volume 2818.374710
_symmetry_space_group_name_H-M "P N M A"
_symmetry_group_IT_number 62
_symmetry_cell_setting 'orthorhombic'
loop_
_space_group_symop_operation_xyz
x,y,z
1/2-x,-y,1/2+z
1/2+x,1/2-y,1/2-z
-x,1/2+y,-z
-x,-y,-z
1/2+x,y,1/2-z
1/2-x,1/2+y,1/2+z
x,1/2-y,z
loop_
_atom_site_type_symbol
_atom_site_label
_atom_site_fract_x
_atom_site_fract_y
_atom_site_fract_z
Si Si1 0.964037 0.497841 0.172753
Si Si2 0.037777 0.882174 0.303188
Si Si3 0.727410 0.357974 0.432836
Si Si4 0.793151 0.509462 0.982653
Si Si5 0.969081 0.872244 0.739682
Si Si6 0.434604 0.931209 0.990015
Si Si7 0.400586 0.250000 0.153345
Si Si8 0.814922 0.676315 0.165892
O O1 0.083316 0.494421 0.091785
O O2 0.943005 0.428356 0.215931
O O3 0.008182 0.548004 0.259383
O O4 0.841263 0.517185 0.103815
O O5 0.996971 0.884507 0.425961
O O6 0.937856 0.840600 0.236909
O O7 0.184743 0.859511 0.297297
O O8 0.779732 0.427992 0.447627
O O9 0.640672 0.361415 0.327571
O O10 0.829202 0.304518 0.416505
O O11 0.656046 0.343050 0.543469
O O12 0.709311 0.448225 0.973200
O O13 0.925767 0.900563 0.626213
O O14 0.033055 0.805772 0.723522
O O15 0.500000 0.000000 0.000000
O O16 0.790016 0.750000 0.170682
#
# Coordination Sequence:
#
# PCOD9466735 Si02
#       8
#     8   8   8   8   8   8   4   8
#     4  10  22  41  70 101 137 182 239 300 366 437
#     4  12  25  45  73 108 145 192 244 304 371 445
#     4  11  24  44  73  97 138 193 240 301 374 446
#     4  10  22  41  65 103 139 177 234 301 369 432
#     4  11  26  43  67 104 141 187 244 302 368 451
#     4  12  24  40  67 105 144 181 232 299 372 432
#     4  12  24  44  66  96 140 186 242 286 362 446
#     4  12  26  48  75 102 144 195 250 306 371 448
#
# _framework density 21.288865999999999
#
# number of rings (size 3 to 8) (size 9 to 14) (size 15 to 20)
#    0.000    0.800    3.333    4.000    1.867    1.067 
#    1.200    0.000    2.933    0.000    0.000    0.000 
#    0.000    0.000    0.000    0.000    0.000    0.000 
#
# Total GULP energy -334200.729950 kJ/mol
# GULP energy per Si atom -5570.012166 kJ/mol
# Density = 2.124041 g / cm^3
# Si number density = 21.288866 Si / 1000 Ang^3
#
#
#
# Elastic Constant Matrix: (Units=GPa)
#
#
# Indices 1 2 3 4 5 6 
#
# 1 57.4914 31.2399 42.8550 0.0000 0.0000 0.0000
# 2 31.2399 151.8145 38.4066 0.0000 0.0000 0.0000
# 3 42.8550 38.4066 133.6046 0.0000 0.0000 0.0000
# 4 0.0000 0.0000 0.0000 37.0546 0.0000 0.0000
# 5 0.0000 0.0000 0.0000 0.0000 29.3332 0.0000
# 6 0.0000 0.0000 0.0000 0.0000 0.0000 26.4083
#
#
#
# Elastic Compliance Matrix: (Units=1/GPa)
#
#
# Indices 1 2 3 4 5 6 
#
# 1 0.024271 -0.003262 -0.006847 0.000000 0.000000 0.000000
# 2 -0.003262 0.007542 -0.001122 0.000000 0.000000 0.000000
# 3 -0.006847 -0.001122 0.010004 0.000000 0.000000 0.000000
# 4 0.000000 0.000000 0.000000 0.026987 0.000000 0.000000
# 5 0.000000 0.000000 0.000000 0.000000 0.034091 0.000000
# 6 0.000000 0.000000 0.000000 0.000000 0.000000 0.037867
#
#
# Mechanical properties :
#
#
# Convention : Reuss Voigt Hill
#
# Bulk Modulus (GPa) = 51.66898 63.10152 57.38525
# Shear Modulus (GPa) = 29.46814 33.91983 31.69398
#
# Velocity S-wave (km/s) = 3.72453 3.99596 3.86263
# Velocity P-wave (km/s) = 6.54364 7.14110 6.84889
#
# Compressibility (1/GPa) = 0.01935397
#
# Stress axis : x y z
#
# Youngs Moduli (GPa) = 41.20217 132.59040 99.96436
#
# Poissons Ratio (x) = 0.43252 0.68449
# Poissons Ratio (y) = 0.13440 0.11213
# Poissons Ratio (z) = 0.28212 0.14873
#
# Static dielectric constant tensor:
#      x y z
#    x 1.817100 0.000000 0.000000 
#    y 0.000000 1.751160 0.000000 
#    z 0.000000 0.000000 1.824060 
# 
# From -- ./inp_files/12456.got.cif
#   From: 2010.05.17/outbox.cif.g08.bks.cpg/sg62_7_cif.got.tgz:12456.got - 2010.06.03 15:25:27.
