data_PCOD9466631
_publ_section_title
;
Structure prediction by ZEFSAII (Michael W. Deem and Ramdas Pophale) SiO2 
 PCOD9466631
Probable space group: P N M A
;
_chemical_formula_sum "Si O2"
_cell_formula_units_Z 64
_cell_length_a 14.279555
_cell_length_b 23.829993
_cell_length_c 7.789076
_cell_angle_alpha 90.000000
_cell_angle_beta 90.000000
_cell_angle_gamma 90.000000
_cell_volume 2650.479989
_symmetry_space_group_name_H-M "P N M A"
_symmetry_group_IT_number 62
_symmetry_cell_setting 'orthorhombic'
loop_
_space_group_symop_operation_xyz
x,y,z
1/2-x,-y,1/2+z
1/2+x,1/2-y,1/2-z
-x,1/2+y,-z
-x,-y,-z
1/2+x,y,1/2-z
1/2-x,1/2+y,1/2+z
x,1/2-y,z
loop_
_atom_site_type_symbol
_atom_site_label
_atom_site_fract_x
_atom_site_fract_y
_atom_site_fract_z
Si Si1 0.359196 0.893423 0.056706
Si Si2 0.455701 0.604685 0.685520
Si Si3 0.811154 0.686845 0.975521
Si Si4 0.642830 0.876538 0.853583
Si Si5 0.788105 0.188570 0.849766
Si Si6 0.103829 0.983850 0.126238
Si Si7 0.701191 0.502703 0.741412
Si Si8 0.458568 0.131115 0.777362
O O1 0.259759 0.862484 0.050881
O O2 0.434680 0.858938 0.170365
O O3 0.347562 0.953286 0.149441
O O4 0.401839 0.895283 0.868069
O O5 0.392416 0.641347 0.557661
O O6 0.558707 0.629256 0.718001
O O7 0.460472 0.538651 0.643536
O O8 0.844354 0.750000 0.940689
O O9 0.723667 0.669667 0.854498
O O10 0.764324 0.685670 0.164285
O O11 0.689650 0.936995 0.828420
O O12 0.593681 0.876852 0.039993
O O13 0.770837 0.250000 0.924146
O O14 0.897613 0.177826 0.817963
O O15 0.052446 0.926113 0.169530
O O16 0.189224 0.987901 0.262892
O O17 0.157454 0.990575 0.946229
#
# Coordination Sequence:
#
# PCOD9466631 Si02
#       8
#     8   8   8   8   8   8   8   8
#     4  11  23  39  62  92 123 158 201 247 298 358
#     4  11  23  39  62  92 123 158 201 247 298 358
#     4  10  22  41  63  86 117 161 207 251 299 350
#     4  10  22  40  62  89 123 160 200 244 298 361
#     4  10  22  41  63  86 117 161 207 251 299 350
#     4  12  23  37  61  91 124 159 197 243 302 362
#     4  12  23  37  61  91 124 159 197 243 302 362
#     4  10  22  40  62  89 123 160 200 244 298 361
#
# _framework density 24.146569
#
# number of rings (size 3 to 8) (size 9 to 14) (size 15 to 20)
#    0.000    1.250    2.500    3.750    0.000    6.500 
#    0.000    2.500    0.000    0.000    0.000    0.000 
#    0.000    0.000    0.000    0.000    0.000    0.000 
#
# Total GULP energy -358543.583961 kJ/mol
# GULP energy per Si atom -5602.243499 kJ/mol
# Density = 2.409161 g / cm^3
# Si number density = 24.146569 Si / 1000 Ang^3
#
#
#
# Elastic Constant Matrix: (Units=GPa)
#
#
# Indices 1 2 3 4 5 6 
#
# 1 78.8599 4.0499 -5.1950 0.0000 0.0000 0.0000
# 2 4.0499 92.8923 6.8239 0.0000 0.0000 0.0000
# 3 -5.1950 6.8239 80.0941 0.0000 0.0000 0.0000
# 4 0.0000 0.0000 0.0000 19.6979 0.0000 0.0000
# 5 0.0000 0.0000 0.0000 0.0000 34.7638 0.0000
# 6 0.0000 0.0000 0.0000 0.0000 0.0000 24.9317
#
#
#
# Elastic Compliance Matrix: (Units=1/GPa)
#
#
# Indices 1 2 3 4 5 6 
#
# 1 0.012771 -0.000622 0.000881 0.000000 0.000000 0.000000
# 2 -0.000622 0.010863 -0.000966 0.000000 0.000000 0.000000
# 3 0.000881 -0.000966 0.012625 0.000000 0.000000 0.000000
# 4 0.000000 0.000000 0.000000 0.050767 0.000000 0.000000
# 5 0.000000 0.000000 0.000000 0.000000 0.028766 0.000000
# 6 0.000000 0.000000 0.000000 0.000000 0.000000 0.040110
#
#
# Mechanical properties :
#
#
# Convention : Reuss Voigt Hill
#
# Bulk Modulus (GPa) = 28.69729 29.24489 28.97109
# Shear Modulus (GPa) = 29.59837 32.28985 30.94411
#
# Velocity S-wave (km/s) = 3.50491 3.66080 3.58370
# Velocity P-wave (km/s) = 5.31880 5.47780 5.39889
#
# Compressibility (1/GPa) = 0.03484649
#
# Stress axis : x y z
#
# Youngs Moduli (GPa) = 78.30428 92.05391 79.20944
#
# Poissons Ratio (x) = 0.05721 -0.06981
# Poissons Ratio (y) = 0.04867 0.07650
# Poissons Ratio (z) = -0.06901 0.08891
#
# Static dielectric constant tensor:
#      x y z
#    x 1.930280 0.000000 0.000000 
#    y 0.000000 1.867340 0.000000 
#    z 0.000000 0.000000 1.970690 
# 
# From -- ./inp_files/6937.got.cif
#   From: 2010.05.17/outbox.cif.g08.bks.cpg/sg62_4_cif.got.tgz:6937.got - 2010.06.03 15:25:27.
