data_PCOD9466544
_publ_section_title
;
Structure prediction by ZEFSAII (Michael W. Deem and Ramdas Pophale) SiO2 
 PCOD9466544
Probable space group: P N M A
;
_chemical_formula_sum "Si O2"
_cell_formula_units_Z 48
_cell_length_a 20.449411
_cell_length_b 8.903612
_cell_length_c 14.563023
_cell_angle_alpha 90.000000
_cell_angle_beta 90.000000
_cell_angle_gamma 90.000000
_cell_volume 2651.542333
_symmetry_space_group_name_H-M "P N M A"
_symmetry_group_IT_number 62
_symmetry_cell_setting 'orthorhombic'
loop_
_space_group_symop_operation_xyz
x,y,z
1/2-x,-y,1/2+z
1/2+x,1/2-y,1/2-z
-x,1/2+y,-z
-x,-y,-z
1/2+x,y,1/2-z
1/2-x,1/2+y,1/2+z
x,1/2-y,z
loop_
_atom_site_type_symbol
_atom_site_label
_atom_site_fract_x
_atom_site_fract_y
_atom_site_fract_z
Si Si1 0.270079 0.429521 0.025942
Si Si2 0.331445 0.570637 0.852653
Si Si3 0.433727 0.430146 0.719018
Si Si4 0.799294 0.070440 0.262492
Si Si5 0.577696 0.429543 0.660525
Si Si6 0.873133 0.070296 0.979582
O O1 0.264417 0.250000 0.016721
O O2 0.319395 0.494155 0.950567
O O3 0.199336 0.503483 0.009329
O O4 0.291454 0.464135 0.129984
O O5 0.333644 0.750000 0.862310
O O6 0.394755 0.511505 0.799507
O O7 0.267956 0.532017 0.790059
O O8 0.428562 0.250000 0.731200
O O9 0.509864 0.470554 0.709924
O O10 0.400172 0.467717 0.621221
O O11 0.809017 0.250000 0.252374
O O12 0.859898 0.986147 0.217145
O O13 0.579405 0.250000 0.650682
O O14 0.582495 0.502884 0.560033
O O15 0.870755 0.250000 0.988487
#
# Coordination Sequence:
#
# PCOD9466544 Si02
#       6
#     8   8   8   8   8   8
#     4  11  22  38  60  87 118 151 193 241 289 344
#     4  11  22  38  61  89 118 151 196 242 290 345
#     4  10  23  40  58  86 121 158 198 239 289 349
#     4  10  22  39  59  86 118 152 195 243 288 345
#     4  11  23  38  59  87 120 158 197 238 292 350
#     4  11  21  35  58  87 121 154 190 239 291 347
#
# _framework density 18.102671999999998
#
# number of rings (size 3 to 8) (size 9 to 14) (size 15 to 20)
#    0.000    1.333    3.333    2.500    0.000    4.000 
#    0.000    0.833    0.000    0.000    0.000    0.000 
#    0.000    0.000    0.000    0.000    0.000    0.000 
#
# Total GULP energy -268333.959361 kJ/mol
# GULP energy per Si atom -5590.290820 kJ/mol
# Density = 1.806147 g / cm^3
# Si number density = 18.102672 Si / 1000 Ang^3
#
#
#
# Elastic Constant Matrix: (Units=GPa)
#
#
# Indices 1 2 3 4 5 6 
#
# 1 41.0243 8.6986 -11.8408 0.0000 0.0000 0.0000
# 2 8.6986 30.8577 20.6328 0.0000 0.0000 0.0000
# 3 -11.8408 20.6328 63.8053 0.0000 0.0000 0.0000
# 4 0.0000 0.0000 0.0000 29.8077 0.0000 0.0000
# 5 0.0000 0.0000 0.0000 0.0000 26.9011 0.0000
# 6 0.0000 0.0000 0.0000 0.0000 0.0000 26.6812
#
#
#
# Elastic Compliance Matrix: (Units=1/GPa)
#
#
# Indices 1 2 3 4 5 6 
#
# 1 0.030923 -0.016018 0.010918 0.000000 0.000000 0.000000
# 2 -0.016018 0.049644 -0.019026 0.000000 0.000000 0.000000
# 3 0.010918 -0.019026 0.023851 0.000000 0.000000 0.000000
# 4 0.000000 0.000000 0.000000 0.033548 0.000000 0.000000
# 5 0.000000 0.000000 0.000000 0.000000 0.037173 0.000000
# 6 0.000000 0.000000 0.000000 0.000000 0.000000 0.037480
#
#
# Mechanical properties :
#
#
# Convention : Reuss Voigt Hill
#
# Bulk Modulus (GPa) = 17.80373 18.96320 18.38346
# Shear Modulus (GPa) = 17.88318 24.55778 21.22048
#
# Velocity S-wave (km/s) = 3.14646 3.68718 3.42750
# Velocity P-wave (km/s) = 4.80172 5.35025 5.08339
#
# Compressibility (1/GPa) = 0.05616802
#
# Stress axis : x y z
#
# Youngs Moduli (GPa) = 32.33794 20.14360 41.92652
#
# Poissons Ratio (x) = 0.32265 -0.45777
# Poissons Ratio (y) = 0.51798 0.79769
# Poissons Ratio (z) = -0.35307 0.38325
#
# Static dielectric constant tensor:
#      x y z
#    x 1.599320 0.000000 0.000000 
#    y 0.000000 1.602010 0.000000 
#    z 0.000000 0.000000 1.606610 
# 
# From -- ./inp_files/19521.got.cif
#   From: 2010.05.17/outbox.cif.g08.bks.cpg/sg62_10_cif.got.tgz:19521.got - 2010.06.03 15:25:27.
