data_PCOD9466975
_publ_section_title
;
Structure prediction by ZEFSAII (Michael W. Deem and Ramdas Pophale) SiO2 
 PCOD9466975
Probable space group: P N M A
;
_chemical_formula_sum "Si O2"
_cell_formula_units_Z 48
_cell_length_a 9.110520
_cell_length_b 8.690054
_cell_length_c 31.540794
_cell_angle_alpha 90.000000
_cell_angle_beta 90.000000
_cell_angle_gamma 90.000000
_cell_volume 2497.113387
_symmetry_space_group_name_H-M "P N M A"
_symmetry_group_IT_number 62
_symmetry_cell_setting 'orthorhombic'
loop_
_space_group_symop_operation_xyz
x,y,z
1/2-x,-y,1/2+z
1/2+x,1/2-y,1/2-z
-x,1/2+y,-z
-x,-y,-z
1/2+x,y,1/2-z
1/2-x,1/2+y,1/2+z
x,1/2-y,z
loop_
_atom_site_type_symbol
_atom_site_label
_atom_site_fract_x
_atom_site_fract_y
_atom_site_fract_z
Si Si1 0.914227 0.435237 0.210814
Si Si2 0.423140 0.064789 0.125830
Si Si3 0.414287 0.434068 0.791737
Si Si4 0.579648 0.433913 0.541330
Si Si5 0.077140 0.564664 0.458048
Si Si6 0.920261 0.564994 0.876168
O O1 0.913508 0.250000 0.214675
O O2 0.748976 0.496781 0.209137
O O3 0.998149 0.506346 0.250763
O O4 0.998328 0.477099 0.167422
O O5 0.434215 0.250000 0.127778
O O6 0.251056 0.022430 0.125701
O O7 0.503091 0.993063 0.166366
O O8 0.498857 0.004001 0.083229
O O9 0.407574 0.250000 0.791715
O O10 0.500000 0.500000 0.500000
O O11 0.572793 0.250000 0.539698
O O12 0.751000 0.478954 0.541922
O O13 0.499569 0.491823 0.583560
O O14 0.066771 0.750000 0.457444
O O15 0.000000 0.500000 0.500000
O O16 0.928080 0.750000 0.880465
#
# Coordination Sequence:
#
# PCOD9466975 Si02
#       6
#     8   8   8   8   8   8
#     4  11  23  42  66  91 123 166 209 252 306 371
#     4  11  23  41  64  91 123 162 206 253 305 368
#     4  12  25  41  63  94 128 162 205 259 311 365
#     4  11  24  40  61  88 121 157 199 248 301 361
#     4  11  24  41  61  90 123 159 203 253 307 367
#     4  10  23  41  63  90 120 156 203 251 299 358
#
# _framework density 19.222196
#
# number of rings (size 3 to 8) (size 9 to 14) (size 15 to 20)
#    0.000    1.000    0.000    6.500    0.000   13.333 
#    0.000    0.000    0.000    0.000    0.000    0.000 
#    0.000    0.000    0.000    0.000    0.000    0.000 
#
# Total GULP energy -268704.802483 kJ/mol
# GULP energy per Si atom -5598.016718 kJ/mol
# Density = 1.917845 g / cm^3
# Si number density = 19.222196 Si / 1000 Ang^3
#
#
#
# Elastic Constant Matrix: (Units=GPa)
#
#
# Indices 1 2 3 4 5 6 
#
# 1 212.0861 65.1663 122.2878 0.0000 0.0000 0.0000
# 2 65.1663 70.5998 63.2236 0.0000 0.0000 0.0000
# 3 122.2878 63.2236 214.6175 0.0000 0.0000 0.0000
# 4 0.0000 0.0000 0.0000 42.2391 0.0000 0.0000
# 5 0.0000 0.0000 0.0000 0.0000 46.4544 0.0000
# 6 0.0000 0.0000 0.0000 0.0000 0.0000 32.9744
#
#
#
# Elastic Compliance Matrix: (Units=1/GPa)
#
#
# Indices 1 2 3 4 5 6 
#
# 1 0.007932 -0.004448 -0.003210 0.000000 0.000000 0.000000
# 2 -0.004448 0.021734 -0.003868 0.000000 0.000000 0.000000
# 3 -0.003210 -0.003868 0.007628 0.000000 0.000000 0.000000
# 4 0.000000 0.000000 0.000000 0.023675 0.000000 0.000000
# 5 0.000000 0.000000 0.000000 0.000000 0.021526 0.000000
# 6 0.000000 0.000000 0.000000 0.000000 0.000000 0.030327
#
#
# Mechanical properties :
#
#
# Convention : Reuss Voigt Hill
#
# Bulk Modulus (GPa) = 70.21004 110.96210 90.58607
# Shear Modulus (GPa) = 35.55681 40.77530 38.16606
#
# Velocity S-wave (km/s) = 4.30557 4.61071 4.46075
# Velocity P-wave (km/s) = 7.83084 9.28419 8.58831
#
# Compressibility (1/GPa) = 0.01424298
#
# Stress axis : x y z
#
# Youngs Moduli (GPa) = 126.06770 46.01140 131.09953
#
# Poissons Ratio (x) = 0.20464 0.42077
# Poissons Ratio (y) = 0.56069 0.50713
# Poissons Ratio (z) = 0.40462 0.17799
#
# Static dielectric constant tensor:
#      x y z
#    x 1.641900 0.000000 0.000000 
#    y 0.000000 1.647230 0.000000 
#    z 0.000000 0.000000 1.621910 
# 
# From -- ./inp_files/32047.got.cif
#   From: 2010.05.17/outbox.cif.g08.bks.cpg/sg62_17_cif.got.tgz:32047.got - 2010.06.03 15:25:27.
