data_PCOD9466106
_publ_section_title
;
Structure prediction by ZEFSAII (Michael W. Deem and Ramdas Pophale) SiO2 
 PCOD9466106
Probable space group: P N M A
;
_chemical_formula_sum "Si O2"
_cell_formula_units_Z 48
_cell_length_a 9.132904
_cell_length_b 28.108939
_cell_length_c 9.444284
_cell_angle_alpha 90.000000
_cell_angle_beta 90.000000
_cell_angle_gamma 90.000000
_cell_volume 2424.501091
_symmetry_space_group_name_H-M "P N M A"
_symmetry_group_IT_number 62
_symmetry_cell_setting 'orthorhombic'
loop_
_space_group_symop_operation_xyz
x,y,z
1/2-x,-y,1/2+z
1/2+x,1/2-y,1/2-z
-x,1/2+y,-z
-x,-y,-z
1/2+x,y,1/2-z
1/2-x,1/2+y,1/2+z
x,1/2-y,z
loop_
_atom_site_type_symbol
_atom_site_label
_atom_site_fract_x
_atom_site_fract_y
_atom_site_fract_z
Si Si1 0.092224 0.497917 0.355159
Si Si2 0.908940 0.856501 0.382991
Si Si3 0.883344 0.943773 0.171528
Si Si4 0.991668 0.628604 0.940524
Si Si5 0.609746 0.694029 0.321413
Si Si6 0.313753 0.610601 0.822910
O O1 0.226312 0.534724 0.364554
O O2 0.152892 0.445556 0.324663
O O3 0.000000 0.500000 0.500000
O O4 0.988137 0.514850 0.228188
O O5 0.872876 0.905317 0.299141
O O6 0.776776 0.820337 0.350594
O O7 0.907966 0.867364 0.548311
O O8 0.054124 0.834252 0.316607
O O9 0.954229 0.915958 0.041063
O O10 0.144855 0.619538 0.860650
O O11 0.865235 0.632732 0.824668
O O12 0.016407 0.672567 0.047342
O O13 0.591382 0.750000 0.306857
#
# Coordination Sequence:
#
# PCOD9466106 Si02
#       6
#     8   8   8   8   8   8
#     4  12  25  37  62  89 124 165 215 247 284 355
#     4  10  21  39  63  88 121 150 198 249 306 355
#     4  11  24  42  59  89 123 168 205 251 291 353
#     4  10  25  41  62  85 128 159 200 252 312 360
#     4  10  21  41  65  90 115 154 199 250 306 376
#     4  11  23  39  58  91 121 165 198 248 303 346
#
# _framework density 19.797885999999998
#
# number of rings (size 3 to 8) (size 9 to 14) (size 15 to 20)
#    0.000    1.333    1.667    4.500    4.667    2.667 
#    0.000    4.167    0.000    0.000    0.000    0.000 
#    0.000    0.000    0.000    0.000    0.000    0.000 
#
# Total GULP energy -268521.279833 kJ/mol
# GULP energy per Si atom -5594.193330 kJ/mol
# Density = 1.975283 g / cm^3
# Si number density = 19.797886 Si / 1000 Ang^3
#
#
#
# Elastic Constant Matrix: (Units=GPa)
#
#
# Indices 1 2 3 4 5 6 
#
# 1 40.2418 0.4670 10.4199 0.0000 0.0000 0.0000
# 2 0.4670 68.0746 -11.4357 0.0000 0.0000 0.0000
# 3 10.4199 -11.4357 75.7891 0.0000 0.0000 0.0000
# 4 0.0000 0.0000 0.0000 10.9188 0.0000 0.0000
# 5 0.0000 0.0000 0.0000 0.0000 36.2958 0.0000
# 6 0.0000 0.0000 0.0000 0.0000 0.0000 25.1974
#
#
#
# Elastic Compliance Matrix: (Units=1/GPa)
#
#
# Indices 1 2 3 4 5 6 
#
# 1 0.025809 -0.000793 -0.003668 0.000000 0.000000 0.000000
# 2 -0.000793 0.015096 0.002387 0.000000 0.000000 0.000000
# 3 -0.003668 0.002387 0.014059 0.000000 0.000000 0.000000
# 4 0.000000 0.000000 0.000000 0.091585 0.000000 0.000000
# 5 0.000000 0.000000 0.000000 0.000000 0.027551 0.000000
# 6 0.000000 0.000000 0.000000 0.000000 0.000000 0.039687
#
#
# Mechanical properties :
#
#
# Convention : Reuss Voigt Hill
#
# Bulk Modulus (GPa) = 19.67915 20.33420 20.00667
# Shear Modulus (GPa) = 21.28801 26.79270 24.04036
#
# Velocity S-wave (km/s) = 3.28268 3.68273 3.48845
# Velocity P-wave (km/s) = 4.93251 5.32696 5.13352
#
# Compressibility (1/GPa) = 0.05081521
#
# Stress axis : x y z
#
# Youngs Moduli (GPa) = 38.74649 66.24193 71.12894
#
# Poissons Ratio (x) = 0.05255 0.26090
# Poissons Ratio (y) = 0.03074 -0.16978
# Poissons Ratio (z) = 0.14212 -0.15811
#
# Static dielectric constant tensor:
#      x y z
#    x 1.701490 0.000000 0.000000 
#    y 0.000000 1.673260 0.000000 
#    z 0.000000 0.000000 1.695420 
# 
# From -- ./inp_files/4523.got.cif
#   From: 2010.05.17/outbox.cif.g08.bks.cpg/sg62_3_cif.got.tgz:4523.got - 2010.06.03 15:25:27.
