data_PCOD9466580
_publ_section_title
;
Structure prediction by ZEFSAII (Michael W. Deem and Ramdas Pophale) SiO2 
 PCOD9466580
Probable space group: P N M A
;
_chemical_formula_sum "Si O2"
_cell_formula_units_Z 36
_cell_length_a 14.104400
_cell_length_b 14.308491
_cell_length_c 8.372830
_cell_angle_alpha 90.000000
_cell_angle_beta 90.000000
_cell_angle_gamma 90.000000
_cell_volume 1689.743265
_symmetry_space_group_name_H-M "P N M A"
_symmetry_group_IT_number 62
_symmetry_cell_setting 'orthorhombic'
loop_
_space_group_symop_operation_xyz
x,y,z
1/2-x,-y,1/2+z
1/2+x,1/2-y,1/2-z
-x,1/2+y,-z
-x,-y,-z
1/2+x,y,1/2-z
1/2-x,1/2+y,1/2+z
x,1/2-y,z
loop_
_atom_site_type_symbol
_atom_site_label
_atom_site_fract_x
_atom_site_fract_y
_atom_site_fract_z
Si Si1 0.340025 0.250000 0.789590
Si Si2 0.385489 0.957144 0.356661
Si Si3 0.458660 0.551045 0.845066
Si Si4 0.472113 0.750000 0.994690
Si Si5 0.801953 0.450457 0.830980
Si Si6 0.623099 0.250000 0.666605
O O1 0.340891 0.155008 0.687841
O O2 0.235546 0.250000 0.869615
O O3 0.425396 0.250000 0.916357
O O4 0.308930 0.950225 0.212266
O O5 0.415161 0.849794 0.393550
O O6 0.473161 0.018922 0.299297
O O7 0.331190 0.003654 0.503314
O O8 0.460070 0.659237 0.886687
O O9 0.356100 0.511925 0.801760
O O10 0.500000 0.500000 0.000000
O O11 0.398532 0.750000 0.142994
#
# Coordination Sequence:
#
# PCOD9466580 Si02
#       6
#     4   8   8   4   8   4
#     4  10  22  39  66  94 135 175 215 266 341 384
#     4  11  24  42  67  98 136 174 221 272 332 397
#     4  12  23  42  67  95 129 175 223 271 325 391
#     4  12  24  42  70 100 130 178 224 270 330 394
#     4  11  24  42  67  98 136 174 221 272 332 397
#     4  10  22  39  66  94 135 175 215 266 341 384
#
# _framework density 21.305012999999999
#
# number of rings (size 3 to 8) (size 9 to 14) (size 15 to 20)
#    0.000    0.889    4.444    2.000    6.222    1.778 
#    0.000    2.222    0.000    0.000    0.000    0.000 
#    0.000    0.000    0.000    0.000    0.000    0.000 
#
# Total GULP energy -201343.657664 kJ/mol
# GULP energy per Si atom -5592.879380 kJ/mol
# Density = 2.125652 g / cm^3
# Si number density = 21.305013 Si / 1000 Ang^3
#
#
#
# Elastic Constant Matrix: (Units=GPa)
#
#
# Indices 1 2 3 4 5 6 
#
# 1 95.0114 16.9120 0.3384 0.0000 0.0000 0.0000
# 2 16.9120 219.3697 35.1169 0.0000 0.0000 0.0000
# 3 0.3384 35.1169 55.1836 0.0000 0.0000 0.0000
# 4 0.0000 0.0000 0.0000 27.2025 0.0000 0.0000
# 5 0.0000 0.0000 0.0000 0.0000 41.7374 0.0000
# 6 0.0000 0.0000 0.0000 0.0000 0.0000 27.2910
#
#
#
# Elastic Compliance Matrix: (Units=1/GPa)
#
#
# Indices 1 2 3 4 5 6 
#
# 1 0.010684 -0.000905 0.000511 0.000000 0.000000 0.000000
# 2 -0.000905 0.005152 -0.003273 0.000000 0.000000 0.000000
# 3 0.000511 -0.003273 0.020201 0.000000 0.000000 0.000000
# 4 0.000000 0.000000 0.000000 0.036761 0.000000 0.000000
# 5 0.000000 0.000000 0.000000 0.000000 0.023959 0.000000
# 6 0.000000 0.000000 0.000000 0.000000 0.000000 0.036642
#
#
# Mechanical properties :
#
#
# Convention : Reuss Voigt Hill
#
# Bulk Modulus (GPa) = 34.84088 52.69992 43.77040
# Shear Modulus (GPa) = 33.26595 40.39266 36.82930
#
# Velocity S-wave (km/s) = 3.95576 4.35894 4.16224
# Velocity P-wave (km/s) = 6.10352 7.07979 6.60970
#
# Compressibility (1/GPa) = 0.02870192
#
# Stress axis : x y z
#
# Youngs Moduli (GPa) = 93.59434 194.08826 49.50215
#
# Poissons Ratio (x) = 0.17574 -0.02528
# Poissons Ratio (y) = 0.08474 0.16203
# Poissons Ratio (z) = -0.04780 0.63529
#
# Static dielectric constant tensor:
#      x y z
#    x 1.782600 0.000000 0.000000 
#    y 0.000000 1.773830 0.000000 
#    z 0.000000 0.000000 1.761910 
# 
# From -- ./inp_files/6032.got.cif
#   From: 2010.05.17/outbox.cif.g08.bks.cpg/sg62_4_cif.got.tgz:6032.got - 2010.06.03 15:25:27.
