data_PCOD9466767
_publ_section_title
;
Structure prediction by ZEFSAII (Michael W. Deem and Ramdas Pophale) SiO2 
 PCOD9466767
Probable space group: P N M A
;
_chemical_formula_sum "Si O2"
_cell_formula_units_Z 56
_cell_length_a 10.055881
_cell_length_b 19.121326
_cell_length_c 14.061644
_cell_angle_alpha 90.000000
_cell_angle_beta 90.000000
_cell_angle_gamma 90.000000
_cell_volume 2703.797921
_symmetry_space_group_name_H-M "P N M A"
_symmetry_group_IT_number 62
_symmetry_cell_setting 'orthorhombic'
loop_
_space_group_symop_operation_xyz
x,y,z
1/2-x,-y,1/2+z
1/2+x,1/2-y,1/2-z
-x,1/2+y,-z
-x,-y,-z
1/2+x,y,1/2-z
1/2-x,1/2+y,1/2+z
x,1/2-y,z
loop_
_atom_site_type_symbol
_atom_site_label
_atom_site_fract_x
_atom_site_fract_y
_atom_site_fract_z
Si Si1 0.252758 0.250000 0.643911
Si Si2 0.144571 0.121949 0.220309
Si Si3 0.417919 0.327868 0.141756
Si Si4 0.260299 0.597360 0.062439
Si Si5 0.745139 0.515978 0.631928
Si Si6 0.058041 0.750000 0.326018
Si Si7 0.958287 0.994040 0.890946
Si Si8 0.066126 0.606537 0.439040
O O1 0.264634 0.320859 0.582041
O O2 0.360633 0.250000 0.727953
O O3 0.102404 0.250000 0.686157
O O4 0.276841 0.163117 0.193787
O O5 0.183482 0.054764 0.282893
O O6 0.033663 0.161036 0.281174
O O7 0.086133 0.085338 0.127039
O O8 0.430810 0.250000 0.101782
O O9 0.427874 0.380284 0.052709
O O10 0.158684 0.550003 0.123080
O O11 0.415264 0.583345 0.084332
O O12 0.238871 0.573183 0.953457
O O13 0.596723 0.494162 0.663325
O O14 0.828374 0.451037 0.592785
O O15 0.091275 0.679792 0.385236
O O16 0.000000 0.000000 0.000000
#
# Coordination Sequence:
#
# PCOD9466767 Si02
#       8
#     4   8   8   8   8   4   8   8
#     4  10  24  44  68  95 133 173 221 272 342 404
#     4  12  25  42  69 101 133 179 232 277 340 408
#     4  12  25  46  69  99 137 177 229 283 342 411
#     4  10  22  41  68  97 130 174 219 274 337 400
#     4  11  23  41  67 100 135 174 225 277 339 400
#     4  10  24  46  64  97 131 175 227 272 338 408
#     4  10  23  43  62  94 139 171 218 282 332 398
#     4  11  23  43  72  96 133 179 223 283 338 405
#
# _framework density 20.711607000000001
#
# number of rings (size 3 to 8) (size 9 to 14) (size 15 to 20)
#    0.000    1.143    3.571    2.571    4.000    1.143 
#    1.286    0.000    4.714    0.000    0.000    0.000 
#    0.000    0.000    0.000    0.000    0.000    0.000 
#
# Total GULP energy -312898.492360 kJ/mol
# GULP energy per Si atom -5587.473078 kJ/mol
# Density = 2.066447 g / cm^3
# Si number density = 20.711607 Si / 1000 Ang^3
#
#
#
# Elastic Constant Matrix: (Units=GPa)
#
#
# Indices 1 2 3 4 5 6 
#
# 1 124.6135 45.0861 16.1234 0.0000 0.0000 0.0000
# 2 45.0861 92.1648 25.5620 0.0000 0.0000 0.0000
# 3 16.1234 25.5620 55.7961 0.0000 0.0000 0.0000
# 4 0.0000 0.0000 0.0000 32.0010 0.0000 0.0000
# 5 0.0000 0.0000 0.0000 0.0000 20.7537 0.0000
# 6 0.0000 0.0000 0.0000 0.0000 0.0000 19.1323
#
#
#
# Elastic Compliance Matrix: (Units=1/GPa)
#
#
# Indices 1 2 3 4 5 6 
#
# 1 0.009776 -0.004581 -0.000726 0.000000 0.000000 0.000000
# 2 -0.004581 0.014576 -0.005354 0.000000 0.000000 0.000000
# 3 -0.000726 -0.005354 0.020585 0.000000 0.000000 0.000000
# 4 0.000000 0.000000 0.000000 0.031249 0.000000 0.000000
# 5 0.000000 0.000000 0.000000 0.000000 0.048184 0.000000
# 6 0.000000 0.000000 0.000000 0.000000 0.000000 0.052268
#
#
# Mechanical properties :
#
#
# Convention : Reuss Voigt Hill
#
# Bulk Modulus (GPa) = 42.34639 49.56860 45.95750
# Shear Modulus (GPa) = 24.29161 26.76425 25.52793
#
# Velocity S-wave (km/s) = 3.42840 3.59867 3.51457
# Velocity P-wave (km/s) = 6.01349 6.42277 6.22149
#
# Compressibility (1/GPa) = 0.02361476
#
# Stress axis : x y z
#
# Youngs Moduli (GPa) = 102.28896 68.60585 48.57878
#
# Poissons Ratio (x) = 0.31428 0.03529
# Poissons Ratio (y) = 0.46858 0.26009
# Poissons Ratio (z) = 0.07430 0.36731
#
# Static dielectric constant tensor:
#      x y z
#    x 1.797090 0.000000 0.000000 
#    y 0.000000 1.714470 0.000000 
#    z 0.000000 0.000000 1.771040 
# 
# From -- ./inp_files/17234.got.cif
#   From: 2010.05.17/outbox.cif.g08.bks.cpg/sg62_9_cif.got.tgz:17234.got - 2010.06.03 15:25:27.
