data_PCOD9466360
_publ_section_title
;
Structure prediction by ZEFSAII (Michael W. Deem and Ramdas Pophale) SiO2 
 PCOD9466360
Probable space group: P N M A
;
_chemical_formula_sum "Si O2"
_cell_formula_units_Z 48
_cell_length_a 15.127141
_cell_length_b 8.671816
_cell_length_c 19.137437
_cell_angle_alpha 90.000000
_cell_angle_beta 90.000000
_cell_angle_gamma 90.000000
_cell_volume 2510.444840
_symmetry_space_group_name_H-M "P N M A"
_symmetry_group_IT_number 62
_symmetry_cell_setting 'orthorhombic'
loop_
_space_group_symop_operation_xyz
x,y,z
1/2-x,-y,1/2+z
1/2+x,1/2-y,1/2-z
-x,1/2+y,-z
-x,-y,-z
1/2+x,y,1/2-z
1/2-x,1/2+y,1/2+z
x,1/2-y,z
loop_
_atom_site_type_symbol
_atom_site_label
_atom_site_fract_x
_atom_site_fract_y
_atom_site_fract_z
Si Si1 0.554005 0.064795 0.934626
Si Si2 0.907235 0.064344 0.027732
Si Si3 0.256683 0.437589 0.581379
Si Si4 0.030229 0.432820 0.293464
Si Si5 0.709792 0.934576 0.259687
Si Si6 0.104475 0.433750 0.817406
O O1 0.553055 0.250000 0.936910
O O2 0.656618 0.012764 0.935245
O O3 0.509539 0.010145 0.862752
O O4 0.500000 0.000000 0.000000
O O5 0.909923 0.250000 0.028054
O O6 0.891732 0.002629 0.105438
O O7 0.828261 0.013950 0.975910
O O8 0.000000 0.000000 0.000000
O O9 0.255796 0.250000 0.582071
O O10 0.283896 0.485907 0.659541
O O11 0.023309 0.250000 0.299956
O O12 0.973578 0.491334 0.227537
O O13 0.130847 0.482625 0.280347
O O14 0.693333 0.750000 0.258831
O O15 0.803721 0.961878 0.223026
O O16 0.089981 0.250000 0.821003
#
# Coordination Sequence:
#
# PCOD9466360 Si02
#       6
#     8   8   8   8   8   8
#     4  11  23  43  65  93 127 169 215 263 318 378
#     4  11  23  40  64  95 129 167 211 263 320 380
#     4   9  20  41  66  90 123 165 210 258 314 372
#     4  12  25  41  64  96 129 167 211 264 319 378
#     4  10  21  41  67  92 122 167 213 260 318 380
#     4  11  23  42  66  93 127 168 213 261 318 380
#
# _framework density 19.120118000000002
#
# number of rings (size 3 to 8) (size 9 to 14) (size 15 to 20)
#    0.000    1.333    1.667    4.000    2.333    2.667 
#    0.000    3.333    0.000    0.000    0.000    0.000 
#    0.000    0.000    0.000    0.000    0.000    0.000 
#
# Total GULP energy -268450.282878 kJ/mol
# GULP energy per Si atom -5592.714227 kJ/mol
# Density = 1.907660 g / cm^3
# Si number density = 19.120118 Si / 1000 Ang^3
#
#
#
# Elastic Constant Matrix: (Units=GPa)
#
#
# Indices 1 2 3 4 5 6 
#
# 1 60.9558 26.0521 3.2569 0.0000 0.0000 0.0000
# 2 26.0521 60.3602 16.6624 0.0000 0.0000 0.0000
# 3 3.2569 16.6624 106.9375 0.0000 0.0000 0.0000
# 4 0.0000 0.0000 0.0000 35.8545 0.0000 0.0000
# 5 0.0000 0.0000 0.0000 0.0000 38.0560 0.0000
# 6 0.0000 0.0000 0.0000 0.0000 0.0000 24.6017
#
#
#
# Elastic Compliance Matrix: (Units=1/GPa)
#
#
# Indices 1 2 3 4 5 6 
#
# 1 0.020178 -0.008923 0.000776 0.000000 0.000000 0.000000
# 2 -0.008923 0.021258 -0.003041 0.000000 0.000000 0.000000
# 3 0.000776 -0.003041 0.009801 0.000000 0.000000 0.000000
# 4 0.000000 0.000000 0.000000 0.027891 0.000000 0.000000
# 5 0.000000 0.000000 0.000000 0.000000 0.026277 0.000000
# 6 0.000000 0.000000 0.000000 0.000000 0.000000 0.040648
#
#
# Mechanical properties :
#
#
# Convention : Reuss Voigt Hill
#
# Bulk Modulus (GPa) = 34.64848 35.57736 35.11292
# Shear Modulus (GPa) = 28.08238 31.85459 29.96848
#
# Velocity S-wave (km/s) = 3.83656 4.08612 3.96331
# Velocity P-wave (km/s) = 6.14707 6.39606 6.27280
#
# Compressibility (1/GPa) = 0.02886130
#
# Stress axis : x y z
#
# Youngs Moduli (GPa) = 49.56013 47.04155 102.02646
#
# Poissons Ratio (x) = 0.41975 -0.07915
# Poissons Ratio (y) = 0.44222 0.31021
# Poissons Ratio (z) = -0.03845 0.14303
#
# Static dielectric constant tensor:
#      x y z
#    x 1.640620 0.000000 0.000000 
#    y 0.000000 1.648000 0.000000 
#    z 0.000000 0.000000 1.632230 
# 
# From -- ./inp_files/23707.got.cif
#   From: 2010.05.17/outbox.cif.g08.bks.cpg/sg62_12_cif.got.tgz:23707.got - 2010.06.03 15:25:27.
