data_PCOD9466705
_publ_section_title
;
Structure prediction by ZEFSAII (Michael W. Deem and Ramdas Pophale) SiO2 
 PCOD9466705
Probable space group: P N M A
;
_chemical_formula_sum "Si O2"
_cell_formula_units_Z 48
_cell_length_a 18.868518
_cell_length_b 8.423518
_cell_length_c 15.261417
_cell_angle_alpha 90.000000
_cell_angle_beta 90.000000
_cell_angle_gamma 90.000000
_cell_volume 2425.638950
_symmetry_space_group_name_H-M "P N M A"
_symmetry_group_IT_number 62
_symmetry_cell_setting 'orthorhombic'
loop_
_space_group_symop_operation_xyz
x,y,z
1/2-x,-y,1/2+z
1/2+x,1/2-y,1/2-z
-x,1/2+y,-z
-x,-y,-z
1/2+x,y,1/2-z
1/2-x,1/2+y,1/2+z
x,1/2-y,z
loop_
_atom_site_type_symbol
_atom_site_label
_atom_site_fract_x
_atom_site_fract_y
_atom_site_fract_z
Si Si1 0.520993 0.437533 0.904339
Si Si2 0.916280 0.561054 0.741875
Si Si3 0.220064 0.056676 0.000603
Si Si4 0.236499 0.561114 0.306514
Si Si5 0.935825 0.941784 0.940434
Si Si6 0.327379 0.060696 0.154325
O O1 0.531985 0.250000 0.908882
O O2 0.459606 0.476979 0.834868
O O3 0.593080 0.518984 0.871945
O O4 0.500000 0.500000 0.000000
O O5 0.927119 0.750000 0.734737
O O6 0.833312 0.523284 0.730822
O O7 0.940970 0.508601 0.838701
O O8 0.219327 0.250000 0.000251
O O9 0.246389 0.006154 0.905031
O O10 0.140409 0.003690 0.022499
O O11 0.274489 0.008027 0.076409
O O12 0.223789 0.750000 0.308003
O O13 0.301676 0.522132 0.242932
O O14 0.935441 0.750000 0.941176
O O15 0.000000 0.000000 0.000000
O O16 0.320195 0.250000 0.164759
#
# Coordination Sequence:
#
# PCOD9466705 Si02
#       6
#     8   8   8   8   8   8
#     4  12  26  44  66  96 130 167 212 265 322 387
#     4  11  23  43  67  93 128 171 215 261 323 387
#     4   9  20  40  63  87 123 164 204 258 317 369
#     4  11  22  38  64  96 126 165 214 265 321 378
#     4  10  22  41  62  89 123 167 212 260 316 376
#     4  11  22  42  66  92 128 169 211 262 320 382
#
# _framework density 19.788601
#
# number of rings (size 3 to 8) (size 9 to 14) (size 15 to 20)
#    0.000    1.333    1.667    4.000    2.333    2.667 
#    0.000    3.333    0.000    0.000    0.000    0.000 
#    0.000    0.000    0.000    0.000    0.000    0.000 
#
# Total GULP energy -268448.764035 kJ/mol
# GULP energy per Si atom -5592.682584 kJ/mol
# Density = 1.974356 g / cm^3
# Si number density = 19.788601 Si / 1000 Ang^3
#
#
#
# Elastic Constant Matrix: (Units=GPa)
#
#
# Indices 1 2 3 4 5 6 
#
# 1 59.0300 -12.3909 -0.9205 0.0000 0.0000 0.0000
# 2 -12.3909 26.9176 10.4050 0.0000 0.0000 0.0000
# 3 -0.9205 10.4050 108.7261 0.0000 0.0000 0.0000
# 4 0.0000 0.0000 0.0000 25.0776 0.0000 0.0000
# 5 0.0000 0.0000 0.0000 0.0000 40.5990 0.0000
# 6 0.0000 0.0000 0.0000 0.0000 0.0000 36.7208
#
#
#
# Elastic Compliance Matrix: (Units=1/GPa)
#
#
# Indices 1 2 3 4 5 6 
#
# 1 0.018803 0.008924 -0.000695 0.000000 0.000000 0.000000
# 2 0.008924 0.042813 -0.004022 0.000000 0.000000 0.000000
# 3 -0.000695 -0.004022 0.009576 0.000000 0.000000 0.000000
# 4 0.000000 0.000000 0.000000 0.039876 0.000000 0.000000
# 5 0.000000 0.000000 0.000000 0.000000 0.024631 0.000000
# 6 0.000000 0.000000 0.000000 0.000000 0.000000 0.027233
#
#
# Mechanical properties :
#
#
# Convention : Reuss Voigt Hill
#
# Bulk Modulus (GPa) = 12.56161 20.98454 16.77308
# Shear Modulus (GPa) = 27.61626 33.65149 30.63388
#
# Velocity S-wave (km/s) = 3.73978 4.12825 3.93880
# Velocity P-wave (km/s) = 5.00096 5.77500 5.40186
#
# Compressibility (1/GPa) = 0.07960760
#
# Stress axis : x y z
#
# Youngs Moduli (GPa) = 53.18314 23.35742 104.42333
#
# Poissons Ratio (x) = -0.20844 0.07256
# Poissons Ratio (y) = -0.47461 0.41995
# Poissons Ratio (z) = 0.03695 0.09393
#
# Static dielectric constant tensor:
#      x y z
#    x 1.690300 0.000000 0.000000 
#    y 0.000000 1.707650 0.000000 
#    z 0.000000 0.000000 1.671920 
# 
# From -- ./inp_files/19530.got.cif
#   From: 2010.05.17/outbox.cif.g08.bks.cpg/sg62_10_cif.got.tgz:19530.got - 2010.06.03 15:25:27.
