data_PCOD9466542
_publ_section_title
;
Structure prediction by ZEFSAII (Michael W. Deem and Ramdas Pophale) SiO2 
 PCOD9466542
Probable space group: P N M A
;
_chemical_formula_sum "Si O2"
_cell_formula_units_Z 64
_cell_length_a 23.461597
_cell_length_b 7.598320
_cell_length_c 16.085587
_cell_angle_alpha 90.000000
_cell_angle_beta 90.000000
_cell_angle_gamma 90.000000
_cell_volume 2867.557033
_symmetry_space_group_name_H-M "P N M A"
_symmetry_group_IT_number 62
_symmetry_cell_setting 'orthorhombic'
loop_
_space_group_symop_operation_xyz
x,y,z
1/2-x,-y,1/2+z
1/2+x,1/2-y,1/2-z
-x,1/2+y,-z
-x,-y,-z
1/2+x,y,1/2-z
1/2-x,1/2+y,1/2+z
x,1/2-y,z
loop_
_atom_site_type_symbol
_atom_site_label
_atom_site_fract_x
_atom_site_fract_y
_atom_site_fract_z
Si Si1 0.113871 0.455170 0.143529
Si Si2 0.188169 0.035589 0.295763
Si Si3 0.201082 0.537008 0.999326
Si Si4 0.935378 0.955078 0.253694
Si Si5 0.948476 0.538040 0.436555
Si Si6 0.815555 0.462755 0.192379
Si Si7 0.670530 0.464544 0.015087
Si Si8 0.992620 0.941482 0.094224
O O1 0.098433 0.250000 0.154778
O O2 0.145780 0.522730 0.224864
O O3 0.157056 0.468751 0.066635
O O4 0.056697 0.559154 0.127221
O O5 0.188617 0.250000 0.295224
O O6 0.252965 0.980621 0.278081
O O7 0.169916 0.982443 0.388018
O O8 0.200134 0.750000 0.001548
O O9 0.182875 0.486446 0.905433
O O10 0.266598 0.480553 0.016380
O O11 0.953642 0.750000 0.252829
O O12 0.956475 0.028872 0.341893
O O13 0.957833 0.037938 0.167229
O O14 0.867198 0.964248 0.246144
O O15 0.944446 0.750000 0.431510
O O16 0.886798 0.474329 0.469866
O O17 0.000000 0.500000 0.500000
O O18 0.818624 0.250000 0.195848
O O19 0.670303 0.250000 0.012523
O O20 0.965209 0.750000 0.086432
O O21 0.000000 0.000000 0.000000
#
# Coordination Sequence:
#
# PCOD9466542 Si02
#       8
#     8   8   8   8   8   8   8   8
#     4  11  22  34  55  85 116 145 184 233 281 336
#     4   8  17  33  53  81 112 142 179 226 270 323
#     4   9  18  34  57  84 112 147 187 229 279 341
#     4  10  23  39  57  85 119 148 185 241 292 333
#     4  10  22  39  59  83 111 148 191 237 286 340
#     4   9  18  35  58  82 110 145 187 228 273 336
#     4   8  16  34  58  79 107 147 188 225 272 338
#     4  11  24  42  60  82 116 154 193 239 288 343
#
# _framework density 22.318648
#
# number of rings (size 3 to 8) (size 9 to 14) (size 15 to 20)
#    0.000    2.500    0.000    3.000    3.500    4.000 
#    0.000    1.250    0.000    2.250    0.000    0.000 
#    0.000    0.000    0.000    0.000    0.000    0.000 
#
# Total GULP energy -357289.479935 kJ/mol
# GULP energy per Si atom -5582.648124 kJ/mol
# Density = 2.226785 g / cm^3
# Si number density = 22.318648 Si / 1000 Ang^3
#
#
#
# Elastic Constant Matrix: (Units=GPa)
#
#
# Indices 1 2 3 4 5 6 
#
# 1 82.1022 -3.1630 40.4529 0.0000 0.0000 0.0000
# 2 -3.1630 48.7729 4.7890 0.0000 0.0000 0.0000
# 3 40.4529 4.7890 99.7640 0.0000 0.0000 0.0000
# 4 0.0000 0.0000 0.0000 11.8682 0.0000 0.0000
# 5 0.0000 0.0000 0.0000 0.0000 37.4777 0.0000
# 6 0.0000 0.0000 0.0000 0.0000 0.0000 13.7600
#
#
#
# Elastic Compliance Matrix: (Units=1/GPa)
#
#
# Indices 1 2 3 4 5 6 
#
# 1 0.015346 0.001614 -0.006300 0.000000 0.000000 0.000000
# 2 0.001614 0.020770 -0.001651 0.000000 0.000000 0.000000
# 3 -0.006300 -0.001651 0.012658 0.000000 0.000000 0.000000
# 4 0.000000 0.000000 0.000000 0.084259 0.000000 0.000000
# 5 0.000000 0.000000 0.000000 0.000000 0.026683 0.000000
# 6 0.000000 0.000000 0.000000 0.000000 0.000000 0.072675
#
#
# Mechanical properties :
#
#
# Convention : Reuss Voigt Hill
#
# Bulk Modulus (GPa) = 27.70209 34.97744 31.33977
# Shear Modulus (GPa) = 19.44784 25.19185 22.31985
#
# Velocity S-wave (km/s) = 2.95510 3.36331 3.16579
# Velocity P-wave (km/s) = 4.90740 5.54872 5.23789
#
# Compressibility (1/GPa) = 0.03609836
#
# Stress axis : x y z
#
# Youngs Moduli (GPa) = 65.16224 48.14637 79.00414
#
# Poissons Ratio (x) = -0.07770 0.49774
# Poissons Ratio (y) = -0.10516 0.13047
# Poissons Ratio (z) = 0.41053 0.07951
#
# Static dielectric constant tensor:
#      x y z
#    x 1.786340 0.000000 0.000000 
#    y 0.000000 1.989980 0.000000 
#    z 0.000000 0.000000 1.832890 
# 
# From -- ./inp_files/20804.got.cif
#   From: 2010.05.17/outbox.cif.g08.bks.cpg/sg62_11_cif.got.tgz:20804.got - 2010.06.03 15:25:27.
