data_PCOD9466665
_publ_section_title
;
Structure prediction by ZEFSAII (Michael W. Deem and Ramdas Pophale) SiO2 
 PCOD9466665
Probable space group: P N M A
;
_chemical_formula_sum "Si O2"
_cell_formula_units_Z 48
_cell_length_a 15.147493
_cell_length_b 8.910707
_cell_length_c 19.034117
_cell_angle_alpha 90.000000
_cell_angle_beta 90.000000
_cell_angle_gamma 90.000000
_cell_volume 2569.127504
_symmetry_space_group_name_H-M "P N M A"
_symmetry_group_IT_number 62
_symmetry_cell_setting 'orthorhombic'
loop_
_space_group_symop_operation_xyz
x,y,z
1/2-x,-y,1/2+z
1/2+x,1/2-y,1/2-z
-x,1/2+y,-z
-x,-y,-z
1/2+x,y,1/2-z
1/2-x,1/2+y,1/2+z
x,1/2-y,z
loop_
_atom_site_type_symbol
_atom_site_label
_atom_site_fract_x
_atom_site_fract_y
_atom_site_fract_z
Si Si1 0.749385 0.569554 0.582788
Si Si2 0.692379 0.071075 0.240807
Si Si3 0.907485 0.570242 0.476292
Si Si4 0.869773 0.428453 0.325850
Si Si5 0.492206 0.429056 0.717683
Si Si6 0.940983 0.570506 0.061285
O O1 0.736737 0.750000 0.580884
O O2 0.775896 0.528487 0.662471
O O3 0.829873 0.530983 0.531122
O O4 0.658545 0.491897 0.560619
O O5 0.673382 0.250000 0.239848
O O6 0.772939 0.044183 0.293879
O O7 0.605708 0.983355 0.263814
O O8 0.915410 0.750000 0.474776
O O9 0.882893 0.508756 0.399871
O O10 0.000000 0.500000 0.500000
O O11 0.881930 0.250000 0.334079
O O12 0.940360 0.490410 0.270281
O O13 0.499542 0.250000 0.726113
O O14 0.517782 0.467048 0.637550
O O15 0.939900 0.750000 0.053971
O O16 0.000000 0.500000 0.000000
#
# Coordination Sequence:
#
# PCOD9466665 Si02
#       6
#     8   8   8   8   8   8
#     4  10  22  43  66  92 125 165 210 259 312 369
#     4  10  22  40  65  93 123 164 208 256 315 376
#     4  11  24  41  65  95 129 166 211 264 318 376
#     4  11  23  41  65  93 127 166 210 257 312 378
#     4  11  24  41  64  94 126 163 209 263 316 371
#     4  11  25  42  63  92 126 167 211 258 315 375
#
# _framework density 18.683385999999999
#
# number of rings (size 3 to 8) (size 9 to 14) (size 15 to 20)
#    0.000    1.333    1.667    3.000    2.333    6.667 
#    0.000    0.000    0.000    0.000    0.000    0.000 
#    0.000    0.000    0.000    0.000    0.000    0.000 
#
# Total GULP energy -268475.712182 kJ/mol
# GULP energy per Si atom -5593.244004 kJ/mol
# Density = 1.864086 g / cm^3
# Si number density = 18.683386 Si / 1000 Ang^3
#
#
#
# Elastic Constant Matrix: (Units=GPa)
#
#
# Indices 1 2 3 4 5 6 
#
# 1 144.3506 60.1213 57.8339 0.0000 0.0000 0.0000
# 2 60.1213 48.2473 42.1873 0.0000 0.0000 0.0000
# 3 57.8339 42.1873 113.8954 0.0000 0.0000 0.0000
# 4 0.0000 0.0000 0.0000 34.2066 0.0000 0.0000
# 5 0.0000 0.0000 0.0000 0.0000 32.9340 0.0000
# 6 0.0000 0.0000 0.0000 0.0000 0.0000 35.7074
#
#
#
# Elastic Compliance Matrix: (Units=1/GPa)
#
#
# Indices 1 2 3 4 5 6 
#
# 1 0.014477 -0.017175 -0.000990 0.000000 0.000000 0.000000
# 2 -0.017175 0.051031 -0.010181 0.000000 0.000000 0.000000
# 3 -0.000990 -0.010181 0.013054 0.000000 0.000000 0.000000
# 4 0.000000 0.000000 0.000000 0.029234 0.000000 0.000000
# 5 0.000000 0.000000 0.000000 0.000000 0.030364 0.000000
# 6 0.000000 0.000000 0.000000 0.000000 0.000000 0.028005
#
#
# Mechanical properties :
#
#
# Convention : Reuss Voigt Hill
#
# Bulk Modulus (GPa) = 45.72355 69.64203 57.68279
# Shear Modulus (GPa) = 21.72532 30.32631 26.02582
#
# Velocity S-wave (km/s) = 3.41371 4.03323 3.73633
# Velocity P-wave (km/s) = 6.32960 7.68408 7.03949
#
# Compressibility (1/GPa) = 0.02187057
#
# Stress axis : x y z
#
# Youngs Moduli (GPa) = 69.07311 19.59605 76.60774
#
# Poissons Ratio (x) = 0.33656 0.07581
# Poissons Ratio (y) = 1.18634 0.77993
# Poissons Ratio (z) = 0.06836 0.19950
#
# Static dielectric constant tensor:
#      x y z
#    x 1.602330 0.000000 0.000000 
#    y 0.000000 1.627870 0.000000 
#    z 0.000000 0.000000 1.619790 
# 
# From -- ./inp_files/23679.got.cif
#   From: 2010.05.17/outbox.cif.g08.bks.cpg/sg62_12_cif.got.tgz:23679.got - 2010.06.03 15:25:27.
