data_PCOD9466925
_publ_section_title
;
Structure prediction by ZEFSAII (Michael W. Deem and Ramdas Pophale) SiO2 
 PCOD9466925
Probable space group: P N M A
;
_chemical_formula_sum "Si O2"
_cell_formula_units_Z 44
_cell_length_a 14.587613
_cell_length_b 23.518753
_cell_length_c 5.033719
_cell_angle_alpha 90.000000
_cell_angle_beta 90.000000
_cell_angle_gamma 90.000000
_cell_volume 1726.980733
_symmetry_space_group_name_H-M "P N M A"
_symmetry_group_IT_number 62
_symmetry_cell_setting 'orthorhombic'
loop_
_space_group_symop_operation_xyz
x,y,z
1/2-x,-y,1/2+z
1/2+x,1/2-y,1/2-z
-x,1/2+y,-z
-x,-y,-z
1/2+x,y,1/2-z
1/2-x,1/2+y,1/2+z
x,1/2-y,z
loop_
_atom_site_type_symbol
_atom_site_label
_atom_site_fract_x
_atom_site_fract_y
_atom_site_fract_z
Si Si1 0.674312 0.250000 0.274206
Si Si2 0.669300 0.053373 0.497877
Si Si3 0.552484 0.641265 0.909223
Si Si4 0.640235 0.554610 0.246570
Si Si5 0.067274 0.156912 0.884352
Si Si6 0.233949 0.642247 0.866227
O O1 0.636089 0.298766 0.484233
O O2 0.711027 0.198940 0.074349
O O3 0.610705 0.998662 0.421254
O O4 0.618546 0.098192 0.687066
O O5 0.700443 0.094264 0.257036
O O6 0.766266 0.032888 0.611656
O O7 0.675195 0.609316 0.412292
O O8 0.494280 0.674790 0.132016
O O9 0.655684 0.662352 0.846902
O O10 0.570054 0.578766 0.031902
O O11 0.000968 0.142516 0.133533
#
# Coordination Sequence:
#
# PCOD9466925 Si02
#       6
#     4   8   8   8   8   8
#     4  10  26  48  74  98 134 186 242 298 340 424
#     4  10  23  38  73 101 142 184 239 283 342 413
#     4  11  25  47  68 101 146 178 233 285 364 417
#     4  11  21  43  71 105 141 190 233 290 343 428
#     4  11  26  47  66 106 138 186 230 293 357 416
#     4  10  22  47  68 106 134 188 238 286 351 418
#
# _framework density 25.477993999999999
#
# number of rings (size 3 to 8) (size 9 to 14) (size 15 to 20)
#    0.000    1.455    3.636    0.000    5.091    3.636 
#    6.545    0.909    0.000    0.000    0.000    0.000 
#    0.000    0.000    0.000    0.000    0.000    0.000 
#
# Total GULP energy -245000.824992 kJ/mol
# GULP energy per Si atom -5568.200568 kJ/mol
# Density = 2.542000 g / cm^3
# Si number density = 25.477994 Si / 1000 Ang^3
#
#
#
# Elastic Constant Matrix: (Units=GPa)
#
#
# Indices 1 2 3 4 5 6 
#
# 1 67.7051 22.0251 16.2015 0.0000 0.0000 0.0000
# 2 22.0251 140.2155 19.4418 0.0000 0.0000 0.0000
# 3 16.2015 19.4418 83.5420 0.0000 0.0000 0.0000
# 4 0.0000 0.0000 0.0000 20.5827 0.0000 0.0000
# 5 0.0000 0.0000 0.0000 0.0000 37.6309 0.0000
# 6 0.0000 0.0000 0.0000 0.0000 0.0000 -7.9659
#
#
#
# Elastic Compliance Matrix: (Units=1/GPa)
#
#
# Indices 1 2 3 4 5 6 
#
# 1 0.016101 -0.002166 -0.002618 0.000000 0.000000 0.000000
# 2 -0.002166 0.007661 -0.001363 0.000000 0.000000 0.000000
# 3 -0.002618 -0.001363 0.012795 0.000000 0.000000 0.000000
# 4 0.000000 0.000000 0.000000 0.048585 0.000000 0.000000
# 5 0.000000 0.000000 0.000000 0.000000 0.026574 0.000000
# 6 0.000000 0.000000 0.000000 0.000000 0.000000 -0.125534
#
#
# Mechanical properties :
#
#
# Convention : Reuss Voigt Hill
#
# Bulk Modulus (GPa) = 41.21583 45.19995 43.20789
# Shear Modulus (GPa) = 761.77920 25.63580 393.70750
#
# Velocity S-wave (km/s) = 17.31023 3.17550 12.44443
# Velocity P-wave (km/s) = 20.38964 5.58787 14.94928
#
# Compressibility (1/GPa) = 0.02426252
#
# Stress axis : x y z
#
# Youngs Moduli (GPa) = 62.10723 130.52962 78.15562
#
# Poissons Ratio (x) = 0.28274 0.20465
# Poissons Ratio (y) = 0.13453 0.10651
# Poissons Ratio (z) = 0.16262 0.17789
#
# Static dielectric constant tensor:
#      x y z
#    x 2.105520 0.000000 0.000000 
#    y 0.000000 1.971140 0.000000 
#    z 0.000000 0.000000 2.084170 
# 
# From -- ./inp_files/6985.got.cif
#   From: 2010.05.17/outbox.cif.g08.bks.cpg/sg62_4_cif.got.tgz:6985.got - 2010.06.03 15:25:27.
