data_PCOD9466547
_publ_section_title
;
Structure prediction by ZEFSAII (Michael W. Deem and Ramdas Pophale) SiO2 
 PCOD9466547
Probable space group: P N M A
;
_chemical_formula_sum "Si O2"
_cell_formula_units_Z 40
_cell_length_a 27.510182
_cell_length_b 12.944930
_cell_length_c 5.378770
_cell_angle_alpha 90.000000
_cell_angle_beta 90.000000
_cell_angle_gamma 90.000000
_cell_volume 1915.473482
_symmetry_space_group_name_H-M "P N M A"
_symmetry_group_IT_number 62
_symmetry_cell_setting 'orthorhombic'
loop_
_space_group_symop_operation_xyz
x,y,z
1/2-x,-y,1/2+z
1/2+x,1/2-y,1/2-z
-x,1/2+y,-z
-x,-y,-z
1/2+x,y,1/2-z
1/2-x,1/2+y,1/2+z
x,1/2-y,z
loop_
_atom_site_type_symbol
_atom_site_label
_atom_site_fract_x
_atom_site_fract_y
_atom_site_fract_z
Si Si1 0.443769 0.476838 0.456534
Si Si2 0.593144 0.627244 0.028840
Si Si3 0.731655 0.141430 0.914518
Si Si4 0.858350 0.631043 0.032257
Si Si5 0.189004 0.962847 0.335375
O O1 0.500000 0.500000 0.500000
O O2 0.424969 0.419859 0.707861
O O3 0.410428 0.579051 0.406647
O O4 0.437522 0.408001 0.209488
O O5 0.594522 0.750000 0.047431
O O6 0.647149 0.580511 0.987870
O O7 0.729735 0.250000 0.058949
O O8 0.682633 0.137432 0.748191
O O9 0.782886 0.134401 0.775552
O O10 0.731108 0.033247 0.052209
O O11 0.864723 0.750000 0.943786
O O12 0.836491 0.548123 0.839818
#
# Coordination Sequence:
#
# PCOD9466547 Si02
#       5
#     8   8   8   8   8
#     4  11  24  45  68  97 130 169 217 275 329 389
#     4  11  24  43  68  97 132 170 214 269 328 389
#     4  11  21  36  58  85 120 165 210 255 316 382
#     4  10  22  39  60  87 122 166 213 264 323 384
#     4  11  21  39  59  91 126 166 212 269 316 387
#
# _framework density 20.882567000000002
#
# number of rings (size 3 to 8) (size 9 to 14) (size 15 to 20)
#    0.000    1.200    4.000    2.400    0.000    1.600 
#    0.000    2.000    0.000    0.000    0.000    0.000 
#    0.000    0.000    0.000    0.000    0.000    0.000 
#
# Total GULP energy -222901.226427 kJ/mol
# GULP energy per Si atom -5572.530661 kJ/mol
# Density = 2.083504 g / cm^3
# Si number density = 20.882567 Si / 1000 Ang^3
#
#
#
# Elastic Constant Matrix: (Units=GPa)
#
#
# Indices 1 2 3 4 5 6 
#
# 1 66.5098 45.1066 -9.9926 0.0000 0.0000 0.0000
# 2 45.1066 166.4937 31.5959 0.0000 0.0000 0.0000
# 3 -9.9926 31.5959 58.4235 0.0000 0.0000 0.0000
# 4 0.0000 0.0000 0.0000 14.0043 0.0000 0.0000
# 5 0.0000 0.0000 0.0000 0.0000 28.8606 0.0000
# 6 0.0000 0.0000 0.0000 0.0000 0.0000 105.7411
#
#
#
# Elastic Compliance Matrix: (Units=1/GPa)
#
#
# Indices 1 2 3 4 5 6 
#
# 1 0.020954 -0.007084 0.007415 0.000000 0.000000 0.000000
# 2 -0.007084 0.009088 -0.006127 0.000000 0.000000 0.000000
# 3 0.007415 -0.006127 0.021698 0.000000 0.000000 0.000000
# 4 0.000000 0.000000 0.000000 0.071407 0.000000 0.000000
# 5 0.000000 0.000000 0.000000 0.000000 0.034649 0.000000
# 6 0.000000 0.000000 0.000000 0.000000 0.000000 0.009457
#
#
# Mechanical properties :
#
#
# Convention : Reuss Voigt Hill
#
# Bulk Modulus (GPa) = 24.90751 47.20521 36.05636
# Shear Modulus (GPa) = 26.01097 44.70234 35.35666
#
# Velocity S-wave (km/s) = 3.53311 4.63174 4.11922
# Velocity P-wave (km/s) = 5.34763 7.15948 6.31883
#
# Compressibility (1/GPa) = 0.04014853
#
# Stress axis : x y z
#
# Youngs Moduli (GPa) = 47.72430 110.03450 46.08746
#
# Poissons Ratio (x) = 0.77948 -0.34173
# Poissons Ratio (y) = 0.33808 0.28235
# Poissons Ratio (z) = -0.35387 0.67413
#
# Static dielectric constant tensor:
#      x y z
#    x 1.765680 0.000000 0.000000 
#    y 0.000000 1.718630 0.000000 
#    z 0.000000 0.000000 1.893260 
# 
# From -- ./inp_files/2660.got.cif
#   From: 2010.05.17/outbox.cif.g08.bks.cpg/sg62_2_cif.got.tgz:2660.got - 2010.06.03 15:25:27.
