data_PCOD9466132
_publ_section_title
;
Structure prediction by ZEFSAII (Michael W. Deem and Ramdas Pophale) SiO2 
 PCOD9466132
Probable space group: P N M A
;
_chemical_formula_sum "Si O2"
_cell_formula_units_Z 56
_cell_length_a 20.400763
_cell_length_b 18.361102
_cell_length_c 6.513860
_cell_angle_alpha 90.000000
_cell_angle_beta 90.000000
_cell_angle_gamma 90.000000
_cell_volume 2439.964873
_symmetry_space_group_name_H-M "P N M A"
_symmetry_group_IT_number 62
_symmetry_cell_setting 'orthorhombic'
loop_
_space_group_symop_operation_xyz
x,y,z
1/2-x,-y,1/2+z
1/2+x,1/2-y,1/2-z
-x,1/2+y,-z
-x,-y,-z
1/2+x,y,1/2-z
1/2-x,1/2+y,1/2+z
x,1/2-y,z
loop_
_atom_site_type_symbol
_atom_site_label
_atom_site_fract_x
_atom_site_fract_y
_atom_site_fract_z
Si Si1 0.733491 0.426537 0.974933
Si Si2 0.664812 0.570968 0.126596
Si Si3 0.428958 0.462139 0.537702
Si Si4 0.337336 0.667451 0.745121
Si Si5 0.121723 0.398146 0.840732
Si Si6 0.040244 0.333926 0.525357
Si Si7 0.903340 0.335437 0.289930
O O1 0.796837 0.410404 0.838334
O O2 0.675970 0.396478 0.831818
O O3 0.711099 0.508471 0.028461
O O4 0.722755 0.382297 0.183927
O O5 0.595229 0.544440 0.225598
O O6 0.648706 0.629550 0.950731
O O7 0.500000 0.500000 0.500000
O O8 0.380555 0.522448 0.438761
O O9 0.418092 0.387946 0.405972
O O10 0.322353 0.750000 0.799431
O O11 0.355712 0.658274 0.510128
O O12 0.405165 0.645107 0.857346
O O13 0.053409 0.379729 0.729752
O O14 0.052622 0.250000 0.582904
O O15 0.970529 0.337873 0.420594
O O16 0.889738 0.250000 0.239105
#
# Coordination Sequence:
#
# PCOD9466132 Si02
#       7
#     8   8   8   8   8   8   8
#     4  11  25  42  69  96 133 182 236 292 351 422
#     4  12  26  46  70 100 138 186 245 296 361 436
#     4  12  25  41  72 104 136 185 242 294 354 433
#     4  10  21  39  65 102 140 177 227 288 344 410
#     4  11  20  38  65  99 130 178 229 281 341 411
#     4   9  20  38  62  96 141 182 222 276 349 420
#     4  11  26  46  68 103 148 188 231 299 366 431
#
# _framework density 22.951150999999999
#
# number of rings (size 3 to 8) (size 9 to 14) (size 15 to 20)
#    0.000    1.143    2.857    3.000    2.000    2.857 
#    0.000    5.000    0.000    0.000    0.000    0.000 
#    0.000    0.000    0.000    0.000    0.000    0.000 
#
# Total GULP energy -312662.731806 kJ/mol
# GULP energy per Si atom -5583.263068 kJ/mol
# Density = 2.289891 g / cm^3
# Si number density = 22.951151 Si / 1000 Ang^3
#
#
#
# Elastic Constant Matrix: (Units=GPa)
#
#
# Indices 1 2 3 4 5 6 
#
# 1 87.1131 27.8002 22.5689 0.0000 0.0000 0.0000
# 2 27.8002 110.9664 37.2582 0.0000 0.0000 0.0000
# 3 22.5689 37.2582 73.6556 0.0000 0.0000 0.0000
# 4 0.0000 0.0000 0.0000 44.4329 0.0000 0.0000
# 5 0.0000 0.0000 0.0000 0.0000 43.7526 0.0000
# 6 0.0000 0.0000 0.0000 0.0000 0.0000 20.9468
#
#
#
# Elastic Compliance Matrix: (Units=1/GPa)
#
#
# Indices 1 2 3 4 5 6 
#
# 1 0.012939 -0.002301 -0.002801 0.000000 0.000000 0.000000
# 2 -0.002301 0.011265 -0.004993 0.000000 0.000000 0.000000
# 3 -0.002801 -0.004993 0.016961 0.000000 0.000000 0.000000
# 4 0.000000 0.000000 0.000000 0.022506 0.000000 0.000000
# 5 0.000000 0.000000 0.000000 0.000000 0.022856 0.000000
# 6 0.000000 0.000000 0.000000 0.000000 0.000000 0.047740
#
#
# Mechanical properties :
#
#
# Convention : Reuss Voigt Hill
#
# Bulk Modulus (GPa) = 47.67674 49.66554 48.67114
# Shear Modulus (GPa) = 30.96973 34.10029 32.53501
#
# Velocity S-wave (km/s) = 3.67737 3.85876 3.76916
# Velocity P-wave (km/s) = 6.23289 6.44515 6.33991
#
# Compressibility (1/GPa) = 0.02097459
#
# Stress axis : x y z
#
# Youngs Moduli (GPa) = 77.28377 88.77243 58.96029
#
# Poissons Ratio (x) = 0.20429 0.16513
# Poissons Ratio (y) = 0.17785 0.29439
# Poissons Ratio (z) = 0.21645 0.44325
#
# Static dielectric constant tensor:
#      x y z
#    x 1.955980 0.000000 0.000000 
#    y 0.000000 1.858120 0.000000 
#    z 0.000000 0.000000 1.919430 
# 
# From -- ./inp_files/2825.got.cif
#   From: 2010.05.17/outbox.cif.g08.bks.cpg/sg62_2_cif.got.tgz:2825.got - 2010.06.03 15:25:27.
