data_PCOD9466136
_publ_section_title
;
Structure prediction by ZEFSAII (Michael W. Deem and Ramdas Pophale) SiO2 
 PCOD9466136
Probable space group: P N M A
;
_chemical_formula_sum "Si O2"
_cell_formula_units_Z 48
_cell_length_a 17.156057
_cell_length_b 19.436393
_cell_length_c 6.959766
_cell_angle_alpha 90.000000
_cell_angle_beta 90.000000
_cell_angle_gamma 90.000000
_cell_volume 2320.746961
_symmetry_space_group_name_H-M "P N M A"
_symmetry_group_IT_number 62
_symmetry_cell_setting 'orthorhombic'
loop_
_space_group_symop_operation_xyz
x,y,z
1/2-x,-y,1/2+z
1/2+x,1/2-y,1/2-z
-x,1/2+y,-z
-x,-y,-z
1/2+x,y,1/2-z
1/2-x,1/2+y,1/2+z
x,1/2-y,z
loop_
_atom_site_type_symbol
_atom_site_label
_atom_site_fract_x
_atom_site_fract_y
_atom_site_fract_z
Si Si1 0.954067 0.078908 0.836932
Si Si2 0.070683 0.074250 0.184764
Si Si3 0.698882 0.916477 0.597112
Si Si4 0.741434 0.069540 0.479742
Si Si5 0.206627 0.329460 0.674371
Si Si6 0.029913 0.330261 0.535287
O O1 0.880443 0.087460 0.977061
O O2 0.966550 0.135290 0.674337
O O3 0.945613 0.003361 0.744591
O O4 0.027588 0.079697 0.980218
O O5 0.161860 0.081899 0.140213
O O6 0.039350 0.128637 0.336954
O O7 0.690512 0.916496 0.826826
O O8 0.751654 0.854701 0.519466
O O9 0.738430 0.990342 0.546954
O O10 0.737986 0.119848 0.660533
O O11 0.223345 0.250000 0.717657
O O12 0.114048 0.336865 0.641700
O O13 0.014781 0.250000 0.502398
#
# Coordination Sequence:
#
# PCOD9466136 Si02
#       6
#     8   8   8   8   8   8
#     4  10  23  40  61  95 127 159 206 274 314 360
#     4  10  21  39  65  93 118 163 217 254 311 377
#     4  11  23  39  66  94 126 163 214 265 318 373
#     4  11  21  40  66  92 123 168 214 263 312 380
#     4  11  24  40  63  94 128 167 213 261 316 381
#     4  11  23  40  64  91 127 169 207 254 314 384
#
# _framework density 20.682995999999999
#
# number of rings (size 3 to 8) (size 9 to 14) (size 15 to 20)
#    0.000    1.333    5.000    0.500    0.000    4.000 
#    0.000    0.000    0.000    0.000    0.000    0.000 
#    0.000    0.000    0.000    0.000    0.000    0.000 
#
# Total GULP energy -268335.425918 kJ/mol
# GULP energy per Si atom -5590.321373 kJ/mol
# Density = 2.063592 g / cm^3
# Si number density = 20.682996 Si / 1000 Ang^3
#
#
#
# Elastic Constant Matrix: (Units=GPa)
#
#
# Indices 1 2 3 4 5 6 
#
# 1 26.7939 13.2592 -6.1590 0.0000 0.0000 0.0000
# 2 13.2592 91.6308 18.2607 0.0000 0.0000 0.0000
# 3 -6.1590 18.2607 48.1379 0.0000 0.0000 0.0000
# 4 0.0000 0.0000 0.0000 31.5991 0.0000 0.0000
# 5 0.0000 0.0000 0.0000 0.0000 33.4611 0.0000
# 6 0.0000 0.0000 0.0000 0.0000 0.0000 20.9487
#
#
#
# Elastic Compliance Matrix: (Units=1/GPa)
#
#
# Indices 1 2 3 4 5 6 
#
# 1 0.043226 -0.007959 0.008550 0.000000 0.000000 0.000000
# 2 -0.007959 0.013271 -0.006053 0.000000 0.000000 0.000000
# 3 0.008550 -0.006053 0.024164 0.000000 0.000000 0.000000
# 4 0.000000 0.000000 0.000000 0.031646 0.000000 0.000000
# 5 0.000000 0.000000 0.000000 0.000000 0.029885 0.000000
# 6 0.000000 0.000000 0.000000 0.000000 0.000000 0.047736
#
#
# Mechanical properties :
#
#
# Convention : Reuss Voigt Hill
#
# Bulk Modulus (GPa) = 14.33958 24.14270 19.24114
# Shear Modulus (GPa) = 22.31177 26.61524 24.46350
#
# Velocity S-wave (km/s) = 3.28800 3.59112 3.44289
# Velocity P-wave (km/s) = 4.62197 5.37521 5.01276
#
# Compressibility (1/GPa) = 0.06973705
#
# Stress axis : x y z
#
# Youngs Moduli (GPa) = 23.13439 75.35116 41.38472
#
# Poissons Ratio (x) = 0.59970 -0.35382
# Poissons Ratio (y) = 0.18412 0.25048
# Poissons Ratio (z) = -0.19779 0.45607
#
# Static dielectric constant tensor:
#      x y z
#    x 1.785290 0.000000 0.000000 
#    y 0.000000 1.695970 0.000000 
#    z 0.000000 0.000000 1.737550 
# 
# From -- ./inp_files/2207.got.cif
#   From: 2010.05.17/outbox.cif.g08.bks.cpg/sg62_2_cif.got.tgz:2207.got - 2010.06.03 15:25:27.
