data_PCOD9466085
_publ_section_title
;
Structure prediction by ZEFSAII (Michael W. Deem and Ramdas Pophale) SiO2 
 PCOD9466085
Probable space group: P N M A
;
_chemical_formula_sum "Si O2"
_cell_formula_units_Z 48
_cell_length_a 17.605346
_cell_length_b 15.922374
_cell_length_c 8.161443
_cell_angle_alpha 90.000000
_cell_angle_beta 90.000000
_cell_angle_gamma 90.000000
_cell_volume 2287.806752
_symmetry_space_group_name_H-M "P N M A"
_symmetry_group_IT_number 62
_symmetry_cell_setting 'orthorhombic'
loop_
_space_group_symop_operation_xyz
x,y,z
1/2-x,-y,1/2+z
1/2+x,1/2-y,1/2-z
-x,1/2+y,-z
-x,-y,-z
1/2+x,y,1/2-z
1/2-x,1/2+y,1/2+z
x,1/2-y,z
loop_
_atom_site_type_symbol
_atom_site_label
_atom_site_fract_x
_atom_site_fract_y
_atom_site_fract_z
Si Si1 0.865742 0.501320 0.779970
Si Si2 0.115634 0.154241 0.732059
Si Si3 0.290828 0.504377 0.362262
Si Si4 0.977956 0.908725 0.572008
Si Si5 0.117140 0.843682 0.760420
Si Si6 0.958440 0.343861 0.882765
O O1 0.799676 0.498489 0.645153
O O2 0.925796 0.572272 0.730190
O O3 0.911914 0.414537 0.788511
O O4 0.824886 0.511333 0.955273
O O5 0.142992 0.250000 0.743987
O O6 0.072584 0.139378 0.560638
O O7 0.047865 0.139545 0.863413
O O8 0.179303 0.085000 0.762382
O O9 0.323509 0.419424 0.279392
O O10 0.054879 0.862521 0.622210
O O11 0.000000 0.000000 0.500000
O O12 0.150175 0.750000 0.741168
O O13 0.070627 0.845378 0.931670
O O14 0.945190 0.250000 0.816572
#
# Coordination Sequence:
#
# PCOD9466085 Si02
#       6
#     8   8   8   8   8   8
#     4  11  23  39  62  88 123 165 201 254 311 366
#     4  11  22  38  61  90 122 159 204 253 302 360
#     4  11  23  40  61  88 125 162 203 250 313 371
#     4  12  21  37  63  91 122 159 206 251 301 358
#     4  10  21  39  62  88 120 159 200 250 302 361
#     4   9  19  37  61  88 117 156 206 250 300 359
#
# _framework density 20.980793999999999
#
# number of rings (size 3 to 8) (size 9 to 14) (size 15 to 20)
#    0.000    1.333    3.333    2.500    0.000    3.333 
#    0.000    6.667    0.000    0.000    0.000    0.000 
#    0.000    0.000    0.000    0.000    0.000    0.000 
#
# Total GULP energy -268337.580613 kJ/mol
# GULP energy per Si atom -5590.366263 kJ/mol
# Density = 2.093304 g / cm^3
# Si number density = 20.980794 Si / 1000 Ang^3
#
#
#
# Elastic Constant Matrix: (Units=GPa)
#
#
# Indices 1 2 3 4 5 6 
#
# 1 36.5833 28.4769 -6.4570 0.0000 0.0000 0.0000
# 2 28.4769 106.9913 11.3881 0.0000 0.0000 0.0000
# 3 -6.4570 11.3881 50.5625 0.0000 0.0000 0.0000
# 4 0.0000 0.0000 0.0000 26.3907 0.0000 0.0000
# 5 0.0000 0.0000 0.0000 0.0000 35.9463 0.0000
# 6 0.0000 0.0000 0.0000 0.0000 0.0000 2.6073
#
#
#
# Elastic Compliance Matrix: (Units=1/GPa)
#
#
# Indices 1 2 3 4 5 6 
#
# 1 0.036792 -0.010546 0.007074 0.000000 0.000000 0.000000
# 2 -0.010546 0.012599 -0.004184 0.000000 0.000000 0.000000
# 3 0.007074 -0.004184 0.021623 0.000000 0.000000 0.000000
# 4 0.000000 0.000000 0.000000 0.037892 0.000000 0.000000
# 5 0.000000 0.000000 0.000000 0.000000 0.027819 0.000000
# 6 0.000000 0.000000 0.000000 0.000000 0.000000 0.383532
#
#
# Mechanical properties :
#
#
# Convention : Reuss Voigt Hill
#
# Bulk Modulus (GPa) = 17.95277 28.99480 23.47379
# Shear Modulus (GPa) = 9.02304 23.70414 16.36359
#
# Velocity S-wave (km/s) = 2.07604 3.36490 2.79576
# Velocity P-wave (km/s) = 3.78444 5.38019 4.65126
#
# Compressibility (1/GPa) = 0.05570170
#
# Stress axis : x y z
#
# Youngs Moduli (GPa) = 27.17970 79.37294 46.24653
#
# Poissons Ratio (x) = 0.83703 -0.32713
# Poissons Ratio (y) = 0.28663 0.19351
# Poissons Ratio (z) = -0.19226 0.33212
#
# Static dielectric constant tensor:
#      x y z
#    x 1.713370 0.000000 0.000000 
#    y 0.000000 1.741120 0.000000 
#    z 0.000000 0.000000 1.793680 
# 
# From -- ./inp_files/6470.got.cif
#   From: 2010.05.17/outbox.cif.g08.bks.cpg/sg62_4_cif.got.tgz:6470.got - 2010.06.03 15:25:27.
