data_PCOD9466118
_publ_section_title
;
Structure prediction by ZEFSAII (Michael W. Deem and Ramdas Pophale) SiO2 
 PCOD9466118
Probable space group: P N M A
;
_chemical_formula_sum "Si O2"
_cell_formula_units_Z 48
_cell_length_a 9.654377
_cell_length_b 26.550717
_cell_length_c 8.055777
_cell_angle_alpha 90.000000
_cell_angle_beta 90.000000
_cell_angle_gamma 90.000000
_cell_volume 2064.942406
_symmetry_space_group_name_H-M "P N M A"
_symmetry_group_IT_number 62
_symmetry_cell_setting 'orthorhombic'
loop_
_space_group_symop_operation_xyz
x,y,z
1/2-x,-y,1/2+z
1/2+x,1/2-y,1/2-z
-x,1/2+y,-z
-x,-y,-z
1/2+x,y,1/2-z
1/2-x,1/2+y,1/2+z
x,1/2-y,z
loop_
_atom_site_type_symbol
_atom_site_label
_atom_site_fract_x
_atom_site_fract_y
_atom_site_fract_z
Si Si1 0.310701 0.550682 0.197994
Si Si2 0.731850 0.142035 0.045129
Si Si3 0.897841 0.191940 0.754915
Si Si4 0.343699 0.642493 0.411004
Si Si5 0.992729 0.127028 0.243675
Si Si6 0.547934 0.489511 0.309613
O O1 0.301822 0.585923 0.361086
O O2 0.464205 0.528901 0.195500
O O3 0.207591 0.503988 0.205167
O O4 0.266873 0.588171 0.050460
O O5 0.575259 0.150862 0.103263
O O6 0.833667 0.138360 0.203757
O O7 0.802320 0.180715 0.917931
O O8 0.936037 0.250000 0.745076
O O9 0.793454 0.175358 0.609969
O O10 0.036501 0.159267 0.779846
O O11 0.422445 0.645450 0.582564
O O12 0.014340 0.066863 0.244318
O O13 0.500000 0.500000 0.500000
#
# Coordination Sequence:
#
# PCOD9466118 Si02
#       6
#     8   8   8   8   8   8
#     4  11  22  40  59  87 121 166 210 253 296 350
#     4  10  23  39  57  85 121 159 197 253 307 360
#     4  10  21  41  66  91 114 151 200 252 314 383
#     4  10  21  39  64  87 124 154 199 257 308 360
#     4  11  22  39  57  88 125 162 202 246 307 350
#     4  12  22  38  59  87 125 166 216 253 285 358
#
# _framework density 23.245200000000001
#
# number of rings (size 3 to 8) (size 9 to 14) (size 15 to 20)
#    0.000    1.333    3.333    3.500    0.000    4.667 
#    0.000    4.167    0.000    0.000    0.000    0.000 
#    0.000    0.000    0.000    0.000    0.000    0.000 
#
# Total GULP energy -268473.150194 kJ/mol
# GULP energy per Si atom -5593.190629 kJ/mol
# Density = 2.319229 g / cm^3
# Si number density = 23.245200 Si / 1000 Ang^3
#
#
#
# Elastic Constant Matrix: (Units=GPa)
#
#
# Indices 1 2 3 4 5 6 
#
# 1 100.9856 -0.2501 16.0383 0.0000 0.0000 0.0000
# 2 -0.2501 51.1588 -4.6540 0.0000 0.0000 0.0000
# 3 16.0383 -4.6540 41.1860 0.0000 0.0000 0.0000
# 4 0.0000 0.0000 0.0000 11.7446 0.0000 0.0000
# 5 0.0000 0.0000 0.0000 0.0000 41.4670 0.0000
# 6 0.0000 0.0000 0.0000 0.0000 0.0000 22.4593
#
#
#
# Elastic Compliance Matrix: (Units=1/GPa)
#
#
# Indices 1 2 3 4 5 6 
#
# 1 0.010561 -0.000326 -0.004149 0.000000 0.000000 0.000000
# 2 -0.000326 0.019760 0.002360 0.000000 0.000000 0.000000
# 3 -0.004149 0.002360 0.026162 0.000000 0.000000 0.000000
# 4 0.000000 0.000000 0.000000 0.085145 0.000000 0.000000
# 5 0.000000 0.000000 0.000000 0.000000 0.024116 0.000000
# 6 0.000000 0.000000 0.000000 0.000000 0.000000 0.044525
#
#
# Mechanical properties :
#
#
# Convention : Reuss Voigt Hill
#
# Bulk Modulus (GPa) = 19.13783 23.95541 21.54662
# Shear Modulus (GPa) = 21.55942 27.28060 24.42001
#
# Velocity S-wave (km/s) = 3.04876 3.42950 3.24472
# Velocity P-wave (km/s) = 4.54358 5.09999 4.82980
#
# Compressibility (1/GPa) = 0.05225253
#
# Stress axis : x y z
#
# Youngs Moduli (GPa) = 94.69195 50.60716 38.22267
#
# Poissons Ratio (x) = 0.01649 0.15859
# Poissons Ratio (y) = 0.03085 -0.09020
# Poissons Ratio (z) = 0.39290 -0.11942
#
# Static dielectric constant tensor:
#      x y z
#    x 1.869970 0.000000 0.000000 
#    y 0.000000 1.829910 0.000000 
#    z 0.000000 0.000000 1.960430 
# 
# From -- ./inp_files/4514.got.cif
#   From: 2010.05.17/outbox.cif.g08.bks.cpg/sg62_3_cif.got.tgz:4514.got - 2010.06.03 15:25:27.
