data_PCOD9466354
_publ_section_title
;
Structure prediction by ZEFSAII (Michael W. Deem and Ramdas Pophale) SiO2 
 PCOD9466354
Probable space group: P N M A
;
_chemical_formula_sum "Si O2"
_cell_formula_units_Z 48
_cell_length_a 18.045244
_cell_length_b 16.882140
_cell_length_c 7.625496
_cell_angle_alpha 90.000000
_cell_angle_beta 90.000000
_cell_angle_gamma 90.000000
_cell_volume 2323.048911
_symmetry_space_group_name_H-M "P N M A"
_symmetry_group_IT_number 62
_symmetry_cell_setting 'orthorhombic'
loop_
_space_group_symop_operation_xyz
x,y,z
1/2-x,-y,1/2+z
1/2+x,1/2-y,1/2-z
-x,1/2+y,-z
-x,-y,-z
1/2+x,y,1/2-z
1/2-x,1/2+y,1/2+z
x,1/2-y,z
loop_
_atom_site_type_symbol
_atom_site_label
_atom_site_fract_x
_atom_site_fract_y
_atom_site_fract_z
Si Si1 0.550693 0.843049 0.933700
Si Si2 0.215568 0.341297 0.815003
Si Si3 0.856318 0.572344 0.880024
Si Si4 0.009770 0.657798 0.950137
Si Si5 0.375088 0.656753 0.977698
Si Si6 0.125221 0.606048 0.233091
O O1 0.570647 0.750000 0.961189
O O2 0.555893 0.861166 0.727124
O O3 0.463710 0.852446 0.977347
O O4 0.596566 0.896461 0.066624
O O5 0.198699 0.250000 0.862798
O O6 0.160080 0.367664 0.661230
O O7 0.298040 0.347120 0.739398
O O8 0.203709 0.397072 0.981847
O O9 0.844193 0.611009 0.689607
O O10 0.860351 0.479197 0.851026
O O11 0.936031 0.604980 0.948383
O O12 0.986803 0.750000 0.934336
O O13 0.060886 0.646420 0.118439
O O14 0.359120 0.750000 0.955624
#
# Coordination Sequence:
#
# PCOD9466354 Si02
#       6
#     8   8   8   8   8   8
#     4   9  19  38  63  90 119 157 206 257 308 368
#     4  11  24  41  62  88 125 174 217 251 307 382
#     4  11  24  40  64  91 128 165 207 259 318 374
#     4  10  21  41  66  92 122 163 215 260 308 379
#     4   9  20  40  66  89 117 166 218 254 298 373
#     4  12  25  37  62  95 132 160 203 269 327 363
#
# _framework density 20.662500999999999
#
# number of rings (size 3 to 8) (size 9 to 14) (size 15 to 20)
#    0.000    1.667    0.000    5.500    2.333    6.667 
#    0.000    1.667    0.000    0.000    0.000    0.000 
#    0.000    0.000    0.000    0.000    0.000    0.000 
#
# Total GULP energy -268346.170097 kJ/mol
# GULP energy per Si atom -5590.545210 kJ/mol
# Density = 2.061547 g / cm^3
# Si number density = 20.662501 Si / 1000 Ang^3
#
#
#
# Elastic Constant Matrix: (Units=GPa)
#
#
# Indices 1 2 3 4 5 6 
#
# 1 18.9095 11.6561 16.7219 0.0000 0.0000 0.0000
# 2 11.6561 48.7650 22.8560 0.0000 0.0000 0.0000
# 3 16.7219 22.8560 66.6653 0.0000 0.0000 0.0000
# 4 0.0000 0.0000 0.0000 14.5438 0.0000 0.0000
# 5 0.0000 0.0000 0.0000 0.0000 12.0330 0.0000
# 6 0.0000 0.0000 0.0000 0.0000 0.0000 23.6708
#
#
#
# Elastic Compliance Matrix: (Units=1/GPa)
#
#
# Indices 1 2 3 4 5 6 
#
# 1 0.072161 -0.010443 -0.014520 0.000000 0.000000 0.000000
# 2 -0.010443 0.025944 -0.006275 0.000000 0.000000 0.000000
# 3 -0.014520 -0.006275 0.020794 0.000000 0.000000 0.000000
# 4 0.000000 0.000000 0.000000 0.068758 0.000000 0.000000
# 5 0.000000 0.000000 0.000000 0.000000 0.083104 0.000000
# 6 0.000000 0.000000 0.000000 0.000000 0.000000 0.042246
#
#
# Mechanical properties :
#
#
# Convention : Reuss Voigt Hill
#
# Bulk Modulus (GPa) = 17.72351 26.31196 22.01774
# Shear Modulus (GPa) = 12.68099 15.58992 14.13545
#
# Velocity S-wave (km/s) = 2.48002 2.74980 2.61839
# Velocity P-wave (km/s) = 4.09841 4.77951 4.45200
#
# Compressibility (1/GPa) = 0.05642222
#
# Stress axis : x y z
#
# Youngs Moduli (GPa) = 13.85791 38.54479 48.09101
#
# Poissons Ratio (x) = 0.40252 0.69829
# Poissons Ratio (y) = 0.14472 0.30179
# Poissons Ratio (z) = 0.20122 0.24188
#
# Static dielectric constant tensor:
#      x y z
#    x 1.724840 0.000000 0.000000 
#    y 0.000000 1.715000 0.000000 
#    z 0.000000 0.000000 1.736340 
# 
# From -- ./inp_files/7642.got.cif
#   From: 2010.05.17/outbox.cif.g08.bks.cpg/sg62_4_cif.got.tgz:7642.got - 2010.06.03 15:25:27.
