data_PCOD9466241
_publ_section_title
;
Structure prediction by ZEFSAII (Michael W. Deem and Ramdas Pophale) SiO2 
 PCOD9466241
Probable space group: P N M A
;
_chemical_formula_sum "Si O2"
_cell_formula_units_Z 64
_cell_length_a 31.015742
_cell_length_b 8.860040
_cell_length_c 12.030210
_cell_angle_alpha 90.000000
_cell_angle_beta 90.000000
_cell_angle_gamma 90.000000
_cell_volume 3305.910307
_symmetry_space_group_name_H-M "P N M A"
_symmetry_group_IT_number 62
_symmetry_cell_setting 'orthorhombic'
loop_
_space_group_symop_operation_xyz
x,y,z
1/2-x,-y,1/2+z
1/2+x,1/2-y,1/2-z
-x,1/2+y,-z
-x,-y,-z
1/2+x,y,1/2-z
1/2-x,1/2+y,1/2+z
x,1/2-y,z
loop_
_atom_site_type_symbol
_atom_site_label
_atom_site_fract_x
_atom_site_fract_y
_atom_site_fract_z
Si Si1 0.301924 0.429530 0.743275
Si Si2 0.382159 0.431051 0.585443
Si Si3 0.567613 0.071796 0.015231
Si Si4 0.551000 0.570142 0.788266
Si Si5 0.790985 0.427644 0.286128
Si Si6 0.956985 0.931329 0.767549
Si Si7 0.130658 0.429783 0.842728
Si Si8 0.340583 0.072904 0.986048
O O1 0.294732 0.250000 0.730043
O O2 0.340681 0.473540 0.660657
O O3 0.257576 0.514647 0.721933
O O4 0.317705 0.455814 0.868995
O O5 0.383287 0.250000 0.576138
O O6 0.424919 0.487755 0.648249
O O7 0.377542 0.503835 0.464795
O O8 0.559688 0.250000 0.002338
O O9 0.555176 0.027348 0.140507
O O10 0.617993 0.032127 0.002740
O O11 0.544979 0.982355 0.915505
O O12 0.557081 0.750000 0.786166
O O13 0.507584 0.532740 0.720408
O O14 0.592834 0.491507 0.737164
O O15 0.706861 0.750000 0.760707
O O16 0.823583 0.513709 0.204381
O O17 0.808918 0.450040 0.410724
O O18 0.951783 0.750000 0.778031
O O19 0.129568 0.250000 0.844763
O O20 0.354554 0.250000 0.987622
#
# Coordination Sequence:
#
# PCOD9466241 Si02
#       8
#     8   8   8   8   8   8   8   8
#     4  10  23  42  64  94 127 163 208 254 307 367
#     4  11  24  43  67  93 124 165 211 258 312 373
#     4  11  21  36  62  96 129 163 205 253 312 369
#     4  11  23  41  64  91 127 166 209 258 310 371
#     4  11  24  41  65  95 127 164 207 254 310 369
#     4  10  23  41  63  94 128 165 208 257 311 369
#     4  12  26  44  65  90 125 164 208 261 315 373
#     4  10  21  40  64  91 126 166 203 253 312 363
#
# _framework density 19.359266000000002
#
# number of rings (size 3 to 8) (size 9 to 14) (size 15 to 20)
#    0.000    1.250    2.500    3.000    1.750    4.000 
#    0.000    0.000    0.000    0.000    0.000    0.000 
#    0.000    0.000    0.000    0.000    0.000    0.000 
#
# Total GULP energy -357918.628037 kJ/mol
# GULP energy per Si atom -5592.478563 kJ/mol
# Density = 1.931520 g / cm^3
# Si number density = 19.359266 Si / 1000 Ang^3
#
#
#
# Elastic Constant Matrix: (Units=GPa)
#
#
# Indices 1 2 3 4 5 6 
#
# 1 55.4880 18.6967 -12.7706 0.0000 0.0000 0.0000
# 2 18.6967 51.7839 18.9718 0.0000 0.0000 0.0000
# 3 -12.7706 18.9718 64.5795 0.0000 0.0000 0.0000
# 4 0.0000 0.0000 0.0000 28.7120 0.0000 0.0000
# 5 0.0000 0.0000 0.0000 0.0000 10.1394 0.0000
# 6 0.0000 0.0000 0.0000 0.0000 0.0000 26.1921
#
#
#
# Elastic Compliance Matrix: (Units=1/GPa)
#
#
# Indices 1 2 3 4 5 6 
#
# 1 0.023777 -0.011551 0.008095 0.000000 0.000000 0.000000
# 2 -0.011551 0.027251 -0.010290 0.000000 0.000000 0.000000
# 3 0.008095 -0.010290 0.020109 0.000000 0.000000 0.000000
# 4 0.000000 0.000000 0.000000 0.034829 0.000000 0.000000
# 5 0.000000 0.000000 0.000000 0.000000 0.098625 0.000000
# 6 0.000000 0.000000 0.000000 0.000000 0.000000 0.038179
#
#
# Mechanical properties :
#
#
# Convention : Reuss Voigt Hill
#
# Bulk Modulus (GPa) = 22.91145 24.62746 23.76945
# Shear Modulus (GPa) = 17.55560 22.80559 20.18059
#
# Velocity S-wave (km/s) = 3.01463 3.43595 3.23216
# Velocity P-wave (km/s) = 4.89672 5.33759 5.12191
#
# Compressibility (1/GPa) = 0.04364631
#
# Stress axis : x y z
#
# Youngs Moduli (GPa) = 42.05744 36.69557 49.73020
#
# Poissons Ratio (x) = 0.42385 -0.40257
# Poissons Ratio (y) = 0.48579 0.51172
# Poissons Ratio (z) = -0.34046 0.37759
#
# Static dielectric constant tensor:
#      x y z
#    x 1.656610 0.000000 0.000000 
#    y 0.000000 1.649840 0.000000 
#    z 0.000000 0.000000 1.655970 
# 
# From -- ./inp_files/15785.got.cif
#   From: 2010.05.17/outbox.cif.g08.bks.cpg/sg62_8_cif.got.tgz:15785.got - 2010.06.03 15:25:27.
