data_PCOD9466092
_publ_section_title
;
Structure prediction by ZEFSAII (Michael W. Deem and Ramdas Pophale) SiO2 
 PCOD9466092
Probable space group: P N M A
;
_chemical_formula_sum "Si O2"
_cell_formula_units_Z 60
_cell_length_a 18.970361
_cell_length_b 9.472221
_cell_length_c 16.499123
_cell_angle_alpha 90.000000
_cell_angle_beta 90.000000
_cell_angle_gamma 90.000000
_cell_volume 2964.751366
_symmetry_space_group_name_H-M "P N M A"
_symmetry_group_IT_number 62
_symmetry_cell_setting 'orthorhombic'
loop_
_space_group_symop_operation_xyz
x,y,z
1/2-x,-y,1/2+z
1/2+x,1/2-y,1/2-z
-x,1/2+y,-z
-x,-y,-z
1/2+x,y,1/2-z
1/2-x,1/2+y,1/2+z
x,1/2-y,z
loop_
_atom_site_type_symbol
_atom_site_label
_atom_site_fract_x
_atom_site_fract_y
_atom_site_fract_z
Si Si1 0.486403 0.750000 0.532747
Si Si2 0.413982 0.493864 0.432046
Si Si3 0.560984 0.081223 0.187188
Si Si4 0.686154 0.087113 0.714199
Si Si5 0.193168 0.081563 0.210853
Si Si6 0.286436 0.085977 0.546008
Si Si7 0.074005 0.414289 0.646498
Si Si8 0.862698 0.921113 0.522094
O O1 0.449112 0.627123 0.475837
O O2 0.527769 0.875124 0.584231
O O3 0.368357 0.539988 0.354682
O O4 0.357626 0.426614 0.494778
O O5 0.550783 0.250000 0.182992
O O6 0.613400 0.051728 0.261225
O O7 0.487321 0.002697 0.187788
O O8 0.602172 0.033403 0.105584
O O9 0.707404 0.250000 0.700671
O O10 0.643843 0.079533 0.799031
O O11 0.753056 0.985912 0.724533
O O12 0.202382 0.250000 0.207759
O O13 0.207186 0.010821 0.124681
O O14 0.275881 0.250000 0.570155
O O15 0.218684 0.039884 0.493118
O O16 0.052779 0.250000 0.641396
O O17 0.092732 0.467228 0.556450
O O18 0.863806 0.750000 0.522772
#
# Coordination Sequence:
#
# PCOD9466092 Si02
#       8
#     4   8   8   8   8   8   8   8
#     4  10  24  42  60  92 132 162 222 274 326 392
#     4  11  23  43  66  95 126 177 219 272 333 394
#     4  10  22  40  60  92 124 160 201 255 316 377
#     4  11  23  43  67  92 129 171 217 263 324 398
#     4  11  25  41  62  96 132 163 215 273 319 382
#     4  11  22  42  68  90 124 174 216 265 328 389
#     4  10  21  39  62  91 123 164 208 252 311 374
#     4   9  18  38  65  87 120 160 206 252 307 382
#
# _framework density 20.237783
#
# number of rings (size 3 to 8) (size 9 to 14) (size 15 to 20)
#    0.000    1.600    2.667    1.600    1.867    4.800 
#    2.400    0.667    0.000    0.000    0.000    0.000 
#    0.000    0.000    0.000    0.000    0.000    0.000 
#
# Total GULP energy -334215.468790 kJ/mol
# GULP energy per Si atom -5570.257813 kJ/mol
# Density = 2.019172 g / cm^3
# Si number density = 20.237783 Si / 1000 Ang^3
#
#
#
# Elastic Constant Matrix: (Units=GPa)
#
#
# Indices 1 2 3 4 5 6 
#
# 1 37.5394 26.4150 -2.3752 0.0000 0.0000 0.0000
# 2 26.4150 72.2080 3.9021 0.0000 0.0000 0.0000
# 3 -2.3752 3.9021 36.6733 0.0000 0.0000 0.0000
# 4 0.0000 0.0000 0.0000 24.3372 0.0000 0.0000
# 5 0.0000 0.0000 0.0000 0.0000 20.5596 0.0000
# 6 0.0000 0.0000 0.0000 0.0000 0.0000 39.5470
#
#
#
# Elastic Compliance Matrix: (Units=1/GPa)
#
#
# Indices 1 2 3 4 5 6 
#
# 1 0.036391 -0.013517 0.003795 0.000000 0.000000 0.000000
# 2 -0.013517 0.018950 -0.002892 0.000000 0.000000 0.000000
# 3 0.003795 -0.002892 0.027821 0.000000 0.000000 0.000000
# 4 0.000000 0.000000 0.000000 0.041089 0.000000 0.000000
# 5 0.000000 0.000000 0.000000 0.000000 0.048639 0.000000
# 6 0.000000 0.000000 0.000000 0.000000 0.000000 0.025286
#
#
# Mechanical properties :
#
#
# Convention : Reuss Voigt Hill
#
# Bulk Modulus (GPa) = 17.26111 22.47829 19.86970
# Shear Modulus (GPa) = 20.60021 24.78734 22.69378
#
# Velocity S-wave (km/s) = 3.19393 3.50352 3.35230
# Velocity P-wave (km/s) = 4.70630 5.24380 4.98230
#
# Compressibility (1/GPa) = 0.05793371
#
# Stress axis : x y z
#
# Youngs Moduli (GPa) = 27.47969 52.77030 35.94376
#
# Poissons Ratio (x) = 0.71332 -0.13641
# Poissons Ratio (y) = 0.37145 0.10394
# Poissons Ratio (z) = -0.10429 0.15260
#
# Static dielectric constant tensor:
#      x y z
#    x 1.722880 0.000000 0.000000 
#    y 0.000000 1.834630 0.000000 
#    z 0.000000 0.000000 1.730680 
# 
# From -- ./inp_files/24361.got.cif
#   From: 2010.05.17/outbox.cif.g08.bks.cpg/sg62_13_cif.got.tgz:24361.got - 2010.06.03 15:25:27.
