data_PCOD9466158
_publ_section_title
;
Structure prediction by ZEFSAII (Michael W. Deem and Ramdas Pophale) SiO2 
 PCOD9466158
Probable space group: P N M A
;
_chemical_formula_sum "Si O2"
_cell_formula_units_Z 56
_cell_length_a 11.224420
_cell_length_b 15.304214
_cell_length_c 13.815934
_cell_angle_alpha 90.000000
_cell_angle_beta 90.000000
_cell_angle_gamma 90.000000
_cell_volume 2373.313932
_symmetry_space_group_name_H-M "P N M A"
_symmetry_group_IT_number 62
_symmetry_cell_setting 'orthorhombic'
loop_
_space_group_symop_operation_xyz
x,y,z
1/2-x,-y,1/2+z
1/2+x,1/2-y,1/2-z
-x,1/2+y,-z
-x,-y,-z
1/2+x,y,1/2-z
1/2-x,1/2+y,1/2+z
x,1/2-y,z
loop_
_atom_site_type_symbol
_atom_site_label
_atom_site_fract_x
_atom_site_fract_y
_atom_site_fract_z
Si Si1 0.366740 0.608981 0.057436
Si Si2 0.334307 0.350378 0.701533
Si Si3 0.498062 0.897032 0.480116
Si Si4 0.428976 0.089659 0.070184
Si Si5 0.197651 0.656017 0.883476
Si Si6 0.681870 0.345669 0.392149
Si Si7 0.862780 0.533366 0.718168
O O1 0.298750 0.634951 0.155414
O O2 0.365869 0.503505 0.048031
O O3 0.501503 0.627507 0.023208
O O4 0.285957 0.652337 0.975272
O O5 0.345276 0.250000 0.733162
O O6 0.431943 0.368906 0.616057
O O7 0.357366 0.429399 0.775196
O O8 0.570516 0.854285 0.568816
O O9 0.365394 0.862948 0.498779
O O10 0.500000 0.000000 0.500000
O O11 0.324120 0.149025 0.107910
O O12 0.529214 0.067438 0.151193
O O13 0.210522 0.750000 0.834315
O O14 0.239691 0.574076 0.821673
O O15 0.644088 0.250000 0.358855
O O16 0.631810 0.422272 0.323515
#
# Coordination Sequence:
#
# PCOD9466158 Si02
#       7
#     8   8   8   8   8   8   8
#     4   9  18  40  68  92 120 161 214 258 312 380
#     4  11  22  42  69  94 123 168 221 263 315 386
#     4  11  21  40  66  92 129 172 214 270 318 376
#     4  10  22  40  63  94 130 170 203 261 325 380
#     4  10  21  39  67  97 125 163 216 265 324 386
#     4  12  24  37  60  96 132 167 212 262 319 385
#     4  11  24  41  62  93 134 169 208 262 331 378
#
# _framework density 23.595697999999999
#
# number of rings (size 3 to 8) (size 9 to 14) (size 15 to 20)
#    0.000    1.429    2.857    3.857    2.000    3.429 
#    0.000    1.429    0.000   12.000    0.000    0.000 
#    0.000    0.000    0.000    0.000    0.000    0.000 
#
# Total GULP energy -312719.845697 kJ/mol
# GULP energy per Si atom -5584.282959 kJ/mol
# Density = 2.354199 g / cm^3
# Si number density = 23.595698 Si / 1000 Ang^3
#
#
#
# Elastic Constant Matrix: (Units=GPa)
#
#
# Indices 1 2 3 4 5 6 
#
# 1 89.4572 38.3284 28.2426 0.0000 0.0000 0.0000
# 2 38.3284 152.9468 15.4552 0.0000 0.0000 0.0000
# 3 28.2426 15.4552 43.6039 0.0000 0.0000 0.0000
# 4 0.0000 0.0000 0.0000 14.1787 0.0000 0.0000
# 5 0.0000 0.0000 0.0000 0.0000 27.8766 0.0000
# 6 0.0000 0.0000 0.0000 0.0000 0.0000 64.7074
#
#
#
# Elastic Compliance Matrix: (Units=1/GPa)
#
#
# Indices 1 2 3 4 5 6 
#
# 1 0.015215 -0.002922 -0.008819 0.000000 0.000000 0.000000
# 2 -0.002922 0.007342 -0.000710 0.000000 0.000000 0.000000
# 3 -0.008819 -0.000710 0.028898 0.000000 0.000000 0.000000
# 4 0.000000 0.000000 0.000000 0.070528 0.000000 0.000000
# 5 0.000000 0.000000 0.000000 0.000000 0.035872 0.000000
# 6 0.000000 0.000000 0.000000 0.000000 0.000000 0.015454
#
#
# Mechanical properties :
#
#
# Convention : Reuss Voigt Hill
#
# Bulk Modulus (GPa) = 37.66070 50.00671 43.83370
# Shear Modulus (GPa) = 24.14739 34.95131 29.54935
#
# Velocity S-wave (km/s) = 3.20250 3.85289 3.54265
# Velocity P-wave (km/s) = 5.44703 6.40563 5.94568
#
# Compressibility (1/GPa) = 0.02655288
#
# Stress axis : x y z
#
# Youngs Moduli (GPa) = 65.72631 136.20033 34.60496
#
# Poissons Ratio (x) = 0.39793 0.30518
# Poissons Ratio (y) = 0.19203 0.02457
# Poissons Ratio (z) = 0.57965 0.09670
#
# Static dielectric constant tensor:
#      x y z
#    x 1.939820 0.000000 0.000000 
#    y 0.000000 1.876170 0.000000 
#    z 0.000000 0.000000 1.976400 
# 
# From -- ./inp_files/18107.got.cif
#   From: 2010.05.17/outbox.cif.g08.bks.cpg/sg62_10_cif.got.tgz:18107.got - 2010.06.03 15:25:27.
