data_PCOD9466279
_publ_section_title
;
Structure prediction by ZEFSAII (Michael W. Deem and Ramdas Pophale) SiO2 
 PCOD9466279
Probable space group: P N M A
;
_chemical_formula_sum "Si O2"
_cell_formula_units_Z 48
_cell_length_a 5.605141
_cell_length_b 22.917254
_cell_length_c 15.241785
_cell_angle_alpha 90.000000
_cell_angle_beta 90.000000
_cell_angle_gamma 90.000000
_cell_volume 1957.874957
_symmetry_space_group_name_H-M "P N M A"
_symmetry_group_IT_number 62
_symmetry_cell_setting 'orthorhombic'
loop_
_space_group_symop_operation_xyz
x,y,z
1/2-x,-y,1/2+z
1/2+x,1/2-y,1/2-z
-x,1/2+y,-z
-x,-y,-z
1/2+x,y,1/2-z
1/2-x,1/2+y,1/2+z
x,1/2-y,z
loop_
_atom_site_type_symbol
_atom_site_label
_atom_site_fract_x
_atom_site_fract_y
_atom_site_fract_z
Si Si1 0.442954 0.750000 0.669902
Si Si2 0.402647 0.870242 0.032929
Si Si3 0.972341 0.358936 0.727244
Si Si4 0.942822 0.750000 0.565662
Si Si5 0.743185 0.549785 0.947077
Si Si6 0.030716 0.940343 0.114273
Si Si7 0.058595 0.116883 0.208343
O O1 0.694287 0.750000 0.618719
O O2 0.442414 0.812815 0.717244
O O3 0.194416 0.750000 0.616539
O O4 0.547569 0.872269 0.124537
O O5 0.137725 0.884271 0.064239
O O6 0.436313 0.807951 0.991554
O O7 0.494452 0.918106 0.963712
O O8 0.728700 0.328589 0.757867
O O9 0.007844 0.417208 0.787939
O O10 0.767573 0.490589 0.891918
O O11 0.901298 0.595700 0.891235
O O12 0.833442 0.536879 0.046375
O O13 0.301463 0.095757 0.256871
#
# Coordination Sequence:
#
# PCOD9466279 Si02
#       7
#     4   8   8   4   8   8   8
#     4  12  24  49  72 101 142 187 235 298 359 431
#     4  11  23  43  69 103 140 187 237 301 360 434
#     4  10  21  40  66  95 136 177 222 284 345 412
#     4  12  26  41  80 103 138 189 245 292 361 431
#     4  11  23  43  70 101 139 188 238 293 360 437
#     4  10  23  42  70 100 140 191 234 290 366 428
#     4  12  27  45  70 105 143 184 240 296 361 430
#
# _framework density 24.516378
#
# number of rings (size 3 to 8) (size 9 to 14) (size 15 to 20)
#    0.000    1.000    3.333    3.000    2.333    2.667 
#    0.000    3.333    0.000    0.000    0.000    0.000 
#    0.000    0.000    0.000    0.000    0.000    0.000 
#
# Total GULP energy -268002.088240 kJ/mol
# GULP energy per Si atom -5583.376838 kJ/mol
# Density = 2.446058 g / cm^3
# Si number density = 24.516378 Si / 1000 Ang^3
#
#
#
# Elastic Constant Matrix: (Units=GPa)
#
#
# Indices 1 2 3 4 5 6 
#
# 1 148.0525 18.4566 54.9064 0.0000 0.0000 0.0000
# 2 18.4566 67.8475 19.5569 0.0000 0.0000 0.0000
# 3 54.9064 19.5569 94.7553 0.0000 0.0000 0.0000
# 4 0.0000 0.0000 0.0000 28.9522 0.0000 0.0000
# 5 0.0000 0.0000 0.0000 0.0000 54.6773 0.0000
# 6 0.0000 0.0000 0.0000 0.0000 0.0000 13.3057
#
#
#
# Elastic Compliance Matrix: (Units=1/GPa)
#
#
# Indices 1 2 3 4 5 6 
#
# 1 0.008662 -0.000967 -0.004820 0.000000 0.000000 0.000000
# 2 -0.000967 0.015779 -0.002696 0.000000 0.000000 0.000000
# 3 -0.004820 -0.002696 0.013903 0.000000 0.000000 0.000000
# 4 0.000000 0.000000 0.000000 0.034540 0.000000 0.000000
# 5 0.000000 0.000000 0.000000 0.000000 0.018289 0.000000
# 6 0.000000 0.000000 0.000000 0.000000 0.000000 0.075156
#
#
# Mechanical properties :
#
#
# Convention : Reuss Voigt Hill
#
# Bulk Modulus (GPa) = 46.77727 55.16612 50.97169
# Shear Modulus (GPa) = 26.25748 33.90274 30.08011
#
# Velocity S-wave (km/s) = 3.27619 3.72272 3.50657
# Velocity P-wave (km/s) = 5.78210 6.40537 6.10170
#
# Compressibility (1/GPa) = 0.02137791
#
# Stress axis : x y z
#
# Youngs Moduli (GPa) = 115.44140 63.37438 71.92747
#
# Poissons Ratio (x) = 0.06129 0.34668
# Poissons Ratio (y) = 0.11165 0.19394
# Poissons Ratio (z) = 0.55641 0.17088
#
# Static dielectric constant tensor:
#      x y z
#    x 2.064310 0.000000 0.000000 
#    y 0.000000 1.909440 0.000000 
#    z 0.000000 0.000000 1.960330 
# 
# From -- ./inp_files/16242.got.cif
#   From: 2010.05.17/outbox.cif.g08.bks.cpg/sg62_9_cif.got.tgz:16242.got - 2010.06.03 15:25:27.
