data_PCOD9466757
_publ_section_title
;
Structure prediction by ZEFSAII (Michael W. Deem and Ramdas Pophale) SiO2 
 PCOD9466757
Probable space group: P N M A
;
_chemical_formula_sum "Si O2"
_cell_formula_units_Z 64
_cell_length_a 23.959201
_cell_length_b 14.897803
_cell_length_c 8.980115
_cell_angle_alpha 90.000000
_cell_angle_beta 90.000000
_cell_angle_gamma 90.000000
_cell_volume 3205.357368
_symmetry_space_group_name_H-M "P N M A"
_symmetry_group_IT_number 62
_symmetry_cell_setting 'orthorhombic'
loop_
_space_group_symop_operation_xyz
x,y,z
1/2-x,-y,1/2+z
1/2+x,1/2-y,1/2-z
-x,1/2+y,-z
-x,-y,-z
1/2+x,y,1/2-z
1/2-x,1/2+y,1/2+z
x,1/2-y,z
loop_
_atom_site_type_symbol
_atom_site_label
_atom_site_fract_x
_atom_site_fract_y
_atom_site_fract_z
Si Si1 0.025834 0.847130 0.767911
Si Si2 0.823618 0.978705 0.433899
Si Si3 0.869981 0.441259 0.727800
Si Si4 0.057665 0.049595 0.048296
Si Si5 0.217838 0.851768 0.076633
Si Si6 0.482475 0.400606 0.941158
Si Si7 0.649612 0.643941 0.730635
Si Si8 0.910064 0.854565 0.253251
O O1 0.028939 0.750000 0.840556
O O2 0.023584 0.845061 0.590939
O O3 0.086134 0.890248 0.801900
O O4 0.968887 0.889845 0.822066
O O5 0.765087 0.927706 0.421187
O O6 0.867743 0.915244 0.348440
O O7 0.841248 0.994370 0.605331
O O8 0.825644 0.075993 0.352813
O O9 0.895519 0.490652 0.872117
O O10 0.825512 0.370883 0.790274
O O11 0.923944 0.402377 0.643680
O O12 0.082206 0.105277 0.911609
O O13 0.000000 0.000000 0.000000
O O14 0.240401 0.750000 0.088228
O O15 0.185109 0.858573 0.919941
O O16 0.530217 0.365058 0.833651
O O17 0.500000 0.500000 0.000000
O O18 0.646275 0.750000 0.777435
O O19 0.893890 0.750000 0.249650
#
# Coordination Sequence:
#
# PCOD9466757 Si02
#       8
#     8   8   8   8   8   8   8   8
#     4  11  21  36  59  90 130 163 201 262 321 391
#     4  12  23  46  69  92 133 174 227 279 340 388
#     4  12  24  39  71  95 127 178 223 275 340 405
#     4  12  22  39  61  92 133 173 214 265 328 394
#     4  11  26  45  65  95 129 171 227 284 340 394
#     4  12  20  40  62  96 131 171 211 267 336 402
#     4  10  22  41  67  95 126 169 219 271 330 396
#     4  12  25  39  64  97 135 180 223 267 333 407
#
# _framework density 19.966573
#
# number of rings (size 3 to 8) (size 9 to 14) (size 15 to 20)
#    0.000    0.500    5.000    4.125    0.000    1.500 
#    0.000    1.875    0.000    4.500    0.000    0.000 
#    0.000    0.000    0.000    0.000    0.000    0.000 
#
# Total GULP energy -357551.626388 kJ/mol
# GULP energy per Si atom -5586.744162 kJ/mol
# Density = 1.992113 g / cm^3
# Si number density = 19.966573 Si / 1000 Ang^3
#
#
#
# Elastic Constant Matrix: (Units=GPa)
#
#
# Indices 1 2 3 4 5 6 
#
# 1 68.7302 16.1525 20.9384 0.0000 0.0000 0.0000
# 2 16.1525 102.5520 31.3868 0.0000 0.0000 0.0000
# 3 20.9384 31.3868 103.5715 0.0000 0.0000 0.0000
# 4 0.0000 0.0000 0.0000 -1.9266 0.0000 0.0000
# 5 0.0000 0.0000 0.0000 0.0000 25.8396 0.0000
# 6 0.0000 0.0000 0.0000 0.0000 0.0000 3.8555
#
#
#
# Elastic Compliance Matrix: (Units=1/GPa)
#
#
# Indices 1 2 3 4 5 6 
#
# 1 0.015757 -0.001661 -0.002682 0.000000 0.000000 0.000000
# 2 -0.001661 0.010923 -0.002974 0.000000 0.000000 0.000000
# 3 -0.002682 -0.002974 0.011099 0.000000 0.000000 0.000000
# 4 0.000000 0.000000 0.000000 -0.519039 0.000000 0.000000
# 5 0.000000 0.000000 0.000000 0.000000 0.038700 0.000000
# 6 0.000000 0.000000 0.000000 0.000000 0.000000 0.259372
#
#
# Mechanical properties :
#
#
# Convention : Reuss Voigt Hill
#
# Bulk Modulus (GPa) = 43.20783 45.75657 44.48220
# Shear Modulus (GPa) = -31.08705 19.31209 -5.88748
#
# Velocity S-wave (km/s) = -3.95011 3.11339 -1.71903
# Velocity P-wave (km/s) = 0.93947 5.99088 4.28796
#
# Compressibility (1/GPa) = 0.02314395
#
# Stress axis : x y z
#
# Youngs Moduli (GPa) = 63.46343 91.54919 90.09998
#
# Poissons Ratio (x) = 0.15206 0.24166
# Poissons Ratio (y) = 0.10541 0.26799
# Poissons Ratio (z) = 0.17022 0.27230
#
# Static dielectric constant tensor:
#      x y z
#    x 1.698890 0.000000 0.000000 
#    y 0.000000 2.069240 0.000000 
#    z 0.000000 0.000000 1.700580 
# 
# From -- ./inp_files/9497.got.cif
#   From: 2010.05.17/outbox.cif.g08.bks.cpg/sg62_5_cif.got.tgz:9497.got - 2010.06.03 15:25:27.
