data_PCOD9466288
_publ_section_title
;
Structure prediction by ZEFSAII (Michael W. Deem and Ramdas Pophale) SiO2 
 PCOD9466288
Probable space group: P N M A
;
_chemical_formula_sum "Si O2"
_cell_formula_units_Z 48
_cell_length_a 15.171553
_cell_length_b 8.836819
_cell_length_c 18.971731
_cell_angle_alpha 90.000000
_cell_angle_beta 90.000000
_cell_angle_gamma 90.000000
_cell_volume 2543.507113
_symmetry_space_group_name_H-M "P N M A"
_symmetry_group_IT_number 62
_symmetry_cell_setting 'orthorhombic'
loop_
_space_group_symop_operation_xyz
x,y,z
1/2-x,-y,1/2+z
1/2+x,1/2-y,1/2-z
-x,1/2+y,-z
-x,-y,-z
1/2+x,y,1/2-z
1/2-x,1/2+y,1/2+z
x,1/2-y,z
loop_
_atom_site_type_symbol
_atom_site_label
_atom_site_fract_x
_atom_site_fract_y
_atom_site_fract_z
Si Si1 0.259600 0.068032 0.081431
Si Si2 0.998905 0.068607 0.219911
Si Si3 0.363011 0.429296 0.828733
Si Si4 0.795073 0.069860 0.254425
Si Si5 0.057709 0.067947 0.062465
Si Si6 0.405809 0.930328 0.979780
O O1 0.268595 0.250000 0.072852
O O2 0.273274 0.035048 0.164173
O O3 0.160599 0.023900 0.059198
O O4 0.332754 0.986514 0.035051
O O5 0.014692 0.250000 0.226667
O O6 0.020880 0.025084 0.139569
O O7 0.897195 0.039590 0.238223
O O8 0.062916 0.983916 0.273557
O O9 0.367170 0.250000 0.838535
O O10 0.269734 0.478714 0.796012
O O11 0.379228 0.511195 0.902680
O O12 0.779345 0.250000 0.244245
O O13 0.053862 0.250000 0.058194
O O14 0.000000 0.000000 0.000000
O O15 0.411688 0.750000 0.980161
O O16 0.500000 0.000000 0.000000
#
# Coordination Sequence:
#
# PCOD9466288 Si02
#       6
#     8   8   8   8   8   8
#     4  10  21  41  65  93 130 170 209 261 319 374
#     4  10  21  41  67  93 122 166 215 261 318 377
#     4  12  25  41  64  96 131 165 210 261 314 378
#     4  10  21  40  67  93 124 165 209 258 315 376
#     4  10  22  39  60  90 129 168 213 260 314 374
#     4  12  26  44  67  94 128 167 212 262 318 381
#
# _framework density 18.871580999999999
#
# number of rings (size 3 to 8) (size 9 to 14) (size 15 to 20)
#    0.000    1.333    1.667    4.000    2.333    4.000 
#    0.000    0.000    0.000    0.000    0.000    0.000 
#    0.000    0.000    0.000    0.000    0.000    0.000 
#
# Total GULP energy -268488.418749 kJ/mol
# GULP energy per Si atom -5593.508724 kJ/mol
# Density = 1.882863 g / cm^3
# Si number density = 18.871581 Si / 1000 Ang^3
#
#
#
# Elastic Constant Matrix: (Units=GPa)
#
#
# Indices 1 2 3 4 5 6 
#
# 1 122.3062 51.1538 40.7800 0.0000 0.0000 0.0000
# 2 51.1538 71.1875 42.6355 0.0000 0.0000 0.0000
# 3 40.7800 42.6355 90.0427 0.0000 0.0000 0.0000
# 4 0.0000 0.0000 0.0000 34.4358 0.0000 0.0000
# 5 0.0000 0.0000 0.0000 0.0000 39.0472 0.0000
# 6 0.0000 0.0000 0.0000 0.0000 0.0000 34.2950
#
#
#
# Elastic Compliance Matrix: (Units=1/GPa)
#
#
# Indices 1 2 3 4 5 6 
#
# 1 0.011911 -0.007438 -0.001873 0.000000 0.000000 0.000000
# 2 -0.007438 0.024252 -0.008115 0.000000 0.000000 0.000000
# 3 -0.001873 -0.008115 0.015797 0.000000 0.000000 0.000000
# 4 0.000000 0.000000 0.000000 0.029040 0.000000 0.000000
# 5 0.000000 0.000000 0.000000 0.000000 0.025610 0.000000
# 6 0.000000 0.000000 0.000000 0.000000 0.000000 0.029159
#
#
# Mechanical properties :
#
#
# Convention : Reuss Voigt Hill
#
# Bulk Modulus (GPa) = 58.44842 61.40833 59.92838
# Shear Modulus (GPa) = 28.35716 31.48675 29.92195
#
# Velocity S-wave (km/s) = 3.88059 4.08913 3.98622
# Velocity P-wave (km/s) = 7.14966 7.40982 7.28090
#
# Compressibility (1/GPa) = 0.01710910
#
# Stress axis : x y z
#
# Youngs Moduli (GPa) = 83.95331 41.23355 63.30492
#
# Poissons Ratio (x) = 0.30668 0.11857
# Poissons Ratio (y) = 0.62441 0.51372
# Poissons Ratio (z) = 0.15724 0.33461
#
# Static dielectric constant tensor:
#      x y z
#    x 1.627990 0.000000 0.000000 
#    y 0.000000 1.635880 0.000000 
#    z 0.000000 0.000000 1.619140 
# 
# From -- ./inp_files/23667.got.cif
#   From: 2010.05.17/outbox.cif.g08.bks.cpg/sg62_12_cif.got.tgz:23667.got - 2010.06.03 15:25:27.
