data_PCOD9466793
_publ_section_title
;
Structure prediction by ZEFSAII (Michael W. Deem and Ramdas Pophale) SiO2 
 PCOD9466793
Probable space group: P N M A
;
_chemical_formula_sum "Si O2"
_cell_formula_units_Z 64
_cell_length_a 23.467684
_cell_length_b 9.064620
_cell_length_c 15.417326
_cell_angle_alpha 90.000000
_cell_angle_beta 90.000000
_cell_angle_gamma 90.000000
_cell_volume 3279.660506
_symmetry_space_group_name_H-M "P N M A"
_symmetry_group_IT_number 62
_symmetry_cell_setting 'orthorhombic'
loop_
_space_group_symop_operation_xyz
x,y,z
1/2-x,-y,1/2+z
1/2+x,1/2-y,1/2-z
-x,1/2+y,-z
-x,-y,-z
1/2+x,y,1/2-z
1/2-x,1/2+y,1/2+z
x,1/2-y,z
loop_
_atom_site_type_symbol
_atom_site_label
_atom_site_fract_x
_atom_site_fract_y
_atom_site_fract_z
Si Si1 0.549473 0.071853 0.558628
Si Si2 0.633913 0.083152 0.140119
Si Si3 0.333481 0.422558 0.501039
Si Si4 0.214243 0.575068 0.492554
Si Si5 0.309628 0.574865 0.175361
Si Si6 0.068163 0.073450 0.744095
Si Si7 0.181669 0.581665 0.208045
Si Si8 0.001886 0.419551 0.408074
O O1 0.547970 0.250000 0.550699
O O2 0.544509 0.033350 0.661026
O O3 0.500000 0.000000 0.500000
O O4 0.610705 0.008830 0.529536
O O5 0.653993 0.250000 0.123857
O O6 0.567304 0.077027 0.121529
O O7 0.645934 0.033377 0.237641
O O8 0.668472 0.974110 0.078227
O O9 0.335727 0.250000 0.475526
O O10 0.274752 0.498417 0.471551
O O11 0.330362 0.427640 0.605928
O O12 0.221308 0.750000 0.495437
O O13 0.192841 0.514877 0.585816
O O14 0.312233 0.750000 0.153293
O O15 0.364582 0.538614 0.232847
O O16 0.248945 0.552347 0.221430
O O17 0.062341 0.250000 0.735361
O O18 0.035770 0.997099 0.665160
O O19 0.169336 0.750000 0.235767
O O20 0.983522 0.250000 0.418096
O O21 0.000000 0.500000 0.500000
#
# Coordination Sequence:
#
# PCOD9466793 Si02
#       8
#     8   8   8   8   8   8   8   8
#     4  11  25  43  65  93 126 170 217 267 321 378
#     4  11  24  39  58  88 124 159 202 256 310 365
#     4  10  22  42  65  91 124 163 205 257 315 372
#     4  11  22  37  61  93 125 162 203 248 308 380
#     4   9  19  39  62  88 123 158 198 252 311 368
#     4  10  23  42  66  93 126 168 212 260 316 377
#     4   9  20  37  61  89 120 157 198 247 310 375
#     4  11  25  43  64  92 126 166 211 261 314 373
#
# _framework density 19.514215
#
# number of rings (size 3 to 8) (size 9 to 14) (size 15 to 20)
#    0.000    1.750    0.000    4.125    3.500    9.000 
#    0.000    0.000    0.000    0.000    0.000    0.000 
#    0.000    0.000    0.000    0.000    0.000    0.000 
#
# Total GULP energy -357674.088085 kJ/mol
# GULP energy per Si atom -5588.657626 kJ/mol
# Density = 1.946980 g / cm^3
# Si number density = 19.514215 Si / 1000 Ang^3
#
#
#
# Elastic Constant Matrix: (Units=GPa)
#
#
# Indices 1 2 3 4 5 6 
#
# 1 70.9776 40.7799 44.1476 0.0000 0.0000 0.0000
# 2 40.7799 79.1286 45.9472 0.0000 0.0000 0.0000
# 3 44.1476 45.9472 83.2750 0.0000 0.0000 0.0000
# 4 0.0000 0.0000 0.0000 33.5466 0.0000 0.0000
# 5 0.0000 0.0000 0.0000 0.0000 28.1802 0.0000
# 6 0.0000 0.0000 0.0000 0.0000 0.0000 33.9785
#
#
#
# Elastic Compliance Matrix: (Units=1/GPa)
#
#
# Indices 1 2 3 4 5 6 
#
# 1 0.023497 -0.007175 -0.008498 0.000000 0.000000 0.000000
# 2 -0.007175 0.020786 -0.007665 0.000000 0.000000 0.000000
# 3 -0.008498 -0.007665 0.020743 0.000000 0.000000 0.000000
# 4 0.000000 0.000000 0.000000 0.029809 0.000000 0.000000
# 5 0.000000 0.000000 0.000000 0.000000 0.035486 0.000000
# 6 0.000000 0.000000 0.000000 0.000000 0.000000 0.029430
#
#
# Mechanical properties :
#
#
# Convention : Reuss Voigt Hill
#
# Bulk Modulus (GPa) = 54.49610 55.01451 54.75530
# Shear Modulus (GPa) = 23.52451 25.97480 24.74966
#
# Velocity S-wave (km/s) = 3.47581 3.65234 3.56517
# Velocity P-wave (km/s) = 6.64043 6.78523 6.71322
#
# Compressibility (1/GPa) = 0.01834994
#
# Stress axis : x y z
#
# Youngs Moduli (GPa) = 42.55870 48.10869 48.20968
#
# Poissons Ratio (x) = 0.34518 0.40968
# Poissons Ratio (y) = 0.30536 0.36953
# Poissons Ratio (z) = 0.36166 0.36876
#
# Static dielectric constant tensor:
#      x y z
#    x 1.665970 0.000000 0.000000 
#    y 0.000000 1.663650 0.000000 
#    z 0.000000 0.000000 1.667810 
# 
# From -- ./inp_files/20862.got.cif
#   From: 2010.05.17/outbox.cif.g08.bks.cpg/sg62_11_cif.got.tgz:20862.got - 2010.06.03 15:25:27.
