data_PCOD9466891
_publ_section_title
;
Structure prediction by ZEFSAII (Michael W. Deem and Ramdas Pophale) SiO2 
 PCOD9466891
Probable space group: P N M A
;
_chemical_formula_sum "Si O2"
_cell_formula_units_Z 56
_cell_length_a 29.546544
_cell_length_b 17.358772
_cell_length_c 5.595415
_cell_angle_alpha 90.000000
_cell_angle_beta 90.000000
_cell_angle_gamma 90.000000
_cell_volume 2869.842027
_symmetry_space_group_name_H-M "P N M A"
_symmetry_group_IT_number 62
_symmetry_cell_setting 'orthorhombic'
loop_
_space_group_symop_operation_xyz
x,y,z
1/2-x,-y,1/2+z
1/2+x,1/2-y,1/2-z
-x,1/2+y,-z
-x,-y,-z
1/2+x,y,1/2-z
1/2-x,1/2+y,1/2+z
x,1/2-y,z
loop_
_atom_site_type_symbol
_atom_site_label
_atom_site_fract_x
_atom_site_fract_y
_atom_site_fract_z
Si Si1 0.015903 0.161412 0.445951
Si Si2 0.590863 0.454287 0.980982
Si Si3 0.713381 0.919443 0.543532
Si Si4 0.318208 0.250000 0.476485
Si Si5 0.063777 0.617402 0.301643
Si Si6 0.873035 0.250000 0.522062
Si Si7 0.541719 0.545969 0.619670
Si Si8 0.809938 0.002324 0.543317
O O1 0.015861 0.250000 0.373249
O O2 0.064937 0.123514 0.456353
O O3 0.987281 0.151103 0.690910
O O4 0.984728 0.103369 0.295613
O O5 0.574980 0.480241 0.718236
O O6 0.569845 0.528563 0.118581
O O7 0.643771 0.454693 0.025895
O O8 0.710450 0.827947 0.536276
O O9 0.764715 0.950940 0.542202
O O10 0.690827 0.951618 0.296578
O O11 0.692173 0.947647 0.797374
O O12 0.342342 0.250000 0.737325
O O13 0.349478 0.250000 0.236424
O O14 0.095789 0.674383 0.443696
O O15 0.073320 0.605807 0.024233
O O16 0.500000 0.500000 0.500000
#
# Coordination Sequence:
#
# PCOD9466891 Si02
#       8
#     8   8   8   4   8   4   8   8
#     4  11  23  38  54  85 127 165 209 262 315 363
#     4  11  22  38  62  88 117 164 222 258 304 393
#     4  10  22  44  66  93 131 158 205 263 340 387
#     4  12  24  42  62  99 127 166 196 268 334 392
#     4  11  22  38  57  87 125 163 208 259 314 370
#     4  12  28  36  64  99 131 160 212 268 326 378
#     4  11  21  38  60  83 117 172 216 257 317 374
#     4  10  23  41  68  96 120 168 211 264 313 393
#
# _framework density 19.513269999999999
#
# number of rings (size 3 to 8) (size 9 to 14) (size 15 to 20)
#    0.000    1.143    3.571    3.429    9.000    0.000 
#    1.286    0.000    0.000    0.000    3.714    0.000 
#    0.000    0.000    0.000    0.000    0.000    0.000 
#
# Total GULP energy -311893.008486 kJ/mol
# GULP energy per Si atom -5569.518009 kJ/mol
# Density = 1.946886 g / cm^3
# Si number density = 19.513270 Si / 1000 Ang^3
#
#
#
# Elastic Constant Matrix: (Units=GPa)
#
#
# Indices 1 2 3 4 5 6 
#
# 1 60.0152 19.9001 17.0410 0.0000 0.0000 0.0000
# 2 19.9001 93.3765 20.6538 0.0000 0.0000 0.0000
# 3 17.0410 20.6538 82.9028 0.0000 0.0000 0.0000
# 4 0.0000 0.0000 0.0000 21.1134 0.0000 0.0000
# 5 0.0000 0.0000 0.0000 0.0000 21.5214 0.0000
# 6 0.0000 0.0000 0.0000 0.0000 0.0000 27.5725
#
#
#
# Elastic Compliance Matrix: (Units=1/GPa)
#
#
# Indices 1 2 3 4 5 6 
#
# 1 0.018610 -0.003302 -0.003003 0.000000 0.000000 0.000000
# 2 -0.003302 0.011920 -0.002291 0.000000 0.000000 0.000000
# 3 -0.003003 -0.002291 0.013250 0.000000 0.000000 0.000000
# 4 0.000000 0.000000 0.000000 0.047363 0.000000 0.000000
# 5 0.000000 0.000000 0.000000 0.000000 0.046465 0.000000
# 6 0.000000 0.000000 0.000000 0.000000 0.000000 0.036268
#
#
# Mechanical properties :
#
#
# Convention : Reuss Voigt Hill
#
# Bulk Modulus (GPa) = 37.60969 39.05381 38.33175
# Shear Modulus (GPa) = 25.00867 25.95476 25.48171
#
# Velocity S-wave (km/s) = 3.58386 3.65102 3.61760
# Velocity P-wave (km/s) = 6.03665 6.15067 6.09393
#
# Compressibility (1/GPa) = 0.02658889
#
# Stress axis : x y z
#
# Youngs Moduli (GPa) = 53.73475 83.89440 75.47018
#
# Poissons Ratio (x) = 0.27701 0.22662
# Poissons Ratio (y) = 0.17743 0.17289
# Poissons Ratio (z) = 0.16135 0.19219
#
# Static dielectric constant tensor:
#      x y z
#    x 1.754070 0.000000 0.000000 
#    y 0.000000 1.667820 0.000000 
#    z 0.000000 0.000000 2.018870 
# 
# From -- ./inp_files/3622.got.cif
#   From: 2010.05.17/outbox.cif.g08.bks.cpg/sg62_2_cif.got.tgz:3622.got - 2010.06.03 15:25:27.
