data_PCOD9466625
_publ_section_title
;
Structure prediction by ZEFSAII (Michael W. Deem and Ramdas Pophale) SiO2 
 PCOD9466625
Probable space group: P N M A
;
_chemical_formula_sum "Si O2"
_cell_formula_units_Z 48
_cell_length_a 11.564282
_cell_length_b 9.541255
_cell_length_c 20.809240
_cell_angle_alpha 90.000000
_cell_angle_beta 90.000000
_cell_angle_gamma 90.000000
_cell_volume 2296.045001
_symmetry_space_group_name_H-M "P N M A"
_symmetry_group_IT_number 62
_symmetry_cell_setting 'orthorhombic'
loop_
_space_group_symop_operation_xyz
x,y,z
1/2-x,-y,1/2+z
1/2+x,1/2-y,1/2-z
-x,1/2+y,-z
-x,-y,-z
1/2+x,y,1/2-z
1/2-x,1/2+y,1/2+z
x,1/2-y,z
loop_
_atom_site_type_symbol
_atom_site_label
_atom_site_fract_x
_atom_site_fract_y
_atom_site_fract_z
Si Si1 0.404229 0.909787 0.333609
Si Si2 0.119044 0.912446 0.486772
Si Si3 0.938749 0.405398 0.658800
Si Si4 0.136261 0.586228 0.705713
Si Si5 0.665638 0.596635 0.298893
Si Si6 0.379831 0.920684 0.480340
O O1 0.363782 0.750000 0.320906
O O2 0.543139 0.905036 0.333123
O O3 0.368677 0.952161 0.404355
O O4 0.374418 0.011899 0.275238
O O5 0.102866 0.750000 0.508233
O O6 0.123614 0.910139 0.408868
O O7 0.250205 0.957798 0.508392
O O8 0.000000 0.000000 0.500000
O O9 0.993391 0.250000 0.664737
O O10 0.862016 0.419322 0.722756
O O11 0.033892 0.524930 0.662992
O O12 0.131172 0.750000 0.711626
O O13 0.255693 0.528970 0.678332
O O14 0.219485 0.750000 0.190691
O O15 0.393333 0.750000 0.487732
O O16 0.500000 0.000000 0.500000
#
# Coordination Sequence:
#
# PCOD9466625 Si02
#       6
#     8   8   8   8   8   8
#     4   9  19  37  58  77 104 147 194 232 272 334
#     4  10  22  40  62  87 116 152 196 244 291 342
#     4   9  19  37  58  77 104 148 195 232 271 332
#     4  11  21  31  50  83 118 145 175 227 289 341
#     4   9  17  32  55  79 105 142 186 228 274 336
#     4  10  22  41  63  87 115 150 195 245 293 343
#
# _framework density 20.905514
#
# number of rings (size 3 to 8) (size 9 to 14) (size 15 to 20)
#    0.000    2.333    0.000    3.500    0.000    8.667 
#    0.000    6.667    0.000    0.000    0.000    0.000 
#    0.000    0.000    0.000    0.000    0.000    0.000 
#
# Total GULP energy -267512.515026 kJ/mol
# GULP energy per Si atom -5573.177396 kJ/mol
# Density = 2.085793 g / cm^3
# Si number density = 20.905514 Si / 1000 Ang^3
#
#
#
# Elastic Constant Matrix: (Units=GPa)
#
#
# Indices 1 2 3 4 5 6 
#
# 1 154.1123 53.9008 17.8056 0.0000 0.0000 0.0000
# 2 53.9008 88.4413 6.1751 0.0000 0.0000 0.0000
# 3 17.8056 6.1751 42.5263 0.0000 0.0000 0.0000
# 4 0.0000 0.0000 0.0000 18.7982 0.0000 0.0000
# 5 0.0000 0.0000 0.0000 0.0000 -7.3546 0.0000
# 6 0.0000 0.0000 0.0000 0.0000 0.0000 8.6717
#
#
#
# Elastic Compliance Matrix: (Units=1/GPa)
#
#
# Indices 1 2 3 4 5 6 
#
# 1 0.008578 -0.005028 -0.002861 0.000000 0.000000 0.000000
# 2 -0.005028 0.014370 0.000019 0.000000 0.000000 0.000000
# 3 -0.002861 0.000019 0.024710 0.000000 0.000000 0.000000
# 4 0.000000 0.000000 0.000000 0.053197 0.000000 0.000000
# 5 0.000000 0.000000 0.000000 0.000000 -0.135969 0.000000
# 6 0.000000 0.000000 0.000000 0.000000 0.000000 0.115318
#
#
# Mechanical properties :
#
#
# Convention : Reuss Voigt Hill
#
# Bulk Modulus (GPa) = 31.33185 48.98254 40.15720
# Shear Modulus (GPa) = 46.91106 17.83627 32.37366
#
# Velocity S-wave (km/s) = 4.74218 2.92410 3.93946
# Velocity P-wave (km/s) = 6.70852 5.90608 6.32005
#
# Compressibility (1/GPa) = 0.03191640
#
# Stress axis : x y z
#
# Youngs Moduli (GPa) = 116.57813 69.58945 40.46903
#
# Poissons Ratio (x) = 0.34990 0.11580
# Poissons Ratio (y) = 0.58616 -0.00075
# Poissons Ratio (z) = 0.33358 -0.00129
#
# Static dielectric constant tensor:
#      x y z
#    x 1.868070 0.000000 0.000000 
#    y 0.000000 1.714940 0.000000 
#    z 0.000000 0.000000 1.751880 
# 
# From -- ./inp_files/29249.got.cif
#   From: 2010.05.17/outbox.cif.g08.bks.cpg/sg62_15_cif.got.tgz:29249.got - 2010.06.03 15:25:27.
