data_PCOD9466442
_publ_section_title
;
Structure prediction by ZEFSAII (Michael W. Deem and Ramdas Pophale) SiO2 
 PCOD9466442
Probable space group: P N M A
;
_chemical_formula_sum "Si O2"
_cell_formula_units_Z 32
_cell_length_a 8.286896
_cell_length_b 10.274133
_cell_length_c 14.697126
_cell_angle_alpha 90.000000
_cell_angle_beta 90.000000
_cell_angle_gamma 90.000000
_cell_volume 1251.323179
_symmetry_space_group_name_H-M "P N M A"
_symmetry_group_IT_number 62
_symmetry_cell_setting 'orthorhombic'
loop_
_space_group_symop_operation_xyz
x,y,z
1/2-x,-y,1/2+z
1/2+x,1/2-y,1/2-z
-x,1/2+y,-z
-x,-y,-z
1/2+x,y,1/2-z
1/2-x,1/2+y,1/2+z
x,1/2-y,z
loop_
_atom_site_type_symbol
_atom_site_label
_atom_site_fract_x
_atom_site_fract_y
_atom_site_fract_z
Si Si1 0.826800 0.956718 0.573684
Si Si2 0.513744 0.398924 0.415873
Si Si3 0.545123 0.250000 0.754894
Si Si4 0.742008 0.750000 0.110283
Si Si5 0.661629 0.485099 0.869606
O O1 0.667324 0.906789 0.624181
O O2 0.829584 0.912636 0.468617
O O3 0.804557 0.114360 0.564726
O O4 0.998005 0.930177 0.620209
O O5 0.500000 0.500000 0.500000
O O6 0.543159 0.250000 0.443717
O O7 0.667343 0.444765 0.357886
O O8 0.574850 0.250000 0.647464
O O9 0.369267 0.250000 0.798678
O O10 0.625252 0.379967 0.793899
#
# Coordination Sequence:
#
# PCOD9466442 Si02
#       5
#     8   8   4   4   8
#     4   9  20  36  58  87 123 159 210 257 310 362
#     4  10  22  34  56  92 124 158 202 255 321 367
#     4  10  22  38  62  98 127 166 210 264 321 375
#     4  10  22  38  62  98 127 166 210 264 321 375
#     4   9  20  36  58  87 123 159 210 257 310 362
#
# _framework density 25.572929999999999
#
# number of rings (size 3 to 8) (size 9 to 14) (size 15 to 20)
#    0.000    2.500    0.000    0.000   17.500    1.000 
#    0.000    0.000    0.000    1.500    0.000    0.000 
#    0.000    0.000    0.000    0.000    0.000    0.000 
#
# Total GULP energy -178860.093721 kJ/mol
# GULP energy per Si atom -5589.377929 kJ/mol
# Density = 2.551472 g / cm^3
# Si number density = 25.572930 Si / 1000 Ang^3
#
#
#
# Elastic Constant Matrix: (Units=GPa)
#
#
# Indices 1 2 3 4 5 6 
#
# 1 221.3529 17.3027 10.7287 0.0000 0.0000 0.0000
# 2 17.3027 93.2260 3.3040 0.0000 0.0000 0.0000
# 3 10.7287 3.3040 42.2395 0.0000 0.0000 0.0000
# 4 0.0000 0.0000 0.0000 16.3546 0.0000 0.0000
# 5 0.0000 0.0000 0.0000 0.0000 32.5644 0.0000
# 6 0.0000 0.0000 0.0000 0.0000 0.0000 20.5045
#
#
#
# Elastic Compliance Matrix: (Units=1/GPa)
#
#
# Indices 1 2 3 4 5 6 
#
# 1 0.004636 -0.000821 -0.001113 0.000000 0.000000 0.000000
# 2 -0.000821 0.010902 -0.000644 0.000000 0.000000 0.000000
# 3 -0.001113 -0.000644 0.024008 0.000000 0.000000 0.000000
# 4 0.000000 0.000000 0.000000 0.061145 0.000000 0.000000
# 5 0.000000 0.000000 0.000000 0.000000 0.030708 0.000000
# 6 0.000000 0.000000 0.000000 0.000000 0.000000 0.048770
#
#
# Mechanical properties :
#
#
# Convention : Reuss Voigt Hill
#
# Bulk Modulus (GPa) = 29.07954 46.60991 37.84472
# Shear Modulus (GPa) = 25.40804 35.58356 30.49580
#
# Velocity S-wave (km/s) = 3.15549 3.73427 3.45701
# Velocity P-wave (km/s) = 4.96709 6.07115 5.54666
#
# Compressibility (1/GPa) = 0.03438844
#
# Stress axis : x y z
#
# Youngs Moduli (GPa) = 215.71237 91.72776 41.65329
#
# Poissons Ratio (x) = 0.07530 0.04637
# Poissons Ratio (y) = 0.17709 0.02683
# Poissons Ratio (z) = 0.24015 0.05909
#
# Static dielectric constant tensor:
#      x y z
#    x 2.156860 0.000000 0.000000 
#    y 0.000000 1.958830 0.000000 
#    z 0.000000 0.000000 1.972990 
# 
# From -- ./inp_files/25558.got.cif
#   From: 2010.05.17/outbox.cif.g08.bks.cpg/sg62_13_cif.got.tgz:25558.got - 2010.06.03 15:25:27.
