data_PCOD9466184
_publ_section_title
;
Structure prediction by ZEFSAII (Michael W. Deem and Ramdas Pophale) SiO2 
 PCOD9466184
Probable space group: P N M A
;
_chemical_formula_sum "Si O2"
_cell_formula_units_Z 48
_cell_length_a 18.305058
_cell_length_b 8.601043
_cell_length_c 15.844790
_cell_angle_alpha 90.000000
_cell_angle_beta 90.000000
_cell_angle_gamma 90.000000
_cell_volume 2494.644791
_symmetry_space_group_name_H-M "P N M A"
_symmetry_group_IT_number 62
_symmetry_cell_setting 'orthorhombic'
loop_
_space_group_symop_operation_xyz
x,y,z
1/2-x,-y,1/2+z
1/2+x,1/2-y,1/2-z
-x,1/2+y,-z
-x,-y,-z
1/2+x,y,1/2-z
1/2-x,1/2+y,1/2+z
x,1/2-y,z
loop_
_atom_site_type_symbol
_atom_site_label
_atom_site_fract_x
_atom_site_fract_y
_atom_site_fract_z
Si Si1 0.039118 0.064384 0.583593
Si Si2 0.039341 0.062792 0.249288
Si Si3 0.296703 0.438486 0.083773
Si Si4 0.709704 0.062504 0.584349
Si Si5 0.040277 0.062918 0.917121
Si Si6 0.708889 0.437472 0.248674
O O1 0.035126 0.250000 0.583847
O O2 0.122984 0.009894 0.583958
O O3 0.000000 0.000000 0.500000
O O4 0.999382 0.998800 0.666577
O O5 0.036350 0.250000 0.248449
O O6 0.124302 0.013743 0.248655
O O7 0.998900 0.999198 0.166672
O O8 0.302928 0.250000 0.083794
O O9 0.251927 0.485448 0.167058
O O10 0.252249 0.485477 0.000262
O O11 0.710469 0.250000 0.586910
O O12 0.625190 0.012979 0.582532
O O13 0.750724 0.000249 0.666369
O O14 0.038058 0.250000 0.917718
O O15 0.000000 0.000000 0.000000
O O16 0.709802 0.250000 0.245906
#
# Coordination Sequence:
#
# PCOD9466184 Si02
#       6
#     8   8   8   8   8   8
#     4  12  25  41  61  89 121 157 200 247 297 355
#     4  11  23  41  63  90 122 158 199 246 296 354
#     4  10  21  40  62  85 116 156 195 241 297 351
#     4  10  22  39  60  86 118 153 196 245 294 348
#     4  11  23  40  62  91 123 159 200 245 295 353
#     4  10  22  39  61  87 117 153 196 242 294 351
#
# _framework density 19.241216999999999
#
# number of rings (size 3 to 8) (size 9 to 14) (size 15 to 20)
#    0.000    1.333    0.000    5.500    0.000   12.000 
#    0.000    1.667    0.000    0.000    0.000    0.000 
#    0.000    0.000    0.000    0.000    0.000    0.000 
#
# Total GULP energy -268535.416871 kJ/mol
# GULP energy per Si atom -5594.487851 kJ/mol
# Density = 1.919742 g / cm^3
# Si number density = 19.241217 Si / 1000 Ang^3
#
#
#
# Elastic Constant Matrix: (Units=GPa)
#
#
# Indices 1 2 3 4 5 6 
#
# 1 236.2981 58.9229 141.7233 0.0000 0.0000 0.0000
# 2 58.9229 57.2889 54.0115 0.0000 0.0000 0.0000
# 3 141.7233 54.0115 237.7453 0.0000 0.0000 0.0000
# 4 0.0000 0.0000 0.0000 37.9294 0.0000 0.0000
# 5 0.0000 0.0000 0.0000 0.0000 46.8000 0.0000
# 6 0.0000 0.0000 0.0000 0.0000 0.0000 28.8158
#
#
#
# Elastic Compliance Matrix: (Units=1/GPa)
#
#
# Indices 1 2 3 4 5 6 
#
# 1 0.007356 -0.004367 -0.003393 0.000000 0.000000 0.000000
# 2 -0.004367 0.024806 -0.003032 0.000000 0.000000 0.000000
# 3 -0.003393 -0.003032 0.006918 0.000000 0.000000 0.000000
# 4 0.000000 0.000000 0.000000 0.026365 0.000000 0.000000
# 5 0.000000 0.000000 0.000000 0.000000 0.021368 0.000000
# 6 0.000000 0.000000 0.000000 0.000000 0.000000 0.034703
#
#
# Mechanical properties :
#
#
# Convention : Reuss Voigt Hill
#
# Bulk Modulus (GPa) = 57.15895 115.62751 86.39323
# Shear Modulus (GPa) = 33.57289 41.15402 37.36346
#
# Velocity S-wave (km/s) = 4.18166 4.62978 4.41142
# Velocity P-wave (km/s) = 7.28602 9.42359 8.42289
#
# Compressibility (1/GPa) = 0.01749507
#
# Stress axis : x y z
#
# Youngs Moduli (GPa) = 135.94868 40.31360 144.56013
#
# Poissons Ratio (x) = 0.17604 0.49046
# Poissons Ratio (y) = 0.59366 0.43834
# Poissons Ratio (z) = 0.46124 0.12224
#
# Static dielectric constant tensor:
#      x y z
#    x 1.643340 0.000000 0.000000 
#    y 0.000000 1.657130 0.000000 
#    z 0.000000 0.000000 1.622830 
# 
# From -- ./inp_files/19604.got.cif
#   From: 2010.05.17/outbox.cif.g08.bks.cpg/sg62_10_cif.got.tgz:19604.got - 2010.06.03 15:25:27.
