data_PCOD9466146
_publ_section_title
;
Structure prediction by ZEFSAII (Michael W. Deem and Ramdas Pophale) SiO2 
 PCOD9466146
Probable space group: P N M A
;
_chemical_formula_sum "Si O2"
_cell_formula_units_Z 56
_cell_length_a 13.790332
_cell_length_b 31.877377
_cell_length_c 5.677938
_cell_angle_alpha 90.000000
_cell_angle_beta 90.000000
_cell_angle_gamma 90.000000
_cell_volume 2496.019342
_symmetry_space_group_name_H-M "P N M A"
_symmetry_group_IT_number 62
_symmetry_cell_setting 'orthorhombic'
loop_
_space_group_symop_operation_xyz
x,y,z
1/2-x,-y,1/2+z
1/2+x,1/2-y,1/2-z
-x,1/2+y,-z
-x,-y,-z
1/2+x,y,1/2-z
1/2-x,1/2+y,1/2+z
x,1/2-y,z
loop_
_atom_site_type_symbol
_atom_site_label
_atom_site_fract_x
_atom_site_fract_y
_atom_site_fract_z
Si Si1 0.149897 0.583042 0.824544
Si Si2 0.497313 0.642444 0.771076
Si Si3 0.167211 0.093624 0.019552
Si Si4 0.531688 0.797407 0.370271
Si Si5 0.812052 0.148096 0.776212
Si Si6 0.692995 0.495024 0.679345
Si Si7 0.643978 0.298290 0.941533
O O1 0.261245 0.582242 0.735816
O O2 0.120058 0.534552 0.834394
O O3 0.081503 0.610135 0.650885
O O4 0.151816 0.609115 0.065785
O O5 0.433730 0.612392 0.600081
O O6 0.544181 0.679536 0.616936
O O7 0.416408 0.666491 0.919642
O O8 0.230763 0.128906 0.890631
O O9 0.155058 0.052023 0.862373
O O10 0.565510 0.750000 0.367648
O O11 0.594865 0.825561 0.190441
O O12 0.418661 0.796954 0.299927
O O13 0.751152 0.183611 0.917979
O O14 0.759488 0.502754 0.442118
O O15 0.641351 0.250000 0.033490
#
# Coordination Sequence:
#
# PCOD9466146 Si02
#       7
#     8   8   8   8   8   8   8
#     4  10  22  39  61  87 122 162 204 255 310 382
#     4  11  22  38  61  87 118 160 208 248 318 371
#     4  11  21  38  63  87 125 159 206 259 313 385
#     4  10  22  38  57  82 117 154 200 255 306 370
#     4  11  20  38  60  86 114 158 203 247 317 375
#     4  10  21  39  65  96 131 173 214 265 324 381
#     4  11  22  38  59  86 121 156 204 259 312 377
#
# _framework density 22.435721999999998
#
# number of rings (size 3 to 8) (size 9 to 14) (size 15 to 20)
#    0.000    1.429    4.286    1.714    0.000    0.571 
#    0.000    0.000    0.000    5.143    0.000    0.000 
#    0.000    0.000    0.000    0.000    0.000    0.000 
#
# Total GULP energy -312032.777586 kJ/mol
# GULP energy per Si atom -5572.013885 kJ/mol
# Density = 2.238466 g / cm^3
# Si number density = 22.435722 Si / 1000 Ang^3
#
#
#
# Elastic Constant Matrix: (Units=GPa)
#
#
# Indices 1 2 3 4 5 6 
#
# 1 73.9642 22.4191 -9.1635 0.0000 0.0000 0.0000
# 2 22.4191 127.3352 4.3374 0.0000 0.0000 0.0000
# 3 -9.1635 4.3374 35.2605 0.0000 0.0000 0.0000
# 4 0.0000 0.0000 0.0000 32.9618 0.0000 0.0000
# 5 0.0000 0.0000 0.0000 0.0000 19.4731 0.0000
# 6 0.0000 0.0000 0.0000 0.0000 0.0000 33.7502
#
#
#
# Elastic Compliance Matrix: (Units=1/GPa)
#
#
# Indices 1 2 3 4 5 6 
#
# 1 0.014879 -0.002763 0.004207 0.000000 0.000000 0.000000
# 2 -0.002763 0.008399 -0.001751 0.000000 0.000000 0.000000
# 3 0.004207 -0.001751 0.029669 0.000000 0.000000 0.000000
# 4 0.000000 0.000000 0.000000 0.030338 0.000000 0.000000
# 5 0.000000 0.000000 0.000000 0.000000 0.051353 0.000000
# 6 0.000000 0.000000 0.000000 0.000000 0.000000 0.029629
#
#
# Mechanical properties :
#
#
# Convention : Reuss Voigt Hill
#
# Bulk Modulus (GPa) = 19.10885 30.19402 24.65143
# Shear Modulus (GPa) = 27.42331 31.83481 29.62906
#
# Velocity S-wave (km/s) = 3.49994 3.77096 3.63798
# Velocity P-wave (km/s) = 4.98683 5.69626 5.35331
#
# Compressibility (1/GPa) = 0.05233178
#
# Stress axis : x y z
#
# Youngs Moduli (GPa) = 67.21042 119.05639 33.70528
#
# Poissons Ratio (x) = 0.32894 -0.14178
# Poissons Ratio (y) = 0.18569 0.05903
# Poissons Ratio (z) = -0.28272 0.20849
#
# Static dielectric constant tensor:
#      x y z
#    x 1.852980 0.000000 0.000000 
#    y 0.000000 1.865410 0.000000 
#    z 0.000000 0.000000 1.952220 
# 
# From -- ./inp_files/1254.got.cif
#   From: 2010.05.17/outbox.cif.g08.bks.cpg/sg62_1_cif.got.tgz:1254.got - 2010.06.03 15:25:27.
