data_PCOD9466634
_publ_section_title
;
Structure prediction by ZEFSAII (Michael W. Deem and Ramdas Pophale) SiO2 
 PCOD9466634
Probable space group: P N M A
;
_chemical_formula_sum "Si O2"
_cell_formula_units_Z 44
_cell_length_a 13.668789
_cell_length_b 16.703483
_cell_length_c 8.658728
_cell_angle_alpha 90.000000
_cell_angle_beta 90.000000
_cell_angle_gamma 90.000000
_cell_volume 1976.929473
_symmetry_space_group_name_H-M "P N M A"
_symmetry_group_IT_number 62
_symmetry_cell_setting 'orthorhombic'
loop_
_space_group_symop_operation_xyz
x,y,z
1/2-x,-y,1/2+z
1/2+x,1/2-y,1/2-z
-x,1/2+y,-z
-x,-y,-z
1/2+x,y,1/2-z
1/2-x,1/2+y,1/2+z
x,1/2-y,z
loop_
_atom_site_type_symbol
_atom_site_label
_atom_site_fract_x
_atom_site_fract_y
_atom_site_fract_z
Si Si1 0.092170 0.250000 0.486129
Si Si2 0.049104 0.911111 0.009473
Si Si3 0.364548 0.489800 0.953844
Si Si4 0.980909 0.394298 0.339257
Si Si5 0.739464 0.750000 0.307577
Si Si6 0.494177 0.250000 0.674286
Si Si7 0.251656 0.578196 0.203093
O O1 0.053855 0.325017 0.390177
O O2 0.207642 0.250000 0.524064
O O3 0.042872 0.250000 0.656668
O O4 0.061307 0.885718 0.830572
O O5 0.989658 0.836240 0.087865
O O6 0.151964 0.917664 0.100954
O O7 0.000000 0.000000 0.000000
O O8 0.453283 0.525477 0.854976
O O9 0.272144 0.479166 0.844436
O O10 0.398294 0.406771 0.030571
O O11 0.337278 0.546949 0.095265
O O12 0.623450 0.750000 0.309418
O O13 0.771876 0.833286 0.235240
#
# Coordination Sequence:
#
# PCOD9466634 Si02
#       7
#     4   8   8   8   4   4   8
#     4  12  23  43  71  88 140 180 219 284 337 397
#     4  11  22  41  67  94 134 171 220 279 339 399
#     4  11  23  38  64  95 129 167 227 265 332 398
#     4  11  23  40  64  96 125 173 219 272 331 405
#     4  10  22  40  62  90 126 170 218 260 338 389
#     4  10  25  41  65 102 128 178 229 278 333 416
#     4  11  22  42  64  94 131 174 215 281 326 405
#
# _framework density 22.256737000000001
#
# number of rings (size 3 to 8) (size 9 to 14) (size 15 to 20)
#    0.000    1.091    3.636    3.818    2.545    1.455 
#    0.000    0.000    0.000    1.091    0.000    0.000 
#    0.000    0.000    0.000    0.000    0.000    0.000 
#
# Total GULP energy -245618.827258 kJ/mol
# GULP energy per Si atom -5582.246074 kJ/mol
# Density = 2.220608 g / cm^3
# Si number density = 22.256737 Si / 1000 Ang^3
#
#
#
# Elastic Constant Matrix: (Units=GPa)
#
#
# Indices 1 2 3 4 5 6 
#
# 1 66.3452 7.7696 7.7644 0.0000 0.0000 0.0000
# 2 7.7696 75.2620 9.8729 0.0000 0.0000 0.0000
# 3 7.7644 9.8729 87.7696 0.0000 0.0000 0.0000
# 4 0.0000 0.0000 0.0000 27.6325 0.0000 0.0000
# 5 0.0000 0.0000 0.0000 0.0000 37.7726 0.0000
# 6 0.0000 0.0000 0.0000 0.0000 0.0000 27.2084
#
#
#
# Elastic Compliance Matrix: (Units=1/GPa)
#
#
# Indices 1 2 3 4 5 6 
#
# 1 0.015381 -0.001430 -0.001200 0.000000 0.000000 0.000000
# 2 -0.001430 0.013619 -0.001405 0.000000 0.000000 0.000000
# 3 -0.001200 -0.001405 0.011658 0.000000 0.000000 0.000000
# 4 0.000000 0.000000 0.000000 0.036189 0.000000 0.000000
# 5 0.000000 0.000000 0.000000 0.000000 0.026474 0.000000
# 6 0.000000 0.000000 0.000000 0.000000 0.000000 0.036753
#
#
# Mechanical properties :
#
#
# Convention : Reuss Voigt Hill
#
# Bulk Modulus (GPa) = 30.68793 31.13233 30.91013
# Shear Modulus (GPa) = 31.44512 32.12070 31.78291
#
# Velocity S-wave (km/s) = 3.76285 3.80306 3.78301
# Velocity P-wave (km/s) = 5.71811 5.77083 5.74453
#
# Compressibility (1/GPa) = 0.03258610
#
# Stress axis : x y z
#
# Youngs Moduli (GPa) = 65.01699 73.42710 85.78033
#
# Poissons Ratio (x) = 0.10503 0.10291
# Poissons Ratio (y) = 0.09300 0.12056
# Poissons Ratio (z) = 0.07800 0.10320
#
# Static dielectric constant tensor:
#      x y z
#    x 1.833380 0.000000 0.000000 
#    y 0.000000 1.876560 0.000000 
#    z 0.000000 0.000000 1.777070 
# 
# From -- ./inp_files/6380.got.cif
#   From: 2010.05.17/outbox.cif.g08.bks.cpg/sg62_4_cif.got.tgz:6380.got - 2010.06.03 15:25:27.
