data_PCOD9466294
_publ_section_title
;
Structure prediction by ZEFSAII (Michael W. Deem and Ramdas Pophale) SiO2 
 PCOD9466294
Probable space group: P N M A
;
_chemical_formula_sum "Si O2"
_cell_formula_units_Z 40
_cell_length_a 8.838027
_cell_length_b 14.650636
_cell_length_c 11.965433
_cell_angle_alpha 90.000000
_cell_angle_beta 90.000000
_cell_angle_gamma 90.000000
_cell_volume 1549.316769
_symmetry_space_group_name_H-M "P N M A"
_symmetry_group_IT_number 62
_symmetry_cell_setting 'orthorhombic'
loop_
_space_group_symop_operation_xyz
x,y,z
1/2-x,-y,1/2+z
1/2+x,1/2-y,1/2-z
-x,1/2+y,-z
-x,-y,-z
1/2+x,y,1/2-z
1/2-x,1/2+y,1/2+z
x,1/2-y,z
loop_
_atom_site_type_symbol
_atom_site_label
_atom_site_fract_x
_atom_site_fract_y
_atom_site_fract_z
Si Si1 0.314842 0.393597 0.526560
Si Si2 0.862793 0.889609 0.932799
Si Si3 0.322040 0.250000 0.930936
Si Si4 0.114047 0.431517 0.719124
Si Si5 0.646371 0.435790 0.181246
Si Si6 0.073760 0.250000 0.736852
O O1 0.341125 0.502352 0.547685
O O2 0.476843 0.358740 0.484520
O O3 0.217478 0.370955 0.636386
O O4 0.199838 0.379412 0.423918
O O5 0.867014 0.881602 0.798030
O O6 0.729354 0.835433 0.993414
O O7 0.223377 0.250000 0.817134
O O8 0.490685 0.250000 0.885540
O O9 0.220187 0.489745 0.798870
O O10 0.016845 0.352192 0.776189
O O11 0.004595 0.505012 0.662588
#
# Coordination Sequence:
#
# PCOD9466294 Si02
#       6
#     8   8   4   8   8   4
#     4  10  21  40  68  95 127 169 223 264 318 388
#     4  10  23  42  65  96 131 168 217 272 324 384
#     4  12  28  44  65  95 136 170 211 271 338 383
#     4  11  23  37  67  99 131 167 218 266 325 385
#     4  11  21  42  68  95 127 177 218 265 318 387
#     4  12  26  42  65 101 134 166 207 273 336 383
#
# _framework density 25.817831999999999
#
# number of rings (size 3 to 8) (size 9 to 14) (size 15 to 20)
#    0.000    1.200    2.000    4.200    8.400    1.600 
#    0.000    2.000    0.000    0.000    0.000    0.000 
#    0.000    0.000    0.000    0.000    0.000    0.000 
#
# Total GULP energy -223344.549720 kJ/mol
# GULP energy per Si atom -5583.613743 kJ/mol
# Density = 2.575907 g / cm^3
# Si number density = 25.817832 Si / 1000 Ang^3
#
#
#
# Elastic Constant Matrix: (Units=GPa)
#
#
# Indices 1 2 3 4 5 6 
#
# 1 112.9264 -2.5536 6.1528 0.0000 0.0000 0.0000
# 2 -2.5536 49.0000 -29.1580 0.0000 0.0000 0.0000
# 3 6.1528 -29.1580 140.6634 0.0000 0.0000 0.0000
# 4 0.0000 0.0000 0.0000 20.4838 0.0000 0.0000
# 5 0.0000 0.0000 0.0000 0.0000 35.4073 0.0000
# 6 0.0000 0.0000 0.0000 0.0000 0.0000 26.3770
#
#
#
# Elastic Compliance Matrix: (Units=1/GPa)
#
#
# Indices 1 2 3 4 5 6 
#
# 1 0.008879 0.000264 -0.000334 0.000000 0.000000 0.000000
# 2 0.000264 0.023288 0.004816 0.000000 0.000000 0.000000
# 3 -0.000334 0.004816 0.008122 0.000000 0.000000 0.000000
# 4 0.000000 0.000000 0.000000 0.048819 0.000000 0.000000
# 5 0.000000 0.000000 0.000000 0.000000 0.028243 0.000000
# 6 0.000000 0.000000 0.000000 0.000000 0.000000 0.037912
#
#
# Mechanical properties :
#
#
# Convention : Reuss Voigt Hill
#
# Bulk Modulus (GPa) = 20.08775 27.94136 24.01455
# Shear Modulus (GPa) = 30.79503 38.33021 34.56262
#
# Velocity S-wave (km/s) = 3.45741 3.85728 3.66281
# Velocity P-wave (km/s) = 4.87193 5.53933 5.21632
#
# Compressibility (1/GPa) = 0.04978159
#
# Stress axis : x y z
#
# Youngs Moduli (GPa) = 112.61919 42.94140 123.12235
#
# Poissons Ratio (x) = -0.01135 0.04108
# Poissons Ratio (y) = -0.02976 -0.59292
# Poissons Ratio (z) = 0.03757 -0.20679
#
# Static dielectric constant tensor:
#      x y z
#    x 2.208650 0.000000 0.000000 
#    y 0.000000 2.061860 0.000000 
#    z 0.000000 0.000000 2.151160 
# 
# From -- ./inp_files/11095.got.cif
#   From: 2010.05.17/outbox.cif.g08.bks.cpg/sg62_6_cif.got.tgz:11095.got - 2010.06.03 15:25:27.
