data_PCOD9466225
_publ_section_title
;
Structure prediction by ZEFSAII (Michael W. Deem and Ramdas Pophale) SiO2 
 PCOD9466225
Probable space group: P N M A
;
_chemical_formula_sum "Si O2"
_cell_formula_units_Z 40
_cell_length_a 21.782965
_cell_length_b 11.203621
_cell_length_c 7.880679
_cell_angle_alpha 90.000000
_cell_angle_beta 90.000000
_cell_angle_gamma 90.000000
_cell_volume 1923.264611
_symmetry_space_group_name_H-M "P N M A"
_symmetry_group_IT_number 62
_symmetry_cell_setting 'orthorhombic'
loop_
_space_group_symop_operation_xyz
x,y,z
1/2-x,-y,1/2+z
1/2+x,1/2-y,1/2-z
-x,1/2+y,-z
-x,-y,-z
1/2+x,y,1/2-z
1/2-x,1/2+y,1/2+z
x,1/2-y,z
loop_
_atom_site_type_symbol
_atom_site_label
_atom_site_fract_x
_atom_site_fract_y
_atom_site_fract_z
Si Si1 0.498526 0.621323 0.101907
Si Si2 0.679414 0.965195 0.540873
Si Si3 0.456296 0.384771 0.539170
Si Si4 0.142103 0.383905 0.644567
Si Si5 0.196852 0.113270 0.305030
O O1 0.505622 0.750000 0.009593
O O2 0.545242 0.617695 0.256817
O O3 0.430160 0.621368 0.179275
O O4 0.500000 0.500000 0.000000
O O5 0.673458 0.055752 0.697568
O O6 0.693447 0.032823 0.363728
O O7 0.612689 0.903967 0.527201
O O8 0.736678 0.887189 0.603716
O O9 0.500000 0.500000 0.500000
O O10 0.478396 0.250000 0.486254
O O11 0.165955 0.250000 0.630351
O O12 0.153347 0.436283 0.456652
O O13 0.179432 0.250000 0.259961
#
# Coordination Sequence:
#
# PCOD9466225 Si02
#       5
#     8   8   8   8   8
#     4  10  21  40  63  93 127 167 212 264 321 387
#     4  12  22  42  66  93 130 174 219 270 335 388
#     4  11  24  41  66  96 133 171 217 270 328 396
#     4  10  21  40  64  91 127 167 217 270 319 393
#     4  11  24  40  64  96 127 169 222 274 334 395
#
# _framework density 20.797971
#
# number of rings (size 3 to 8) (size 9 to 14) (size 15 to 20)
#    0.000    1.200    4.000    2.400    0.000    1.600 
#    0.000    0.000    0.000    0.000    0.000    0.000 
#    0.000    0.000    0.000    0.000    0.000    0.000 
#
# Total GULP energy -222886.909923 kJ/mol
# GULP energy per Si atom -5572.172748 kJ/mol
# Density = 2.075063 g / cm^3
# Si number density = 20.797971 Si / 1000 Ang^3
#
#
#
# Elastic Constant Matrix: (Units=GPa)
#
#
# Indices 1 2 3 4 5 6 
#
# 1 63.2825 18.7260 -3.6327 0.0000 0.0000 0.0000
# 2 18.7260 131.3947 54.5567 0.0000 0.0000 0.0000
# 3 -3.6327 54.5567 105.4440 0.0000 0.0000 0.0000
# 4 0.0000 0.0000 0.0000 28.8358 0.0000 0.0000
# 5 0.0000 0.0000 0.0000 0.0000 34.2908 0.0000
# 6 0.0000 0.0000 0.0000 0.0000 0.0000 26.5293
#
#
#
# Elastic Compliance Matrix: (Units=1/GPa)
#
#
# Indices 1 2 3 4 5 6 
#
# 1 0.016937 -0.003383 0.002334 0.000000 0.000000 0.000000
# 2 -0.003383 0.010369 -0.005481 0.000000 0.000000 0.000000
# 3 0.002334 -0.005481 0.012400 0.000000 0.000000 0.000000
# 4 0.000000 0.000000 0.000000 0.034679 0.000000 0.000000
# 5 0.000000 0.000000 0.000000 0.000000 0.029162 0.000000
# 6 0.000000 0.000000 0.000000 0.000000 0.000000 0.037694
#
#
# Mechanical properties :
#
#
# Convention : Reuss Voigt Hill
#
# Bulk Modulus (GPa) = 37.53014 48.82456 43.17735
# Shear Modulus (GPa) = 30.64024 33.29592 31.96808
#
# Velocity S-wave (km/s) = 3.84243 4.00549 3.92481
# Velocity P-wave (km/s) = 6.14573 6.70213 6.42995
#
# Compressibility (1/GPa) = 0.02664525
#
# Stress axis : x y z
#
# Youngs Moduli (GPa) = 59.04183 96.44433 80.64431
#
# Poissons Ratio (x) = 0.32626 -0.18821
# Poissons Ratio (y) = 0.19973 0.44204
# Poissons Ratio (z) = -0.13779 0.52864
#
# Static dielectric constant tensor:
#      x y z
#    x 1.760500 0.000000 0.000000 
#    y 0.000000 1.899180 0.000000 
#    z 0.000000 0.000000 1.756350 
# 
# From -- ./inp_files/7299.got.cif
#   From: 2010.05.17/outbox.cif.g08.bks.cpg/sg62_4_cif.got.tgz:7299.got - 2010.06.03 15:25:27.
