data_PCOD9466454
_publ_section_title
;
Structure prediction by ZEFSAII (Michael W. Deem and Ramdas Pophale) SiO2 
 PCOD9466454
Probable space group: P N M A
;
_chemical_formula_sum "Si O2"
_cell_formula_units_Z 36
_cell_length_a 9.475713
_cell_length_b 14.029787
_cell_length_c 9.754892
_cell_angle_alpha 90.000000
_cell_angle_beta 90.000000
_cell_angle_gamma 90.000000
_cell_volume 1296.837145
_symmetry_space_group_name_H-M "P N M A"
_symmetry_group_IT_number 62
_symmetry_cell_setting 'orthorhombic'
loop_
_space_group_symop_operation_xyz
x,y,z
1/2-x,-y,1/2+z
1/2+x,1/2-y,1/2-z
-x,1/2+y,-z
-x,-y,-z
1/2+x,y,1/2-z
1/2-x,1/2+y,1/2+z
x,1/2-y,z
loop_
_atom_site_type_symbol
_atom_site_label
_atom_site_fract_x
_atom_site_fract_y
_atom_site_fract_z
Si Si1 0.426151 0.885388 0.184472
Si Si2 0.313145 0.750000 0.682035
Si Si3 0.273099 0.124036 0.924447
Si Si4 0.689520 0.573771 0.495285
Si Si5 0.970689 0.929212 0.787438
O O1 0.362749 0.853473 0.329943
O O2 0.578233 0.849086 0.141205
O O3 0.441290 0.001888 0.187358
O O4 0.301899 0.861919 0.079396
O O5 0.251680 0.831190 0.572474
O O6 0.387634 0.661811 0.768082
O O7 0.270323 0.009439 0.924094
O O8 0.578658 0.618247 0.600684
O O9 0.607798 0.511403 0.378431
#
# Coordination Sequence:
#
# PCOD9466454 Si02
#       5
#     8   4   8   8   8
#     4  11  19  37  63  93 113 170 221 245 299 397
#     4  10  22  40  56  88 132 158 196 264 334 356
#     4  10  22  35  61  90 122 159 206 262 310 366
#     4   9  18  36  61  86 120 156 215 251 297 378
#     4   9  19  37  60  87 124 170 195 259 322 363
#
# _framework density 27.759847000000001
#
# number of rings (size 3 to 8) (size 9 to 14) (size 15 to 20)
#    0.000    2.222    2.222    2.000    0.000    0.889 
#    0.000    5.556    0.000    0.000    0.000    0.000 
#    0.000    0.000    0.000    0.000    0.000    0.000 
#
# Total GULP energy -200458.958708 kJ/mol
# GULP energy per Si atom -5568.304409 kJ/mol
# Density = 2.769666 g / cm^3
# Si number density = 27.759847 Si / 1000 Ang^3
#
#
#
# Elastic Constant Matrix: (Units=GPa)
#
#
# Indices 1 2 3 4 5 6 
#
# 1 129.5770 4.9862 22.9073 0.0000 0.0000 0.0000
# 2 4.9862 166.4065 6.2799 0.0000 0.0000 0.0000
# 3 22.9073 6.2799 55.0603 0.0000 0.0000 0.0000
# 4 0.0000 0.0000 0.0000 3.7407 0.0000 0.0000
# 5 0.0000 0.0000 0.0000 0.0000 50.5391 0.0000
# 6 0.0000 0.0000 0.0000 0.0000 0.0000 -33.7532
#
#
#
# Elastic Compliance Matrix: (Units=1/GPa)
#
#
# Indices 1 2 3 4 5 6 
#
# 1 0.008332 -0.000119 -0.003453 0.000000 0.000000 0.000000
# 2 -0.000119 0.006037 -0.000639 0.000000 0.000000 0.000000
# 3 -0.003453 -0.000639 0.019671 0.000000 0.000000 0.000000
# 4 0.000000 0.000000 0.000000 0.267332 0.000000 0.000000
# 5 0.000000 0.000000 0.000000 0.000000 0.019787 0.000000
# 6 0.000000 0.000000 0.000000 0.000000 0.000000 -0.029627
#
#
# Mechanical properties :
#
#
# Convention : Reuss Voigt Hill
#
# Bulk Modulus (GPa) = 39.03454 46.59896 42.81675
# Shear Modulus (GPa) = 16.20771 25.23000 20.71886
#
# Velocity S-wave (km/s) = 2.41893 3.01801 2.73492
# Velocity P-wave (km/s) = 4.67907 5.38214 5.04287
#
# Compressibility (1/GPa) = 0.02561834
#
# Stress axis : x y z
#
# Youngs Moduli (GPa) = 120.01266 165.64331 50.83526
#
# Poissons Ratio (x) = 0.01977 0.17554
# Poissons Ratio (y) = 0.01433 0.03248
# Poissons Ratio (z) = 0.41441 0.10583
#
# Static dielectric constant tensor:
#      x y z
#    x 2.264790 0.000000 0.000000 
#    y 0.000000 2.271130 0.000000 
#    z 0.000000 0.000000 2.256020 
# 
# From -- ./inp_files/12008.got.cif
#   From: 2010.05.17/outbox.cif.g08.bks.cpg/sg62_7_cif.got.tgz:12008.got - 2010.06.03 15:25:27.
