data_PCOD9466528
_publ_section_title
;
Structure prediction by ZEFSAII (Michael W. Deem and Ramdas Pophale) SiO2 
 PCOD9466528
Probable space group: P N M A
;
_chemical_formula_sum "Si O2"
_cell_formula_units_Z 52
_cell_length_a 14.431771
_cell_length_b 9.664614
_cell_length_c 18.783101
_cell_angle_alpha 90.000000
_cell_angle_beta 90.000000
_cell_angle_gamma 90.000000
_cell_volume 2619.819896
_symmetry_space_group_name_H-M "P N M A"
_symmetry_group_IT_number 62
_symmetry_cell_setting 'orthorhombic'
loop_
_space_group_symop_operation_xyz
x,y,z
1/2-x,-y,1/2+z
1/2+x,1/2-y,1/2-z
-x,1/2+y,-z
-x,-y,-z
1/2+x,y,1/2-z
1/2-x,1/2+y,1/2+z
x,1/2-y,z
loop_
_atom_site_type_symbol
_atom_site_label
_atom_site_fract_x
_atom_site_fract_y
_atom_site_fract_z
Si Si1 0.623423 0.090294 0.692290
Si Si2 0.492637 0.750000 0.027424
Si Si3 0.695938 0.091374 0.382516
Si Si4 0.026420 0.589748 0.067909
Si Si5 0.293651 0.909506 0.786509
Si Si6 0.890924 0.032190 0.452108
Si Si7 0.509529 0.909203 0.804141
O O1 0.639145 0.250000 0.712406
O O2 0.557850 0.085648 0.623726
O O3 0.719653 0.011799 0.679610
O O4 0.568079 0.010770 0.754622
O O5 0.572481 0.871613 0.015389
O O6 0.414338 0.626881 0.035025
O O7 0.665061 0.250000 0.396191
O O8 0.721013 0.083782 0.298877
O O9 0.785351 0.059038 0.430085
O O10 0.615074 0.983241 0.397123
O O11 0.044911 0.750000 0.050320
O O12 0.000000 0.500000 0.000000
O O13 0.278386 0.750000 0.808768
O O14 0.400715 0.944255 0.801834
O O15 0.951464 0.082663 0.383755
O O16 0.518993 0.750000 0.778553
#
# Coordination Sequence:
#
# PCOD9466528 Si02
#       7
#     8   4   8   8   8   8   8
#     4  11  24  41  63  95 131 162 211 274 326 380
#     4  10  24  42  60  86 134 168 214 256 314 380
#     4  11  21  39  68  96 126 167 217 263 319 390
#     4  11  26  47  66  94 131 175 221 269 328 394
#     4  10  22  38  64  98 128 168 211 263 324 380
#     4  11  22  42  63  94 128 172 213 265 316 387
#     4  11  21  39  65  93 127 162 211 266 317 380
#
# _framework density 19.848692
#
# number of rings (size 3 to 8) (size 9 to 14) (size 15 to 20)
#    0.000    1.231    4.615    0.923    2.154    3.077 
#    5.538    0.000    0.000    0.000    0.000    0.000 
#    0.000    0.000    0.000    0.000    0.000    0.000 
#
# Total GULP energy -289612.779127 kJ/mol
# GULP energy per Si atom -5569.476522 kJ/mol
# Density = 1.980352 g / cm^3
# Si number density = 19.848692 Si / 1000 Ang^3
#
#
#
# Elastic Constant Matrix: (Units=GPa)
#
#
# Indices 1 2 3 4 5 6 
#
# 1 91.5384 67.2994 4.4177 0.0000 0.0000 0.0000
# 2 67.2994 171.9347 16.0088 0.0000 0.0000 0.0000
# 3 4.4177 16.0088 13.4045 0.0000 0.0000 0.0000
# 4 0.0000 0.0000 0.0000 25.1239 0.0000 0.0000
# 5 0.0000 0.0000 0.0000 0.0000 24.4104 0.0000
# 6 0.0000 0.0000 0.0000 0.0000 0.0000 17.5828
#
#
#
# Elastic Compliance Matrix: (Units=1/GPa)
#
#
# Indices 1 2 3 4 5 6 
#
# 1 0.015406 -0.006253 0.002390 0.000000 0.000000 0.000000
# 2 -0.006253 0.009082 -0.008785 0.000000 0.000000 0.000000
# 3 0.002390 -0.008785 0.084306 0.000000 0.000000 0.000000
# 4 0.000000 0.000000 0.000000 0.039803 0.000000 0.000000
# 5 0.000000 0.000000 0.000000 0.000000 0.040966 0.000000
# 6 0.000000 0.000000 0.000000 0.000000 0.000000 0.056874
#
#
# Mechanical properties :
#
#
# Convention : Reuss Voigt Hill
#
# Bulk Modulus (GPa) = 11.97631 50.25883 31.11757
# Shear Modulus (GPa) = 16.69086 26.03354 21.36220
#
# Velocity S-wave (km/s) = 2.90298 3.62553 3.28419
# Velocity P-wave (km/s) = 4.15732 6.54995 5.48567
#
# Compressibility (1/GPa) = 0.08349814
#
# Stress axis : x y z
#
# Youngs Moduli (GPa) = 64.90896 110.11137 11.86154
#
# Poissons Ratio (x) = 0.68852 -0.02835
# Poissons Ratio (y) = 0.40587 0.10421
# Poissons Ratio (z) = -0.15516 0.96737
#
# Static dielectric constant tensor:
#      x y z
#    x 1.677760 0.000000 0.000000 
#    y 0.000000 1.683730 0.000000 
#    z 0.000000 0.000000 1.735720 
# 
# From -- ./inp_files/26958.got.cif
#   From: 2010.05.17/outbox.cif.g08.bks.cpg/sg62_14_cif.got.tgz:26958.got - 2010.06.03 15:25:27.
