data_PCOD9466437
_publ_section_title
;
Structure prediction by ZEFSAII (Michael W. Deem and Ramdas Pophale) SiO2 
 PCOD9466437
Probable space group: P N M A
;
_chemical_formula_sum "Si O2"
_cell_formula_units_Z 24
_cell_length_a 14.445434
_cell_length_b 9.531947
_cell_length_c 6.774461
_cell_angle_alpha 90.000000
_cell_angle_beta 90.000000
_cell_angle_gamma 90.000000
_cell_volume 932.796612
_symmetry_space_group_name_H-M "P N M A"
_symmetry_group_IT_number 62
_symmetry_cell_setting 'orthorhombic'
loop_
_space_group_symop_operation_xyz
x,y,z
1/2-x,-y,1/2+z
1/2+x,1/2-y,1/2-z
-x,1/2+y,-z
-x,-y,-z
1/2+x,y,1/2-z
1/2-x,1/2+y,1/2+z
x,1/2-y,z
loop_
_atom_site_type_symbol
_atom_site_label
_atom_site_fract_x
_atom_site_fract_y
_atom_site_fract_z
Si Si1 0.052532 0.750000 0.738321
Si Si2 0.388101 0.250000 0.805009
Si Si3 0.821080 0.750000 0.192974
Si Si4 0.267991 0.750000 0.848729
Si Si5 0.397211 0.548333 0.613715
O O1 0.992551 0.880922 0.816025
O O2 0.049468 0.750000 0.499868
O O3 0.158528 0.750000 0.810193
O O4 0.399937 0.387359 0.672709
O O5 0.197039 0.250000 0.574565
O O6 0.716425 0.750000 0.113531
O O7 0.872027 0.886073 0.100603
O O8 0.315701 0.615699 0.747899
#
# Coordination Sequence:
#
# PCOD9466437 Si02
#       5
#     4   4   4   4   8
#     4  10  21  50  82 117 160 208 266 318 401 464
#     4  12  23  46  81 112 167 205 255 334 396 471
#     4  10  24  46  73 111 152 211 258 313 393 456
#     4  10  22  48  80 110 161 208 265 327 384 481
#     4  10  25  48  77 119 161 204 267 320 395 475
#
# _framework density 25.729082999999999
#
# number of rings (size 3 to 8) (size 9 to 14) (size 15 to 20)
#    0.000    2.000    3.333    1.000    4.667    0.000 
#   12.000    3.333    0.000    0.000    0.000    0.000 
#    0.000    0.000    0.000    0.000    0.000    0.000 
#
# Total GULP energy -134545.551170 kJ/mol
# GULP energy per Si atom -5606.064632 kJ/mol
# Density = 2.567052 g / cm^3
# Si number density = 25.729083 Si / 1000 Ang^3
#
#
#
# Elastic Constant Matrix: (Units=GPa)
#
#
# Indices 1 2 3 4 5 6 
#
# 1 213.5784 98.5743 44.8145 0.0000 0.0000 0.0000
# 2 98.5743 259.3497 71.6979 0.0000 0.0000 0.0000
# 3 44.8145 71.6979 150.0245 0.0000 0.0000 0.0000
# 4 0.0000 0.0000 0.0000 0.1878 0.0000 0.0000
# 5 0.0000 0.0000 0.0000 0.0000 49.7836 0.0000
# 6 0.0000 0.0000 0.0000 0.0000 0.0000 40.7869
#
#
#
# Elastic Compliance Matrix: (Units=1/GPa)
#
#
# Indices 1 2 3 4 5 6 
#
# 1 0.005756 -0.001973 -0.000776 0.000000 0.000000 0.000000
# 2 -0.001973 0.005119 -0.001857 0.000000 0.000000 0.000000
# 3 -0.000776 -0.001857 0.007785 0.000000 0.000000 0.000000
# 4 0.000000 0.000000 0.000000 5.324874 0.000000 0.000000
# 5 0.000000 0.000000 0.000000 0.000000 0.020087 0.000000
# 6 0.000000 0.000000 0.000000 0.000000 0.000000 0.024518
#
#
# Mechanical properties :
#
#
# Convention : Reuss Voigt Hill
#
# Bulk Modulus (GPa) = 105.85585 117.01401 111.43493
# Shear Modulus (GPa) = 0.92584 45.34272 23.13428
#
# Velocity S-wave (km/s) = 0.60052 4.20255 3.00183
# Velocity P-wave (km/s) = 6.45853 8.31424 7.44443
#
# Compressibility (1/GPa) = 0.00944681
#
# Stress axis : x y z
#
# Youngs Moduli (GPa) = 173.74293 195.34720 128.45191
#
# Poissons Ratio (x) = 0.38542 0.09973
# Poissons Ratio (y) = 0.34279 0.23855
# Poissons Ratio (z) = 0.13489 0.36278
#
# Static dielectric constant tensor:
#      x y z
#    x 2.028450 0.000000 0.000000 
#    y 0.000000 2.012190 0.000000 
#    z 0.000000 0.000000 2.064850 
# 
# From -- ./inp_files/11658.got.cif
#   From: 2010.05.17/outbox.cif.g08.bks.cpg/sg62_6_cif.got.tgz:11658.got - 2010.06.03 15:25:27.
