data_PCOD9466127
_publ_section_title
;
Structure prediction by ZEFSAII (Michael W. Deem and Ramdas Pophale) SiO2 
 PCOD9466127
Probable space group: P N M A
;
_chemical_formula_sum "Si O2"
_cell_formula_units_Z 64
_cell_length_a 24.193407
_cell_length_b 14.310887
_cell_length_c 8.730215
_cell_angle_alpha 90.000000
_cell_angle_beta 90.000000
_cell_angle_gamma 90.000000
_cell_volume 3022.654602
_symmetry_space_group_name_H-M "P N M A"
_symmetry_group_IT_number 62
_symmetry_cell_setting 'orthorhombic'
loop_
_space_group_symop_operation_xyz
x,y,z
1/2-x,-y,1/2+z
1/2+x,1/2-y,1/2-z
-x,1/2+y,-z
-x,-y,-z
1/2+x,y,1/2-z
1/2-x,1/2+y,1/2+z
x,1/2-y,z
loop_
_atom_site_type_symbol
_atom_site_label
_atom_site_fract_x
_atom_site_fract_y
_atom_site_fract_z
Si Si1 0.199650 0.857753 0.907708
Si Si2 0.886760 0.989212 0.642075
Si Si3 0.698782 0.362013 0.291277
Si Si4 0.304281 0.139637 0.753398
Si Si5 0.574336 0.046444 0.804533
Si Si6 0.678548 0.139847 0.641518
Si Si7 0.574443 0.650174 0.669279
Si Si8 0.474726 0.427637 0.623119
O O1 0.216999 0.750000 0.937756
O O2 0.246413 0.898668 0.796545
O O3 0.140798 0.854948 0.826572
O O4 0.189791 0.895652 0.078192
O O5 0.852875 0.899880 0.698443
O O6 0.915108 0.960196 0.484039
O O7 0.841872 0.074519 0.637905
O O8 0.930759 0.022605 0.767560
O O9 0.702251 0.250000 0.294244
O O10 0.689041 0.389890 0.466528
O O11 0.319935 0.250000 0.767782
O O12 0.239019 0.132780 0.784320
O O13 0.631001 0.079105 0.721825
O O14 0.524626 0.107185 0.731410
O O15 0.556511 0.941026 0.759437
O O16 0.662351 0.250000 0.646198
O O17 0.555621 0.750000 0.731933
O O18 0.555733 0.643314 0.491695
O O19 0.500000 0.500000 0.500000
#
# Coordination Sequence:
#
# PCOD9466127 Si02
#       8
#     8   8   8   8   8   8   8   8
#     4   9  18  35  58  87 121 159 201 253 308 370
#     4  12  24  39  65  93 127 171 213 263 332 384
#     4  10  22  38  61  91 127 167 212 261 315 385
#     4  10  22  38  60  92 131 165 207 262 321 389
#     4  11  25  41  64  93 129 170 215 268 318 385
#     4  10  23  42  62  93 131 172 216 265 323 384
#     4  10  21  39  64  92 124 164 210 260 319 377
#     4  10  22  44  64  88 122 164 216 270 314 374
#
# _framework density 21.173439999999999
#
# number of rings (size 3 to 8) (size 9 to 14) (size 15 to 20)
#    0.000    1.750    1.250    2.625    3.500    2.500 
#    0.000    3.750    0.000    4.500    0.000    0.000 
#    0.000    0.000    0.000    0.000    0.000    0.000 
#
# Total GULP energy -357108.306076 kJ/mol
# GULP energy per Si atom -5579.817282 kJ/mol
# Density = 2.112525 g / cm^3
# Si number density = 21.173440 Si / 1000 Ang^3
#
#
#
# Elastic Constant Matrix: (Units=GPa)
#
#
# Indices 1 2 3 4 5 6 
#
# 1 84.0497 0.9383 2.8411 0.0000 0.0000 0.0000
# 2 0.9383 63.5747 5.6682 0.0000 0.0000 0.0000
# 3 2.8411 5.6682 38.4547 0.0000 0.0000 0.0000
# 4 0.0000 0.0000 0.0000 17.9011 0.0000 0.0000
# 5 0.0000 0.0000 0.0000 0.0000 31.4233 0.0000
# 6 0.0000 0.0000 0.0000 0.0000 0.0000 1.0374
#
#
#
# Elastic Compliance Matrix: (Units=1/GPa)
#
#
# Indices 1 2 3 4 5 6 
#
# 1 0.011928 -0.000099 -0.000867 0.000000 0.000000 0.000000
# 2 -0.000099 0.015940 -0.002342 0.000000 0.000000 0.000000
# 3 -0.000867 -0.002342 0.026414 0.000000 0.000000 0.000000
# 4 0.000000 0.000000 0.000000 0.055862 0.000000 0.000000
# 5 0.000000 0.000000 0.000000 0.000000 0.031824 0.000000
# 6 0.000000 0.000000 0.000000 0.000000 0.000000 0.963972
#
#
# Mechanical properties :
#
#
# Convention : Reuss Voigt Hill
#
# Bulk Modulus (GPa) = 20.97914 22.77494 21.87704
# Shear Modulus (GPa) = 4.43088 21.84778 13.13933
#
# Velocity S-wave (km/s) = 1.44817 3.21572 2.49380
# Velocity P-wave (km/s) = 3.56735 4.95657 4.31819
#
# Compressibility (1/GPa) = 0.04766639
#
# Stress axis : x y z
#
# Youngs Moduli (GPa) = 83.83553 62.73601 37.85882
#
# Poissons Ratio (x) = 0.00620 0.03281
# Poissons Ratio (y) = 0.00828 0.08867
# Poissons Ratio (z) = 0.07266 0.14694
#
# Static dielectric constant tensor:
#      x y z
#    x 1.773300 0.000000 0.000000 
#    y 0.000000 1.819600 0.000000 
#    z 0.000000 0.000000 0.634680 
# 
# From -- ./inp_files/9492.got.cif
#   From: 2010.05.17/outbox.cif.g08.bks.cpg/sg62_5_cif.got.tgz:9492.got - 2010.06.03 15:25:27.
