data_PCOD9466581
_publ_section_title
;
Structure prediction by ZEFSAII (Michael W. Deem and Ramdas Pophale) SiO2 
 PCOD9466581
Probable space group: P N M A
;
_chemical_formula_sum "Si O2"
_cell_formula_units_Z 40
_cell_length_a 9.079618
_cell_length_b 31.246409
_cell_length_c 4.980833
_cell_angle_alpha 90.000000
_cell_angle_beta 90.000000
_cell_angle_gamma 90.000000
_cell_volume 1413.089505
_symmetry_space_group_name_H-M "P N M A"
_symmetry_group_IT_number 62
_symmetry_cell_setting 'orthorhombic'
loop_
_space_group_symop_operation_xyz
x,y,z
1/2-x,-y,1/2+z
1/2+x,1/2-y,1/2-z
-x,1/2+y,-z
-x,-y,-z
1/2+x,y,1/2-z
1/2-x,1/2+y,1/2+z
x,1/2-y,z
loop_
_atom_site_type_symbol
_atom_site_label
_atom_site_fract_x
_atom_site_fract_y
_atom_site_fract_z
Si Si1 0.016810 0.250000 0.377889
Si Si2 0.283789 0.345931 0.738937
Si Si3 0.048457 0.581041 0.920154
Si Si4 0.721407 0.750000 0.261112
Si Si5 0.766838 0.527994 0.962952
Si Si6 0.522218 0.341717 0.113534
O O1 0.106836 0.250000 0.662211
O O2 0.056242 0.204225 0.260165
O O3 0.845384 0.250000 0.461432
O O4 0.350937 0.389179 0.611090
O O5 0.327973 0.297411 0.637494
O O6 0.349996 0.344445 0.036269
O O7 0.113422 0.346115 0.661931
O O8 0.149128 0.557341 0.697340
O O9 0.922857 0.549783 0.032323
O O10 0.946714 0.616858 0.779514
O O11 0.794910 0.490822 0.740807
#
# Coordination Sequence:
#
# PCOD9466581 Si02
#       6
#     4   8   8   4   8   8
#     4   8  16  35  58  92 137 185 227 281 340 403
#     4  10  22  39  66  99 140 184 236 287 345 418
#     4  12  26  43  72 102 136 184 236 295 360 432
#     4   8  16  35  58  92 137 185 227 281 340 403
#     4  12  30  52  76 105 142 183 236 302 378 442
#     4  10  22  39  66  99 140 184 236 287 345 418
#
# _framework density 28.30677
#
# number of rings (size 3 to 8) (size 9 to 14) (size 15 to 20)
#    0.000    1.600    2.000    1.200    8.400    0.800 
#    0.000    0.000    0.000    0.000    0.000    0.000 
#    0.000    0.000    0.000    0.000    0.000    0.000 
#
# Total GULP energy -223541.187918 kJ/mol
# GULP energy per Si atom -5588.529698 kJ/mol
# Density = 2.824234 g / cm^3
# Si number density = 28.306770 Si / 1000 Ang^3
#
#
#
# Elastic Constant Matrix: (Units=GPa)
#
#
# Indices 1 2 3 4 5 6 
#
# 1 120.1416 47.2019 6.3087 0.0000 0.0000 0.0000
# 2 47.2019 167.9919 19.9760 0.0000 0.0000 0.0000
# 3 6.3087 19.9760 62.8301 0.0000 0.0000 0.0000
# 4 0.0000 0.0000 0.0000 36.5573 0.0000 0.0000
# 5 0.0000 0.0000 0.0000 0.0000 44.7262 0.0000
# 6 0.0000 0.0000 0.0000 0.0000 0.0000 49.8286
#
#
#
# Elastic Compliance Matrix: (Units=1/GPa)
#
#
# Indices 1 2 3 4 5 6 
#
# 1 0.009357 -0.002616 -0.000108 0.000000 0.000000 0.000000
# 2 -0.002616 0.006918 -0.001937 0.000000 0.000000 0.000000
# 3 -0.000108 -0.001937 0.016543 0.000000 0.000000 0.000000
# 4 0.000000 0.000000 0.000000 0.027354 0.000000 0.000000
# 5 0.000000 0.000000 0.000000 0.000000 0.022358 0.000000
# 6 0.000000 0.000000 0.000000 0.000000 0.000000 0.020069
#
#
# Mechanical properties :
#
#
# Convention : Reuss Voigt Hill
#
# Bulk Modulus (GPa) = 42.56038 55.32630 48.94334
# Shear Modulus (GPa) = 41.75269 44.72090 43.23679
#
# Velocity S-wave (km/s) = 3.84475 3.97906 3.91248
# Velocity P-wave (km/s) = 5.89725 6.37952 6.14312
#
# Compressibility (1/GPa) = 0.02349603
#
# Stress axis : x y z
#
# Youngs Moduli (GPa) = 106.87099 144.54835 60.45023
#
# Poissons Ratio (x) = 0.37818 0.00651
# Poissons Ratio (y) = 0.27961 0.11708
# Poissons Ratio (z) = 0.01151 0.27996
#
# Static dielectric constant tensor:
#      x y z
#    x 2.136150 0.000000 0.000000 
#    y 0.000000 2.224810 0.000000 
#    z 0.000000 0.000000 2.232400 
# 
# From -- ./inp_files/651.got.cif
#   From: 2010.05.17/outbox.cif.g08.bks.cpg/sg62_1_cif.got.tgz:651.got - 2010.06.03 15:25:27.
