data_PCOD9466425
_publ_section_title
;
Structure prediction by ZEFSAII (Michael W. Deem and Ramdas Pophale) SiO2 
 PCOD9466425
Probable space group: P N M A
;
_chemical_formula_sum "Si O2"
_cell_formula_units_Z 48
_cell_length_a 10.391447
_cell_length_b 18.212885
_cell_length_c 11.703578
_cell_angle_alpha 90.000000
_cell_angle_beta 90.000000
_cell_angle_gamma 90.000000
_cell_volume 2214.998448
_symmetry_space_group_name_H-M "P N M A"
_symmetry_group_IT_number 62
_symmetry_cell_setting 'orthorhombic'
loop_
_space_group_symop_operation_xyz
x,y,z
1/2-x,-y,1/2+z
1/2+x,1/2-y,1/2-z
-x,1/2+y,-z
-x,-y,-z
1/2+x,y,1/2-z
1/2-x,1/2+y,1/2+z
x,1/2-y,z
loop_
_atom_site_type_symbol
_atom_site_label
_atom_site_fract_x
_atom_site_fract_y
_atom_site_fract_z
Si Si1 0.942583 0.750000 0.456519
Si Si2 0.538712 0.998589 0.702964
Si Si3 0.224894 0.091478 0.204006
Si Si4 0.836587 0.250000 0.864864
Si Si5 0.833072 0.896274 0.041939
Si Si6 0.147209 0.250000 0.281696
Si Si7 0.026586 0.250000 0.047489
Si Si8 0.910703 0.367973 0.681639
O O1 0.816368 0.750000 0.375410
O O2 0.905844 0.750000 0.589599
O O3 0.025739 0.819788 0.417953
O O4 0.566708 0.043307 0.586186
O O5 0.497274 0.061995 0.791651
O O6 0.419211 0.942445 0.707757
O O7 0.668825 0.955616 0.731471
O O8 0.221944 0.174411 0.252205
O O9 0.251766 0.084839 0.068890
O O10 0.893703 0.318696 0.795231
O O11 0.886192 0.250000 0.994260
O O12 0.902146 0.821347 0.003510
O O13 0.733935 0.885911 0.144737
O O14 0.036381 0.250000 0.183475
#
# Coordination Sequence:
#
# PCOD9466425 Si02
#       8
#     4   8   8   4   8   4   4   8
#     4  11  26  42  71 104 144 185 233 288 352 418
#     4  12  24  46  71 107 137 185 236 292 352 422
#     4  11  28  45  74  97 143 190 237 286 353 422
#     4  11  22  40  69 107 135 184 231 292 348 417
#     4  11  23  45  69 102 142 186 231 289 350 422
#     4  10  27  51  66 102 137 190 236 288 342 438
#     4  10  21  43  74  97 138 189 234 280 352 419
#     4  11  24  41  72 105 142 177 235 298 354 410
#
# _framework density 21.670444
#
# number of rings (size 3 to 8) (size 9 to 14) (size 15 to 20)
#    0.000    1.000    3.333    2.500    4.667    5.333 
#    3.000    0.000    0.000    0.000    0.000    0.000 
#    0.000    0.000    0.000    0.000    0.000    0.000 
#
# Total GULP energy -268229.847992 kJ/mol
# GULP energy per Si atom -5588.121833 kJ/mol
# Density = 2.162112 g / cm^3
# Si number density = 21.670444 Si / 1000 Ang^3
#
#
#
# Elastic Constant Matrix: (Units=GPa)
#
#
# Indices 1 2 3 4 5 6 
#
# 1 88.6097 42.8618 16.8558 0.0000 0.0000 0.0000
# 2 42.8618 148.6961 45.0735 0.0000 0.0000 0.0000
# 3 16.8558 45.0735 101.1363 0.0000 0.0000 0.0000
# 4 0.0000 0.0000 0.0000 -34.3767 0.0000 0.0000
# 5 0.0000 0.0000 0.0000 0.0000 23.4844 0.0000
# 6 0.0000 0.0000 0.0000 0.0000 0.0000 32.3095
#
#
#
# Elastic Compliance Matrix: (Units=1/GPa)
#
#
# Indices 1 2 3 4 5 6 
#
# 1 0.013143 -0.003613 -0.000580 0.000000 0.000000 0.000000
# 2 -0.003613 0.008769 -0.003306 0.000000 0.000000 0.000000
# 3 -0.000580 -0.003306 0.011458 0.000000 0.000000 0.000000
# 4 0.000000 0.000000 0.000000 -0.029089 0.000000 0.000000
# 5 0.000000 0.000000 0.000000 0.000000 0.042582 0.000000
# 6 0.000000 0.000000 0.000000 0.000000 0.000000 0.030951
#
#
# Mechanical properties :
#
#
# Convention : Reuss Voigt Hill
#
# Bulk Modulus (GPa) = 54.43130 60.89159 57.66145
# Shear Modulus (GPa) = 50.53876 19.86017 35.19947
#
# Velocity S-wave (km/s) = 4.83447 3.03060 4.03464
# Velocity P-wave (km/s) = 7.50567 6.35657 6.95489
#
# Compressibility (1/GPa) = 0.01837178
#
# Stress axis : x y z
#
# Youngs Moduli (GPa) = 76.08413 114.04416 87.27774
#
# Poissons Ratio (x) = 0.41200 0.05066
# Poissons Ratio (y) = 0.27486 0.28852
# Poissons Ratio (z) = 0.04417 0.37701
#
# Static dielectric constant tensor:
#      x y z
#    x 1.757990 0.000000 0.000000 
#    y 0.000000 1.792790 0.000000 
#    z 0.000000 0.000000 1.788730 
# 
# From -- ./inp_files/12326.got.cif
#   From: 2010.05.17/outbox.cif.g08.bks.cpg/sg62_7_cif.got.tgz:12326.got - 2010.06.03 15:25:27.
