data_PCOD9466060
_publ_section_title
;
Structure prediction by ZEFSAII (Michael W. Deem and Ramdas Pophale) SiO2 
 PCOD9466060
Probable space group: P N M A
;
_chemical_formula_sum "Si O2"
_cell_formula_units_Z 48
_cell_length_a 9.616752
_cell_length_b 8.866865
_cell_length_c 29.117242
_cell_angle_alpha 90.000000
_cell_angle_beta 90.000000
_cell_angle_gamma 90.000000
_cell_volume 2482.840087
_symmetry_space_group_name_H-M "P N M A"
_symmetry_group_IT_number 62
_symmetry_cell_setting 'orthorhombic'
loop_
_space_group_symop_operation_xyz
x,y,z
1/2-x,-y,1/2+z
1/2+x,1/2-y,1/2-z
-x,1/2+y,-z
-x,-y,-z
1/2+x,y,1/2-z
1/2-x,1/2+y,1/2+z
x,1/2-y,z
loop_
_atom_site_type_symbol
_atom_site_label
_atom_site_fract_x
_atom_site_fract_y
_atom_site_fract_z
Si Si1 0.999189 0.067934 0.360084
Si Si2 0.693518 0.568134 0.218302
Si Si3 0.358892 0.429069 0.517521
Si Si4 0.592481 0.428760 0.039523
Si Si5 0.509909 0.932280 0.305304
Si Si6 0.312532 0.569274 0.616897
O O1 0.010683 0.250000 0.356992
O O2 0.835508 0.029093 0.359582
O O3 0.056401 0.016495 0.409758
O O4 0.092081 0.994746 0.320870
O O5 0.692063 0.750000 0.216778
O O6 0.853872 0.520778 0.209956
O O7 0.622957 0.523182 0.266539
O O8 0.500000 0.500000 0.500000
O O9 0.370584 0.250000 0.524743
O O10 0.248146 0.455615 0.477116
O O11 0.313510 0.504169 0.565428
O O12 0.566064 0.250000 0.039669
O O13 0.500000 0.500000 0.000000
O O14 0.510406 0.750000 0.309095
O O15 0.562073 0.003109 0.352889
O O16 0.322020 0.750000 0.614682
#
# Coordination Sequence:
#
# PCOD9466060 Si02
#       6
#     8   8   8   8   8   8
#     4  10  22  39  60  88 122 156 198 246 296 355
#     4  10  22  40  64  91 119 155 196 244 299 357
#     4  11  24  40  61  89 123 162 203 248 300 353
#     4  10  21  39  61  87 119 159 202 246 292 346
#     4  10  22  41  63  90 121 154 198 247 298 358
#     4  11  23  40  62  88 120 160 201 247 300 353
#
# _framework density 19.332698000000001
#
# number of rings (size 3 to 8) (size 9 to 14) (size 15 to 20)
#    0.000    1.667    1.667    2.000    2.333    5.333 
#    0.000    0.000    0.000    0.000    0.000    0.000 
#    0.000    0.000    0.000    0.000    0.000    0.000 
#
# Total GULP energy -268125.027802 kJ/mol
# GULP energy per Si atom -5585.938079 kJ/mol
# Density = 1.928870 g / cm^3
# Si number density = 19.332698 Si / 1000 Ang^3
#
#
#
# Elastic Constant Matrix: (Units=GPa)
#
#
# Indices 1 2 3 4 5 6 
#
# 1 101.4340 40.4893 17.4654 0.0000 0.0000 0.0000
# 2 40.4893 -2.3518 0.3781 0.0000 0.0000 0.0000
# 3 17.4654 0.3781 67.4216 0.0000 0.0000 0.0000
# 4 0.0000 0.0000 0.0000 33.3108 0.0000 0.0000
# 5 0.0000 0.0000 0.0000 0.0000 35.2144 0.0000
# 6 0.0000 0.0000 0.0000 0.0000 0.0000 29.7521
#
#
#
# Elastic Compliance Matrix: (Units=1/GPa)
#
#
# Indices 1 2 3 4 5 6 
#
# 1 0.001266 0.021721 -0.000450 0.000000 0.000000 0.000000
# 2 0.021721 -0.052114 -0.005334 0.000000 0.000000 0.000000
# 3 -0.000450 -0.005334 0.014978 0.000000 0.000000 0.000000
# 4 0.000000 0.000000 0.000000 0.030020 0.000000 0.000000
# 5 0.000000 0.000000 0.000000 0.000000 0.028397 0.000000
# 6 0.000000 0.000000 0.000000 0.000000 0.000000 0.033611
#
#
# Mechanical properties :
#
#
# Convention : Reuss Voigt Hill
#
# Bulk Modulus (GPa) = -250.22948 31.46328 -109.38310
# Shear Modulus (GPa) = 217.82593 26.86687 122.34640
#
# Velocity S-wave (km/s) = 10.62624 3.73193 7.96380
# Velocity P-wave (km/s) = 4.56526 5.90590 5.27832
#
# Compressibility (1/GPa) = -0.00399633
#
# Stress axis : x y z
#
# Youngs Moduli (GPa) = 789.99834 -19.18880 66.76259
#
# Poissons Ratio (x) = 0.41679 0.03002
# Poissons Ratio (y) = -17.15932 0.35614
# Poissons Ratio (z) = 0.35528 -0.10236
#
# Static dielectric constant tensor:
#      x y z
#    x 1.719990 0.000000 0.000000 
#    y 0.000000 1.655170 0.000000 
#    z 0.000000 0.000000 1.672700 
# 
# From -- ./inp_files/31975.got.cif
#   From: 2010.05.17/outbox.cif.g08.bks.cpg/sg62_16_cif.got.tgz:31975.got - 2010.06.03 15:25:27.
