data_PCOD9466479
_publ_section_title
;
Structure prediction by ZEFSAII (Michael W. Deem and Ramdas Pophale) SiO2 
 PCOD9466479
Probable space group: P N M A
;
_chemical_formula_sum "Si O2"
_cell_formula_units_Z 36
_cell_length_a 17.539921
_cell_length_b 10.160384
_cell_length_c 11.407639
_cell_angle_alpha 90.000000
_cell_angle_beta 90.000000
_cell_angle_gamma 90.000000
_cell_volume 2032.981957
_symmetry_space_group_name_H-M "P N M A"
_symmetry_group_IT_number 62
_symmetry_cell_setting 'orthorhombic'
loop_
_space_group_symop_operation_xyz
x,y,z
1/2-x,-y,1/2+z
1/2+x,1/2-y,1/2-z
-x,1/2+y,-z
-x,-y,-z
1/2+x,y,1/2-z
1/2-x,1/2+y,1/2+z
x,1/2-y,z
loop_
_atom_site_type_symbol
_atom_site_label
_atom_site_fract_x
_atom_site_fract_y
_atom_site_fract_z
Si Si1 0.026081 0.250000 0.834053
Si Si2 0.188916 0.750000 0.487752
Si Si3 0.375220 0.750000 0.105755
Si Si4 0.865495 0.750000 0.946132
Si Si5 0.087989 0.998499 0.462697
Si Si6 0.710834 0.750000 0.292224
Si Si7 0.596821 0.976177 0.317925
O O1 0.056038 0.250000 0.700042
O O2 0.974770 0.118298 0.850872
O O3 0.095186 0.250000 0.925824
O O4 0.272951 0.750000 0.544884
O O5 0.136125 0.624074 0.512022
O O6 0.200702 0.750000 0.347467
O O7 0.298262 0.750000 0.178123
O O8 0.377352 0.873989 0.021677
O O9 0.893667 0.616015 0.881791
O O10 0.092531 0.999058 0.321995
O O11 0.000000 0.000000 0.500000
O O12 0.668972 0.880374 0.340177
#
# Coordination Sequence:
#
# PCOD9466479 Si02
#       7
#     4   4   4   4   8   4   8
#     4  11  22  39  59  83 114 165 194 229 295 356
#     4  10  22  37  59  89 117 157 188 241 302 344
#     4  12  20  36  60  85 113 150 197 240 291 348
#     4  12  22  39  60  85 123 153 201 243 284 349
#     4  11  21  37  62  87 117 149 196 246 296 345
#     4   9  20  39  60  82 117 155 192 235 298 357
#     4  10  22  40  60  86 117 156 196 243 293 344
#
# _framework density 17.707977
#
# number of rings (size 3 to 8) (size 9 to 14) (size 15 to 20)
#    0.000    1.333    3.333    4.000    0.000    0.000 
#    0.000    0.000    0.000    0.000    0.000    0.000 
#    0.000    0.000    0.000    0.000    0.000    0.000 
#
# Total GULP energy -200851.408244 kJ/mol
# GULP energy per Si atom -5579.205785 kJ/mol
# Density = 1.766767 g / cm^3
# Si number density = 17.707977 Si / 1000 Ang^3
#
#
#
# Elastic Constant Matrix: (Units=GPa)
#
#
# Indices 1 2 3 4 5 6 
#
# 1 116.7367 62.9774 20.4733 0.0000 0.0000 0.0000
# 2 62.9774 186.3642 50.6583 0.0000 0.0000 0.0000
# 3 20.4733 50.6583 56.7482 0.0000 0.0000 0.0000
# 4 0.0000 0.0000 0.0000 34.8368 0.0000 0.0000
# 5 0.0000 0.0000 0.0000 0.0000 28.1222 0.0000
# 6 0.0000 0.0000 0.0000 0.0000 0.0000 23.1087
#
#
#
# Elastic Compliance Matrix: (Units=1/GPa)
#
#
# Indices 1 2 3 4 5 6 
#
# 1 0.010505 -0.003327 -0.000820 0.000000 0.000000 0.000000
# 2 -0.003327 0.008139 -0.006065 0.000000 0.000000 0.000000
# 3 -0.000820 -0.006065 0.023332 0.000000 0.000000 0.000000
# 4 0.000000 0.000000 0.000000 0.028705 0.000000 0.000000
# 5 0.000000 0.000000 0.000000 0.000000 0.035559 0.000000
# 6 0.000000 0.000000 0.000000 0.000000 0.000000 0.043274
#
#
# Mechanical properties :
#
#
# Convention : Reuss Voigt Hill
#
# Bulk Modulus (GPa) = 46.40070 69.78526 58.09298
# Shear Modulus (GPa) = 28.22925 32.26289 30.24607
#
# Velocity S-wave (km/s) = 3.99702 4.27305 4.13734
# Velocity P-wave (km/s) = 6.89650 7.98998 7.46329
#
# Compressibility (1/GPa) = 0.02155140
#
# Stress axis : x y z
#
# Youngs Moduli (GPa) = 95.19314 122.86891 42.86014
#
# Poissons Ratio (x) = 0.40879 0.03514
# Poissons Ratio (y) = 0.31671 0.25995
# Poissons Ratio (z) = 0.07805 0.74521
#
# Static dielectric constant tensor:
#      x y z
#    x 1.610660 0.000000 0.000000 
#    y 0.000000 1.873410 0.000000 
#    z 0.000000 0.000000 1.590460 
# 
# From -- ./inp_files/13914.got.cif
#   From: 2010.05.17/outbox.cif.g08.bks.cpg/sg62_7_cif.got.tgz:13914.got - 2010.06.03 15:25:27.
