data_PCOD9466802
_publ_section_title
;
Structure prediction by ZEFSAII (Michael W. Deem and Ramdas Pophale) SiO2 
 PCOD9466802
Probable space group: P N M A
;
_chemical_formula_sum "Si O2"
_cell_formula_units_Z 32
_cell_length_a 12.449868
_cell_length_b 22.309017
_cell_length_c 5.323653
_cell_angle_alpha 90.000000
_cell_angle_beta 90.000000
_cell_angle_gamma 90.000000
_cell_volume 1478.614366
_symmetry_space_group_name_H-M "P N M A"
_symmetry_group_IT_number 62
_symmetry_cell_setting 'orthorhombic'
loop_
_space_group_symop_operation_xyz
x,y,z
1/2-x,-y,1/2+z
1/2+x,1/2-y,1/2-z
-x,1/2+y,-z
-x,-y,-z
1/2+x,y,1/2-z
1/2-x,1/2+y,1/2+z
x,1/2-y,z
loop_
_atom_site_type_symbol
_atom_site_label
_atom_site_fract_x
_atom_site_fract_y
_atom_site_fract_z
Si Si1 0.980621 0.620095 0.416427
Si Si2 0.721641 0.082272 0.191982
Si Si3 0.583245 0.179750 0.405176
Si Si4 0.104892 0.531276 0.115893
O O1 0.068021 0.569385 0.357256
O O2 0.865925 0.587729 0.465874
O O3 0.989826 0.659776 0.667033
O O4 0.968373 0.659659 0.166989
O O5 0.838039 0.076022 0.076675
O O6 0.690816 0.139758 0.359770
O O7 0.688015 0.021690 0.331344
O O8 0.604196 0.250000 0.399783
O O9 0.000000 0.500000 0.000000
#
# Coordination Sequence:
#
# PCOD9466802 Si02
#       4
#     8   8   8   8
#     4  10  22  42  66  93 132 171 213 275 327 389
#     4  10  25  38  69  96 134 174 211 283 331 402
#     4  10  22  44  66  91 131 176 220 271 323 391
#     4  12  21  42  65 103 134 168 223 276 341 402
#
# _framework density 21.641883
#
# number of rings (size 3 to 8) (size 9 to 14) (size 15 to 20)
#    1.500    0.000    2.500    3.000    0.000    2.000 
#    0.000    2.500    0.000    0.000    0.000    0.000 
#    0.000    0.000    0.000    0.000    0.000    0.000 
#
# Total GULP energy -178639.049999 kJ/mol
# GULP energy per Si atom -5582.470312 kJ/mol
# Density = 2.159263 g / cm^3
# Si number density = 21.641883 Si / 1000 Ang^3
#
#
#
# Elastic Constant Matrix: (Units=GPa)
#
#
# Indices 1 2 3 4 5 6 
#
# 1 50.7804 16.9856 5.9858 0.0000 0.0000 0.0000
# 2 16.9856 142.2396 37.4498 0.0000 0.0000 0.0000
# 3 5.9858 37.4498 118.9526 0.0000 0.0000 0.0000
# 4 0.0000 0.0000 0.0000 30.9545 0.0000 0.0000
# 5 0.0000 0.0000 0.0000 0.0000 30.3611 0.0000
# 6 0.0000 0.0000 0.0000 0.0000 0.0000 10.0184
#
#
#
# Elastic Compliance Matrix: (Units=1/GPa)
#
#
# Indices 1 2 3 4 5 6 
#
# 1 0.020521 -0.002376 -0.000285 0.000000 0.000000 0.000000
# 2 -0.002376 0.007941 -0.002380 0.000000 0.000000 0.000000
# 3 -0.000285 -0.002380 0.009170 0.000000 0.000000 0.000000
# 4 0.000000 0.000000 0.000000 0.032305 0.000000 0.000000
# 5 0.000000 0.000000 0.000000 0.000000 0.032937 0.000000
# 6 0.000000 0.000000 0.000000 0.000000 0.000000 0.099816
#
#
# Mechanical properties :
#
#
# Convention : Reuss Voigt Hill
#
# Bulk Modulus (GPa) = 36.29682 48.09054 42.19368
# Shear Modulus (GPa) = 22.52706 31.03691 26.78198
#
# Velocity S-wave (km/s) = 3.22980 3.79108 3.52164
# Velocity P-wave (km/s) = 5.54227 6.43679 6.00621
#
# Compressibility (1/GPa) = 0.02755063
#
# Stress axis : x y z
#
# Youngs Moduli (GPa) = 48.73105 125.93174 109.04554
#
# Poissons Ratio (x) = 0.29915 0.03105
# Poissons Ratio (y) = 0.11576 0.25958
# Poissons Ratio (z) = 0.01388 0.29978
#
# Static dielectric constant tensor:
#      x y z
#    x 1.798620 0.000000 0.000000 
#    y 0.000000 1.756710 0.000000 
#    z 0.000000 0.000000 1.862070 
# 
# From -- ./inp_files/488.got.cif
#   From: 2010.05.17/outbox.cif.g08.bks.cpg/sg62_1_cif.got.tgz:488.got - 2010.06.03 15:25:27.
