data_PCOD9466145
_publ_section_title
;
Structure prediction by ZEFSAII (Michael W. Deem and Ramdas Pophale) SiO2 
 PCOD9466145
Probable space group: P N M A
;
_chemical_formula_sum "Si O2"
_cell_formula_units_Z 56
_cell_length_a 14.048606
_cell_length_b 22.627784
_cell_length_c 8.618971
_cell_angle_alpha 90.000000
_cell_angle_beta 90.000000
_cell_angle_gamma 90.000000
_cell_volume 2739.874539
_symmetry_space_group_name_H-M "P N M A"
_symmetry_group_IT_number 62
_symmetry_cell_setting 'orthorhombic'
loop_
_space_group_symop_operation_xyz
x,y,z
1/2-x,-y,1/2+z
1/2+x,1/2-y,1/2-z
-x,1/2+y,-z
-x,-y,-z
1/2+x,y,1/2-z
1/2-x,1/2+y,1/2+z
x,1/2-y,z
loop_
_atom_site_type_symbol
_atom_site_label
_atom_site_fract_x
_atom_site_fract_y
_atom_site_fract_z
Si Si1 0.180591 0.923534 0.850889
Si Si2 0.822687 0.184772 0.372696
Si Si3 0.383795 0.681637 0.567707
Si Si4 0.005185 0.817597 0.389783
Si Si5 0.390761 0.886626 0.873099
Si Si6 0.970021 0.011260 0.320851
Si Si7 0.531029 0.899540 0.384368
O O1 0.167318 0.862116 0.761244
O O2 0.293085 0.923853 0.884589
O O3 0.137318 0.971804 0.731073
O O4 0.116120 0.920137 0.003929
O O5 0.811192 0.250000 0.305244
O O6 0.727637 0.173457 0.473531
O O7 0.915192 0.183497 0.477730
O O8 0.411968 0.750000 0.539731
O O9 0.383285 0.667207 0.751452
O O10 0.448415 0.633560 0.482131
O O11 0.974720 0.750000 0.357826
O O12 0.052695 0.849403 0.243232
O O13 0.923099 0.859335 0.462642
O O14 0.468421 0.929657 0.795671
O O15 0.000000 0.000000 0.500000
O O16 0.999075 0.957076 0.212026
#
# Coordination Sequence:
#
# PCOD9466145 Si02
#       7
#     8   8   8   8   8   8   8
#     4  11  24  41  66 101 123 168 223 272 327 388
#     4   9  19  39  66  92 126 169 213 260 322 392
#     4  10  21  39  65  96 128 166 213 268 324 388
#     4  11  22  41  64  92 131 176 213 266 331 390
#     4  11  23  43  67  96 128 175 219 268 328 395
#     4  12  24  47  65  90 132 175 220 267 332 392
#     4  12  24  41  64  95 134 167 218 277 327 393
#
# _framework density 20.438891000000002
#
# number of rings (size 3 to 8) (size 9 to 14) (size 15 to 20)
#    0.000    1.143    4.286    1.286    0.000    5.143 
#    5.143    1.429    0.000    0.000    0.000    0.000 
#    0.000    0.000    0.000    0.000    0.000    0.000 
#
# Total GULP energy -312317.523309 kJ/mol
# GULP energy per Si atom -5577.098631 kJ/mol
# Density = 2.039237 g / cm^3
# Si number density = 20.438891 Si / 1000 Ang^3
#
#
#
# Elastic Constant Matrix: (Units=GPa)
#
#
# Indices 1 2 3 4 5 6 
#
# 1 63.0888 4.0714 -2.6062 0.0000 0.0000 0.0000
# 2 4.0714 76.2762 13.0957 0.0000 0.0000 0.0000
# 3 -2.6062 13.0957 61.3441 0.0000 0.0000 0.0000
# 4 0.0000 0.0000 0.0000 8.9731 0.0000 0.0000
# 5 0.0000 0.0000 0.0000 0.0000 5.5354 0.0000
# 6 0.0000 0.0000 0.0000 0.0000 0.0000 26.7367
#
#
#
# Elastic Compliance Matrix: (Units=1/GPa)
#
#
# Indices 1 2 3 4 5 6 
#
# 1 0.015952 -0.001005 0.000892 0.000000 0.000000 0.000000
# 2 -0.001005 0.013672 -0.002961 0.000000 0.000000 0.000000
# 3 0.000892 -0.002961 0.016972 0.000000 0.000000 0.000000
# 4 0.000000 0.000000 0.000000 0.111444 0.000000 0.000000
# 5 0.000000 0.000000 0.000000 0.000000 0.180656 0.000000
# 6 0.000000 0.000000 0.000000 0.000000 0.000000 0.037402
#
#
# Mechanical properties :
#
#
# Convention : Reuss Voigt Hill
#
# Bulk Modulus (GPa) = 24.72279 25.53675 25.12977
# Shear Modulus (GPa) = 12.63493 20.65892 16.64692
#
# Velocity S-wave (km/s) = 2.48902 3.18270 2.85699
# Velocity P-wave (km/s) = 4.51470 5.10171 4.81715
#
# Compressibility (1/GPa) = 0.04044851
#
# Stress axis : x y z
#
# Youngs Moduli (GPa) = 62.68659 73.14048 58.92193
#
# Poissons Ratio (x) = 0.07348 -0.05257
# Poissons Ratio (y) = 0.06298 0.17449
# Poissons Ratio (z) = -0.05593 0.21660
#
# Static dielectric constant tensor:
#      x y z
#    x 1.769350 0.000000 0.000000 
#    y 0.000000 1.747760 0.000000 
#    z 0.000000 0.000000 1.765620 
# 
# From -- ./inp_files/6744.got.cif
#   From: 2010.05.17/outbox.cif.g08.bks.cpg/sg62_4_cif.got.tgz:6744.got - 2010.06.03 15:25:27.
