data_PCOD9466927
_publ_section_title
;
Structure prediction by ZEFSAII (Michael W. Deem and Ramdas Pophale) SiO2 
 PCOD9466927
Probable space group: P N M A
;
_chemical_formula_sum "Si O2"
_cell_formula_units_Z 44
_cell_length_a 14.741182
_cell_length_b 25.552990
_cell_length_c 4.790401
_cell_angle_alpha 90.000000
_cell_angle_beta 90.000000
_cell_angle_gamma 90.000000
_cell_volume 1804.454362
_symmetry_space_group_name_H-M "P N M A"
_symmetry_group_IT_number 62
_symmetry_cell_setting 'orthorhombic'
loop_
_space_group_symop_operation_xyz
x,y,z
1/2-x,-y,1/2+z
1/2+x,1/2-y,1/2-z
-x,1/2+y,-z
-x,-y,-z
1/2+x,y,1/2-z
1/2-x,1/2+y,1/2+z
x,1/2-y,z
loop_
_atom_site_type_symbol
_atom_site_label
_atom_site_fract_x
_atom_site_fract_y
_atom_site_fract_z
Si Si1 0.613571 0.159591 0.298734
Si Si2 0.416954 0.482221 0.195577
Si Si3 0.832949 0.592002 0.320019
Si Si4 0.257583 0.250000 0.346881
Si Si5 0.128816 0.584676 0.195155
Si Si6 0.429894 0.305561 0.572491
O O1 0.657506 0.133211 0.571173
O O2 0.680620 0.204332 0.191127
O O3 0.517406 0.183634 0.385737
O O4 0.605260 0.114387 0.068344
O O5 0.363958 0.534791 0.273348
O O6 0.431745 0.447633 0.472345
O O7 0.500000 0.500000 0.000000
O O8 0.361372 0.446067 0.982392
O O9 0.729953 0.589380 0.424144
O O10 0.338225 0.294343 0.400111
O O11 0.087735 0.641955 0.243824
O O12 0.443609 0.250000 0.732495
#
# Coordination Sequence:
#
# PCOD9466927 Si02
#       6
#     8   8   8   4   8   8
#     4  12  24  48  70 108 140 192 235 302 361 436
#     4  12  25  44  68 103 139 186 237 299 361 431
#     4  12  25  45  72 100 144 183 245 296 365 432
#     4  10  22  48  70 104 144 186 240 294 358 438
#     4  12  24  44  69 102 139 188 239 290 362 428
#     4  10  23  45  71 104 144 188 240 296 361 430
#
# _framework density 24.384101999999999
#
# number of rings (size 3 to 8) (size 9 to 14) (size 15 to 20)
#    0.545    0.000    2.727    6.000    0.000    0.727 
#    1.636    2.727    0.000    0.000    0.000    0.000 
#    0.000    0.000    0.000    0.000    0.000    0.000 
#
# Total GULP energy -245337.791835 kJ/mol
# GULP energy per Si atom -5575.858905 kJ/mol
# Density = 2.432860 g / cm^3
# Si number density = 24.384102 Si / 1000 Ang^3
#
#
#
# Elastic Constant Matrix: (Units=GPa)
#
#
# Indices 1 2 3 4 5 6 
#
# 1 104.6667 36.3505 -14.8250 0.0000 0.0000 0.0000
# 2 36.3505 157.7565 28.7683 0.0000 0.0000 0.0000
# 3 -14.8250 28.7683 65.6803 0.0000 0.0000 0.0000
# 4 0.0000 0.0000 0.0000 11.8833 0.0000 0.0000
# 5 0.0000 0.0000 0.0000 0.0000 19.4214 0.0000
# 6 0.0000 0.0000 0.0000 0.0000 0.0000 37.7697
#
#
#
# Elastic Compliance Matrix: (Units=1/GPa)
#
#
# Indices 1 2 3 4 5 6 
#
# 1 0.011277 -0.003329 0.004003 0.000000 0.000000 0.000000
# 2 -0.003329 0.007872 -0.004199 0.000000 0.000000 0.000000
# 3 0.004003 -0.004199 0.017968 0.000000 0.000000 0.000000
# 4 0.000000 0.000000 0.000000 0.084152 0.000000 0.000000
# 5 0.000000 0.000000 0.000000 0.000000 0.051490 0.000000
# 6 0.000000 0.000000 0.000000 0.000000 0.000000 0.026476
#
#
# Mechanical properties :
#
#
# Convention : Reuss Voigt Hill
#
# Bulk Modulus (GPa) = 33.25768 47.63236 40.44502
# Shear Modulus (GPa) = 23.11543 32.33553 27.72548
#
# Velocity S-wave (km/s) = 3.08225 3.64550 3.37565
# Velocity P-wave (km/s) = 5.13184 6.10706 5.64056
#
# Compressibility (1/GPa) = 0.03006825
#
# Stress axis : x y z
#
# Youngs Moduli (GPa) = 88.67472 127.03900 55.65419
#
# Poissons Ratio (x) = 0.42286 -0.22280
# Poissons Ratio (y) = 0.29516 0.23370
# Poissons Ratio (z) = -0.35500 0.53345
#
# Static dielectric constant tensor:
#      x y z
#    x 1.954970 0.000000 0.000000 
#    y 0.000000 1.952140 0.000000 
#    z 0.000000 0.000000 1.957610 
# 
# From -- ./inp_files/1111.got.cif
#   From: 2010.05.17/outbox.cif.g08.bks.cpg/sg62_1_cif.got.tgz:1111.got - 2010.06.03 15:25:27.
