data_PCOD9466619
_publ_section_title
;
Structure prediction by ZEFSAII (Michael W. Deem and Ramdas Pophale) SiO2 
 PCOD9466619
Probable space group: P N M A
;
_chemical_formula_sum "Si O2"
_cell_formula_units_Z 48
_cell_length_a 13.280628
_cell_length_b 24.150275
_cell_length_c 6.771582
_cell_angle_alpha 90.000000
_cell_angle_beta 90.000000
_cell_angle_gamma 90.000000
_cell_volume 2171.855037
_symmetry_space_group_name_H-M "P N M A"
_symmetry_group_IT_number 62
_symmetry_cell_setting 'orthorhombic'
loop_
_space_group_symop_operation_xyz
x,y,z
1/2-x,-y,1/2+z
1/2+x,1/2-y,1/2-z
-x,1/2+y,-z
-x,-y,-z
1/2+x,y,1/2-z
1/2-x,1/2+y,1/2+z
x,1/2-y,z
loop_
_atom_site_type_symbol
_atom_site_label
_atom_site_fract_x
_atom_site_fract_y
_atom_site_fract_z
Si Si1 0.113234 0.686456 0.486689
Si Si2 0.579625 0.449870 0.237253
Si Si3 0.294020 0.689147 0.197218
Si Si4 0.544918 0.396955 0.838986
Si Si5 0.258119 0.635090 0.810006
Si Si6 0.105954 0.946352 0.018882
O O1 0.089320 0.750000 0.531978
O O2 0.183500 0.685294 0.291788
O O3 0.182788 0.659079 0.651387
O O4 0.015072 0.649826 0.460480
O O5 0.643966 0.394484 0.279769
O O6 0.636195 0.499125 0.355901
O O7 0.468080 0.454878 0.330908
O O8 0.571934 0.444935 0.997941
O O9 0.335127 0.750000 0.254748
O O10 0.361014 0.635906 0.252683
O O11 0.286968 0.683046 0.962218
O O12 0.468292 0.416383 0.672945
O O13 0.199181 0.588984 0.941113
#
# Coordination Sequence:
#
# PCOD9466619 Si02
#       6
#     8   8   8   8   8   8
#     4  11  22  38  62  91 123 160 204 252 305 363
#     4  10  24  41  62  90 125 160 205 251 305 366
#     4  10  22  40  61  88 122 161 206 250 302 364
#     4  11  21  40  64  89 124 161 201 252 307 363
#     4  11  22  41  63  91 122 162 201 255 307 366
#     4  11  22  42  63  92 123 162 204 250 307 369
#
# _framework density 22.100919999999999
#
# number of rings (size 3 to 8) (size 9 to 14) (size 15 to 20)
#    0.000    1.333    3.333    2.500    0.000    1.333 
#   12.000    0.000    0.000    0.000    0.000    0.000 
#    0.000    0.000    0.000    0.000    0.000    0.000 
#
# Total GULP energy -267873.177179 kJ/mol
# GULP energy per Si atom -5580.691191 kJ/mol
# Density = 2.205062 g / cm^3
# Si number density = 22.100920 Si / 1000 Ang^3
#
#
#
# Elastic Constant Matrix: (Units=GPa)
#
#
# Indices 1 2 3 4 5 6 
#
# 1 36.5822 -0.2076 14.8887 0.0000 0.0000 0.0000
# 2 -0.2076 78.9669 36.8588 0.0000 0.0000 0.0000
# 3 14.8887 36.8588 59.0602 0.0000 0.0000 0.0000
# 4 0.0000 0.0000 0.0000 23.4473 0.0000 0.0000
# 5 0.0000 0.0000 0.0000 0.0000 19.3350 0.0000
# 6 0.0000 0.0000 0.0000 0.0000 0.0000 19.8217
#
#
#
# Elastic Compliance Matrix: (Units=1/GPa)
#
#
# Indices 1 2 3 4 5 6 
#
# 1 0.032035 0.005438 -0.011469 0.000000 0.000000 0.000000
# 2 0.005438 0.018792 -0.013099 0.000000 0.000000 0.000000
# 3 -0.011469 -0.013099 0.027998 0.000000 0.000000 0.000000
# 4 0.000000 0.000000 0.000000 0.042649 0.000000 0.000000
# 5 0.000000 0.000000 0.000000 0.000000 0.051720 0.000000
# 6 0.000000 0.000000 0.000000 0.000000 0.000000 0.050450
#
#
# Mechanical properties :
#
#
# Convention : Reuss Voigt Hill
#
# Bulk Modulus (GPa) = 24.65250 30.85432 27.75341
# Shear Modulus (GPa) = 18.15384 20.72543 19.43963
#
# Velocity S-wave (km/s) = 2.86913 3.06561 2.96900
# Velocity P-wave (km/s) = 4.70687 5.14991 4.93337
#
# Compressibility (1/GPa) = 0.04056383
#
# Stress axis : x y z
#
# Youngs Moduli (GPa) = 31.21634 53.21492 35.71702
#
# Poissons Ratio (x) = -0.28937 0.40965
# Poissons Ratio (y) = -0.16974 0.46784
# Poissons Ratio (z) = 0.35803 0.69704
#
# Static dielectric constant tensor:
#      x y z
#    x 1.785010 0.000000 0.000000 
#    y 0.000000 1.842150 0.000000 
#    z 0.000000 0.000000 1.813810 
# 
# From -- ./inp_files/1155.got.cif
#   From: 2010.05.17/outbox.cif.g08.bks.cpg/sg62_1_cif.got.tgz:1155.got - 2010.06.03 15:25:27.
