data_PCOD9466981
_publ_section_title
;
Structure prediction by ZEFSAII (Michael W. Deem and Ramdas Pophale) SiO2 
 PCOD9466981
Probable space group: P N M A
;
_chemical_formula_sum "Si O2"
_cell_formula_units_Z 40
_cell_length_a 9.973603
_cell_length_b 10.255097
_cell_length_c 17.549994
_cell_angle_alpha 90.000000
_cell_angle_beta 90.000000
_cell_angle_gamma 90.000000
_cell_volume 1795.018058
_symmetry_space_group_name_H-M "P N M A"
_symmetry_group_IT_number 62
_symmetry_cell_setting 'orthorhombic'
loop_
_space_group_symop_operation_xyz
x,y,z
1/2-x,-y,1/2+z
1/2+x,1/2-y,1/2-z
-x,1/2+y,-z
-x,-y,-z
1/2+x,y,1/2-z
1/2-x,1/2+y,1/2+z
x,1/2-y,z
loop_
_atom_site_type_symbol
_atom_site_label
_atom_site_fract_x
_atom_site_fract_y
_atom_site_fract_z
Si Si1 0.400315 0.610753 0.658476
Si Si2 0.842510 0.466194 0.240725
Si Si3 0.269225 0.898665 0.407900
Si Si4 0.038945 0.103674 0.615089
Si Si5 0.817580 0.402397 0.964946
O O1 0.373564 0.750000 0.618564
O O2 0.548114 0.612384 0.693152
O O3 0.292050 0.598274 0.726841
O O4 0.380263 0.484051 0.605315
O O5 0.800432 0.578217 0.181087
O O6 0.920904 0.511778 0.315795
O O7 0.303234 0.750000 0.429126
O O8 0.108976 0.917896 0.416384
O O9 0.337122 0.008407 0.460709
O O10 0.039245 0.250000 0.647307
O O11 0.158342 0.098132 0.554101
O O12 0.859625 0.250000 0.970570
#
# Coordination Sequence:
#
# PCOD9466981 Si02
#       5
#     8   8   8   8   8
#     4  11  24  43  67  95 130 169 214 265 321 384
#     4  11  22  41  65  98 130 167 212 265 322 381
#     4  11  22  39  66  96 130 171 216 263 320 382
#     4   9  19  38  62  94 128 169 216 262 315 379
#     4  10  23  41  64  93 132 172 215 266 319 379
#
# _framework density 22.283899999999999
#
# number of rings (size 3 to 8) (size 9 to 14) (size 15 to 20)
#    0.000    1.600    2.000    2.400    0.000    4.800 
#    0.000    1.000    0.000    0.000    0.000    0.000 
#    0.000    0.000    0.000    0.000    0.000    0.000 
#
# Total GULP energy -223317.373224 kJ/mol
# GULP energy per Si atom -5582.934331 kJ/mol
# Density = 2.223318 g / cm^3
# Si number density = 22.283900 Si / 1000 Ang^3
#
#
#
# Elastic Constant Matrix: (Units=GPa)
#
#
# Indices 1 2 3 4 5 6 
#
# 1 106.4167 34.5279 10.0984 0.0000 0.0000 0.0000
# 2 34.5279 165.1035 65.9826 0.0000 0.0000 0.0000
# 3 10.0984 65.9826 78.3028 0.0000 0.0000 0.0000
# 4 0.0000 0.0000 0.0000 21.3760 0.0000 0.0000
# 5 0.0000 0.0000 0.0000 0.0000 17.2681 0.0000
# 6 0.0000 0.0000 0.0000 0.0000 0.0000 0.5457
#
#
#
# Elastic Compliance Matrix: (Units=1/GPa)
#
#
# Indices 1 2 3 4 5 6 
#
# 1 0.010108 -0.002402 0.000720 0.000000 0.000000 0.000000
# 2 -0.002402 0.009703 -0.007866 0.000000 0.000000 0.000000
# 3 0.000720 -0.007866 0.019307 0.000000 0.000000 0.000000
# 4 0.000000 0.000000 0.000000 0.046781 0.000000 0.000000
# 5 0.000000 0.000000 0.000000 0.000000 0.057910 0.000000
# 6 0.000000 0.000000 0.000000 0.000000 0.000000 1.832572
#
#
# Mechanical properties :
#
#
# Convention : Reuss Voigt Hill
#
# Bulk Modulus (GPa) = 49.94576 63.44898 56.69737
# Shear Modulus (GPa) = 2.49731 23.78556 13.14144
#
# Velocity S-wave (km/s) = 1.05977 3.27063 2.43107
# Velocity P-wave (km/s) = 4.89485 6.54198 5.77742
#
# Compressibility (1/GPa) = 0.02002172
#
# Stress axis : x y z
#
# Youngs Moduli (GPa) = 98.93222 103.06247 51.79523
#
# Poissons Ratio (x) = 0.24752 -0.03730
# Poissons Ratio (y) = 0.23760 0.40745
# Poissons Ratio (z) = -0.07125 0.81074
#
# Static dielectric constant tensor:
#      x y z
#    x 1.838900 0.000000 0.000000 
#    y 0.000000 1.836110 0.000000 
#    z 0.000000 0.000000 1.804920 
# 
# From -- ./inp_files/22792.got.cif
#   From: 2010.05.17/outbox.cif.g08.bks.cpg/sg62_12_cif.got.tgz:22792.got - 2010.06.03 15:25:27.
