data_PCOD9466869
_publ_section_title
;
Structure prediction by ZEFSAII (Michael W. Deem and Ramdas Pophale) SiO2 
 PCOD9466869
Probable space group: P N M A
;
_chemical_formula_sum "Si O2"
_cell_formula_units_Z 64
_cell_length_a 24.166609
_cell_length_b 8.937220
_cell_length_c 15.204994
_cell_angle_alpha 90.000000
_cell_angle_beta 90.000000
_cell_angle_gamma 90.000000
_cell_volume 3284.009595
_symmetry_space_group_name_H-M "P N M A"
_symmetry_group_IT_number 62
_symmetry_cell_setting 'orthorhombic'
loop_
_space_group_symop_operation_xyz
x,y,z
1/2-x,-y,1/2+z
1/2+x,1/2-y,1/2-z
-x,1/2+y,-z
-x,-y,-z
1/2+x,y,1/2-z
1/2-x,1/2+y,1/2+z
x,1/2-y,z
loop_
_atom_site_type_symbol
_atom_site_label
_atom_site_fract_x
_atom_site_fract_y
_atom_site_fract_z
Si Si1 0.252095 0.071533 0.722213
Si Si2 0.667779 0.430670 0.935709
Si Si3 0.135887 0.927741 0.992133
Si Si4 0.039019 0.430221 0.573787
Si Si5 0.368392 0.573288 0.676284
Si Si6 0.534868 0.074476 0.577652
Si Si7 0.967850 0.074604 0.742470
Si Si8 0.751526 0.571680 0.068884
O O1 0.262985 0.250000 0.711339
O O2 0.202524 0.034019 0.653946
O O3 0.243119 0.045052 0.826239
O O4 0.306655 0.979724 0.697651
O O5 0.670056 0.250000 0.945735
O O6 0.603438 0.476643 0.929482
O O7 0.697858 0.506181 0.019294
O O8 0.135428 0.750000 0.992112
O O9 0.093978 0.994105 0.920696
O O10 0.196603 0.991280 0.976159
O O11 0.116059 0.988880 0.086287
O O12 0.038748 0.250000 0.565754
O O13 0.000000 0.500000 0.500000
O O14 0.009045 0.469193 0.664950
O O15 0.371013 0.750000 0.663642
O O16 0.412032 0.520453 0.749563
O O17 0.542699 0.250000 0.559470
O O18 0.501932 0.058375 0.667697
O O19 0.500000 0.000000 0.500000
O O20 0.952812 0.250000 0.732157
O O21 0.753848 0.750000 0.054828
#
# Coordination Sequence:
#
# PCOD9466869 Si02
#       8
#     8   8   8   8   8   8   8   8
#     4  10  23  42  66  93 128 168 207 260 330 390
#     4  10  22  43  68  93 128 171 213 265 325 384
#     4  12  24  40  61  89 130 171 207 258 319 380
#     4  10  24  45  68  93 124 171 222 269 321 380
#     4  12  24  39  64  94 127 163 214 267 315 384
#     4  11  22  37  61  91 126 167 209 256 310 380
#     4  10  23  42  65  90 125 170 213 259 321 382
#     4  11  24  41  66  96 124 164 213 261 320 390
#
# _framework density 19.488371999999998
#
# number of rings (size 3 to 8) (size 9 to 14) (size 15 to 20)
#    0.000    1.250    2.500    3.000    3.500    2.500 
#    0.000    0.000    0.000    0.000    0.000    0.000 
#    0.000    0.000    0.000    0.000    0.000    0.000 
#
# Total GULP energy -357663.392032 kJ/mol
# GULP energy per Si atom -5588.490500 kJ/mol
# Density = 1.944402 g / cm^3
# Si number density = 19.488372 Si / 1000 Ang^3
#
#
#
# Elastic Constant Matrix: (Units=GPa)
#
#
# Indices 1 2 3 4 5 6 
#
# 1 161.1819 64.0513 50.0505 0.0000 0.0000 0.0000
# 2 64.0513 74.9915 57.1262 0.0000 0.0000 0.0000
# 3 50.0505 57.1262 96.2096 0.0000 0.0000 0.0000
# 4 0.0000 0.0000 0.0000 28.2089 0.0000 0.0000
# 5 0.0000 0.0000 0.0000 0.0000 26.0469 0.0000
# 6 0.0000 0.0000 0.0000 0.0000 0.0000 35.0757
#
#
#
# Elastic Compliance Matrix: (Units=1/GPa)
#
#
# Indices 1 2 3 4 5 6 
#
# 1 0.009395 -0.007853 -0.000224 0.000000 0.000000 0.000000
# 2 -0.007853 0.030912 -0.014269 0.000000 0.000000 0.000000
# 3 -0.000224 -0.014269 0.018983 0.000000 0.000000 0.000000
# 4 0.000000 0.000000 0.000000 0.035450 0.000000 0.000000
# 5 0.000000 0.000000 0.000000 0.000000 0.038392 0.000000
# 6 0.000000 0.000000 0.000000 0.000000 0.000000 0.028510
#
#
# Mechanical properties :
#
#
# Convention : Reuss Voigt Hill
#
# Bulk Modulus (GPa) = 68.50921 74.98211 71.74566
# Shear Modulus (GPa) = 23.67411 28.60996 26.14204
#
# Velocity S-wave (km/s) = 3.48915 3.83567 3.66651
# Velocity P-wave (km/s) = 7.17373 7.62728 7.40398
#
# Compressibility (1/GPa) = 0.01459658
#
# Stress axis : x y z
#
# Youngs Moduli (GPa) = 106.44466 32.34961 52.67777
#
# Poissons Ratio (x) = 0.25405 0.01182
# Poissons Ratio (y) = 0.83593 0.75168
# Poissons Ratio (z) = 0.02388 0.46161
#
# Static dielectric constant tensor:
#      x y z
#    x 1.656790 0.000000 0.000000 
#    y 0.000000 1.650380 0.000000 
#    z 0.000000 0.000000 1.707990 
# 
# From -- ./inp_files/20789.got.cif
#   From: 2010.05.17/outbox.cif.g08.bks.cpg/sg62_11_cif.got.tgz:20789.got - 2010.06.03 15:25:27.
