data_PCOD9466583
_publ_section_title
;
Structure prediction by ZEFSAII (Michael W. Deem and Ramdas Pophale) SiO2 
 PCOD9466583
Probable space group: P N M A
;
_chemical_formula_sum "Si O2"
_cell_formula_units_Z 40
_cell_length_a 5.488550
_cell_length_b 17.717434
_cell_length_c 17.064838
_cell_angle_alpha 90.000000
_cell_angle_beta 90.000000
_cell_angle_gamma 90.000000
_cell_volume 1659.436424
_symmetry_space_group_name_H-M "P N M A"
_symmetry_group_IT_number 62
_symmetry_cell_setting 'orthorhombic'
loop_
_space_group_symop_operation_xyz
x,y,z
1/2-x,-y,1/2+z
1/2+x,1/2-y,1/2-z
-x,1/2+y,-z
-x,-y,-z
1/2+x,y,1/2-z
1/2-x,1/2+y,1/2+z
x,1/2-y,z
loop_
_atom_site_type_symbol
_atom_site_label
_atom_site_fract_x
_atom_site_fract_y
_atom_site_fract_z
Si Si1 0.879958 0.065964 0.448155
Si Si2 0.258838 0.661689 0.787191
Si Si3 0.582959 0.164445 0.919459
Si Si4 0.454336 0.164490 0.451064
Si Si5 0.022561 0.029259 0.701167
O O1 0.596674 0.086408 0.436937
O O2 0.927657 0.137856 0.505277
O O3 0.960377 0.036458 0.363629
O O4 0.000000 0.000000 0.500000
O O5 0.497804 0.631765 0.742814
O O6 0.256710 0.750000 0.763971
O O7 0.250216 0.661241 0.881652
O O8 0.528139 0.250000 0.897172
O O9 0.547973 0.106794 0.849118
O O10 0.848332 0.161674 0.961134
O O11 0.560053 0.250000 0.438530
O O12 0.259534 0.026835 0.757154
#
# Coordination Sequence:
#
# PCOD9466583 Si02
#       5
#     8   8   8   8   8
#     4  10  24  43  71  98 143 192 247 303 364 450
#     4   9  19  34  53  84 129 172 212 265 334 412
#     4  10  24  46  76 108 143 191 249 314 378 445
#     4  10  22  39  67 101 139 185 241 304 372 439
#     4  11  28  49  75 108 148 197 248 306 372 444
#
# _framework density 24.104569999999999
#
# number of rings (size 3 to 8) (size 9 to 14) (size 15 to 20)
#    0.000    2.000    0.000    0.600   11.200    4.000 
#    0.000    0.000    0.000    2.400    0.000    0.000 
#    0.000    0.000    0.000    0.000    0.000    0.000 
#
# Total GULP energy -222866.867889 kJ/mol
# GULP energy per Si atom -5571.671697 kJ/mol
# Density = 2.404971 g / cm^3
# Si number density = 24.104570 Si / 1000 Ang^3
#
#
#
# Elastic Constant Matrix: (Units=GPa)
#
#
# Indices 1 2 3 4 5 6 
#
# 1 108.8063 42.1972 66.7432 0.0000 0.0000 0.0000
# 2 42.1972 133.8810 19.1447 0.0000 0.0000 0.0000
# 3 66.7432 19.1447 94.9984 0.0000 0.0000 0.0000
# 4 0.0000 0.0000 0.0000 52.4920 0.0000 0.0000
# 5 0.0000 0.0000 0.0000 0.0000 33.8792 0.0000
# 6 0.0000 0.0000 0.0000 0.0000 0.0000 35.6372
#
#
#
# Elastic Compliance Matrix: (Units=1/GPa)
#
#
# Indices 1 2 3 4 5 6 
#
# 1 0.017999 -0.003979 -0.011844 0.000000 0.000000 0.000000
# 2 -0.003979 0.008571 0.001069 0.000000 0.000000 0.000000
# 3 -0.011844 0.001069 0.018632 0.000000 0.000000 0.000000
# 4 0.000000 0.000000 0.000000 0.019051 0.000000 0.000000
# 5 0.000000 0.000000 0.000000 0.000000 0.029517 0.000000
# 6 0.000000 0.000000 0.000000 0.000000 0.000000 0.028061
#
#
# Mechanical properties :
#
#
# Convention : Reuss Voigt Hill
#
# Bulk Modulus (GPa) = 63.72268 65.98400 64.85334
# Shear Modulus (GPa) = 31.93471 38.37505 35.15488
#
# Velocity S-wave (km/s) = 3.64378 3.99435 3.82309
# Velocity P-wave (km/s) = 6.64802 6.97901 6.81553
#
# Compressibility (1/GPa) = 0.01569300
#
# Stress axis : x y z
#
# Youngs Moduli (GPa) = 55.55876 116.67582 53.67069
#
# Poissons Ratio (x) = 0.46430 0.63566
# Poissons Ratio (y) = 0.22109 -0.05735
# Poissons Ratio (z) = 0.65802 -0.12468
#
# Static dielectric constant tensor:
#      x y z
#    x 1.989070 0.000000 0.000000 
#    y 0.000000 1.945000 0.000000 
#    z 0.000000 0.000000 1.801420 
# 
# From -- ./inp_files/21496.got.cif
#   From: 2010.05.17/outbox.cif.g08.bks.cpg/sg62_11_cif.got.tgz:21496.got - 2010.06.03 15:25:27.
