data_PCOD9466894
_publ_section_title
;
Structure prediction by ZEFSAII (Michael W. Deem and Ramdas Pophale) SiO2 
 PCOD9466894
Probable space group: P N M A
;
_chemical_formula_sum "Si O2"
_cell_formula_units_Z 64
_cell_length_a 15.266396
_cell_length_b 24.046695
_cell_length_c 8.599715
_cell_angle_alpha 90.000000
_cell_angle_beta 90.000000
_cell_angle_gamma 90.000000
_cell_volume 3157.010143
_symmetry_space_group_name_H-M "P N M A"
_symmetry_group_IT_number 62
_symmetry_cell_setting 'orthorhombic'
loop_
_space_group_symop_operation_xyz
x,y,z
1/2-x,-y,1/2+z
1/2+x,1/2-y,1/2-z
-x,1/2+y,-z
-x,-y,-z
1/2+x,y,1/2-z
1/2-x,1/2+y,1/2+z
x,1/2-y,z
loop_
_atom_site_type_symbol
_atom_site_label
_atom_site_fract_x
_atom_site_fract_y
_atom_site_fract_z
Si Si1 0.075617 0.390346 0.556148
Si Si2 0.131764 0.483576 0.062061
Si Si3 0.900724 0.184084 0.031554
Si Si4 0.966562 0.997980 0.254567
Si Si5 0.914805 0.380844 0.350577
Si Si6 0.256254 0.613059 0.460425
Si Si7 0.229369 0.597221 0.099719
Si Si8 0.584946 0.315520 0.636997
O O1 0.040182 0.449866 0.618153
O O2 0.177370 0.397717 0.514745
O O3 0.074932 0.348213 0.701344
O O4 0.009783 0.369662 0.425026
O O5 0.177269 0.543094 0.046602
O O6 0.065291 0.485875 0.206442
O O7 0.075801 0.473897 0.904490
O O8 0.203009 0.435338 0.067152
O O9 0.884885 0.250000 0.034377
O O10 0.898252 0.156639 0.200902
O O11 0.829257 0.151386 0.929737
O O12 0.997263 0.173801 0.961623
O O13 0.917096 0.053974 0.303459
O O14 0.837878 0.370656 0.474098
O O15 0.246451 0.590992 0.283960
O O16 0.328864 0.661203 0.448504
O O17 0.592880 0.250000 0.663826
#
# Coordination Sequence:
#
# PCOD9466894 Si02
#       8
#     8   8   8   8   8   8   8   8
#     4  11  24  43  63  98 127 166 212 262 314 378
#     4  11  21  37  65  93 125 169 206 249 305 372
#     4  11  25  44  65  90 123 167 213 264 326 382
#     4  11  21  39  63  92 133 165 201 251 311 375
#     4  12  25  41  63  96 132 166 206 264 319 374
#     4  11  24  39  65  97 128 165 213 261 312 382
#     4  11  23  41  65  92 129 168 211 257 312 384
#     4  10  22  44  68  88 119 165 214 263 317 376
#
# _framework density 20.272345000000001
#
# number of rings (size 3 to 8) (size 9 to 14) (size 15 to 20)
#    0.000    1.000    3.750    4.125    0.000    6.000 
#    0.000    1.250    0.000    0.000    0.000    0.000 
#    0.000    0.000    0.000    0.000    0.000    0.000 
#
# Total GULP energy -358037.416191 kJ/mol
# GULP energy per Si atom -5594.334628 kJ/mol
# Density = 2.022620 g / cm^3
# Si number density = 20.272345 Si / 1000 Ang^3
#
#
#
# Elastic Constant Matrix: (Units=GPa)
#
#
# Indices 1 2 3 4 5 6 
#
# 1 100.6828 25.0736 17.2955 0.0000 0.0000 0.0000
# 2 25.0736 74.3927 9.4726 0.0000 0.0000 0.0000
# 3 17.2955 9.4726 20.8287 0.0000 0.0000 0.0000
# 4 0.0000 0.0000 0.0000 6.0504 0.0000 0.0000
# 5 0.0000 0.0000 0.0000 0.0000 21.7982 0.0000
# 6 0.0000 0.0000 0.0000 0.0000 0.0000 12.1486
#
#
#
# Elastic Compliance Matrix: (Units=1/GPa)
#
#
# Indices 1 2 3 4 5 6 
#
# 1 0.012181 -0.002991 -0.008754 0.000000 0.000000 0.000000
# 2 -0.002991 0.015003 -0.004340 0.000000 0.000000 0.000000
# 3 -0.008754 -0.004340 0.057254 0.000000 0.000000 0.000000
# 4 0.000000 0.000000 0.000000 0.165277 0.000000 0.000000
# 5 0.000000 0.000000 0.000000 0.000000 0.045875 0.000000
# 6 0.000000 0.000000 0.000000 0.000000 0.000000 0.082314
#
#
# Mechanical properties :
#
#
# Convention : Reuss Voigt Hill
#
# Bulk Modulus (GPa) = 19.13228 33.28751 26.20990
# Shear Modulus (GPa) = 11.69600 17.60360 14.64980
#
# Velocity S-wave (km/s) = 2.40457 2.94998 2.69113
# Velocity P-wave (km/s) = 4.14336 5.29708 4.75533
#
# Compressibility (1/GPa) = 0.05226769
#
# Stress axis : x y z
#
# Youngs Moduli (GPa) = 82.09611 66.65438 17.46611
#
# Poissons Ratio (x) = 0.19935 0.15291
# Poissons Ratio (y) = 0.24553 0.07580
# Poissons Ratio (z) = 0.71870 0.28926
#
# Static dielectric constant tensor:
#      x y z
#    x 1.728020 0.000000 0.000000 
#    y 0.000000 1.679490 0.000000 
#    z 0.000000 0.000000 1.725780 
# 
# From -- ./inp_files/6971.got.cif
#   From: 2010.05.17/outbox.cif.g08.bks.cpg/sg62_4_cif.got.tgz:6971.got - 2010.06.03 15:25:27.
