data_PCOD9466888
_publ_section_title
;
Structure prediction by ZEFSAII (Michael W. Deem and Ramdas Pophale) SiO2 
 PCOD9466888
Probable space group: P N M A
;
_chemical_formula_sum "Si O2"
_cell_formula_units_Z 40
_cell_length_a 11.910465
_cell_length_b 11.246132
_cell_length_c 14.160253
_cell_angle_alpha 90.000000
_cell_angle_beta 90.000000
_cell_angle_gamma 90.000000
_cell_volume 1896.718616
_symmetry_space_group_name_H-M "P N M A"
_symmetry_group_IT_number 62
_symmetry_cell_setting 'orthorhombic'
loop_
_space_group_symop_operation_xyz
x,y,z
1/2-x,-y,1/2+z
1/2+x,1/2-y,1/2-z
-x,1/2+y,-z
-x,-y,-z
1/2+x,y,1/2-z
1/2-x,1/2+y,1/2+z
x,1/2-y,z
loop_
_atom_site_type_symbol
_atom_site_label
_atom_site_fract_x
_atom_site_fract_y
_atom_site_fract_z
Si Si1 0.887157 0.043588 0.047608
Si Si2 0.832496 0.750000 0.699803
Si Si3 0.493598 0.617532 0.064234
Si Si4 0.744964 0.883145 0.360907
Si Si5 0.696594 0.984501 0.166067
Si Si6 0.923571 0.250000 0.197221
O O1 0.919967 0.137720 0.127736
O O2 0.806748 0.953508 0.104876
O O3 0.815162 0.093341 0.960195
O O4 0.000000 0.000000 0.000000
O O5 0.829867 0.624017 0.644978
O O6 0.703120 0.750000 0.746093
O O7 0.955393 0.750000 0.750524
O O8 0.500887 0.750000 0.019199
O O9 0.376894 0.611352 0.119356
O O10 0.596303 0.599116 0.135082
O O11 0.500000 0.500000 0.000000
O O12 0.715773 0.750000 0.328792
O O13 0.714088 0.972920 0.277709
#
# Coordination Sequence:
#
# PCOD9466888 Si02
#       6
#     8   4   8   8   8   4
#     4  11  23  43  67  96 140 178 233 288 361 420
#     4  10  24  40  74  98 148 176 244 288 368 418
#     4  11  25  46  72 101 138 184 236 289 354 425
#     4  11  24  45  70  98 140 187 227 290 357 418
#     4  11  25  45  68 105 139 183 236 298 349 437
#     4  10  22  44  64 104 134 192 230 304 352 432
#
# _framework density 21.089054000000001
#
# number of rings (size 3 to 8) (size 9 to 14) (size 15 to 20)
#    0.000    1.200    3.000    1.800    9.800    0.000 
#    5.400    0.000    0.000    0.000    0.000    0.000 
#    0.000    0.000    0.000    0.000    0.000    0.000 
#
# Total GULP energy -223063.499928 kJ/mol
# GULP energy per Si atom -5576.587498 kJ/mol
# Density = 2.104105 g / cm^3
# Si number density = 21.089054 Si / 1000 Ang^3
#
#
#
# Elastic Constant Matrix: (Units=GPa)
#
#
# Indices 1 2 3 4 5 6 
#
# 1 178.4444 21.6664 48.8416 0.0000 0.0000 0.0000
# 2 21.6664 92.7172 30.1743 0.0000 0.0000 0.0000
# 3 48.8416 30.1743 77.9151 0.0000 0.0000 0.0000
# 4 0.0000 0.0000 0.0000 38.8444 0.0000 0.0000
# 5 0.0000 0.0000 0.0000 0.0000 40.2992 0.0000
# 6 0.0000 0.0000 0.0000 0.0000 0.0000 23.8990
#
#
#
# Elastic Compliance Matrix: (Units=1/GPa)
#
#
# Indices 1 2 3 4 5 6 
#
# 1 0.006769 -0.000230 -0.004154 0.000000 0.000000 0.000000
# 2 -0.000230 0.012349 -0.004638 0.000000 0.000000 0.000000
# 3 -0.004154 -0.004638 0.017235 0.000000 0.000000 0.000000
# 4 0.000000 0.000000 0.000000 0.025744 0.000000 0.000000
# 5 0.000000 0.000000 0.000000 0.000000 0.024814 0.000000
# 6 0.000000 0.000000 0.000000 0.000000 0.000000 0.041843
#
#
# Mechanical properties :
#
#
# Convention : Reuss Voigt Hill
#
# Bulk Modulus (GPa) = 54.62094 61.16014 57.89054
# Shear Modulus (GPa) = 32.70106 37.16815 34.93460
#
# Velocity S-wave (km/s) = 3.94206 4.20269 4.07446
# Velocity P-wave (km/s) = 6.83199 7.25355 7.04593
#
# Compressibility (1/GPa) = 0.01830800
#
# Stress axis : x y z
#
# Youngs Moduli (GPa) = 147.73437 80.98032 58.02227
#
# Poissons Ratio (x) = 0.01861 0.24103
# Poissons Ratio (y) = 0.03395 0.26912
# Poissons Ratio (z) = 0.61371 0.37560
#
# Static dielectric constant tensor:
#      x y z
#    x 1.789370 0.000000 0.000000 
#    y 0.000000 1.802100 0.000000 
#    z 0.000000 0.000000 -14.765300 
# 
# From -- ./inp_files/17820.got.cif
#   From: 2010.05.17/outbox.cif.g08.bks.cpg/sg62_9_cif.got.tgz:17820.got - 2010.06.03 15:25:27.
