data_PCOD9466373
_publ_section_title
;
Structure prediction by ZEFSAII (Michael W. Deem and Ramdas Pophale) SiO2 
 PCOD9466373
Probable space group: P N M A
;
_chemical_formula_sum "Si O2"
_cell_formula_units_Z 36
_cell_length_a 10.254613
_cell_length_b 14.290614
_cell_length_c 9.482480
_cell_angle_alpha 90.000000
_cell_angle_beta 90.000000
_cell_angle_gamma 90.000000
_cell_volume 1389.607340
_symmetry_space_group_name_H-M "P N M A"
_symmetry_group_IT_number 62
_symmetry_cell_setting 'orthorhombic'
loop_
_space_group_symop_operation_xyz
x,y,z
1/2-x,-y,1/2+z
1/2+x,1/2-y,1/2-z
-x,1/2+y,-z
-x,-y,-z
1/2+x,y,1/2-z
1/2-x,1/2+y,1/2+z
x,1/2-y,z
loop_
_atom_site_type_symbol
_atom_site_label
_atom_site_fract_x
_atom_site_fract_y
_atom_site_fract_z
Si Si1 0.087938 0.609454 0.023103
Si Si2 0.213217 0.544267 0.511245
Si Si3 0.978289 0.572896 0.324176
Si Si4 0.205252 0.750000 0.606495
Si Si5 0.334996 0.750000 0.055332
Si Si6 0.471734 0.750000 0.693677
O O1 0.150656 0.508213 0.995556
O O2 0.008549 0.607739 0.168049
O O3 0.218565 0.670468 0.042653
O O4 0.009532 0.659564 0.898192
O O5 0.111188 0.527398 0.384812
O O6 0.228832 0.655306 0.522559
O O7 0.135866 0.503071 0.647860
O O8 0.940197 0.665453 0.411183
O O9 0.318416 0.750000 0.729041
O O10 0.063533 0.750000 0.672987
#
# Coordination Sequence:
#
# PCOD9466373 Si02
#       6
#     8   8   8   4   4   4
#     4  10  23  43  71 104 138 185 249 303 353 440
#     4  10  25  41  69 106 143 195 235 296 375 435
#     4  10  21  41  70 102 145 185 238 305 363 434
#     4  12  29  47  68 105 152 198 241 298 367 449
#     4   9  18  37  65  99 131 177 230 305 354 412
#     4  11  29  48  75 106 147 195 247 311 371 441
#
# _framework density 25.906597999999999
#
# number of rings (size 3 to 8) (size 9 to 14) (size 15 to 20)
#    0.000    1.778    0.000    2.000    6.222   11.556 
#    0.000    0.000    0.000    0.000    0.000    0.000 
#    0.000    0.000    0.000    0.000    0.000    0.000 
#
# Total GULP energy -200824.586593 kJ/mol
# GULP energy per Si atom -5578.460739 kJ/mol
# Density = 2.584763 g / cm^3
# Si number density = 25.906598 Si / 1000 Ang^3
#
#
#
# Elastic Constant Matrix: (Units=GPa)
#
#
# Indices 1 2 3 4 5 6 
#
# 1 94.0038 8.1275 28.6221 0.0000 0.0000 0.0000
# 2 8.1275 168.1399 15.8793 0.0000 0.0000 0.0000
# 3 28.6221 15.8793 84.4475 0.0000 0.0000 0.0000
# 4 0.0000 0.0000 0.0000 36.1212 0.0000 0.0000
# 5 0.0000 0.0000 0.0000 0.0000 25.5959 0.0000
# 6 0.0000 0.0000 0.0000 0.0000 0.0000 55.3495
#
#
#
# Elastic Compliance Matrix: (Units=1/GPa)
#
#
# Indices 1 2 3 4 5 6 
#
# 1 0.011868 -0.000197 -0.003985 0.000000 0.000000 0.000000
# 2 -0.000197 0.006058 -0.001072 0.000000 0.000000 0.000000
# 3 -0.003985 -0.001072 0.013394 0.000000 0.000000 0.000000
# 4 0.000000 0.000000 0.000000 0.027685 0.000000 0.000000
# 5 0.000000 0.000000 0.000000 0.000000 0.039069 0.000000
# 6 0.000000 0.000000 0.000000 0.000000 0.000000 0.018067
#
#
# Mechanical properties :
#
#
# Convention : Reuss Voigt Hill
#
# Bulk Modulus (GPa) = 48.05250 50.20545 49.12898
# Shear Modulus (GPa) = 37.42844 43.01080 40.21962
#
# Velocity S-wave (km/s) = 3.80510 4.07901 3.94443
# Velocity P-wave (km/s) = 6.15579 6.45026 6.30474
#
# Compressibility (1/GPa) = 0.02081057
#
# Stress axis : x y z
#
# Youngs Moduli (GPa) = 84.25724 165.06456 74.65957
#
# Poissons Ratio (x) = 0.03257 0.29756
# Poissons Ratio (y) = 0.01662 0.08006
# Poissons Ratio (z) = 0.33581 0.17700
#
# Static dielectric constant tensor:
#      x y z
#    x 2.032620 0.000000 0.000000 
#    y 0.000000 2.051950 0.000000 
#    z 0.000000 0.000000 2.152470 
# 
# From -- ./inp_files/12020.got.cif
#   From: 2010.05.17/outbox.cif.g08.bks.cpg/sg62_7_cif.got.tgz:12020.got - 2010.06.03 15:25:27.
