data_PCOD9466380
_publ_section_title
;
Structure prediction by ZEFSAII (Michael W. Deem and Ramdas Pophale) SiO2 
 PCOD9466380
Probable space group: P N M A
;
_chemical_formula_sum "Si O2"
_cell_formula_units_Z 56
_cell_length_a 9.717210
_cell_length_b 14.333057
_cell_length_c 19.007116
_cell_angle_alpha 90.000000
_cell_angle_beta 90.000000
_cell_angle_gamma 90.000000
_cell_volume 2647.260269
_symmetry_space_group_name_H-M "P N M A"
_symmetry_group_IT_number 62
_symmetry_cell_setting 'orthorhombic'
loop_
_space_group_symop_operation_xyz
x,y,z
1/2-x,-y,1/2+z
1/2+x,1/2-y,1/2-z
-x,1/2+y,-z
-x,-y,-z
1/2+x,y,1/2-z
1/2-x,1/2+y,1/2+z
x,1/2-y,z
loop_
_atom_site_type_symbol
_atom_site_label
_atom_site_fract_x
_atom_site_fract_y
_atom_site_fract_z
Si Si1 0.280444 0.858391 0.536281
Si Si2 0.005302 0.606815 0.476683
Si Si3 0.910337 0.363248 0.012018
Si Si4 0.823291 0.645736 0.608295
Si Si5 0.267868 0.858243 0.126988
Si Si6 0.765591 0.550040 0.818427
Si Si7 0.998594 0.362550 0.259685
O O1 0.290064 0.750000 0.558433
O O2 0.431482 0.892478 0.514542
O O3 0.228750 0.917523 0.602612
O O4 0.164171 0.864803 0.476844
O O5 0.923795 0.654354 0.541104
O O6 0.919526 0.628268 0.406890
O O7 0.000000 0.500000 0.500000
O O8 0.908777 0.250000 0.019064
O O9 0.813230 0.400276 0.075266
O O10 0.835955 0.380598 0.937878
O O11 0.784243 0.750000 0.632802
O O12 0.913648 0.605462 0.671329
O O13 0.250035 0.750000 0.147554
O O14 0.241576 0.938468 0.183924
O O15 0.653725 0.597482 0.767736
O O16 0.914312 0.594016 0.803356
O O17 0.994135 0.250000 0.256659
#
# Coordination Sequence:
#
# PCOD9466380 Si02
#       7
#     8   8   8   8   8   8   8
#     4  11  20  34  56  88 124 153 192 243 301 368
#     4  11  18  33  56  89 120 155 197 240 298 369
#     4   8  18  33  57  90 121 155 190 236 303 360
#     4   9  17  33  54  77 114 158 190 228 293 362
#     4  10  21  42  63  86 123 164 205 251 302 363
#     4  12  25  40  60  89 118 163 209 246 306 366
#     4  11  23  40  59  86 123 158 201 256 309 365
#
# _framework density 21.153946000000001
#
# number of rings (size 3 to 8) (size 9 to 14) (size 15 to 20)
#    0.000    1.714    2.857    3.429    2.000    0.571 
#    0.000    2.143    0.000    0.000    0.000    0.000 
#    0.000    0.000    0.000    0.000    0.000    0.000 
#
# Total GULP energy -312714.565372 kJ/mol
# GULP energy per Si atom -5584.188667 kJ/mol
# Density = 2.110580 g / cm^3
# Si number density = 21.153946 Si / 1000 Ang^3
#
#
#
# Elastic Constant Matrix: (Units=GPa)
#
#
# Indices 1 2 3 4 5 6 
#
# 1 140.5605 22.8947 9.8420 0.0000 0.0000 0.0000
# 2 22.8947 134.4041 14.4219 0.0000 0.0000 0.0000
# 3 9.8420 14.4219 17.2723 0.0000 0.0000 0.0000
# 4 0.0000 0.0000 0.0000 22.4493 0.0000 0.0000
# 5 0.0000 0.0000 0.0000 0.0000 21.3889 0.0000
# 6 0.0000 0.0000 0.0000 0.0000 0.0000 21.0525
#
#
#
# Elastic Compliance Matrix: (Units=1/GPa)
#
#
# Indices 1 2 3 4 5 6 
#
# 1 0.007508 -0.000901 -0.003526 0.000000 0.000000 0.000000
# 2 -0.000901 0.008280 -0.006401 0.000000 0.000000 0.000000
# 3 -0.003526 -0.006401 0.065250 0.000000 0.000000 0.000000
# 4 0.000000 0.000000 0.000000 0.044545 0.000000 0.000000
# 5 0.000000 0.000000 0.000000 0.000000 0.046753 0.000000
# 6 0.000000 0.000000 0.000000 0.000000 0.000000 0.047500
#
#
# Mechanical properties :
#
#
# Convention : Reuss Voigt Hill
#
# Bulk Modulus (GPa) = 16.83974 42.95046 29.89510
# Shear Modulus (GPa) = 19.13608 29.31669 24.22638
#
# Velocity S-wave (km/s) = 3.01094 3.72677 3.38781
# Velocity P-wave (km/s) = 4.47945 6.23428 5.42825
#
# Compressibility (1/GPa) = 0.05938335
#
# Stress axis : x y z
#
# Youngs Moduli (GPa) = 133.19193 120.76601 15.32563
#
# Poissons Ratio (x) = 0.10876 0.05404
# Poissons Ratio (y) = 0.11995 0.09810
# Poissons Ratio (z) = 0.46967 0.77300
#
# Static dielectric constant tensor:
#      x y z
#    x 1.796620 0.000000 0.000000 
#    y 0.000000 1.838240 0.000000 
#    z 0.000000 0.000000 1.781240 
# 
# From -- ./inp_files/26027.got.cif
#   From: 2010.05.17/outbox.cif.g08.bks.cpg/sg62_14_cif.got.tgz:26027.got - 2010.06.03 15:25:27.
