data_PCOD9466028
_publ_section_title
;
Structure prediction by ZEFSAII (Michael W. Deem and Ramdas Pophale) SiO2 
 PCOD9466028
Probable space group: P N M A
;
_chemical_formula_sum "Si O2"
_cell_formula_units_Z 64
_cell_length_a 17.636799
_cell_length_b 30.393808
_cell_length_c 4.957992
_cell_angle_alpha 90.000000
_cell_angle_beta 90.000000
_cell_angle_gamma 90.000000
_cell_volume 2657.729046
_symmetry_space_group_name_H-M "P N M A"
_symmetry_group_IT_number 62
_symmetry_cell_setting 'orthorhombic'
loop_
_space_group_symop_operation_xyz
x,y,z
1/2-x,-y,1/2+z
1/2+x,1/2-y,1/2-z
-x,1/2+y,-z
-x,-y,-z
1/2+x,y,1/2-z
1/2-x,1/2+y,1/2+z
x,1/2-y,z
loop_
_atom_site_type_symbol
_atom_site_label
_atom_site_fract_x
_atom_site_fract_y
_atom_site_fract_z
Si Si1 0.314594 0.582814 0.814618
Si Si2 0.846542 0.702704 0.182909
Si Si3 0.264603 0.674396 0.785425
Si Si4 0.434934 0.535040 0.424916
Si Si5 0.933191 0.874948 0.305864
Si Si6 0.209458 0.988290 0.717761
Si Si7 0.873455 0.300012 0.893177
Si Si8 0.974233 0.301644 0.389635
O O1 0.286410 0.626648 0.675776
O O2 0.378399 0.554073 0.658910
O O3 0.237371 0.556272 0.861385
O O4 0.357826 0.602022 0.072547
O O5 0.883103 0.750000 0.147646
O O6 0.822320 0.694905 0.492589
O O7 0.903232 0.663286 0.108576
O O8 0.773853 0.701911 0.986877
O O9 0.189390 0.670798 0.962586
O O10 0.500000 0.500000 0.500000
O O11 0.471564 0.580666 0.309329
O O12 0.374657 0.507373 0.240864
O O13 0.976884 0.844339 0.521638
O O14 0.236967 0.981559 0.411699
O O15 0.845020 0.250000 0.927725
O O16 0.946634 0.304755 0.084250
O O17 0.901480 0.306094 0.590251
O O18 0.000752 0.250000 0.428116
#
# Coordination Sequence:
#
# PCOD9466028 Si02
#       8
#     8   8   8   8   8   8   8   8
#     4  10  23  43  66  96 134 168 223 277 337 402
#     4  11  22  37  63  95 127 167 211 268 325 382
#     4  11  22  38  66  95 130 167 219 270 321 387
#     4  11  24  44  69  98 132 175 221 286 337 405
#     4  11  23  42  62  94 128 170 221 273 324 398
#     4  10  21  43  69  93 125 170 210 266 337 391
#     4  10  21  39  59  90 131 176 219 263 320 392
#     4  10  23  40  63  92 136 181 216 264 329 396
#
# _framework density 24.08071
#
# number of rings (size 3 to 8) (size 9 to 14) (size 15 to 20)
#    0.000    1.500    2.500    2.250    1.750    2.500 
#    0.000    5.000    0.000    0.000    0.000    0.000 
#    0.000    0.000    0.000    0.000    0.000    0.000 
#
# Total GULP energy -356348.126223 kJ/mol
# GULP energy per Si atom -5567.939472 kJ/mol
# Density = 2.402590 g / cm^3
# Si number density = 24.080710 Si / 1000 Ang^3
#
#
#
# Elastic Constant Matrix: (Units=GPa)
#
#
# Indices 1 2 3 4 5 6 
#
# 1 64.8687 45.5468 -0.8534 0.0000 0.0000 0.0000
# 2 45.5468 180.2401 9.9219 0.0000 0.0000 0.0000
# 3 -0.8534 9.9219 71.8080 0.0000 0.0000 0.0000
# 4 0.0000 0.0000 0.0000 19.5621 0.0000 0.0000
# 5 0.0000 0.0000 0.0000 0.0000 31.0973 0.0000
# 6 0.0000 0.0000 0.0000 0.0000 0.0000 30.2629
#
#
#
# Elastic Compliance Matrix: (Units=1/GPa)
#
#
# Indices 1 2 3 4 5 6 
#
# 1 0.018797 -0.004799 0.000886 0.000000 0.000000 0.000000
# 2 -0.004799 0.006816 -0.000999 0.000000 0.000000 0.000000
# 3 0.000886 -0.000999 0.014075 0.000000 0.000000 0.000000
# 4 0.000000 0.000000 0.000000 0.051119 0.000000 0.000000
# 5 0.000000 0.000000 0.000000 0.000000 0.032157 0.000000
# 6 0.000000 0.000000 0.000000 0.000000 0.000000 0.033044
#
#
# Mechanical properties :
#
#
# Convention : Reuss Voigt Hill
#
# Bulk Modulus (GPa) = 33.48407 47.34972 40.41689
# Shear Modulus (GPa) = 28.44390 33.67121 31.05755
#
# Velocity S-wave (km/s) = 3.44057 3.74339 3.59517
# Velocity P-wave (km/s) = 5.45147 6.19594 5.83559
#
# Compressibility (1/GPa) = 0.02986495
#
# Stress axis : x y z
#
# Youngs Moduli (GPa) = 53.20049 146.71820 71.05014
#
# Poissons Ratio (x) = 0.70407 -0.06298
# Poissons Ratio (y) = 0.25530 0.07096
# Poissons Ratio (z) = -0.04716 0.14654
#
# Static dielectric constant tensor:
#      x y z
#    x 2.030320 0.000000 0.000000 
#    y 0.000000 -1.836170 0.000000 
#    z 0.000000 0.000000 2.027510 
# 
# From -- ./inp_files/1894.got.cif
#   From: 2010.05.17/outbox.cif.g08.bks.cpg/sg62_1_cif.got.tgz:1894.got - 2010.06.03 15:25:27.
