data_PCOD9466482
_publ_section_title
;
Structure prediction by ZEFSAII (Michael W. Deem and Ramdas Pophale) SiO2 
 PCOD9466482
Probable space group: P N M A
;
_chemical_formula_sum "Si O2"
_cell_formula_units_Z 64
_cell_length_a 23.860473
_cell_length_b 16.010576
_cell_length_c 8.760320
_cell_angle_alpha 90.000000
_cell_angle_beta 90.000000
_cell_angle_gamma 90.000000
_cell_volume 3346.616714
_symmetry_space_group_name_H-M "P N M A"
_symmetry_group_IT_number 62
_symmetry_cell_setting 'orthorhombic'
loop_
_space_group_symop_operation_xyz
x,y,z
1/2-x,-y,1/2+z
1/2+x,1/2-y,1/2-z
-x,1/2+y,-z
-x,-y,-z
1/2+x,y,1/2-z
1/2-x,1/2+y,1/2+z
x,1/2-y,z
loop_
_atom_site_type_symbol
_atom_site_label
_atom_site_fract_x
_atom_site_fract_y
_atom_site_fract_z
Si Si1 0.361526 0.462567 0.661313
Si Si2 0.674975 0.051817 0.645159
Si Si3 0.982081 0.344755 0.240766
Si Si4 0.290851 0.151026 0.872200
Si Si5 0.082068 0.439040 0.406438
Si Si6 0.374134 0.078130 0.117461
Si Si7 0.579285 0.153078 0.787690
Si Si8 0.015015 0.913142 0.081175
O O1 0.339625 0.500169 0.505097
O O2 0.322650 0.391215 0.730096
O O3 0.371335 0.539934 0.778768
O O4 0.422031 0.421566 0.637029
O O5 0.734022 0.097020 0.621856
O O6 0.629589 0.123469 0.679728
O O7 0.663734 0.986803 0.784820
O O8 0.991225 0.250000 0.295882
O O9 0.918376 0.372721 0.277616
O O10 0.026163 0.407790 0.321286
O O11 0.991121 0.348984 0.058534
O O12 0.281074 0.250000 0.856990
O O13 0.332032 0.133123 0.016084
O O14 0.085396 0.524978 0.503527
O O15 0.093338 0.371624 0.538556
O O16 0.568465 0.250000 0.776023
O O17 0.525442 0.104649 0.722413
O O18 0.000000 0.000000 0.000000
#
# Coordination Sequence:
#
# PCOD9466482 Si02
#       8
#     8   8   8   8   8   8   8   8
#     4  11  23  41  68  89 122 166 213 253 305 381
#     4  11  21  44  68  88 118 168 216 252 305 380
#     4  12  22  35  57  90 127 157 197 255 306 358
#     4  11  25  42  63  93 123 156 208 271 320 357
#     4  10  22  37  60  90 124 166 202 242 300 377
#     4  10  22  40  63  85 121 165 208 244 304 376
#     4  11  23  37  60  94 130 163 204 261 316 362
#     4  12  21  39  61  88 124 166 208 247 306 382
#
# _framework density 19.123791000000001
#
# number of rings (size 3 to 8) (size 9 to 14) (size 15 to 20)
#    0.000    1.000    3.750    3.375    3.500    1.000 
#    0.000    1.875    0.000    0.000    0.000    0.000 
#    0.000    0.000    0.000    0.000    0.000    0.000 
#
# Total GULP energy -357133.639087 kJ/mol
# GULP energy per Si atom -5580.213111 kJ/mol
# Density = 1.908026 g / cm^3
# Si number density = 19.123791 Si / 1000 Ang^3
#
#
#
# Elastic Constant Matrix: (Units=GPa)
#
#
# Indices 1 2 3 4 5 6 
#
# 1 64.0922 15.8083 14.1093 0.0000 0.0000 0.0000
# 2 15.8083 84.6660 27.7305 0.0000 0.0000 0.0000
# 3 14.1093 27.7305 91.2852 0.0000 0.0000 0.0000
# 4 0.0000 0.0000 0.0000 13.1959 0.0000 0.0000
# 5 0.0000 0.0000 0.0000 0.0000 14.9601 0.0000
# 6 0.0000 0.0000 0.0000 0.0000 0.0000 8.8252
#
#
#
# Elastic Compliance Matrix: (Units=1/GPa)
#
#
# Indices 1 2 3 4 5 6 
#
# 1 0.016620 -0.002512 -0.001806 0.000000 0.000000 0.000000
# 2 -0.002512 0.013496 -0.003711 0.000000 0.000000 0.000000
# 3 -0.001806 -0.003711 0.012361 0.000000 0.000000 0.000000
# 4 0.000000 0.000000 0.000000 0.075781 0.000000 0.000000
# 5 0.000000 0.000000 0.000000 0.000000 0.066845 0.000000
# 6 0.000000 0.000000 0.000000 0.000000 0.000000 0.113312
#
#
# Mechanical properties :
#
#
# Convention : Reuss Voigt Hill
#
# Bulk Modulus (GPa) = 37.85205 39.48217 38.66711
# Shear Modulus (GPa) = 15.46656 19.55592 17.51124
#
# Velocity S-wave (km/s) = 2.84696 3.20128 3.02930
# Velocity P-wave (km/s) = 5.53561 5.86128 5.70077
#
# Compressibility (1/GPa) = 0.02641865
#
# Stress axis : x y z
#
# Youngs Moduli (GPa) = 60.17007 74.09776 80.89792
#
# Poissons Ratio (x) = 0.18611 0.14608
# Poissons Ratio (y) = 0.15113 0.30025
# Poissons Ratio (z) = 0.10865 0.27501
#
# Static dielectric constant tensor:
#      x y z
#    x 1.557220 0.000000 0.000000 
#    y 0.000000 1.640300 0.000000 
#    z 0.000000 0.000000 1.688690 
# 
# From -- ./inp_files/9521.got.cif
#   From: 2010.05.17/outbox.cif.g08.bks.cpg/sg62_5_cif.got.tgz:9521.got - 2010.06.03 15:25:27.
