data_PCOD9466882
_publ_section_title
;
Structure prediction by ZEFSAII (Michael W. Deem and Ramdas Pophale) SiO2 
 PCOD9466882
Probable space group: P N M A
;
_chemical_formula_sum "Si O2"
_cell_formula_units_Z 32
_cell_length_a 4.880604
_cell_length_b 10.760576
_cell_length_c 23.001574
_cell_angle_alpha 90.000000
_cell_angle_beta 90.000000
_cell_angle_gamma 90.000000
_cell_volume 1207.999200
_symmetry_space_group_name_H-M "P N M A"
_symmetry_group_IT_number 62
_symmetry_cell_setting 'orthorhombic'
loop_
_space_group_symop_operation_xyz
x,y,z
1/2-x,-y,1/2+z
1/2+x,1/2-y,1/2-z
-x,1/2+y,-z
-x,-y,-z
1/2+x,y,1/2-z
1/2-x,1/2+y,1/2+z
x,1/2-y,z
loop_
_atom_site_type_symbol
_atom_site_label
_atom_site_fract_x
_atom_site_fract_y
_atom_site_fract_z
Si Si1 0.794643 0.888697 0.986928
Si Si2 0.876208 0.387295 0.608688
Si Si3 0.544841 0.388547 0.362573
Si Si4 0.761019 0.428274 0.788173
O O1 0.921776 0.750000 0.994466
O O2 0.573159 0.895698 0.038929
O O3 0.746971 0.892582 0.917840
O O4 0.000000 0.000000 0.000000
O O5 0.744049 0.250000 0.616917
O O6 0.680349 0.502656 0.626471
O O7 0.548492 0.391914 0.738689
O O8 0.428249 0.250000 0.360534
O O9 0.699246 0.426126 0.303636
O O10 0.638012 0.384522 0.849317
#
# Coordination Sequence:
#
# PCOD9466882 Si02
#       4
#     8   8   8   8
#     4   8  16  35  66 105 144 184 233 293 366 432
#     4  10  22  43  73 108 147 191 241 302 365 433
#     4  10  22  43  73 108 147 191 241 302 365 433
#     4  12  26  47  66 101 138 190 240 294 350 420
#
# _framework density 26.490082000000001
#
# number of rings (size 3 to 8) (size 9 to 14) (size 15 to 20)
#    0.000    2.000    2.500    0.000    0.000    5.000 
#    0.000    0.000    0.000    9.000    0.000    0.000 
#    0.000    0.000    0.000    0.000    0.000    0.000 
#
# Total GULP energy -178529.346170 kJ/mol
# GULP energy per Si atom -5579.042068 kJ/mol
# Density = 2.642979 g / cm^3
# Si number density = 26.490082 Si / 1000 Ang^3
#
#
#
# Elastic Constant Matrix: (Units=GPa)
#
#
# Indices 1 2 3 4 5 6 
#
# 1 84.5438 44.3658 30.4598 0.0000 0.0000 0.0000
# 2 44.3658 209.9472 46.5779 0.0000 0.0000 0.0000
# 3 30.4598 46.5779 127.5174 0.0000 0.0000 0.0000
# 4 0.0000 0.0000 0.0000 22.7672 0.0000 0.0000
# 5 0.0000 0.0000 0.0000 0.0000 43.9583 0.0000
# 6 0.0000 0.0000 0.0000 0.0000 0.0000 22.5963
#
#
#
# Elastic Compliance Matrix: (Units=1/GPa)
#
#
# Indices 1 2 3 4 5 6 
#
# 1 0.013978 -0.002408 -0.002459 0.000000 0.000000 0.000000
# 2 -0.002408 0.005598 -0.001470 0.000000 0.000000 0.000000
# 3 -0.002459 -0.001470 0.008966 0.000000 0.000000 0.000000
# 4 0.000000 0.000000 0.000000 0.043923 0.000000 0.000000
# 5 0.000000 0.000000 0.000000 0.000000 0.022749 0.000000
# 6 0.000000 0.000000 0.000000 0.000000 0.000000 0.044255
#
#
# Mechanical properties :
#
#
# Convention : Reuss Voigt Hill
#
# Bulk Modulus (GPa) = 63.01873 73.86836 68.44355
# Shear Modulus (GPa) = 31.75965 37.90468 34.83216
#
# Velocity S-wave (km/s) = 3.46631 3.78683 3.63011
# Velocity P-wave (km/s) = 6.31360 6.86046 6.59270
#
# Compressibility (1/GPa) = 0.01586830
#
# Stress axis : x y z
#
# Youngs Moduli (GPa) = 71.54115 178.63435 111.52907
#
# Poissons Ratio (x) = 0.43019 0.27428
# Poissons Ratio (y) = 0.17229 0.16390
# Poissons Ratio (z) = 0.17594 0.26251
#
# Static dielectric constant tensor:
#      x y z
#    x 2.095140 0.000000 0.000000 
#    y 0.000000 2.148180 0.000000 
#    z 0.000000 0.000000 2.106120 
# 
# From -- ./inp_files/25116.got.cif
#   From: 2010.05.17/outbox.cif.g08.bks.cpg/sg62_13_cif.got.tgz:25116.got - 2010.06.03 15:25:27.
