data_PCOD9466627
_publ_section_title
;
Structure prediction by ZEFSAII (Michael W. Deem and Ramdas Pophale) SiO2 
 PCOD9466627
Probable space group: P N M A
;
_chemical_formula_sum "Si O2"
_cell_formula_units_Z 44
_cell_length_a 23.853551
_cell_length_b 15.132267
_cell_length_c 5.581016
_cell_angle_alpha 90.000000
_cell_angle_beta 90.000000
_cell_angle_gamma 90.000000
_cell_volume 2014.514062
_symmetry_space_group_name_H-M "P N M A"
_symmetry_group_IT_number 62
_symmetry_cell_setting 'orthorhombic'
loop_
_space_group_symop_operation_xyz
x,y,z
1/2-x,-y,1/2+z
1/2+x,1/2-y,1/2-z
-x,1/2+y,-z
-x,-y,-z
1/2+x,y,1/2-z
1/2-x,1/2+y,1/2+z
x,1/2-y,z
loop_
_atom_site_type_symbol
_atom_site_label
_atom_site_fract_x
_atom_site_fract_y
_atom_site_fract_z
Si Si1 0.600369 0.750000 0.148804
Si Si2 0.944353 0.558987 0.007133
Si Si3 0.976259 0.750000 0.148077
Si Si4 0.805544 0.250000 0.041555
Si Si5 0.365971 0.750000 0.083453
Si Si6 0.376055 0.944719 0.983102
Si Si7 0.318062 0.383641 0.068257
Si Si8 0.769206 0.750000 0.147548
O O1 0.537635 0.750000 0.235826
O O2 0.641772 0.750000 0.371449
O O3 0.623074 0.835945 0.008134
O O4 0.908663 0.537441 0.766921
O O5 0.964156 0.661114 0.001372
O O6 0.911926 0.547364 0.265120
O O7 0.000000 0.500000 0.000000
O O8 0.932221 0.750000 0.365253
O O9 0.810480 0.155769 0.170207
O O10 0.744708 0.250000 0.927633
O O11 0.335460 0.750000 0.347936
O O12 0.355040 0.844215 0.965777
O O13 0.325972 0.014785 0.016556
O O14 0.265189 0.334699 0.943902
#
# Coordination Sequence:
#
# PCOD9466627 Si02
#       8
#     4   8   4   4   4   8   8   4
#     4   9  18  36  64  92 131 157 211 272 332 373
#     4  11  24  41  63  96 135 176 225 265 322 398
#     4  10  22  40  62  88 131 181 208 258 330 398
#     4   8  18  36  62  96 120 154 210 282 330 381
#     4  10  24  48  60  92 139 183 217 268 328 431
#     4  11  24  43  65  93 135 175 221 272 330 394
#     4   9  20  38  66  97 121 161 223 281 327 384
#     4   9  20  44  66  92 129 163 220 278 342 377
#
# _framework density 21.841495999999999
#
# number of rings (size 3 to 8) (size 9 to 14) (size 15 to 20)
#    0.000    2.545    0.000    2.182    7.636    1.455 
#   22.909    0.000    0.000    0.000    0.000    0.000 
#    0.000    0.000    0.000    0.000    0.000    0.000 
#
# Total GULP energy -245026.465216 kJ/mol
# GULP energy per Si atom -5568.783300 kJ/mol
# Density = 2.179178 g / cm^3
# Si number density = 21.841496 Si / 1000 Ang^3
#
#
#
# Elastic Constant Matrix: (Units=GPa)
#
#
# Indices 1 2 3 4 5 6 
#
# 1 62.7111 -8.9839 12.8781 0.0000 0.0000 0.0000
# 2 -8.9839 106.5197 10.8017 0.0000 0.0000 0.0000
# 3 12.8781 10.8017 83.9256 0.0000 0.0000 0.0000
# 4 0.0000 0.0000 0.0000 54.8597 0.0000 0.0000
# 5 0.0000 0.0000 0.0000 0.0000 12.3734 0.0000
# 6 0.0000 0.0000 0.0000 0.0000 0.0000 133.2269
#
#
#
# Elastic Compliance Matrix: (Units=1/GPa)
#
#
# Indices 1 2 3 4 5 6 
#
# 1 0.016762 0.001697 -0.002790 0.000000 0.000000 0.000000
# 2 0.001697 0.009684 -0.001507 0.000000 0.000000 0.000000
# 3 -0.002790 -0.001507 0.012537 0.000000 0.000000 0.000000
# 4 0.000000 0.000000 0.000000 0.018228 0.000000 0.000000
# 5 0.000000 0.000000 0.000000 0.000000 0.080819 0.000000
# 6 0.000000 0.000000 0.000000 0.000000 0.000000 0.007506
#
#
# Mechanical properties :
#
#
# Convention : Reuss Voigt Hill
#
# Bulk Modulus (GPa) = 29.60113 31.39426 30.49770
# Shear Modulus (GPa) = 30.86450 55.98935 43.42693
#
# Velocity S-wave (km/s) = 3.76322 5.06853 4.46385
# Velocity P-wave (km/s) = 5.69777 6.97555 6.36878
#
# Compressibility (1/GPa) = 0.03378249
#
# Stress axis : x y z
#
# Youngs Moduli (GPa) = 59.65781 103.26502 79.76115
#
# Poissons Ratio (x) = -0.17521 0.22257
# Poissons Ratio (y) = -0.10122 0.12018
# Poissons Ratio (z) = 0.16648 0.15559
#
# Static dielectric constant tensor:
#      x y z
#    x 1.836440 0.000000 0.000000 
#    y 0.000000 1.781580 0.000000 
#    z 0.000000 0.000000 1.909940 
# 
# From -- ./inp_files/3166.got.cif
#   From: 2010.05.17/outbox.cif.g08.bks.cpg/sg62_2_cif.got.tgz:3166.got - 2010.06.03 15:25:27.
