data_PCOD9466792
_publ_section_title
;
Structure prediction by ZEFSAII (Michael W. Deem and Ramdas Pophale) SiO2 
 PCOD9466792
Probable space group: P N M A
;
_chemical_formula_sum "Si O2"
_cell_formula_units_Z 40
_cell_length_a 18.353952
_cell_length_b 8.884954
_cell_length_c 12.633016
_cell_angle_alpha 90.000000
_cell_angle_beta 90.000000
_cell_angle_gamma 90.000000
_cell_volume 2060.116694
_symmetry_space_group_name_H-M "P N M A"
_symmetry_group_IT_number 62
_symmetry_cell_setting 'orthorhombic'
loop_
_space_group_symop_operation_xyz
x,y,z
1/2-x,-y,1/2+z
1/2+x,1/2-y,1/2-z
-x,1/2+y,-z
-x,-y,-z
1/2+x,y,1/2-z
1/2-x,1/2+y,1/2+z
x,1/2-y,z
loop_
_atom_site_type_symbol
_atom_site_label
_atom_site_fract_x
_atom_site_fract_y
_atom_site_fract_z
Si Si1 0.049476 0.428450 0.762871
Si Si2 0.880192 0.070444 0.804330
Si Si3 0.424810 0.070729 0.043073
Si Si4 0.305264 0.571516 0.890092
Si Si5 0.861807 0.429904 0.049331
O O1 0.059987 0.250000 0.749087
O O2 0.083290 0.515969 0.663681
O O3 0.085194 0.483268 0.871619
O O4 0.962890 0.458113 0.766922
O O5 0.866810 0.250000 0.796149
O O6 0.825991 0.984327 0.726832
O O7 0.872800 0.027416 0.926975
O O8 0.429412 0.250000 0.037120
O O9 0.500000 0.000000 0.000000
O O10 0.358883 0.012029 0.971232
O O11 0.317691 0.750000 0.898847
O O12 0.221435 0.540828 0.917427
O O13 0.875344 0.250000 0.058258
#
# Coordination Sequence:
#
# PCOD9466792 Si02
#       5
#     8   8   8   8   8
#     4  11  23  40  66  96 125 167 215 260 318 379
#     4  10  22  42  65  90 126 169 211 261 316 376
#     4  12  24  41  65  93 127 167 211 264 317 374
#     4  11  24  41  63  94 128 167 213 263 317 377
#     4  10  24  43  63  93 130 168 211 262 318 376
#
# _framework density 19.416377000000001
#
# number of rings (size 3 to 8) (size 9 to 14) (size 15 to 20)
#    0.000    1.200    2.000    3.600    2.800    3.200 
#    0.000    0.000    0.000    0.000    0.000    0.000 
#    0.000    0.000    0.000    0.000    0.000    0.000 
#
# Total GULP energy -223803.001391 kJ/mol
# GULP energy per Si atom -5595.075035 kJ/mol
# Density = 1.937218 g / cm^3
# Si number density = 19.416377 Si / 1000 Ang^3
#
#
#
# Elastic Constant Matrix: (Units=GPa)
#
#
# Indices 1 2 3 4 5 6 
#
# 1 25.3763 29.0382 3.3389 0.0000 0.0000 0.0000
# 2 29.0382 60.0141 25.4720 0.0000 0.0000 0.0000
# 3 3.3389 25.4720 106.4224 0.0000 0.0000 0.0000
# 4 0.0000 0.0000 0.0000 40.3711 0.0000 0.0000
# 5 0.0000 0.0000 0.0000 0.0000 24.2601 0.0000
# 6 0.0000 0.0000 0.0000 0.0000 0.0000 21.9126
#
#
#
# Elastic Compliance Matrix: (Units=1/GPa)
#
#
# Indices 1 2 3 4 5 6 
#
# 1 0.095407 -0.049969 0.008967 0.000000 0.000000 0.000000
# 2 -0.049969 0.044718 -0.009135 0.000000 0.000000 0.000000
# 3 0.008967 -0.009135 0.011302 0.000000 0.000000 0.000000
# 4 0.000000 0.000000 0.000000 0.024770 0.000000 0.000000
# 5 0.000000 0.000000 0.000000 0.000000 0.041220 0.000000
# 6 0.000000 0.000000 0.000000 0.000000 0.000000 0.045636
#
#
# Mechanical properties :
#
#
# Convention : Reuss Voigt Hill
#
# Bulk Modulus (GPa) = 19.54995 34.16790 26.85893
# Shear Modulus (GPa) = 13.14482 26.23968 19.69225
#
# Velocity S-wave (km/s) = 2.60474 3.68015 3.18812
# Velocity P-wave (km/s) = 4.37457 5.97442 5.23596
#
# Compressibility (1/GPa) = 0.05115101
#
# Stress axis : x y z
#
# Youngs Moduli (GPa) = 10.48145 22.36240 88.48192
#
# Poissons Ratio (x) = 1.11742 -0.79339
# Poissons Ratio (y) = 0.52375 0.80832
# Poissons Ratio (z) = -0.09398 0.20429
#
# Static dielectric constant tensor:
#      x y z
#    x 1.644600 0.000000 0.000000 
#    y 0.000000 1.650300 0.000000 
#    z 0.000000 0.000000 1.668000 
# 
# From -- ./inp_files/13839.got.cif
#   From: 2010.05.17/outbox.cif.g08.bks.cpg/sg62_7_cif.got.tgz:13839.got - 2010.06.03 15:25:27.
