data_PCOD9466534
_publ_section_title
;
Structure prediction by ZEFSAII (Michael W. Deem and Ramdas Pophale) SiO2 
 PCOD9466534
Probable space group: P N M A
;
_chemical_formula_sum "Si O2"
_cell_formula_units_Z 60
_cell_length_a 17.649624
_cell_length_b 29.394468
_cell_length_c 5.065917
_cell_angle_alpha 90.000000
_cell_angle_beta 90.000000
_cell_angle_gamma 90.000000
_cell_volume 2628.204365
_symmetry_space_group_name_H-M "P N M A"
_symmetry_group_IT_number 62
_symmetry_cell_setting 'orthorhombic'
loop_
_space_group_symop_operation_xyz
x,y,z
1/2-x,-y,1/2+z
1/2+x,1/2-y,1/2-z
-x,1/2+y,-z
-x,-y,-z
1/2+x,y,1/2-z
1/2-x,1/2+y,1/2+z
x,1/2-y,z
loop_
_atom_site_type_symbol
_atom_site_label
_atom_site_fract_x
_atom_site_fract_y
_atom_site_fract_z
Si Si1 0.571938 0.413897 0.244625
Si Si2 0.409176 0.494002 0.528157
Si Si3 0.080812 0.803350 0.312279
Si Si4 0.846822 0.152945 0.199880
Si Si5 0.677458 0.337784 0.999697
Si Si6 0.600311 0.250000 0.261444
Si Si7 0.938235 0.667004 0.108837
Si Si8 0.408400 0.438949 0.041066
O O1 0.615384 0.457331 0.361683
O O2 0.627496 0.380896 0.088753
O O3 0.542944 0.381139 0.479846
O O4 0.498993 0.430736 0.079722
O O5 0.500000 0.500000 0.500000
O O6 0.383569 0.479321 0.239182
O O7 0.393241 0.454727 0.743413
O O8 0.081655 0.750000 0.258957
O O9 0.133025 0.812306 0.564688
O O10 0.994302 0.820831 0.351488
O O11 0.106080 0.832180 0.057925
O O12 0.762138 0.153491 0.089266
O O13 0.869015 0.105681 0.341175
O O14 0.651094 0.290177 0.121810
O O15 0.650181 0.333255 0.695890
O O16 0.552758 0.290249 0.417545
#
# Coordination Sequence:
#
# PCOD9466534 Si02
#       8
#     8   8   8   8   8   4   8   8
#     4  10  22  40  65 103 128 176 230 284 337 417
#     4  10  22  38  70 102 134 172 225 288 347 404
#     4  12  27  45  71 100 138 185 239 295 351 416
#     4  12  28  46  66 102 144 187 231 284 362 422
#     4  11  27  41  69  94 142 185 229 284 353 425
#     4  10  24  44  62 102 130 176 240 282 346 414
#     4  11  23  42  72  97 138 178 239 295 344 412
#     4  11  22  43  68 100 139 176 225 292 343 410
#
# _framework density 22.829276
#
# number of rings (size 3 to 8) (size 9 to 14) (size 15 to 20)
#    0.000    1.067    2.000    4.000   14.933    0.000 
#    0.000    1.333    0.000    0.000    0.000    0.000 
#    0.000    0.000    0.000    0.000    0.000    0.000 
#
# Total GULP energy -334309.746934 kJ/mol
# GULP energy per Si atom -5571.829116 kJ/mol
# Density = 2.277732 g / cm^3
# Si number density = 22.829276 Si / 1000 Ang^3
#
#
#
# Elastic Constant Matrix: (Units=GPa)
#
#
# Indices 1 2 3 4 5 6 
#
# 1 68.6606 17.7335 16.1783 0.0000 0.0000 0.0000
# 2 17.7335 114.3968 13.0314 0.0000 0.0000 0.0000
# 3 16.1783 13.0314 93.2234 0.0000 0.0000 0.0000
# 4 0.0000 0.0000 0.0000 -26.6071 0.0000 0.0000
# 5 0.0000 0.0000 0.0000 0.0000 17.5289 0.0000
# 6 0.0000 0.0000 0.0000 0.0000 0.0000 16.2116
#
#
#
# Elastic Compliance Matrix: (Units=1/GPa)
#
#
# Indices 1 2 3 4 5 6 
#
# 1 0.015692 -0.002157 -0.002422 0.000000 0.000000 0.000000
# 2 -0.002157 0.009179 -0.000909 0.000000 0.000000 0.000000
# 3 -0.002422 -0.000909 0.011274 0.000000 0.000000 0.000000
# 4 0.000000 0.000000 0.000000 -0.037584 0.000000 0.000000
# 5 0.000000 0.000000 0.000000 0.000000 0.057049 0.000000
# 6 0.000000 0.000000 0.000000 0.000000 0.000000 0.061684
#
#
# Mechanical properties :
#
#
# Convention : Reuss Voigt Hill
#
# Bulk Modulus (GPa) = 39.72824 41.12969 40.42897
# Shear Modulus (GPa) = 36.58726 16.71585 26.65156
#
# Velocity S-wave (km/s) = 4.00765 2.70888 3.42047
# Velocity P-wave (km/s) = 6.23339 5.27630 5.77471
#
# Compressibility (1/GPa) = 0.02517101
#
# Stress axis : x y z
#
# Youngs Moduli (GPa) = 63.72652 108.94003 88.69763
#
# Poissons Ratio (x) = 0.23495 0.21481
# Poissons Ratio (y) = 0.13744 0.08062
# Poissons Ratio (z) = 0.15433 0.09901
#
# Static dielectric constant tensor:
#      x y z
#    x 1.888280 0.000000 0.000000 
#    y 0.000000 1.858650 0.000000 
#    z 0.000000 0.000000 1.976260 
# 
# From -- ./inp_files/1817.got.cif
#   From: 2010.05.17/outbox.cif.g08.bks.cpg/sg62_1_cif.got.tgz:1817.got - 2010.06.03 15:25:27.
