data_PCOD9466239
_publ_section_title
;
Structure prediction by ZEFSAII (Michael W. Deem and Ramdas Pophale) SiO2 
 PCOD9466239
Probable space group: P N M A
;
_chemical_formula_sum "Si O2"
_cell_formula_units_Z 32
_cell_length_a 14.906046
_cell_length_b 10.258552
_cell_length_c 9.895855
_cell_angle_alpha 90.000000
_cell_angle_beta 90.000000
_cell_angle_gamma 90.000000
_cell_volume 1513.219205
_symmetry_space_group_name_H-M "P N M A"
_symmetry_group_IT_number 62
_symmetry_cell_setting 'orthorhombic'
loop_
_space_group_symop_operation_xyz
x,y,z
1/2-x,-y,1/2+z
1/2+x,1/2-y,1/2-z
-x,1/2+y,-z
-x,-y,-z
1/2+x,y,1/2-z
1/2-x,1/2+y,1/2+z
x,1/2-y,z
loop_
_atom_site_type_symbol
_atom_site_label
_atom_site_fract_x
_atom_site_fract_y
_atom_site_fract_z
Si Si1 0.273512 0.605011 0.797460
Si Si2 0.017220 0.097440 0.375091
Si Si3 0.344445 0.982264 0.521135
Si Si4 0.002938 0.388815 0.847165
O O1 0.236742 0.750000 0.811722
O O2 0.375772 0.602882 0.850651
O O3 0.214590 0.514702 0.891892
O O4 0.281762 0.570285 0.640161
O O5 0.986713 0.250000 0.386338
O O6 0.980500 0.015146 0.246573
O O7 0.000000 0.000000 0.500000
O O8 0.403740 0.096622 0.589537
O O9 0.424422 0.891206 0.466815
O O10 0.010031 0.250000 0.772915
#
# Coordination Sequence:
#
# PCOD9466239 Si02
#       4
#     8   8   8   8
#     4  10  22  41  61  90 128 163 208 262 318 378
#     4  10  22  40  63  92 127 164 207 262 320 382
#     4  10  22  39  64  93 125 168 211 263 315 376
#     4  10  21  40  64  90 124 169 216 257 314 383
#
# _framework density 21.14697
#
# number of rings (size 3 to 8) (size 9 to 14) (size 15 to 20)
#    0.000    2.000    0.000    2.250    3.500    7.000 
#    0.000   12.500    0.000    0.000    0.000    0.000 
#    0.000    0.000    0.000    0.000    0.000    0.000 
#
# Total GULP energy -178388.045366 kJ/mol
# GULP energy per Si atom -5574.626418 kJ/mol
# Density = 2.109884 g / cm^3
# Si number density = 21.146970 Si / 1000 Ang^3
#
#
#
# Elastic Constant Matrix: (Units=GPa)
#
#
# Indices 1 2 3 4 5 6 
#
# 1 19.8415 6.3708 20.5120 0.0000 0.0000 0.0000
# 2 6.3708 138.1221 28.3326 0.0000 0.0000 0.0000
# 3 20.5120 28.3326 93.4410 0.0000 0.0000 0.0000
# 4 0.0000 0.0000 0.0000 -33.9838 0.0000 0.0000
# 5 0.0000 0.0000 0.0000 0.0000 41.5799 0.0000
# 6 0.0000 0.0000 0.0000 0.0000 0.0000 -4.5515
#
#
#
# Elastic Compliance Matrix: (Units=1/GPa)
#
#
# Indices 1 2 3 4 5 6 
#
# 1 0.065195 -0.000076 -0.014289 0.000000 0.000000 0.000000
# 2 -0.000076 0.007720 -0.002324 0.000000 0.000000 0.000000
# 3 -0.014289 -0.002324 0.014543 0.000000 0.000000 0.000000
# 4 0.000000 0.000000 0.000000 -0.029426 0.000000 0.000000
# 5 0.000000 0.000000 0.000000 0.000000 0.024050 0.000000
# 6 0.000000 0.000000 0.000000 0.000000 0.000000 -0.219709
#
#
# Mechanical properties :
#
#
# Convention : Reuss Voigt Hill
#
# Bulk Modulus (GPa) = 18.49069 40.20392 29.34731
# Shear Modulus (GPa) = -57.99064 13.68819 -22.15123
#
# Velocity S-wave (km/s) = -5.24235 2.54695 -3.24001
# Velocity P-wave (km/s) = 5.28016 5.26329 0.29822
#
# Compressibility (1/GPa) = 0.05408126
#
# Stress axis : x y z
#
# Youngs Moduli (GPa) = 15.33850 129.52975 68.76036
#
# Poissons Ratio (x) = 0.00986 0.98248
# Poissons Ratio (y) = 0.00117 0.15981
# Poissons Ratio (z) = 0.21916 0.30105
#
# Static dielectric constant tensor:
#      x y z
#    x 1.754560 0.000000 0.000000 
#    y 0.000000 1.833000 0.000000 
#    z 0.000000 0.000000 1.782940 
# 
# From -- ./inp_files/5746.got.cif
#   From: 2010.05.17/outbox.cif.g08.bks.cpg/sg62_3_cif.got.tgz:5746.got - 2010.06.03 15:25:27.
