data_PCOD9466639
_publ_section_title
;
Structure prediction by ZEFSAII (Michael W. Deem and Ramdas Pophale) SiO2 
 PCOD9466639
Probable space group: P N M A
;
_chemical_formula_sum "Si O2"
_cell_formula_units_Z 48
_cell_length_a 9.150880
_cell_length_b 22.869722
_cell_length_c 10.214368
_cell_angle_alpha 90.000000
_cell_angle_beta 90.000000
_cell_angle_gamma 90.000000
_cell_volume 2137.643340
_symmetry_space_group_name_H-M "P N M A"
_symmetry_group_IT_number 62
_symmetry_cell_setting 'orthorhombic'
loop_
_space_group_symop_operation_xyz
x,y,z
1/2-x,-y,1/2+z
1/2+x,1/2-y,1/2-z
-x,1/2+y,-z
-x,-y,-z
1/2+x,y,1/2-z
1/2-x,1/2+y,1/2+z
x,1/2-y,z
loop_
_atom_site_type_symbol
_atom_site_label
_atom_site_fract_x
_atom_site_fract_y
_atom_site_fract_z
Si Si1 0.775583 0.896639 0.547760
Si Si2 0.365595 0.817540 0.449273
Si Si3 0.426334 0.317945 0.300826
Si Si4 0.783596 0.021608 0.617470
Si Si5 0.913979 0.385730 0.468045
Si Si6 0.526083 0.578261 0.342623
O O1 0.718165 0.840216 0.623730
O O2 0.643756 0.919914 0.459220
O O3 0.924312 0.884275 0.471219
O O4 0.811217 0.953296 0.635058
O O5 0.365008 0.750000 0.414208
O O6 0.444062 0.823559 0.592216
O O7 0.204701 0.843880 0.464987
O O8 0.456507 0.856970 0.348285
O O9 0.415499 0.250000 0.261225
O O10 0.439200 0.360785 0.177680
O O11 0.843490 0.049422 0.480827
O O12 0.613455 0.036949 0.632942
O O13 0.880831 0.057095 0.720561
#
# Coordination Sequence:
#
# PCOD9466639 Si02
#       6
#     8   8   8   8   8   8
#     4  11  24  38  65  93 130 170 214 264 323 385
#     4   9  20  41  64  88 125 167 214 267 318 380
#     4  10  22  40  62  92 128 169 214 265 323 382
#     4  11  24  40  64  90 133 169 215 265 321 385
#     4  11  22  36  60  95 125 163 210 261 322 378
#     4  10  23  43  62  92 124 171 216 262 318 388
#
# _framework density 22.454635
#
# number of rings (size 3 to 8) (size 9 to 14) (size 15 to 20)
#    0.000    1.667    0.000    3.500    4.667    2.667 
#    0.000    4.167    0.000    4.000    0.000    0.000 
#    0.000    0.000    0.000    0.000    0.000    0.000 
#
# Total GULP energy -268238.548942 kJ/mol
# GULP energy per Si atom -5588.303103 kJ/mol
# Density = 2.240353 g / cm^3
# Si number density = 22.454635 Si / 1000 Ang^3
#
#
#
# Elastic Constant Matrix: (Units=GPa)
#
#
# Indices 1 2 3 4 5 6 
#
# 1 170.9376 34.7189 21.8844 0.0000 0.0000 0.0000
# 2 34.7189 104.6180 13.5856 0.0000 0.0000 0.0000
# 3 21.8844 13.5856 44.1552 0.0000 0.0000 0.0000
# 4 0.0000 0.0000 0.0000 18.6745 0.0000 0.0000
# 5 0.0000 0.0000 0.0000 0.0000 22.3249 0.0000
# 6 0.0000 0.0000 0.0000 0.0000 0.0000 20.7751
#
#
#
# Elastic Compliance Matrix: (Units=1/GPa)
#
#
# Indices 1 2 3 4 5 6 
#
# 1 0.006566 -0.001830 -0.002691 0.000000 0.000000 0.000000
# 2 -0.001830 0.010466 -0.002313 0.000000 0.000000 0.000000
# 3 -0.002691 -0.002313 0.024693 0.000000 0.000000 0.000000
# 4 0.000000 0.000000 0.000000 0.053549 0.000000 0.000000
# 5 0.000000 0.000000 0.000000 0.000000 0.044793 0.000000
# 6 0.000000 0.000000 0.000000 0.000000 0.000000 0.048135
#
#
# Mechanical properties :
#
#
# Convention : Reuss Voigt Hill
#
# Bulk Modulus (GPa) = 35.64221 51.12094 43.38158
# Shear Modulus (GPa) = 23.67164 28.98971 26.33067
#
# Velocity S-wave (km/s) = 3.25036 3.59699 3.42806
# Velocity P-wave (km/s) = 5.47667 6.32984 5.91865
#
# Compressibility (1/GPa) = 0.02805662
#
# Stress axis : x y z
#
# Youngs Moduli (GPa) = 152.29346 95.54590 40.49705
#
# Poissons Ratio (x) = 0.17481 0.10900
# Poissons Ratio (y) = 0.27863 0.09369
# Poissons Ratio (z) = 0.40989 0.22104
#
# Static dielectric constant tensor:
#      x y z
#    x 1.839500 0.000000 0.000000 
#    y 0.000000 1.815930 0.000000 
#    z 0.000000 0.000000 1.902010 
# 
# From -- ./inp_files/11327.got.cif
#   From: 2010.05.17/outbox.cif.g08.bks.cpg/sg62_6_cif.got.tgz:11327.got - 2010.06.03 15:25:27.
