data_PCOD9466371
_publ_section_title
;
Structure prediction by ZEFSAII (Michael W. Deem and Ramdas Pophale) SiO2 
 PCOD9466371
Probable space group: P N M A
;
_chemical_formula_sum "Si O2"
_cell_formula_units_Z 48
_cell_length_a 10.149520
_cell_length_b 13.973208
_cell_length_c 17.721312
_cell_angle_alpha 90.000000
_cell_angle_beta 90.000000
_cell_angle_gamma 90.000000
_cell_volume 2513.260464
_symmetry_space_group_name_H-M "P N M A"
_symmetry_group_IT_number 62
_symmetry_cell_setting 'orthorhombic'
loop_
_space_group_symop_operation_xyz
x,y,z
1/2-x,-y,1/2+z
1/2+x,1/2-y,1/2-z
-x,1/2+y,-z
-x,-y,-z
1/2+x,y,1/2-z
1/2-x,1/2+y,1/2+z
x,1/2-y,z
loop_
_atom_site_type_symbol
_atom_site_label
_atom_site_fract_x
_atom_site_fract_y
_atom_site_fract_z
Si Si1 0.114202 0.972124 0.858469
Si Si2 0.618992 0.135897 0.105882
Si Si3 0.616562 0.977886 0.815795
Si Si4 0.240657 0.359434 0.947845
Si Si5 0.551333 0.363103 0.931924
Si Si6 0.153434 0.138702 0.119789
O O1 0.240791 0.903883 0.868248
O O2 0.097250 0.001485 0.771449
O O3 0.985357 0.914765 0.883689
O O4 0.146488 0.065100 0.907940
O O5 0.610551 0.250000 0.113986
O O6 0.503587 0.086468 0.153474
O O7 0.597437 0.113108 0.016938
O O8 0.749472 0.916862 0.824616
O O9 0.619469 0.070193 0.870111
O O10 0.211221 0.250000 0.925395
O O11 0.393452 0.379180 0.928455
O O12 0.222161 0.365262 0.037752
O O13 0.575250 0.250000 0.919681
O O14 0.137013 0.250000 0.140811
#
# Coordination Sequence:
#
# PCOD9466371 Si02
#       6
#     8   8   8   8   8   8
#     4  12  25  38  60  94 129 161 193 252 313 365
#     4  11  22  40  66  91 118 162 213 249 291 362
#     4  12  23  39  63  90 125 162 201 247 308 365
#     4  10  21  42  67  88 117 161 209 255 303 355
#     4  10  21  41  69  91 114 158 215 259 290 351
#     4  11  24  41  61  89 125 163 202 248 305 362
#
# _framework density 19.098697000000001
#
# number of rings (size 3 to 8) (size 9 to 14) (size 15 to 20)
#    0.000    1.000    3.333    4.000    0.000    4.667 
#    0.000    2.500    0.000    0.000    0.000    0.000 
#    0.000    0.000    0.000    0.000    0.000    0.000 
#
# Total GULP energy -268503.869656 kJ/mol
# GULP energy per Si atom -5593.830618 kJ/mol
# Density = 1.905523 g / cm^3
# Si number density = 19.098697 Si / 1000 Ang^3
#
#
#
# Elastic Constant Matrix: (Units=GPa)
#
#
# Indices 1 2 3 4 5 6 
#
# 1 68.5688 19.3901 -9.7618 0.0000 0.0000 0.0000
# 2 19.3901 68.0067 5.8677 0.0000 0.0000 0.0000
# 3 -9.7618 5.8677 41.7210 0.0000 0.0000 0.0000
# 4 0.0000 0.0000 0.0000 -8.8508 0.0000 0.0000
# 5 0.0000 0.0000 0.0000 0.0000 10.9917 0.0000
# 6 0.0000 0.0000 0.0000 0.0000 0.0000 31.7762
#
#
#
# Elastic Compliance Matrix: (Units=1/GPa)
#
#
# Indices 1 2 3 4 5 6 
#
# 1 0.016703 -0.005162 0.004634 0.000000 0.000000 0.000000
# 2 -0.005162 0.016481 -0.003526 0.000000 0.000000 0.000000
# 3 0.004634 -0.003526 0.025549 0.000000 0.000000 0.000000
# 4 0.000000 0.000000 0.000000 -0.112984 0.000000 0.000000
# 5 0.000000 0.000000 0.000000 0.000000 0.090978 0.000000
# 6 0.000000 0.000000 0.000000 0.000000 0.000000 0.031470
#
#
# Mechanical properties :
#
#
# Convention : Reuss Voigt Hill
#
# Bulk Modulus (GPa) = 19.75294 23.25428 21.50361
# Shear Modulus (GPa) = 53.66013 17.63680 35.64846
#
# Velocity S-wave (km/s) = 5.30634 3.04214 4.32503
# Velocity P-wave (km/s) = 6.92156 4.95396 6.01871
#
# Compressibility (1/GPa) = 0.05062537
#
# Stress axis : x y z
#
# Youngs Moduli (GPa) = 59.86774 60.67762 39.14057
#
# Poissons Ratio (x) = 0.31324 -0.18139
# Poissons Ratio (y) = 0.30906 0.13800
# Poissons Ratio (z) = -0.27745 0.21393
#
# Static dielectric constant tensor:
#      x y z
#    x 1.639070 0.000000 0.000000 
#    y 0.000000 1.661470 0.000000 
#    z 0.000000 0.000000 1.643970 
# 
# From -- ./inp_files/22193.got.cif
#   From: 2010.05.17/outbox.cif.g08.bks.cpg/sg62_12_cif.got.tgz:22193.got - 2010.06.03 15:25:27.
