data_PCOD9466062
_publ_section_title
;
Structure prediction by ZEFSAII (Michael W. Deem and Ramdas Pophale) SiO2 
 PCOD9466062
Probable space group: P N M A
;
_chemical_formula_sum "Si O2"
_cell_formula_units_Z 64
_cell_length_a 12.963221
_cell_length_b 7.755183
_cell_length_c 29.219841
_cell_angle_alpha 90.000000
_cell_angle_beta 90.000000
_cell_angle_gamma 90.000000
_cell_volume 2937.533471
_symmetry_space_group_name_H-M "P N M A"
_symmetry_group_IT_number 62
_symmetry_cell_setting 'orthorhombic'
loop_
_space_group_symop_operation_xyz
x,y,z
1/2-x,-y,1/2+z
1/2+x,1/2-y,1/2-z
-x,1/2+y,-z
-x,-y,-z
1/2+x,y,1/2-z
1/2-x,1/2+y,1/2+z
x,1/2-y,z
loop_
_atom_site_type_symbol
_atom_site_label
_atom_site_fract_x
_atom_site_fract_y
_atom_site_fract_z
Si Si1 0.482451 0.941203 0.947871
Si Si2 0.255042 0.050620 0.947576
Si Si3 0.771116 0.048072 0.300293
Si Si4 0.817761 0.950094 0.706650
Si Si5 0.606886 0.544177 0.474978
Si Si6 0.979979 0.463090 0.347503
Si Si7 0.366691 0.542055 0.358089
Si Si8 0.095990 0.959578 0.129956
O O1 0.526415 0.750000 0.947342
O O2 0.523445 0.025141 0.900580
O O3 0.358830 0.944284 0.941936
O O4 0.500000 0.000000 0.000000
O O5 0.283709 0.250000 0.940214
O O6 0.170369 0.002402 0.909630
O O7 0.201719 0.030485 0.996441
O O8 0.790178 0.250000 0.290071
O O9 0.717477 0.970449 0.255023
O O10 0.880502 0.979919 0.318499
O O11 0.688931 0.030690 0.340619
O O12 0.844857 0.750000 0.715396
O O13 0.915476 0.020945 0.678372
O O14 0.717009 0.961626 0.675125
O O15 0.500000 0.500000 0.500000
O O16 0.617516 0.750000 0.475074
O O17 0.603870 0.485132 0.422730
O O18 0.981708 0.250000 0.349371
O O19 0.362733 0.750000 0.352930
O O20 0.484078 0.486356 0.351131
O O21 0.099151 0.750000 0.131017
#
# Coordination Sequence:
#
# PCOD9466062 Si02
#       8
#     8   8   8   8   8   8   8   8
#     4  11  23  40  61  87 123 165 207 254 309 366
#     4  11  22  39  60  87 121 159 205 255 307 365
#     4  10  23  40  63  91 120 158 201 251 308 363
#     4  10  21  39  65  91 118 154 201 253 304 363
#     4  11  22  38  59  87 123 163 200 246 301 361
#     4   9  20  40  60  88 125 155 195 253 305 357
#     4  10  21  39  61  87 122 157 197 251 305 360
#     4  10  23  42  59  85 125 161 200 250 301 361
#
# _framework density 21.786985999999999
#
# number of rings (size 3 to 8) (size 9 to 14) (size 15 to 20)
#    0.000    1.750    2.500    1.125    3.500    2.500 
#    0.000    1.250    0.000    0.000    0.000    0.000 
#    0.000    0.000    0.000    0.000    0.000    0.000 
#
# Total GULP energy -357397.764149 kJ/mol
# GULP energy per Si atom -5584.340065 kJ/mol
# Density = 2.173740 g / cm^3
# Si number density = 21.786986 Si / 1000 Ang^3
#
#
#
# Elastic Constant Matrix: (Units=GPa)
#
#
# Indices 1 2 3 4 5 6 
#
# 1 88.9558 -6.2698 51.9849 0.0000 0.0000 0.0000
# 2 -6.2698 28.6391 5.2273 0.0000 0.0000 0.0000
# 3 51.9849 5.2273 159.4093 0.0000 0.0000 0.0000
# 4 0.0000 0.0000 0.0000 15.5574 0.0000 0.0000
# 5 0.0000 0.0000 0.0000 0.0000 32.4792 0.0000
# 6 0.0000 0.0000 0.0000 0.0000 0.0000 17.6456
#
#
#
# Elastic Compliance Matrix: (Units=1/GPa)
#
#
# Indices 1 2 3 4 5 6 
#
# 1 0.014333 0.004015 -0.004806 0.000000 0.000000 0.000000
# 2 0.004015 0.036252 -0.002498 0.000000 0.000000 0.000000
# 3 -0.004806 -0.002498 0.007922 0.000000 0.000000 0.000000
# 4 0.000000 0.000000 0.000000 0.064278 0.000000 0.000000
# 5 0.000000 0.000000 0.000000 0.000000 0.030789 0.000000
# 6 0.000000 0.000000 0.000000 0.000000 0.000000 0.056671
#
#
# Mechanical properties :
#
#
# Convention : Reuss Voigt Hill
#
# Bulk Modulus (GPa) = 19.25676 42.09876 30.67776
# Shear Modulus (GPa) = 21.35531 28.20721 24.78126
#
# Velocity S-wave (km/s) = 3.13419 3.60207 3.37625
# Velocity P-wave (km/s) = 4.68566 6.05514 5.41388
#
# Compressibility (1/GPa) = 0.05192981
#
# Stress axis : x y z
#
# Youngs Moduli (GPa) = 69.76918 27.58446 126.22616
#
# Poissons Ratio (x) = -0.11075 0.60661
# Poissons Ratio (y) = -0.28012 0.31533
# Poissons Ratio (z) = 0.33530 0.06891
#
# Static dielectric constant tensor:
#      x y z
#    x 1.743140 0.000000 0.000000 
#    y 0.000000 1.837530 0.000000 
#    z 0.000000 0.000000 1.805090 
# 
# From -- ./inp_files/32555.got.cif
#   From: 2010.05.17/outbox.cif.g08.bks.cpg/sg62_17_cif.got.tgz:32555.got - 2010.06.03 15:25:27.
