data_PCOD9466820
_publ_section_title
;
Structure prediction by ZEFSAII (Michael W. Deem and Ramdas Pophale) SiO2 
 PCOD9466820
Probable space group: P N M A
;
_chemical_formula_sum "Si O2"
_cell_formula_units_Z 64
_cell_length_a 12.766556
_cell_length_b 13.985050
_cell_length_c 16.788465
_cell_angle_alpha 90.000000
_cell_angle_beta 90.000000
_cell_angle_gamma 90.000000
_cell_volume 2997.428053
_symmetry_space_group_name_H-M "P N M A"
_symmetry_group_IT_number 62
_symmetry_cell_setting 'orthorhombic'
loop_
_space_group_symop_operation_xyz
x,y,z
1/2-x,-y,1/2+z
1/2+x,1/2-y,1/2-z
-x,1/2+y,-z
-x,-y,-z
1/2+x,y,1/2-z
1/2-x,1/2+y,1/2+z
x,1/2-y,z
loop_
_atom_site_type_symbol
_atom_site_label
_atom_site_fract_x
_atom_site_fract_y
_atom_site_fract_z
Si Si1 0.020679 0.635585 0.989809
Si Si2 0.482197 0.531437 0.206879
Si Si3 0.383033 0.865822 0.357644
Si Si4 0.681287 0.358442 0.395696
Si Si5 0.635295 0.140261 0.218503
Si Si6 0.360807 0.491112 0.044560
Si Si7 0.750660 0.635800 0.556996
Si Si8 0.638402 0.862614 0.100940
O O1 0.031935 0.750000 0.997634
O O2 0.964053 0.605448 0.071715
O O3 0.135181 0.599398 0.966434
O O4 0.937748 0.619855 0.919490
O O5 0.415075 0.577506 0.277927
O O6 0.540744 0.433184 0.228317
O O7 0.417495 0.506736 0.127561
O O8 0.572705 0.604908 0.178032
O O9 0.391872 0.750000 0.345605
O O10 0.262374 0.882855 0.384486
O O11 0.703331 0.250000 0.425325
O O12 0.696209 0.359977 0.301484
O O13 0.755169 0.434492 0.434991
O O14 0.599463 0.250000 0.204415
O O15 0.709119 0.110386 0.145230
O O16 0.332253 0.590889 0.004088
O O17 0.405737 0.423839 0.974001
O O18 0.750216 0.750000 0.552769
O O19 0.626464 0.750000 0.086646
#
# Coordination Sequence:
#
# PCOD9466820 Si02
#       8
#     8   8   8   8   8   8   8   8
#     4   9  19  40  69 100 128 172 228 277 336 396
#     4  12  27  43  67 102 136 177 227 277 337 411
#     4  10  23  44  71 102 135 173 224 287 347 403
#     4  10  22  42  68  99 132 170 222 273 329 400
#     4  10  24  44  64  94 139 180 220 275 332 399
#     4  12  25  41  67  99 130 178 230 268 330 405
#     4  10  23  42  66  96 139 178 224 282 334 394
#     4  11  24  46  71  97 134 176 224 286 345 407
#
# _framework density 21.351637
#
# number of rings (size 3 to 8) (size 9 to 14) (size 15 to 20)
#    0.000    1.500    2.500    1.125    3.500    4.500 
#    0.000    5.000    0.000    0.000    0.000    0.000 
#    0.000    0.000    0.000    0.000    0.000    0.000 
#
# Total GULP energy -357697.698050 kJ/mol
# GULP energy per Si atom -5589.026532 kJ/mol
# Density = 2.130304 g / cm^3
# Si number density = 21.351637 Si / 1000 Ang^3
#
#
#
# Elastic Constant Matrix: (Units=GPa)
#
#
# Indices 1 2 3 4 5 6 
#
# 1 65.8702 27.6978 36.5514 0.0000 0.0000 0.0000
# 2 27.6978 86.9988 37.0339 0.0000 0.0000 0.0000
# 3 36.5514 37.0339 128.3722 0.0000 0.0000 0.0000
# 4 0.0000 0.0000 0.0000 32.9542 0.0000 0.0000
# 5 0.0000 0.0000 0.0000 0.0000 25.6135 0.0000
# 6 0.0000 0.0000 0.0000 0.0000 0.0000 23.7942
#
#
#
# Elastic Compliance Matrix: (Units=1/GPa)
#
#
# Indices 1 2 3 4 5 6 
#
# 1 0.019377 -0.004355 -0.004261 0.000000 0.000000 0.000000
# 2 -0.004355 0.014083 -0.002823 0.000000 0.000000 0.000000
# 3 -0.004261 -0.002823 0.009817 0.000000 0.000000 0.000000
# 4 0.000000 0.000000 0.000000 0.030345 0.000000 0.000000
# 5 0.000000 0.000000 0.000000 0.000000 0.039042 0.000000
# 6 0.000000 0.000000 0.000000 0.000000 0.000000 0.042027
#
#
# Mechanical properties :
#
#
# Convention : Reuss Voigt Hill
#
# Bulk Modulus (GPa) = 49.02067 53.75639 51.38853
# Shear Modulus (GPa) = 27.11967 28.46960 27.79464
#
# Velocity S-wave (km/s) = 3.56778 3.65549 3.61190
# Velocity P-wave (km/s) = 6.32302 6.56111 6.44317
#
# Compressibility (1/GPa) = 0.02039956
#
# Stress axis : x y z
#
# Youngs Moduli (GPa) = 51.60745 71.01000 101.86116
#
# Poissons Ratio (x) = 0.30927 0.43401
# Poissons Ratio (y) = 0.22477 0.28751
# Poissons Ratio (z) = 0.21989 0.20043
#
# Static dielectric constant tensor:
#      x y z
#    x 1.776810 0.000000 0.000000 
#    y 0.000000 1.781850 0.000000 
#    z 0.000000 0.000000 1.751790 
# 
# From -- ./inp_files/24100.got.cif
#   From: 2010.05.17/outbox.cif.g08.bks.cpg/sg62_13_cif.got.tgz:24100.got - 2010.06.03 15:25:27.
