data_PCOD9466185
_publ_section_title
;
Structure prediction by ZEFSAII (Michael W. Deem and Ramdas Pophale) SiO2 
 PCOD9466185
Probable space group: P N M A
;
_chemical_formula_sum "Si O2"
_cell_formula_units_Z 40
_cell_length_a 23.608634
_cell_length_b 8.535686
_cell_length_c 10.541055
_cell_angle_alpha 90.000000
_cell_angle_beta 90.000000
_cell_angle_gamma 90.000000
_cell_volume 2124.190045
_symmetry_space_group_name_H-M "P N M A"
_symmetry_group_IT_number 62
_symmetry_cell_setting 'orthorhombic'
loop_
_space_group_symop_operation_xyz
x,y,z
1/2-x,-y,1/2+z
1/2+x,1/2-y,1/2-z
-x,1/2+y,-z
-x,-y,-z
1/2+x,y,1/2-z
1/2-x,1/2+y,1/2+z
x,1/2-y,z
loop_
_atom_site_type_symbol
_atom_site_label
_atom_site_fract_x
_atom_site_fract_y
_atom_site_fract_z
Si Si1 0.694268 0.940702 0.498075
Si Si2 0.500969 0.062025 0.643800
Si Si3 0.380348 0.438049 0.260856
Si Si4 0.878534 0.060477 0.753849
Si Si5 0.175149 0.437880 0.504213
O O1 0.694047 0.750000 0.498858
O O2 0.659750 0.991655 0.622494
O O3 0.661573 0.989962 0.370810
O O4 0.759337 0.992505 0.499417
O O5 0.502383 0.250000 0.640132
O O6 0.442800 0.014015 0.712951
O O7 0.500000 0.000000 0.500000
O O8 0.556665 0.999424 0.713032
O O9 0.381316 0.250000 0.261619
O O10 0.355303 0.496984 0.128822
O O11 0.876650 0.250000 0.747464
O O12 0.856260 0.992681 0.622586
O O13 0.175056 0.250000 0.509718
#
# Coordination Sequence:
#
# PCOD9466185 Si02
#       5
#     8   8   8   8   8
#     4   9  19  38  62  87 119 156 198 244 292 349
#     4  11  22  39  64  90 117 153 200 248 296 355
#     4  11  22  40  63  88 121 160 197 245 302 353
#     4  10  21  40  62  85 118 158 194 239 297 352
#     4  11  23  38  58  90 124 155 198 246 292 352
#
# _framework density 18.830707
#
# number of rings (size 3 to 8) (size 9 to 14) (size 15 to 20)
#    0.000    1.600    2.000    3.000    0.000    2.400 
#    0.000    4.000    0.000    0.000    0.000    0.000 
#    0.000    0.000    0.000    0.000    0.000    0.000 
#
# Total GULP energy -223584.324187 kJ/mol
# GULP energy per Si atom -5589.608105 kJ/mol
# Density = 1.878785 g / cm^3
# Si number density = 18.830707 Si / 1000 Ang^3
#
#
#
# Elastic Constant Matrix: (Units=GPa)
#
#
# Indices 1 2 3 4 5 6 
#
# 1 224.9912 48.0001 129.2929 0.0000 0.0000 0.0000
# 2 48.0001 40.4113 39.9414 0.0000 0.0000 0.0000
# 3 129.2929 39.9414 200.9034 0.0000 0.0000 0.0000
# 4 0.0000 0.0000 0.0000 17.1878 0.0000 0.0000
# 5 0.0000 0.0000 0.0000 0.0000 202.8248 0.0000
# 6 0.0000 0.0000 0.0000 0.0000 0.0000 26.7977
#
#
#
# Elastic Compliance Matrix: (Units=1/GPa)
#
#
# Indices 1 2 3 4 5 6 
#
# 1 0.007907 -0.005429 -0.004009 0.000000 0.000000 0.000000
# 2 -0.005429 0.034525 -0.003370 0.000000 0.000000 0.000000
# 3 -0.004009 -0.003370 0.008228 0.000000 0.000000 0.000000
# 4 0.000000 0.000000 0.000000 0.058181 0.000000 0.000000
# 5 0.000000 0.000000 0.000000 0.000000 0.004930 0.000000
# 6 0.000000 0.000000 0.000000 0.000000 0.000000 0.037317
#
#
# Mechanical properties :
#
#
# Convention : Reuss Voigt Hill
#
# Bulk Modulus (GPa) = 39.93131 100.08607 70.00869
# Shear Modulus (GPa) = 27.01960 65.96682 46.49321
#
# Velocity S-wave (km/s) = 3.79208 5.92516 4.97430
# Velocity P-wave (km/s) = 6.35803 10.00380 8.38154
#
# Compressibility (1/GPa) = 0.02504301
#
# Stress axis : x y z
#
# Youngs Moduli (GPa) = 126.47478 28.96461 121.54261
#
# Poissons Ratio (x) = 0.15725 0.48727
# Poissons Ratio (y) = 0.68664 0.40959
# Poissons Ratio (z) = 0.50705 0.09761
#
# Static dielectric constant tensor:
#      x y z
#    x 1.637930 0.000000 0.000000 
#    y 0.000000 1.643930 0.000000 
#    z 0.000000 0.000000 1.605810 
# 
# From -- ./inp_files/9085.got.cif
#   From: 2010.05.17/outbox.cif.g08.bks.cpg/sg62_5_cif.got.tgz:9085.got - 2010.06.03 15:25:27.
