data_PCOD9466965
_publ_section_title
;
Structure prediction by ZEFSAII (Michael W. Deem and Ramdas Pophale) SiO2 
 PCOD9466965
Probable space group: P N M A
;
_chemical_formula_sum "Si O2"
_cell_formula_units_Z 56
_cell_length_a 19.208413
_cell_length_b 15.506574
_cell_length_c 10.101170
_cell_angle_alpha 90.000000
_cell_angle_beta 90.000000
_cell_angle_gamma 90.000000
_cell_volume 3008.700936
_symmetry_space_group_name_H-M "P N M A"
_symmetry_group_IT_number 62
_symmetry_cell_setting 'orthorhombic'
loop_
_space_group_symop_operation_xyz
x,y,z
1/2-x,-y,1/2+z
1/2+x,1/2-y,1/2-z
-x,1/2+y,-z
-x,-y,-z
1/2+x,y,1/2-z
1/2-x,1/2+y,1/2+z
x,1/2-y,z
loop_
_atom_site_type_symbol
_atom_site_label
_atom_site_fract_x
_atom_site_fract_y
_atom_site_fract_z
Si Si1 0.017643 0.153683 0.464871
Si Si2 0.865495 0.511659 0.863487
Si Si3 0.169216 0.348507 0.333226
Si Si4 0.451763 0.653412 0.491626
Si Si5 0.430704 0.386524 0.288488
Si Si6 0.994975 0.936859 0.261319
Si Si7 0.189416 0.652522 0.978545
O O1 0.018202 0.250000 0.520510
O O2 0.092376 0.139672 0.395098
O O3 0.959572 0.149030 0.350092
O O4 0.006346 0.090564 0.587072
O O5 0.820253 0.574708 0.771365
O O6 0.930778 0.476676 0.778682
O O7 0.898245 0.577902 0.970276
O O8 0.831238 0.427598 0.928554
O O9 0.171123 0.250000 0.278312
O O10 0.229686 0.352924 0.441484
O O11 0.424076 0.750000 0.507202
O O12 0.515248 0.641172 0.595515
O O13 0.479273 0.638002 0.343918
O O14 0.438789 0.488633 0.268170
O O15 0.356435 0.358355 0.344277
O O16 0.174852 0.750000 0.030467
#
# Coordination Sequence:
#
# PCOD9466965 Si02
#       7
#     8   8   8   8   8   8   8
#     4  11  22  37  58  87 121 159 201 249 303 360
#     4  11  21  39  61  89 116 156 202 252 296 358
#     4  10  23  41  61  85 120 164 203 241 302 374
#     4  11  19  34  61  90 119 151 197 250 299 354
#     4  11  20  36  60  86 115 156 203 249 296 356
#     4  11  21  34  58  92 122 150 196 255 308 346
#     4  11  23  40  62  88 120 161 205 249 302 363
#
# _framework density 18.612684000000002
#
# number of rings (size 3 to 8) (size 9 to 14) (size 15 to 20)
#    0.000    1.143    5.714    3.429    0.000    1.714 
#    0.000    0.000    0.000    0.857    0.000    0.000 
#    0.000    0.000    0.000    0.000    0.000    0.000 
#
# Total GULP energy -312391.614342 kJ/mol
# GULP energy per Si atom -5578.421685 kJ/mol
# Density = 1.857032 g / cm^3
# Si number density = 18.612684 Si / 1000 Ang^3
#
#
#
# Elastic Constant Matrix: (Units=GPa)
#
#
# Indices 1 2 3 4 5 6 
#
# 1 34.8577 27.0846 4.5736 0.0000 0.0000 0.0000
# 2 27.0846 147.7823 51.7088 0.0000 0.0000 0.0000
# 3 4.5736 51.7088 73.7874 0.0000 0.0000 0.0000
# 4 0.0000 0.0000 0.0000 30.5245 0.0000 0.0000
# 5 0.0000 0.0000 0.0000 0.0000 9.0630 0.0000
# 6 0.0000 0.0000 0.0000 0.0000 0.0000 19.2922
#
#
#
# Elastic Compliance Matrix: (Units=1/GPa)
#
#
# Indices 1 2 3 4 5 6 
#
# 1 0.033942 -0.007266 0.002988 0.000000 0.000000 0.000000
# 2 -0.007266 0.010520 -0.006922 0.000000 0.000000 0.000000
# 3 0.002988 -0.006922 0.018218 0.000000 0.000000 0.000000
# 4 0.000000 0.000000 0.000000 0.032761 0.000000 0.000000
# 5 0.000000 0.000000 0.000000 0.000000 0.110339 0.000000
# 6 0.000000 0.000000 0.000000 0.000000 0.000000 0.051835
#
#
# Mechanical properties :
#
#
# Convention : Reuss Voigt Hill
#
# Bulk Modulus (GPa) = 24.82618 47.01794 35.92206
# Shear Modulus (GPa) = 17.03914 23.31327 20.17621
#
# Velocity S-wave (km/s) = 3.02894 3.54297 3.29599
# Velocity P-wave (km/s) = 5.05963 6.48483 5.81605
#
# Compressibility (1/GPa) = 0.04028007
#
# Stress axis : x y z
#
# Youngs Moduli (GPa) = 29.46217 95.05278 54.89030
#
# Poissons Ratio (x) = 0.69067 -0.16402
# Poissons Ratio (y) = 0.21408 0.37996
# Poissons Ratio (z) = -0.08804 0.65797
#
# Static dielectric constant tensor:
#      x y z
#    x 1.630920 0.000000 0.000000 
#    y 0.000000 1.689760 0.000000 
#    z 0.000000 0.000000 1.642900 
# 
# From -- ./inp_files/8729.got.cif
#   From: 2010.05.17/outbox.cif.g08.bks.cpg/sg62_5_cif.got.tgz:8729.got - 2010.06.03 15:25:27.
