data_PCOD9466539
_publ_section_title
;
Structure prediction by ZEFSAII (Michael W. Deem and Ramdas Pophale) SiO2 
 PCOD9466539
Probable space group: P N M A
;
_chemical_formula_sum "Si O2"
_cell_formula_units_Z 48
_cell_length_a 5.255125
_cell_length_b 16.770057
_cell_length_c 28.415974
_cell_angle_alpha 90.000000
_cell_angle_beta 90.000000
_cell_angle_gamma 90.000000
_cell_volume 2504.264149
_symmetry_space_group_name_H-M "P N M A"
_symmetry_group_IT_number 62
_symmetry_cell_setting 'orthorhombic'
loop_
_space_group_symop_operation_xyz
x,y,z
1/2-x,-y,1/2+z
1/2+x,1/2-y,1/2-z
-x,1/2+y,-z
-x,-y,-z
1/2+x,y,1/2-z
1/2-x,1/2+y,1/2+z
x,1/2-y,z
loop_
_atom_site_type_symbol
_atom_site_label
_atom_site_fract_x
_atom_site_fract_y
_atom_site_fract_z
Si Si1 0.507726 0.843494 0.467725
Si Si2 0.480203 0.054355 0.125452
Si Si3 0.006098 0.591994 0.517782
Si Si4 0.034586 0.154012 0.279826
Si Si5 0.448160 0.845558 0.279168
Si Si6 0.981368 0.946568 0.126923
O O1 0.506031 0.750000 0.456857
O O2 0.754536 0.866129 0.498048
O O3 0.513065 0.895089 0.420222
O O4 0.255580 0.867616 0.496135
O O5 0.713333 0.992180 0.125673
O O6 0.213032 0.008546 0.129922
O O7 0.485760 0.094737 0.074171
O O8 0.515024 0.112856 0.169559
O O9 0.000000 0.500000 0.500000
O O10 0.793188 0.131521 0.247428
O O11 0.032214 0.250000 0.285309
O O12 0.678726 0.866695 0.244208
O O13 0.454506 0.750000 0.286100
O O14 0.485419 0.889795 0.327998
#
# Coordination Sequence:
#
# PCOD9466539 Si02
#       6
#     8   8   8   8   8   8
#     4  12  25  42  67  96 128 172 217 260 320 390
#     4  12  25  39  69  93 123 167 212 253 330 383
#     4  12  23  45  66  92 135 172 209 273 328 377
#     4  10  23  44  65  90 128 165 207 269 326 379
#     4  10  22  39  58  84 123 165 204 254 307 361
#     4  12  23  40  62  94 124 166 204 264 312 381
#
# _framework density 19.167307999999998
#
# number of rings (size 3 to 8) (size 9 to 14) (size 15 to 20)
#    0.000    0.667    3.333    4.500    0.000    5.333 
#    0.000    6.667    0.000    0.000    0.000    0.000 
#    0.000    0.000    0.000    0.000    0.000    0.000 
#
# Total GULP energy -268666.828032 kJ/mol
# GULP energy per Si atom -5597.225584 kJ/mol
# Density = 1.912368 g / cm^3
# Si number density = 19.167308 Si / 1000 Ang^3
#
#
#
# Elastic Constant Matrix: (Units=GPa)
#
#
# Indices 1 2 3 4 5 6 
#
# 1 79.2824 0.0178 -21.4223 0.0000 0.0000 0.0000
# 2 0.0178 36.9501 -0.5684 0.0000 0.0000 0.0000
# 3 -21.4223 -0.5684 167.6231 0.0000 0.0000 0.0000
# 4 0.0000 0.0000 0.0000 79.0954 0.0000 0.0000
# 5 0.0000 0.0000 0.0000 0.0000 47.0128 0.0000
# 6 0.0000 0.0000 0.0000 0.0000 0.0000 29.1129
#
#
#
# Elastic Compliance Matrix: (Units=1/GPa)
#
#
# Indices 1 2 3 4 5 6 
#
# 1 0.013064 0.000019 0.001670 0.000000 0.000000 0.000000
# 2 0.000019 0.027065 0.000094 0.000000 0.000000 0.000000
# 3 0.001670 0.000094 0.006179 0.000000 0.000000 0.000000
# 4 0.000000 0.000000 0.000000 0.012643 0.000000 0.000000
# 5 0.000000 0.000000 0.000000 0.000000 0.021271 0.000000
# 6 0.000000 0.000000 0.000000 0.000000 0.000000 0.034349
#
#
# Mechanical properties :
#
#
# Convention : Reuss Voigt Hill
#
# Bulk Modulus (GPa) = 20.04998 26.65665 23.35332
# Shear Modulus (GPa) = 39.17577 51.43281 45.30429
#
# Velocity S-wave (km/s) = 4.52584 5.18574 4.86698
# Velocity P-wave (km/s) = 6.14770 7.05644 6.61769
#
# Compressibility (1/GPa) = 0.04987536
#
# Stress axis : x y z
#
# Youngs Moduli (GPa) = 76.54451 36.94817 161.82616
#
# Poissons Ratio (x) = -0.00072 -0.27020
# Poissons Ratio (y) = -0.00148 -0.01525
# Poissons Ratio (z) = -0.12781 -0.00348
#
# Static dielectric constant tensor:
#      x y z
#    x 1.632800 0.000000 0.000000 
#    y 0.000000 1.646920 0.000000 
#    z 0.000000 0.000000 1.627080 
# 
# From -- ./inp_files/30404.got.cif
#   From: 2010.05.17/outbox.cif.g08.bks.cpg/sg62_16_cif.got.tgz:30404.got - 2010.06.03 15:25:27.
