data_PCOD9466291
_publ_section_title
;
Structure prediction by ZEFSAII (Michael W. Deem and Ramdas Pophale) SiO2 
 PCOD9466291
Probable space group: P N M A
;
_chemical_formula_sum "Si O2"
_cell_formula_units_Z 48
_cell_length_a 17.233708
_cell_length_b 14.178198
_cell_length_c 9.437561
_cell_angle_alpha 90.000000
_cell_angle_beta 90.000000
_cell_angle_gamma 90.000000
_cell_volume 2306.001253
_symmetry_space_group_name_H-M "P N M A"
_symmetry_group_IT_number 62
_symmetry_cell_setting 'orthorhombic'
loop_
_space_group_symop_operation_xyz
x,y,z
1/2-x,-y,1/2+z
1/2+x,1/2-y,1/2-z
-x,1/2+y,-z
-x,-y,-z
1/2+x,y,1/2-z
1/2-x,1/2+y,1/2+z
x,1/2-y,z
loop_
_atom_site_type_symbol
_atom_site_label
_atom_site_fract_x
_atom_site_fract_y
_atom_site_fract_z
Si Si1 0.401621 0.422157 0.092704
Si Si2 0.512894 0.578817 0.199746
Si Si3 0.310785 0.250000 0.232749
Si Si4 0.741333 0.750000 0.443417
Si Si5 0.273512 0.750000 0.461687
Si Si6 0.265641 0.461891 0.917928
Si Si7 0.164810 0.552133 0.129746
Si Si8 0.397419 0.750000 0.237598
O O1 0.466033 0.482801 0.171828
O O2 0.363358 0.340270 0.187373
O O3 0.441866 0.390722 0.944729
O O4 0.331975 0.488078 0.032264
O O5 0.576430 0.562587 0.321501
O O6 0.450749 0.658908 0.228351
O O7 0.276578 0.250000 0.389171
O O8 0.236590 0.250000 0.128887
O O9 0.700121 0.844224 0.388777
O O10 0.829032 0.750000 0.381535
O O11 0.234504 0.651990 0.413995
O O12 0.355949 0.750000 0.389515
O O13 0.290958 0.496395 0.763848
O O14 0.185708 0.497458 0.985345
#
# Coordination Sequence:
#
# PCOD9466291 Si02
#       8
#     8   8   4   4   4   8   8   4
#     4   9  20  42  65  95 130 173 212 262 331 391
#     4  10  22  41  67  97 133 173 210 263 339 403
#     4  10  23  41  68  94 130 168 226 281 316 372
#     4  12  25  41  68  95 126 175 235 269 320 390
#     4  10  22  41  63  94 126 167 213 269 321 377
#     4  10  21  40  68  92 126 169 221 267 315 390
#     4  11  23  41  67  98 127 169 222 270 326 390
#     4  12  22  41  71  93 128 176 220 259 325 405
#
# _framework density 20.815253999999999
#
# number of rings (size 3 to 8) (size 9 to 14) (size 15 to 20)
#    0.000    1.667    1.667    2.000    4.667    1.333 
#    0.000    5.833    0.000    0.000    0.000    0.000 
#    0.000    0.000    0.000    0.000    0.000    0.000 
#
# Total GULP energy -267935.585879 kJ/mol
# GULP energy per Si atom -5581.991372 kJ/mol
# Density = 2.076788 g / cm^3
# Si number density = 20.815254 Si / 1000 Ang^3
#
#
#
# Elastic Constant Matrix: (Units=GPa)
#
#
# Indices 1 2 3 4 5 6 
#
# 1 139.4897 39.3018 57.2152 0.0000 0.0000 0.0000
# 2 39.3018 65.9613 28.1329 0.0000 0.0000 0.0000
# 3 57.2152 28.1329 98.0819 0.0000 0.0000 0.0000
# 4 0.0000 0.0000 0.0000 24.9850 0.0000 0.0000
# 5 0.0000 0.0000 0.0000 0.0000 30.0145 0.0000
# 6 0.0000 0.0000 0.0000 0.0000 0.0000 49.7633
#
#
#
# Elastic Compliance Matrix: (Units=1/GPa)
#
#
# Indices 1 2 3 4 5 6 
#
# 1 0.010303 -0.004074 -0.004841 0.000000 0.000000 0.000000
# 2 -0.004074 0.018884 -0.003040 0.000000 0.000000 0.000000
# 3 -0.004841 -0.003040 0.013892 0.000000 0.000000 0.000000
# 4 0.000000 0.000000 0.000000 0.040024 0.000000 0.000000
# 5 0.000000 0.000000 0.000000 0.000000 0.033317 0.000000
# 6 0.000000 0.000000 0.000000 0.000000 0.000000 0.020095
#
#
# Mechanical properties :
#
#
# Convention : Reuss Voigt Hill
#
# Bulk Modulus (GPa) = 52.17050 61.42587 56.79819
# Shear Modulus (GPa) = 29.97326 32.87810 31.42568
#
# Velocity S-wave (km/s) = 3.79881 3.97863 3.88976
# Velocity P-wave (km/s) = 6.66027 7.11899 6.89345
#
# Compressibility (1/GPa) = 0.01916792
#
# Stress axis : x y z
#
# Youngs Moduli (GPa) = 97.06262 52.95392 71.98478
#
# Poissons Ratio (x) = 0.21572 0.34851
# Poissons Ratio (y) = 0.39541 0.21885
# Poissons Ratio (z) = 0.46993 0.16099
#
# Static dielectric constant tensor:
#      x y z
#    x 1.759950 0.000000 0.000000 
#    y 0.000000 1.773770 0.000000 
#    z 0.000000 0.000000 1.798170 
# 
# From -- ./inp_files/6549.got.cif
#   From: 2010.05.17/outbox.cif.g08.bks.cpg/sg62_4_cif.got.tgz:6549.got - 2010.06.03 15:25:27.
