data_PCOD9466936
_publ_section_title
;
Structure prediction by ZEFSAII (Michael W. Deem and Ramdas Pophale) SiO2 
 PCOD9466936
Probable space group: P N M A
;
_chemical_formula_sum "Si O2"
_cell_formula_units_Z 56
_cell_length_a 12.573502
_cell_length_b 13.727927
_cell_length_c 13.502505
_cell_angle_alpha 90.000000
_cell_angle_beta 90.000000
_cell_angle_gamma 90.000000
_cell_volume 2330.641971
_symmetry_space_group_name_H-M "P N M A"
_symmetry_group_IT_number 62
_symmetry_cell_setting 'orthorhombic'
loop_
_space_group_symop_operation_xyz
x,y,z
1/2-x,-y,1/2+z
1/2+x,1/2-y,1/2-z
-x,1/2+y,-z
-x,-y,-z
1/2+x,y,1/2-z
1/2-x,1/2+y,1/2+z
x,1/2-y,z
loop_
_atom_site_type_symbol
_atom_site_label
_atom_site_fract_x
_atom_site_fract_y
_atom_site_fract_z
Si Si1 0.549438 0.538519 0.147583
Si Si2 0.897602 0.362977 0.852937
Si Si3 0.687411 0.366297 0.167499
Si Si4 0.591785 0.868258 0.572244
Si Si5 0.765190 0.632481 0.088452
Si Si6 0.864025 0.867375 0.882300
Si Si7 0.653128 0.363724 0.807439
O O1 0.564361 0.576189 0.260388
O O2 0.584045 0.426891 0.135223
O O3 0.643637 0.596595 0.092602
O O4 0.428657 0.569981 0.131348
O O5 0.928806 0.250000 0.838903
O O6 0.769960 0.366792 0.854400
O O7 0.934401 0.396185 0.959916
O O8 0.673802 0.250000 0.157097
O O9 0.793581 0.399901 0.111200
O O10 0.701624 0.391627 0.284062
O O11 0.599248 0.750000 0.571756
O O12 0.487500 0.894114 0.633895
O O13 0.764020 0.750000 0.088383
O O14 0.826641 0.608200 0.191524
O O15 0.819347 0.597505 0.987027
O O16 0.862513 0.750000 0.888822
O O17 0.618016 0.250000 0.810929
#
# Coordination Sequence:
#
# PCOD9466936 Si02
#       7
#     8   8   8   8   8   8   8
#     4  11  20  32  53  81 114 147 176 219 275 325
#     4   9  18  33  56  85 111 136 173 220 275 342
#     4  10  23  39  52  73 106 146 195 236 260 300
#     4   9  18  37  61  79 104 144 183 223 272 319
#     4   9  18  33  56  87 116 138 172 222 276 339
#     4   9  18  35  58  80 105 141 183 226 269 314
#     4   9  17  31  52  81 114 140 165 212 283 347
#
# _framework density 24.027715000000001
#
# number of rings (size 3 to 8) (size 9 to 14) (size 15 to 20)
#    0.000    2.571    0.000    3.000    0.000    5.714 
#    0.000    4.286    0.000    6.857    0.000    0.000 
#    0.000    0.000    0.000    0.000    0.000    0.000 
#
# Total GULP energy -313169.416813 kJ/mol
# GULP energy per Si atom -5592.311015 kJ/mol
# Density = 2.397303 g / cm^3
# Si number density = 24.027715 Si / 1000 Ang^3
#
#
#
# Elastic Constant Matrix: (Units=GPa)
#
#
# Indices 1 2 3 4 5 6 
#
# 1 42.2779 -15.3126 4.3624 0.0000 0.0000 0.0000
# 2 -15.3126 98.2290 3.8637 0.0000 0.0000 0.0000
# 3 4.3624 3.8637 38.5143 0.0000 0.0000 0.0000
# 4 0.0000 0.0000 0.0000 17.8809 0.0000 0.0000
# 5 0.0000 0.0000 0.0000 0.0000 24.2090 0.0000
# 6 0.0000 0.0000 0.0000 0.0000 0.0000 31.1357
#
#
#
# Elastic Compliance Matrix: (Units=1/GPa)
#
#
# Indices 1 2 3 4 5 6 
#
# 1 0.025479 0.004102 -0.003297 0.000000 0.000000 0.000000
# 2 0.004102 0.010881 -0.001556 0.000000 0.000000 0.000000
# 3 -0.003297 -0.001556 0.026494 0.000000 0.000000 0.000000
# 4 0.000000 0.000000 0.000000 0.055926 0.000000 0.000000
# 5 0.000000 0.000000 0.000000 0.000000 0.041307 0.000000
# 6 0.000000 0.000000 0.000000 0.000000 0.000000 0.032117
#
#
# Mechanical properties :
#
#
# Convention : Reuss Voigt Hill
#
# Bulk Modulus (GPa) = 16.30000 18.31645 17.30822
# Shear Modulus (GPa) = 23.34729 27.05228 25.19978
#
# Velocity S-wave (km/s) = 3.12056 3.35905 3.24200
# Velocity P-wave (km/s) = 4.44775 4.76276 4.60795
#
# Compressibility (1/GPa) = 0.06134970
#
# Stress axis : x y z
#
# Youngs Moduli (GPa) = 39.24836 91.90436 37.74440
#
# Poissons Ratio (x) = -0.37695 0.12446
# Poissons Ratio (y) = -0.16098 0.05873
# Poissons Ratio (z) = 0.12942 0.14301
#
# Static dielectric constant tensor:
#      x y z
#    x 1.886520 0.000000 0.000000 
#    y 0.000000 1.966900 0.000000 
#    z 0.000000 0.000000 1.920970 
# 
# From -- ./inp_files/18082.got.cif
#   From: 2010.05.17/outbox.cif.g08.bks.cpg/sg62_10_cif.got.tgz:18082.got - 2010.06.03 15:25:27.
