data_PCOD9466398
_publ_section_title
;
Structure prediction by ZEFSAII (Michael W. Deem and Ramdas Pophale) SiO2 
 PCOD9466398
Probable space group: P N M A
;
_chemical_formula_sum "Si O2"
_cell_formula_units_Z 64
_cell_length_a 9.574619
_cell_length_b 28.004050
_cell_length_c 11.481178
_cell_angle_alpha 90.000000
_cell_angle_beta 90.000000
_cell_angle_gamma 90.000000
_cell_volume 3078.426549
_symmetry_space_group_name_H-M "P N M A"
_symmetry_group_IT_number 62
_symmetry_cell_setting 'orthorhombic'
loop_
_space_group_symop_operation_xyz
x,y,z
1/2-x,-y,1/2+z
1/2+x,1/2-y,1/2-z
-x,1/2+y,-z
-x,-y,-z
1/2+x,y,1/2-z
1/2-x,1/2+y,1/2+z
x,1/2-y,z
loop_
_atom_site_type_symbol
_atom_site_label
_atom_site_fract_x
_atom_site_fract_y
_atom_site_fract_z
Si Si1 0.422856 0.340565 0.834198
Si Si2 0.666512 0.350085 0.529503
Si Si3 0.807457 0.039794 0.895032
Si Si4 0.729500 0.302097 0.853039
Si Si5 0.657108 0.910449 0.638757
Si Si6 0.838836 0.564519 0.855919
Si Si7 0.065614 0.078551 0.765955
Si Si8 0.602121 0.803975 0.582548
O O1 0.311530 0.326610 0.931886
O O2 0.566417 0.311655 0.837732
O O3 0.334323 0.336288 0.715335
O O4 0.476198 0.394917 0.834772
O O5 0.696706 0.388981 0.431136
O O6 0.614509 0.380801 0.641640
O O7 0.544065 0.315447 0.484608
O O8 0.693959 0.053946 0.797928
O O9 0.960379 0.046048 0.838321
O O10 0.793113 0.983746 0.921192
O O11 0.799146 0.074132 0.007582
O O12 0.761593 0.250000 0.803072
O O13 0.775777 0.302879 0.986142
O O14 0.505493 0.933576 0.657481
O O15 0.764622 0.930660 0.731970
O O16 0.635295 0.852902 0.652008
O O17 0.595023 0.750000 0.634535
#
# Coordination Sequence:
#
# PCOD9466398 Si02
#       8
#     8   8   8   8   8   8   8   8
#     4  12  20  35  56  88 127 169 203 260 331 389
#     4  11  23  40  63  90 130 170 223 272 326 394
#     4  12  24  41  68  96 136 174 218 271 344 408
#     4  11  21  33  55  90 124 161 209 263 329 395
#     4  11  24  46  65  96 136 176 227 283 334 398
#     4  11  26  43  67  93 131 176 225 277 337 399
#     4  12  21  38  64  94 126 174 213 261 339 400
#     4  10  21  42  67  90 123 173 223 278 339 388
#
# _framework density 20.789842
#
# number of rings (size 3 to 8) (size 9 to 14) (size 15 to 20)
#    0.000    0.750    6.250    2.250    1.750    4.000 
#    0.000    4.375    0.000    0.000    0.000    0.000 
#    0.000    0.000    0.000    0.000    0.000    0.000 
#
# Total GULP energy -357243.700757 kJ/mol
# GULP energy per Si atom -5581.932824 kJ/mol
# Density = 2.074252 g / cm^3
# Si number density = 20.789842 Si / 1000 Ang^3
#
#
#
# Elastic Constant Matrix: (Units=GPa)
#
#
# Indices 1 2 3 4 5 6 
#
# 1 88.3735 -0.2650 17.7785 0.0000 0.0000 0.0000
# 2 -0.2650 81.5997 2.3247 0.0000 0.0000 0.0000
# 3 17.7785 2.3247 48.8602 0.0000 0.0000 0.0000
# 4 0.0000 0.0000 0.0000 14.6407 0.0000 0.0000
# 5 0.0000 0.0000 0.0000 0.0000 22.9202 0.0000
# 6 0.0000 0.0000 0.0000 0.0000 0.0000 23.9479
#
#
#
# Elastic Compliance Matrix: (Units=1/GPa)
#
#
# Indices 1 2 3 4 5 6 
#
# 1 0.012212 0.000166 -0.004451 0.000000 0.000000 0.000000
# 2 0.000166 0.012274 -0.000645 0.000000 0.000000 0.000000
# 3 -0.004451 -0.000645 0.022117 0.000000 0.000000 0.000000
# 4 0.000000 0.000000 0.000000 0.068303 0.000000 0.000000
# 5 0.000000 0.000000 0.000000 0.000000 0.043630 0.000000
# 6 0.000000 0.000000 0.000000 0.000000 0.000000 0.041757
#
#
# Mechanical properties :
#
#
# Convention : Reuss Voigt Hill
#
# Bulk Modulus (GPa) = 27.21563 28.72333 27.96948
# Shear Modulus (GPa) = 22.48214 25.56810 24.02512
#
# Velocity S-wave (km/s) = 3.29203 3.51071 3.40313
# Velocity P-wave (km/s) = 5.25064 5.50268 5.37813
#
# Compressibility (1/GPa) = 0.03674359
#
# Stress axis : x y z
#
# Youngs Moduli (GPa) = 81.88944 81.47403 45.21433
#
# Poissons Ratio (x) = -0.01356 0.20126
# Poissons Ratio (y) = -0.01363 0.02914
# Poissons Ratio (z) = 0.36451 0.05251
#
# Static dielectric constant tensor:
#      x y z
#    x 1.750400 0.000000 0.000000 
#    y 0.000000 1.822940 0.000000 
#    z 0.000000 0.000000 1.749160 
# 
# From -- ./inp_files/11564.got.cif
#   From: 2010.05.17/outbox.cif.g08.bks.cpg/sg62_6_cif.got.tgz:11564.got - 2010.06.03 15:25:27.
