data_PCOD9466031
_publ_section_title
;
Structure prediction by ZEFSAII (Michael W. Deem and Ramdas Pophale) SiO2 
 PCOD9466031
Probable space group: P N M A
;
_chemical_formula_sum "Si O2"
_cell_formula_units_Z 48
_cell_length_a 15.489023
_cell_length_b 8.666767
_cell_length_c 19.475532
_cell_angle_alpha 90.000000
_cell_angle_beta 90.000000
_cell_angle_gamma 90.000000
_cell_volume 2614.390613
_symmetry_space_group_name_H-M "P N M A"
_symmetry_group_IT_number 62
_symmetry_cell_setting 'orthorhombic'
loop_
_space_group_symop_operation_xyz
x,y,z
1/2-x,-y,1/2+z
1/2+x,1/2-y,1/2-z
-x,1/2+y,-z
-x,-y,-z
1/2+x,y,1/2-z
1/2-x,1/2+y,1/2+z
x,1/2-y,z
loop_
_atom_site_type_symbol
_atom_site_label
_atom_site_fract_x
_atom_site_fract_y
_atom_site_fract_z
Si Si1 0.997356 0.064245 0.327747
Si Si2 0.845547 0.934896 0.418413
Si Si3 0.845087 0.936838 0.576027
Si Si4 0.853634 0.064624 0.927599
Si Si5 0.001997 0.935630 0.830510
Si Si6 0.154832 0.065864 0.920967
O O1 0.998038 0.250000 0.328264
O O2 0.002055 0.013738 0.248813
O O3 0.080077 0.012969 0.372235
O O4 0.910968 0.008956 0.365255
O O5 0.852364 0.750000 0.413433
O O6 0.867438 0.978925 0.497205
O O7 0.745045 0.976423 0.407801
O O8 0.836771 0.750000 0.578292
O O9 0.752290 0.008946 0.592451
O O10 0.859453 0.250000 0.932053
O O11 0.921810 0.000860 0.873629
O O12 0.869775 0.995468 0.003153
O O13 0.000529 0.750000 0.833081
O O14 0.088672 0.996238 0.866372
O O15 0.150582 0.250000 0.920209
#
# Coordination Sequence:
#
# PCOD9466031 Si02
#       6
#     8   8   8   8   8   8
#     4  10  22  37  56  81 113 150 186 223 270 325
#     4   9  19  35  58  84 112 142 178 227 278 322
#     4   9  19  38  59  83 112 143 182 230 274 319
#     4  10  21  39  60  83 110 143 182 230 277 323
#     4  11  23  38  55  80 113 150 185 224 273 327
#     4  11  22  37  59  85 109 142 184 228 275 328
#
# _framework density 18.359919000000001
#
# number of rings (size 3 to 8) (size 9 to 14) (size 15 to 20)
#    0.000    2.000    0.000    4.500    0.000    6.667 
#    0.000    5.000    0.000    0.000    0.000    0.000 
#    0.000    0.000    0.000    0.000    0.000    0.000 
#
# Total GULP energy -268158.290532 kJ/mol
# GULP energy per Si atom -5586.631053 kJ/mol
# Density = 1.831813 g / cm^3
# Si number density = 18.359919 Si / 1000 Ang^3
#
#
#
# Elastic Constant Matrix: (Units=GPa)
#
#
# Indices 1 2 3 4 5 6 
#
# 1 48.6295 5.0336 39.2106 0.0000 0.0000 0.0000
# 2 5.0336 36.8785 9.9262 0.0000 0.0000 0.0000
# 3 39.2106 9.9262 77.9274 0.0000 0.0000 0.0000
# 4 0.0000 0.0000 0.0000 -17.4291 0.0000 0.0000
# 5 0.0000 0.0000 0.0000 0.0000 -95.7125 0.0000
# 6 0.0000 0.0000 0.0000 0.0000 0.0000 35.3960
#
#
#
# Elastic Compliance Matrix: (Units=1/GPa)
#
#
# Indices 1 2 3 4 5 6 
#
# 1 0.034602 -0.000038 -0.017406 0.000000 0.000000 0.000000
# 2 -0.000038 0.028079 -0.003558 0.000000 0.000000 0.000000
# 3 -0.017406 -0.003558 0.022044 0.000000 0.000000 0.000000
# 4 0.000000 0.000000 0.000000 -0.057375 0.000000 0.000000
# 5 0.000000 0.000000 0.000000 0.000000 -0.010448 0.000000
# 6 0.000000 0.000000 0.000000 0.000000 0.000000 0.028252
#
#
# Mechanical properties :
#
#
# Convention : Reuss Voigt Hill
#
# Bulk Modulus (GPa) = 23.40715 30.19734 26.80224
# Shear Modulus (GPa) = 49.31141 -8.26479 20.52331
#
# Velocity S-wave (km/s) = 5.18811 -2.12399 3.34703
# Velocity P-wave (km/s) = 6.97606 3.23544 5.43753
#
# Compressibility (1/GPa) = 0.04272199
#
# Stress axis : x y z
#
# Youngs Moduli (GPa) = 28.89996 35.61410 45.36445
#
# Poissons Ratio (x) = 0.00135 0.78961
# Poissons Ratio (y) = 0.00110 0.16139
# Poissons Ratio (z) = 0.50303 0.12670
#
# Static dielectric constant tensor:
#      x y z
#    x 1.610480 0.000000 0.000000 
#    y 0.000000 1.619990 0.000000 
#    z 0.000000 0.000000 1.611210 
# 
# From -- ./inp_files/23726.got.cif
#   From: 2010.05.17/outbox.cif.g08.bks.cpg/sg62_12_cif.got.tgz:23726.got - 2010.06.03 15:25:27.
