data_PCOD9466071
_publ_section_title
;
Structure prediction by ZEFSAII (Michael W. Deem and Ramdas Pophale) SiO2 
 PCOD9466071
Probable space group: P N M A
;
_chemical_formula_sum "Si O2"
_cell_formula_units_Z 56
_cell_length_a 22.626845
_cell_length_b 22.460181
_cell_length_c 5.485255
_cell_angle_alpha 90.000000
_cell_angle_beta 90.000000
_cell_angle_gamma 90.000000
_cell_volume 2787.623234
_symmetry_space_group_name_H-M "P N M A"
_symmetry_group_IT_number 62
_symmetry_cell_setting 'orthorhombic'
loop_
_space_group_symop_operation_xyz
x,y,z
1/2-x,-y,1/2+z
1/2+x,1/2-y,1/2-z
-x,1/2+y,-z
-x,-y,-z
1/2+x,y,1/2-z
1/2-x,1/2+y,1/2+z
x,1/2-y,z
loop_
_atom_site_type_symbol
_atom_site_label
_atom_site_fract_x
_atom_site_fract_y
_atom_site_fract_z
Si Si1 0.795186 0.061981 0.355761
Si Si2 0.071239 0.380401 0.772042
Si Si3 0.100374 0.622861 0.860519
Si Si4 0.482953 0.566356 0.779176
Si Si5 0.452238 0.250000 0.252532
Si Si6 0.681042 0.449386 0.585395
Si Si7 0.896606 0.462098 0.749118
Si Si8 0.471296 0.750000 0.250038
O O1 0.831383 0.106654 0.183964
O O2 0.731736 0.084823 0.439155
O O3 0.846141 0.048490 0.551976
O O4 0.783061 0.996765 0.245749
O O5 0.041487 0.403458 0.523329
O O6 0.137500 0.406066 0.773365
O O7 0.066634 0.309778 0.759192
O O8 0.041564 0.402902 0.028109
O O9 0.084539 0.688740 0.776959
O O10 0.053269 0.577692 0.730856
O O11 0.089679 0.602832 0.139287
O O12 0.456980 0.499413 0.787396
O O13 0.491433 0.250000 0.498688
O O14 0.488789 0.250000 0.998012
O O15 0.637680 0.492975 0.434372
#
# Coordination Sequence:
#
# PCOD9466071 Si02
#       8
#     8   8   8   8   4   8   8   4
#     4  11  21  38  63  91 130 171 214 262 333 391
#     4  11  22  39  67  94 124 169 217 271 314 381
#     4  11  25  39  61  97 128 176 216 265 325 400
#     4  11  22  40  61  98 136 161 205 273 336 384
#     4  12  26  44  67  89 138 174 220 260 318 410
#     4  10  21  39  61  93 127 167 219 264 323 389
#     4  10  22  37  62  94 130 168 209 272 330 392
#     4  12  22  44  67  91 124 178 220 264 324 380
#
# _framework density 20.088798000000001
#
# number of rings (size 3 to 8) (size 9 to 14) (size 15 to 20)
#    0.000    1.143    5.714    0.429    4.000    0.571 
#    0.000    0.714    0.000    0.000    0.000    0.000 
#    0.000    0.000    0.000    0.000    0.000    0.000 
#
# Total GULP energy -312328.085188 kJ/mol
# GULP energy per Si atom -5577.287235 kJ/mol
# Density = 2.004308 g / cm^3
# Si number density = 20.088798 Si / 1000 Ang^3
#
#
#
# Elastic Constant Matrix: (Units=GPa)
#
#
# Indices 1 2 3 4 5 6 
#
# 1 93.7801 -4.6066 10.2057 0.0000 0.0000 0.0000
# 2 -4.6066 62.2509 8.0262 0.0000 0.0000 0.0000
# 3 10.2057 8.0262 79.8132 0.0000 0.0000 0.0000
# 4 0.0000 0.0000 0.0000 18.8869 0.0000 0.0000
# 5 0.0000 0.0000 0.0000 0.0000 31.6780 0.0000
# 6 0.0000 0.0000 0.0000 0.0000 0.0000 10.6921
#
#
#
# Elastic Compliance Matrix: (Units=1/GPa)
#
#
# Indices 1 2 3 4 5 6 
#
# 1 0.010874 0.000997 -0.001491 0.000000 0.000000 0.000000
# 2 0.000997 0.016366 -0.001773 0.000000 0.000000 0.000000
# 3 -0.001491 -0.001773 0.012898 0.000000 0.000000 0.000000
# 4 0.000000 0.000000 0.000000 0.052947 0.000000 0.000000
# 5 0.000000 0.000000 0.000000 0.000000 0.031568 0.000000
# 6 0.000000 0.000000 0.000000 0.000000 0.000000 0.093527
#
#
# Mechanical properties :
#
#
# Convention : Reuss Voigt Hill
#
# Bulk Modulus (GPa) = 28.08615 29.23278 28.65946
# Shear Modulus (GPa) = 21.31445 27.06600 24.19022
#
# Velocity S-wave (km/s) = 3.26085 3.67457 3.47387
# Velocity P-wave (km/s) = 5.30932 5.70847 5.51251
#
# Compressibility (1/GPa) = 0.03560474
#
# Stress axis : x y z
#
# Youngs Moduli (GPa) = 91.95870 61.10068 77.53013
#
# Poissons Ratio (x) = -0.06091 0.11558
# Poissons Ratio (y) = -0.09168 0.13749
# Poissons Ratio (z) = 0.13709 0.10835
#
# Static dielectric constant tensor:
#      x y z
#    x 1.722140 0.000000 0.000000 
#    y 0.000000 1.699860 0.000000 
#    z 0.000000 0.000000 1.862420 
# 
# From -- ./inp_files/2324.got.cif
#   From: 2010.05.17/outbox.cif.g08.bks.cpg/sg62_2_cif.got.tgz:2324.got - 2010.06.03 15:25:27.
