data_PCOD9466047
_publ_section_title
;
Structure prediction by ZEFSAII (Michael W. Deem and Ramdas Pophale) SiO2 
 PCOD9466047
Probable space group: P N M A
;
_chemical_formula_sum "Si O2"
_cell_formula_units_Z 40
_cell_length_a 23.652586
_cell_length_b 8.470967
_cell_length_c 10.569299
_cell_angle_alpha 90.000000
_cell_angle_beta 90.000000
_cell_angle_gamma 90.000000
_cell_volume 2117.667659
_symmetry_space_group_name_H-M "P N M A"
_symmetry_group_IT_number 62
_symmetry_cell_setting 'orthorhombic'
loop_
_space_group_symop_operation_xyz
x,y,z
1/2-x,-y,1/2+z
1/2+x,1/2-y,1/2-z
-x,1/2+y,-z
-x,-y,-z
1/2+x,y,1/2-z
1/2-x,1/2+y,1/2+z
x,1/2-y,z
loop_
_atom_site_type_symbol
_atom_site_label
_atom_site_fract_x
_atom_site_fract_y
_atom_site_fract_z
Si Si1 0.620311 0.439441 0.734832
Si Si2 0.692441 0.939475 0.497625
Si Si3 0.823110 0.942552 0.496820
Si Si4 0.121472 0.058970 0.240645
Si Si5 0.499136 0.060562 0.355923
O O1 0.620198 0.250000 0.732974
O O2 0.659007 0.498472 0.619530
O O3 0.556870 0.498583 0.712038
O O4 0.646126 0.494098 0.868401
O O5 0.691321 0.750000 0.499569
O O6 0.757693 0.992667 0.499111
O O7 0.661123 0.998199 0.371856
O O8 0.823353 0.750000 0.496600
O O9 0.855288 0.994278 0.623553
O O10 0.122819 0.250000 0.238233
O O11 0.057144 0.009513 0.212007
O O12 0.497637 0.250000 0.358414
O O13 0.500000 0.000000 0.500000
#
# Coordination Sequence:
#
# PCOD9466047 Si02
#       5
#     8   8   8   8   8
#     4  11  22  38  60  85 117 154 190 236 291 342
#     4  11  21  36  60  87 116 150 194 239 280 341
#     4   9  21  39  58  85 118 151 189 237 291 342
#     4  10  21  39  61  83 113 153 192 235 288 342
#     4  11  22  37  60  86 114 149 196 241 285 342
#
# _framework density 18.888705000000002
#
# number of rings (size 3 to 8) (size 9 to 14) (size 15 to 20)
#    0.000    1.600    2.000    3.000    0.000    1.600 
#    0.000    6.000    0.000    0.000    0.000    0.000 
#    0.000    0.000    0.000    0.000    0.000    0.000 
#
# Total GULP energy -223562.383671 kJ/mol
# GULP energy per Si atom -5589.059592 kJ/mol
# Density = 1.884571 g / cm^3
# Si number density = 18.888705 Si / 1000 Ang^3
#
#
#
# Elastic Constant Matrix: (Units=GPa)
#
#
# Indices 1 2 3 4 5 6 
#
# 1 224.7776 33.9240 130.6455 0.0000 0.0000 0.0000
# 2 33.9240 27.3342 27.8257 0.0000 0.0000 0.0000
# 3 130.6455 27.8257 205.4695 0.0000 0.0000 0.0000
# 4 0.0000 0.0000 0.0000 -3.1571 0.0000 0.0000
# 5 0.0000 0.0000 0.0000 0.0000 -10.0625 0.0000
# 6 0.0000 0.0000 0.0000 0.0000 0.0000 28.9527
#
#
#
# Elastic Compliance Matrix: (Units=1/GPa)
#
#
# Indices 1 2 3 4 5 6 
#
# 1 0.007661 -0.005277 -0.004157 0.000000 0.000000 0.000000
# 2 -0.005277 0.046069 -0.002884 0.000000 0.000000 0.000000
# 3 -0.004157 -0.002884 0.007900 0.000000 0.000000 0.000000
# 4 0.000000 0.000000 0.000000 -0.316743 0.000000 0.000000
# 5 0.000000 0.000000 0.000000 0.000000 -0.099379 0.000000
# 6 0.000000 0.000000 0.000000 0.000000 0.000000 0.034539
#
#
# Mechanical properties :
#
#
# Convention : Reuss Voigt Hill
#
# Bulk Modulus (GPa) = 27.02993 93.59687 60.31340
# Shear Modulus (GPa) = -17.66869 20.82568 1.57850
#
# Velocity S-wave (km/s) = -3.06177 3.32406 0.91515
# Velocity P-wave (km/s) = 1.35719 8.02445 5.75473
#
# Compressibility (1/GPa) = 0.03699602
#
# Stress axis : x y z
#
# Youngs Moduli (GPa) = 130.52847 21.70673 126.57597
#
# Poissons Ratio (x) = 0.11454 0.52613
# Poissons Ratio (y) = 0.68877 0.36500
# Poissons Ratio (z) = 0.54256 0.06260
#
# Static dielectric constant tensor:
#      x y z
#    x 1.634310 0.000000 0.000000 
#    y 0.000000 1.652660 0.000000 
#    z 0.000000 0.000000 1.619100 
# 
# From -- ./inp_files/9086.got.cif
#   From: 2010.05.17/outbox.cif.g08.bks.cpg/sg62_5_cif.got.tgz:9086.got - 2010.06.03 15:25:27.
