data_PCOD9466376
_publ_section_title
;
Structure prediction by ZEFSAII (Michael W. Deem and Ramdas Pophale) SiO2 
 PCOD9466376
Probable space group: P N M A
;
_chemical_formula_sum "Si O2"
_cell_formula_units_Z 40
_cell_length_a 13.388406
_cell_length_b 16.063909
_cell_length_c 9.019137
_cell_angle_alpha 90.000000
_cell_angle_beta 90.000000
_cell_angle_gamma 90.000000
_cell_volume 1939.747018
_symmetry_space_group_name_H-M "P N M A"
_symmetry_group_IT_number 62
_symmetry_cell_setting 'orthorhombic'
loop_
_space_group_symop_operation_xyz
x,y,z
1/2-x,-y,1/2+z
1/2+x,1/2-y,1/2-z
-x,1/2+y,-z
-x,-y,-z
1/2+x,y,1/2-z
1/2-x,1/2+y,1/2+z
x,1/2-y,z
loop_
_atom_site_type_symbol
_atom_site_label
_atom_site_fract_x
_atom_site_fract_y
_atom_site_fract_z
Si Si1 0.447682 0.250000 0.486005
Si Si2 0.981134 0.570258 0.879103
Si Si3 0.559925 0.922574 0.939656
Si Si4 0.273330 0.880864 0.553268
Si Si5 0.624551 0.250000 0.670823
Si Si6 0.247327 0.750000 0.805073
Si Si7 0.441206 0.750000 0.999062
O O1 0.492460 0.334814 0.421115
O O2 0.503343 0.250000 0.644307
O O3 0.332270 0.250000 0.438720
O O4 0.047612 0.559928 0.734839
O O5 0.861307 0.567731 0.869267
O O6 0.000000 0.500000 0.000000
O O7 0.673279 0.925872 0.997330
O O8 0.508671 0.833542 0.981548
O O9 0.500000 0.000000 0.000000
O O10 0.322479 0.827305 0.417392
O O11 0.233791 0.824900 0.689721
O O12 0.624174 0.250000 0.848509
O O13 0.359299 0.750000 0.867783
#
# Coordination Sequence:
#
# PCOD9466376 Si02
#       7
#     4   8   8   8   4   4   4
#     4  10  21  41  73  97 131 186 237 277 347 415
#     4  11  24  44  71 101 139 185 238 284 347 431
#     4  12  27  44  70 106 143 182 231 298 352 420
#     4  10  22  44  71  98 138 183 234 287 352 409
#     4   9  23  41  69 104 137 185 228 293 348 409
#     4  11  19  40  79  98 124 193 245 268 343 429
#     4  12  25  46  67 103 148 184 238 288 352 419
#
# _framework density 20.621247
#
# number of rings (size 3 to 8) (size 9 to 14) (size 15 to 20)
#    0.000    1.200    4.000    2.400    5.600    4.800 
#    0.000    0.000    0.000    0.000    0.000    0.000 
#    0.000    0.000    0.000    0.000    0.000    0.000 
#
# Total GULP energy -222682.452654 kJ/mol
# GULP energy per Si atom -5567.061316 kJ/mol
# Density = 2.057431 g / cm^3
# Si number density = 20.621247 Si / 1000 Ang^3
#
#
#
# Elastic Constant Matrix: (Units=GPa)
#
#
# Indices 1 2 3 4 5 6 
#
# 1 126.0702 19.4369 -10.2705 0.0000 0.0000 0.0000
# 2 19.4369 72.8795 10.6726 0.0000 0.0000 0.0000
# 3 -10.2705 10.6726 75.9280 0.0000 0.0000 0.0000
# 4 0.0000 0.0000 0.0000 9.4688 0.0000 0.0000
# 5 0.0000 0.0000 0.0000 0.0000 25.2713 0.0000
# 6 0.0000 0.0000 0.0000 0.0000 0.0000 -228.8017
#
#
#
# Elastic Compliance Matrix: (Units=1/GPa)
#
#
# Indices 1 2 3 4 5 6 
#
# 1 0.008434 -0.002467 0.001488 0.000000 0.000000 0.000000
# 2 -0.002467 0.014731 -0.002404 0.000000 0.000000 0.000000
# 3 0.001488 -0.002404 0.013710 0.000000 0.000000 0.000000
# 4 0.000000 0.000000 0.000000 0.105609 0.000000 0.000000
# 5 0.000000 0.000000 0.000000 0.000000 0.039571 0.000000
# 6 0.000000 0.000000 0.000000 0.000000 0.000000 -0.004371
#
#
# Mechanical properties :
#
#
# Convention : Reuss Voigt Hill
#
# Bulk Modulus (GPa) = 33.21515 34.95063 34.08289
# Shear Modulus (GPa) = 25.70861 -21.80972 1.94944
#
# Velocity S-wave (km/s) = 3.53470 -3.25566 0.97335
# Velocity P-wave (km/s) = 5.72722 1.68915 4.22222
#
# Compressibility (1/GPa) = 0.03010675
#
# Stress axis : x y z
#
# Youngs Moduli (GPa) = 118.57275 67.88243 72.94185
#
# Poissons Ratio (x) = 0.16747 -0.10851
# Poissons Ratio (y) = 0.29253 0.17538
# Poissons Ratio (z) = -0.17639 0.16321
#
# Static dielectric constant tensor:
#      x y z
#    x 1.826180 0.000000 0.000000 
#    y 0.000000 1.781160 0.000000 
#    z 0.000000 0.000000 1.780270 
# 
# From -- ./inp_files/5101.got.cif
#   From: 2010.05.17/outbox.cif.g08.bks.cpg/sg62_3_cif.got.tgz:5101.got - 2010.06.03 15:25:27.
