data_PCOD9466911
_publ_section_title
;
Structure prediction by ZEFSAII (Michael W. Deem and Ramdas Pophale) SiO2 
 PCOD9466911
Probable space group: P N M A
;
_chemical_formula_sum "Si O2"
_cell_formula_units_Z 40
_cell_length_a 13.412788
_cell_length_b 22.223609
_cell_length_c 4.863822
_cell_angle_alpha 90.000000
_cell_angle_beta 90.000000
_cell_angle_gamma 90.000000
_cell_volume 1449.810767
_symmetry_space_group_name_H-M "P N M A"
_symmetry_group_IT_number 62
_symmetry_cell_setting 'orthorhombic'
loop_
_space_group_symop_operation_xyz
x,y,z
1/2-x,-y,1/2+z
1/2+x,1/2-y,1/2-z
-x,1/2+y,-z
-x,-y,-z
1/2+x,y,1/2-z
1/2-x,1/2+y,1/2+z
x,1/2-y,z
loop_
_atom_site_type_symbol
_atom_site_label
_atom_site_fract_x
_atom_site_fract_y
_atom_site_fract_z
Si Si1 0.470227 0.652194 0.929820
Si Si2 0.706025 0.359615 0.817080
Si Si3 0.900521 0.420472 0.852481
Si Si4 0.443343 0.250000 0.462351
Si Si5 0.188301 0.750000 0.473928
Si Si6 0.386461 0.943396 0.624449
O O1 0.393259 0.682992 0.132777
O O2 0.553192 0.615151 0.093452
O O3 0.503436 0.691978 0.675254
O O4 0.377814 0.604388 0.868611
O O5 0.808608 0.383131 0.970340
O O6 0.758618 0.311075 0.605566
O O7 0.675453 0.417260 0.624154
O O8 0.868170 0.488936 0.787936
O O9 0.995904 0.432820 0.050519
O O10 0.414024 0.250000 0.782678
O O11 0.338289 0.250000 0.295136
#
# Coordination Sequence:
#
# PCOD9466911 Si02
#       6
#     8   8   8   4   4   8
#     4  11  24  43  69 102 140 198 243 318 365 466
#     4  11  25  42  71 106 145 188 257 308 382 453
#     4  10  22  45  64 103 143 190 244 306 386 448
#     4  12  27  47  78 101 150 200 250 312 389 448
#     4  12  27  49  74 109 144 200 244 316 381 456
#     4  10  24  41  70  98 146 189 243 309 375 461
#
# _framework density 27.589805999999999
#
# number of rings (size 3 to 8) (size 9 to 14) (size 15 to 20)
#    0.000    1.200    2.000    2.400    8.400    2.400 
#    0.000    0.000    0.000    0.000    0.000    0.000 
#    0.000    0.000    0.000    0.000    0.000    0.000 
#
# Total GULP energy -223281.238801 kJ/mol
# GULP energy per Si atom -5582.030970 kJ/mol
# Density = 2.752701 g / cm^3
# Si number density = 27.589806 Si / 1000 Ang^3
#
#
#
# Elastic Constant Matrix: (Units=GPa)
#
#
# Indices 1 2 3 4 5 6 
#
# 1 155.4895 30.4657 21.5313 0.0000 0.0000 0.0000
# 2 30.4657 166.7796 3.6244 0.0000 0.0000 0.0000
# 3 21.5313 3.6244 77.3458 0.0000 0.0000 0.0000
# 4 0.0000 0.0000 0.0000 -72.0827 0.0000 0.0000
# 5 0.0000 0.0000 0.0000 0.0000 -754.4401 0.0000
# 6 0.0000 0.0000 0.0000 0.0000 0.0000 -9.5032
#
#
#
# Elastic Compliance Matrix: (Units=1/GPa)
#
#
# Indices 1 2 3 4 5 6 
#
# 1 0.006931 -0.001225 -0.001872 0.000000 0.000000 0.000000
# 2 -0.001225 0.006219 0.000050 0.000000 0.000000 0.000000
# 3 -0.001872 0.000050 0.013448 0.000000 0.000000 0.000000
# 4 0.000000 0.000000 0.000000 -0.013873 0.000000 0.000000
# 5 0.000000 0.000000 0.000000 0.000000 -0.001325 0.000000
# 6 0.000000 0.000000 0.000000 0.000000 0.000000 -0.105227
#
#
# Mechanical properties :
#
#
# Convention : Reuss Voigt Hill
#
# Bulk Modulus (GPa) = 48.77591 56.76197 52.76894
# Shear Modulus (GPa) = -61.80484 -144.27232 -103.03858
#
# Velocity S-wave (km/s) = -4.73814 -7.23916 -6.11782
# Velocity P-wave (km/s) = 3.49513 7.01824 5.54399
#
# Compressibility (1/GPa) = 0.02050192
#
# Stress axis : x y z
#
# Youngs Moduli (GPa) = 144.28768 160.80554 74.36209
#
# Poissons Ratio (x) = 0.19704 0.13920
# Poissons Ratio (y) = 0.17680 -0.00370
# Poissons Ratio (z) = 0.27009 -0.00799
#
# Static dielectric constant tensor:
#      x y z
#    x 2.402630 0.000000 0.000000 
#    y 0.000000 3.379730 0.000000 
#    z 0.000000 0.000000 5.615740 
# 
# From -- ./inp_files/1059.got.cif
#   From: 2010.05.17/outbox.cif.g08.bks.cpg/sg62_1_cif.got.tgz:1059.got - 2010.06.03 15:25:27.
