data_PCOD9466091
_publ_section_title
;
Structure prediction by ZEFSAII (Michael W. Deem and Ramdas Pophale) SiO2 
 PCOD9466091
Probable space group: P N M A
;
_chemical_formula_sum "Si O2"
_cell_formula_units_Z 64
_cell_length_a 14.969122
_cell_length_b 9.206971
_cell_length_c 24.005216
_cell_angle_alpha 90.000000
_cell_angle_beta 90.000000
_cell_angle_gamma 90.000000
_cell_volume 3308.405402
_symmetry_space_group_name_H-M "P N M A"
_symmetry_group_IT_number 62
_symmetry_cell_setting 'orthorhombic'
loop_
_space_group_symop_operation_xyz
x,y,z
1/2-x,-y,1/2+z
1/2+x,1/2-y,1/2-z
-x,1/2+y,-z
-x,-y,-z
1/2+x,y,1/2-z
1/2-x,1/2+y,1/2+z
x,1/2-y,z
loop_
_atom_site_type_symbol
_atom_site_label
_atom_site_fract_x
_atom_site_fract_y
_atom_site_fract_z
Si Si1 0.934594 0.578768 0.243361
Si Si2 0.275789 0.076925 0.752071
Si Si3 0.268989 0.079315 0.020398
Si Si4 0.806995 0.920834 0.864240
Si Si5 0.511676 0.919156 0.636019
Si Si6 0.570539 0.923921 0.159719
Si Si7 0.427396 0.924052 0.960031
Si Si8 0.575088 0.418272 0.535284
O O1 0.948458 0.750000 0.230886
O O2 0.829218 0.547773 0.238554
O O3 0.982880 0.480859 0.197878
O O4 0.981451 0.553143 0.302921
O O5 0.286794 0.250000 0.746777
O O6 0.344314 0.032973 0.801276
O O7 0.297358 0.005409 0.692983
O O8 0.297596 0.250000 0.017962
O O9 0.257608 0.035762 0.085170
O O10 0.171186 0.072009 0.993149
O O11 0.334241 0.976103 0.986741
O O12 0.792463 0.750000 0.853739
O O13 0.909497 0.936383 0.883914
O O14 0.534280 0.750000 0.634138
O O15 0.575180 0.010444 0.596048
O O16 0.577963 0.750000 0.148244
O O17 0.566742 0.011831 0.102443
O O18 0.436913 0.750000 0.959951
O O19 0.500000 0.000000 0.000000
O O20 0.500000 0.500000 0.500000
O O21 0.550223 0.250000 0.539492
#
# Coordination Sequence:
#
# PCOD9466091 Si02
#       8
#     8   8   8   8   8   8   8   8
#     4  10  22  40  63  92 122 162 207 252 316 380
#     4  10  22  39  63  94 125 162 207 255 315 382
#     4  10  23  44  65  91 128 171 214 264 320 374
#     4  10  21  39  62  90 126 162 205 260 317 375
#     4  11  22  38  59  90 128 165 207 253 310 376
#     4  10  22  43  66  93 133 169 209 266 320 377
#     4  12  28  48  70  95 126 169 223 276 329 385
#     4  11  22  38  61  90 129 170 209 255 312 377
#
# _framework density 19.344667000000001
#
# number of rings (size 3 to 8) (size 9 to 14) (size 15 to 20)
#    0.000    1.500    2.500    1.875    3.500    3.500 
#    0.000    0.000    0.000    0.000    0.000    0.000 
#    0.000    0.000    0.000    0.000    0.000    0.000 
#
# Total GULP energy -357482.876798 kJ/mol
# GULP energy per Si atom -5585.669950 kJ/mol
# Density = 1.930064 g / cm^3
# Si number density = 19.344667 Si / 1000 Ang^3
#
#
#
# Elastic Constant Matrix: (Units=GPa)
#
#
# Indices 1 2 3 4 5 6 
#
# 1 66.1407 49.9513 39.1356 0.0000 0.0000 0.0000
# 2 49.9513 86.3424 72.8969 0.0000 0.0000 0.0000
# 3 39.1356 72.8969 143.9740 0.0000 0.0000 0.0000
# 4 0.0000 0.0000 0.0000 37.6081 0.0000 0.0000
# 5 0.0000 0.0000 0.0000 0.0000 25.5947 0.0000
# 6 0.0000 0.0000 0.0000 0.0000 0.0000 21.5420
#
#
#
# Elastic Compliance Matrix: (Units=1/GPa)
#
#
# Indices 1 2 3 4 5 6 
#
# 1 0.026932 -0.016419 0.000992 0.000000 0.000000 0.000000
# 2 -0.016419 0.030239 -0.010847 0.000000 0.000000 0.000000
# 3 0.000992 -0.010847 0.012168 0.000000 0.000000 0.000000
# 4 0.000000 0.000000 0.000000 0.026590 0.000000 0.000000
# 5 0.000000 0.000000 0.000000 0.000000 0.039071 0.000000
# 6 0.000000 0.000000 0.000000 0.000000 0.000000 0.046421
#
#
# Mechanical properties :
#
#
# Convention : Reuss Voigt Hill
#
# Bulk Modulus (GPa) = 59.55452 68.93606 64.24529
# Shear Modulus (GPa) = 20.87116 25.91383 23.39250
#
# Velocity S-wave (km/s) = 3.28824 3.66401 3.48120
# Velocity P-wave (km/s) = 6.72826 7.32209 7.03145
#
# Compressibility (1/GPa) = 0.01679134
#
# Stress axis : x y z
#
# Youngs Moduli (GPa) = 37.13067 33.07026 82.18105
#
# Poissons Ratio (x) = 0.54297 -0.08155
# Poissons Ratio (y) = 0.60963 0.89146
# Poissons Ratio (z) = -0.03685 0.35873
#
# Static dielectric constant tensor:
#      x y z
#    x 1.759880 0.000000 0.000000 
#    y 0.000000 1.641320 0.000000 
#    z 0.000000 0.000000 1.686190 
# 
# From -- ./inp_files/29913.got.cif
#   From: 2010.05.17/outbox.cif.g08.bks.cpg/sg62_15_cif.got.tgz:29913.got - 2010.06.03 15:25:27.
