data_PCOD9466314
_publ_section_title
;
Structure prediction by ZEFSAII (Michael W. Deem and Ramdas Pophale) SiO2 
 PCOD9466314
Probable space group: P N M A
;
_chemical_formula_sum "Si O2"
_cell_formula_units_Z 32
_cell_length_a 7.713786
_cell_length_b 10.534808
_cell_length_c 13.670678
_cell_angle_alpha 90.000000
_cell_angle_beta 90.000000
_cell_angle_gamma 90.000000
_cell_volume 1110.923785
_symmetry_space_group_name_H-M "P N M A"
_symmetry_group_IT_number 62
_symmetry_cell_setting 'orthorhombic'
loop_
_space_group_symop_operation_xyz
x,y,z
1/2-x,-y,1/2+z
1/2+x,1/2-y,1/2-z
-x,1/2+y,-z
-x,-y,-z
1/2+x,y,1/2-z
1/2-x,1/2+y,1/2+z
x,1/2-y,z
loop_
_atom_site_type_symbol
_atom_site_label
_atom_site_fract_x
_atom_site_fract_y
_atom_site_fract_z
Si Si1 0.996786 0.974940 0.237631
Si Si2 0.282497 0.603677 0.446997
Si Si3 0.140067 0.750000 0.729959
Si Si4 0.020910 0.250000 0.086262
Si Si5 0.307283 0.605041 0.093964
O O1 0.977285 0.896175 0.336752
O O2 0.164811 0.946059 0.172542
O O3 0.965787 0.118073 0.278190
O O4 0.849413 0.937693 0.158431
O O5 0.213762 0.750000 0.450848
O O6 0.453544 0.630561 0.516694
O O7 0.185745 0.493798 0.505707
O O8 0.306095 0.750000 0.658782
O O9 0.151204 0.750000 0.848904
O O10 0.271159 0.750000 0.066219
#
# Coordination Sequence:
#
# PCOD9466314 Si02
#       5
#     8   8   4   4   8
#     4  12  23  41  66  89 129 159 209 250 313 357
#     4  10  21  41  62  93 119 166 203 255 299 370
#     4  12  20  40  66  95 117 169 201 260 294 373
#     4  10  22  40  66  87 123 159 213 240 312 349
#     4  12  25  40  64  94 123 162 206 257 304 366
#
# _framework density 28.804855
#
# number of rings (size 3 to 8) (size 9 to 14) (size 15 to 20)
#    0.750    0.000    5.000    3.000    1.750    0.000 
#    0.000    1.250    0.000    0.000    0.000    0.000 
#    0.000    0.000    0.000    0.000    0.000    0.000 
#
# Total GULP energy -179023.659283 kJ/mol
# GULP energy per Si atom -5594.489353 kJ/mol
# Density = 2.873929 g / cm^3
# Si number density = 28.804855 Si / 1000 Ang^3
#
#
#
# Elastic Constant Matrix: (Units=GPa)
#
#
# Indices 1 2 3 4 5 6 
#
# 1 115.7075 44.0119 36.3420 0.0000 0.0000 0.0000
# 2 44.0119 279.3335 92.5168 0.0000 0.0000 0.0000
# 3 36.3420 92.5168 209.2610 0.0000 0.0000 0.0000
# 4 0.0000 0.0000 0.0000 51.3117 0.0000 0.0000
# 5 0.0000 0.0000 0.0000 0.0000 56.4674 0.0000
# 6 0.0000 0.0000 0.0000 0.0000 0.0000 31.7309
#
#
#
# Elastic Compliance Matrix: (Units=1/GPa)
#
#
# Indices 1 2 3 4 5 6 
#
# 1 0.009423 -0.001104 -0.001148 0.000000 0.000000 0.000000
# 2 -0.001104 0.004324 -0.001720 0.000000 0.000000 0.000000
# 3 -0.001148 -0.001720 0.005738 0.000000 0.000000 0.000000
# 4 0.000000 0.000000 0.000000 0.019489 0.000000 0.000000
# 5 0.000000 0.000000 0.000000 0.000000 0.017709 0.000000
# 6 0.000000 0.000000 0.000000 0.000000 0.000000 0.031515
#
#
# Mechanical properties :
#
#
# Convention : Reuss Voigt Hill
#
# Bulk Modulus (GPa) = 86.65142 105.56039 96.10591
# Shear Modulus (GPa) = 50.00510 56.66408 53.33459
#
# Velocity S-wave (km/s) = 4.17105 4.44009 4.30767
# Velocity P-wave (km/s) = 7.30372 7.93802 7.62747
#
# Compressibility (1/GPa) = 0.01154049
#
# Stress axis : x y z
#
# Youngs Moduli (GPa) = 106.12083 231.29236 174.26385
#
# Poissons Ratio (x) = 0.25545 0.20010
# Poissons Ratio (y) = 0.11720 0.29968
# Poissons Ratio (z) = 0.12185 0.39775
#
# Static dielectric constant tensor:
#      x y z
#    x 2.591750 0.000000 0.000000 
#    y 0.000000 2.203590 0.000000 
#    z 0.000000 0.000000 2.190400 
# 
# From -- ./inp_files/11799.got.cif
#   From: 2010.05.17/outbox.cif.g08.bks.cpg/sg62_6_cif.got.tgz:11799.got - 2010.06.03 15:25:27.
