data_PCOD9466990
_publ_section_title
;
Structure prediction by ZEFSAII (Michael W. Deem and Ramdas Pophale) SiO2 
 PCOD9466990
Probable space group: P N M A
;
_chemical_formula_sum "Si O2"
_cell_formula_units_Z 40
_cell_length_a 24.776781
_cell_length_b 12.215009
_cell_length_c 6.699421
_cell_angle_alpha 90.000000
_cell_angle_beta 90.000000
_cell_angle_gamma 90.000000
_cell_volume 2027.570406
_symmetry_space_group_name_H-M "P N M A"
_symmetry_group_IT_number 62
_symmetry_cell_setting 'orthorhombic'
loop_
_space_group_symop_operation_xyz
x,y,z
1/2-x,-y,1/2+z
1/2+x,1/2-y,1/2-z
-x,1/2+y,-z
-x,-y,-z
1/2+x,y,1/2-z
1/2-x,1/2+y,1/2+z
x,1/2-y,z
loop_
_atom_site_type_symbol
_atom_site_label
_atom_site_fract_x
_atom_site_fract_y
_atom_site_fract_z
Si Si1 0.823309 0.966537 0.361932
Si Si2 0.884791 0.448311 0.745219
Si Si3 0.996834 0.376630 0.606699
Si Si4 0.789313 0.374546 0.020187
Si Si5 0.907607 0.629276 0.074378
O O1 0.766065 0.927324 0.444243
O O2 0.855456 0.884037 0.217654
O O3 0.861460 0.996612 0.545911
O O4 0.811129 0.068661 0.219095
O O5 0.936040 0.376269 0.688837
O O6 0.835357 0.387443 0.852667
O O7 0.904428 0.539704 0.902358
O O8 0.005693 0.250000 0.516152
O O9 0.000000 0.500000 0.500000
O O10 0.040596 0.384238 0.783637
O O11 0.777958 0.250000 0.062896
O O12 0.908392 0.750000 0.984593
#
# Coordination Sequence:
#
# PCOD9466990 Si02
#       5
#     8   8   8   8   8
#     4  11  22  43  62  93 131 165 220 268 325 392
#     4  11  23  43  65  92 132 171 221 269 328 390
#     4  11  23  43  68  99 134 174 219 274 335 399
#     4  11  24  41  63  92 129 173 215 268 327 392
#     4  10  23  41  67  97 128 169 220 271 330 393
#
# _framework density 19.728045000000002
#
# number of rings (size 3 to 8) (size 9 to 14) (size 15 to 20)
#    0.000    1.200    4.000    1.800    0.000    4.000 
#    0.000    1.000    0.000    0.000    0.000    0.000 
#    0.000    0.000    0.000    0.000    0.000    0.000 
#
# Total GULP energy -223073.320329 kJ/mol
# GULP energy per Si atom -5576.833008 kJ/mol
# Density = 1.968314 g / cm^3
# Si number density = 19.728045 Si / 1000 Ang^3
#
#
#
# Elastic Constant Matrix: (Units=GPa)
#
#
# Indices 1 2 3 4 5 6 
#
# 1 126.4995 36.2680 7.8987 0.0000 0.0000 0.0000
# 2 36.2680 131.0443 29.4855 0.0000 0.0000 0.0000
# 3 7.8987 29.4855 70.9855 0.0000 0.0000 0.0000
# 4 0.0000 0.0000 0.0000 -0.9673 0.0000 0.0000
# 5 0.0000 0.0000 0.0000 0.0000 31.5056 0.0000
# 6 0.0000 0.0000 0.0000 0.0000 0.0000 -1.7768
#
#
#
# Elastic Compliance Matrix: (Units=1/GPa)
#
#
# Indices 1 2 3 4 5 6 
#
# 1 0.008587 -0.002384 0.000035 0.000000 0.000000 0.000000
# 2 -0.002384 0.009080 -0.003506 0.000000 0.000000 0.000000
# 3 0.000035 -0.003506 0.015540 0.000000 0.000000 0.000000
# 4 0.000000 0.000000 0.000000 -1.033768 0.000000 0.000000
# 5 0.000000 0.000000 0.000000 0.000000 0.031740 0.000000
# 6 0.000000 0.000000 0.000000 0.000000 0.000000 -0.562821
#
#
# Mechanical properties :
#
#
# Convention : Reuss Voigt Hill
#
# Bulk Modulus (GPa) = 46.52219 52.87041 49.69630
# Shear Modulus (GPa) = -3.30520 22.74411 9.71945
#
# Velocity S-wave (km/s) = -1.29577 3.39910 2.22203
# Velocity P-wave (km/s) = 4.62539 6.50099 5.64168
#
# Compressibility (1/GPa) = 0.02149512
#
# Stress axis : x y z
#
# Youngs Moduli (GPa) = 116.46090 110.13457 64.35055
#
# Poissons Ratio (x) = 0.26259 -0.00225
# Poissons Ratio (y) = 0.27768 0.22563
# Poissons Ratio (z) = -0.00407 0.38615
#
# Static dielectric constant tensor:
#      x y z
#    x 1.685050 0.000000 0.000000 
#    y 0.000000 1.679630 0.000000 
#    z 0.000000 0.000000 1.656430 
# 
# From -- ./inp_files/3026.got.cif
#   From: 2010.05.17/outbox.cif.g08.bks.cpg/sg62_2_cif.got.tgz:3026.got - 2010.06.03 15:25:27.
