data_PCOD9466721
_publ_section_title
;
Structure prediction by ZEFSAII (Michael W. Deem and Ramdas Pophale) SiO2 
 PCOD9466721
Probable space group: P N M A
;
_chemical_formula_sum "Si O2"
_cell_formula_units_Z 64
_cell_length_a 8.613073
_cell_length_b 28.329794
_cell_length_c 12.440565
_cell_angle_alpha 90.000000
_cell_angle_beta 90.000000
_cell_angle_gamma 90.000000
_cell_volume 3035.579766
_symmetry_space_group_name_H-M "P N M A"
_symmetry_group_IT_number 62
_symmetry_cell_setting 'orthorhombic'
loop_
_space_group_symop_operation_xyz
x,y,z
1/2-x,-y,1/2+z
1/2+x,1/2-y,1/2-z
-x,1/2+y,-z
-x,-y,-z
1/2+x,y,1/2-z
1/2-x,1/2+y,1/2+z
x,1/2-y,z
loop_
_atom_site_type_symbol
_atom_site_label
_atom_site_fract_x
_atom_site_fract_y
_atom_site_fract_z
Si Si1 0.795622 0.693486 0.606576
Si Si2 0.785501 0.306802 0.873872
Si Si3 0.399020 0.441237 0.159933
Si Si4 0.455111 0.539933 0.411375
Si Si5 0.787717 0.878187 0.977321
Si Si6 0.153705 0.193665 0.852698
Si Si7 0.662077 0.993025 0.226173
Si Si8 0.497047 0.648310 0.715887
O O1 0.803646 0.750000 0.606963
O O2 0.788232 0.675314 0.484274
O O3 0.635249 0.677065 0.661476
O O4 0.934230 0.672709 0.676731
O O5 0.765486 0.250000 0.874932
O O6 0.704169 0.323181 0.765165
O O7 0.970357 0.314549 0.870393
O O8 0.354794 0.411918 0.054453
O O9 0.245984 0.467568 0.200759
O O10 0.532489 0.480319 0.155544
O O11 0.446088 0.403517 0.250807
O O12 0.500000 0.500000 0.500000
O O13 0.421991 0.588625 0.472115
O O14 0.294089 0.527630 0.350390
O O15 0.580169 0.540659 0.314245
O O16 0.856299 0.856398 0.868033
O O17 0.754334 0.836362 0.059420
O O18 0.182629 0.250000 0.862637
#
# Coordination Sequence:
#
# PCOD9466721 Si02
#       8
#     8   8   8   8   8   8   8   8
#     4  11  23  40  63  93 130 172 219 275 330 389
#     4   9  20  40  62  84 119 169 215 262 326 377
#     4  11  20  41  64  98 126 175 215 265 341 405
#     4  11  23  44  67  99 132 176 219 280 335 399
#     4  12  23  38  68  95 134 172 225 268 334 399
#     4  10  22  41  64  89 128 175 218 269 322 387
#     4  10  22  42  70  91 135 170 217 272 336 401
#     4  12  22  39  63  96 129 169 217 269 336 401
#
# _framework density 21.083286999999999
#
# number of rings (size 3 to 8) (size 9 to 14) (size 15 to 20)
#    0.000    1.250    5.000    1.125    0.000    3.000 
#    0.000    1.250    0.000    0.000    0.000    0.000 
#    0.000    0.000    0.000    0.000    0.000    0.000 
#
# Total GULP energy -357668.681441 kJ/mol
# GULP energy per Si atom -5588.573148 kJ/mol
# Density = 2.103530 g / cm^3
# Si number density = 21.083287 Si / 1000 Ang^3
#
#
#
# Elastic Constant Matrix: (Units=GPa)
#
#
# Indices 1 2 3 4 5 6 
#
# 1 44.7104 0.6700 26.5585 0.0000 0.0000 0.0000
# 2 0.6700 34.5276 22.3371 0.0000 0.0000 0.0000
# 3 26.5585 22.3371 137.0662 0.0000 0.0000 0.0000
# 4 0.0000 0.0000 0.0000 36.5892 0.0000 0.0000
# 5 0.0000 0.0000 0.0000 0.0000 36.7136 0.0000
# 6 0.0000 0.0000 0.0000 0.0000 0.0000 16.6019
#
#
#
# Elastic Compliance Matrix: (Units=1/GPa)
#
#
# Indices 1 2 3 4 5 6 
#
# 1 0.025555 0.003027 -0.005445 0.000000 0.000000 0.000000
# 2 0.003027 0.032734 -0.005921 0.000000 0.000000 0.000000
# 3 -0.005445 -0.005921 0.009316 0.000000 0.000000 0.000000
# 4 0.000000 0.000000 0.000000 0.027330 0.000000 0.000000
# 5 0.000000 0.000000 0.000000 0.000000 0.027238 0.000000
# 6 0.000000 0.000000 0.000000 0.000000 0.000000 0.060234
#
#
# Mechanical properties :
#
#
# Convention : Reuss Voigt Hill
#
# Bulk Modulus (GPa) = 19.63620 35.04837 27.34229
# Shear Modulus (GPa) = 23.14159 29.09685 26.11922
#
# Velocity S-wave (km/s) = 3.31664 3.71899 3.52356
# Velocity P-wave (km/s) = 4.89905 5.92461 5.43607
#
# Compressibility (1/GPa) = 0.05092634
#
# Stress axis : x y z
#
# Youngs Moduli (GPa) = 39.13104 30.54923 107.34580
#
# Poissons Ratio (x) = -0.09246 0.58449
# Poissons Ratio (y) = -0.11843 0.63559
# Poissons Ratio (z) = 0.21306 0.18088
#
# Static dielectric constant tensor:
#      x y z
#    x 1.763880 0.000000 0.000000 
#    y 0.000000 1.757340 0.000000 
#    z 0.000000 0.000000 1.773010 
# 
# From -- ./inp_files/11540.got.cif
#   From: 2010.05.17/outbox.cif.g08.bks.cpg/sg62_6_cif.got.tgz:11540.got - 2010.06.03 15:25:27.
