data_PCOD9466738
_publ_section_title
;
Structure prediction by ZEFSAII (Michael W. Deem and Ramdas Pophale) SiO2 
 PCOD9466738
Probable space group: P N M A
;
_chemical_formula_sum "Si O2"
_cell_formula_units_Z 64
_cell_length_a 9.661560
_cell_length_b 25.852032
_cell_length_c 13.509287
_cell_angle_alpha 90.000000
_cell_angle_beta 90.000000
_cell_angle_gamma 90.000000
_cell_volume 3374.227560
_symmetry_space_group_name_H-M "P N M A"
_symmetry_group_IT_number 62
_symmetry_cell_setting 'orthorhombic'
loop_
_space_group_symop_operation_xyz
x,y,z
1/2-x,-y,1/2+z
1/2+x,1/2-y,1/2-z
-x,1/2+y,-z
-x,-y,-z
1/2+x,y,1/2-z
1/2-x,1/2+y,1/2+z
x,1/2-y,z
loop_
_atom_site_type_symbol
_atom_site_label
_atom_site_fract_x
_atom_site_fract_y
_atom_site_fract_z
Si Si1 0.705079 0.439371 0.086347
Si Si2 0.464184 0.892945 0.257178
Si Si3 0.422000 0.113728 0.042276
Si Si4 0.202055 0.558420 0.363026
Si Si5 0.121645 0.634890 0.043176
Si Si6 0.594662 0.310941 0.913799
Si Si7 0.265404 0.141956 0.241759
Si Si8 0.502540 0.309845 0.363633
O O1 0.548939 0.426627 0.052126
O O2 0.725373 0.499130 0.109227
O O3 0.731990 0.405160 0.184384
O O4 0.808508 0.416582 0.003226
O O5 0.558049 0.932743 0.194932
O O6 0.323866 0.918994 0.295238
O O7 0.550754 0.875438 0.352624
O O8 0.434444 0.844473 0.185026
O O9 0.352227 0.123411 0.147108
O O10 0.313660 0.091678 0.963124
O O11 0.492300 0.165368 0.996940
O O12 0.249041 0.674941 0.054246
O O13 0.014303 0.657802 0.964278
O O14 0.576491 0.250000 0.900557
O O15 0.360042 0.181222 0.304106
O O16 0.125894 0.167762 0.202563
O O17 0.525600 0.250000 0.384941
#
# Coordination Sequence:
#
# PCOD9466738 Si02
#       8
#     8   8   8   8   8   8   8   8
#     4  10  23  40  65  93 124 170 204 258 319 370
#     4  11  23  43  62  96 129 159 209 263 302 381
#     4  10  22  42  60  92 127 162 210 262 304 383
#     4  11  24  39  67  92 128 166 209 257 317 370
#     4  10  22  42  62  90 129 157 211 259 304 374
#     4  10  22  41  65  91 125 167 202 256 323 367
#     4  11  22  41  60  90 127 157 209 258 304 376
#     4  11  23  38  61  88 120 162 203 254 311 364
#
# _framework density 18.967303999999999
#
# number of rings (size 3 to 8) (size 9 to 14) (size 15 to 20)
#    0.000    1.500    2.500    1.875    1.750    3.500 
#    0.000    0.000    0.000    0.000    0.000    0.000 
#    0.000    0.000    0.000    0.000    0.000    0.000 
#
# Total GULP energy -357702.804619 kJ/mol
# GULP energy per Si atom -5589.106322 kJ/mol
# Density = 1.892413 g / cm^3
# Si number density = 18.967304 Si / 1000 Ang^3
#
#
#
# Elastic Constant Matrix: (Units=GPa)
#
#
# Indices 1 2 3 4 5 6 
#
# 1 63.2218 21.9971 16.3406 0.0000 0.0000 0.0000
# 2 21.9971 78.9174 -0.4349 0.0000 0.0000 0.0000
# 3 16.3406 -0.4349 83.2888 0.0000 0.0000 0.0000
# 4 0.0000 0.0000 0.0000 15.4908 0.0000 0.0000
# 5 0.0000 0.0000 0.0000 0.0000 40.3747 0.0000
# 6 0.0000 0.0000 0.0000 0.0000 0.0000 2.8283
#
#
#
# Elastic Compliance Matrix: (Units=1/GPa)
#
#
# Indices 1 2 3 4 5 6 
#
# 1 0.018575 -0.005198 -0.003671 0.000000 0.000000 0.000000
# 2 -0.005198 0.014126 0.001093 0.000000 0.000000 0.000000
# 3 -0.003671 0.001093 0.012732 0.000000 0.000000 0.000000
# 4 0.000000 0.000000 0.000000 0.064554 0.000000 0.000000
# 5 0.000000 0.000000 0.000000 0.000000 0.024768 0.000000
# 6 0.000000 0.000000 0.000000 0.000000 0.000000 0.353575
#
#
# Mechanical properties :
#
#
# Convention : Reuss Voigt Hill
#
# Bulk Modulus (GPa) = 33.46457 33.47042 33.46749
# Shear Modulus (GPa) = 9.73061 24.24041 16.98551
#
# Velocity S-wave (km/s) = 2.26745 3.57881 2.99576
# Velocity P-wave (km/s) = 4.95345 5.89592 5.44511
#
# Compressibility (1/GPa) = 0.02988235
#
# Stress axis : x y z
#
# Youngs Moduli (GPa) = 53.83664 70.79002 78.53967
#
# Poissons Ratio (x) = 0.36794 0.28835
# Poissons Ratio (y) = 0.27983 -0.08588
# Poissons Ratio (z) = 0.19765 -0.07741
#
# Static dielectric constant tensor:
#      x y z
#    x 1.657550 0.000000 0.000000 
#    y 0.000000 1.611940 0.000000 
#    z 0.000000 0.000000 1.647020 
# 
# From -- ./inp_files/17372.got.cif
#   From: 2010.05.17/outbox.cif.g08.bks.cpg/sg62_9_cif.got.tgz:17372.got - 2010.06.03 15:25:27.
