data_PCOD9466086
_publ_section_title
;
Structure prediction by ZEFSAII (Michael W. Deem and Ramdas Pophale) SiO2 
 PCOD9466086
Probable space group: P N M A
;
_chemical_formula_sum "Si O2"
_cell_formula_units_Z 40
_cell_length_a 21.959631
_cell_length_b 10.184026
_cell_length_c 8.237084
_cell_angle_alpha 90.000000
_cell_angle_beta 90.000000
_cell_angle_gamma 90.000000
_cell_volume 1842.120486
_symmetry_space_group_name_H-M "P N M A"
_symmetry_group_IT_number 62
_symmetry_cell_setting 'orthorhombic'
loop_
_space_group_symop_operation_xyz
x,y,z
1/2-x,-y,1/2+z
1/2+x,1/2-y,1/2-z
-x,1/2+y,-z
-x,-y,-z
1/2+x,y,1/2-z
1/2-x,1/2+y,1/2+z
x,1/2-y,z
loop_
_atom_site_type_symbol
_atom_site_label
_atom_site_fract_x
_atom_site_fract_y
_atom_site_fract_z
Si Si1 0.937481 0.463436 0.593384
Si Si2 0.327234 0.599030 0.770150
Si Si3 0.389124 0.105921 0.233550
Si Si4 0.215534 0.900116 0.990588
Si Si5 0.479452 0.895703 0.368301
O O1 0.896400 0.577614 0.670577
O O2 0.894564 0.395006 0.460764
O O3 0.000000 0.500000 0.500000
O O4 0.964061 0.385355 0.744876
O O5 0.317398 0.750000 0.720835
O O6 0.309789 0.500334 0.624471
O O7 0.283041 0.572490 0.924104
O O8 0.415879 0.250000 0.285514
O O9 0.325645 0.097114 0.327214
O O10 0.424385 0.973956 0.284237
O O11 0.212973 0.750000 0.054107
O O12 0.462416 0.750000 0.424297
O O13 0.500000 0.000000 0.500000
#
# Coordination Sequence:
#
# PCOD9466086 Si02
#       5
#     8   8   8   8   8
#     4  10  23  40  62  91 126 167 214 266 319 375
#     4  11  24  43  67  95 128 169 215 261 317 388
#     4  10  21  39  62  88 122 161 204 256 315 376
#     4  10  23  42  66  98 131 165 209 264 323 382
#     4  11  23  38  59  88 123 164 211 261 315 375
#
# _framework density 21.714105
#
# number of rings (size 3 to 8) (size 9 to 14) (size 15 to 20)
#    0.000    1.600    0.000    3.600    0.000   13.600 
#    0.000    0.000    0.000    0.000    0.000    0.000 
#    0.000    0.000    0.000    0.000    0.000    0.000 
#
# Total GULP energy -222971.505585 kJ/mol
# GULP energy per Si atom -5574.287640 kJ/mol
# Density = 2.166468 g / cm^3
# Si number density = 21.714105 Si / 1000 Ang^3
#
#
#
# Elastic Constant Matrix: (Units=GPa)
#
#
# Indices 1 2 3 4 5 6 
#
# 1 96.5042 49.7322 25.9089 0.0000 0.0000 0.0000
# 2 49.7322 167.1203 54.3229 0.0000 0.0000 0.0000
# 3 25.9089 54.3229 83.1486 0.0000 0.0000 0.0000
# 4 0.0000 0.0000 0.0000 24.4717 0.0000 0.0000
# 5 0.0000 0.0000 0.0000 0.0000 31.0261 0.0000
# 6 0.0000 0.0000 0.0000 0.0000 0.0000 22.2929
#
#
#
# Elastic Compliance Matrix: (Units=1/GPa)
#
#
# Indices 1 2 3 4 5 6 
#
# 1 0.012460 -0.003105 -0.001854 0.000000 0.000000 0.000000
# 2 -0.003105 0.008371 -0.004501 0.000000 0.000000 0.000000
# 3 -0.001854 -0.004501 0.015545 0.000000 0.000000 0.000000
# 4 0.000000 0.000000 0.000000 0.040864 0.000000 0.000000
# 5 0.000000 0.000000 0.000000 0.000000 0.032231 0.000000
# 6 0.000000 0.000000 0.000000 0.000000 0.000000 0.044857
#
#
# Mechanical properties :
#
#
# Convention : Reuss Voigt Hill
#
# Bulk Modulus (GPa) = 57.28891 67.41124 62.35008
# Shear Modulus (GPa) = 27.92241 30.01207 28.96724
#
# Velocity S-wave (km/s) = 3.58985 3.72176 3.65640
# Velocity P-wave (km/s) = 6.60479 7.04137 6.82657
#
# Compressibility (1/GPa) = 0.01745538
#
# Stress axis : x y z
#
# Youngs Moduli (GPa) = 80.25514 119.46005 64.32890
#
# Poissons Ratio (x) = 0.37097 0.11925
# Poissons Ratio (y) = 0.24922 0.28957
# Poissons Ratio (z) = 0.14877 0.53773
#
# Static dielectric constant tensor:
#      x y z
#    x 1.615340 0.000000 0.000000 
#    y 0.000000 2.120900 0.000000 
#    z 0.000000 0.000000 1.306240 
# 
# From -- ./inp_files/9095.got.cif
#   From: 2010.05.17/outbox.cif.g08.bks.cpg/sg62_5_cif.got.tgz:9095.got - 2010.06.03 15:25:27.
