data_PCOD9466197
_publ_section_title
;
Structure prediction by ZEFSAII (Michael W. Deem and Ramdas Pophale) SiO2 
 PCOD9466197
Probable space group: P N M A
;
_chemical_formula_sum "Si O2"
_cell_formula_units_Z 48
_cell_length_a 9.971105
_cell_length_b 13.687716
_cell_length_c 17.999294
_cell_angle_alpha 90.000000
_cell_angle_beta 90.000000
_cell_angle_gamma 90.000000
_cell_volume 2456.573406
_symmetry_space_group_name_H-M "P N M A"
_symmetry_group_IT_number 62
_symmetry_cell_setting 'orthorhombic'
loop_
_space_group_symop_operation_xyz
x,y,z
1/2-x,-y,1/2+z
1/2+x,1/2-y,1/2-z
-x,1/2+y,-z
-x,-y,-z
1/2+x,y,1/2-z
1/2-x,1/2+y,1/2+z
x,1/2-y,z
loop_
_atom_site_type_symbol
_atom_site_label
_atom_site_fract_x
_atom_site_fract_y
_atom_site_fract_z
Si Si1 0.235789 0.962521 0.607279
Si Si2 0.605005 0.981688 0.251326
Si Si3 0.851249 0.863439 0.203555
Si Si4 0.958216 0.862952 0.628783
Si Si5 0.063837 0.136367 0.545951
Si Si6 0.251327 0.864937 0.457927
O O1 0.117036 0.887160 0.628393
O O2 0.294090 0.926575 0.528927
O O3 0.342640 0.972229 0.672044
O O4 0.158729 0.064331 0.590981
O O5 0.706208 0.893765 0.233448
O O6 0.458994 0.935785 0.261346
O O7 0.607636 0.062020 0.186206
O O8 0.881292 0.750000 0.218338
O O9 0.840248 0.878817 0.114850
O O10 0.934836 0.750000 0.648528
O O11 0.914146 0.876590 0.542775
O O12 0.085031 0.250000 0.564772
O O13 0.906265 0.112750 0.558771
O O14 0.253052 0.750000 0.477038
#
# Coordination Sequence:
#
# PCOD9466197 Si02
#       6
#     8   8   8   8   8   8
#     4  11  20  36  63  87 124 156 208 254 307 365
#     4  12  24  40  61  92 127 164 201 252 311 366
#     4  11  24  42  61  88 124 163 205 251 309 371
#     4  10  21  40  62  90 126 164 211 252 301 368
#     4   9  18  34  62  91 117 157 207 260 300 358
#     4   9  19  36  61  86 116 157 203 251 306 362
#
# _framework density 19.539413
#
# number of rings (size 3 to 8) (size 9 to 14) (size 15 to 20)
#    0.000    1.667    1.667    6.000    0.000    3.333 
#    0.000    0.000    0.000    2.000    0.000    0.000 
#    0.000    0.000    0.000    0.000    0.000    0.000 
#
# Total GULP energy -268284.338286 kJ/mol
# GULP energy per Si atom -5589.257048 kJ/mol
# Density = 1.949494 g / cm^3
# Si number density = 19.539413 Si / 1000 Ang^3
#
#
#
# Elastic Constant Matrix: (Units=GPa)
#
#
# Indices 1 2 3 4 5 6 
#
# 1 34.1765 15.8446 22.3433 0.0000 0.0000 0.0000
# 2 15.8446 95.0926 40.0243 0.0000 0.0000 0.0000
# 3 22.3433 40.0243 70.5512 0.0000 0.0000 0.0000
# 4 0.0000 0.0000 0.0000 14.1153 0.0000 0.0000
# 5 0.0000 0.0000 0.0000 0.0000 31.2124 0.0000
# 6 0.0000 0.0000 0.0000 0.0000 0.0000 13.2236
#
#
#
# Elastic Compliance Matrix: (Units=1/GPa)
#
#
# Indices 1 2 3 4 5 6 
#
# 1 0.037090 -0.001624 -0.010825 0.000000 0.000000 0.000000
# 2 -0.001624 0.013886 -0.007363 0.000000 0.000000 0.000000
# 3 -0.010825 -0.007363 0.021780 0.000000 0.000000 0.000000
# 4 0.000000 0.000000 0.000000 0.070845 0.000000 0.000000
# 5 0.000000 0.000000 0.000000 0.000000 0.032038 0.000000
# 6 0.000000 0.000000 0.000000 0.000000 0.000000 0.075623
#
#
# Mechanical properties :
#
#
# Convention : Reuss Voigt Hill
#
# Bulk Modulus (GPa) = 30.18324 39.58275 34.88300
# Shear Modulus (GPa) = 16.56019 19.81747 18.18883
#
# Velocity S-wave (km/s) = 2.91439 3.18815 3.05434
# Velocity P-wave (km/s) = 5.17743 5.81845 5.50727
#
# Compressibility (1/GPa) = 0.03313097
#
# Stress axis : x y z
#
# Youngs Moduli (GPa) = 26.96169 72.01585 45.91457
#
# Poissons Ratio (x) = 0.11694 0.49702
# Poissons Ratio (y) = 0.04378 0.33808
# Poissons Ratio (z) = 0.29186 0.53027
#
# Static dielectric constant tensor:
#      x y z
#    x 1.648340 0.000000 0.000000 
#    y 0.000000 1.678410 0.000000 
#    z 0.000000 0.000000 1.714970 
# 
# From -- ./inp_files/22231.got.cif
#   From: 2010.05.17/outbox.cif.g08.bks.cpg/sg62_12_cif.got.tgz:22231.got - 2010.06.03 15:25:27.
