data_PCOD9466117
_publ_section_title
;
Structure prediction by ZEFSAII (Michael W. Deem and Ramdas Pophale) SiO2 
 PCOD9466117
Probable space group: P N M A
;
_chemical_formula_sum "Si O2"
_cell_formula_units_Z 40
_cell_length_a 25.655184
_cell_length_b 12.946819
_cell_length_c 5.084470
_cell_angle_alpha 90.000000
_cell_angle_beta 90.000000
_cell_angle_gamma 90.000000
_cell_volume 1688.822084
_symmetry_space_group_name_H-M "P N M A"
_symmetry_group_IT_number 62
_symmetry_cell_setting 'orthorhombic'
loop_
_space_group_symop_operation_xyz
x,y,z
1/2-x,-y,1/2+z
1/2+x,1/2-y,1/2-z
-x,1/2+y,-z
-x,-y,-z
1/2+x,y,1/2-z
1/2-x,1/2+y,1/2+z
x,1/2-y,z
loop_
_atom_site_type_symbol
_atom_site_label
_atom_site_fract_x
_atom_site_fract_y
_atom_site_fract_z
Si Si1 0.423430 0.136634 0.823156
Si Si2 0.833303 0.141292 0.295133
Si Si3 0.999321 0.750000 0.637617
Si Si4 0.122828 0.041700 0.059201
Si Si5 0.427353 0.750000 0.363426
Si Si6 0.231963 0.053971 0.301327
O O1 0.431788 0.250000 0.689806
O O2 0.364465 0.137967 0.933322
O O3 0.463470 0.151994 0.066513
O O4 0.424594 0.025724 0.685138
O O5 0.847945 0.250000 0.168067
O O6 0.771395 0.138215 0.313729
O O7 0.852939 0.042171 0.139358
O O8 0.972777 0.750000 0.917220
O O9 0.952879 0.750000 0.423475
O O10 0.104358 0.145260 0.918119
O O11 0.170828 0.069719 0.255288
O O12 0.248655 0.038495 0.604494
#
# Coordination Sequence:
#
# PCOD9466117 Si02
#       6
#     8   8   4   8   4   8
#     4   9  21  42  72  97 131 170 240 283 337 393
#     4  10  21  40  71 101 138 178 225 278 334 407
#     4  10  28  48  67 103 124 186 238 292 340 404
#     4  11  24  42  69  99 143 182 220 285 341 420
#     4  12  30  46  67  97 146 176 234 280 364 392
#     4  10  21  39  64 102 136 173 217 262 335 408
#
# _framework density 23.685146
#
# number of rings (size 3 to 8) (size 9 to 14) (size 15 to 20)
#    0.600    1.200    2.000    0.600    7.000    1.600 
#    0.000    0.000    8.800    0.000    0.000    0.000 
#    0.000    0.000    0.000    0.000    0.000    0.000 
#
# Total GULP energy -222787.073981 kJ/mol
# GULP energy per Si atom -5569.676850 kJ/mol
# Density = 2.363124 g / cm^3
# Si number density = 23.685146 Si / 1000 Ang^3
#
#
#
# Elastic Constant Matrix: (Units=GPa)
#
#
# Indices 1 2 3 4 5 6 
#
# 1 79.7801 35.4174 16.6952 0.0000 0.0000 0.0000
# 2 35.4174 146.3004 9.9387 0.0000 0.0000 0.0000
# 3 16.6952 9.9387 61.8170 0.0000 0.0000 0.0000
# 4 0.0000 0.0000 0.0000 66.3891 0.0000 0.0000
# 5 0.0000 0.0000 0.0000 0.0000 38.2894 0.0000
# 6 0.0000 0.0000 0.0000 0.0000 0.0000 95.1374
#
#
#
# Elastic Compliance Matrix: (Units=1/GPa)
#
#
# Indices 1 2 3 4 5 6 
#
# 1 0.014735 -0.003333 -0.003444 0.000000 0.000000 0.000000
# 2 -0.003333 0.007665 -0.000332 0.000000 0.000000 0.000000
# 3 -0.003444 -0.000332 0.017160 0.000000 0.000000 0.000000
# 4 0.000000 0.000000 0.000000 0.015063 0.000000 0.000000
# 5 0.000000 0.000000 0.000000 0.000000 0.026117 0.000000
# 6 0.000000 0.000000 0.000000 0.000000 0.000000 0.010511
#
#
# Mechanical properties :
#
#
# Convention : Reuss Voigt Hill
#
# Bulk Modulus (GPa) = 39.46021 45.77780 42.61901
# Shear Modulus (GPa) = 43.89220 55.01960 49.45590
#
# Velocity S-wave (km/s) = 4.30950 4.82494 4.57448
# Velocity P-wave (km/s) = 6.43885 7.09997 6.77748
#
# Compressibility (1/GPa) = 0.02534198
#
# Stress axis : x y z
#
# Youngs Moduli (GPa) = 67.86660 130.46783 58.27441
#
# Poissons Ratio (x) = 0.43487 0.20067
# Poissons Ratio (y) = 0.22621 0.01935
# Poissons Ratio (z) = 0.23371 0.04333
#
# Static dielectric constant tensor:
#      x y z
#    x 1.949320 0.000000 0.000000 
#    y 0.000000 1.956470 0.000000 
#    z 0.000000 0.000000 1.991000 
# 
# From -- ./inp_files/2686.got.cif
#   From: 2010.05.17/outbox.cif.g08.bks.cpg/sg62_2_cif.got.tgz:2686.got - 2010.06.03 15:25:27.
