data_PCOD9466421
_publ_section_title
;
Structure prediction by ZEFSAII (Michael W. Deem and Ramdas Pophale) SiO2 
 PCOD9466421
Probable space group: P N M A
;
_chemical_formula_sum "Si O2"
_cell_formula_units_Z 40
_cell_length_a 10.306448
_cell_length_b 18.016458
_cell_length_c 10.199917
_cell_angle_alpha 90.000000
_cell_angle_beta 90.000000
_cell_angle_gamma 90.000000
_cell_volume 1893.978601
_symmetry_space_group_name_H-M "P N M A"
_symmetry_group_IT_number 62
_symmetry_cell_setting 'orthorhombic'
loop_
_space_group_symop_operation_xyz
x,y,z
1/2-x,-y,1/2+z
1/2+x,1/2-y,1/2-z
-x,1/2+y,-z
-x,-y,-z
1/2+x,y,1/2-z
1/2-x,1/2+y,1/2+z
x,1/2-y,z
loop_
_atom_site_type_symbol
_atom_site_label
_atom_site_fract_x
_atom_site_fract_y
_atom_site_fract_z
Si Si1 0.144030 0.837474 0.984338
Si Si2 0.334592 0.836328 0.523294
Si Si3 0.745382 0.558655 0.745804
Si Si4 0.648828 0.836814 0.217010
Si Si5 0.500342 0.525214 0.151042
O O1 0.169271 0.750000 0.957397
O O2 0.184766 0.854512 0.133183
O O3 0.209991 0.890265 0.878585
O O4 0.988478 0.849158 0.980265
O O5 0.313852 0.750000 0.559158
O O6 0.268282 0.888915 0.629156
O O7 0.266977 0.848064 0.383295
O O8 0.876460 0.514862 0.717061
O O9 0.628253 0.503442 0.778404
O O10 0.611525 0.750000 0.214900
O O11 0.531365 0.888189 0.168331
O O12 0.500000 0.500000 0.000000
#
# Coordination Sequence:
#
# PCOD9466421 Si02
#       5
#     8   8   8   8   8
#     4  10  23  43  69 104 138 186 235 283 350 415
#     4  10  21  43  69 100 140 182 231 284 348 412
#     4  12  25  46  72 101 140 182 231 298 342 412
#     4  10  24  44  67  96 139 183 227 285 348 420
#     4  12  28  45  71 107 139 180 239 286 357 414
#
# _framework density 21.119561999999998
#
# number of rings (size 3 to 8) (size 9 to 14) (size 15 to 20)
#    0.000    1.200    4.000    0.600    5.600    0.800 
#    0.000    2.000    0.000    0.000    0.000    0.000 
#    0.000    0.000    0.000    0.000    0.000    0.000 
#
# Total GULP energy -224019.642747 kJ/mol
# GULP energy per Si atom -5600.491069 kJ/mol
# Density = 2.107149 g / cm^3
# Si number density = 21.119562 Si / 1000 Ang^3
#
#
#
# Elastic Constant Matrix: (Units=GPa)
#
#
# Indices 1 2 3 4 5 6 
#
# 1 107.9212 49.5170 25.6153 0.0000 0.0000 0.0000
# 2 49.5170 97.4373 63.9667 0.0000 0.0000 0.0000
# 3 25.6153 63.9667 118.2349 0.0000 0.0000 0.0000
# 4 0.0000 0.0000 0.0000 23.4283 0.0000 0.0000
# 5 0.0000 0.0000 0.0000 0.0000 37.5543 0.0000
# 6 0.0000 0.0000 0.0000 0.0000 0.0000 11.5429
#
#
#
# Elastic Compliance Matrix: (Units=1/GPa)
#
#
# Indices 1 2 3 4 5 6 
#
# 1 0.012175 -0.006910 0.001101 0.000000 0.000000 0.000000
# 2 -0.006910 0.019838 -0.009235 0.000000 0.000000 0.000000
# 3 0.001101 -0.009235 0.013216 0.000000 0.000000 0.000000
# 4 0.000000 0.000000 0.000000 0.042683 0.000000 0.000000
# 5 0.000000 0.000000 0.000000 0.000000 0.026628 0.000000
# 6 0.000000 0.000000 0.000000 0.000000 0.000000 0.086633
#
#
# Mechanical properties :
#
#
# Convention : Reuss Voigt Hill
#
# Bulk Modulus (GPa) = 66.05370 66.86571 66.45970
# Shear Modulus (GPa) = 21.15876 26.80472 23.98174
#
# Velocity S-wave (km/s) = 3.16864 3.56643 3.37341
# Velocity P-wave (km/s) = 6.68813 6.97772 6.83446
#
# Compressibility (1/GPa) = 0.01513920
#
# Stress axis : x y z
#
# Youngs Moduli (GPa) = 82.13390 50.40953 75.66734
#
# Poissons Ratio (x) = 0.34833 -0.08328
# Poissons Ratio (y) = 0.56754 0.69881
# Poissons Ratio (z) = -0.09040 0.46555
#
# Static dielectric constant tensor:
#      x y z
#    x 1.747970 0.000000 0.000000 
#    y 0.000000 1.769520 0.000000 
#    z 0.000000 0.000000 1.720550 
# 
# From -- ./inp_files/5045.got.cif
#   From: 2010.05.17/outbox.cif.g08.bks.cpg/sg62_3_cif.got.tgz:5045.got - 2010.06.03 15:25:27.
