data_PCOD9466455
_publ_section_title
;
Structure prediction by ZEFSAII (Michael W. Deem and Ramdas Pophale) SiO2 
 PCOD9466455
Probable space group: P N M A
;
_chemical_formula_sum "Si O2"
_cell_formula_units_Z 48
_cell_length_a 8.856860
_cell_length_b 19.850992
_cell_length_c 11.518079
_cell_angle_alpha 90.000000
_cell_angle_beta 90.000000
_cell_angle_gamma 90.000000
_cell_volume 2025.079359
_symmetry_space_group_name_H-M "P N M A"
_symmetry_group_IT_number 62
_symmetry_cell_setting 'orthorhombic'
loop_
_space_group_symop_operation_xyz
x,y,z
1/2-x,-y,1/2+z
1/2+x,1/2-y,1/2-z
-x,1/2+y,-z
-x,-y,-z
1/2+x,y,1/2-z
1/2-x,1/2+y,1/2+z
x,1/2-y,z
loop_
_atom_site_type_symbol
_atom_site_label
_atom_site_fract_x
_atom_site_fract_y
_atom_site_fract_z
Si Si1 0.107035 0.878967 0.409814
Si Si2 0.797352 0.250000 0.087943
Si Si3 0.187711 0.385226 0.718773
Si Si4 0.740177 0.011423 0.176833
Si Si5 0.929382 0.750000 0.761528
Si Si6 0.606829 0.892737 0.490756
Si Si7 0.305687 0.615920 0.616617
O O1 0.238017 0.846086 0.327413
O O2 0.151973 0.871960 0.544203
O O3 0.945333 0.856453 0.360483
O O4 0.122725 0.959313 0.382029
O O5 0.624975 0.250000 0.129046
O O6 0.847575 0.183777 0.021301
O O7 0.894459 0.250000 0.207824
O O8 0.141144 0.457246 0.772473
O O9 0.331038 0.402317 0.637458
O O10 0.803855 0.058834 0.077338
O O11 0.698595 0.059377 0.284280
O O12 0.864010 0.816665 0.822269
O O13 0.432051 0.903228 0.520843
#
# Coordination Sequence:
#
# PCOD9466455 Si02
#       7
#     8   4   8   8   4   8   8
#     4  10  23  39  58  88 122 157 197 240 293 354
#     4  10  22  40  61  88 117 154 197 241 291 345
#     4  10  23  39  58  88 122 157 197 240 293 354
#     4  10  22  35  64  87 122 152 200 234 300 346
#     4  10  22  40  61  88 117 154 197 241 291 345
#     4  11  22  39  62  88 121 156 196 245 293 347
#     4  11  22  39  62  88 121 156 196 245 293 347
#
# _framework density 23.702776
#
# number of rings (size 3 to 8) (size 9 to 14) (size 15 to 20)
#    1.000    0.667    1.667    3.000    0.000    6.667 
#    0.000    0.833    0.000    0.000    0.000    0.000 
#    0.000    0.000    0.000    0.000    0.000    0.000 
#
# Total GULP energy -267902.600279 kJ/mol
# GULP energy per Si atom -5581.304172 kJ/mol
# Density = 2.364883 g / cm^3
# Si number density = 23.702776 Si / 1000 Ang^3
#
#
#
# Elastic Constant Matrix: (Units=GPa)
#
#
# Indices 1 2 3 4 5 6 
#
# 1 49.7051 1.8848 -2.3620 0.0000 0.0000 0.0000
# 2 1.8848 43.0288 -6.0229 0.0000 0.0000 0.0000
# 3 -2.3620 -6.0229 71.3346 0.0000 0.0000 0.0000
# 4 0.0000 0.0000 0.0000 87.5567 0.0000 0.0000
# 5 0.0000 0.0000 0.0000 0.0000 65.5854 0.0000
# 6 0.0000 0.0000 0.0000 0.0000 0.0000 16.1518
#
#
#
# Elastic Compliance Matrix: (Units=1/GPa)
#
#
# Indices 1 2 3 4 5 6 
#
# 1 0.020178 -0.000800 0.000601 0.000000 0.000000 0.000000
# 2 -0.000800 0.023550 0.001962 0.000000 0.000000 0.000000
# 3 0.000601 0.001962 0.014204 0.000000 0.000000 0.000000
# 4 0.000000 0.000000 0.000000 0.011421 0.000000 0.000000
# 5 0.000000 0.000000 0.000000 0.000000 0.015247 0.000000
# 6 0.000000 0.000000 0.000000 0.000000 0.000000 0.061913
#
#
# Mechanical properties :
#
#
# Convention : Reuss Voigt Hill
#
# Bulk Modulus (GPa) = 16.27161 16.78537 16.52849
# Shear Modulus (GPa) = 30.58614 45.23003 37.90808
#
# Velocity S-wave (km/s) = 3.59612 4.37305 4.00348
# Velocity P-wave (km/s) = 4.91146 5.70921 5.32530
#
# Compressibility (1/GPa) = 0.06145675
#
# Stress axis : x y z
#
# Youngs Moduli (GPa) = 49.56006 42.46304 70.40283
#
# Poissons Ratio (x) = 0.03396 -0.04228
# Poissons Ratio (y) = 0.03964 -0.13812
# Poissons Ratio (z) = -0.02977 -0.08331
#
# Static dielectric constant tensor:
#      x y z
#    x 1.977180 0.000000 0.000000 
#    y 0.000000 1.845270 0.000000 
#    z 0.000000 0.000000 1.895660 
# 
# From -- ./inp_files/11332.got.cif
#   From: 2010.05.17/outbox.cif.g08.bks.cpg/sg62_6_cif.got.tgz:11332.got - 2010.06.03 15:25:27.
