data_PCOD9466087
_publ_section_title
;
Structure prediction by ZEFSAII (Michael W. Deem and Ramdas Pophale) SiO2 
 PCOD9466087
Probable space group: P N M A
;
_chemical_formula_sum "Si O2"
_cell_formula_units_Z 64
_cell_length_a 14.886339
_cell_length_b 7.789428
_cell_length_c 25.778407
_cell_angle_alpha 90.000000
_cell_angle_beta 90.000000
_cell_angle_gamma 90.000000
_cell_volume 2989.162659
_symmetry_space_group_name_H-M "P N M A"
_symmetry_group_IT_number 62
_symmetry_cell_setting 'orthorhombic'
loop_
_space_group_symop_operation_xyz
x,y,z
1/2-x,-y,1/2+z
1/2+x,1/2-y,1/2-z
-x,1/2+y,-z
-x,-y,-z
1/2+x,y,1/2-z
1/2-x,1/2+y,1/2+z
x,1/2-y,z
loop_
_atom_site_type_symbol
_atom_site_label
_atom_site_fract_x
_atom_site_fract_y
_atom_site_fract_z
Si Si1 0.658656 0.550158 0.214009
Si Si2 0.448891 0.454734 0.552616
Si Si3 0.717651 0.050177 0.102474
Si Si4 0.604515 0.456846 0.005166
Si Si5 0.750230 0.460134 0.922372
Si Si6 0.286332 0.542934 0.194016
Si Si7 0.036633 0.545408 0.749756
Si Si8 0.092207 0.546617 0.862801
O O1 0.681138 0.750000 0.205796
O O2 0.672550 0.460701 0.158918
O O3 0.723624 0.479048 0.259016
O O4 0.557597 0.534656 0.234022
O O5 0.500000 0.500000 0.500000
O O6 0.446635 0.250000 0.557298
O O7 0.345899 0.515690 0.554225
O O8 0.506775 0.523016 0.600629
O O9 0.730928 0.250000 0.088122
O O10 0.653139 0.977874 0.057778
O O11 0.817698 0.974186 0.110278
O O12 0.607940 0.250000 0.005673
O O13 0.500000 0.500000 0.000000
O O14 0.666213 0.516526 0.957156
O O15 0.749405 0.250000 0.922460
O O16 0.742494 0.517363 0.862811
O O17 0.279064 0.750000 0.193745
O O18 0.387480 0.492832 0.207550
O O19 0.023470 0.750000 0.753782
O O20 0.072213 0.477681 0.805345
O O21 0.108540 0.750000 0.856003
#
# Coordination Sequence:
#
# PCOD9466087 Si02
#       8
#     8   8   8   8   8   8   8   8
#     4  11  23  38  60  90 124 160 204 255 301 361
#     4  11  22  38  63  91 122 158 202 250 305 367
#     4  10  21  40  62  85 120 161 203 249 305 368
#     4  10  22  40  62  85 115 155 202 252 302 357
#     4   9  20  40  62  84 117 160 197 245 308 363
#     4  10  21  39  62  89 120 157 203 248 300 358
#     4  11  23  38  60  88 122 161 199 246 306 370
#     4  10  21  39  62  89 123 160 198 245 305 369
#
# _framework density 21.410677
#
# number of rings (size 3 to 8) (size 9 to 14) (size 15 to 20)
#    0.000    1.750    1.250    2.625    1.750    5.500 
#    0.000    3.750    0.000    0.000    0.000    0.000 
#    0.000    0.000    0.000    0.000    0.000    0.000 
#
# Total GULP energy -357680.742333 kJ/mol
# GULP energy per Si atom -5588.761599 kJ/mol
# Density = 2.136195 g / cm^3
# Si number density = 21.410677 Si / 1000 Ang^3
#
#
#
# Elastic Constant Matrix: (Units=GPa)
#
#
# Indices 1 2 3 4 5 6 
#
# 1 135.4916 -15.6880 31.9328 0.0000 0.0000 0.0000
# 2 -15.6880 22.0726 -11.5226 0.0000 0.0000 0.0000
# 3 31.9328 -11.5226 96.2976 0.0000 0.0000 0.0000
# 4 0.0000 0.0000 0.0000 2.5283 0.0000 0.0000
# 5 0.0000 0.0000 0.0000 0.0000 39.1472 0.0000
# 6 0.0000 0.0000 0.0000 0.0000 0.0000 -60.1683
#
#
#
# Elastic Compliance Matrix: (Units=1/GPa)
#
#
# Indices 1 2 3 4 5 6 
#
# 1 0.008468 0.004856 -0.002227 0.000000 0.000000 0.000000
# 2 0.004856 0.051108 0.004505 0.000000 0.000000 0.000000
# 3 -0.002227 0.004505 0.011662 0.000000 0.000000 0.000000
# 4 0.000000 0.000000 0.000000 0.395529 0.000000 0.000000
# 5 0.000000 0.000000 0.000000 0.000000 0.025545 0.000000
# 6 0.000000 0.000000 0.000000 0.000000 0.000000 -0.016620
#
#
# Mechanical properties :
#
#
# Convention : Reuss Voigt Hill
#
# Bulk Modulus (GPa) = 11.69506 29.25625 20.47566
# Shear Modulus (GPa) = 10.20564 12.91072 11.55818
#
# Velocity S-wave (km/s) = 2.18563 2.45828 2.32595
# Velocity P-wave (km/s) = 3.44142 4.66385 4.09847
#
# Compressibility (1/GPa) = 0.08550615
#
# Stress axis : x y z
#
# Youngs Moduli (GPa) = 118.09733 19.56631 85.74855
#
# Poissons Ratio (x) = -0.09501 0.19095
# Poissons Ratio (y) = -0.57346 -0.38632
# Poissons Ratio (z) = 0.26299 -0.08815
#
# Static dielectric constant tensor:
#      x y z
#    x 1.750320 0.000000 0.000000 
#    y 0.000000 1.806570 0.000000 
#    z 0.000000 0.000000 1.757440 
# 
# From -- ./inp_files/29776.got.cif
#   From: 2010.05.17/outbox.cif.g08.bks.cpg/sg62_15_cif.got.tgz:29776.got - 2010.06.03 15:25:27.
