data_PCOD9466088
_publ_section_title
;
Structure prediction by ZEFSAII (Michael W. Deem and Ramdas Pophale) SiO2 
 PCOD9466088
Probable space group: P N M A
;
_chemical_formula_sum "Si O2"
_cell_formula_units_Z 44
_cell_length_a 29.829606
_cell_length_b 7.262589
_cell_length_c 7.331711
_cell_angle_alpha 90.000000
_cell_angle_beta 90.000000
_cell_angle_gamma 90.000000
_cell_volume 1588.343106
_symmetry_space_group_name_H-M "P N M A"
_symmetry_group_IT_number 62
_symmetry_cell_setting 'orthorhombic'
loop_
_space_group_symop_operation_xyz
x,y,z
1/2-x,-y,1/2+z
1/2+x,1/2-y,1/2-z
-x,1/2+y,-z
-x,-y,-z
1/2+x,y,1/2-z
1/2-x,1/2+y,1/2+z
x,1/2-y,z
loop_
_atom_site_type_symbol
_atom_site_label
_atom_site_fract_x
_atom_site_fract_y
_atom_site_fract_z
Si Si1 0.515824 0.533863 0.293826
Si Si2 0.918563 0.463304 0.322674
Si Si3 0.288834 0.967292 0.258378
Si Si4 0.913005 0.750000 0.636512
Si Si5 0.189112 0.970147 0.342171
Si Si6 0.133044 0.956863 0.026870
O O1 0.500000 0.500000 0.500000
O O2 0.523553 0.750000 0.262161
O O3 0.472356 0.474702 0.177098
O O4 0.558589 0.410956 0.251946
O O5 0.904661 0.250000 0.342584
O O6 0.901077 0.591266 0.480331
O O7 0.900527 0.532301 0.125783
O O8 0.288123 0.750000 0.295030
O O9 0.237699 0.034144 0.269259
O O10 0.307995 0.997588 0.056963
O O11 0.320636 0.052514 0.410685
O O12 0.185951 0.750000 0.314484
O O13 0.149855 0.054175 0.213360
O O14 0.116747 0.750000 0.066512
#
# Coordination Sequence:
#
# PCOD9466088 Si02
#       6
#     8   8   8   4   8   8
#     4  12  24  43  69 101 136 175 222 277 332 401
#     4  11  24  43  68  98 132 178 221 275 344 395
#     4  11  22  36  63  94 122 165 220 266 324 393
#     4  12  24  42  74  96 134 170 230 264 330 406
#     4  10  21  39  62  89 125 170 215 268 325 391
#     4  10  23  44  64  89 135 171 214 273 335 395
#
# _framework density 27.701823000000001
#
# number of rings (size 3 to 8) (size 9 to 14) (size 15 to 20)
#    0.000    1.091    4.545    1.636    1.273    1.455 
#    3.273    0.000    0.000    0.000    0.000    0.000 
#    0.000    0.000    0.000    0.000    0.000    0.000 
#
# Total GULP energy -245936.311474 kJ/mol
# GULP energy per Si atom -5589.461624 kJ/mol
# Density = 2.763877 g / cm^3
# Si number density = 27.701823 Si / 1000 Ang^3
#
#
#
# Elastic Constant Matrix: (Units=GPa)
#
#
# Indices 1 2 3 4 5 6 
#
# 1 125.3794 -38.2333 15.6237 0.0000 0.0000 0.0000
# 2 -38.2333 188.4608 -12.0700 0.0000 0.0000 0.0000
# 3 15.6237 -12.0700 176.5099 0.0000 0.0000 0.0000
# 4 0.0000 0.0000 0.0000 51.2592 0.0000 0.0000
# 5 0.0000 0.0000 0.0000 0.0000 64.5640 0.0000
# 6 0.0000 0.0000 0.0000 0.0000 0.0000 -26.9581
#
#
#
# Elastic Compliance Matrix: (Units=1/GPa)
#
#
# Indices 1 2 3 4 5 6 
#
# 1 0.008574 0.001698 -0.000643 0.000000 0.000000 0.000000
# 2 0.001698 0.005666 0.000237 0.000000 0.000000 0.000000
# 3 -0.000643 0.000237 0.005739 0.000000 0.000000 0.000000
# 4 0.000000 0.000000 0.000000 0.019509 0.000000 0.000000
# 5 0.000000 0.000000 0.000000 0.000000 0.015489 0.000000
# 6 0.000000 0.000000 0.000000 0.000000 0.000000 -0.037095
#
#
# Mechanical properties :
#
#
# Convention : Reuss Voigt Hill
#
# Bulk Modulus (GPa) = 44.31997 46.77677 45.54837
# Shear Modulus (GPa) = 219.13810 52.77499 135.95654
#
# Velocity S-wave (km/s) = 8.90381 4.36949 7.01321
# Velocity P-wave (km/s) = 11.03346 6.50992 9.05860
#
# Compressibility (1/GPa) = 0.02256319
#
# Stress axis : x y z
#
# Youngs Moduli (GPa) = 116.63518 176.49613 174.26110
#
# Poissons Ratio (x) = -0.29973 0.11201
# Poissons Ratio (y) = -0.19807 -0.04132
# Poissons Ratio (z) = 0.07497 -0.04185
#
# Static dielectric constant tensor:
#      x y z
#    x 2.258430 0.000000 0.000000 
#    y 0.000000 1.990740 0.000000 
#    z 0.000000 0.000000 2.161800 
# 
# From -- ./inp_files/10044.got.cif
#   From: 2010.05.17/outbox.cif.g08.bks.cpg/sg62_6_cif.got.tgz:10044.got - 2010.06.03 15:25:27.
