data_PCOD9466511
_publ_section_title
;
Structure prediction by ZEFSAII (Michael W. Deem and Ramdas Pophale) SiO2 
 PCOD9466511
Probable space group: P N M A
;
_chemical_formula_sum "Si O2"
_cell_formula_units_Z 32
_cell_length_a 23.271642
_cell_length_b 11.360953
_cell_length_c 5.090734
_cell_angle_alpha 90.000000
_cell_angle_beta 90.000000
_cell_angle_gamma 90.000000
_cell_volume 1345.929139
_symmetry_space_group_name_H-M "P N M A"
_symmetry_group_IT_number 62
_symmetry_cell_setting 'orthorhombic'
loop_
_space_group_symop_operation_xyz
x,y,z
1/2-x,-y,1/2+z
1/2+x,1/2-y,1/2-z
-x,1/2+y,-z
-x,-y,-z
1/2+x,y,1/2-z
1/2-x,1/2+y,1/2+z
x,1/2-y,z
loop_
_atom_site_type_symbol
_atom_site_label
_atom_site_fract_x
_atom_site_fract_y
_atom_site_fract_z
Si Si1 0.566288 0.491147 0.091654
Si Si2 0.673183 0.010239 0.746703
Si Si3 0.954243 0.250000 0.721158
Si Si4 0.290280 0.120980 0.750930
Si Si5 0.963072 0.750000 0.783591
O O1 0.609476 0.467346 0.850421
O O2 0.577544 0.623382 0.202687
O O3 0.570353 0.374574 0.273780
O O4 0.500000 0.500000 0.000000
O O5 0.695548 0.909009 0.948022
O O6 0.721467 0.109452 0.787680
O O7 0.680542 0.970529 0.447935
O O8 0.998428 0.250000 0.478616
O O9 0.992288 0.250000 0.980557
O O10 0.309192 0.250000 0.677916
#
# Coordination Sequence:
#
# PCOD9466511 Si02
#       5
#     8   8   4   8   4
#     4  10  23  42  65  96 130 168 211 263 318 388
#     4  10  23  40  63  97 120 168 212 263 321 379
#     4  10  22  38  60  88 124 166 204 250 301 372
#     4  10  22  41  65  89 128 162 215 266 320 375
#     4  10  22  40  60  84 128 166 204 246 309 370
#
# _framework density 23.775400000000001
#
# number of rings (size 3 to 8) (size 9 to 14) (size 15 to 20)
#    0.000    2.000    0.000    1.500    5.250    8.000 
#    0.000    0.000    0.000    0.000    0.000    0.000 
#    0.000    0.000    0.000    0.000    0.000    0.000 
#
# Total GULP energy -178711.158357 kJ/mol
# GULP energy per Si atom -5584.723699 kJ/mol
# Density = 2.372129 g / cm^3
# Si number density = 23.775400 Si / 1000 Ang^3
#
#
#
# Elastic Constant Matrix: (Units=GPa)
#
#
# Indices 1 2 3 4 5 6 
#
# 1 130.9362 17.7725 5.8097 0.0000 0.0000 0.0000
# 2 17.7725 173.4152 19.0431 0.0000 0.0000 0.0000
# 3 5.8097 19.0431 103.3135 0.0000 0.0000 0.0000
# 4 0.0000 0.0000 0.0000 11.0749 0.0000 0.0000
# 5 0.0000 0.0000 0.0000 0.0000 44.8894 0.0000
# 6 0.0000 0.0000 0.0000 0.0000 0.0000 32.6738
#
#
#
# Elastic Compliance Matrix: (Units=1/GPa)
#
#
# Indices 1 2 3 4 5 6 
#
# 1 0.007754 -0.000762 -0.000296 0.000000 0.000000 0.000000
# 2 -0.000762 0.005961 -0.001056 0.000000 0.000000 0.000000
# 3 -0.000296 -0.001056 0.009891 0.000000 0.000000 0.000000
# 4 0.000000 0.000000 0.000000 0.090295 0.000000 0.000000
# 5 0.000000 0.000000 0.000000 0.000000 0.022277 0.000000
# 6 0.000000 0.000000 0.000000 0.000000 0.000000 0.030606
#
#
# Mechanical properties :
#
#
# Convention : Reuss Voigt Hill
#
# Bulk Modulus (GPa) = 51.60534 54.76840 53.18687
# Shear Modulus (GPa) = 28.17402 42.06357 35.11879
#
# Velocity S-wave (km/s) = 3.44613 4.21076 3.84748
# Velocity P-wave (km/s) = 6.13081 6.83567 6.49281
#
# Compressibility (1/GPa) = 0.01937784
#
# Stress axis : x y z
#
# Youngs Moduli (GPa) = 128.96770 167.76936 101.10705
#
# Poissons Ratio (x) = 0.12787 0.02988
# Poissons Ratio (y) = 0.09830 0.10675
# Poissons Ratio (z) = 0.03812 0.17713
#
# Static dielectric constant tensor:
#      x y z
#    x 1.960080 0.000000 0.000000 
#    y 0.000000 1.945880 0.000000 
#    z 0.000000 0.000000 1.821520 
# 
# From -- ./inp_files/2012.got.cif
#   From: 2010.05.17/outbox.cif.g08.bks.cpg/sg62_2_cif.got.tgz:2012.got - 2010.06.03 15:25:27.
