data_PCOD9466200
_publ_section_title
;
Structure prediction by ZEFSAII (Michael W. Deem and Ramdas Pophale) SiO2 
 PCOD9466200
Probable space group: P N M A
;
_chemical_formula_sum "Si O2"
_cell_formula_units_Z 64
_cell_length_a 31.410140
_cell_length_b 7.715124
_cell_length_c 12.183408
_cell_angle_alpha 90.000000
_cell_angle_beta 90.000000
_cell_angle_gamma 90.000000
_cell_volume 2952.443333
_symmetry_space_group_name_H-M "P N M A"
_symmetry_group_IT_number 62
_symmetry_cell_setting 'orthorhombic'
loop_
_space_group_symop_operation_xyz
x,y,z
1/2-x,-y,1/2+z
1/2+x,1/2-y,1/2-z
-x,1/2+y,-z
-x,-y,-z
1/2+x,y,1/2-z
1/2-x,1/2+y,1/2+z
x,1/2-y,z
loop_
_atom_site_type_symbol
_atom_site_label
_atom_site_fract_x
_atom_site_fract_y
_atom_site_fract_z
Si Si1 0.540740 0.448105 0.725574
Si Si2 0.370949 0.458651 0.651425
Si Si3 0.840614 0.954301 0.491890
Si Si4 0.048511 0.536972 0.291301
Si Si5 0.708506 0.042276 0.205974
Si Si6 0.436825 0.050896 0.033224
Si Si7 0.876867 0.047181 0.094996
Si Si8 0.196581 0.961246 0.742142
O O1 0.539520 0.250000 0.688184
O O2 0.492781 0.519560 0.722721
O O3 0.552623 0.454085 0.854667
O O4 0.578029 0.534771 0.656443
O O5 0.375132 0.250000 0.650385
O O6 0.407726 0.521107 0.734829
O O7 0.324434 0.501768 0.697073
O O8 0.377682 0.525829 0.527979
O O9 0.849229 0.750000 0.508699
O O10 0.813234 0.022055 0.594018
O O11 0.885953 0.046040 0.482609
O O12 0.815624 0.978509 0.379007
O O13 0.048254 0.750000 0.294528
O O14 0.045041 0.480823 0.418244
O O15 0.711631 0.250000 0.196262
O O16 0.756245 0.978570 0.225595
O O17 0.450404 0.250000 0.047702
O O18 0.866717 0.250000 0.082257
O O19 0.839707 0.975616 0.173344
O O20 0.195883 0.750000 0.741240
#
# Coordination Sequence:
#
# PCOD9466200 Si02
#       8
#     8   8   8   8   8   8   8   8
#     4  11  22  37  58  85 118 152 192 244 291 340
#     4  10  21  40  63  84 113 156 199 236 285 349
#     4  11  22  37  61  91 119 149 191 241 290 339
#     4   9  20  37  58  86 117 151 193 240 290 344
#     4  10  23  40  59  88 122 151 189 242 292 336
#     4  11  20  36  60  86 119 153 190 234 289 351
#     4  10  22  39  60  83 113 154 196 237 286 347
#     4  10  22  40  59  83 119 157 189 233 289 342
#
# _framework density 21.676963000000001
#
# number of rings (size 3 to 8) (size 9 to 14) (size 15 to 20)
#    0.000    1.750    2.500    1.500    1.750    2.000 
#    0.000    3.125    0.000    0.000    0.000    0.000 
#    0.000    0.000    0.000    0.000    0.000    0.000 
#
# Total GULP energy -357691.038554 kJ/mol
# GULP energy per Si atom -5588.922477 kJ/mol
# Density = 2.162762 g / cm^3
# Si number density = 21.676963 Si / 1000 Ang^3
#
#
#
# Elastic Constant Matrix: (Units=GPa)
#
#
# Indices 1 2 3 4 5 6 
#
# 1 75.0459 -2.7205 -11.3119 0.0000 0.0000 0.0000
# 2 -2.7205 38.6287 -3.6048 0.0000 0.0000 0.0000
# 3 -11.3119 -3.6048 63.3471 0.0000 0.0000 0.0000
# 4 0.0000 0.0000 0.0000 -2.6256 0.0000 0.0000
# 5 0.0000 0.0000 0.0000 0.0000 9.4862 0.0000
# 6 0.0000 0.0000 0.0000 0.0000 0.0000 28.5590
#
#
#
# Elastic Compliance Matrix: (Units=1/GPa)
#
#
# Indices 1 2 3 4 5 6 
#
# 1 0.013749 0.001204 0.002524 0.000000 0.000000 0.000000
# 2 0.001204 0.026131 0.001702 0.000000 0.000000 0.000000
# 3 0.002524 0.001702 0.016334 0.000000 0.000000 0.000000
# 4 0.000000 0.000000 0.000000 -0.380862 0.000000 0.000000
# 5 0.000000 0.000000 0.000000 0.000000 0.105417 0.000000
# 6 0.000000 0.000000 0.000000 0.000000 0.000000 0.035015
#
#
# Mechanical properties :
#
#
# Convention : Reuss Voigt Hill
#
# Bulk Modulus (GPa) = 14.90917 15.74971 15.32944
# Shear Modulus (GPa) = -28.94894 20.06118 -4.44388
#
# Velocity S-wave (km/s) = -3.65837 3.04544 -1.43335
# Velocity P-wave (km/s) = 3.30940 4.43257 2.08513
#
# Compressibility (1/GPa) = 0.06707283
#
# Stress axis : x y z
#
# Youngs Moduli (GPa) = 72.73137 38.26862 61.22364
#
# Poissons Ratio (x) = -0.04607 -0.15451
# Poissons Ratio (y) = -0.08756 -0.10420
# Poissons Ratio (z) = -0.18355 -0.06513
#
# Static dielectric constant tensor:
#      x y z
#    x 1.774580 0.000000 0.000000 
#    y 0.000000 1.808860 0.000000 
#    z 0.000000 0.000000 1.762770 
# 
# From -- ./inp_files/15787.got.cif
#   From: 2010.05.17/outbox.cif.g08.bks.cpg/sg62_8_cif.got.tgz:15787.got - 2010.06.03 15:25:27.
