data_PCOD9466452
_publ_section_title
;
Structure prediction by ZEFSAII (Michael W. Deem and Ramdas Pophale) SiO2 
 PCOD9466452
Probable space group: P N M A
;
_chemical_formula_sum "Si O2"
_cell_formula_units_Z 48
_cell_length_a 17.886433
_cell_length_b 23.384640
_cell_length_c 5.387650
_cell_angle_alpha 90.000000
_cell_angle_beta 90.000000
_cell_angle_gamma 90.000000
_cell_volume 2253.480494
_symmetry_space_group_name_H-M "P N M A"
_symmetry_group_IT_number 62
_symmetry_cell_setting 'orthorhombic'
loop_
_space_group_symop_operation_xyz
x,y,z
1/2-x,-y,1/2+z
1/2+x,1/2-y,1/2-z
-x,1/2+y,-z
-x,-y,-z
1/2+x,y,1/2-z
1/2-x,1/2+y,1/2+z
x,1/2-y,z
loop_
_atom_site_type_symbol
_atom_site_label
_atom_site_fract_x
_atom_site_fract_y
_atom_site_fract_z
Si Si1 0.376074 0.890069 0.121151
Si Si2 0.342103 0.515843 0.495170
Si Si3 0.260206 0.096140 0.346135
Si Si4 0.981899 0.955226 0.711690
Si Si5 0.087965 0.857192 0.712155
Si Si6 0.008358 0.816196 0.205298
O O1 0.353957 0.951528 0.236222
O O2 0.430959 0.853193 0.295109
O O3 0.297321 0.868271 0.017590
O O4 0.429409 0.904274 0.891646
O O5 0.289496 0.559559 0.651095
O O6 0.303073 0.454488 0.494278
O O7 0.426384 0.514377 0.599577
O O8 0.322778 0.136248 0.224585
O O9 0.056839 0.921096 0.763637
O O10 0.000000 0.000000 0.500000
O O11 0.058303 0.836396 0.443097
O O12 0.053404 0.823429 0.947278
O O13 0.989450 0.750000 0.242255
#
# Coordination Sequence:
#
# PCOD9466452 Si02
#       6
#     8   8   8   8   8   8
#     4  10  22  40  60  92 128 175 220 264 327 397
#     4  11  21  37  57  94 138 182 213 250 328 409
#     4  11  24  35  61  95 141 177 209 258 331 411
#     4  10  22  35  59  95 134 177 219 258 319 403
#     4  11  25  42  69  98 130 171 220 281 330 389
#     4  11  25  49  72  92 121 170 234 294 339 379
#
# _framework density 21.300384999999999
#
# number of rings (size 3 to 8) (size 9 to 14) (size 15 to 20)
#    0.000    1.333    3.333    1.500    9.333    1.333 
#    0.000    1.667    0.000    0.000    0.000    0.000 
#    0.000    0.000    0.000    0.000    0.000    0.000 
#
# Total GULP energy -267706.483846 kJ/mol
# GULP energy per Si atom -5577.218413 kJ/mol
# Density = 2.125190 g / cm^3
# Si number density = 21.300385 Si / 1000 Ang^3
#
#
#
# Elastic Constant Matrix: (Units=GPa)
#
#
# Indices 1 2 3 4 5 6 
#
# 1 134.5142 4.8877 16.5519 0.0000 0.0000 0.0000
# 2 4.8877 52.7348 -3.0068 0.0000 0.0000 0.0000
# 3 16.5519 -3.0068 65.2686 0.0000 0.0000 0.0000
# 4 0.0000 0.0000 0.0000 22.9493 0.0000 0.0000
# 5 0.0000 0.0000 0.0000 0.0000 35.6975 0.0000
# 6 0.0000 0.0000 0.0000 0.0000 0.0000 16.6740
#
#
#
# Elastic Compliance Matrix: (Units=1/GPa)
#
#
# Indices 1 2 3 4 5 6 
#
# 1 0.007710 -0.000828 -0.001993 0.000000 0.000000 0.000000
# 2 -0.000828 0.019102 0.001090 0.000000 0.000000 0.000000
# 3 -0.001993 0.001090 0.015877 0.000000 0.000000 0.000000
# 4 0.000000 0.000000 0.000000 0.043574 0.000000 0.000000
# 5 0.000000 0.000000 0.000000 0.000000 0.028013 0.000000
# 6 0.000000 0.000000 0.000000 0.000000 0.000000 0.059974
#
#
# Mechanical properties :
#
#
# Convention : Reuss Voigt Hill
#
# Bulk Modulus (GPa) = 25.49373 32.15369 28.82371
# Shear Modulus (GPa) = 26.20718 30.66980 28.43849
#
# Velocity S-wave (km/s) = 3.51146 3.79868 3.65789
# Velocity P-wave (km/s) = 5.33246 5.86243 5.60371
#
# Compressibility (1/GPa) = 0.03922534
#
# Stress axis : x y z
#
# Youngs Moduli (GPa) = 129.70974 52.35130 62.98417
#
# Poissons Ratio (x) = 0.04336 0.12554
# Poissons Ratio (y) = 0.10743 -0.06865
# Poissons Ratio (z) = 0.25855 -0.05706
#
# Static dielectric constant tensor:
#      x y z
#    x 1.828370 0.000000 0.000000 
#    y 0.000000 2.637170 0.000000 
#    z 0.000000 0.000000 1.917290 
# 
# From -- ./inp_files/1130.got.cif
#   From: 2010.05.17/outbox.cif.g08.bks.cpg/sg62_1_cif.got.tgz:1130.got - 2010.06.03 15:25:27.
