data_PCOD9466967
_publ_section_title
;
Structure prediction by ZEFSAII (Michael W. Deem and Ramdas Pophale) SiO2 
 PCOD9466967
Probable space group: P N M A
;
_chemical_formula_sum "Si O2"
_cell_formula_units_Z 40
_cell_length_a 13.082838
_cell_length_b 8.397412
_cell_length_c 17.534579
_cell_angle_alpha 90.000000
_cell_angle_beta 90.000000
_cell_angle_gamma 90.000000
_cell_volume 1926.383582
_symmetry_space_group_name_H-M "P N M A"
_symmetry_group_IT_number 62
_symmetry_cell_setting 'orthorhombic'
loop_
_space_group_symop_operation_xyz
x,y,z
1/2-x,-y,1/2+z
1/2+x,1/2-y,1/2-z
-x,1/2+y,-z
-x,-y,-z
1/2+x,y,1/2-z
1/2-x,1/2+y,1/2+z
x,1/2-y,z
loop_
_atom_site_type_symbol
_atom_site_label
_atom_site_fract_x
_atom_site_fract_y
_atom_site_fract_z
Si Si1 0.080789 0.058552 0.600791
Si Si2 0.213663 0.940965 0.181688
Si Si3 0.621307 0.440170 0.068347
Si Si4 0.194723 0.940604 0.836174
Si Si5 0.985198 0.558403 0.911533
O O1 0.081542 0.250000 0.600642
O O2 0.177474 0.003377 0.647685
O O3 0.100418 0.995559 0.515684
O O4 0.967848 0.003843 0.623187
O O5 0.206395 0.750000 0.176462
O O6 0.234612 0.988926 0.269059
O O7 0.119144 0.007850 0.132154
O O8 0.611108 0.250000 0.067460
O O9 0.736395 0.475876 0.090193
O O10 0.189972 0.750000 0.823811
O O11 0.080564 0.996683 0.857260
O O12 0.988911 0.750000 0.914693
O O13 0.000000 0.500000 0.000000
#
# Coordination Sequence:
#
# PCOD9466967 Si02
#       5
#     8   8   8   8   8
#     4   9  19  36  57  84 116 151 193 246 302 358
#     4  11  24  40  61  90 127 164 208 261 313 373
#     4   9  18  35  59  83 112 150 194 243 299 362
#     4  10  23  41  61  88 124 164 207 259 315 370
#     4  11  24  44  69  95 129 171 218 267 321 387
#
# _framework density 20.764296000000002
#
# number of rings (size 3 to 8) (size 9 to 14) (size 15 to 20)
#    0.000    2.000    0.000    2.400    2.800    7.200 
#    0.000    4.000    0.000    0.000    0.000    0.000 
#    0.000    0.000    0.000    0.000    0.000    0.000 
#
# Total GULP energy -222771.277372 kJ/mol
# GULP energy per Si atom -5569.281934 kJ/mol
# Density = 2.071704 g / cm^3
# Si number density = 20.764296 Si / 1000 Ang^3
#
#
#
# Elastic Constant Matrix: (Units=GPa)
#
#
# Indices 1 2 3 4 5 6 
#
# 1 97.1346 10.1050 3.8764 0.0000 0.0000 0.0000
# 2 10.1050 19.9792 8.5944 0.0000 0.0000 0.0000
# 3 3.8764 8.5944 50.8342 0.0000 0.0000 0.0000
# 4 0.0000 0.0000 0.0000 25.8544 0.0000 0.0000
# 5 0.0000 0.0000 0.0000 0.0000 34.1670 0.0000
# 6 0.0000 0.0000 0.0000 0.0000 0.0000 30.4809
#
#
#
# Elastic Compliance Matrix: (Units=1/GPa)
#
#
# Indices 1 2 3 4 5 6 
#
# 1 0.010867 -0.005543 0.000108 0.000000 0.000000 0.000000
# 2 -0.005543 0.056805 -0.009181 0.000000 0.000000 0.000000
# 3 0.000108 -0.009181 0.021216 0.000000 0.000000 0.000000
# 4 0.000000 0.000000 0.000000 0.038678 0.000000 0.000000
# 5 0.000000 0.000000 0.000000 0.000000 0.029268 0.000000
# 6 0.000000 0.000000 0.000000 0.000000 0.000000 0.032807
#
#
# Mechanical properties :
#
#
# Convention : Reuss Voigt Hill
#
# Bulk Modulus (GPa) = 16.76264 23.67773 20.22019
# Shear Modulus (GPa) = 20.94166 27.79193 24.36679
#
# Velocity S-wave (km/s) = 3.17920 3.66245 3.42935
# Velocity P-wave (km/s) = 4.64400 5.41411 5.04377
#
# Compressibility (1/GPa) = 0.05965646
#
# Stress axis : x y z
#
# Youngs Moduli (GPa) = 92.01905 17.60412 47.13483
#
# Poissons Ratio (x) = 0.09758 -0.00511
# Poissons Ratio (y) = 0.51007 0.43275
# Poissons Ratio (z) = -0.00998 0.16163
#
# Static dielectric constant tensor:
#      x y z
#    x 1.823190 0.000000 0.000000 
#    y 0.000000 1.720900 0.000000 
#    z 0.000000 0.000000 2.020860 
# 
# From -- ./inp_files/22778.got.cif
#   From: 2010.05.17/outbox.cif.g08.bks.cpg/sg62_12_cif.got.tgz:22778.got - 2010.06.03 15:25:27.
