data_PCOD9466774
_publ_section_title
;
Structure prediction by ZEFSAII (Michael W. Deem and Ramdas Pophale) SiO2 
 PCOD9466774
Probable space group: P N M A
;
_chemical_formula_sum "Si O2"
_cell_formula_units_Z 56
_cell_length_a 14.737985
_cell_length_b 13.494778
_cell_length_c 13.246430
_cell_angle_alpha 90.000000
_cell_angle_beta 90.000000
_cell_angle_gamma 90.000000
_cell_volume 2634.527301
_symmetry_space_group_name_H-M "P N M A"
_symmetry_group_IT_number 62
_symmetry_cell_setting 'orthorhombic'
loop_
_space_group_symop_operation_xyz
x,y,z
1/2-x,-y,1/2+z
1/2+x,1/2-y,1/2-z
-x,1/2+y,-z
-x,-y,-z
1/2+x,y,1/2-z
1/2-x,1/2+y,1/2+z
x,1/2-y,z
loop_
_atom_site_type_symbol
_atom_site_label
_atom_site_fract_x
_atom_site_fract_y
_atom_site_fract_z
Si Si1 0.484853 0.137730 0.763854
Si Si2 0.771653 0.544686 0.698771
Si Si3 0.578272 0.976765 0.422664
Si Si4 0.757603 0.633269 0.912756
Si Si5 0.215178 0.859516 0.982567
Si Si6 0.906568 0.458761 0.548882
Si Si7 0.803809 0.637748 0.312487
O O1 0.469410 0.250000 0.726177
O O2 0.456057 0.048652 0.689165
O O3 0.436742 0.125067 0.871619
O O4 0.592365 0.126885 0.782352
O O5 0.755550 0.619942 0.790723
O O6 0.700578 0.569270 0.611650
O O7 0.859884 0.539695 0.625605
O O8 0.755196 0.438761 0.749281
O O9 0.625208 0.873710 0.453524
O O10 0.500000 0.000000 0.500000
O O11 0.654346 0.063167 0.433230
O O12 0.767534 0.750000 0.938295
O O13 0.669453 0.587135 0.971615
O O14 0.231773 0.750000 0.943827
O O15 0.290976 0.880829 0.067950
O O16 0.000000 0.500000 0.500000
O O17 0.774149 0.750000 0.293750
#
# Coordination Sequence:
#
# PCOD9466774 Si02
#       7
#     8   8   8   8   8   8   8
#     4  11  23  42  70 107 140 181 242 299 355 424
#     4  12  21  44  67  99 139 183 229 288 357 426
#     4  12  25  45  69 101 143 187 232 295 354 423
#     4  12  27  48  72 106 146 191 241 299 369 441
#     4  11  22  41  67  94 130 181 229 275 345 420
#     4  12  25  45  77 102 145 190 241 307 374 434
#     4  10  22  41  71 103 135 180 236 293 354 423
#
# _framework density 21.256184999999999
#
# number of rings (size 3 to 8) (size 9 to 14) (size 15 to 20)
#    0.000    0.571    4.286    3.857    0.000    3.429 
#    0.000    2.143    0.000    0.000    0.000    0.000 
#    0.000    0.000    0.000    0.000    0.000    0.000 
#
# Total GULP energy -312083.126884 kJ/mol
# GULP energy per Si atom -5572.912980 kJ/mol
# Density = 2.120781 g / cm^3
# Si number density = 21.256185 Si / 1000 Ang^3
#
#
#
# Elastic Constant Matrix: (Units=GPa)
#
#
# Indices 1 2 3 4 5 6 
#
# 1 123.3561 46.0200 61.4223 0.0000 0.0000 0.0000
# 2 46.0200 126.8553 51.9383 0.0000 0.0000 0.0000
# 3 61.4223 51.9383 145.1952 0.0000 0.0000 0.0000
# 4 0.0000 0.0000 0.0000 30.1808 0.0000 0.0000
# 5 0.0000 0.0000 0.0000 0.0000 46.0075 0.0000
# 6 0.0000 0.0000 0.0000 0.0000 0.0000 20.9050
#
#
#
# Elastic Compliance Matrix: (Units=1/GPa)
#
#
# Indices 1 2 3 4 5 6 
#
# 1 0.010866 -0.002413 -0.003733 0.000000 0.000000 0.000000
# 2 -0.002413 0.009772 -0.002475 0.000000 0.000000 0.000000
# 3 -0.003733 -0.002475 0.009352 0.000000 0.000000 0.000000
# 4 0.000000 0.000000 0.000000 0.033134 0.000000 0.000000
# 5 0.000000 0.000000 0.000000 0.000000 0.021736 0.000000
# 6 0.000000 0.000000 0.000000 0.000000 0.000000 0.047836
#
#
# Mechanical properties :
#
#
# Convention : Reuss Voigt Hill
#
# Bulk Modulus (GPa) = 78.45053 79.35199 78.90126
# Shear Modulus (GPa) = 32.42850 35.15372 33.79111
#
# Velocity S-wave (km/s) = 3.91013 4.07112 3.99144
# Velocity P-wave (km/s) = 7.57448 7.71434 7.64473
#
# Compressibility (1/GPa) = 0.01274689
#
# Stress axis : x y z
#
# Youngs Moduli (GPa) = 92.03130 102.33694 106.93158
#
# Poissons Ratio (x) = 0.24697 0.39921
# Poissons Ratio (y) = 0.22210 0.26461
# Poissons Ratio (z) = 0.34358 0.25324
#
# Static dielectric constant tensor:
#      x y z
#    x 1.815720 0.000000 0.000000 
#    y 0.000000 1.814940 0.000000 
#    z 0.000000 0.000000 1.799110 
# 
# From -- ./inp_files/13359.got.cif
#   From: 2010.05.17/outbox.cif.g08.bks.cpg/sg62_7_cif.got.tgz:13359.got - 2010.06.03 15:25:27.
