data_PCOD9466938
_publ_section_title
;
Structure prediction by ZEFSAII (Michael W. Deem and Ramdas Pophale) SiO2 
 PCOD9466938
Probable space group: P N M A
;
_chemical_formula_sum "Si O2"
_cell_formula_units_Z 32
_cell_length_a 5.664522
_cell_length_b 19.247935
_cell_length_c 11.024789
_cell_angle_alpha 90.000000
_cell_angle_beta 90.000000
_cell_angle_gamma 90.000000
_cell_volume 1202.036617
_symmetry_space_group_name_H-M "P N M A"
_symmetry_group_IT_number 62
_symmetry_cell_setting 'orthorhombic'
loop_
_space_group_symop_operation_xyz
x,y,z
1/2-x,-y,1/2+z
1/2+x,1/2-y,1/2-z
-x,1/2+y,-z
-x,-y,-z
1/2+x,y,1/2-z
1/2-x,1/2+y,1/2+z
x,1/2-y,z
loop_
_atom_site_type_symbol
_atom_site_label
_atom_site_fract_x
_atom_site_fract_y
_atom_site_fract_z
Si Si1 0.266371 0.373016 0.524793
Si Si2 0.032830 0.982372 0.191273
Si Si3 0.939483 0.750000 0.335841
Si Si4 0.540911 0.361969 0.224325
Si Si5 0.084862 0.250000 0.954088
O O1 0.379586 0.443459 0.571544
O O2 0.082859 0.381816 0.416648
O O3 0.470417 0.317828 0.488407
O O4 0.153720 0.327983 0.634544
O O5 0.259472 0.962688 0.278960
O O6 0.031166 0.065860 0.199751
O O7 0.140920 0.750000 0.439604
O O8 0.986340 0.750000 0.192022
O O9 0.287469 0.327057 0.238714
#
# Coordination Sequence:
#
# PCOD9466938 Si02
#       5
#     8   8   4   8   4
#     4  11  24  40  69  94 133 180 210 284 332 382
#     4  10  23  39  64  98 133 171 216 266 327 398
#     4  11  23  42  65 102 128 170 228 274 330 387
#     4  10  25  45  63  98 136 174 226 264 327 407
#     4  11  23  42  65 102 128 170 228 274 330 387
#
# _framework density 26.621486000000001
#
# number of rings (size 3 to 8) (size 9 to 14) (size 15 to 20)
#    0.000    1.500    2.500    1.500    7.000    8.000 
#    0.000    5.000    0.000    0.000    0.000    0.000 
#    0.000    0.000    0.000    0.000    0.000    0.000 
#
# Total GULP energy -178462.911461 kJ/mol
# GULP energy per Si atom -5576.965983 kJ/mol
# Density = 2.656089 g / cm^3
# Si number density = 26.621486 Si / 1000 Ang^3
#
#
#
# Elastic Constant Matrix: (Units=GPa)
#
#
# Indices 1 2 3 4 5 6 
#
# 1 87.8754 -10.7948 -10.4359 0.0000 0.0000 0.0000
# 2 -10.7948 139.6700 30.6676 0.0000 0.0000 0.0000
# 3 -10.4359 30.6676 92.5492 0.0000 0.0000 0.0000
# 4 0.0000 0.0000 0.0000 18.0266 0.0000 0.0000
# 5 0.0000 0.0000 0.0000 0.0000 56.2090 0.0000
# 6 0.0000 0.0000 0.0000 0.0000 0.0000 19.3921
#
#
#
# Elastic Compliance Matrix: (Units=1/GPa)
#
#
# Indices 1 2 3 4 5 6 
#
# 1 0.011590 0.000657 0.001089 0.000000 0.000000 0.000000
# 2 0.000657 0.007759 -0.002497 0.000000 0.000000 0.000000
# 3 0.001089 -0.002497 0.011755 0.000000 0.000000 0.000000
# 4 0.000000 0.000000 0.000000 0.055474 0.000000 0.000000
# 5 0.000000 0.000000 0.000000 0.000000 0.017791 0.000000
# 6 0.000000 0.000000 0.000000 0.000000 0.000000 0.051567
#
#
# Mechanical properties :
#
#
# Convention : Reuss Voigt Hill
#
# Bulk Modulus (GPa) = 33.78188 37.66314 35.72251
# Shear Modulus (GPa) = 29.88556 39.43606 34.66081
#
# Velocity S-wave (km/s) = 3.35417 3.85302 3.61222
# Velocity P-wave (km/s) = 5.26478 5.82861 5.55386
#
# Compressibility (1/GPa) = 0.02960167
#
# Stress axis : x y z
#
# Youngs Moduli (GPa) = 86.28302 128.88698 85.06804
#
# Poissons Ratio (x) = -0.08462 -0.09266
# Poissons Ratio (y) = -0.05665 0.21241
# Poissons Ratio (z) = -0.09399 0.32182
#
# Static dielectric constant tensor:
#      x y z
#    x 2.548560 0.000000 0.000000 
#    y 0.000000 1.989750 0.000000 
#    z 0.000000 0.000000 2.093250 
# 
# From -- ./inp_files/580.got.cif
#   From: 2010.05.17/outbox.cif.g08.bks.cpg/sg62_1_cif.got.tgz:580.got - 2010.06.03 15:25:27.
