data_PCOD9466483
_publ_section_title
;
Structure prediction by ZEFSAII (Michael W. Deem and Ramdas Pophale) SiO2 
 PCOD9466483
Probable space group: P N M A
;
_chemical_formula_sum "Si O2"
_cell_formula_units_Z 64
_cell_length_a 8.941109
_cell_length_b 23.239292
_cell_length_c 13.698657
_cell_angle_alpha 90.000000
_cell_angle_beta 90.000000
_cell_angle_gamma 90.000000
_cell_volume 2846.376032
_symmetry_space_group_name_H-M "P N M A"
_symmetry_group_IT_number 62
_symmetry_cell_setting 'orthorhombic'
loop_
_space_group_symop_operation_xyz
x,y,z
1/2-x,-y,1/2+z
1/2+x,1/2-y,1/2-z
-x,1/2+y,-z
-x,-y,-z
1/2+x,y,1/2-z
1/2-x,1/2+y,1/2+z
x,1/2-y,z
loop_
_atom_site_type_symbol
_atom_site_label
_atom_site_fract_x
_atom_site_fract_y
_atom_site_fract_z
Si Si1 0.197037 0.590806 0.879778
Si Si2 0.868339 0.316479 0.791600
Si Si3 0.889858 0.597135 0.960087
Si Si4 0.955202 0.928648 0.167118
Si Si5 0.773142 0.006739 0.760381
Si Si6 0.342834 0.818756 0.017806
Si Si7 0.833177 0.505868 0.461313
Si Si8 0.320211 0.183140 0.934154
O O1 0.245416 0.557307 0.780842
O O2 0.276714 0.647568 0.924234
O O3 0.248301 0.544212 0.960490
O O4 0.018967 0.602928 0.880156
O O5 0.925241 0.250000 0.801078
O O6 0.990162 0.367147 0.795432
O O7 0.757103 0.326885 0.883495
O O8 0.800291 0.320197 0.682915
O O9 0.808526 0.652761 0.003756
O O10 0.980188 0.572205 0.052201
O O11 0.757104 0.552814 0.940844
O O12 0.058107 0.978895 0.211514
O O13 0.784274 0.947746 0.179803
O O14 0.675889 0.030080 0.852175
O O15 0.343738 0.750000 0.000841
O O16 0.512610 0.838902 0.039789
O O17 0.000000 0.500000 0.500000
O O18 0.318923 0.250000 0.959255
#
# Coordination Sequence:
#
# PCOD9466483 Si02
#       8
#     8   8   8   8   8   8   8   8
#     4  12  24  43  67  97 133 177 230 281 347 409
#     4  10  22  37  60  94 135 179 223 275 343 423
#     4  12  24  41  64  92 137 174 220 279 337 401
#     4  12  24  41  61  94 133 178 221 271 334 408
#     4  12  26  42  65  94 137 176 229 282 334 409
#     4  10  22  42  65  94 132 178 231 286 347 419
#     4  12  25  43  65  96 134 181 224 275 344 411
#     4  10  24  40  62  97 137 180 228 281 347 424
#
# _framework density 22.484731
#
# number of rings (size 3 to 8) (size 9 to 14) (size 15 to 20)
#    0.000    0.750    3.750    3.375    7.000    1.000 
#    0.000    0.000    0.000    0.750    0.000    4.375 
#    0.000    0.000    0.000    0.000    0.000    0.000 
#
# Total GULP energy -357484.913016 kJ/mol
# GULP energy per Si atom -5585.701766 kJ/mol
# Density = 2.243355 g / cm^3
# Si number density = 22.484731 Si / 1000 Ang^3
#
#
#
# Elastic Constant Matrix: (Units=GPa)
#
#
# Indices 1 2 3 4 5 6 
#
# 1 119.8786 41.6075 19.0957 0.0000 0.0000 0.0000
# 2 41.6075 100.1762 28.6650 0.0000 0.0000 0.0000
# 3 19.0957 28.6650 50.4441 0.0000 0.0000 0.0000
# 4 0.0000 0.0000 0.0000 35.1441 0.0000 0.0000
# 5 0.0000 0.0000 0.0000 0.0000 34.1056 0.0000
# 6 0.0000 0.0000 0.0000 0.0000 0.0000 32.1400
#
#
#
# Elastic Compliance Matrix: (Units=1/GPa)
#
#
# Indices 1 2 3 4 5 6 
#
# 1 0.009865 -0.003617 -0.001679 0.000000 0.000000 0.000000
# 2 -0.003617 0.013247 -0.006158 0.000000 0.000000 0.000000
# 3 -0.001679 -0.006158 0.023959 0.000000 0.000000 0.000000
# 4 0.000000 0.000000 0.000000 0.028454 0.000000 0.000000
# 5 0.000000 0.000000 0.000000 0.000000 0.029321 0.000000
# 6 0.000000 0.000000 0.000000 0.000000 0.000000 0.031114
#
#
# Mechanical properties :
#
#
# Convention : Reuss Voigt Hill
#
# Bulk Modulus (GPa) = 41.38721 49.91504 45.65112
# Shear Modulus (GPa) = 29.95419 32.35332 31.15376
#
# Velocity S-wave (km/s) = 3.65389 3.79740 3.72634
# Velocity P-wave (km/s) = 6.02063 6.44009 6.23389
#
# Compressibility (1/GPa) = 0.02416206
#
# Stress axis : x y z
#
# Youngs Moduli (GPa) = 101.37346 75.48993 41.73788
#
# Poissons Ratio (x) = 0.27303 0.07008
# Poissons Ratio (y) = 0.36664 0.25704
# Poissons Ratio (z) = 0.17021 0.46490
#
# Static dielectric constant tensor:
#      x y z
#    x 2.730390 0.000000 0.000000 
#    y 0.000000 1.895540 0.000000 
#    z 0.000000 0.000000 1.937990 
# 
# From -- ./inp_files/17339.got.cif
#   From: 2010.05.17/outbox.cif.g08.bks.cpg/sg62_9_cif.got.tgz:17339.got - 2010.06.03 15:25:27.
