data_PCOD9466887
_publ_section_title
;
Structure prediction by ZEFSAII (Michael W. Deem and Ramdas Pophale) SiO2 
 PCOD9466887
Probable space group: P N M A
;
_chemical_formula_sum "Si O2"
_cell_formula_units_Z 28
_cell_length_a 14.168832
_cell_length_b 7.702612
_cell_length_c 12.174845
_cell_angle_alpha 90.000000
_cell_angle_beta 90.000000
_cell_angle_gamma 90.000000
_cell_volume 1328.726246
_symmetry_space_group_name_H-M "P N M A"
_symmetry_group_IT_number 62
_symmetry_cell_setting 'orthorhombic'
loop_
_space_group_symop_operation_xyz
x,y,z
1/2-x,-y,1/2+z
1/2+x,1/2-y,1/2-z
-x,1/2+y,-z
-x,-y,-z
1/2+x,y,1/2-z
1/2-x,1/2+y,1/2+z
x,1/2-y,z
loop_
_atom_site_type_symbol
_atom_site_label
_atom_site_fract_x
_atom_site_fract_y
_atom_site_fract_z
Si Si1 0.946503 0.955129 0.112686
Si Si2 0.124035 0.250000 0.421513
Si Si3 0.747775 0.555152 0.012044
Si Si4 0.044505 0.750000 0.718160
Si Si5 0.731024 0.250000 0.309918
O O1 0.955904 0.750000 0.135238
O O2 0.835762 0.994372 0.088691
O O3 0.979642 0.080196 0.209703
O O4 0.000000 0.000000 0.000000
O O5 0.164850 0.418074 0.482246
O O6 0.174105 0.250000 0.301277
O O7 0.014143 0.250000 0.394001
O O8 0.716607 0.750000 0.044495
O O9 0.788777 0.585115 0.889254
O O10 0.156416 0.750000 0.702592
#
# Coordination Sequence:
#
# PCOD9466887 Si02
#       5
#     8   4   8   4   4
#     4  11  20  38  65  94 125 161 218 268 316 359
#     4  12  22  44  65  90 136 166 208 272 320 371
#     4   9  22  42  62  90 129 169 210 261 313 384
#     4  12  24  38  66  96 127 170 211 264 318 392
#     4  10  22  44  61  94 127 164 223 252 312 391
#
# _framework density 21.072814000000001
#
# number of rings (size 3 to 8) (size 9 to 14) (size 15 to 20)
#    0.857    0.571    4.286    1.714    0.000    2.286 
#    5.143    0.000    0.000    0.000    0.000    0.000 
#    0.000    0.000    0.000    0.000    0.000    0.000 
#
# Total GULP energy -156282.914228 kJ/mol
# GULP energy per Si atom -5581.532651 kJ/mol
# Density = 2.102485 g / cm^3
# Si number density = 21.072814 Si / 1000 Ang^3
#
#
#
# Elastic Constant Matrix: (Units=GPa)
#
#
# Indices 1 2 3 4 5 6 
#
# 1 57.7691 15.8120 -15.4171 0.0000 0.0000 0.0000
# 2 15.8120 82.7464 -7.0801 0.0000 0.0000 0.0000
# 3 -15.4171 -7.0801 29.6118 0.0000 0.0000 0.0000
# 4 0.0000 0.0000 0.0000 15.5626 0.0000 0.0000
# 5 0.0000 0.0000 0.0000 0.0000 39.3573 0.0000
# 6 0.0000 0.0000 0.0000 0.0000 0.0000 19.0723
#
#
#
# Elastic Compliance Matrix: (Units=1/GPa)
#
#
# Indices 1 2 3 4 5 6 
#
# 1 0.020865 -0.003121 0.010117 0.000000 0.000000 0.000000
# 2 -0.003121 0.012804 0.001436 0.000000 0.000000 0.000000
# 3 0.010117 0.001436 0.039381 0.000000 0.000000 0.000000
# 4 0.000000 0.000000 0.000000 0.064257 0.000000 0.000000
# 5 0.000000 0.000000 0.000000 0.000000 0.025408 0.000000
# 6 0.000000 0.000000 0.000000 0.000000 0.000000 0.052432
#
#
# Mechanical properties :
#
#
# Convention : Reuss Voigt Hill
#
# Bulk Modulus (GPa) = 11.12186 17.41743 14.26964
# Shear Modulus (GPa) = 21.90535 26.58593 24.24564
#
# Velocity S-wave (km/s) = 3.22764 3.55579 3.39568
# Velocity P-wave (km/s) = 4.37944 5.01412 4.70749
#
# Compressibility (1/GPa) = 0.08991303
#
# Stress axis : x y z
#
# Youngs Moduli (GPa) = 47.92828 78.09761 25.39305
#
# Poissons Ratio (x) = 0.24377 -0.25689
# Poissons Ratio (y) = 0.14960 -0.03647
# Poissons Ratio (z) = -0.48487 -0.11218
#
# Static dielectric constant tensor:
#      x y z
#    x 1.783020 0.000000 0.000000 
#    y 0.000000 1.725150 0.000000 
#    z 0.000000 0.000000 1.786610 
# 
# From -- ./inp_files/12721.got.cif
#   From: 2010.05.17/outbox.cif.g08.bks.cpg/sg62_7_cif.got.tgz:12721.got - 2010.06.03 15:25:27.
