data_PCOD9466282
_publ_section_title
;
Structure prediction by ZEFSAII (Michael W. Deem and Ramdas Pophale) SiO2 
 PCOD9466282
Probable space group: P N M A
;
_chemical_formula_sum "Si O2"
_cell_formula_units_Z 56
_cell_length_a 21.724212
_cell_length_b 8.460335
_cell_length_c 13.816616
_cell_angle_alpha 90.000000
_cell_angle_beta 90.000000
_cell_angle_gamma 90.000000
_cell_volume 2539.412657
_symmetry_space_group_name_H-M "P N M A"
_symmetry_group_IT_number 62
_symmetry_cell_setting 'orthorhombic'
loop_
_space_group_symop_operation_xyz
x,y,z
1/2-x,-y,1/2+z
1/2+x,1/2-y,1/2-z
-x,1/2+y,-z
-x,-y,-z
1/2+x,y,1/2-z
1/2-x,1/2+y,1/2+z
x,1/2-y,z
loop_
_atom_site_type_symbol
_atom_site_label
_atom_site_fract_x
_atom_site_fract_y
_atom_site_fract_z
Si Si1 0.743171 0.570602 0.146563
Si Si2 0.059522 0.062512 0.943674
Si Si3 0.109420 0.063975 0.341168
Si Si4 0.186064 0.569063 0.025947
Si Si5 0.904620 0.438215 0.450149
Si Si6 0.481698 0.440893 0.239217
Si Si7 0.779674 0.068406 0.336674
O O1 0.749226 0.750000 0.111094
O O2 0.672302 0.532063 0.169184
O O3 0.768904 0.454023 0.065640
O O4 0.781637 0.542944 0.243858
O O5 0.064467 0.250000 0.953203
O O6 0.119587 0.984028 0.990099
O O7 0.050761 0.016171 0.831519
O O8 0.000000 0.000000 0.000000
O O9 0.121769 0.250000 0.328066
O O10 0.053757 0.016701 0.270364
O O11 0.086668 0.032734 0.451123
O O12 0.185921 0.750000 0.058400
O O13 0.215590 0.461762 0.109081
O O14 0.912491 0.250000 0.469199
O O15 0.948583 0.484275 0.361429
O O16 0.835266 0.461866 0.410630
O O17 0.477488 0.250000 0.247841
O O18 0.784657 0.250000 0.304451
#
# Coordination Sequence:
#
# PCOD9466282 Si02
#       7
#     8   8   8   8   8   8   8
#     4  12  25  42  65  96 134 176 225 276 332 395
#     4  12  27  47  71  98 132 174 224 275 331 398
#     4  11  23  39  64  96 134 174 220 274 329 393
#     4  12  25  45  70  98 133 172 219 275 334 395
#     4  10  21  40  66  96 133 172 215 270 330 394
#     4  10  23  43  66  96 133 176 221 271 332 391
#     4  11  23  40  66  98 132 172 217 271 334 397
#
# _framework density 22.052344000000002
#
# number of rings (size 3 to 8) (size 9 to 14) (size 15 to 20)
#    0.000    0.857    1.429    6.000    2.000    3.429 
#    0.000    0.000    0.000    0.000    0.000    0.000 
#    0.000    0.000    0.000    0.000    0.000    0.000 
#
# Total GULP energy -313613.336682 kJ/mol
# GULP energy per Si atom -5600.238155 kJ/mol
# Density = 2.200215 g / cm^3
# Si number density = 22.052344 Si / 1000 Ang^3
#
#
#
# Elastic Constant Matrix: (Units=GPa)
#
#
# Indices 1 2 3 4 5 6 
#
# 1 90.8058 10.6740 -12.5478 0.0000 0.0000 0.0000
# 2 10.6740 54.8675 -11.5838 0.0000 0.0000 0.0000
# 3 -12.5478 -11.5838 35.8903 0.0000 0.0000 0.0000
# 4 0.0000 0.0000 0.0000 31.5739 0.0000 0.0000
# 5 0.0000 0.0000 0.0000 0.0000 25.2837 0.0000
# 6 0.0000 0.0000 0.0000 0.0000 0.0000 27.8970
#
#
#
# Elastic Compliance Matrix: (Units=1/GPa)
#
#
# Indices 1 2 3 4 5 6 
#
# 1 0.011688 -0.001514 0.003597 0.000000 0.000000 0.000000
# 2 -0.001514 0.019755 0.005847 0.000000 0.000000 0.000000
# 3 0.003597 0.005847 0.031007 0.000000 0.000000 0.000000
# 4 0.000000 0.000000 0.000000 0.031672 0.000000 0.000000
# 5 0.000000 0.000000 0.000000 0.000000 0.039551 0.000000
# 6 0.000000 0.000000 0.000000 0.000000 0.000000 0.035846
#
#
# Mechanical properties :
#
#
# Convention : Reuss Voigt Hill
#
# Bulk Modulus (GPa) = 12.76990 17.18316 14.97653
# Shear Modulus (GPa) = 27.81452 29.95233 28.88343
#
# Velocity S-wave (km/s) = 3.55532 3.68943 3.62300
# Velocity P-wave (km/s) = 4.75994 5.09491 4.93027
#
# Compressibility (1/GPa) = 0.07830916
#
# Stress axis : x y z
#
# Youngs Moduli (GPa) = 85.56067 50.62099 32.25036
#
# Poissons Ratio (x) = 0.07665 -0.11602
# Poissons Ratio (y) = 0.12956 -0.18855
# Poissons Ratio (z) = -0.30780 -0.29596
#
# Static dielectric constant tensor:
#      x y z
#    x 1.810140 0.000000 0.000000 
#    y 0.000000 1.754250 0.000000 
#    z 0.000000 0.000000 1.789660 
# 
# From -- ./inp_files/20389.got.cif
#   From: 2010.05.17/outbox.cif.g08.bks.cpg/sg62_11_cif.got.tgz:20389.got - 2010.06.03 15:25:27.
