data_PCOD9466293
_publ_section_title
;
Structure prediction by ZEFSAII (Michael W. Deem and Ramdas Pophale) SiO2 
 PCOD9466293
Probable space group: P N M A
;
_chemical_formula_sum "Si O2"
_cell_formula_units_Z 60
_cell_length_a 14.254454
_cell_length_b 9.596429
_cell_length_c 22.163210
_cell_angle_alpha 90.000000
_cell_angle_beta 90.000000
_cell_angle_gamma 90.000000
_cell_volume 3031.746625
_symmetry_space_group_name_H-M "P N M A"
_symmetry_group_IT_number 62
_symmetry_cell_setting 'orthorhombic'
loop_
_space_group_symop_operation_xyz
x,y,z
1/2-x,-y,1/2+z
1/2+x,1/2-y,1/2-z
-x,1/2+y,-z
-x,-y,-z
1/2+x,y,1/2-z
1/2-x,1/2+y,1/2+z
x,1/2-y,z
loop_
_atom_site_type_symbol
_atom_site_label
_atom_site_fract_x
_atom_site_fract_y
_atom_site_fract_z
Si Si1 0.414844 0.984258 0.064630
Si Si2 0.127348 0.087391 0.896009
Si Si3 0.594248 0.911184 0.381682
Si Si4 0.763240 0.416770 0.204533
Si Si5 0.093870 0.590157 0.261443
Si Si6 0.718045 0.414481 0.472801
Si Si7 0.498494 0.750000 0.978456
Si Si8 0.377424 0.590280 0.201209
O O1 0.380965 0.933328 0.129891
O O2 0.321270 0.019978 0.026442
O O3 0.472784 0.126151 0.069086
O O4 0.473145 0.869252 0.029449
O O5 0.143244 0.250000 0.877885
O O6 0.015756 0.064636 0.894763
O O7 0.178967 0.983542 0.850717
O O8 0.167210 0.068493 0.963097
O O9 0.615898 0.750000 0.397337
O O10 0.608412 0.927598 0.310230
O O11 0.657405 0.012474 0.421121
O O12 0.763998 0.250000 0.203779
O O13 0.658883 0.480971 0.204169
O O14 0.812558 0.481038 0.264063
O O15 0.119573 0.750000 0.277773
O O16 0.983843 0.574722 0.274918
O O17 0.728348 0.250000 0.460927
O O18 0.346805 0.750000 0.214001
#
# Coordination Sequence:
#
# PCOD9466293 Si02
#       8
#     8   8   8   8   8   8   4   8
#     4  11  23  44  65  97 129 176 217 272 323 394
#     4  10  22  45  66  90 130 173 218 265 319 394
#     4  10  21  40  68  95 126 165 216 269 322 382
#     4  12  26  41  63 100 136 167 211 277 336 387
#     4  10  22  42  67  93 124 173 221 264 315 391
#     4  11  24  40  66  96 128 173 219 267 326 388
#     4  10  24  42  64  88 134 168 214 270 324 370
#     4  11  23  44  71  94 127 177 226 263 324 392
#
# _framework density 19.790571
#
# number of rings (size 3 to 8) (size 9 to 14) (size 15 to 20)
#    0.000    1.333    2.667    2.400    1.867    6.400 
#    2.400    0.000    0.000    0.000    0.000    0.000 
#    0.000    0.000    0.000    0.000    0.000    0.000 
#
# Total GULP energy -334408.899718 kJ/mol
# GULP energy per Si atom -5573.481662 kJ/mol
# Density = 1.974553 g / cm^3
# Si number density = 19.790571 Si / 1000 Ang^3
#
#
#
# Elastic Constant Matrix: (Units=GPa)
#
#
# Indices 1 2 3 4 5 6 
#
# 1 48.4245 37.8371 6.0518 0.0000 0.0000 0.0000
# 2 37.8371 134.0480 14.1727 0.0000 0.0000 0.0000
# 3 6.0518 14.1727 30.9640 0.0000 0.0000 0.0000
# 4 0.0000 0.0000 0.0000 31.1076 0.0000 0.0000
# 5 0.0000 0.0000 0.0000 0.0000 16.0221 0.0000
# 6 0.0000 0.0000 0.0000 0.0000 0.0000 -64.2843
#
#
#
# Elastic Compliance Matrix: (Units=1/GPa)
#
#
# Indices 1 2 3 4 5 6 
#
# 1 0.026595 -0.007311 -0.001851 0.000000 0.000000 0.000000
# 2 -0.007311 0.009849 -0.003079 0.000000 0.000000 0.000000
# 3 -0.001851 -0.003079 0.034067 0.000000 0.000000 0.000000
# 4 0.000000 0.000000 0.000000 0.032146 0.000000 0.000000
# 5 0.000000 0.000000 0.000000 0.000000 0.062414 0.000000
# 6 0.000000 0.000000 0.000000 0.000000 0.000000 -0.015556
#
#
# Mechanical properties :
#
#
# Convention : Reuss Voigt Hill
#
# Bulk Modulus (GPa) = 21.72621 36.61774 29.17197
# Shear Modulus (GPa) = 26.40739 6.92740 16.66740
#
# Velocity S-wave (km/s) = 3.65683 1.87295 2.90520
# Velocity P-wave (km/s) = 5.36952 4.81872 5.10156
#
# Compressibility (1/GPa) = 0.04602735
#
# Stress axis : x y z
#
# Youngs Moduli (GPa) = 37.60160 101.53094 29.35406
#
# Poissons Ratio (x) = 0.74229 0.05435
# Poissons Ratio (y) = 0.27490 0.09039
# Poissons Ratio (z) = 0.06962 0.31264
#
# Static dielectric constant tensor:
#      x y z
#    x 1.717020 0.000000 0.000000 
#    y 0.000000 1.666360 0.000000 
#    z 0.000000 0.000000 1.674900 
# 
# From -- ./inp_files/29713.got.cif
#   From: 2010.05.17/outbox.cif.g08.bks.cpg/sg62_15_cif.got.tgz:29713.got - 2010.06.03 15:25:27.
