data_PCOD9466456
_publ_section_title
;
Structure prediction by ZEFSAII (Michael W. Deem and Ramdas Pophale) SiO2 
 PCOD9466456
Probable space group: P N M A
;
_chemical_formula_sum "Si O2"
_cell_formula_units_Z 40
_cell_length_a 4.922369
_cell_length_b 12.013203
_cell_length_c 28.497800
_cell_angle_alpha 90.000000
_cell_angle_beta 90.000000
_cell_angle_gamma 90.000000
_cell_volume 1685.172321
_symmetry_space_group_name_H-M "P N M A"
_symmetry_group_IT_number 62
_symmetry_cell_setting 'orthorhombic'
loop_
_space_group_symop_operation_xyz
x,y,z
1/2-x,-y,1/2+z
1/2+x,1/2-y,1/2-z
-x,1/2+y,-z
-x,-y,-z
1/2+x,y,1/2-z
1/2-x,1/2+y,1/2+z
x,1/2-y,z
loop_
_atom_site_type_symbol
_atom_site_label
_atom_site_fract_x
_atom_site_fract_y
_atom_site_fract_z
Si Si1 0.239590 0.126219 0.386677
Si Si2 0.315592 0.119908 0.861209
Si Si3 0.718279 0.382565 0.776279
Si Si4 0.591186 0.363013 0.961797
Si Si5 0.723984 0.406152 0.449531
O O1 0.265542 0.250000 0.363229
O O2 0.433592 0.132196 0.432360
O O3 0.932458 0.115089 0.406208
O O4 0.316335 0.006443 0.362310
O O5 0.203353 0.250000 0.850343
O O6 0.568258 0.103771 0.825452
O O7 0.421286 0.130410 0.914031
O O8 0.016286 0.425975 0.764531
O O9 0.744025 0.250000 0.770565
O O10 0.754807 0.250000 0.962228
O O11 0.794106 0.463887 0.960042
O O12 0.384662 0.365438 0.004955
#
# Coordination Sequence:
#
# PCOD9466456 Si02
#       5
#     8   8   8   8   8
#     4  11  22  38  57  78 110 150 187 220 265 325
#     4   9  20  36  57  85 111 139 180 229 273 317
#     4   9  18  34  55  78 106 138 171 213 271 332
#     4   9  18  34  54  79 111 144 186 234 272 312
#     4  10  22  36  53  77 109 152 189 221 268 322
#
# _framework density 23.736443999999999
#
# number of rings (size 3 to 8) (size 9 to 14) (size 15 to 20)
#    0.000    2.400    0.000    1.800    0.000   11.200 
#    0.000   10.000    0.000    1.200    0.000    0.000 
#    0.000    0.000    0.000    0.000    0.000    0.000 
#
# Total GULP energy -222818.640574 kJ/mol
# GULP energy per Si atom -5570.466014 kJ/mol
# Density = 2.368242 g / cm^3
# Si number density = 23.736444 Si / 1000 Ang^3
#
#
#
# Elastic Constant Matrix: (Units=GPa)
#
#
# Indices 1 2 3 4 5 6 
#
# 1 85.0538 13.3931 9.5520 0.0000 0.0000 0.0000
# 2 13.3931 230.2280 12.2140 0.0000 0.0000 0.0000
# 3 9.5520 12.2140 78.0590 0.0000 0.0000 0.0000
# 4 0.0000 0.0000 0.0000 37.7520 0.0000 0.0000
# 5 0.0000 0.0000 0.0000 0.0000 31.6216 0.0000
# 6 0.0000 0.0000 0.0000 0.0000 0.0000 20.4867
#
#
#
# Elastic Compliance Matrix: (Units=1/GPa)
#
#
# Indices 1 2 3 4 5 6 
#
# 1 0.012010 -0.000626 -0.001372 0.000000 0.000000 0.000000
# 2 -0.000626 0.004412 -0.000614 0.000000 0.000000 0.000000
# 3 -0.001372 -0.000614 0.013075 0.000000 0.000000 0.000000
# 4 0.000000 0.000000 0.000000 0.026489 0.000000 0.000000
# 5 0.000000 0.000000 0.000000 0.000000 0.031624 0.000000
# 6 0.000000 0.000000 0.000000 0.000000 0.000000 0.048812
#
#
# Mechanical properties :
#
#
# Convention : Reuss Voigt Hill
#
# Bulk Modulus (GPa) = 41.19593 51.51765 46.35679
# Shear Modulus (GPa) = 33.39207 41.85084 37.62145
#
# Velocity S-wave (km/s) = 3.75478 4.20354 3.98548
# Velocity P-wave (km/s) = 6.01590 6.73133 6.38365
#
# Compressibility (1/GPa) = 0.02427424
#
# Stress axis : x y z
#
# Youngs Moduli (GPa) = 83.26484 226.62915 76.48340
#
# Poissons Ratio (x) = 0.14184 0.10491
# Poissons Ratio (y) = 0.05211 0.04695
# Poissons Ratio (z) = 0.11422 0.13911
#
# Static dielectric constant tensor:
#      x y z
#    x 1.876300 0.000000 0.000000 
#    y 0.000000 2.033520 0.000000 
#    z 0.000000 0.000000 1.912770 
# 
# From -- ./inp_files/30258.got.cif
#   From: 2010.05.17/outbox.cif.g08.bks.cpg/sg62_16_cif.got.tgz:30258.got - 2010.06.03 15:25:27.
