data_PCOD9466697
_publ_section_title
;
Structure prediction by ZEFSAII (Michael W. Deem and Ramdas Pophale) SiO2 
 PCOD9466697
Probable space group: P N M A
;
_chemical_formula_sum "Si O2"
_cell_formula_units_Z 48
_cell_length_a 7.566946
_cell_length_b 21.455534
_cell_length_c 14.706082
_cell_angle_alpha 90.000000
_cell_angle_beta 90.000000
_cell_angle_gamma 90.000000
_cell_volume 2387.574578
_symmetry_space_group_name_H-M "P N M A"
_symmetry_group_IT_number 62
_symmetry_cell_setting 'orthorhombic'
loop_
_space_group_symop_operation_xyz
x,y,z
1/2-x,-y,1/2+z
1/2+x,1/2-y,1/2-z
-x,1/2+y,-z
-x,-y,-z
1/2+x,y,1/2-z
1/2-x,1/2+y,1/2+z
x,1/2-y,z
loop_
_atom_site_type_symbol
_atom_site_label
_atom_site_fract_x
_atom_site_fract_y
_atom_site_fract_z
Si Si1 0.780103 0.489227 0.342442
Si Si2 0.555063 0.872774 0.495953
Si Si3 0.613549 0.553857 0.663786
Si Si4 0.100354 0.380822 0.630787
Si Si5 0.716628 0.953095 0.046194
Si Si6 0.314043 0.750000 0.215609
Si Si7 0.547553 0.250000 0.598861
O O1 0.845940 0.439152 0.269455
O O2 0.570500 0.482994 0.341404
O O3 0.843276 0.557899 0.311536
O O4 0.838958 0.476649 0.445818
O O5 0.592179 0.885208 0.601824
O O6 0.740112 0.876949 0.442392
O O7 0.412591 0.924753 0.467112
O O8 0.464205 0.809323 0.465358
O O9 0.760981 0.510533 0.615535
O O10 0.096820 0.315557 0.684297
O O11 0.917222 0.401423 0.584541
O O12 0.126788 0.750000 0.163650
O O13 0.301260 0.750000 0.324878
#
# Coordination Sequence:
#
# PCOD9466697 Si02
#       7
#     8   8   8   8   8   4   4
#     4  11  22  36  60  93 118 161 201 249 310 357
#     4  10  22  41  57  85 123 157 201 241 305 361
#     4  11  22  38  60  89 124 154 206 253 302 366
#     4  11  22  39  60  87 126 157 201 243 308 359
#     4  11  22  38  63  87 123 160 194 259 303 362
#     4  10  26  38  58  93 115 160 206 234 293 376
#     4  10  24  42  64  83 125 164 194 252 301 350
#
# _framework density 20.104085000000001
#
# number of rings (size 3 to 8) (size 9 to 14) (size 15 to 20)
#    0.000    1.333    3.333    2.500    7.000    1.333 
#    0.000    0.000    0.000    5.000    0.000    0.000 
#    0.000    0.000    0.000    0.000    0.000    0.000 
#
# Total GULP energy -268029.825826 kJ/mol
# GULP energy per Si atom -5583.954705 kJ/mol
# Density = 2.005833 g / cm^3
# Si number density = 20.104085 Si / 1000 Ang^3
#
#
#
# Elastic Constant Matrix: (Units=GPa)
#
#
# Indices 1 2 3 4 5 6 
#
# 1 73.0005 5.9852 17.3485 0.0000 0.0000 0.0000
# 2 5.9852 96.6909 47.3479 0.0000 0.0000 0.0000
# 3 17.3485 47.3479 114.4758 0.0000 0.0000 0.0000
# 4 0.0000 0.0000 0.0000 32.4630 0.0000 0.0000
# 5 0.0000 0.0000 0.0000 0.0000 25.6302 0.0000
# 6 0.0000 0.0000 0.0000 0.0000 0.0000 22.5715
#
#
#
# Elastic Compliance Matrix: (Units=1/GPa)
#
#
# Indices 1 2 3 4 5 6 
#
# 1 0.014214 0.000219 -0.002245 0.000000 0.000000 0.000000
# 2 0.000219 0.012972 -0.005399 0.000000 0.000000 0.000000
# 3 -0.002245 -0.005399 0.011309 0.000000 0.000000 0.000000
# 4 0.000000 0.000000 0.000000 0.030804 0.000000 0.000000
# 5 0.000000 0.000000 0.000000 0.000000 0.039016 0.000000
# 6 0.000000 0.000000 0.000000 0.000000 0.000000 0.044304
#
#
# Mechanical properties :
#
#
# Convention : Reuss Voigt Hill
#
# Bulk Modulus (GPa) = 42.28920 47.28116 44.78518
# Shear Modulus (GPa) = 28.51443 30.36531 29.43987
#
# Velocity S-wave (km/s) = 3.77017 3.89061 3.83086
# Velocity P-wave (km/s) = 6.32717 6.61451 6.47243
#
# Compressibility (1/GPa) = 0.02364670
#
# Stress axis : x y z
#
# Youngs Moduli (GPa) = 70.35301 77.08735 88.42828
#
# Poissons Ratio (x) = -0.01691 0.19851
# Poissons Ratio (y) = -0.01544 0.47740
# Poissons Ratio (z) = 0.15793 0.41617
#
# Static dielectric constant tensor:
#      x y z
#    x 1.767600 0.000000 0.000000 
#    y 0.000000 1.713270 0.000000 
#    z 0.000000 0.000000 1.731720 
# 
# From -- ./inp_files/17103.got.cif
#   From: 2010.05.17/outbox.cif.g08.bks.cpg/sg62_9_cif.got.tgz:17103.got - 2010.06.03 15:25:27.
