data_PCOD9466264
_publ_section_title
;
Structure prediction by ZEFSAII (Michael W. Deem and Ramdas Pophale) SiO2 
 PCOD9466264
Probable space group: P N M A
;
_chemical_formula_sum "Si O2"
_cell_formula_units_Z 56
_cell_length_a 10.818992
_cell_length_b 16.132992
_cell_length_c 13.497547
_cell_angle_alpha 90.000000
_cell_angle_beta 90.000000
_cell_angle_gamma 90.000000
_cell_volume 2355.898450
_symmetry_space_group_name_H-M "P N M A"
_symmetry_group_IT_number 62
_symmetry_cell_setting 'orthorhombic'
loop_
_space_group_symop_operation_xyz
x,y,z
1/2-x,-y,1/2+z
1/2+x,1/2-y,1/2-z
-x,1/2+y,-z
-x,-y,-z
1/2+x,y,1/2-z
1/2-x,1/2+y,1/2+z
x,1/2-y,z
loop_
_atom_site_type_symbol
_atom_site_label
_atom_site_fract_x
_atom_site_fract_y
_atom_site_fract_z
Si Si1 0.659592 0.152497 0.970900
Si Si2 0.631619 0.070055 0.517779
Si Si3 0.118903 0.011536 0.207798
Si Si4 0.044855 0.658806 0.710019
Si Si5 0.110533 0.654023 0.478276
Si Si6 0.203133 0.570535 0.853707
Si Si7 0.424437 0.156123 0.633869
O O1 0.644453 0.250000 0.994667
O O2 0.523034 0.124396 0.937454
O O3 0.696906 0.101917 0.067916
O O4 0.781834 0.147770 0.902909
O O5 0.766619 0.104266 0.547905
O O6 0.524721 0.135044 0.547757
O O7 0.640586 0.044274 0.403506
O O8 0.612123 0.985932 0.580780
O O9 0.062149 0.920001 0.208694
O O10 0.246355 0.012230 0.267211
O O11 0.040124 0.081429 0.262937
O O12 0.986127 0.750000 0.719265
O O13 0.096132 0.651740 0.598594
O O14 0.147698 0.648560 0.795693
O O15 0.128751 0.750000 0.449069
O O16 0.443692 0.250000 0.668918
#
# Coordination Sequence:
#
# PCOD9466264 Si02
#       7
#     8   8   8   8   8   8   8
#     4  10  21  40  65  96 132 175 222 274 346 418
#     4  12  24  43  69 101 137 180 232 290 338 405
#     4  12  24  43  67 103 142 180 235 283 345 411
#     4  11  23  40  67 103 143 177 218 285 360 420
#     4  10  22  41  65 101 139 172 220 283 353 413
#     4  12  23  40  66  99 139 180 229 280 346 413
#     4  11  24  46  72  96 136 189 235 279 336 407
#
# _framework density 23.770126000000001
#
# number of rings (size 3 to 8) (size 9 to 14) (size 15 to 20)
#    0.000    0.857    5.714    2.143    0.000    3.429 
#    2.571    1.429    0.000    0.000    0.000    0.000 
#    0.000    0.000    0.000    0.000    0.000    0.000 
#
# Total GULP energy -312959.116414 kJ/mol
# GULP energy per Si atom -5588.555650 kJ/mol
# Density = 2.371602 g / cm^3
# Si number density = 23.770126 Si / 1000 Ang^3
#
#
#
# Elastic Constant Matrix: (Units=GPa)
#
#
# Indices 1 2 3 4 5 6 
#
# 1 118.7605 33.3256 6.9153 0.0000 0.0000 0.0000
# 2 33.3256 143.8284 27.3037 0.0000 0.0000 0.0000
# 3 6.9153 27.3037 59.0201 0.0000 0.0000 0.0000
# 4 0.0000 0.0000 0.0000 16.5590 0.0000 0.0000
# 5 0.0000 0.0000 0.0000 0.0000 24.4309 0.0000
# 6 0.0000 0.0000 0.0000 0.0000 0.0000 42.0742
#
#
#
# Elastic Compliance Matrix: (Units=1/GPa)
#
#
# Indices 1 2 3 4 5 6 
#
# 1 0.009006 -0.002068 -0.000099 0.000000 0.000000 0.000000
# 2 -0.002068 0.008097 -0.003503 0.000000 0.000000 0.000000
# 3 -0.000099 -0.003503 0.018576 0.000000 0.000000 0.000000
# 4 0.000000 0.000000 0.000000 0.060390 0.000000 0.000000
# 5 0.000000 0.000000 0.000000 0.000000 0.040932 0.000000
# 6 0.000000 0.000000 0.000000 0.000000 0.000000 0.023768
#
#
# Mechanical properties :
#
#
# Convention : Reuss Voigt Hill
#
# Bulk Modulus (GPa) = 41.08664 50.74426 45.91545
# Shear Modulus (GPa) = 27.74359 33.55044 30.64702
#
# Velocity S-wave (km/s) = 3.42008 3.76101 3.59459
# Velocity P-wave (km/s) = 5.73746 6.34464 6.04868
#
# Compressibility (1/GPa) = 0.02433881
#
# Stress axis : x y z
#
# Youngs Moduli (GPa) = 111.03245 123.50249 53.83381
#
# Poissons Ratio (x) = 0.25542 0.00530
# Poissons Ratio (y) = 0.22963 0.18861
# Poissons Ratio (z) = 0.01094 0.43269
#
# Static dielectric constant tensor:
#      x y z
#    x 2.079420 0.000000 0.000000 
#    y 0.000000 1.886730 0.000000 
#    z 0.000000 0.000000 1.896900 
# 
# From -- ./inp_files/18122.got.cif
#   From: 2010.05.17/outbox.cif.g08.bks.cpg/sg62_10_cif.got.tgz:18122.got - 2010.06.03 15:25:27.
