data_PCOD9466042
_publ_section_title
;
Structure prediction by ZEFSAII (Michael W. Deem and Ramdas Pophale) SiO2 
 PCOD9466042
Probable space group: P N M A
;
_chemical_formula_sum "Si O2"
_cell_formula_units_Z 64
_cell_length_a 23.179651
_cell_length_b 8.265763
_cell_length_c 14.869567
_cell_angle_alpha 90.000000
_cell_angle_beta 90.000000
_cell_angle_gamma 90.000000
_cell_volume 2848.971887
_symmetry_space_group_name_H-M "P N M A"
_symmetry_group_IT_number 62
_symmetry_cell_setting 'orthorhombic'
loop_
_space_group_symop_operation_xyz
x,y,z
1/2-x,-y,1/2+z
1/2+x,1/2-y,1/2-z
-x,1/2+y,-z
-x,-y,-z
1/2+x,y,1/2-z
1/2-x,1/2+y,1/2+z
x,1/2-y,z
loop_
_atom_site_type_symbol
_atom_site_label
_atom_site_fract_x
_atom_site_fract_y
_atom_site_fract_z
Si Si1 0.990074 0.938840 0.183255
Si Si2 0.088567 0.551471 0.064358
Si Si3 0.530608 0.441972 0.136471
Si Si4 0.188129 0.939297 0.200025
Si Si5 0.586883 0.555291 0.964928
Si Si6 0.873055 0.056713 0.133354
Si Si7 0.712725 0.559000 0.927031
Si Si8 0.243571 0.442101 0.375653
O O1 0.981500 0.750000 0.170081
O O2 0.026123 0.005724 0.098473
O O3 0.030383 0.968949 0.269129
O O4 0.927043 0.013690 0.195675
O O5 0.088321 0.750000 0.063172
O O6 0.135425 0.500094 0.138693
O O7 0.108746 0.496657 0.966245
O O8 0.529798 0.250000 0.151199
O O9 0.579681 0.486424 0.065231
O O10 0.470094 0.492834 0.089578
O O11 0.179177 0.750000 0.217492
O O12 0.244151 0.965191 0.137447
O O13 0.199858 0.024066 0.294703
O O14 0.587204 0.750000 0.971300
O O15 0.646321 0.505179 0.919125
O O16 0.870617 0.250000 0.130498
O O17 0.808130 0.003335 0.154760
O O18 0.716748 0.750000 0.905493
O O19 0.729049 0.530145 0.031242
O O20 0.244820 0.250000 0.394210
#
# Coordination Sequence:
#
# PCOD9466042 Si02
#       8
#     8   8   8   8   8   8   8   8
#     4  11  23  37  60  91 120 153 200 249 303 361
#     4   9  20  41  63  84 118 160 194 243 307 359
#     4  10  21  39  60  87 119 157 201 245 298 358
#     4  11  23  42  65  92 126 166 207 252 310 371
#     4   9  21  40  61  83 118 160 196 244 304 357
#     4  10  21  42  64  83 117 159 199 247 305 360
#     4  11  23  41  65  94 125 163 207 255 312 371
#     4  11  24  42  64  92 126 165 207 256 312 370
#
# _framework density 22.464245999999999
#
# number of rings (size 3 to 8) (size 9 to 14) (size 15 to 20)
#    0.000    1.750    1.250    2.250    3.500    2.500 
#    0.000    2.500    0.000    0.000    0.000    0.000 
#    0.000    0.000    0.000    0.000    0.000    0.000 
#
# Total GULP energy -357847.479140 kJ/mol
# GULP energy per Si atom -5591.366862 kJ/mol
# Density = 2.241312 g / cm^3
# Si number density = 22.464246 Si / 1000 Ang^3
#
#
#
# Elastic Constant Matrix: (Units=GPa)
#
#
# Indices 1 2 3 4 5 6 
#
# 1 63.4212 1.5191 -9.9348 0.0000 0.0000 0.0000
# 2 1.5191 10.6415 -7.6907 0.0000 0.0000 0.0000
# 3 -9.9348 -7.6907 57.1578 0.0000 0.0000 0.0000
# 4 0.0000 0.0000 0.0000 17.5867 0.0000 0.0000
# 5 0.0000 0.0000 0.0000 0.0000 -6.1733 0.0000
# 6 0.0000 0.0000 0.0000 0.0000 0.0000 23.2482
#
#
#
# Elastic Compliance Matrix: (Units=1/GPa)
#
#
# Indices 1 2 3 4 5 6 
#
# 1 0.016210 -0.000308 0.002776 0.000000 0.000000 0.000000
# 2 -0.000308 0.104100 0.013953 0.000000 0.000000 0.000000
# 3 0.002776 0.013953 0.019855 0.000000 0.000000 0.000000
# 4 0.000000 0.000000 0.000000 0.056861 0.000000 0.000000
# 5 0.000000 0.000000 0.000000 0.000000 -0.161988 0.000000
# 6 0.000000 0.000000 0.000000 0.000000 0.000000 0.043014
#
#
# Mechanical properties :
#
#
# Convention : Reuss Voigt Hill
#
# Bulk Modulus (GPa) = 5.78005 11.00085 8.39045
# Shear Modulus (GPa) = 48.60109 16.75413 32.67761
#
# Velocity S-wave (km/s) = 4.65638 2.73392 3.81812
# Velocity P-wave (km/s) = 5.61139 3.85661 4.81462
#
# Compressibility (1/GPa) = 0.17300874
#
# Stress axis : x y z
#
# Youngs Moduli (GPa) = 61.69093 9.60615 50.36408
#
# Poissons Ratio (x) = 0.00296 -0.13982
# Poissons Ratio (y) = 0.01898 -0.70275
# Poissons Ratio (z) = -0.17126 -0.13404
#
# Static dielectric constant tensor:
#      x y z
#    x 1.853030 0.000000 0.000000 
#    y 0.000000 1.765410 0.000000 
#    z 0.000000 0.000000 1.826770 
# 
# From -- ./inp_files/20779.got.cif
#   From: 2010.05.17/outbox.cif.g08.bks.cpg/sg62_11_cif.got.tgz:20779.got - 2010.06.03 15:25:27.
