data_PCOD9466119
_publ_section_title
;
Structure prediction by ZEFSAII (Michael W. Deem and Ramdas Pophale) SiO2 
 PCOD9466119
Probable space group: P N M A
;
_chemical_formula_sum "Si O2"
_cell_formula_units_Z 48
_cell_length_a 15.920339
_cell_length_b 12.585750
_cell_length_c 10.288784
_cell_angle_alpha 90.000000
_cell_angle_beta 90.000000
_cell_angle_gamma 90.000000
_cell_volume 2061.557544
_symmetry_space_group_name_H-M "P N M A"
_symmetry_group_IT_number 62
_symmetry_cell_setting 'orthorhombic'
loop_
_space_group_symop_operation_xyz
x,y,z
1/2-x,-y,1/2+z
1/2+x,1/2-y,1/2-z
-x,1/2+y,-z
-x,-y,-z
1/2+x,y,1/2-z
1/2-x,1/2+y,1/2+z
x,1/2-y,z
loop_
_atom_site_type_symbol
_atom_site_label
_atom_site_fract_x
_atom_site_fract_y
_atom_site_fract_z
Si Si1 0.349896 0.871491 0.455379
Si Si2 0.418236 0.371277 0.806840
Si Si3 0.290532 0.535902 0.929312
Si Si4 0.848819 0.369513 0.239626
Si Si5 0.464228 0.124885 0.515606
Si Si6 0.389195 0.588244 0.157224
O O1 0.334996 0.750000 0.499161
O O2 0.277462 0.954080 0.490640
O O3 0.440699 0.918508 0.498469
O O4 0.355648 0.872350 0.297019
O O5 0.386993 0.250000 0.825457
O O6 0.362153 0.460439 0.872130
O O7 0.421738 0.397392 0.653504
O O8 0.514801 0.377158 0.854990
O O9 0.242348 0.598552 0.815489
O O10 0.329460 0.613704 0.036913
O O11 0.851572 0.250000 0.290390
O O12 0.883268 0.459910 0.333798
O O13 0.907796 0.378324 0.111753
O O14 0.485493 0.250000 0.533489
#
# Coordination Sequence:
#
# PCOD9466119 Si02
#       6
#     8   8   8   8   8   8
#     4   9  19  37  61  88 113 148 202 252 292 343
#     4  10  21  39  64  89 115 154 204 246 291 352
#     4  11  23  36  58  90 120 158 195 241 299 358
#     4  10  23  40  58  87 123 158 197 246 300 351
#     4   8  17  37  62  84 109 151 196 237 288 343
#     4  10  22  39  58  86 121 157 198 246 299 353
#
# _framework density 23.283366000000001
#
# number of rings (size 3 to 8) (size 9 to 14) (size 15 to 20)
#    0.000    2.333    0.000    2.500    4.667    8.667 
#    0.000    0.833    0.000    0.000    0.000    0.000 
#    0.000    0.000    0.000    0.000    0.000    0.000 
#
# Total GULP energy -268429.440350 kJ/mol
# GULP energy per Si atom -5592.280007 kJ/mol
# Density = 2.323037 g / cm^3
# Si number density = 23.283366 Si / 1000 Ang^3
#
#
#
# Elastic Constant Matrix: (Units=GPa)
#
#
# Indices 1 2 3 4 5 6 
#
# 1 78.1448 -7.9220 22.0927 0.0000 0.0000 0.0000
# 2 -7.9220 94.0244 -2.4860 0.0000 0.0000 0.0000
# 3 22.0927 -2.4860 41.6352 0.0000 0.0000 0.0000
# 4 0.0000 0.0000 0.0000 20.9054 0.0000 0.0000
# 5 0.0000 0.0000 0.0000 0.0000 28.4603 0.0000
# 6 0.0000 0.0000 0.0000 0.0000 0.0000 3.9693
#
#
#
# Elastic Compliance Matrix: (Units=1/GPa)
#
#
# Indices 1 2 3 4 5 6 
#
# 1 0.015161 0.001066 -0.007981 0.000000 0.000000 0.000000
# 2 0.001066 0.010727 0.000075 0.000000 0.000000 0.000000
# 3 -0.007981 0.000075 0.028258 0.000000 0.000000 0.000000
# 4 0.000000 0.000000 0.000000 0.047835 0.000000 0.000000
# 5 0.000000 0.000000 0.000000 0.000000 0.035137 0.000000
# 6 0.000000 0.000000 0.000000 0.000000 0.000000 0.251931
#
#
# Mechanical properties :
#
#
# Convention : Reuss Voigt Hill
#
# Bulk Modulus (GPa) = 24.71219 26.35264 25.53241
# Shear Modulus (GPa) = 12.01294 24.14164 18.07729
#
# Velocity S-wave (km/s) = 2.27391 3.22353 2.78942
# Velocity P-wave (km/s) = 4.18699 5.01973 4.62215
#
# Compressibility (1/GPa) = 0.04046586
#
# Stress axis : x y z
#
# Youngs Moduli (GPa) = 65.95736 93.21954 35.38855
#
# Poissons Ratio (x) = -0.09941 0.28245
# Poissons Ratio (y) = -0.07034 -0.00264
# Poissons Ratio (z) = 0.52643 -0.00696
#
# Static dielectric constant tensor:
#      x y z
#    x 1.885610 0.000000 0.000000 
#    y 0.000000 1.970780 0.000000 
#    z 0.000000 0.000000 1.861400 
# 
# From -- ./inp_files/13265.got.cif
#   From: 2010.05.17/outbox.cif.g08.bks.cpg/sg62_7_cif.got.tgz:13265.got - 2010.06.03 15:25:27.
