data_PCOD9466504
_publ_section_title
;
Structure prediction by ZEFSAII (Michael W. Deem and Ramdas Pophale) SiO2 
 PCOD9466504
Probable space group: P N M A
;
_chemical_formula_sum "Si O2"
_cell_formula_units_Z 40
_cell_length_a 8.723980
_cell_length_b 24.234868
_cell_length_c 9.473185
_cell_angle_alpha 90.000000
_cell_angle_beta 90.000000
_cell_angle_gamma 90.000000
_cell_volume 2002.863437
_symmetry_space_group_name_H-M "P N M A"
_symmetry_group_IT_number 62
_symmetry_cell_setting 'orthorhombic'
loop_
_space_group_symop_operation_xyz
x,y,z
1/2-x,-y,1/2+z
1/2+x,1/2-y,1/2-z
-x,1/2+y,-z
-x,-y,-z
1/2+x,y,1/2-z
1/2-x,1/2+y,1/2+z
x,1/2-y,z
loop_
_atom_site_type_symbol
_atom_site_label
_atom_site_fract_x
_atom_site_fract_y
_atom_site_fract_z
Si Si1 0.275744 0.088029 0.379489
Si Si2 0.870719 0.622957 0.904000
Si Si3 0.878470 0.529086 0.103940
Si Si4 0.788716 0.185904 0.627070
Si Si5 0.591107 0.116211 0.842472
O O1 0.194095 0.119416 0.252166
O O2 0.446956 0.112236 0.400987
O O3 0.181707 0.093571 0.523341
O O4 0.283463 0.022891 0.340579
O O5 0.799800 0.573002 0.999505
O O6 0.818134 0.676310 0.989976
O O7 0.943148 0.566185 0.232155
O O8 0.000000 0.500000 0.000000
O O9 0.820921 0.250000 0.649276
O O10 0.698584 0.158749 0.757469
O O11 0.943061 0.150491 0.612506
#
# Coordination Sequence:
#
# PCOD9466504 Si02
#       5
#     8   8   8   8   8
#     4  11  21  38  59  89 124 157 194 242 301 364
#     4  10  22  38  58  85 120 155 196 243 294 361
#     4   9  19  36  58  89 125 159 192 238 298 362
#     4  11  23  42  62  85 115 155 203 257 305 350
#     4  11  22  38  64  92 120 158 206 250 299 369
#
# _framework density 19.971406000000002
#
# number of rings (size 3 to 8) (size 9 to 14) (size 15 to 20)
#    0.000    1.600    0.000    6.600    0.000    4.800 
#    0.000   16.000    0.000    0.000    0.000    0.000 
#    0.000    0.000    0.000    0.000    0.000    0.000 
#
# Total GULP energy -223308.561366 kJ/mol
# GULP energy per Si atom -5582.714034 kJ/mol
# Density = 1.992595 g / cm^3
# Si number density = 19.971406 Si / 1000 Ang^3
#
#
#
# Elastic Constant Matrix: (Units=GPa)
#
#
# Indices 1 2 3 4 5 6 
#
# 1 80.0704 32.0209 -2.1952 0.0000 0.0000 0.0000
# 2 32.0209 110.3591 19.8837 0.0000 0.0000 0.0000
# 3 -2.1952 19.8837 71.7642 0.0000 0.0000 0.0000
# 4 0.0000 0.0000 0.0000 15.8635 0.0000 0.0000
# 5 0.0000 0.0000 0.0000 0.0000 36.4736 0.0000
# 6 0.0000 0.0000 0.0000 0.0000 0.0000 22.3317
#
#
#
# Elastic Compliance Matrix: (Units=1/GPa)
#
#
# Indices 1 2 3 4 5 6 
#
# 1 0.014317 -0.004455 0.001672 0.000000 0.000000 0.000000
# 2 -0.004455 0.010924 -0.003163 0.000000 0.000000 0.000000
# 3 0.001672 -0.003163 0.014862 0.000000 0.000000 0.000000
# 4 0.000000 0.000000 0.000000 0.063038 0.000000 0.000000
# 5 0.000000 0.000000 0.000000 0.000000 0.027417 0.000000
# 6 0.000000 0.000000 0.000000 0.000000 0.000000 0.044779
#
#
# Mechanical properties :
#
#
# Convention : Reuss Voigt Hill
#
# Bulk Modulus (GPa) = 35.44751 40.17916 37.81333
# Shear Modulus (GPa) = 25.42815 29.09936 27.26376
#
# Velocity S-wave (km/s) = 3.57210 3.82128 3.69879
# Velocity P-wave (km/s) = 5.89923 6.29536 6.10051
#
# Compressibility (1/GPa) = 0.02821073
#
# Stress axis : x y z
#
# Youngs Moduli (GPa) = 69.84911 91.54229 67.28551
#
# Poissons Ratio (x) = 0.40785 -0.11253
# Poissons Ratio (y) = 0.31120 0.21282
# Poissons Ratio (z) = -0.11681 0.28955
#
# Static dielectric constant tensor:
#      x y z
#    x 1.745520 0.000000 0.000000 
#    y 0.000000 1.729480 0.000000 
#    z 0.000000 0.000000 1.703090 
# 
# From -- ./inp_files/4265.got.cif
#   From: 2010.05.17/outbox.cif.g08.bks.cpg/sg62_3_cif.got.tgz:4265.got - 2010.06.03 15:25:27.
