data_PCOD9466335
_publ_section_title
;
Structure prediction by ZEFSAII (Michael W. Deem and Ramdas Pophale) SiO2 
 PCOD9466335
Probable space group: P N M A
;
_chemical_formula_sum "Si O2"
_cell_formula_units_Z 48
_cell_length_a 17.338934
_cell_length_b 8.562698
_cell_length_c 17.293911
_cell_angle_alpha 90.000000
_cell_angle_beta 90.000000
_cell_angle_gamma 90.000000
_cell_volume 2567.593338
_symmetry_space_group_name_H-M "P N M A"
_symmetry_group_IT_number 62
_symmetry_cell_setting 'orthorhombic'
loop_
_space_group_symop_operation_xyz
x,y,z
1/2-x,-y,1/2+z
1/2+x,1/2-y,1/2-z
-x,1/2+y,-z
-x,-y,-z
1/2+x,y,1/2-z
1/2-x,1/2+y,1/2+z
x,1/2-y,z
loop_
_atom_site_type_symbol
_atom_site_label
_atom_site_fract_x
_atom_site_fract_y
_atom_site_fract_z
Si Si1 0.177785 0.062199 0.849140
Si Si2 0.352666 0.063762 0.179787
Si Si3 0.499096 0.937979 0.087019
Si Si4 0.148790 0.939446 0.318572
Si Si5 0.586657 0.937389 0.503234
Si Si6 0.185420 0.560957 0.145866
O O1 0.174727 0.250000 0.848214
O O2 0.268008 0.013361 0.852567
O O3 0.146065 0.000303 0.767456
O O4 0.130061 0.998660 0.920951
O O5 0.355514 0.250000 0.180527
O O6 0.423650 0.996775 0.131484
O O7 0.271281 0.007836 0.144128
O O8 0.499236 0.750000 0.086136
O O9 0.575587 0.993565 0.132831
O O10 0.500000 0.000000 0.000000
O O11 0.147329 0.750000 0.319656
O O12 0.148460 0.986391 0.228359
O O13 0.585074 0.750000 0.504558
O O14 0.634026 0.986973 0.426807
O O15 0.500000 0.000000 0.500000
O O16 0.191607 0.750000 0.146079
#
# Coordination Sequence:
#
# PCOD9466335 Si02
#       6
#     8   8   8   8   8   8
#     4  10  21  41  65  88 119 162 203 249 306 361
#     4  11  23  40  62  91 122 159 204 251 305 363
#     4  11  23  39  61  91 124 161 202 250 304 363
#     4   8  18  38  63  86 113 155 202 243 298 359
#     4  11  24  39  61  94 126 159 203 251 303 362
#     4   9  20  41  64  88 117 158 204 249 302 361
#
# _framework density 18.69455
#
# number of rings (size 3 to 8) (size 9 to 14) (size 15 to 20)
#    0.000    2.000    0.000    4.000    4.667    1.333 
#    0.000    7.500    0.000    0.000    0.000    0.000 
#    0.000    0.000    0.000    0.000    0.000    0.000 
#
# Total GULP energy -268160.356308 kJ/mol
# GULP energy per Si atom -5586.674090 kJ/mol
# Density = 1.865200 g / cm^3
# Si number density = 18.694550 Si / 1000 Ang^3
#
#
#
# Elastic Constant Matrix: (Units=GPa)
#
#
# Indices 1 2 3 4 5 6 
#
# 1 189.0554 51.7408 157.8881 0.0000 0.0000 0.0000
# 2 51.7408 64.5611 53.3279 0.0000 0.0000 0.0000
# 3 157.8881 53.3279 180.3688 0.0000 0.0000 0.0000
# 4 0.0000 0.0000 0.0000 32.6492 0.0000 0.0000
# 5 0.0000 0.0000 0.0000 0.0000 31.4489 0.0000
# 6 0.0000 0.0000 0.0000 0.0000 0.0000 24.9334
#
#
#
# Elastic Compliance Matrix: (Units=1/GPa)
#
#
# Indices 1 2 3 4 5 6 
#
# 1 0.019872 -0.002061 -0.016786 0.000000 0.000000 0.000000
# 2 -0.002061 0.020708 -0.004319 0.000000 0.000000 0.000000
# 3 -0.016786 -0.004319 0.021515 0.000000 0.000000 0.000000
# 4 0.000000 0.000000 0.000000 0.030629 0.000000 0.000000
# 5 0.000000 0.000000 0.000000 0.000000 0.031798 0.000000
# 6 0.000000 0.000000 0.000000 0.000000 0.000000 0.040107
#
#
# Mechanical properties :
#
#
# Convention : Reuss Voigt Hill
#
# Bulk Modulus (GPa) = 63.43484 106.65540 85.04512
# Shear Modulus (GPa) = 23.12522 29.20819 26.16670
#
# Velocity S-wave (km/s) = 3.52092 3.95700 3.74531
# Velocity P-wave (km/s) = 7.10880 8.83474 8.01834
#
# Compressibility (1/GPa) = 0.01576421
#
# Stress axis : x y z
#
# Youngs Moduli (GPa) = 50.32143 48.29068 46.47903
#
# Poissons Ratio (x) = 0.09951 0.78021
# Poissons Ratio (y) = 0.10369 0.20073
# Poissons Ratio (z) = 0.84470 0.20856
#
# Static dielectric constant tensor:
#      x y z
#    x 1.636540 0.000000 0.000000 
#    y 0.000000 1.634650 0.000000 
#    z 0.000000 0.000000 1.621210 
# 
# From -- ./inp_files/23735.got.cif
#   From: 2010.05.17/outbox.cif.g08.bks.cpg/sg62_12_cif.got.tgz:23735.got - 2010.06.03 15:25:27.
