data_PCOD9466346
_publ_section_title
;
Structure prediction by ZEFSAII (Michael W. Deem and Ramdas Pophale) SiO2 
 PCOD9466346
Probable space group: P N M A
;
_chemical_formula_sum "Si O2"
_cell_formula_units_Z 48
_cell_length_a 13.787931
_cell_length_b 19.073691
_cell_length_c 9.380614
_cell_angle_alpha 90.000000
_cell_angle_beta 90.000000
_cell_angle_gamma 90.000000
_cell_volume 2466.977052
_symmetry_space_group_name_H-M "P N M A"
_symmetry_group_IT_number 62
_symmetry_cell_setting 'orthorhombic'
loop_
_space_group_symop_operation_xyz
x,y,z
1/2-x,-y,1/2+z
1/2+x,1/2-y,1/2-z
-x,1/2+y,-z
-x,-y,-z
1/2+x,y,1/2-z
1/2-x,1/2+y,1/2+z
x,1/2-y,z
loop_
_atom_site_type_symbol
_atom_site_label
_atom_site_fract_x
_atom_site_fract_y
_atom_site_fract_z
Si Si1 0.726427 0.577051 0.445887
Si Si2 0.062611 0.670258 0.660996
Si Si3 0.773385 0.435998 0.282693
Si Si4 0.087781 0.168246 0.598406
Si Si5 0.056992 0.084926 0.144522
Si Si6 0.988365 0.070154 0.831499
O O1 0.771124 0.510629 0.361682
O O2 0.709778 0.558927 0.612602
O O3 0.805013 0.638677 0.433445
O O4 0.621910 0.591139 0.373964
O O5 0.097378 0.750000 0.662443
O O6 0.149411 0.615589 0.646067
O O7 0.981039 0.662447 0.540044
O O8 0.009658 0.648487 0.806986
O O9 0.666042 0.405246 0.305165
O O10 0.091826 0.250000 0.639853
O O11 0.036639 0.120263 0.717057
O O12 0.018506 0.011727 0.213356
O O13 0.050498 0.073426 0.976253
#
# Coordination Sequence:
#
# PCOD9466346 Si02
#       6
#     8   8   8   8   8   8
#     4  11  24  42  68  95 128 165 212 266 323 370
#     4  11  24  41  62  92 129 170 212 253 313 382
#     4  11  24  40  68  98 126 166 213 270 312 375
#     4  11  26  43  63  93 132 173 211 257 318 384
#     4  10  21  41  65  94 123 162 213 264 314 366
#     4  10  23  41  66  96 126 162 215 267 314 378
#
# _framework density 19.457011000000001
#
# number of rings (size 3 to 8) (size 9 to 14) (size 15 to 20)
#    0.000    1.333    3.333    1.000    9.333    4.000 
#    0.000    1.667    0.000    0.000    0.000    0.000 
#    0.000    0.000    0.000    0.000    0.000    0.000 
#
# Total GULP energy -268209.229268 kJ/mol
# GULP energy per Si atom -5587.692276 kJ/mol
# Density = 1.941273 g / cm^3
# Si number density = 19.457011 Si / 1000 Ang^3
#
#
#
# Elastic Constant Matrix: (Units=GPa)
#
#
# Indices 1 2 3 4 5 6 
#
# 1 83.5618 39.6950 18.3444 0.0000 0.0000 0.0000
# 2 39.6950 83.5018 33.3299 0.0000 0.0000 0.0000
# 3 18.3444 33.3299 52.4629 0.0000 0.0000 0.0000
# 4 0.0000 0.0000 0.0000 23.7394 0.0000 0.0000
# 5 0.0000 0.0000 0.0000 0.0000 29.2835 0.0000
# 6 0.0000 0.0000 0.0000 0.0000 0.0000 16.8309
#
#
#
# Elastic Compliance Matrix: (Units=1/GPa)
#
#
# Indices 1 2 3 4 5 6 
#
# 1 0.015496 -0.006972 -0.000989 0.000000 0.000000 0.000000
# 2 -0.006972 0.019181 -0.009748 0.000000 0.000000 0.000000
# 3 -0.000989 -0.009748 0.025600 0.000000 0.000000 0.000000
# 4 0.000000 0.000000 0.000000 0.042124 0.000000 0.000000
# 5 0.000000 0.000000 0.000000 0.000000 0.034149 0.000000
# 6 0.000000 0.000000 0.000000 0.000000 0.000000 0.059415
#
#
# Mechanical properties :
#
#
# Convention : Reuss Voigt Hill
#
# Bulk Modulus (GPa) = 40.22671 44.69612 42.46142
# Shear Modulus (GPa) = 20.86212 22.51457 21.68834
#
# Velocity S-wave (km/s) = 3.27802 3.40537 3.34230
# Velocity P-wave (km/s) = 5.92003 6.20352 6.06343
#
# Compressibility (1/GPa) = 0.02485911
#
# Stress axis : x y z
#
# Youngs Moduli (GPa) = 64.53202 52.13518 39.06258
#
# Poissons Ratio (x) = 0.36347 0.03865
# Poissons Ratio (y) = 0.44990 0.38078
# Poissons Ratio (z) = 0.06384 0.50821
#
# Static dielectric constant tensor:
#      x y z
#    x 1.693020 0.000000 0.000000 
#    y 0.000000 1.663820 0.000000 
#    z 0.000000 0.000000 1.668020 
# 
# From -- ./inp_files/6453.got.cif
#   From: 2010.05.17/outbox.cif.g08.bks.cpg/sg62_4_cif.got.tgz:6453.got - 2010.06.03 15:25:27.
