data_PCOD9466592
_publ_section_title
;
Structure prediction by ZEFSAII (Michael W. Deem and Ramdas Pophale) SiO2 
 PCOD9466592
Probable space group: P N M A
;
_chemical_formula_sum "Si O2"
_cell_formula_units_Z 48
_cell_length_a 7.260417
_cell_length_b 21.659024
_cell_length_c 14.094003
_cell_angle_alpha 90.000000
_cell_angle_beta 90.000000
_cell_angle_gamma 90.000000
_cell_volume 2216.331950
_symmetry_space_group_name_H-M "P N M A"
_symmetry_group_IT_number 62
_symmetry_cell_setting 'orthorhombic'
loop_
_space_group_symop_operation_xyz
x,y,z
1/2-x,-y,1/2+z
1/2+x,1/2-y,1/2-z
-x,1/2+y,-z
-x,-y,-z
1/2+x,y,1/2-z
1/2-x,1/2+y,1/2+z
x,1/2-y,z
loop_
_atom_site_type_symbol
_atom_site_label
_atom_site_fract_x
_atom_site_fract_y
_atom_site_fract_z
Si Si1 0.845446 0.514014 0.130877
Si Si2 0.857065 0.250000 0.224377
Si Si3 0.647351 0.364936 0.985030
Si Si4 0.970820 0.375451 0.125517
Si Si5 0.001555 0.250000 0.414587
Si Si6 0.830564 0.056024 0.434852
Si Si7 0.247279 0.557319 0.176400
O O1 0.877761 0.441419 0.155410
O O2 0.763703 0.526495 0.027825
O O3 0.737489 0.551653 0.211449
O O4 0.047085 0.544466 0.133706
O O5 0.948896 0.316405 0.194632
O O6 0.671082 0.250000 0.161418
O O7 0.836324 0.250000 0.338840
O O8 0.848277 0.358647 0.032989
O O9 0.527453 0.306797 0.015521
O O10 0.526265 0.417521 0.035722
O O11 0.670976 0.383146 0.875579
O O12 0.181953 0.394128 0.103954
O O13 0.859657 0.002703 0.358200
#
# Coordination Sequence:
#
# PCOD9466592 Si02
#       7
#     8   4   8   8   4   8   8
#     4  11  22  37  62  94 121 163 208 255 313 369
#     4  10  24  40  60  89 125 164 202 247 301 368
#     4  11  22  40  60  85 124 161 203 249 312 363
#     4  10  22  40  58  88 129 158 207 248 306 368
#     4  10  26  40  64  91 123 166 208 251 301 372
#     4  11  22  38  63  88 125 163 200 259 310 367
#     4  11  22  37  60  90 125 156 207 258 309 366
#
# _framework density 21.657405000000001
#
# number of rings (size 3 to 8) (size 9 to 14) (size 15 to 20)
#    0.000    1.333    3.333    2.500    7.000    2.667 
#    0.000    0.000    0.000    5.000    0.000    0.000 
#    0.000    0.000    0.000    0.000    0.000    0.000 
#
# Total GULP energy -268002.195055 kJ/mol
# GULP energy per Si atom -5583.379064 kJ/mol
# Density = 2.160811 g / cm^3
# Si number density = 21.657405 Si / 1000 Ang^3
#
#
#
# Elastic Constant Matrix: (Units=GPa)
#
#
# Indices 1 2 3 4 5 6 
#
# 1 53.9415 8.4098 -1.1062 0.0000 0.0000 0.0000
# 2 8.4098 88.0839 28.4626 0.0000 0.0000 0.0000
# 3 -1.1062 28.4626 92.0087 0.0000 0.0000 0.0000
# 4 0.0000 0.0000 0.0000 32.9914 0.0000 0.0000
# 5 0.0000 0.0000 0.0000 0.0000 20.8141 0.0000
# 6 0.0000 0.0000 0.0000 0.0000 0.0000 21.7193
#
#
#
# Elastic Compliance Matrix: (Units=1/GPa)
#
#
# Indices 1 2 3 4 5 6 
#
# 1 0.018881 -0.002084 0.000872 0.000000 0.000000 0.000000
# 2 -0.002084 0.012844 -0.003998 0.000000 0.000000 0.000000
# 3 0.000872 -0.003998 0.012116 0.000000 0.000000 0.000000
# 4 0.000000 0.000000 0.000000 0.030311 0.000000 0.000000
# 5 0.000000 0.000000 0.000000 0.000000 0.048044 0.000000
# 6 0.000000 0.000000 0.000000 0.000000 0.000000 0.046042
#
#
# Mechanical properties :
#
#
# Convention : Reuss Voigt Hill
#
# Bulk Modulus (GPa) = 29.92275 33.95184 31.93729
# Shear Modulus (GPa) = 26.34355 28.32283 27.33319
#
# Velocity S-wave (km/s) = 3.49144 3.62023 3.55642
# Velocity P-wave (km/s) = 5.48634 5.76069 5.62519
#
# Compressibility (1/GPa) = 0.03341939
#
# Stress axis : x y z
#
# Youngs Moduli (GPa) = 52.96205 77.85880 82.53645
#
# Poissons Ratio (x) = 0.16229 -0.07196
# Poissons Ratio (y) = 0.11039 0.33000
# Poissons Ratio (z) = -0.04617 0.31130
#
# Static dielectric constant tensor:
#      x y z
#    x 1.865250 0.000000 0.000000 
#    y 0.000000 1.842110 0.000000 
#    z 0.000000 0.000000 1.803620 
# 
# From -- ./inp_files/17105.got.cif
#   From: 2010.05.17/outbox.cif.g08.bks.cpg/sg62_9_cif.got.tgz:17105.got - 2010.06.03 15:25:27.
