data_PCOD9466190
_publ_section_title
;
Structure prediction by ZEFSAII (Michael W. Deem and Ramdas Pophale) SiO2 
 PCOD9466190
Probable space group: P N M A
;
_chemical_formula_sum "Si O2"
_cell_formula_units_Z 48
_cell_length_a 20.780797
_cell_length_b 11.253707
_cell_length_c 10.614895
_cell_angle_alpha 90.000000
_cell_angle_beta 90.000000
_cell_angle_gamma 90.000000
_cell_volume 2482.409967
_symmetry_space_group_name_H-M "P N M A"
_symmetry_group_IT_number 62
_symmetry_cell_setting 'orthorhombic'
loop_
_space_group_symop_operation_xyz
x,y,z
1/2-x,-y,1/2+z
1/2+x,1/2-y,1/2-z
-x,1/2+y,-z
-x,-y,-z
1/2+x,y,1/2-z
1/2-x,1/2+y,1/2+z
x,1/2-y,z
loop_
_atom_site_type_symbol
_atom_site_label
_atom_site_fract_x
_atom_site_fract_y
_atom_site_fract_z
Si Si1 0.004452 0.620918 0.581463
Si Si2 0.149955 0.618243 0.577104
Si Si3 0.559413 0.048072 0.327991
Si Si4 0.687850 0.111737 0.777575
Si Si5 0.938202 0.617971 0.111842
Si Si6 0.835911 0.117065 0.718458
O O1 0.995382 0.750000 0.514370
O O2 0.956339 0.616521 0.699147
O O3 0.000000 0.500000 0.500000
O O4 0.077699 0.620664 0.630760
O O5 0.179642 0.750000 0.604355
O O6 0.182236 0.497533 0.625155
O O7 0.142829 0.609858 0.426601
O O8 0.567736 0.113195 0.460651
O O9 0.495756 0.967281 0.346667
O O10 0.623364 0.972969 0.301010
O O11 0.681304 0.250000 0.824458
O O12 0.630407 0.092815 0.677171
O O13 0.759169 0.101581 0.720768
O O14 0.957009 0.750000 0.151728
O O15 0.849862 0.250000 0.765053
#
# Coordination Sequence:
#
# PCOD9466190 Si02
#       6
#     8   8   8   8   8   8
#     4  11  22  37  60  89 120 153 195 249 300 357
#     4  10  21  40  62  87 118 156 197 244 302 353
#     4  11  21  38  59  88 119 154 201 244 299 356
#     4  10  22  41  61  87 120 158 202 244 294 358
#     4  10  22  38  59  84 117 159 199 244 295 352
#     4  10  22  39  61  86 119 158 199 246 300 359
#
# _framework density 19.336048000000002
#
# number of rings (size 3 to 8) (size 9 to 14) (size 15 to 20)
#    0.000    1.667    3.333    1.000    2.333    1.333 
#    0.000    2.500    0.000    0.000    0.000    0.000 
#    0.000    0.000    0.000    0.000    0.000    0.000 
#
# Total GULP energy -267444.150840 kJ/mol
# GULP energy per Si atom -5571.753143 kJ/mol
# Density = 1.929204 g / cm^3
# Si number density = 19.336048 Si / 1000 Ang^3
#
#
#
# Elastic Constant Matrix: (Units=GPa)
#
#
# Indices 1 2 3 4 5 6 
#
# 1 73.3324 35.5588 0.1767 0.0000 0.0000 0.0000
# 2 35.5588 130.8070 38.3946 0.0000 0.0000 0.0000
# 3 0.1767 38.3946 42.4617 0.0000 0.0000 0.0000
# 4 0.0000 0.0000 0.0000 21.0450 0.0000 0.0000
# 5 0.0000 0.0000 0.0000 0.0000 18.1882 0.0000
# 6 0.0000 0.0000 0.0000 0.0000 0.0000 -50.4680
#
#
#
# Elastic Compliance Matrix: (Units=1/GPa)
#
#
# Indices 1 2 3 4 5 6 
#
# 1 0.016586 -0.006110 0.005456 0.000000 0.000000 0.000000
# 2 -0.006110 0.012658 -0.011420 0.000000 0.000000 0.000000
# 3 0.005456 -0.011420 0.033854 0.000000 0.000000 0.000000
# 4 0.000000 0.000000 0.000000 0.047517 0.000000 0.000000
# 5 0.000000 0.000000 0.000000 0.000000 0.054981 0.000000
# 6 0.000000 0.000000 0.000000 0.000000 0.000000 -0.019815
#
#
# Mechanical properties :
#
#
# Convention : Reuss Voigt Hill
#
# Bulk Modulus (GPa) = 25.67416 43.87349 34.77383
# Shear Modulus (GPa) = 27.33527 9.25109 18.29318
#
# Velocity S-wave (km/s) = 3.76399 2.18969 3.07916
# Velocity P-wave (km/s) = 5.67423 5.39743 5.53756
#
# Compressibility (1/GPa) = 0.03894966
#
# Stress axis : x y z
#
# Youngs Moduli (GPa) = 60.29081 79.00178 29.53838
#
# Poissons Ratio (x) = 0.48273 -0.16116
# Poissons Ratio (y) = 0.36840 0.33733
# Poissons Ratio (z) = -0.32895 0.90221
#
# Static dielectric constant tensor:
#      x y z
#    x 1.676000 0.000000 0.000000 
#    y 0.000000 1.738800 0.000000 
#    z 0.000000 0.000000 1.664080 
# 
# From -- ./inp_files/14136.got.cif
#   From: 2010.05.17/outbox.cif.g08.bks.cpg/sg62_8_cif.got.tgz:14136.got - 2010.06.03 15:25:27.
