data_PCOD9466760
_publ_section_title
;
Structure prediction by ZEFSAII (Michael W. Deem and Ramdas Pophale) SiO2 
 PCOD9466760
Probable space group: P N M A
;
_chemical_formula_sum "Si O2"
_cell_formula_units_Z 52
_cell_length_a 4.757679
_cell_length_b 17.409886
_cell_length_c 25.959902
_cell_angle_alpha 90.000000
_cell_angle_beta 90.000000
_cell_angle_gamma 90.000000
_cell_volume 2150.275531
_symmetry_space_group_name_H-M "P N M A"
_symmetry_group_IT_number 62
_symmetry_cell_setting 'orthorhombic'
loop_
_space_group_symop_operation_xyz
x,y,z
1/2-x,-y,1/2+z
1/2+x,1/2-y,1/2-z
-x,1/2+y,-z
-x,-y,-z
1/2+x,y,1/2-z
1/2-x,1/2+y,1/2+z
x,1/2-y,z
loop_
_atom_site_type_symbol
_atom_site_label
_atom_site_fract_x
_atom_site_fract_y
_atom_site_fract_z
Si Si1 0.252607 0.750000 0.117094
Si Si2 0.151478 0.534307 0.933603
Si Si3 0.072171 0.040989 0.217775
Si Si4 0.605978 0.861220 0.286653
Si Si5 0.126601 0.900795 0.622669
Si Si6 0.197707 0.250000 0.021761
Si Si7 0.814660 0.750000 0.590390
Si Si8 0.630436 0.878438 0.465352
O O1 0.185869 0.684738 0.162607
O O2 0.289509 0.679528 0.073603
O O3 0.395818 0.534855 0.891277
O O4 0.880783 0.584304 0.917131
O O5 0.033681 0.449066 0.939330
O O6 0.269292 0.576201 0.985564
O O7 0.248001 0.052845 0.270204
O O8 0.208726 0.094399 0.175656
O O9 0.123172 0.952399 0.202661
O O10 0.300407 0.844447 0.263242
O O11 0.938182 0.824893 0.617370
O O12 0.010602 0.250000 0.074803
O O13 0.522386 0.250000 0.035680
O O14 0.104070 0.177449 0.989225
#
# Coordination Sequence:
#
# PCOD9466760 Si02
#       8
#     4   8   8   8   8   4   4   8
#     4  11  22  40  66  99 131 174 220 278 329 388
#     4  11  24  42  64  93 129 181 222 269 330 395
#     4  10  22  41  67  97 128 164 215 278 331 390
#     4  10  22  43  65  91 129 170 212 263 331 397
#     4  12  23  42  69  92 130 173 226 264 339 415
#     4  11  22  42  58  89 130 167 210 262 331 378
#     4  12  22  40  62  92 117 173 208 264 322 400
#     4  10  23  41  63  94 134 169 223 280 320 390
#
# _framework density 24.182949000000001
#
# number of rings (size 3 to 8) (size 9 to 14) (size 15 to 20)
#    0.000    1.231    3.077    2.308    0.000    6.154 
#    0.000   11.538    0.000    0.000    0.000    0.000 
#    0.000    0.000    0.000    0.000    0.000    0.000 
#
# Total GULP energy -289585.961467 kJ/mol
# GULP energy per Si atom -5568.960797 kJ/mol
# Density = 2.412791 g / cm^3
# Si number density = 24.182949 Si / 1000 Ang^3
#
#
#
# Elastic Constant Matrix: (Units=GPa)
#
#
# Indices 1 2 3 4 5 6 
#
# 1 64.8933 -1.8413 -12.2271 0.0000 0.0000 0.0000
# 2 -1.8413 127.0109 17.6569 0.0000 0.0000 0.0000
# 3 -12.2271 17.6569 76.9978 0.0000 0.0000 0.0000
# 4 0.0000 0.0000 0.0000 33.6452 0.0000 0.0000
# 5 0.0000 0.0000 0.0000 0.0000 19.2272 0.0000
# 6 0.0000 0.0000 0.0000 0.0000 0.0000 16.5471
#
#
#
# Elastic Compliance Matrix: (Units=1/GPa)
#
#
# Indices 1 2 3 4 5 6 
#
# 1 0.015887 -0.000124 0.002551 0.000000 0.000000 0.000000
# 2 -0.000124 0.008134 -0.001885 0.000000 0.000000 0.000000
# 3 0.002551 -0.001885 0.013825 0.000000 0.000000 0.000000
# 4 0.000000 0.000000 0.000000 0.029722 0.000000 0.000000
# 5 0.000000 0.000000 0.000000 0.000000 0.052010 0.000000
# 6 0.000000 0.000000 0.000000 0.000000 0.000000 0.060434
#
#
# Mechanical properties :
#
#
# Convention : Reuss Voigt Hill
#
# Bulk Modulus (GPa) = 25.68739 30.67546 28.18142
# Shear Modulus (GPa) = 26.05480 31.57144 28.81312
#
# Velocity S-wave (km/s) = 3.28594 3.61712 3.45550
# Velocity P-wave (km/s) = 5.00417 5.49155 5.25351
#
# Compressibility (1/GPa) = 0.03892960
#
# Stress axis : x y z
#
# Youngs Moduli (GPa) = 62.94411 122.94715 72.33390
#
# Poissons Ratio (x) = 0.01529 -0.18455
# Poissons Ratio (y) = 0.00783 0.13634
# Poissons Ratio (z) = -0.16059 0.23175
#
# Static dielectric constant tensor:
#      x y z
#    x 1.894060 0.000000 0.000000 
#    y 0.000000 1.958360 0.000000 
#    z 0.000000 0.000000 2.003080 
# 
# From -- ./inp_files/30498.got.cif
#   From: 2010.05.17/outbox.cif.g08.bks.cpg/sg62_16_cif.got.tgz:30498.got - 2010.06.03 15:25:27.
