data_PCOD9466131
_publ_section_title
;
Structure prediction by ZEFSAII (Michael W. Deem and Ramdas Pophale) SiO2 
 PCOD9466131
Probable space group: P N M A
;
_chemical_formula_sum "Si O2"
_cell_formula_units_Z 64
_cell_length_a 17.612265
_cell_length_b 14.753665
_cell_length_c 11.700352
_cell_angle_alpha 90.000000
_cell_angle_beta 90.000000
_cell_angle_gamma 90.000000
_cell_volume 3040.283321
_symmetry_space_group_name_H-M "P N M A"
_symmetry_group_IT_number 62
_symmetry_cell_setting 'orthorhombic'
loop_
_space_group_symop_operation_xyz
x,y,z
1/2-x,-y,1/2+z
1/2+x,1/2-y,1/2-z
-x,1/2+y,-z
-x,-y,-z
1/2+x,y,1/2-z
1/2-x,1/2+y,1/2+z
x,1/2-y,z
loop_
_atom_site_type_symbol
_atom_site_label
_atom_site_fract_x
_atom_site_fract_y
_atom_site_fract_z
Si Si1 0.858475 0.353861 0.146270
Si Si2 0.787819 0.529388 0.599672
Si Si3 0.426675 0.148363 0.590345
Si Si4 0.507444 0.853286 0.786793
Si Si5 0.628764 0.456459 0.333739
Si Si6 0.056279 0.083699 0.514421
Si Si7 0.079530 0.144602 0.770086
Si Si8 0.296838 0.640608 0.450486
O O1 0.830993 0.250000 0.162056
O O2 0.790598 0.414592 0.097382
O O3 0.905779 0.382956 0.258640
O O4 0.921520 0.354068 0.046037
O O5 0.812584 0.541770 0.730209
O O6 0.856912 0.568033 0.524594
O O7 0.775344 0.425180 0.562190
O O8 0.399223 0.250000 0.625129
O O9 0.510187 0.137022 0.641378
O O10 0.381407 0.060954 0.631733
O O11 0.501458 0.750000 0.744200
O O12 0.449136 0.917330 0.719188
O O13 0.481332 0.851705 0.918676
O O14 0.658068 0.394227 0.437465
O O15 0.058082 0.104948 0.648159
O O16 0.000000 0.000000 0.500000
O O17 0.092409 0.250000 0.747014
O O18 0.153325 0.113760 0.838936
O O19 0.285608 0.750000 0.453891
#
# Coordination Sequence:
#
# PCOD9466131 Si02
#       8
#     8   8   8   8   8   8   8   8
#     4  10  22  41  68 100 130 167 219 282 344 399
#     4  11  26  42  65  98 133 177 230 281 348 404
#     4  10  21  39  65 100 130 168 222 278 337 403
#     4  10  22  41  66  96 130 172 223 278 337 403
#     4  11  23  40  66  94 131 180 223 282 337 418
#     4  11  25  43  65  94 133 184 231 276 336 413
#     4  10  22  40  66  97 134 177 224 275 337 411
#     4  11  25  42  65  98 136 177 225 286 349 405
#
# _framework density 21.050671000000001
#
# number of rings (size 3 to 8) (size 9 to 14) (size 15 to 20)
#    0.000    1.500    1.250    3.000    5.250    6.500 
#    0.000    5.000    0.000    0.000    0.000    0.000 
#    0.000    0.000    0.000    0.000    0.000    0.000 
#
# Total GULP energy -357049.424448 kJ/mol
# GULP energy per Si atom -5578.897257 kJ/mol
# Density = 2.100276 g / cm^3
# Si number density = 21.050671 Si / 1000 Ang^3
#
#
#
# Elastic Constant Matrix: (Units=GPa)
#
#
# Indices 1 2 3 4 5 6 
#
# 1 57.9362 36.6490 0.1383 0.0000 0.0000 0.0000
# 2 36.6490 92.1300 18.1086 0.0000 0.0000 0.0000
# 3 0.1383 18.1086 18.9099 0.0000 0.0000 0.0000
# 4 0.0000 0.0000 0.0000 35.2030 0.0000 0.0000
# 5 0.0000 0.0000 0.0000 0.0000 19.8040 0.0000
# 6 0.0000 0.0000 0.0000 0.0000 0.0000 0.0095
#
#
#
# Elastic Compliance Matrix: (Units=1/GPa)
#
#
# Indices 1 2 3 4 5 6 
#
# 1 0.024934 -0.012174 0.011476 0.000000 0.000000 0.000000
# 2 -0.012174 0.019315 -0.018408 0.000000 0.000000 0.000000
# 3 0.011476 -0.018408 0.070426 0.000000 0.000000 0.000000
# 4 0.000000 0.000000 0.000000 0.028407 0.000000 0.000000
# 5 0.000000 0.000000 0.000000 0.000000 0.050495 0.000000
# 6 0.000000 0.000000 0.000000 0.000000 0.000000105.224758
#
#
# Mechanical properties :
#
#
# Convention : Reuss Voigt Hill
#
# Bulk Modulus (GPa) = 13.07815 30.97422 22.02618
# Shear Modulus (GPa) = 0.04740 18.60866 9.32803
#
# Velocity S-wave (km/s) = 0.15022 2.97643 2.10733
# Velocity P-wave (km/s) = 2.50125 5.15347 4.05059
#
# Compressibility (1/GPa) = 0.07646343
#
# Stress axis : x y z
#
# Youngs Moduli (GPa) = 40.10560 51.77244 14.19930
#
# Poissons Ratio (x) = 0.63030 -0.16295
# Poissons Ratio (y) = 0.48826 0.26138
# Poissons Ratio (z) = -0.46026 0.95301
#
# Static dielectric constant tensor:
#      x y z
#    x 1.758860 0.000000 0.000000 
#    y 0.000000 1.780450 0.000000 
#    z 0.000000 0.000000 1.812240 
# 
# From -- ./inp_files/14314.got.cif
#   From: 2010.05.17/outbox.cif.g08.bks.cpg/sg62_8_cif.got.tgz:14314.got - 2010.06.03 15:25:27.
