data_PCOD9466893
_publ_section_title
;
Structure prediction by ZEFSAII (Michael W. Deem and Ramdas Pophale) SiO2 
 PCOD9466893
Probable space group: P N M A
;
_chemical_formula_sum "Si O2"
_cell_formula_units_Z 40
_cell_length_a 24.446213
_cell_length_b 11.721100
_cell_length_c 5.110433
_cell_angle_alpha 90.000000
_cell_angle_beta 90.000000
_cell_angle_gamma 90.000000
_cell_volume 1464.325622
_symmetry_space_group_name_H-M "P N M A"
_symmetry_group_IT_number 62
_symmetry_cell_setting 'orthorhombic'
loop_
_space_group_symop_operation_xyz
x,y,z
1/2-x,-y,1/2+z
1/2+x,1/2-y,1/2-z
-x,1/2+y,-z
-x,-y,-z
1/2+x,y,1/2-z
1/2-x,1/2+y,1/2+z
x,1/2-y,z
loop_
_atom_site_type_symbol
_atom_site_label
_atom_site_fract_x
_atom_site_fract_y
_atom_site_fract_z
Si Si1 0.394045 0.750000 0.438994
Si Si2 0.528681 0.250000 0.060353
Si Si3 0.731266 0.869819 0.574449
Si Si4 0.369728 0.122019 0.778050
Si Si5 0.967566 0.113951 0.093242
Si Si6 0.835442 0.557934 0.352036
O O1 0.438218 0.750000 0.204019
O O2 0.359787 0.862640 0.371619
O O3 0.423173 0.750000 0.717901
O O4 0.490211 0.360631 0.112928
O O5 0.715198 0.750000 0.703004
O O6 0.693453 0.875974 0.314587
O O7 0.795932 0.869797 0.538298
O O8 0.709368 0.972310 0.740427
O O9 0.382471 0.250000 0.878278
O O10 0.406665 0.099173 0.520305
O O11 0.377058 0.019421 0.982260
O O12 0.976366 0.250000 0.005553
O O13 0.000000 0.000000 0.000000
#
# Coordination Sequence:
#
# PCOD9466893 Si02
#       6
#     4   4   8   8   8   8
#     4  12  28  46  75 109 144 190 240 298 358 434
#     4  10  26  50  71 105 148 184 244 302 360 428
#     4  11  24  42  62 100 138 185 240 293 360 432
#     4  10  22  44  67  99 139 179 237 291 360 428
#     4   9  20  41  71  98 140 182 236 296 361 424
#     4  12  24  41  70  97 142 188 234 299 356 436
#
# _framework density 27.316326
#
# number of rings (size 3 to 8) (size 9 to 14) (size 15 to 20)
#    0.600    0.800    3.000    1.800    5.600    0.000 
#    5.400    2.000    0.000    0.000    0.000    0.000 
#    0.000    0.000    0.000    0.000    0.000    0.000 
#
# Total GULP energy -223456.405682 kJ/mol
# GULP energy per Si atom -5586.410142 kJ/mol
# Density = 2.725415 g / cm^3
# Si number density = 27.316326 Si / 1000 Ang^3
#
#
#
# Elastic Constant Matrix: (Units=GPa)
#
#
# Indices 1 2 3 4 5 6 
#
# 1 118.8013 33.3984 24.8194 0.0000 0.0000 0.0000
# 2 33.3984 186.3618 21.5189 0.0000 0.0000 0.0000
# 3 24.8194 21.5189 85.6779 0.0000 0.0000 0.0000
# 4 0.0000 0.0000 0.0000 13.1218 0.0000 0.0000
# 5 0.0000 0.0000 0.0000 0.0000 45.6305 0.0000
# 6 0.0000 0.0000 0.0000 0.0000 0.0000 19.8136
#
#
#
# Elastic Compliance Matrix: (Units=1/GPa)
#
#
# Indices 1 2 3 4 5 6 
#
# 1 0.009299 -0.001396 -0.002343 0.000000 0.000000 0.000000
# 2 -0.001396 0.005736 -0.001036 0.000000 0.000000 0.000000
# 3 -0.002343 -0.001036 0.012611 0.000000 0.000000 0.000000
# 4 0.000000 0.000000 0.000000 0.076209 0.000000 0.000000
# 5 0.000000 0.000000 0.000000 0.000000 0.021915 0.000000
# 6 0.000000 0.000000 0.000000 0.000000 0.000000 0.050470
#
#
# Mechanical properties :
#
#
# Convention : Reuss Voigt Hill
#
# Bulk Modulus (GPa) = 55.26413 61.14604 58.20509
# Shear Modulus (GPa) = 26.06571 36.45346 31.25959
#
# Velocity S-wave (km/s) = 3.09239 3.65704 3.38650
# Velocity P-wave (km/s) = 5.74679 6.34546 6.05353
#
# Compressibility (1/GPa) = 0.01809492
#
# Stress axis : x y z
#
# Youngs Moduli (GPa) = 107.53365 174.34550 79.29792
#
# Poissons Ratio (x) = 0.24339 0.18582
# Poissons Ratio (y) = 0.15012 0.08217
# Poissons Ratio (z) = 0.25198 0.18066
#
# Static dielectric constant tensor:
#      x y z
#    x 2.184030 0.000000 0.000000 
#    y 0.000000 2.199940 0.000000 
#    z 0.000000 0.000000 2.329710 
# 
# From -- ./inp_files/3075.got.cif
#   From: 2010.05.17/outbox.cif.g08.bks.cpg/sg62_2_cif.got.tgz:3075.got - 2010.06.03 15:25:27.
