data_PCOD9466385
_publ_section_title
;
Structure prediction by ZEFSAII (Michael W. Deem and Ramdas Pophale) SiO2 
 PCOD9466385
Probable space group: P N M A
;
_chemical_formula_sum "Si O2"
_cell_formula_units_Z 48
_cell_length_a 9.676892
_cell_length_b 8.545401
_cell_length_c 28.981820
_cell_angle_alpha 90.000000
_cell_angle_beta 90.000000
_cell_angle_gamma 90.000000
_cell_volume 2396.591397
_symmetry_space_group_name_H-M "P N M A"
_symmetry_group_IT_number 62
_symmetry_cell_setting 'orthorhombic'
loop_
_space_group_symop_operation_xyz
x,y,z
1/2-x,-y,1/2+z
1/2+x,1/2-y,1/2-z
-x,1/2+y,-z
-x,-y,-z
1/2+x,y,1/2-z
1/2-x,1/2+y,1/2+z
x,1/2-y,z
loop_
_atom_site_type_symbol
_atom_site_label
_atom_site_fract_x
_atom_site_fract_y
_atom_site_fract_z
Si Si1 0.593949 0.062280 0.541321
Si Si2 0.994141 0.936413 0.301016
Si Si3 0.814061 0.060348 0.379606
Si Si4 0.198912 0.561382 0.779579
Si Si5 0.007202 0.061726 0.138974
Si Si6 0.353294 0.438012 0.014621
O O1 0.585477 0.250000 0.543750
O O2 0.745560 0.013493 0.524621
O O3 0.500000 0.000000 0.500000
O O4 0.548788 0.991493 0.589610
O O5 0.998080 0.750000 0.298915
O O6 0.942222 0.991737 0.351320
O O7 0.877497 0.001177 0.266136
O O8 0.145377 0.001281 0.287402
O O9 0.821331 0.250000 0.377658
O O10 0.667117 0.010045 0.357425
O O11 0.814082 0.011401 0.433386
O O12 0.203633 0.750000 0.778141
O O13 0.097414 0.509193 0.821237
O O14 0.009569 0.250000 0.140391
O O15 0.352772 0.250000 0.015848
O O16 0.500000 0.500000 0.000000
#
# Coordination Sequence:
#
# PCOD9466385 Si02
#       6
#     8   8   8   8   8   8
#     4  11  22  39  62  91 125 164 209 258 311 369
#     4  12  26  43  66  98 132 162 206 266 320 370
#     4  10  21  42  65  89 125 169 214 258 311 381
#     4  11  24  44  70  96 125 169 212 253 313 387
#     4  10  22  41  66  93 122 161 212 260 308 371
#     4  10  23  40  60  88 125 167 212 261 312 371
#
# _framework density 20.028445999999999
#
# number of rings (size 3 to 8) (size 9 to 14) (size 15 to 20)
#    0.000    1.333    1.667    3.500    2.333    5.333 
#    0.000    0.000    0.000    0.000    0.000    0.000 
#    0.000    0.000    0.000    0.000    0.000    0.000 
#
# Total GULP energy -268288.412792 kJ/mol
# GULP energy per Si atom -5589.341933 kJ/mol
# Density = 1.998286 g / cm^3
# Si number density = 20.028446 Si / 1000 Ang^3
#
#
#
# Elastic Constant Matrix: (Units=GPa)
#
#
# Indices 1 2 3 4 5 6 
#
# 1 132.6875 21.5483 16.4228 0.0000 0.0000 0.0000
# 2 21.5483 20.8103 7.1239 0.0000 0.0000 0.0000
# 3 16.4228 7.1239 72.4289 0.0000 0.0000 0.0000
# 4 0.0000 0.0000 0.0000 33.3364 0.0000 0.0000
# 5 0.0000 0.0000 0.0000 0.0000 41.9693 0.0000
# 6 0.0000 0.0000 0.0000 0.0000 0.0000 31.8902
#
#
#
# Elastic Compliance Matrix: (Units=1/GPa)
#
#
# Indices 1 2 3 4 5 6 
#
# 1 0.009157 -0.009077 -0.001184 0.000000 0.000000 0.000000
# 2 -0.009077 0.058724 -0.003718 0.000000 0.000000 0.000000
# 3 -0.001184 -0.003718 0.014441 0.000000 0.000000 0.000000
# 4 0.000000 0.000000 0.000000 0.029997 0.000000 0.000000
# 5 0.000000 0.000000 0.000000 0.000000 0.023827 0.000000
# 6 0.000000 0.000000 0.000000 0.000000 0.000000 0.031358
#
#
# Mechanical properties :
#
#
# Convention : Reuss Voigt Hill
#
# Bulk Modulus (GPa) = 18.39385 35.12407 26.75896
# Shear Modulus (GPa) = 23.41021 33.49462 28.45241
#
# Velocity S-wave (km/s) = 3.42255 4.09388 3.77317
# Velocity P-wave (km/s) = 4.98220 6.31835 5.68963
#
# Compressibility (1/GPa) = 0.05436599
#
# Stress axis : x y z
#
# Youngs Moduli (GPa) = 109.20589 17.02869 69.24880
#
# Poissons Ratio (x) = 0.15456 0.08196
# Poissons Ratio (y) = 0.99122 0.25746
# Poissons Ratio (z) = 0.12925 0.06331
#
# Static dielectric constant tensor:
#      x y z
#    x 1.802350 0.000000 0.000000 
#    y 0.000000 1.671320 0.000000 
#    z 0.000000 0.000000 1.714230 
# 
# From -- ./inp_files/32009.got.cif
#   From: 2010.05.17/outbox.cif.g08.bks.cpg/sg62_17_cif.got.tgz:32009.got - 2010.06.03 15:25:27.
