data_PCOD9466140
_publ_section_title
;
Structure prediction by ZEFSAII (Michael W. Deem and Ramdas Pophale) SiO2 
 PCOD9466140
Probable space group: P N M A
;
_chemical_formula_sum "Si O2"
_cell_formula_units_Z 56
_cell_length_a 5.147458
_cell_length_b 14.160366
_cell_length_c 35.576359
_cell_angle_alpha 90.000000
_cell_angle_beta 90.000000
_cell_angle_gamma 90.000000
_cell_volume 2593.156867
_symmetry_space_group_name_H-M "P N M A"
_symmetry_group_IT_number 62
_symmetry_cell_setting 'orthorhombic'
loop_
_space_group_symop_operation_xyz
x,y,z
1/2-x,-y,1/2+z
1/2+x,1/2-y,1/2-z
-x,1/2+y,-z
-x,-y,-z
1/2+x,y,1/2-z
1/2-x,1/2+y,1/2+z
x,1/2-y,z
loop_
_atom_site_type_symbol
_atom_site_label
_atom_site_fract_x
_atom_site_fract_y
_atom_site_fract_z
Si Si1 0.444309 0.959206 0.040710
Si Si2 0.325372 0.864548 0.730527
Si Si3 0.563625 0.539585 0.880749
Si Si4 0.069628 0.135417 0.772487
Si Si5 0.063910 0.356508 0.935951
Si Si6 0.444384 0.363049 0.350148
Si Si7 0.854269 0.139512 0.854281
O O1 0.649319 0.876264 0.049345
O O2 0.500425 0.029684 0.075293
O O3 0.500000 0.000000 0.000000
O O4 0.851090 0.074784 0.954157
O O5 0.033297 0.895646 0.738233
O O6 0.315351 0.750000 0.731384
O O7 0.448915 0.889884 0.690958
O O8 0.327667 0.588933 0.859539
O O9 0.827867 0.599446 0.876954
O O10 0.630297 0.436139 0.863568
O O11 0.342970 0.103351 0.755821
O O12 0.076693 0.250000 0.771362
O O13 0.994565 0.113238 0.815353
O O14 0.985148 0.250000 0.944549
O O15 0.040497 0.367678 0.890741
O O16 0.416895 0.250000 0.351779
O O17 0.767108 0.250000 0.851554
#
# Coordination Sequence:
#
# PCOD9466140 Si02
#       7
#     8   8   8   8   8   8   8
#     4  11  23  42  64  91 126 159 194 250 312 366
#     4   9  17  32  56  83 112 152 200 253 308 349
#     4  11  23  41  63  90 119 158 206 247 304 375
#     4   9  18  32  51  78 116 160 199 240 297 355
#     4  10  21  39  65  94 122 159 207 250 299 363
#     4  11  23  41  62  87 124 164 206 254 301 360
#     4   9  20  39  63  89 121 160 204 256 303 354
#
# _framework density 21.595300999999999
#
# number of rings (size 3 to 8) (size 9 to 14) (size 15 to 20)
#    0.000    2.000    0.000    3.857    0.000    6.286 
#    0.000   17.857    0.000    0.000    0.000    0.000 
#    0.000    0.000    0.000    0.000    0.000    0.000 
#
# Total GULP energy -313192.422296 kJ/mol
# GULP energy per Si atom -5592.721827 kJ/mol
# Density = 2.154615 g / cm^3
# Si number density = 21.595301 Si / 1000 Ang^3
#
#
#
# Elastic Constant Matrix: (Units=GPa)
#
#
# Indices 1 2 3 4 5 6 
#
# 1 68.8206 20.6341 0.0887 0.0000 0.0000 0.0000
# 2 20.6341 96.4760 38.4205 0.0000 0.0000 0.0000
# 3 0.0887 38.4205 96.4527 0.0000 0.0000 0.0000
# 4 0.0000 0.0000 0.0000 24.4613 0.0000 0.0000
# 5 0.0000 0.0000 0.0000 0.0000 19.6205 0.0000
# 6 0.0000 0.0000 0.0000 0.0000 0.0000 34.6617
#
#
#
# Elastic Compliance Matrix: (Units=1/GPa)
#
#
# Indices 1 2 3 4 5 6 
#
# 1 0.015725 -0.003990 0.001575 0.000000 0.000000 0.000000
# 2 -0.003990 0.013332 -0.005307 0.000000 0.000000 0.000000
# 3 0.001575 -0.005307 0.012480 0.000000 0.000000 0.000000
# 4 0.000000 0.000000 0.000000 0.040881 0.000000 0.000000
# 5 0.000000 0.000000 0.000000 0.000000 0.050967 0.000000
# 6 0.000000 0.000000 0.000000 0.000000 0.000000 0.028850
#
#
# Mechanical properties :
#
#
# Convention : Reuss Voigt Hill
#
# Bulk Modulus (GPa) = 38.32501 42.22622 40.27562
# Shear Modulus (GPa) = 26.82718 29.25575 28.04147
#
# Velocity S-wave (km/s) = 3.52841 3.68466 3.60738
# Velocity P-wave (km/s) = 5.86387 6.13988 6.00346
#
# Compressibility (1/GPa) = 0.02609262
#
# Stress axis : x y z
#
# Youngs Moduli (GPa) = 63.59326 75.00631 80.12624
#
# Poissons Ratio (x) = 0.29931 -0.12621
# Poissons Ratio (y) = 0.25377 0.42523
# Poissons Ratio (z) = -0.10016 0.39806
#
# Static dielectric constant tensor:
#      x y z
#    x 1.763650 0.000000 0.000000 
#    y 0.000000 1.826930 0.000000 
#    z 0.000000 0.000000 1.769150 
# 
# From -- ./inp_files/31618.got.cif
#   From: 2010.05.17/outbox.cif.g08.bks.cpg/sg62_16_cif.got.tgz:31618.got - 2010.06.03 15:25:27.
