data_PCOD9466585
_publ_section_title
;
Structure prediction by ZEFSAII (Michael W. Deem and Ramdas Pophale) SiO2 
 PCOD9466585
Probable space group: P N M A
;
_chemical_formula_sum "Si O2"
_cell_formula_units_Z 56
_cell_length_a 8.526618
_cell_length_b 19.331672
_cell_length_c 13.837595
_cell_angle_alpha 90.000000
_cell_angle_beta 90.000000
_cell_angle_gamma 90.000000
_cell_volume 2280.903124
_symmetry_space_group_name_H-M "P N M A"
_symmetry_group_IT_number 62
_symmetry_cell_setting 'orthorhombic'
loop_
_space_group_symop_operation_xyz
x,y,z
1/2-x,-y,1/2+z
1/2+x,1/2-y,1/2-z
-x,1/2+y,-z
-x,-y,-z
1/2+x,y,1/2-z
1/2-x,1/2+y,1/2+z
x,1/2-y,z
loop_
_atom_site_type_symbol
_atom_site_label
_atom_site_fract_x
_atom_site_fract_y
_atom_site_fract_z
Si Si1 0.571999 0.897820 0.537219
Si Si2 0.607931 0.170592 0.727644
Si Si3 0.619170 0.750000 0.608435
Si Si4 0.808132 0.413060 0.839173
Si Si5 0.245026 0.955588 0.788771
Si Si6 0.257459 0.166731 0.971686
Si Si7 0.452726 0.114798 0.136059
Si Si8 0.094923 0.250000 0.267756
O O1 0.647465 0.821157 0.553018
O O2 0.657776 0.935221 0.448314
O O3 0.606567 0.942056 0.633182
O O4 0.395445 0.875533 0.510845
O O5 0.557275 0.250000 0.727478
O O6 0.468168 0.122012 0.694982
O O7 0.677637 0.146228 0.828738
O O8 0.741400 0.162630 0.644225
O O9 0.446510 0.750000 0.655473
O O10 0.724893 0.750000 0.703760
O O11 0.756209 0.471913 0.765109
O O12 0.198843 0.904587 0.700795
O O13 0.408513 0.940203 0.843497
O O14 0.255136 0.250000 0.991306
O O15 0.400761 0.130862 0.027285
O O16 0.524294 0.183222 0.181958
#
# Coordination Sequence:
#
# PCOD9466585 Si02
#       8
#     8   8   4   8   8   8   8   4
#     4  11  24  43  73 102 139 188 238 295 352 423
#     4  10  23  46  73 104 133 181 239 299 351 405
#     4  12  24  40  70 107 143 180 242 291 361 401
#     4  11  26  48  71  98 141 186 235 290 350 429
#     4  12  26  44  66 101 140 188 230 276 355 431
#     4  10  22  39  68 103 137 173 233 295 354 410
#     4  12  23  40  66  99 144 183 226 286 348 414
#     4  12  22  38  66 105 143 176 226 293 349 401
#
# _framework density 24.551677999999999
#
# number of rings (size 3 to 8) (size 9 to 14) (size 15 to 20)
#    0.000    0.857    4.286    2.143    4.000    2.286 
#    0.000    5.714    0.000    0.000    0.000    0.000 
#    0.000    0.000    0.000    0.000    0.000    0.000 
#
# Total GULP energy -313306.492481 kJ/mol
# GULP energy per Si atom -5594.758794 kJ/mol
# Density = 2.449580 g / cm^3
# Si number density = 24.551678 Si / 1000 Ang^3
#
#
#
# Elastic Constant Matrix: (Units=GPa)
#
#
# Indices 1 2 3 4 5 6 
#
# 1 45.7085 4.8937 12.7487 0.0000 0.0000 0.0000
# 2 4.8937 85.5130 26.8464 0.0000 0.0000 0.0000
# 3 12.7487 26.8464 76.1604 0.0000 0.0000 0.0000
# 4 0.0000 0.0000 0.0000 25.6071 0.0000 0.0000
# 5 0.0000 0.0000 0.0000 0.0000 40.4686 0.0000
# 6 0.0000 0.0000 0.0000 0.0000 0.0000 24.5263
#
#
#
# Elastic Compliance Matrix: (Units=1/GPa)
#
#
# Indices 1 2 3 4 5 6 
#
# 1 0.022950 -0.000121 -0.003799 0.000000 0.000000 0.000000
# 2 -0.000121 0.013150 -0.004615 0.000000 0.000000 0.000000
# 3 -0.003799 -0.004615 0.015393 0.000000 0.000000 0.000000
# 4 0.000000 0.000000 0.000000 0.039052 0.000000 0.000000
# 5 0.000000 0.000000 0.000000 0.000000 0.024711 0.000000
# 6 0.000000 0.000000 0.000000 0.000000 0.000000 0.040772
#
#
# Mechanical properties :
#
#
# Convention : Reuss Voigt Hill
#
# Bulk Modulus (GPa) = 29.05011 32.92883 30.98947
# Shear Modulus (GPa) = 27.08969 28.97997 28.03483
#
# Velocity S-wave (km/s) = 3.32531 3.43937 3.38282
# Velocity P-wave (km/s) = 5.15767 5.40496 5.28276
#
# Compressibility (1/GPa) = 0.03442328
#
# Stress axis : x y z
#
# Youngs Moduli (GPa) = 43.57241 76.04609 64.96482
#
# Poissons Ratio (x) = 0.00917 0.24681
# Poissons Ratio (y) = 0.00526 0.29982
# Poissons Ratio (z) = 0.16554 0.35096
#
# Static dielectric constant tensor:
#      x y z
#    x 1.993680 0.000000 0.000000 
#    y 0.000000 1.975350 0.000000 
#    z 0.000000 0.000000 1.918720 
# 
# From -- ./inp_files/17242.got.cif
#   From: 2010.05.17/outbox.cif.g08.bks.cpg/sg62_9_cif.got.tgz:17242.got - 2010.06.03 15:25:27.
