data_PCOD9466409
_publ_section_title
;
Structure prediction by ZEFSAII (Michael W. Deem and Ramdas Pophale) SiO2 
 PCOD9466409
Probable space group: P N M A
;
_chemical_formula_sum "Si O2"
_cell_formula_units_Z 48
_cell_length_a 28.723213
_cell_length_b 13.262709
_cell_length_c 4.964769
_cell_angle_alpha 90.000000
_cell_angle_beta 90.000000
_cell_angle_gamma 90.000000
_cell_volume 1891.316912
_symmetry_space_group_name_H-M "P N M A"
_symmetry_group_IT_number 62
_symmetry_cell_setting 'orthorhombic'
loop_
_space_group_symop_operation_xyz
x,y,z
1/2-x,-y,1/2+z
1/2+x,1/2-y,1/2-z
-x,1/2+y,-z
-x,-y,-z
1/2+x,y,1/2-z
1/2-x,1/2+y,1/2+z
x,1/2-y,z
loop_
_atom_site_type_symbol
_atom_site_label
_atom_site_fract_x
_atom_site_fract_y
_atom_site_fract_z
Si Si1 0.840260 0.564568 0.145511
Si Si2 0.034248 0.441301 0.692641
Si Si3 0.945727 0.363400 0.974033
Si Si4 0.654373 0.637194 0.313188
Si Si5 0.743522 0.931444 0.022155
Si Si6 0.883241 0.861809 0.640504
O O1 0.837970 0.452515 0.024933
O O2 0.878646 0.618423 0.956376
O O3 0.791866 0.622781 0.096655
O O4 0.851481 0.565258 0.459773
O O5 0.067207 0.378842 0.495366
O O6 0.000000 0.500000 0.500000
O O7 0.998664 0.374462 0.867351
O O8 0.058959 0.534265 0.850315
O O9 0.941638 0.250000 0.096690
O O10 0.902022 0.369281 0.761429
O O11 0.661194 0.750000 0.424646
O O12 0.695330 0.623083 0.092361
O O13 0.748243 0.028145 0.222599
O O14 0.866946 0.750000 0.583677
#
# Coordination Sequence:
#
# PCOD9466409 Si02
#       6
#     8   8   8   8   8   8
#     4  11  23  46  69 105 142 182 234 298 353 427
#     4  11  24  42  68 100 139 191 237 301 358 425
#     4  10  22  43  68 102 142 184 242 299 364 436
#     4  10  21  42  71 103 141 188 235 296 365 430
#     4  10  22  43  71 100 140 188 236 294 356 425
#     4  12  26  44  71 101 141 188 238 293 358 429
#
# _framework density 25.379142000000002
#
# number of rings (size 3 to 8) (size 9 to 14) (size 15 to 20)
#    0.000    1.333    1.667    4.000    2.333    2.667 
#    0.000    8.333    0.000    1.000    0.000    0.000 
#    0.000    0.000    0.000    0.000    0.000    0.000 
#
# Total GULP energy -267855.353319 kJ/mol
# GULP energy per Si atom -5580.319861 kJ/mol
# Density = 2.532138 g / cm^3
# Si number density = 25.379142 Si / 1000 Ang^3
#
#
#
# Elastic Constant Matrix: (Units=GPa)
#
#
# Indices 1 2 3 4 5 6 
#
# 1 140.5621 31.0127 27.1199 0.0000 0.0000 0.0000
# 2 31.0127 126.1665 6.8221 0.0000 0.0000 0.0000
# 3 27.1199 6.8221 61.3372 0.0000 0.0000 0.0000
# 4 0.0000 0.0000 0.0000 11.4366 0.0000 0.0000
# 5 0.0000 0.0000 0.0000 0.0000 55.1818 0.0000
# 6 0.0000 0.0000 0.0000 0.0000 0.0000 8.0070
#
#
#
# Elastic Compliance Matrix: (Units=1/GPa)
#
#
# Indices 1 2 3 4 5 6 
#
# 1 0.008175 -0.001825 -0.003412 0.000000 0.000000 0.000000
# 2 -0.001825 0.008381 -0.000125 0.000000 0.000000 0.000000
# 3 -0.003412 -0.000125 0.017826 0.000000 0.000000 0.000000
# 4 0.000000 0.000000 0.000000 0.087438 0.000000 0.000000
# 5 0.000000 0.000000 0.000000 0.000000 0.018122 0.000000
# 6 0.000000 0.000000 0.000000 0.000000 0.000000 0.124891
#
#
# Mechanical properties :
#
#
# Convention : Reuss Voigt Hill
#
# Bulk Modulus (GPa) = 42.26826 50.88611 46.57718
# Shear Modulus (GPa) = 17.64020 32.46582 25.05301
#
# Velocity S-wave (km/s) = 2.63927 3.58052 3.14530
# Velocity P-wave (km/s) = 5.09692 6.09814 5.61987
#
# Compressibility (1/GPa) = 0.02365842
#
# Stress axis : x y z
#
# Youngs Moduli (GPa) = 122.32130 119.31152 56.09879
#
# Poissons Ratio (x) = 0.21775 0.19139
# Poissons Ratio (y) = 0.22324 0.00703
# Poissons Ratio (z) = 0.41731 0.01495
#
# Static dielectric constant tensor:
#      x y z
#    x 2.106500 0.000000 0.000000 
#    y 0.000000 1.882360 0.000000 
#    z 0.000000 0.000000 1.897420 
# 
# From -- ./inp_files/3176.got.cif
#   From: 2010.05.17/outbox.cif.g08.bks.cpg/sg62_2_cif.got.tgz:3176.got - 2010.06.03 15:25:27.
