data_PCOD9466693
_publ_section_title
;
Structure prediction by ZEFSAII (Michael W. Deem and Ramdas Pophale) SiO2 
 PCOD9466693
Probable space group: P N M A
;
_chemical_formula_sum "Si O2"
_cell_formula_units_Z 60
_cell_length_a 27.039815
_cell_length_b 20.271318
_cell_length_c 5.110538
_cell_angle_alpha 90.000000
_cell_angle_beta 90.000000
_cell_angle_gamma 90.000000
_cell_volume 2801.252934
_symmetry_space_group_name_H-M "P N M A"
_symmetry_group_IT_number 62
_symmetry_cell_setting 'orthorhombic'
loop_
_space_group_symop_operation_xyz
x,y,z
1/2-x,-y,1/2+z
1/2+x,1/2-y,1/2-z
-x,1/2+y,-z
-x,-y,-z
1/2+x,y,1/2-z
1/2-x,1/2+y,1/2+z
x,1/2-y,z
loop_
_atom_site_type_symbol
_atom_site_label
_atom_site_fract_x
_atom_site_fract_y
_atom_site_fract_z
Si Si1 0.389812 0.610400 0.526710
Si Si2 0.054040 0.521690 0.901468
Si Si3 0.574288 0.750000 0.672684
Si Si4 0.383304 0.361099 0.642280
Si Si5 0.222783 0.582197 0.263978
Si Si6 0.715983 0.076202 0.240654
Si Si7 0.037215 0.638112 0.533695
Si Si8 0.066603 0.172458 0.545241
O O1 0.411208 0.542171 0.407299
O O2 0.335449 0.602521 0.647790
O O3 0.421201 0.634380 0.776794
O O4 0.395288 0.658483 0.279794
O O5 0.046440 0.564369 0.636517
O O6 0.084236 0.574283 0.075751
O O7 0.000000 0.500000 0.000000
O O8 0.613410 0.808161 0.584627
O O9 0.533270 0.809123 0.732225
O O10 0.328073 0.380990 0.706975
O O11 0.415897 0.331590 0.879201
O O12 0.212611 0.503533 0.251836
O O13 0.242215 0.596830 0.552550
O O14 0.265218 0.595659 0.047416
O O15 0.987297 0.645029 0.370182
O O16 0.064751 0.250000 0.499216
#
# Coordination Sequence:
#
# PCOD9466693 Si02
#       8
#     8   8   4   8   8   8   8   8
#     4  12  25  44  71  97 136 174 226 287 338 396
#     4  11  23  39  61 105 137 173 214 278 342 400
#     4  10  24  42  62  94 136 182 230 266 336 404
#     4  11  24  40  67  96 137 178 223 278 340 413
#     4  10  22  40  70  98 131 166 220 278 345 421
#     4  10  22  42  67 100 128 167 218 284 349 396
#     4  11  24  39  67  96 143 179 228 273 333 413
#     4  12  27  44  69  94 134 191 232 265 323 408
#
# _framework density 21.418987000000001
#
# number of rings (size 3 to 8) (size 9 to 14) (size 15 to 20)
#    0.000    1.067    3.333    2.400    7.467    2.133 
#    0.000    0.000    8.800    0.000    0.000    0.000 
#    0.000    0.000    0.000    0.000    0.000    0.000 
#
# Total GULP energy -334103.461642 kJ/mol
# GULP energy per Si atom -5568.391027 kJ/mol
# Density = 2.137024 g / cm^3
# Si number density = 21.418987 Si / 1000 Ang^3
#
#
#
# Elastic Constant Matrix: (Units=GPa)
#
#
# Indices 1 2 3 4 5 6 
#
# 1 70.0833 16.9009 -22.3991 0.0000 0.0000 0.0000
# 2 16.9009 70.0430 7.6343 0.0000 0.0000 0.0000
# 3 -22.3991 7.6343 43.1776 0.0000 0.0000 0.0000
# 4 0.0000 0.0000 0.0000 -2.3973 0.0000 0.0000
# 5 0.0000 0.0000 0.0000 0.0000 30.8591 0.0000
# 6 0.0000 0.0000 0.0000 0.0000 0.0000 45.5300
#
#
#
# Elastic Compliance Matrix: (Units=1/GPa)
#
#
# Indices 1 2 3 4 5 6 
#
# 1 0.019184 -0.005826 0.010982 0.000000 0.000000 0.000000
# 2 -0.005826 0.016327 -0.005909 0.000000 0.000000 0.000000
# 3 0.010982 -0.005909 0.029902 0.000000 0.000000 0.000000
# 4 0.000000 0.000000 0.000000 -0.417137 0.000000 0.000000
# 5 0.000000 0.000000 0.000000 0.000000 0.032405 0.000000
# 6 0.000000 0.000000 0.000000 0.000000 0.000000 0.021964
#
#
# Mechanical properties :
#
#
# Convention : Reuss Voigt Hill
#
# Bulk Modulus (GPa) = 15.64794 20.84181 18.24487
# Shear Modulus (GPa) = -18.21178 26.87620 4.33221
#
# Velocity S-wave (km/s) = -2.91909 3.54614 1.42373
# Velocity P-wave (km/s) = 2.00997 5.14960 3.35250
#
# Compressibility (1/GPa) = 0.06390619
#
# Stress axis : x y z
#
# Youngs Moduli (GPa) = 52.12810 61.24922 33.44264
#
# Poissons Ratio (x) = 0.35683 -0.36726
# Poissons Ratio (y) = 0.30369 0.19761
# Poissons Ratio (z) = -0.57246 0.36192
#
# Static dielectric constant tensor:
#      x y z
#    x 1.803410 0.000000 0.000000 
#    y 0.000000 1.760120 0.000000 
#    z 0.000000 0.000000 1.981800 
# 
# From -- ./inp_files/2870.got.cif
#   From: 2010.05.17/outbox.cif.g08.bks.cpg/sg62_2_cif.got.tgz:2870.got - 2010.06.03 15:25:27.
