data_PCOD9466451
_publ_section_title
;
Structure prediction by ZEFSAII (Michael W. Deem and Ramdas Pophale) SiO2 
 PCOD9466451
Probable space group: P N M A
;
_chemical_formula_sum "Si O2"
_cell_formula_units_Z 56
_cell_length_a 15.961698
_cell_length_b 21.943540
_cell_length_c 8.119023
_cell_angle_alpha 90.000000
_cell_angle_beta 90.000000
_cell_angle_gamma 90.000000
_cell_volume 2843.737807
_symmetry_space_group_name_H-M "P N M A"
_symmetry_group_IT_number 62
_symmetry_cell_setting 'orthorhombic'
loop_
_space_group_symop_operation_xyz
x,y,z
1/2-x,-y,1/2+z
1/2+x,1/2-y,1/2-z
-x,1/2+y,-z
-x,-y,-z
1/2+x,y,1/2-z
1/2-x,1/2+y,1/2+z
x,1/2-y,z
loop_
_atom_site_type_symbol
_atom_site_label
_atom_site_fract_x
_atom_site_fract_y
_atom_site_fract_z
Si Si1 0.068620 0.184842 0.891370
Si Si2 0.239696 0.557469 0.640494
Si Si3 0.067045 0.684611 0.397749
Si Si4 0.750409 0.853796 0.170602
Si Si5 0.453315 0.443680 0.082807
Si Si6 0.703736 0.568057 0.483721
Si Si7 0.988657 0.429863 0.052582
O O1 0.058959 0.250000 0.984060
O O2 0.163011 0.181920 0.825025
O O3 0.000646 0.185816 0.746598
O O4 0.049514 0.121331 0.981605
O O5 0.251405 0.610047 0.504729
O O6 0.142464 0.537159 0.620595
O O7 0.295771 0.501608 0.579204
O O8 0.247484 0.572456 0.835458
O O9 0.058645 0.750000 0.490258
O O10 0.162350 0.681359 0.332779
O O11 0.051657 0.620269 0.487354
O O12 0.745861 0.895805 0.333475
O O13 0.498002 0.429788 0.252948
O O14 0.500000 0.500000 0.000000
O O15 0.607188 0.587919 0.506557
O O16 0.000000 0.500000 0.000000
#
# Coordination Sequence:
#
# PCOD9466451 Si02
#       7
#     8   8   8   8   8   8   8
#     4  11  24  42  65  94 125 170 218 261 325 390
#     4  10  22  35  59  94 126 171 209 262 322 386
#     4  10  22  43  66  90 125 171 215 255 320 387
#     4  11  22  41  65  88 128 170 213 266 321 377
#     4  10  23  37  61  96 131 166 211 269 324 376
#     4  11  21  37  58  91 130 165 210 261 324 376
#     4  11  23  39  63  96 129 165 213 267 326 385
#
# _framework density 19.692392999999999
#
# number of rings (size 3 to 8) (size 9 to 14) (size 15 to 20)
#    0.000    1.429    2.857    2.143    6.000    1.714 
#    0.000    0.000    0.000    1.714    0.000    0.000 
#    0.000    0.000    0.000    0.000    0.000    0.000 
#
# Total GULP energy -312235.486657 kJ/mol
# GULP energy per Si atom -5575.633690 kJ/mol
# Density = 1.964757 g / cm^3
# Si number density = 19.692393 Si / 1000 Ang^3
#
#
#
# Elastic Constant Matrix: (Units=GPa)
#
#
# Indices 1 2 3 4 5 6 
#
# 1 97.2511 46.3274 38.2399 0.0000 0.0000 0.0000
# 2 46.3274 138.2658 44.7363 0.0000 0.0000 0.0000
# 3 38.2399 44.7363 100.6506 0.0000 0.0000 0.0000
# 4 0.0000 0.0000 0.0000 15.2232 0.0000 0.0000
# 5 0.0000 0.0000 0.0000 0.0000 20.1041 0.0000
# 6 0.0000 0.0000 0.0000 0.0000 0.0000 -84.3806
#
#
#
# Elastic Compliance Matrix: (Units=1/GPa)
#
#
# Indices 1 2 3 4 5 6 
#
# 1 0.013253 -0.003284 -0.003576 0.000000 0.000000 0.000000
# 2 -0.003284 0.009261 -0.002869 0.000000 0.000000 0.000000
# 3 -0.003576 -0.002869 0.012569 0.000000 0.000000 0.000000
# 4 0.000000 0.000000 0.000000 0.065689 0.000000 0.000000
# 5 0.000000 0.000000 0.000000 0.000000 0.049741 0.000000
# 6 0.000000 0.000000 0.000000 0.000000 0.000000 -0.011851
#
#
# Mechanical properties :
#
#
# Convention : Reuss Voigt Hill
#
# Bulk Modulus (GPa) = 63.99279 66.08607 65.03943
# Shear Modulus (GPa) = 30.61353 3.98027 17.29690
#
# Velocity S-wave (km/s) = 3.94710 1.42324 2.96692
# Velocity P-wave (km/s) = 7.30339 6.02767 6.69598
#
# Compressibility (1/GPa) = 0.01562676
#
# Stress axis : x y z
#
# Youngs Moduli (GPa) = 75.45558 107.98205 79.56157
#
# Poissons Ratio (x) = 0.35457 0.28448
# Poissons Ratio (y) = 0.24776 0.22823
# Poissons Ratio (z) = 0.26980 0.30976
#
# Static dielectric constant tensor:
#      x y z
#    x 1.715330 0.000000 0.000000 
#    y 0.000000 1.385700 0.000000 
#    z 0.000000 0.000000 1.731000 
# 
# From -- ./inp_files/6800.got.cif
#   From: 2010.05.17/outbox.cif.g08.bks.cpg/sg62_4_cif.got.tgz:6800.got - 2010.06.03 15:25:27.
