data_PCOD9466149
_publ_section_title
;
Structure prediction by ZEFSAII (Michael W. Deem and Ramdas Pophale) SiO2 
 PCOD9466149
Probable space group: P N M A
;
_chemical_formula_sum "Si O2"
_cell_formula_units_Z 40
_cell_length_a 5.604094
_cell_length_b 17.827818
_cell_length_c 14.368053
_cell_angle_alpha 90.000000
_cell_angle_beta 90.000000
_cell_angle_gamma 90.000000
_cell_volume 1435.494472
_symmetry_space_group_name_H-M "P N M A"
_symmetry_group_IT_number 62
_symmetry_cell_setting 'orthorhombic'
loop_
_space_group_symop_operation_xyz
x,y,z
1/2-x,-y,1/2+z
1/2+x,1/2-y,1/2-z
-x,1/2+y,-z
-x,-y,-z
1/2+x,y,1/2-z
1/2-x,1/2+y,1/2+z
x,1/2-y,z
loop_
_atom_site_type_symbol
_atom_site_label
_atom_site_fract_x
_atom_site_fract_y
_atom_site_fract_z
Si Si1 0.063828 0.335507 0.964163
Si Si2 0.653816 0.524576 0.717822
Si Si3 0.386939 0.340327 0.797845
Si Si4 0.351219 0.335005 0.148117
Si Si5 0.690049 0.436394 0.028606
O O1 0.993986 0.250000 0.937958
O O2 0.292962 0.358204 0.902377
O O3 0.851014 0.394321 0.953500
O O4 0.137625 0.333747 0.072785
O O5 0.415048 0.491066 0.761929
O O6 0.684966 0.605738 0.769493
O O7 0.635421 0.528704 0.607202
O O8 0.151063 0.360437 0.737275
O O9 0.397665 0.250000 0.797012
O O10 0.397774 0.250000 0.179485
O O11 0.560409 0.370392 0.086106
O O12 0.500000 0.500000 0.000000
#
# Coordination Sequence:
#
# PCOD9466149 Si02
#       5
#     8   8   8   8   8
#     4  10  21  39  65  98 130 173 234 297 360 427
#     4  10  21  42  65  99 139 182 232 291 356 428
#     4   9  19  35  58  87 126 167 211 274 340 405
#     4  10  22  40  70 103 137 183 239 305 370 434
#     4  11  24  42  64  98 142 193 232 292 363 449
#
# _framework density 27.864961999999998
#
# number of rings (size 3 to 8) (size 9 to 14) (size 15 to 20)
#    0.000    2.000    2.000    0.600    2.800    4.800 
#    0.000    4.000    0.000    0.000    0.000    0.000 
#    0.000    0.000    0.000    0.000    0.000    0.000 
#
# Total GULP energy -224064.869277 kJ/mol
# GULP energy per Si atom -5601.621732 kJ/mol
# Density = 2.780154 g / cm^3
# Si number density = 27.864962 Si / 1000 Ang^3
#
#
#
# Elastic Constant Matrix: (Units=GPa)
#
#
# Indices 1 2 3 4 5 6 
#
# 1 125.8394 49.6238 48.7301 0.0000 0.0000 0.0000
# 2 49.6238 143.2586 36.1680 0.0000 0.0000 0.0000
# 3 48.7301 36.1680 137.5339 0.0000 0.0000 0.0000
# 4 0.0000 0.0000 0.0000 14.3906 0.0000 0.0000
# 5 0.0000 0.0000 0.0000 0.0000 63.3537 0.0000
# 6 0.0000 0.0000 0.0000 0.0000 0.0000 50.4159
#
#
#
# Elastic Compliance Matrix: (Units=1/GPa)
#
#
# Indices 1 2 3 4 5 6 
#
# 1 0.010158 -0.002796 -0.002864 0.000000 0.000000 0.000000
# 2 -0.002796 0.008246 -0.001178 0.000000 0.000000 0.000000
# 3 -0.002864 -0.001178 0.008595 0.000000 0.000000 0.000000
# 4 0.000000 0.000000 0.000000 0.069490 0.000000 0.000000
# 5 0.000000 0.000000 0.000000 0.000000 0.015784 0.000000
# 6 0.000000 0.000000 0.000000 0.000000 0.000000 0.019835
#
#
# Mechanical properties :
#
#
# Convention : Reuss Voigt Hill
#
# Bulk Modulus (GPa) = 75.04961 75.07508 75.06234
# Shear Modulus (GPa) = 33.28328 43.77272 38.52800
#
# Velocity S-wave (km/s) = 3.45983 3.96774 3.72246
# Velocity P-wave (km/s) = 6.55381 6.92760 6.74329
#
# Compressibility (1/GPa) = 0.01332452
#
# Stress axis : x y z
#
# Youngs Moduli (GPa) = 98.44341 121.26824 116.34046
#
# Poissons Ratio (x) = 0.33902 0.33320
# Poissons Ratio (y) = 0.27521 0.13705
# Poissons Ratio (z) = 0.28194 0.14285
#
# Static dielectric constant tensor:
#      x y z
#    x 2.165750 0.000000 0.000000 
#    y 0.000000 2.203390 0.000000 
#    z 0.000000 0.000000 2.155350 
# 
# From -- ./inp_files/21469.got.cif
#   From: 2010.05.17/outbox.cif.g08.bks.cpg/sg62_11_cif.got.tgz:21469.got - 2010.06.03 15:25:27.
