data_PCOD9466015
_publ_section_title
;
Structure prediction by ZEFSAII (Michael W. Deem and Ramdas Pophale) SiO2 
 PCOD9466015
Probable space group: P N M A
;
_chemical_formula_sum "Si O2"
_cell_formula_units_Z 48
_cell_length_a 9.270357
_cell_length_b 27.732659
_cell_length_c 9.177311
_cell_angle_alpha 90.000000
_cell_angle_beta 90.000000
_cell_angle_gamma 90.000000
_cell_volume 2359.410023
_symmetry_space_group_name_H-M "P N M A"
_symmetry_group_IT_number 62
_symmetry_cell_setting 'orthorhombic'
loop_
_space_group_symop_operation_xyz
x,y,z
1/2-x,-y,1/2+z
1/2+x,1/2-y,1/2-z
-x,1/2+y,-z
-x,-y,-z
1/2+x,y,1/2-z
1/2-x,1/2+y,1/2+z
x,1/2-y,z
loop_
_atom_site_type_symbol
_atom_site_label
_atom_site_fract_x
_atom_site_fract_y
_atom_site_fract_z
Si Si1 0.237508 0.156026 0.225176
Si Si2 0.996948 0.592384 0.627841
Si Si3 0.581742 0.525873 0.631221
Si Si4 0.466008 0.195788 0.438671
Si Si5 0.345765 0.103221 0.593308
Si Si6 0.924117 0.937201 0.314545
O O1 0.127011 0.132407 0.344129
O O2 0.344753 0.117123 0.148145
O O3 0.350797 0.190793 0.306033
O O4 0.125992 0.181698 0.116439
O O5 0.987605 0.562755 0.477951
O O6 0.978430 0.556781 0.764810
O O7 0.500000 0.500000 0.500000
O O8 0.672988 0.566097 0.543943
O O9 0.643944 0.485838 0.743233
O O10 0.463451 0.250000 0.496170
O O11 0.411222 0.153465 0.543830
O O12 0.454433 0.078189 0.703558
O O13 0.195047 0.104364 0.674977
#
# Coordination Sequence:
#
# PCOD9466015 Si02
#       6
#     8   8   8   8   8   8
#     4  10  21  38  69  94 126 160 211 268 322 373
#     4  11  20  39  64  92 131 171 210 259 316 375
#     4  10  22  39  62  93 130 171 216 258 313 376
#     4  11  22  43  70  94 125 165 212 270 332 382
#     4  11  24  44  62  93 133 166 216 270 314 376
#     4  11  25  39  63  92 130 177 212 255 319 385
#
# _framework density 20.344069000000001
#
# number of rings (size 3 to 8) (size 9 to 14) (size 15 to 20)
#    0.000    1.333    5.000    1.000    2.333    6.667 
#    0.000    0.833    0.000    0.000    0.000    0.000 
#    0.000    0.000    0.000    0.000    0.000    0.000 
#
# Total GULP energy -267487.498803 kJ/mol
# GULP energy per Si atom -5572.656225 kJ/mol
# Density = 2.029777 g / cm^3
# Si number density = 20.344069 Si / 1000 Ang^3
#
#
#
# Elastic Constant Matrix: (Units=GPa)
#
#
# Indices 1 2 3 4 5 6 
#
# 1 100.2226 15.9344 23.7265 0.0000 0.0000 0.0000
# 2 15.9344 79.2272 27.6093 0.0000 0.0000 0.0000
# 3 23.7265 27.6093 89.6957 0.0000 0.0000 0.0000
# 4 0.0000 0.0000 0.0000 20.2229 0.0000 0.0000
# 5 0.0000 0.0000 0.0000 0.0000 22.7998 0.0000
# 6 0.0000 0.0000 0.0000 0.0000 0.0000 19.7601
#
#
#
# Elastic Compliance Matrix: (Units=1/GPa)
#
#
# Indices 1 2 3 4 5 6 
#
# 1 0.010765 -0.001314 -0.002443 0.000000 0.000000 0.000000
# 2 -0.001314 0.014299 -0.004054 0.000000 0.000000 0.000000
# 3 -0.002443 -0.004054 0.013043 0.000000 0.000000 0.000000
# 4 0.000000 0.000000 0.000000 0.049449 0.000000 0.000000
# 5 0.000000 0.000000 0.000000 0.000000 0.043860 0.000000
# 6 0.000000 0.000000 0.000000 0.000000 0.000000 0.050607
#
#
# Mechanical properties :
#
#
# Convention : Reuss Voigt Hill
#
# Bulk Modulus (GPa) = 44.47350 44.85400 44.66375
# Shear Modulus (GPa) = 24.37367 26.01491 25.19429
#
# Velocity S-wave (km/s) = 3.46507 3.57984 3.52292
# Velocity P-wave (km/s) = 6.15769 6.25960 6.20885
#
# Compressibility (1/GPa) = 0.02248530
#
# Stress axis : x y z
#
# Youngs Moduli (GPa) = 92.89316 69.93578 76.67002
#
# Poissons Ratio (x) = 0.09187 0.18732
# Poissons Ratio (y) = 0.12203 0.31081
# Poissons Ratio (z) = 0.22696 0.28351
#
# Static dielectric constant tensor:
#      x y z
#    x 1.767340 0.000000 0.000000 
#    y 0.000000 1.754180 0.000000 
#    z 0.000000 0.000000 1.740730 
# 
# From -- ./inp_files/4525.got.cif
#   From: 2010.05.17/outbox.cif.g08.bks.cpg/sg62_3_cif.got.tgz:4525.got - 2010.06.03 15:25:27.
