data_PCOD9466567
_publ_section_title
;
Structure prediction by ZEFSAII (Michael W. Deem and Ramdas Pophale) SiO2 
 PCOD9466567
Probable space group: P N M A
;
_chemical_formula_sum "Si O2"
_cell_formula_units_Z 32
_cell_length_a 15.181932
_cell_length_b 21.214530
_cell_length_c 5.134061
_cell_angle_alpha 90.000000
_cell_angle_beta 90.000000
_cell_angle_gamma 90.000000
_cell_volume 1653.565798
_symmetry_space_group_name_H-M "P N M A"
_symmetry_group_IT_number 62
_symmetry_cell_setting 'orthorhombic'
loop_
_space_group_symop_operation_xyz
x,y,z
1/2-x,-y,1/2+z
1/2+x,1/2-y,1/2-z
-x,1/2+y,-z
-x,-y,-z
1/2+x,y,1/2-z
1/2-x,1/2+y,1/2+z
x,1/2-y,z
loop_
_atom_site_type_symbol
_atom_site_label
_atom_site_fract_x
_atom_site_fract_y
_atom_site_fract_z
Si Si1 0.275540 0.537457 0.250891
Si Si2 0.872254 0.372676 0.928467
Si Si3 0.450673 0.320182 0.060561
Si Si4 0.025488 0.060748 0.668133
O O1 0.234854 0.515941 0.526496
O O2 0.219913 0.595084 0.132669
O O3 0.377930 0.552610 0.282985
O O4 0.895263 0.322463 0.705744
O O5 0.948410 0.425782 0.877988
O O6 0.888033 0.343070 0.207476
O O7 0.485206 0.250000 0.109767
O O8 0.521412 0.375862 0.010781
O O9 0.000000 0.000000 0.500000
#
# Coordination Sequence:
#
# PCOD9466567 Si02
#       4
#     8   8   8   8
#     4  12  23  36  62  94 128 156 202 251 315 366
#     4  10  22  39  63  87 121 161 202 247 313 351
#     4  10  22  42  63  84 124 166 206 250 310 367
#     4  10  22  40  64  91 125 154 206 254 308 362
#
# _framework density 19.352117
#
# number of rings (size 3 to 8) (size 9 to 14) (size 15 to 20)
#    1.500    0.000    2.500    3.750    3.500    2.000 
#    0.000    2.500    0.000    0.000    0.000    0.000 
#    0.000    0.000    0.000    0.000    0.000    0.000 
#
# Total GULP energy -178378.378465 kJ/mol
# GULP energy per Si atom -5574.324327 kJ/mol
# Density = 1.930807 g / cm^3
# Si number density = 19.352117 Si / 1000 Ang^3
#
#
#
# Elastic Constant Matrix: (Units=GPa)
#
#
# Indices 1 2 3 4 5 6 
#
# 1 86.6319 15.9325 -10.9505 0.0000 0.0000 0.0000
# 2 15.9325 114.2840 -1.1961 0.0000 0.0000 0.0000
# 3 -10.9505 -1.1961 58.0947 0.0000 0.0000 0.0000
# 4 0.0000 0.0000 0.0000 11.3679 0.0000 0.0000
# 5 0.0000 0.0000 0.0000 0.0000 8.5956 0.0000
# 6 0.0000 0.0000 0.0000 0.0000 0.0000 10.5843
#
#
#
# Elastic Compliance Matrix: (Units=1/GPa)
#
#
# Indices 1 2 3 4 5 6 
#
# 1 0.012135 -0.001668 0.002253 0.000000 0.000000 0.000000
# 2 -0.001668 0.008981 -0.000130 0.000000 0.000000 0.000000
# 3 0.002253 -0.000130 0.017635 0.000000 0.000000 0.000000
# 4 0.000000 0.000000 0.000000 0.087967 0.000000 0.000000
# 5 0.000000 0.000000 0.000000 0.000000 0.116339 0.000000
# 6 0.000000 0.000000 0.000000 0.000000 0.000000 0.094480
#
#
# Mechanical properties :
#
#
# Convention : Reuss Voigt Hill
#
# Bulk Modulus (GPa) = 25.21313 29.62028 27.41670
# Shear Modulus (GPa) = 14.29197 23.12453 18.70825
#
# Velocity S-wave (km/s) = 2.72052 3.46053 3.11260
# Velocity P-wave (km/s) = 4.78803 5.59520 5.20728
#
# Compressibility (1/GPa) = 0.03966188
#
# Stress axis : x y z
#
# Youngs Moduli (GPa) = 82.40859 111.34203 56.70454
#
# Poissons Ratio (x) = 0.18573 -0.12775
# Poissons Ratio (y) = 0.13747 0.00734
# Poissons Ratio (z) = -0.18566 0.01442
#
# Static dielectric constant tensor:
#      x y z
#    x 1.648420 0.000000 0.000000 
#    y 0.000000 1.686320 0.000000 
#    z 0.000000 0.000000 1.692910 
# 
# From -- ./inp_files/888.got.cif
#   From: 2010.05.17/outbox.cif.g08.bks.cpg/sg62_1_cif.got.tgz:888.got - 2010.06.03 15:25:27.
