data_PCOD9466807
_publ_section_title
;
Structure prediction by ZEFSAII (Michael W. Deem and Ramdas Pophale) SiO2 
 PCOD9466807
Probable space group: P N M A
;
_chemical_formula_sum "Si O2"
_cell_formula_units_Z 48
_cell_length_a 4.988149
_cell_length_b 24.566548
_cell_length_c 16.200365
_cell_angle_alpha 90.000000
_cell_angle_beta 90.000000
_cell_angle_gamma 90.000000
_cell_volume 1985.218677
_symmetry_space_group_name_H-M "P N M A"
_symmetry_group_IT_number 62
_symmetry_cell_setting 'orthorhombic'
loop_
_space_group_symop_operation_xyz
x,y,z
1/2-x,-y,1/2+z
1/2+x,1/2-y,1/2-z
-x,1/2+y,-z
-x,-y,-z
1/2+x,y,1/2-z
1/2-x,1/2+y,1/2+z
x,1/2-y,z
loop_
_atom_site_type_symbol
_atom_site_label
_atom_site_fract_x
_atom_site_fract_y
_atom_site_fract_z
Si Si1 0.690842 0.147425 0.697848
Si Si2 0.339853 0.635185 0.938022
Si Si3 0.042847 0.750000 0.510527
Si Si4 0.181116 0.533858 0.563897
Si Si5 0.028914 0.750000 0.097343
Si Si6 0.584461 0.571719 0.424785
Si Si7 0.981043 0.685549 0.806877
O O1 0.001489 0.146864 0.721163
O O2 0.577201 0.199095 0.649021
O O3 0.613585 0.097456 0.640533
O O4 0.510735 0.584372 0.902701
O O5 0.080625 0.648720 0.882579
O O6 0.485687 0.693607 0.942994
O O7 0.281789 0.616204 0.033007
O O8 0.350516 0.750000 0.484656
O O9 0.837115 0.750000 0.431642
O O10 0.420167 0.556196 0.507284
O O11 0.292919 0.482953 0.615570
O O12 0.000000 0.500000 0.500000
O O13 0.693527 0.675450 0.766974
O O14 0.999871 0.750000 0.827776
#
# Coordination Sequence:
#
# PCOD9466807 Si02
#       7
#     8   8   4   8   4   8   8
#     4  12  26  42  65  94 139 182 222 277 339 403
#     4  11  22  40  67  99 126 173 220 278 329 397
#     4  12  24  37  70 103 130 165 229 286 310 403
#     4   9  21  40  70  91 127 163 220 280 335 383
#     4  12  24  43  60  95 138 177 227 272 336 397
#     4  10  22  42  67  96 125 173 231 278 332 389
#     4  10  23  41  60  91 134 171 204 254 331 400
#
# _framework density 24.178697
#
# number of rings (size 3 to 8) (size 9 to 14) (size 15 to 20)
#    0.000    1.333    2.500    2.500    7.000    0.000 
#    0.000    1.667    0.000    0.000    0.000    0.000 
#    0.000    0.000    0.000    0.000    0.000    0.000 
#
# Total GULP energy -268433.922607 kJ/mol
# GULP energy per Si atom -5592.373388 kJ/mol
# Density = 2.412367 g / cm^3
# Si number density = 24.178697 Si / 1000 Ang^3
#
#
#
# Elastic Constant Matrix: (Units=GPa)
#
#
# Indices 1 2 3 4 5 6 
#
# 1 59.3112 10.1251 5.1488 0.0000 0.0000 0.0000
# 2 10.1251 135.2869 23.3969 0.0000 0.0000 0.0000
# 3 5.1488 23.3969 66.5156 0.0000 0.0000 0.0000
# 4 0.0000 0.0000 0.0000 -682.2306 0.0000 0.0000
# 5 0.0000 0.0000 0.0000 0.0000 34.5532 0.0000
# 6 0.0000 0.0000 0.0000 0.0000 0.0000 29.6306
#
#
#
# Elastic Compliance Matrix: (Units=1/GPa)
#
#
# Indices 1 2 3 4 5 6 
#
# 1 0.017133 -0.001121 -0.000932 0.000000 0.000000 0.000000
# 2 -0.001121 0.007944 -0.002707 0.000000 0.000000 0.000000
# 3 -0.000932 -0.002707 0.016059 0.000000 0.000000 0.000000
# 4 0.000000 0.000000 0.000000 -0.001466 0.000000 0.000000
# 5 0.000000 0.000000 0.000000 0.000000 0.028941 0.000000
# 6 0.000000 0.000000 0.000000 0.000000 0.000000 0.033749
#
#
# Mechanical properties :
#
#
# Convention : Reuss Voigt Hill
#
# Bulk Modulus (GPa) = 31.63143 37.60615 34.61879
# Shear Modulus (GPa) = 40.84377 -108.77984 -33.96804
#
# Velocity S-wave (km/s) = 4.11450 -6.71473 -3.75223
# Velocity P-wave (km/s) = 5.97352 6.67305 2.10318
#
# Compressibility (1/GPa) = 0.03161413
#
# Stress axis : x y z
#
# Youngs Moduli (GPa) = 58.36857 125.88368 62.27209
#
# Poissons Ratio (x) = 0.14113 0.05803
# Poissons Ratio (y) = 0.06544 0.16860
# Poissons Ratio (z) = 0.05439 0.34083
#
# Static dielectric constant tensor:
#      x y z
#    x 2.060350 0.000000 0.000000 
#    y 0.000000 2.047020 0.000000 
#    z 0.000000 0.000000 1.963470 
# 
# From -- ./inp_files/16239.got.cif
#   From: 2010.05.17/outbox.cif.g08.bks.cpg/sg62_9_cif.got.tgz:16239.got - 2010.06.03 15:25:27.
