data_PCOD9466947
_publ_section_title
;
Structure prediction by ZEFSAII (Michael W. Deem and Ramdas Pophale) SiO2 
 PCOD9466947
Probable space group: P N M A
;
_chemical_formula_sum "Si O2"
_cell_formula_units_Z 40
_cell_length_a 9.484435
_cell_length_b 28.110963
_cell_length_c 5.014954
_cell_angle_alpha 90.000000
_cell_angle_beta 90.000000
_cell_angle_gamma 90.000000
_cell_volume 1337.069991
_symmetry_space_group_name_H-M "P N M A"
_symmetry_group_IT_number 62
_symmetry_cell_setting 'orthorhombic'
loop_
_space_group_symop_operation_xyz
x,y,z
1/2-x,-y,1/2+z
1/2+x,1/2-y,1/2-z
-x,1/2+y,-z
-x,-y,-z
1/2+x,y,1/2-z
1/2-x,1/2+y,1/2+z
x,1/2-y,z
loop_
_atom_site_type_symbol
_atom_site_label
_atom_site_fract_x
_atom_site_fract_y
_atom_site_fract_z
Si Si1 0.424371 0.750000 0.813028
Si Si2 0.120919 0.750000 0.187480
Si Si3 0.921286 0.651422 0.803447
Si Si4 0.410732 0.049199 0.610590
Si Si5 0.891894 0.149586 0.690874
Si Si6 0.700338 0.449974 0.346359
O O1 0.553544 0.750000 0.603985
O O2 0.345544 0.798921 0.754985
O O3 0.489514 0.750000 0.105659
O O4 0.189938 0.698432 0.243356
O O5 0.844207 0.602749 0.742007
O O6 0.054704 0.652799 0.607989
O O7 0.977405 0.651454 0.103512
O O8 0.344471 0.094991 0.763872
O O9 0.353450 0.049812 0.306216
O O10 0.580262 0.049541 0.591045
O O11 0.351314 0.002756 0.761228
#
# Coordination Sequence:
#
# PCOD9466947 Si02
#       6
#     4   4   8   8   8   8
#     4   8  14  28  53  84 118 156 198 246 302 364
#     4   8  14  28  53  84 118 156 198 246 302 366
#     4   9  18  34  58  88 122 160 203 252 307 370
#     4  10  23  40  62  92 127 170 216 269 326 388
#     4   9  18  34  58  88 122 160 203 252 308 369
#     4  10  23  41  62  92 127 167 216 267 325 386
#
# _framework density 29.916157999999999
#
# number of rings (size 3 to 8) (size 9 to 14) (size 15 to 20)
#    0.000    2.800    0.000    0.000    0.000    9.600 
#    0.000    1.000    0.000    0.000    0.000   37.800 
#    0.000    0.000    0.000    0.000    0.000    0.000 
#
# Total GULP energy -223112.299160 kJ/mol
# GULP energy per Si atom -5577.807479 kJ/mol
# Density = 2.984807 g / cm^3
# Si number density = 29.916158 Si / 1000 Ang^3
#
#
#
# Elastic Constant Matrix: (Units=GPa)
#
#
# Indices 1 2 3 4 5 6 
#
# 1 140.8572 34.3062 54.1605 0.0000 0.0000 0.0000
# 2 34.3062 277.1081 -9.2330 0.0000 0.0000 0.0000
# 3 54.1605 -9.2330 122.2756 0.0000 0.0000 0.0000
# 4 0.0000 0.0000 0.0000 32.3685 0.0000 0.0000
# 5 0.0000 0.0000 0.0000 0.0000 54.1941 0.0000
# 6 0.0000 0.0000 0.0000 0.0000 0.0000 -18.5646
#
#
#
# Elastic Compliance Matrix: (Units=1/GPa)
#
#
# Indices 1 2 3 4 5 6 
#
# 1 0.008966 -0.001245 -0.004065 0.000000 0.000000 0.000000
# 2 -0.001245 0.003791 0.000838 0.000000 0.000000 0.000000
# 3 -0.004065 0.000838 0.010042 0.000000 0.000000 0.000000
# 4 0.000000 0.000000 0.000000 0.030894 0.000000 0.000000
# 5 0.000000 0.000000 0.000000 0.000000 0.018452 0.000000
# 6 0.000000 0.000000 0.000000 0.000000 0.000000 -0.053866
#
#
# Mechanical properties :
#
#
# Convention : Reuss Voigt Hill
#
# Bulk Modulus (GPa) = 72.18613 77.63427 74.91020
# Shear Modulus (GPa) = 157.02098 44.33342 100.67720
#
# Velocity S-wave (km/s) = 7.25265 3.85375 5.80742
# Velocity P-wave (km/s) = 9.71167 6.76822 8.37034
#
# Compressibility (1/GPa) = 0.01385308
#
# Stress axis : x y z
#
# Youngs Moduli (GPa) = 111.53399 263.79629 99.57958
#
# Poissons Ratio (x) = 0.32854 0.40483
# Poissons Ratio (y) = 0.13891 -0.08344
# Poissons Ratio (z) = 0.45343 -0.22103
#
# Static dielectric constant tensor:
#      x y z
#    x 2.378560 0.000000 0.000000 
#    y 0.000000 2.478750 0.000000 
#    z 0.000000 0.000000 2.415120 
# 
# From -- ./inp_files/654.got.cif
#   From: 2010.05.17/outbox.cif.g08.bks.cpg/sg62_1_cif.got.tgz:654.got - 2010.06.03 15:25:27.
