data_PCOD9466025
_publ_section_title
;
Structure prediction by ZEFSAII (Michael W. Deem and Ramdas Pophale) SiO2 
 PCOD9466025
Probable space group: P N M A
;
_chemical_formula_sum "Si O2"
_cell_formula_units_Z 48
_cell_length_a 15.009250
_cell_length_b 27.151198
_cell_length_c 5.077524
_cell_angle_alpha 90.000000
_cell_angle_beta 90.000000
_cell_angle_gamma 90.000000
_cell_volume 2069.188105
_symmetry_space_group_name_H-M "P N M A"
_symmetry_group_IT_number 62
_symmetry_cell_setting 'orthorhombic'
loop_
_space_group_symop_operation_xyz
x,y,z
1/2-x,-y,1/2+z
1/2+x,1/2-y,1/2-z
-x,1/2+y,-z
-x,-y,-z
1/2+x,y,1/2-z
1/2-x,1/2+y,1/2+z
x,1/2-y,z
loop_
_atom_site_type_symbol
_atom_site_label
_atom_site_fract_x
_atom_site_fract_y
_atom_site_fract_z
Si Si1 0.753787 0.616693 0.603697
Si Si2 0.905818 0.135273 0.740896
Si Si3 0.053843 0.695321 0.753361
Si Si4 0.354376 0.806261 0.614717
Si Si5 0.596453 0.098183 0.727164
Si Si6 0.771535 0.969191 0.952997
O O1 0.685501 0.616366 0.363935
O O2 0.774885 0.671118 0.711852
O O3 0.849617 0.597136 0.500056
O O4 0.722922 0.577939 0.823021
O O5 0.904894 0.157521 0.451212
O O6 0.990433 0.098976 0.754603
O O7 0.929711 0.179129 0.947479
O O8 0.086672 0.750000 0.703547
O O9 0.946519 0.694745 0.720114
O O10 0.339014 0.750000 0.521892
O O11 0.372340 0.849170 0.399748
O O12 0.635515 0.053426 0.556535
O O13 0.774431 0.007153 0.709585
#
# Coordination Sequence:
#
# PCOD9466025 Si02
#       6
#     8   8   8   8   8   8
#     4  11  23  41  66  96 128 170 218 265 322 381
#     4  11  24  39  63  92 130 170 214 267 315 380
#     4  10  21  39  59  87 129 175 218 261 312 364
#     4   9  20  37  61  92 128 174 218 260 312 376
#     4  10  22  43  65  94 131 173 210 265 328 379
#     4  11  23  43  73  94 124 167 209 268 334 392
#
# _framework density 23.197505
#
# number of rings (size 3 to 8) (size 9 to 14) (size 15 to 20)
#    0.000    1.667    3.333    0.500    4.667    2.667 
#    0.000    1.667    0.000    0.000    0.000    0.000 
#    0.000    0.000    0.000    0.000    0.000    0.000 
#
# Total GULP energy -268191.610376 kJ/mol
# GULP energy per Si atom -5587.325216 kJ/mol
# Density = 2.314471 g / cm^3
# Si number density = 23.197505 Si / 1000 Ang^3
#
#
#
# Elastic Constant Matrix: (Units=GPa)
#
#
# Indices 1 2 3 4 5 6 
#
# 1 70.0268 6.2485 -0.3033 0.0000 0.0000 0.0000
# 2 6.2485 95.9436 17.5242 0.0000 0.0000 0.0000
# 3 -0.3033 17.5242 69.3080 0.0000 0.0000 0.0000
# 4 0.0000 0.0000 0.0000 28.9358 0.0000 0.0000
# 5 0.0000 0.0000 0.0000 0.0000 31.4125 0.0000
# 6 0.0000 0.0000 0.0000 0.0000 0.0000 19.9921
#
#
#
# Elastic Compliance Matrix: (Units=1/GPa)
#
#
# Indices 1 2 3 4 5 6 
#
# 1 0.014370 -0.000993 0.000314 0.000000 0.000000 0.000000
# 2 -0.000993 0.010996 -0.002785 0.000000 0.000000 0.000000
# 3 0.000314 -0.002785 0.015134 0.000000 0.000000 0.000000
# 4 0.000000 0.000000 0.000000 0.034559 0.000000 0.000000
# 5 0.000000 0.000000 0.000000 0.000000 0.031834 0.000000
# 6 0.000000 0.000000 0.000000 0.000000 0.000000 0.050020
#
#
# Mechanical properties :
#
#
# Convention : Reuss Voigt Hill
#
# Bulk Modulus (GPa) = 29.78639 31.35747 30.57193
# Shear Modulus (GPa) = 28.56620 30.18869 29.37745
#
# Velocity S-wave (km/s) = 3.51299 3.61137 3.56252
# Velocity P-wave (km/s) = 5.41507 5.56204 5.48905
#
# Compressibility (1/GPa) = 0.03357238
#
# Stress axis : x y z
#
# Youngs Moduli (GPa) = 69.58829 90.94141 66.07726
#
# Poissons Ratio (x) = 0.09033 -0.02075
# Poissons Ratio (y) = 0.06912 0.18400
# Poissons Ratio (z) = -0.02185 0.25324
#
# Static dielectric constant tensor:
#      x y z
#    x 1.908130 0.000000 0.000000 
#    y 0.000000 1.902350 0.000000 
#    z 0.000000 0.000000 1.879350 
# 
# From -- ./inp_files/1132.got.cif
#   From: 2010.05.17/outbox.cif.g08.bks.cpg/sg62_1_cif.got.tgz:1132.got - 2010.06.03 15:25:27.
