data_PCOD9466160
_publ_section_title
;
Structure prediction by ZEFSAII (Michael W. Deem and Ramdas Pophale) SiO2 
 PCOD9466160
Probable space group: P N M A
;
_chemical_formula_sum "Si O2"
_cell_formula_units_Z 40
_cell_length_a 12.484771
_cell_length_b 17.763201
_cell_length_c 6.561502
_cell_angle_alpha 90.000000
_cell_angle_beta 90.000000
_cell_angle_gamma 90.000000
_cell_volume 1455.140996
_symmetry_space_group_name_H-M "P N M A"
_symmetry_group_IT_number 62
_symmetry_cell_setting 'orthorhombic'
loop_
_space_group_symop_operation_xyz
x,y,z
1/2-x,-y,1/2+z
1/2+x,1/2-y,1/2-z
-x,1/2+y,-z
-x,-y,-z
1/2+x,y,1/2-z
1/2-x,1/2+y,1/2+z
x,1/2-y,z
loop_
_atom_site_type_symbol
_atom_site_label
_atom_site_fract_x
_atom_site_fract_y
_atom_site_fract_z
Si Si1 0.111282 0.829542 0.319213
Si Si2 0.397045 0.477871 0.627208
Si Si3 0.374274 0.835527 0.063927
Si Si4 0.806487 0.336747 0.272734
Si Si5 0.843905 0.003626 0.405380
O O1 0.109834 0.750000 0.216930
O O2 0.114045 0.888398 0.141355
O O3 0.206511 0.834400 0.480516
O O4 0.002931 0.834594 0.452322
O O5 0.500000 0.500000 0.500000
O O6 0.283813 0.510023 0.557968
O O7 0.402284 0.494457 0.873296
O O8 0.350342 0.750000 0.145452
O O9 0.358904 0.917494 0.171370
O O10 0.301816 0.841790 0.860365
O O11 0.849319 0.250000 0.233785
O O12 0.864732 0.420390 0.272891
#
# Coordination Sequence:
#
# PCOD9466160 Si02
#       5
#     8   8   8   8   8
#     4   9  21  42  70 101 139 185 234 288 352 422
#     4  11  26  44  70  99 137 185 234 295 353 417
#     4  10  21  39  68 103 138 180 232 290 352 422
#     4   9  19  40  66  96 136 183 229 286 347 413
#     4  11  23  44  66 102 137 178 243 285 357 418
#
# _framework density 27.488747
#
# number of rings (size 3 to 8) (size 9 to 14) (size 15 to 20)
#    0.000    2.000    2.000    0.000    2.800    5.600 
#    0.000    2.000    0.000    0.000    0.000    0.000 
#    0.000    0.000    0.000    0.000    0.000    0.000 
#
# Total GULP energy -222995.978021 kJ/mol
# GULP energy per Si atom -5574.899451 kJ/mol
# Density = 2.742618 g / cm^3
# Si number density = 27.488747 Si / 1000 Ang^3
#
#
#
# Elastic Constant Matrix: (Units=GPa)
#
#
# Indices 1 2 3 4 5 6 
#
# 1 134.2939 48.1507 67.6756 0.0000 0.0000 0.0000
# 2 48.1507 312.2790 64.0326 0.0000 0.0000 0.0000
# 3 67.6756 64.0326 141.0804 0.0000 0.0000 0.0000
# 4 0.0000 0.0000 0.0000 44.7955 0.0000 0.0000
# 5 0.0000 0.0000 0.0000 0.0000 57.2947 0.0000
# 6 0.0000 0.0000 0.0000 0.0000 0.0000 44.1466
#
#
#
# Elastic Compliance Matrix: (Units=1/GPa)
#
#
# Indices 1 2 3 4 5 6 
#
# 1 0.009925 -0.000611 -0.004484 0.000000 0.000000 0.000000
# 2 -0.000611 0.003568 -0.001327 0.000000 0.000000 0.000000
# 3 -0.004484 -0.001327 0.009841 0.000000 0.000000 0.000000
# 4 0.000000 0.000000 0.000000 0.022324 0.000000 0.000000
# 5 0.000000 0.000000 0.000000 0.000000 0.017454 0.000000
# 6 0.000000 0.000000 0.000000 0.000000 0.000000 0.022652
#
#
# Mechanical properties :
#
#
# Convention : Reuss Voigt Hill
#
# Bulk Modulus (GPa) = 95.30991 105.26346 100.28669
# Shear Modulus (GPa) = 48.97012 56.43366 52.70189
#
# Velocity S-wave (km/s) = 4.22531 4.53589 4.38335
# Velocity P-wave (km/s) = 7.65193 8.11226 7.88545
#
# Compressibility (1/GPa) = 0.01049209
#
# Stress axis : x y z
#
# Youngs Moduli (GPa) = 100.75698 280.23131 101.61552
#
# Poissons Ratio (x) = 0.17121 0.45560
# Poissons Ratio (y) = 0.06156 0.13480
# Poissons Ratio (z) = 0.45176 0.37174
#
# Static dielectric constant tensor:
#      x y z
#    x 2.129570 0.000000 0.000000 
#    y 0.000000 2.274870 0.000000 
#    z 0.000000 0.000000 2.245200 
# 
# From -- ./inp_files/5035.got.cif
#   From: 2010.05.17/outbox.cif.g08.bks.cpg/sg62_3_cif.got.tgz:5035.got - 2010.06.03 15:25:27.
