data_PCOD9466918
_publ_section_title
;
Structure prediction by ZEFSAII (Michael W. Deem and Ramdas Pophale) SiO2 
 PCOD9466918
Probable space group: P N M A
;
_chemical_formula_sum "Si O2"
_cell_formula_units_Z 48
_cell_length_a 17.605348
_cell_length_b 24.048450
_cell_length_c 5.146182
_cell_angle_alpha 90.000000
_cell_angle_beta 90.000000
_cell_angle_gamma 90.000000
_cell_volume 2178.797385
_symmetry_space_group_name_H-M "P N M A"
_symmetry_group_IT_number 62
_symmetry_cell_setting 'orthorhombic'
loop_
_space_group_symop_operation_xyz
x,y,z
1/2-x,-y,1/2+z
1/2+x,1/2-y,1/2-z
-x,1/2+y,-z
-x,-y,-z
1/2+x,y,1/2-z
1/2-x,1/2+y,1/2+z
x,1/2-y,z
loop_
_atom_site_type_symbol
_atom_site_label
_atom_site_fract_x
_atom_site_fract_y
_atom_site_fract_z
Si Si1 0.381407 0.902032 0.718306
Si Si2 0.700808 0.504475 0.544964
Si Si3 0.770857 0.813402 0.520702
Si Si4 0.380914 0.378729 0.495290
Si Si5 0.088893 0.191153 0.835854
Si Si6 0.483318 0.130047 0.997600
O O1 0.312491 0.862723 0.818240
O O2 0.421764 0.861683 0.513389
O O3 0.447275 0.912194 0.931045
O O4 0.350208 0.956061 0.578724
O O5 0.733411 0.487570 0.826457
O O6 0.656333 0.561853 0.568759
O O7 0.771286 0.750000 0.630966
O O8 0.686458 0.834247 0.463499
O O9 0.825360 0.810517 0.269864
O O10 0.430626 0.361629 0.246872
O O11 0.429818 0.385357 0.756729
O O12 0.074895 0.250000 0.968037
O O13 0.031801 0.183531 0.594999
#
# Coordination Sequence:
#
# PCOD9466918 Si02
#       6
#     8   8   8   8   8   8
#     4  11  23  46  72 100 139 185 238 281 351 426
#     4  12  26  44  74 104 140 183 233 297 347 414
#     4  10  23  42  70 101 136 182 237 292 343 418
#     4  12  25  46  67 107 139 181 232 289 356 412
#     4  10  22  45  72 100 137 186 236 283 346 425
#     4  11  26  45  67 100 143 179 228 284 351 423
#
# _framework density 22.030501000000001
#
# number of rings (size 3 to 8) (size 9 to 14) (size 15 to 20)
#    0.000    1.000    3.333    2.500    4.667    3.333 
#    0.000    0.000    0.000    0.000    0.000    0.000 
#    0.000    0.000    0.000    0.000    0.000    0.000 
#
# Total GULP energy -268098.137587 kJ/mol
# GULP energy per Si atom -5585.377866 kJ/mol
# Density = 2.198036 g / cm^3
# Si number density = 22.030501 Si / 1000 Ang^3
#
#
#
# Elastic Constant Matrix: (Units=GPa)
#
#
# Indices 1 2 3 4 5 6 
#
# 1 116.8178 42.9557 32.0056 0.0000 0.0000 0.0000
# 2 42.9557 69.6328 10.6896 0.0000 0.0000 0.0000
# 3 32.0056 10.6896 87.2388 0.0000 0.0000 0.0000
# 4 0.0000 0.0000 0.0000 19.3217 0.0000 0.0000
# 5 0.0000 0.0000 0.0000 0.0000 100.9137 0.0000
# 6 0.0000 0.0000 0.0000 0.0000 0.0000 -20.6526
#
#
#
# Elastic Compliance Matrix: (Units=1/GPa)
#
#
# Indices 1 2 3 4 5 6 
#
# 1 0.012081 -0.006902 -0.003586 0.000000 0.000000 0.000000
# 2 -0.006902 0.018580 0.000256 0.000000 0.000000 0.000000
# 3 -0.003586 0.000256 0.012747 0.000000 0.000000 0.000000
# 4 0.000000 0.000000 0.000000 0.051755 0.000000 0.000000
# 5 0.000000 0.000000 0.000000 0.000000 0.009909 0.000000
# 6 0.000000 0.000000 0.000000 0.000000 0.000000 -0.048420
#
#
# Mechanical properties :
#
#
# Convention : Reuss Voigt Hill
#
# Bulk Modulus (GPa) = 43.58825 49.44346 46.51585
# Shear Modulus (GPa) = 58.98628 32.45247 45.71937
#
# Velocity S-wave (km/s) = 5.18005 3.84222 4.56046
# Velocity P-wave (km/s) = 7.45692 6.49426 6.99218
#
# Compressibility (1/GPa) = 0.02294196
#
# Stress axis : x y z
#
# Youngs Moduli (GPa) = 82.77510 53.82250 78.44831
#
# Poissons Ratio (x) = 0.37148 0.28135
# Poissons Ratio (y) = 0.57132 -0.02005
# Poissons Ratio (z) = 0.29687 -0.01376
#
# Static dielectric constant tensor:
#      x y z
#    x 1.833450 0.000000 0.000000 
#    y 0.000000 1.767340 0.000000 
#    z 0.000000 0.000000 1.860260 
# 
# From -- ./inp_files/1725.got.cif
#   From: 2010.05.17/outbox.cif.g08.bks.cpg/sg62_1_cif.got.tgz:1725.got - 2010.06.03 15:25:27.
