data_PCOD9466690
_publ_section_title
;
Structure prediction by ZEFSAII (Michael W. Deem and Ramdas Pophale) SiO2 
 PCOD9466690
Probable space group: P N M A
;
_chemical_formula_sum "Si O2"
_cell_formula_units_Z 40
_cell_length_a 8.046081
_cell_length_b 16.074014
_cell_length_c 13.320464
_cell_angle_alpha 90.000000
_cell_angle_beta 90.000000
_cell_angle_gamma 90.000000
_cell_volume 1722.773155
_symmetry_space_group_name_H-M "P N M A"
_symmetry_group_IT_number 62
_symmetry_cell_setting 'orthorhombic'
loop_
_space_group_symop_operation_xyz
x,y,z
1/2-x,-y,1/2+z
1/2+x,1/2-y,1/2-z
-x,1/2+y,-z
-x,-y,-z
1/2+x,y,1/2-z
1/2-x,1/2+y,1/2+z
x,1/2-y,z
loop_
_atom_site_type_symbol
_atom_site_label
_atom_site_fract_x
_atom_site_fract_y
_atom_site_fract_z
Si Si1 0.941824 0.094149 0.407981
Si Si2 0.753571 0.154202 0.712290
Si Si3 0.579948 0.406571 0.884474
Si Si4 0.586312 0.087441 0.522406
Si Si5 0.170182 0.750000 0.710363
Si Si6 0.519845 0.750000 0.588519
O O1 0.075378 0.107840 0.496572
O O2 0.764470 0.088408 0.465088
O O3 0.924924 0.167924 0.329519
O O4 0.968018 0.002529 0.364584
O O5 0.702571 0.250000 0.711428
O O6 0.935228 0.147796 0.664933
O O7 0.742941 0.117258 0.823689
O O8 0.634759 0.102233 0.638057
O O9 0.489228 0.167153 0.478434
O O10 0.500000 0.000000 0.500000
O O11 0.350160 0.750000 0.656880
O O12 0.166930 0.750000 0.830355
#
# Coordination Sequence:
#
# PCOD9466690 Si02
#       6
#     8   8   8   8   4   4
#     4   9  22  43  63  91 129 173 202 256 321 374
#     4  11  23  40  65  92 125 170 207 260 321 371
#     4  10  23  40  63  93 127 163 216 251 315 380
#     4  10  22  41  67  89 130 166 209 264 312 372
#     4  10  22  40  69  86 128 169 204 259 312 376
#     4  10  22  44  61  96 124 163 216 255 318 374
#
# _framework density 23.218378999999999
#
# number of rings (size 3 to 8) (size 9 to 14) (size 15 to 20)
#    0.000    2.000    1.000    0.600   11.200    1.600 
#    7.200    0.000    2.200    0.000    0.000    0.000 
#    0.000    0.000    0.000    0.000    0.000    0.000 
#
# Total GULP energy -223813.129636 kJ/mol
# GULP energy per Si atom -5595.328241 kJ/mol
# Density = 2.316553 g / cm^3
# Si number density = 23.218379 Si / 1000 Ang^3
#
#
#
# Elastic Constant Matrix: (Units=GPa)
#
#
# Indices 1 2 3 4 5 6 
#
# 1 46.5559 14.1277 8.0211 0.0000 0.0000 0.0000
# 2 14.1277 129.0370 35.6832 0.0000 0.0000 0.0000
# 3 8.0211 35.6832 58.0601 0.0000 0.0000 0.0000
# 4 0.0000 0.0000 0.0000 31.0673 0.0000 0.0000
# 5 0.0000 0.0000 0.0000 0.0000 34.6873 0.0000
# 6 0.0000 0.0000 0.0000 0.0000 0.0000 36.4150
#
#
#
# Elastic Compliance Matrix: (Units=1/GPa)
#
#
# Indices 1 2 3 4 5 6 
#
# 1 0.022392 -0.001923 -0.001912 0.000000 0.000000 0.000000
# 2 -0.001923 0.009502 -0.005574 0.000000 0.000000 0.000000
# 3 -0.001912 -0.005574 0.020913 0.000000 0.000000 0.000000
# 4 0.000000 0.000000 0.000000 0.032188 0.000000 0.000000
# 5 0.000000 0.000000 0.000000 0.000000 0.028829 0.000000
# 6 0.000000 0.000000 0.000000 0.000000 0.000000 0.027461
#
#
# Mechanical properties :
#
#
# Convention : Reuss Voigt Hill
#
# Bulk Modulus (GPa) = 29.42031 38.81299 34.11665
# Shear Modulus (GPa) = 29.16589 32.15532 30.66060
#
# Velocity S-wave (km/s) = 3.54807 3.72547 3.63785
# Velocity P-wave (km/s) = 5.42989 5.93787 5.68955
#
# Compressibility (1/GPa) = 0.03399013
#
# Stress axis : x y z
#
# Youngs Moduli (GPa) = 44.65792 105.24498 47.81639
#
# Poissons Ratio (x) = 0.20239 0.09141
# Poissons Ratio (y) = 0.08588 0.26653
# Poissons Ratio (z) = 0.08537 0.58663
#
# Static dielectric constant tensor:
#      x y z
#    x 1.940520 0.000000 0.000000 
#    y 0.000000 1.807690 0.000000 
#    z 0.000000 0.000000 1.860120 
# 
# From -- ./inp_files/11117.got.cif
#   From: 2010.05.17/outbox.cif.g08.bks.cpg/sg62_6_cif.got.tgz:11117.got - 2010.06.03 15:25:27.
