data_PCOD9466436
_publ_section_title
;
Structure prediction by ZEFSAII (Michael W. Deem and Ramdas Pophale) SiO2 
 PCOD9466436
Probable space group: P N M A
;
_chemical_formula_sum "Si O2"
_cell_formula_units_Z 40
_cell_length_a 9.050130
_cell_length_b 28.507822
_cell_length_c 5.722613
_cell_angle_alpha 90.000000
_cell_angle_beta 90.000000
_cell_angle_gamma 90.000000
_cell_volume 1476.431265
_symmetry_space_group_name_H-M "P N M A"
_symmetry_group_IT_number 62
_symmetry_cell_setting 'orthorhombic'
loop_
_space_group_symop_operation_xyz
x,y,z
1/2-x,-y,1/2+z
1/2+x,1/2-y,1/2-z
-x,1/2+y,-z
-x,-y,-z
1/2+x,y,1/2-z
1/2-x,1/2+y,1/2+z
x,1/2-y,z
loop_
_atom_site_type_symbol
_atom_site_label
_atom_site_fract_x
_atom_site_fract_y
_atom_site_fract_z
Si Si1 0.524412 0.250000 0.693900
Si Si2 0.019397 0.079201 0.065843
Si Si3 0.930942 0.750000 0.706316
Si Si4 0.670145 0.845777 0.304637
Si Si5 0.830596 0.506092 0.216825
Si Si6 0.966153 0.850927 0.568630
O O1 0.616184 0.250000 0.934957
O O2 0.415245 0.295406 0.684585
O O3 0.633473 0.250000 0.468365
O O4 0.099169 0.110755 0.257434
O O5 0.899347 0.115694 0.974451
O O6 0.103404 0.057006 0.845271
O O7 0.953334 0.034368 0.199521
O O8 0.000720 0.801844 0.699865
O O9 0.841031 0.843445 0.369834
O O10 0.620280 0.864426 0.050863
O O11 0.736529 0.496037 0.976743
#
# Coordination Sequence:
#
# PCOD9466436 Si02
#       6
#     4   8   4   8   8   8
#     4  10  21  46  68 109 151 202 242 304 361 437
#     4  11  26  45  75 108 147 199 251 313 380 456
#     4  10  21  46  68 107 153 198 246 298 365 431
#     4  11  25  44  76 110 155 202 253 307 374 448
#     4  11  28  49  75 105 151 192 251 315 388 451
#     4  11  25  46  74 114 153 203 253 309 373 450
#
# _framework density 27.092354
#
# number of rings (size 3 to 8) (size 9 to 14) (size 15 to 20)
#    0.000    1.200    2.000    1.800    8.400    3.200 
#    0.000    2.000    0.000    0.000    0.000    0.000 
#    0.000    0.000    0.000    0.000    0.000    0.000 
#
# Total GULP energy -223290.909561 kJ/mol
# GULP energy per Si atom -5582.272739 kJ/mol
# Density = 2.703069 g / cm^3
# Si number density = 27.092354 Si / 1000 Ang^3
#
#
#
# Elastic Constant Matrix: (Units=GPa)
#
#
# Indices 1 2 3 4 5 6 
#
# 1 83.5601 35.4319 42.9753 0.0000 0.0000 0.0000
# 2 35.4319 151.5228 22.3386 0.0000 0.0000 0.0000
# 3 42.9753 22.3386 171.5283 0.0000 0.0000 0.0000
# 4 0.0000 0.0000 0.0000 41.9091 0.0000 0.0000
# 5 0.0000 0.0000 0.0000 0.0000 40.8559 0.0000
# 6 0.0000 0.0000 0.0000 0.0000 0.0000 28.4935
#
#
#
# Elastic Compliance Matrix: (Units=1/GPa)
#
#
# Indices 1 2 3 4 5 6 
#
# 1 0.014969 -0.003005 -0.003359 0.000000 0.000000 0.000000
# 2 -0.003005 0.007332 -0.000202 0.000000 0.000000 0.000000
# 3 -0.003359 -0.000202 0.006698 0.000000 0.000000 0.000000
# 4 0.000000 0.000000 0.000000 0.023861 0.000000 0.000000
# 5 0.000000 0.000000 0.000000 0.000000 0.024476 0.000000
# 6 0.000000 0.000000 0.000000 0.000000 0.000000 0.035096
#
#
# Mechanical properties :
#
#
# Convention : Reuss Voigt Hill
#
# Bulk Modulus (GPa) = 63.02447 67.56699 65.29573
# Shear Modulus (GPa) = 38.21056 42.64272 40.42664
#
# Velocity S-wave (km/s) = 3.75958 3.97164 3.86706
# Velocity P-wave (km/s) = 6.49301 6.78421 6.64021
#
# Compressibility (1/GPa) = 0.01586685
#
# Stress axis : x y z
#
# Youngs Moduli (GPa) = 66.80338 136.38527 149.30186
#
# Poissons Ratio (x) = 0.40986 0.50152
# Poissons Ratio (y) = 0.20076 0.03015
# Poissons Ratio (z) = 0.22440 0.02754
#
# Static dielectric constant tensor:
#      x y z
#    x 2.109590 0.000000 0.000000 
#    y 0.000000 2.125560 0.000000 
#    z 0.000000 0.000000 2.213790 
# 
# From -- ./inp_files/708.got.cif
#   From: 2010.05.17/outbox.cif.g08.bks.cpg/sg62_1_cif.got.tgz:708.got - 2010.06.03 15:25:27.
