data_PCOD9466402
_publ_section_title
;
Structure prediction by ZEFSAII (Michael W. Deem and Ramdas Pophale) SiO2 
 PCOD9466402
Probable space group: P N M A
;
_chemical_formula_sum "Si O2"
_cell_formula_units_Z 48
_cell_length_a 10.212716
_cell_length_b 8.819304
_cell_length_c 27.401640
_cell_angle_alpha 90.000000
_cell_angle_beta 90.000000
_cell_angle_gamma 90.000000
_cell_volume 2468.039603
_symmetry_space_group_name_H-M "P N M A"
_symmetry_group_IT_number 62
_symmetry_cell_setting 'orthorhombic'
loop_
_space_group_symop_operation_xyz
x,y,z
1/2-x,-y,1/2+z
1/2+x,1/2-y,1/2-z
-x,1/2+y,-z
-x,-y,-z
1/2+x,y,1/2-z
1/2-x,1/2+y,1/2+z
x,1/2-y,z
loop_
_atom_site_type_symbol
_atom_site_label
_atom_site_fract_x
_atom_site_fract_y
_atom_site_fract_z
Si Si1 0.388172 0.930863 0.966095
Si Si2 0.522882 0.930846 0.639196
Si Si3 0.249263 0.568802 0.783125
Si Si4 0.014199 0.069597 0.356354
Si Si5 0.755062 0.070741 0.823592
Si Si6 0.606548 0.069258 0.536377
O O1 0.379119 0.750000 0.972906
O O2 0.425097 0.959249 0.909533
O O3 0.249560 0.007139 0.977064
O O4 0.500000 0.000000 0.000000
O O5 0.525542 0.750000 0.630934
O O6 0.621805 0.962936 0.683924
O O7 0.378150 0.985745 0.652489
O O8 0.573591 0.013115 0.590856
O O9 0.250842 0.750000 0.772707
O O10 0.377423 0.533131 0.815375
O O11 0.248149 0.479041 0.732901
O O12 0.986885 0.250000 0.352719
O O13 0.880768 0.980075 0.348056
O O14 0.773379 0.250000 0.827970
O O15 0.604106 0.250000 0.533929
O O16 0.500000 0.000000 0.500000
#
# Coordination Sequence:
#
# PCOD9466402 Si02
#       6
#     8   8   8   8   8   8
#     4  11  24  45  70  99 131 169 217 267 322 386
#     4  11  23  44  69  94 128 171 219 268 322 386
#     4  10  21  42  68  92 122 169 219 266 321 384
#     4  10  22  43  67  91 125 171 217 261 315 384
#     4  12  26  39  59  97 135 171 214 266 320 379
#     4  12  26  45  70  99 132 170 213 267 327 388
#
# _framework density 19.448634999999999
#
# number of rings (size 3 to 8) (size 9 to 14) (size 15 to 20)
#    0.000    1.000    1.667    5.000    2.333    7.333 
#    0.000    0.000    0.000    0.000    0.000    0.000 
#    0.000    0.000    0.000    0.000    0.000    0.000 
#
# Total GULP energy -268693.116081 kJ/mol
# GULP energy per Si atom -5597.773252 kJ/mol
# Density = 1.940437 g / cm^3
# Si number density = 19.448635 Si / 1000 Ang^3
#
#
#
# Elastic Constant Matrix: (Units=GPa)
#
#
# Indices 1 2 3 4 5 6 
#
# 1 162.1469 72.7901 42.6935 0.0000 0.0000 0.0000
# 2 72.7901 102.6091 52.4648 0.0000 0.0000 0.0000
# 3 42.6935 52.4648 66.3640 0.0000 0.0000 0.0000
# 4 0.0000 0.0000 0.0000 33.6843 0.0000 0.0000
# 5 0.0000 0.0000 0.0000 0.0000 38.4857 0.0000
# 6 0.0000 0.0000 0.0000 0.0000 0.0000 30.9863
#
#
#
# Elastic Compliance Matrix: (Units=1/GPa)
#
#
# Indices 1 2 3 4 5 6 
#
# 1 0.009111 -0.005818 -0.001262 0.000000 0.000000 0.000000
# 2 -0.005818 0.020073 -0.012126 0.000000 0.000000 0.000000
# 3 -0.001262 -0.012126 0.025467 0.000000 0.000000 0.000000
# 4 0.000000 0.000000 0.000000 0.029687 0.000000 0.000000
# 5 0.000000 0.000000 0.000000 0.000000 0.025984 0.000000
# 6 0.000000 0.000000 0.000000 0.000000 0.000000 0.032272
#
#
# Mechanical properties :
#
#
# Convention : Reuss Voigt Hill
#
# Bulk Modulus (GPa) = 61.58101 74.11298 67.84700
# Shear Modulus (GPa) = 26.82105 31.50936 29.16520
#
# Velocity S-wave (km/s) = 3.71761 4.02945 3.87667
# Velocity P-wave (km/s) = 7.08235 7.73553 7.41613
#
# Compressibility (1/GPa) = 0.01623877
#
# Stress axis : x y z
#
# Youngs Moduli (GPa) = 109.75196 49.81695 39.26703
#
# Poissons Ratio (x) = 0.28986 0.04955
# Poissons Ratio (y) = 0.63858 0.47616
# Poissons Ratio (z) = 0.13848 0.60409
#
# Static dielectric constant tensor:
#      x y z
#    x 1.747370 0.000000 0.000000 
#    y 0.000000 1.653970 0.000000 
#    z 0.000000 0.000000 1.654910 
# 
# From -- ./inp_files/31965.got.cif
#   From: 2010.05.17/outbox.cif.g08.bks.cpg/sg62_16_cif.got.tgz:31965.got - 2010.06.03 15:25:27.
