data_PCOD9466739
_publ_section_title
;
Structure prediction by ZEFSAII (Michael W. Deem and Ramdas Pophale) SiO2 
 PCOD9466739
Probable space group: P N M A
;
_chemical_formula_sum "Si O2"
_cell_formula_units_Z 56
_cell_length_a 12.138581
_cell_length_b 14.339913
_cell_length_c 15.392921
_cell_angle_alpha 90.000000
_cell_angle_beta 90.000000
_cell_angle_gamma 90.000000
_cell_volume 2679.387196
_symmetry_space_group_name_H-M "P N M A"
_symmetry_group_IT_number 62
_symmetry_cell_setting 'orthorhombic'
loop_
_space_group_symop_operation_xyz
x,y,z
1/2-x,-y,1/2+z
1/2+x,1/2-y,1/2-z
-x,1/2+y,-z
-x,-y,-z
1/2+x,y,1/2-z
1/2-x,1/2+y,1/2+z
x,1/2-y,z
loop_
_atom_site_type_symbol
_atom_site_label
_atom_site_fract_x
_atom_site_fract_y
_atom_site_fract_z
Si Si1 0.291811 0.855792 0.168055
Si Si2 0.397408 0.002243 0.692371
Si Si3 0.413036 0.640937 0.341584
Si Si4 0.506433 0.143384 0.170566
Si Si5 0.738858 0.854462 0.880965
Si Si6 0.188524 0.648355 0.415049
Si Si7 0.958971 0.600829 0.474114
O O1 0.252675 0.750000 0.153778
O O2 0.196606 0.920230 0.207500
O O3 0.387674 0.853647 0.239413
O O4 0.346014 0.893049 0.078891
O O5 0.492884 0.063581 0.648282
O O6 0.436727 0.939549 0.774684
O O7 0.336052 0.926446 0.632904
O O8 0.436205 0.750000 0.371126
O O9 0.299516 0.600058 0.382431
O O10 0.520497 0.250000 0.204779
O O11 0.375027 0.121642 0.168495
O O12 0.545584 0.147233 0.069518
O O13 0.771624 0.750000 0.854124
O O14 0.705143 0.850533 0.981317
O O15 0.203437 0.750000 0.373617
O O16 0.058521 0.631044 0.410161
O O17 0.000000 0.500000 0.500000
#
# Coordination Sequence:
#
# PCOD9466739 Si02
#       7
#     8   8   8   8   8   8   8
#     4  11  24  39  59  90 129 167 204 260 324 379
#     4  12  22  38  59  93 127 162 203 258 315 388
#     4  10  23  38  57  85 121 167 207 249 310 379
#     4  10  22  41  65  92 124 163 212 267 317 371
#     4   9  19  38  63  90 119 158 207 259 316 374
#     4   9  19  38  62  86 118 160 206 253 306 372
#     4  11  21  38  66  98 121 158 213 273 320 373
#
# _framework density 20.900300999999999
#
# number of rings (size 3 to 8) (size 9 to 14) (size 15 to 20)
#    0.000    1.714    0.000    6.429    4.000    0.571 
#    0.000    0.000    0.000    0.000    0.000    0.000 
#    0.000    0.000    0.000    0.000    0.000    0.000 
#
# Total GULP energy -311867.485648 kJ/mol
# GULP energy per Si atom -5569.062244 kJ/mol
# Density = 2.085273 g / cm^3
# Si number density = 20.900301 Si / 1000 Ang^3
#
#
#
# Elastic Constant Matrix: (Units=GPa)
#
#
# Indices 1 2 3 4 5 6 
#
# 1 120.6403 51.4173 35.6195 0.0000 0.0000 0.0000
# 2 51.4173 116.9791 18.6073 0.0000 0.0000 0.0000
# 3 35.6195 18.6073 45.8970 0.0000 0.0000 0.0000
# 4 0.0000 0.0000 0.0000 21.3650 0.0000 0.0000
# 5 0.0000 0.0000 0.0000 0.0000 40.1484 0.0000
# 6 0.0000 0.0000 0.0000 0.0000 0.0000 43.5186
#
#
#
# Elastic Compliance Matrix: (Units=1/GPa)
#
#
# Indices 1 2 3 4 5 6 
#
# 1 0.012422 -0.004197 -0.007939 0.000000 0.000000 0.000000
# 2 -0.004197 0.010556 -0.001022 0.000000 0.000000 0.000000
# 3 -0.007939 -0.001022 0.028363 0.000000 0.000000 0.000000
# 4 0.000000 0.000000 0.000000 0.046805 0.000000 0.000000
# 5 0.000000 0.000000 0.000000 0.000000 0.024908 0.000000
# 6 0.000000 0.000000 0.000000 0.000000 0.000000 0.022979
#
#
# Mechanical properties :
#
#
# Convention : Reuss Voigt Hill
#
# Bulk Modulus (GPa) = 39.96000 54.97829 47.46914
# Shear Modulus (GPa) = 27.67156 32.86455 30.26805
#
# Velocity S-wave (km/s) = 3.64260 3.96971 3.80967
# Velocity P-wave (km/s) = 6.07060 6.88285 6.48944
#
# Compressibility (1/GPa) = 0.02502502
#
# Stress axis : x y z
#
# Youngs Moduli (GPa) = 80.50304 94.73311 35.25667
#
# Poissons Ratio (x) = 0.39761 0.27989
# Poissons Ratio (y) = 0.33788 0.03604
# Poissons Ratio (z) = 0.63909 0.09684
#
# Static dielectric constant tensor:
#      x y z
#    x 1.847620 0.000000 0.000000 
#    y 0.000000 1.863420 0.000000 
#    z 0.000000 0.000000 1.776270 
# 
# From -- ./inp_files/18125.got.cif
#   From: 2010.05.17/outbox.cif.g08.bks.cpg/sg62_10_cif.got.tgz:18125.got - 2010.06.03 15:25:27.
