data_PCOD9466361
_publ_section_title
;
Structure prediction by ZEFSAII (Michael W. Deem and Ramdas Pophale) SiO2 
 PCOD9466361
Probable space group: P N M A
;
_chemical_formula_sum "Si O2"
_cell_formula_units_Z 64
_cell_length_a 19.743625
_cell_length_b 14.197410
_cell_length_c 11.256569
_cell_angle_alpha 90.000000
_cell_angle_beta 90.000000
_cell_angle_gamma 90.000000
_cell_volume 3155.310159
_symmetry_space_group_name_H-M "P N M A"
_symmetry_group_IT_number 62
_symmetry_cell_setting 'orthorhombic'
loop_
_space_group_symop_operation_xyz
x,y,z
1/2-x,-y,1/2+z
1/2+x,1/2-y,1/2-z
-x,1/2+y,-z
-x,-y,-z
1/2+x,y,1/2-z
1/2-x,1/2+y,1/2+z
x,1/2-y,z
loop_
_atom_site_type_symbol
_atom_site_label
_atom_site_fract_x
_atom_site_fract_y
_atom_site_fract_z
Si Si1 0.686039 0.022490 0.369403
Si Si2 0.165055 0.500130 0.714632
Si Si3 0.499646 0.604525 0.444826
Si Si4 0.068527 0.852961 0.822601
Si Si5 0.920849 0.860550 0.720865
Si Si6 0.895277 0.137411 0.749882
Si Si7 0.656883 0.357819 0.589877
Si Si8 0.919850 0.002838 0.526812
O O1 0.629171 0.088926 0.311336
O O2 0.690465 0.064112 0.502629
O O3 0.758727 0.031739 0.309287
O O4 0.658496 0.918053 0.334883
O O5 0.125041 0.569859 0.802354
O O6 0.165148 0.398300 0.777451
O O7 0.123371 0.506469 0.592463
O O8 0.500000 0.500000 0.500000
O O9 0.546849 0.654486 0.540938
O O10 0.533778 0.616017 0.317058
O O11 0.423309 0.640301 0.439222
O O12 0.089977 0.750000 0.778097
O O13 0.998881 0.880586 0.755521
O O14 0.911719 0.750000 0.726212
O O15 0.905153 0.905565 0.594720
O O16 0.884503 0.250000 0.741146
O O17 0.899940 0.085180 0.621690
O O18 0.681447 0.250000 0.574994
O O19 0.000000 0.000000 0.500000
#
# Coordination Sequence:
#
# PCOD9466361 Si02
#       8
#     8   8   8   8   8   8   8   8
#     4  11  25  44  67  95 136 177 221 281 342 399
#     4  12  27  43  66  97 137 178 223 281 337 399
#     4  12  19  40  72 101 134 166 215 291 349 389
#     4  11  21  38  66  99 130 171 225 278 331 393
#     4  10  21  41  67  92 126 175 223 272 332 395
#     4  11  24  42  68 100 136 181 225 272 342 413
#     4  12  25  43  72 103 132 173 227 282 343 407
#     4  11  23  42  66  93 133 176 219 277 334 402
#
# _framework density 20.283268
#
# number of rings (size 3 to 8) (size 9 to 14) (size 15 to 20)
#    0.000    0.750    5.000    3.000    3.500    3.000 
#    0.000    0.000    0.000    0.000    0.000    0.000 
#    0.000    0.000    0.000    0.000    0.000    0.000 
#
# Total GULP energy -357396.279598 kJ/mol
# GULP energy per Si atom -5584.316869 kJ/mol
# Density = 2.023710 g / cm^3
# Si number density = 20.283268 Si / 1000 Ang^3
#
#
#
# Elastic Constant Matrix: (Units=GPa)
#
#
# Indices 1 2 3 4 5 6 
#
# 1 66.5072 35.6654 6.1815 0.0000 0.0000 0.0000
# 2 35.6654 153.4401 37.4794 0.0000 0.0000 0.0000
# 3 6.1815 37.4794 97.2277 0.0000 0.0000 0.0000
# 4 0.0000 0.0000 0.0000 14.5719 0.0000 0.0000
# 5 0.0000 0.0000 0.0000 0.0000 26.0884 0.0000
# 6 0.0000 0.0000 0.0000 0.0000 0.0000 -3.3953
#
#
#
# Elastic Compliance Matrix: (Units=1/GPa)
#
#
# Indices 1 2 3 4 5 6 
#
# 1 0.017199 -0.004118 0.000494 0.000000 0.000000 0.000000
# 2 -0.004118 0.008181 -0.002892 0.000000 0.000000 0.000000
# 3 0.000494 -0.002892 0.011368 0.000000 0.000000 0.000000
# 4 0.000000 0.000000 0.000000 0.068625 0.000000 0.000000
# 5 0.000000 0.000000 0.000000 0.000000 0.038331 0.000000
# 6 0.000000 0.000000 0.000000 0.000000 0.000000 -0.294527
#
#
# Mechanical properties :
#
#
# Convention : Reuss Voigt Hill
#
# Bulk Modulus (GPa) = 42.16579 52.86975 47.51777
# Shear Modulus (GPa) = -38.49526 23.30959 -7.59284
#
# Velocity S-wave (km/s) = -4.36120 3.39367 -1.93689
# Velocity P-wave (km/s) = 2.12755 6.44036 4.29836
#
# Compressibility (1/GPa) = 0.02371591
#
# Stress axis : x y z
#
# Youngs Moduli (GPa) = 58.14445 122.23771 87.96295
#
# Poissons Ratio (x) = 0.50341 -0.04346
# Poissons Ratio (y) = 0.23946 0.25436
# Poissons Ratio (z) = -0.02873 0.35348
#
# Static dielectric constant tensor:
#      x y z
#    x 1.700490 0.000000 0.000000 
#    y 0.000000 1.752620 0.000000 
#    z 0.000000 0.000000 1.780130 
# 
# From -- ./inp_files/14354.got.cif
#   From: 2010.05.17/outbox.cif.g08.bks.cpg/sg62_8_cif.got.tgz:14354.got - 2010.06.03 15:25:27.
