data_PCOD9466013
_publ_section_title
;
Structure prediction by ZEFSAII (Michael W. Deem and Ramdas Pophale) SiO2 
 PCOD9466013
Probable space group: P N M A
;
_chemical_formula_sum "Si O2"
_cell_formula_units_Z 40
_cell_length_a 18.390973
_cell_length_b 17.126919
_cell_length_c 5.576674
_cell_angle_alpha 90.000000
_cell_angle_beta 90.000000
_cell_angle_gamma 90.000000
_cell_volume 1756.544708
_symmetry_space_group_name_H-M "P N M A"
_symmetry_group_IT_number 62
_symmetry_cell_setting 'orthorhombic'
loop_
_space_group_symop_operation_xyz
x,y,z
1/2-x,-y,1/2+z
1/2+x,1/2-y,1/2-z
-x,1/2+y,-z
-x,-y,-z
1/2+x,y,1/2-z
1/2-x,1/2+y,1/2+z
x,1/2-y,z
loop_
_atom_site_type_symbol
_atom_site_label
_atom_site_fract_x
_atom_site_fract_y
_atom_site_fract_z
Si Si1 0.571092 0.604224 0.428792
Si Si2 0.796215 0.588314 0.104084
Si Si3 0.952767 0.954622 0.695947
Si Si4 0.068606 0.160382 0.694859
Si Si5 0.721232 0.600011 0.604878
O O1 0.513242 0.574592 0.621982
O O2 0.596901 0.525310 0.290386
O O3 0.517633 0.653598 0.257894
O O4 0.641185 0.636695 0.562420
O O5 0.880593 0.614511 0.115467
O O6 0.763145 0.618675 0.356870
O O7 0.787678 0.494609 0.118032
O O8 0.758083 0.619225 0.861062
O O9 0.917587 0.883383 0.555764
O O10 0.000000 0.000000 0.500000
O O11 0.089252 0.250000 0.690378
#
# Coordination Sequence:
#
# PCOD9466013 Si02
#       5
#     8   8   8   8   8
#     4  10  21  38  67  97 125 168 231 293 327 395
#     4  10  23  39  63 100 134 173 218 283 344 406
#     4   9  19  35  65  94 124 160 222 280 333 381
#     4  11  25  42  63  95 138 186 225 273 347 422
#     4  10  22  39  68  98 130 165 228 289 340 386
#
# _framework density 22.771978000000001
#
# number of rings (size 3 to 8) (size 9 to 14) (size 15 to 20)
#    0.000    2.000    0.000    3.600   16.800    0.800 
#    0.000    2.000    0.000    0.000    0.000    0.000 
#    0.000    0.000    0.000    0.000    0.000    0.000 
#
# Total GULP energy -223159.962538 kJ/mol
# GULP energy per Si atom -5578.999063 kJ/mol
# Density = 2.272015 g / cm^3
# Si number density = 22.771978 Si / 1000 Ang^3
#
#
#
# Elastic Constant Matrix: (Units=GPa)
#
#
# Indices 1 2 3 4 5 6 
#
# 1 126.0615 8.2907 42.0422 0.0000 0.0000 0.0000
# 2 8.2907 54.0639 21.8344 0.0000 0.0000 0.0000
# 3 42.0422 21.8344 122.5215 0.0000 0.0000 0.0000
# 4 0.0000 0.0000 0.0000 6.0263 0.0000 0.0000
# 5 0.0000 0.0000 0.0000 0.0000 37.5777 0.0000
# 6 0.0000 0.0000 0.0000 0.0000 0.0000 10.5606
#
#
#
# Elastic Compliance Matrix: (Units=1/GPa)
#
#
# Indices 1 2 3 4 5 6 
#
# 1 0.008959 -0.000143 -0.003049 0.000000 0.000000 0.000000
# 2 -0.000143 0.019933 -0.003503 0.000000 0.000000 0.000000
# 3 -0.003049 -0.003503 0.009832 0.000000 0.000000 0.000000
# 4 0.000000 0.000000 0.000000 0.165939 0.000000 0.000000
# 5 0.000000 0.000000 0.000000 0.000000 0.026612 0.000000
# 6 0.000000 0.000000 0.000000 0.000000 0.000000 0.094692
#
#
# Mechanical properties :
#
#
# Convention : Reuss Voigt Hill
#
# Bulk Modulus (GPa) = 39.47089 49.66460 44.56774
# Shear Modulus (GPa) = 14.37602 26.19822 20.28712
#
# Velocity S-wave (km/s) = 2.51530 3.39552 2.98800
# Velocity P-wave (km/s) = 5.08000 6.10161 5.61409
#
# Compressibility (1/GPa) = 0.02533513
#
# Stress axis : x y z
#
# Youngs Moduli (GPa) = 111.62240 50.16713 101.70558
#
# Poissons Ratio (x) = 0.00715 0.31007
# Poissons Ratio (y) = 0.01591 0.35631
# Poissons Ratio (z) = 0.34031 0.17575
#
# Static dielectric constant tensor:
#      x y z
#    x 2.091960 0.000000 0.000000 
#    y 0.000000 1.833800 0.000000 
#    z 0.000000 0.000000 2.015150 
# 
# From -- ./inp_files/1556.got.cif
#   From: 2010.05.17/outbox.cif.g08.bks.cpg/sg62_1_cif.got.tgz:1556.got - 2010.06.03 15:25:27.
