data_PCOD9466033
_publ_section_title
;
Structure prediction by ZEFSAII (Michael W. Deem and Ramdas Pophale) SiO2 
 PCOD9466033
Probable space group: P N M A
;
_chemical_formula_sum "Si O2"
_cell_formula_units_Z 56
_cell_length_a 20.662808
_cell_length_b 8.653038
_cell_length_c 16.614980
_cell_angle_alpha 90.000000
_cell_angle_beta 90.000000
_cell_angle_gamma 90.000000
_cell_volume 2970.693008
_symmetry_space_group_name_H-M "P N M A"
_symmetry_group_IT_number 62
_symmetry_cell_setting 'orthorhombic'
loop_
_space_group_symop_operation_xyz
x,y,z
1/2-x,-y,1/2+z
1/2+x,1/2-y,1/2-z
-x,1/2+y,-z
-x,-y,-z
1/2+x,y,1/2-z
1/2-x,1/2+y,1/2+z
x,1/2-y,z
loop_
_atom_site_type_symbol
_atom_site_label
_atom_site_fract_x
_atom_site_fract_y
_atom_site_fract_z
Si Si1 0.820432 0.435235 0.001744
Si Si2 0.157436 0.436645 0.341626
Si Si3 0.297481 0.566144 0.321762
Si Si4 0.673462 0.435243 0.972312
Si Si5 0.109747 0.934916 0.684448
Si Si6 0.951474 0.564793 0.933195
Si Si7 0.528345 0.438099 0.250685
O O1 0.826131 0.250000 0.000990
O O2 0.821158 0.491652 0.094201
O O3 0.749659 0.476979 0.967087
O O4 0.879332 0.509068 0.953671
O O5 0.164040 0.250000 0.335281
O O6 0.223460 0.511913 0.310224
O O7 0.152190 0.473187 0.436621
O O8 0.093952 0.487477 0.293701
O O9 0.300247 0.750000 0.328423
O O10 0.341681 0.508628 0.249052
O O11 0.668576 0.250000 0.962410
O O12 0.632044 0.516480 0.904099
O O13 0.112636 0.750000 0.692395
O O14 0.036897 0.986809 0.705672
O O15 0.953739 0.750000 0.935400
O O16 0.971456 0.512688 0.843709
O O17 0.000000 0.500000 0.000000
O O18 0.529059 0.250000 0.250065
#
# Coordination Sequence:
#
# PCOD9466033 Si02
#       7
#     8   8   8   8   8   8   8
#     4  10  21  39  60  84 117 154 194 243 301 355
#     4   9  19  40  63  84 114 153 194 245 302 350
#     4  11  22  37  59  88 119 151 195 245 295 352
#     4   9  20  37  58  85 117 150 190 244 299 347
#     4  11  22  37  59  85 118 158 198 238 290 355
#     4  11  22  37  59  87 120 158 202 248 300 360
#     4   9  21  39  59  85 115 153 199 243 294 354
#
# _framework density 18.850819999999999
#
# number of rings (size 3 to 8) (size 9 to 14) (size 15 to 20)
#    0.000    2.000    0.000    4.286    2.000    4.571 
#    0.000    4.286    0.000    0.000    0.000    0.000 
#    0.000    0.000    0.000    0.000    0.000    0.000 
#
# Total GULP energy -312894.400972 kJ/mol
# GULP energy per Si atom -5587.400017 kJ/mol
# Density = 1.880791 g / cm^3
# Si number density = 18.850820 Si / 1000 Ang^3
#
#
#
# Elastic Constant Matrix: (Units=GPa)
#
#
# Indices 1 2 3 4 5 6 
#
# 1 96.9730 23.0914 44.0638 0.0000 0.0000 0.0000
# 2 23.0914 42.5649 14.4830 0.0000 0.0000 0.0000
# 3 44.0638 14.4830 40.4900 0.0000 0.0000 0.0000
# 4 0.0000 0.0000 0.0000 30.9660 0.0000 0.0000
# 5 0.0000 0.0000 0.0000 0.0000 33.4036 0.0000
# 6 0.0000 0.0000 0.0000 0.0000 0.0000 21.1517
#
#
#
# Elastic Compliance Matrix: (Units=1/GPa)
#
#
# Indices 1 2 3 4 5 6 
#
# 1 0.021016 -0.004121 -0.021397 0.000000 0.000000 0.000000
# 2 -0.004121 0.027557 -0.005373 0.000000 0.000000 0.000000
# 3 -0.021397 -0.005373 0.049905 0.000000 0.000000 0.000000
# 4 0.000000 0.000000 0.000000 0.032294 0.000000 0.000000
# 5 0.000000 0.000000 0.000000 0.000000 0.029937 0.000000
# 6 0.000000 0.000000 0.000000 0.000000 0.000000 0.047277
#
#
# Mechanical properties :
#
#
# Convention : Reuss Voigt Hill
#
# Bulk Modulus (GPa) = 27.24999 38.14492 32.69745
# Shear Modulus (GPa) = 17.73058 23.66357 20.69708
#
# Velocity S-wave (km/s) = 3.07020 3.54688 3.31711
# Velocity P-wave (km/s) = 5.20146 6.08710 5.66163
#
# Compressibility (1/GPa) = 0.03669726
#
# Stress axis : x y z
#
# Youngs Moduli (GPa) = 47.58280 36.28835 20.03819
#
# Poissons Ratio (x) = 0.14953 0.42876
# Poissons Ratio (y) = 0.19607 0.10766
# Poissons Ratio (z) = 1.01813 0.19496
#
# Static dielectric constant tensor:
#      x y z
#    x 1.636740 0.000000 0.000000 
#    y 0.000000 1.636890 0.000000 
#    z 0.000000 0.000000 1.631240 
# 
# From -- ./inp_files/20302.got.cif
#   From: 2010.05.17/outbox.cif.g08.bks.cpg/sg62_11_cif.got.tgz:20302.got - 2010.06.03 15:25:27.
