data_PCOD9466623
_publ_section_title
;
Structure prediction by ZEFSAII (Michael W. Deem and Ramdas Pophale) SiO2 
 PCOD9466623
Probable space group: P N M A
;
_chemical_formula_sum "Si O2"
_cell_formula_units_Z 64
_cell_length_a 31.186339
_cell_length_b 7.983318
_cell_length_c 12.071732
_cell_angle_alpha 90.000000
_cell_angle_beta 90.000000
_cell_angle_gamma 90.000000
_cell_volume 3005.504687
_symmetry_space_group_name_H-M "P N M A"
_symmetry_group_IT_number 62
_symmetry_cell_setting 'orthorhombic'
loop_
_space_group_symop_operation_xyz
x,y,z
1/2-x,-y,1/2+z
1/2+x,1/2-y,1/2-z
-x,1/2+y,-z
-x,-y,-z
1/2+x,y,1/2-z
1/2-x,1/2+y,1/2+z
x,1/2-y,z
loop_
_atom_site_type_symbol
_atom_site_label
_atom_site_fract_x
_atom_site_fract_y
_atom_site_fract_z
Si Si1 0.163658 0.443133 0.988950
Si Si2 0.036707 0.544820 0.734524
Si Si3 0.310138 0.445692 0.254199
Si Si4 0.555303 0.445170 0.282670
Si Si5 0.885076 0.454788 0.414445
Si Si6 0.066980 0.944944 0.976919
Si Si7 0.362002 0.052105 0.842182
Si Si8 0.216413 0.551227 0.199121
O O1 0.155110 0.250000 0.018002
O O2 0.184762 0.456718 0.868607
O O3 0.118243 0.535972 0.983654
O O4 0.194431 0.520021 0.081058
O O5 0.036916 0.750000 0.735265
O O6 0.070438 0.489618 0.641746
O O7 0.052637 0.491010 0.856641
O O8 0.987517 0.490266 0.722265
O O9 0.318579 0.250000 0.277971
O O10 0.345876 0.501657 0.166037
O O11 0.262459 0.466784 0.208233
O O12 0.560315 0.250000 0.257543
O O13 0.548729 0.465766 0.414383
O O14 0.598809 0.530976 0.243046
O O15 0.886420 0.250000 0.417488
O O16 0.876082 0.516508 0.538477
O O17 0.055203 0.750000 0.984622
O O18 0.354794 0.250000 0.856825
O O19 0.318066 0.984984 0.789367
O O20 0.222267 0.750000 0.214992
#
# Coordination Sequence:
#
# PCOD9466623 Si02
#       8
#     8   8   8   8   8   8   8   8
#     4  12  24  40  64  93 126 162 204 252 305 364
#     4   9  19  36  60  88 120 157 199 248 305 367
#     4  11  23  41  67  94 123 161 203 251 308 366
#     4  11  22  36  58  89 122 158 200 251 305 363
#     4   9  19  39  63  86 116 159 203 244 299 364
#     4  11  20  37  62  88 121 159 201 251 308 365
#     4  10  22  40  62  84 117 163 204 247 302 364
#     4  11  24  41  62  92 127 161 204 253 303 364
#
# _framework density 21.294260000000001
#
# number of rings (size 3 to 8) (size 9 to 14) (size 15 to 20)
#    0.000    1.500    2.500    3.000    1.750    1.000 
#    0.000    3.125    0.000    0.000    0.000    0.000 
#    0.000    0.000    0.000    0.000    0.000    0.000 
#
# Total GULP energy -357777.747806 kJ/mol
# GULP energy per Si atom -5590.277309 kJ/mol
# Density = 2.124579 g / cm^3
# Si number density = 21.294260 Si / 1000 Ang^3
#
#
#
# Elastic Constant Matrix: (Units=GPa)
#
#
# Indices 1 2 3 4 5 6 
#
# 1 53.5552 -7.0027 -23.6389 0.0000 0.0000 0.0000
# 2 -7.0027 29.6808 -5.8685 0.0000 0.0000 0.0000
# 3 -23.6389 -5.8685 43.6428 0.0000 0.0000 0.0000
# 4 0.0000 0.0000 0.0000 1.1352 0.0000 0.0000
# 5 0.0000 0.0000 0.0000 0.0000 16.9312 0.0000
# 6 0.0000 0.0000 0.0000 0.0000 0.0000 13.2716
#
#
#
# Elastic Compliance Matrix: (Units=1/GPa)
#
#
# Indices 1 2 3 4 5 6 
#
# 1 0.026908 0.009482 0.015850 0.000000 0.000000 0.000000
# 2 0.009482 0.037954 0.010240 0.000000 0.000000 0.000000
# 3 0.015850 0.010240 0.032875 0.000000 0.000000 0.000000
# 4 0.000000 0.000000 0.000000 0.880926 0.000000 0.000000
# 5 0.000000 0.000000 0.000000 0.000000 0.059063 0.000000
# 6 0.000000 0.000000 0.000000 0.000000 0.000000 0.075349
#
#
# Mechanical properties :
#
#
# Convention : Reuss Voigt Hill
#
# Bulk Modulus (GPa) = 5.92136 5.98429 5.95282
# Shear Modulus (GPa) = 4.55281 17.16019 10.85650
#
# Velocity S-wave (km/s) = 1.46379 2.84185 2.26040
# Velocity P-wave (km/s) = 2.37564 3.68572 3.10066
#
# Compressibility (1/GPa) = 0.16888025
#
# Stress axis : x y z
#
# Youngs Moduli (GPa) = 37.16347 26.34795 30.41815
#
# Poissons Ratio (x) = -0.24984 -0.48212
# Poissons Ratio (y) = -0.35240 -0.31147
# Poissons Ratio (z) = -0.58903 -0.26979
#
# Static dielectric constant tensor:
#      x y z
#    x 1.751610 0.000000 0.000000 
#    y 0.000000 1.731060 0.000000 
#    z 0.000000 0.000000 1.754650 
# 
# From -- ./inp_files/15807.got.cif
#   From: 2010.05.17/outbox.cif.g08.bks.cpg/sg62_8_cif.got.tgz:15807.got - 2010.06.03 15:25:27.
