data_PCOD9466223
_publ_section_title
;
Structure prediction by ZEFSAII (Michael W. Deem and Ramdas Pophale) SiO2 
 PCOD9466223
Probable space group: P N M A
;
_chemical_formula_sum "Si O2"
_cell_formula_units_Z 60
_cell_length_a 24.756858
_cell_length_b 7.630460
_cell_length_c 13.075245
_cell_angle_alpha 90.000000
_cell_angle_beta 90.000000
_cell_angle_gamma 90.000000
_cell_volume 2469.995039
_symmetry_space_group_name_H-M "P N M A"
_symmetry_group_IT_number 62
_symmetry_cell_setting 'orthorhombic'
loop_
_space_group_symop_operation_xyz
x,y,z
1/2-x,-y,1/2+z
1/2+x,1/2-y,1/2-z
-x,1/2+y,-z
-x,-y,-z
1/2+x,y,1/2-z
1/2-x,1/2+y,1/2+z
x,1/2-y,z
loop_
_atom_site_type_symbol
_atom_site_label
_atom_site_fract_x
_atom_site_fract_y
_atom_site_fract_z
Si Si1 0.762580 0.459121 0.840082
Si Si2 0.435751 0.445836 0.144033
Si Si3 0.331173 0.959538 0.862820
Si Si4 0.951728 0.947637 0.682568
Si Si5 0.338307 0.951457 0.269479
Si Si6 0.847767 0.953461 0.005717
Si Si7 0.959692 0.052750 0.909392
Si Si8 0.855563 0.250000 0.499057
O O1 0.761277 0.250000 0.858678
O O2 0.795095 0.502352 0.736226
O O3 0.702752 0.531071 0.813674
O O4 0.796429 0.536909 0.932622
O O5 0.445516 0.250000 0.188991
O O6 0.494840 0.527052 0.130408
O O7 0.398094 0.542442 0.224630
O O8 0.398730 0.402210 0.046870
O O9 0.328954 0.750000 0.884954
O O10 0.392240 0.024338 0.832867
O O11 0.317378 0.092765 0.952797
O O12 0.946251 0.750000 0.642214
O O13 0.962540 0.947168 0.804108
O O14 0.320838 0.750000 0.280338
O O15 0.336360 0.030441 0.382161
O O16 0.863804 0.750000 0.018900
O O17 0.898936 0.041693 0.952059
O O18 0.972905 0.250000 0.879004
O O19 0.000000 0.000000 0.000000
#
# Coordination Sequence:
#
# PCOD9466223 Si02
#       8
#     8   8   8   8   8   8   8   4
#     4  11  23  43  67  99 138 174 232 284 338 408
#     4   9  22  43  62  94 131 174 220 280 340 403
#     4  11  23  42  69 101 137 178 229 289 343 402
#     4  10  21  40  63  92 133 169 221 278 333 401
#     4  10  24  44  67  96 138 178 226 285 341 415
#     4  11  23  42  66  99 133 176 228 279 341 409
#     4  12  24  37  61  97 132 176 217 273 339 411
#     4  10  24  44  68  98 134 180 236 280 344 416
#
# _framework density 24.291547999999999
#
# number of rings (size 3 to 8) (size 9 to 14) (size 15 to 20)
#    0.400    1.067    2.000    2.800    0.933    6.933 
#    2.400    1.333    0.000    0.000    0.000    0.000 
#    0.000    0.000    0.000    0.000    0.000    0.000 
#
# Total GULP energy -334236.501607 kJ/mol
# GULP energy per Si atom -5570.608360 kJ/mol
# Density = 2.423626 g / cm^3
# Si number density = 24.291548 Si / 1000 Ang^3
#
#
#
# Elastic Constant Matrix: (Units=GPa)
#
#
# Indices 1 2 3 4 5 6 
#
# 1 106.7199 -22.2430 3.9044 0.0000 0.0000 0.0000
# 2 -22.2430 75.6221 -15.9977 0.0000 0.0000 0.0000
# 3 3.9044 -15.9977 60.2098 0.0000 0.0000 0.0000
# 4 0.0000 0.0000 0.0000 -25.7393 0.0000 0.0000
# 5 0.0000 0.0000 0.0000 0.0000 34.2700 0.0000
# 6 0.0000 0.0000 0.0000 0.0000 0.0000 0.6687
#
#
#
# Elastic Compliance Matrix: (Units=1/GPa)
#
#
# Indices 1 2 3 4 5 6 
#
# 1 0.009983 0.002966 0.000141 0.000000 0.000000 0.000000
# 2 0.002966 0.014892 0.003765 0.000000 0.000000 0.000000
# 3 0.000141 0.003765 0.017600 0.000000 0.000000 0.000000
# 4 0.000000 0.000000 0.000000 -0.038851 0.000000 0.000000
# 5 0.000000 0.000000 0.000000 0.000000 0.029180 0.000000
# 6 0.000000 0.000000 0.000000 0.000000 0.000000 1.495391
#
#
# Mechanical properties :
#
#
# Convention : Reuss Voigt Hill
#
# Bulk Modulus (GPa) = 17.78769 19.31992 18.55381
# Shear Modulus (GPa) = 3.26117 20.29910 11.78013
#
# Velocity S-wave (km/s) = 1.15993 2.89389 2.20454
# Velocity P-wave (km/s) = 3.02198 4.37456 3.75960
#
# Compressibility (1/GPa) = 0.05621865
#
# Stress axis : x y z
#
# Youngs Moduli (GPa) = 100.16621 67.14793 56.81914
#
# Poissons Ratio (x) = -0.19918 -0.00800
# Poissons Ratio (y) = -0.29712 -0.21390
# Poissons Ratio (z) = -0.01410 -0.25278
#
# Static dielectric constant tensor:
#      x y z
#    x 1.969190 0.000000 0.000000 
#    y 0.000000 1.918480 0.000000 
#    z 0.000000 0.000000 1.986520 
# 
# From -- ./inp_files/20723.got.cif
#   From: 2010.05.17/outbox.cif.g08.bks.cpg/sg62_11_cif.got.tgz:20723.got - 2010.06.03 15:25:27.
