data_PCOD9466747
_publ_section_title
;
Structure prediction by ZEFSAII (Michael W. Deem and Ramdas Pophale) SiO2 
 PCOD9466747
Probable space group: P N M A
;
_chemical_formula_sum "Si O2"
_cell_formula_units_Z 56
_cell_length_a 19.885610
_cell_length_b 23.016223
_cell_length_c 5.216647
_cell_angle_alpha 90.000000
_cell_angle_beta 90.000000
_cell_angle_gamma 90.000000
_cell_volume 2387.615691
_symmetry_space_group_name_H-M "P N M A"
_symmetry_group_IT_number 62
_symmetry_cell_setting 'orthorhombic'
loop_
_space_group_symop_operation_xyz
x,y,z
1/2-x,-y,1/2+z
1/2+x,1/2-y,1/2-z
-x,1/2+y,-z
-x,-y,-z
1/2+x,y,1/2-z
1/2-x,1/2+y,1/2+z
x,1/2-y,z
loop_
_atom_site_type_symbol
_atom_site_label
_atom_site_fract_x
_atom_site_fract_y
_atom_site_fract_z
Si Si1 0.420276 0.429837 0.919823
Si Si2 0.267206 0.816602 0.423544
Si Si3 0.882478 0.184883 0.836026
Si Si4 0.949226 0.943079 0.743850
Si Si5 0.817659 0.118114 0.217230
Si Si6 0.286328 0.007924 0.502463
Si Si7 0.876555 0.593614 0.228893
O O1 0.430347 0.487848 0.749846
O O2 0.349647 0.422770 0.066861
O O3 0.426045 0.367252 0.782606
O O4 0.474606 0.438012 0.146891
O O5 0.285509 0.750000 0.470602
O O6 0.194295 0.816002 0.279929
O O7 0.249150 0.851718 0.682260
O O8 0.326956 0.851500 0.288256
O O9 0.908718 0.250000 0.802795
O O10 0.869038 0.168236 0.132499
O O11 0.906746 0.916269 0.508304
O O12 0.933517 0.910026 0.007238
O O13 0.811006 0.074053 0.981785
O O14 0.271347 0.985546 0.785222
O O15 0.332427 0.961616 0.358600
#
# Coordination Sequence:
#
# PCOD9466747 Si02
#       7
#     8   8   8   8   8   8   8
#     4  10  24  42  65  95 129 169 220 274 326 378
#     4  10  23  41  62  93 131 171 216 266 326 396
#     4  10  22  41  66  94 127 169 219 273 329 384
#     4  11  26  43  68  97 133 174 217 270 327 387
#     4  11  21  36  65  93 126 168 215 273 329 382
#     4  12  23  36  60  97 135 165 206 269 330 392
#     4  12  24  42  64  97 134 173 214 262 329 396
#
# _framework density 23.454362
#
# number of rings (size 3 to 8) (size 9 to 14) (size 15 to 20)
#    0.000    1.143    2.857    3.000    6.000    1.714 
#    0.000    1.429    0.000    0.000    0.000    0.000 
#    0.000    0.000    0.000    0.000    0.000    0.000 
#
# Total GULP energy -313091.599145 kJ/mol
# GULP energy per Si atom -5590.921413 kJ/mol
# Density = 2.340098 g / cm^3
# Si number density = 23.454362 Si / 1000 Ang^3
#
#
#
# Elastic Constant Matrix: (Units=GPa)
#
#
# Indices 1 2 3 4 5 6 
#
# 1 48.3361 45.5178 21.7973 0.0000 0.0000 0.0000
# 2 45.5178 190.8823 31.7071 0.0000 0.0000 0.0000
# 3 21.7973 31.7071 87.5682 0.0000 0.0000 0.0000
# 4 0.0000 0.0000 0.0000 28.2708 0.0000 0.0000
# 5 0.0000 0.0000 0.0000 0.0000 37.7581 0.0000
# 6 0.0000 0.0000 0.0000 0.0000 0.0000 30.4487
#
#
#
# Elastic Compliance Matrix: (Units=1/GPa)
#
#
# Indices 1 2 3 4 5 6 
#
# 1 0.028556 -0.005989 -0.004940 0.000000 0.000000 0.000000
# 2 -0.005989 0.006830 -0.000982 0.000000 0.000000 0.000000
# 3 -0.004940 -0.000982 0.013005 0.000000 0.000000 0.000000
# 4 0.000000 0.000000 0.000000 0.035372 0.000000 0.000000
# 5 0.000000 0.000000 0.000000 0.000000 0.026484 0.000000
# 6 0.000000 0.000000 0.000000 0.000000 0.000000 0.032842
#
#
# Mechanical properties :
#
#
# Convention : Reuss Voigt Hill
#
# Bulk Modulus (GPa) = 40.70142 58.31455 49.50798
# Shear Modulus (GPa) = 28.55502 34.47981 31.51742
#
# Velocity S-wave (km/s) = 3.49301 3.83832 3.66973
# Velocity P-wave (km/s) = 5.80167 6.67537 6.25380
#
# Compressibility (1/GPa) = 0.02456917
#
# Stress axis : x y z
#
# Youngs Moduli (GPa) = 35.01933 146.41036 76.89414
#
# Poissons Ratio (x) = 0.87684 0.37982
# Poissons Ratio (y) = 0.20973 0.07554
# Poissons Ratio (z) = 0.17298 0.14382
#
# Static dielectric constant tensor:
#      x y z
#    x 1.997930 0.000000 0.000000 
#    y 0.000000 1.851060 0.000000 
#    z 0.000000 0.000000 1.992820 
# 
# From -- ./inp_files/2300.got.cif
#   From: 2010.05.17/outbox.cif.g08.bks.cpg/sg62_2_cif.got.tgz:2300.got - 2010.06.03 15:25:27.
