data_PCOD9466805
_publ_section_title
;
Structure prediction by ZEFSAII (Michael W. Deem and Ramdas Pophale) SiO2 
 PCOD9466805
Probable space group: P N M A
;
_chemical_formula_sum "Si O2"
_cell_formula_units_Z 48
_cell_length_a 7.856499
_cell_length_b 30.217825
_cell_length_c 7.722669
_cell_angle_alpha 90.000000
_cell_angle_beta 90.000000
_cell_angle_gamma 90.000000
_cell_volume 1833.410365
_symmetry_space_group_name_H-M "P N M A"
_symmetry_group_IT_number 62
_symmetry_cell_setting 'orthorhombic'
loop_
_space_group_symop_operation_xyz
x,y,z
1/2-x,-y,1/2+z
1/2+x,1/2-y,1/2-z
-x,1/2+y,-z
-x,-y,-z
1/2+x,y,1/2-z
1/2-x,1/2+y,1/2+z
x,1/2-y,z
loop_
_atom_site_type_symbol
_atom_site_label
_atom_site_fract_x
_atom_site_fract_y
_atom_site_fract_z
Si Si1 0.427403 0.970086 0.825057
Si Si2 0.398017 0.250000 0.512078
Si Si3 0.752060 0.573965 0.957902
Si Si4 0.789199 0.158330 0.846673
Si Si5 0.193266 0.940262 0.151215
Si Si6 0.037061 0.250000 0.319393
Si Si7 0.414049 0.337033 0.014923
O O1 0.407162 0.936197 0.665760
O O2 0.409554 0.016998 0.723760
O O3 0.295425 0.954710 0.977326
O O4 0.388563 0.036533 0.090746
O O5 0.391564 0.297820 0.599203
O O6 0.555238 0.250000 0.384197
O O7 0.215261 0.250000 0.415194
O O8 0.787875 0.570540 0.162548
O O9 0.657169 0.618664 0.901179
O O10 0.872186 0.110181 0.881485
O O11 0.782826 0.167395 0.642451
O O12 0.602459 0.155715 0.932813
O O13 0.935041 0.205917 0.370131
#
# Coordination Sequence:
#
# PCOD9466805 Si02
#       7
#     8   4   8   8   8   4   8
#     4  12  25  44  69  96 141 177 233 286 339 404
#     4  10  23  42  64  98 134 168 215 278 332 408
#     4  11  26  44  66 100 137 181 230 280 345 407
#     4  10  22  42  67  92 130 174 217 272 338 396
#     4  11  24  43  69  98 136 184 227 284 339 410
#     4  10  23  38  66  98 132 166 215 276 338 400
#     4  10  22  43  65  95 130 171 225 276 334 409
#
# _framework density 26.180719
#
# number of rings (size 3 to 8) (size 9 to 14) (size 15 to 20)
#    0.000    1.333    3.333    1.000    2.333    3.333 
#    3.000    0.000    0.000    0.000    0.000    0.000 
#    0.000    0.000    0.000    0.000    0.000    0.000 
#
# Total GULP energy -268126.341277 kJ/mol
# GULP energy per Si atom -5585.965443 kJ/mol
# Density = 2.612113 g / cm^3
# Si number density = 26.180719 Si / 1000 Ang^3
#
#
#
# Elastic Constant Matrix: (Units=GPa)
#
#
# Indices 1 2 3 4 5 6 
#
# 1 73.6300 47.2317 4.9809 0.0000 0.0000 0.0000
# 2 47.2317 189.3228 57.1733 0.0000 0.0000 0.0000
# 3 4.9809 57.1733 78.8111 0.0000 0.0000 0.0000
# 4 0.0000 0.0000 0.0000 47.1632 0.0000 0.0000
# 5 0.0000 0.0000 0.0000 0.0000 37.0995 0.0000
# 6 0.0000 0.0000 0.0000 0.0000 0.0000 32.4360
#
#
#
# Elastic Compliance Matrix: (Units=1/GPa)
#
#
# Indices 1 2 3 4 5 6 
#
# 1 0.016543 -0.004881 0.002495 0.000000 0.000000 0.000000
# 2 -0.004881 0.008204 -0.005643 0.000000 0.000000 0.000000
# 3 0.002495 -0.005643 0.016624 0.000000 0.000000 0.000000
# 4 0.000000 0.000000 0.000000 0.021203 0.000000 0.000000
# 5 0.000000 0.000000 0.000000 0.000000 0.026955 0.000000
# 6 0.000000 0.000000 0.000000 0.000000 0.000000 0.030830
#
#
# Mechanical properties :
#
#
# Convention : Reuss Voigt Hill
#
# Bulk Modulus (GPa) = 39.50264 62.28174 50.89219
# Shear Modulus (GPa) = 34.51744 38.83161 36.67453
#
# Velocity S-wave (km/s) = 3.63496 3.85543 3.74682
# Velocity P-wave (km/s) = 5.72175 6.60757 6.18055
#
# Compressibility (1/GPa) = 0.02531476
#
# Stress axis : x y z
#
# Youngs Moduli (GPa) = 60.44673 121.89625 60.15221
#
# Poissons Ratio (x) = 0.59494 -0.15009
# Poissons Ratio (y) = 0.29502 0.33943
# Poissons Ratio (z) = -0.15082 0.68785
#
# Static dielectric constant tensor:
#      x y z
#    x 2.114150 0.000000 0.000000 
#    y 0.000000 2.166520 0.000000 
#    z 0.000000 0.000000 2.071550 
# 
# From -- ./inp_files/4570.got.cif
#   From: 2010.05.17/outbox.cif.g08.bks.cpg/sg62_3_cif.got.tgz:4570.got - 2010.06.03 15:25:27.
