data_PCOD9466206
_publ_section_title
;
Structure prediction by ZEFSAII (Michael W. Deem and Ramdas Pophale) SiO2 
 PCOD9466206
Probable space group: P N M A
;
_chemical_formula_sum "Si O2"
_cell_formula_units_Z 64
_cell_length_a 14.776766
_cell_length_b 9.212815
_cell_length_c 22.424706
_cell_angle_alpha 90.000000
_cell_angle_beta 90.000000
_cell_angle_gamma 90.000000
_cell_volume 3052.801063
_symmetry_space_group_name_H-M "P N M A"
_symmetry_group_IT_number 62
_symmetry_cell_setting 'orthorhombic'
loop_
_space_group_symop_operation_xyz
x,y,z
1/2-x,-y,1/2+z
1/2+x,1/2-y,1/2-z
-x,1/2+y,-z
-x,-y,-z
1/2+x,y,1/2-z
1/2-x,1/2+y,1/2+z
x,1/2-y,z
loop_
_atom_site_type_symbol
_atom_site_label
_atom_site_fract_x
_atom_site_fract_y
_atom_site_fract_z
Si Si1 0.369909 0.577394 0.735581
Si Si2 0.059075 0.419510 0.590938
Si Si3 0.919191 0.422147 0.203954
Si Si4 0.370686 0.916145 0.539023
Si Si5 0.302585 0.576142 0.994330
Si Si6 0.034767 0.416073 0.909254
Si Si7 0.298785 0.920667 0.196985
Si Si8 0.876965 0.575411 0.628737
O O1 0.353648 0.750000 0.730376
O O2 0.475775 0.552800 0.722477
O O3 0.299849 0.492387 0.694389
O O4 0.351934 0.530884 0.804303
O O5 0.032001 0.250000 0.591275
O O6 0.102144 0.454547 0.526854
O O7 0.141401 0.436856 0.637634
O O8 0.975193 0.514052 0.611949
O O9 0.902361 0.250000 0.202703
O O10 0.910191 0.492098 0.138943
O O11 0.854206 0.498563 0.251038
O O12 0.362863 0.750000 0.559978
O O13 0.416418 0.914908 0.473254
O O14 0.275441 0.992500 0.528836
O O15 0.438673 0.006171 0.580272
O O16 0.286833 0.750000 0.998356
O O17 0.310431 0.532857 0.925096
O O18 0.023639 0.250000 0.889163
O O19 0.290719 0.750000 0.209701
O O20 0.881549 0.750000 0.628782
#
# Coordination Sequence:
#
# PCOD9466206 Si02
#       8
#     8   8   8   8   8   8   8   8
#     4  10  23  41  61  90 122 159 205 254 304 362
#     4  10  22  40  60  87 120 155 197 245 303 360
#     4  11  23  41  65  92 124 161 206 254 307 366
#     4  10  22  40  60  89 120 156 200 245 297 356
#     4  10  22  38  60  89 120 155 197 248 303 358
#     4  10  22  40  62  87 122 158 198 246 300 358
#     4  11  24  40  61  90 124 164 205 251 308 366
#     4  10  21  40  63  87 117 156 200 247 305 359
#
# _framework density 20.964354
#
# number of rings (size 3 to 8) (size 9 to 14) (size 15 to 20)
#    0.000    1.750    1.250    1.875    3.500    4.500 
#    0.000    0.000    0.000    0.000    0.000    0.000 
#    0.000    0.000    0.000    0.000    0.000    0.000 
#
# Total GULP energy -357918.891334 kJ/mol
# GULP energy per Si atom -5592.482677 kJ/mol
# Density = 2.091664 g / cm^3
# Si number density = 20.964354 Si / 1000 Ang^3
#
#
#
# Elastic Constant Matrix: (Units=GPa)
#
#
# Indices 1 2 3 4 5 6 
#
# 1 68.7666 32.8940 -7.5163 0.0000 0.0000 0.0000
# 2 32.8940 56.5209 11.8665 0.0000 0.0000 0.0000
# 3 -7.5163 11.8665 55.1456 0.0000 0.0000 0.0000
# 4 0.0000 0.0000 0.0000 19.2022 0.0000 0.0000
# 5 0.0000 0.0000 0.0000 0.0000 17.4000 0.0000
# 6 0.0000 0.0000 0.0000 0.0000 0.0000 34.5764
#
#
#
# Elastic Compliance Matrix: (Units=1/GPa)
#
#
# Indices 1 2 3 4 5 6 
#
# 1 0.021895 -0.014002 0.005997 0.000000 0.000000 0.000000
# 2 -0.014002 0.027483 -0.007822 0.000000 0.000000 0.000000
# 3 0.005997 -0.007822 0.020634 0.000000 0.000000 0.000000
# 4 0.000000 0.000000 0.000000 0.052077 0.000000 0.000000
# 5 0.000000 0.000000 0.000000 0.000000 0.057471 0.000000
# 6 0.000000 0.000000 0.000000 0.000000 0.000000 0.028921
#
#
# Mechanical properties :
#
#
# Convention : Reuss Voigt Hill
#
# Bulk Modulus (GPa) = 26.06921 28.32461 27.19691
# Shear Modulus (GPa) = 19.76885 23.78164 21.77524
#
# Velocity S-wave (km/s) = 3.07412 3.37172 3.22635
# Velocity P-wave (km/s) = 5.00623 5.35706 5.18461
#
# Compressibility (1/GPa) = 0.03835943
#
# Stress axis : x y z
#
# Youngs Moduli (GPa) = 45.67252 36.38548 48.46253
#
# Poissons Ratio (x) = 0.50945 -0.29064
# Poissons Ratio (y) = 0.63949 0.37909
# Poissons Ratio (z) = -0.27391 0.28462
#
# Static dielectric constant tensor:
#      x y z
#    x 1.723990 0.000000 0.000000 
#    y 0.000000 1.701780 0.000000 
#    z 0.000000 0.000000 1.774050 
# 
# From -- ./inp_files/29905.got.cif
#   From: 2010.05.17/outbox.cif.g08.bks.cpg/sg62_15_cif.got.tgz:29905.got - 2010.06.03 15:25:27.
