data_PCOD9466107
_publ_section_title
;
Structure prediction by ZEFSAII (Michael W. Deem and Ramdas Pophale) SiO2 
 PCOD9466107
Probable space group: P N M A
;
_chemical_formula_sum "Si O2"
_cell_formula_units_Z 40
_cell_length_a 16.934989
_cell_length_b 12.958619
_cell_length_c 8.924135
_cell_angle_alpha 90.000000
_cell_angle_beta 90.000000
_cell_angle_gamma 90.000000
_cell_volume 1958.437749
_symmetry_space_group_name_H-M "P N M A"
_symmetry_group_IT_number 62
_symmetry_cell_setting 'orthorhombic'
loop_
_space_group_symop_operation_xyz
x,y,z
1/2-x,-y,1/2+z
1/2+x,1/2-y,1/2-z
-x,1/2+y,-z
-x,-y,-z
1/2+x,y,1/2-z
1/2-x,1/2+y,1/2+z
x,1/2-y,z
loop_
_atom_site_type_symbol
_atom_site_label
_atom_site_fract_x
_atom_site_fract_y
_atom_site_fract_z
Si Si1 0.284236 0.960832 0.741028
Si Si2 0.468413 0.549612 0.348869
Si Si3 0.126122 0.636300 0.701606
Si Si4 0.695103 0.368962 0.585336
Si Si5 0.924345 0.041489 0.592620
O O1 0.244965 0.071085 0.786274
O O2 0.213407 0.880320 0.768270
O O3 0.301780 0.938804 0.566386
O O4 0.362688 0.956737 0.842800
O O5 0.500000 0.500000 0.500000
O O6 0.428129 0.451020 0.270374
O O7 0.397071 0.628286 0.370299
O O8 0.537714 0.590639 0.241459
O O9 0.096503 0.750000 0.731401
O O10 0.123322 0.613188 0.523039
O O11 0.719183 0.250000 0.560105
O O12 0.000000 0.000000 0.500000
#
# Coordination Sequence:
#
# PCOD9466107 Si02
#       5
#     8   8   8   8   8
#     4  11  21  40  67  91 131 165 217 275 316 382
#     4  10  21  40  64  93 132 166 213 275 323 383
#     4  10  22  40  64  92 126 172 215 262 328 389
#     4  11  24  42  67  96 130 175 220 269 330 391
#     4  10  21  39  63  88 128 173 204 265 327 377
#
# _framework density 20.424441999999999
#
# number of rings (size 3 to 8) (size 9 to 14) (size 15 to 20)
#    0.000    1.600    4.000    0.600    0.000    1.600 
#    0.000    6.000    0.000    0.000    0.000    0.000 
#    0.000    0.000    0.000    0.000    0.000    0.000 
#
# Total GULP energy -222745.255410 kJ/mol
# GULP energy per Si atom -5568.631385 kJ/mol
# Density = 2.037796 g / cm^3
# Si number density = 20.424442 Si / 1000 Ang^3
#
#
#
# Elastic Constant Matrix: (Units=GPa)
#
#
# Indices 1 2 3 4 5 6 
#
# 1 103.3166 22.5468 41.1534 0.0000 0.0000 0.0000
# 2 22.5468 100.7538 40.3730 0.0000 0.0000 0.0000
# 3 41.1534 40.3730 102.0605 0.0000 0.0000 0.0000
# 4 0.0000 0.0000 0.0000 11.7525 0.0000 0.0000
# 5 0.0000 0.0000 0.0000 0.0000 46.4881 0.0000
# 6 0.0000 0.0000 0.0000 0.0000 0.0000 5.9009
#
#
#
# Elastic Compliance Matrix: (Units=1/GPa)
#
#
# Indices 1 2 3 4 5 6 
#
# 1 0.011593 -0.000857 -0.004336 0.000000 0.000000 0.000000
# 2 -0.000857 0.011858 -0.004345 0.000000 0.000000 0.000000
# 3 -0.004336 -0.004345 0.013265 0.000000 0.000000 0.000000
# 4 0.000000 0.000000 0.000000 0.085088 0.000000 0.000000
# 5 0.000000 0.000000 0.000000 0.000000 0.021511 0.000000
# 6 0.000000 0.000000 0.000000 0.000000 0.000000 0.169466
#
#
# Mechanical properties :
#
#
# Convention : Reuss Voigt Hill
#
# Bulk Modulus (GPa) = 56.68719 57.14193 56.91456
# Shear Modulus (GPa) = 14.80442 26.29881 20.55162
#
# Velocity S-wave (km/s) = 2.69520 3.59223 3.17555
# Velocity P-wave (km/s) = 6.12375 6.72632 6.43210
#
# Compressibility (1/GPa) = 0.01764067
#
# Stress axis : x y z
#
# Youngs Moduli (GPa) = 86.25921 84.33009 75.38508
#
# Poissons Ratio (x) = 0.07227 0.32684
# Poissons Ratio (y) = 0.07392 0.32757
# Poissons Ratio (z) = 0.37398 0.36644
#
# Static dielectric constant tensor:
#      x y z
#    x 1.829860 0.000000 0.000000 
#    y 0.000000 1.685680 0.000000 
#    z 0.000000 0.000000 2.778050 
# 
# From -- ./inp_files/7301.got.cif
#   From: 2010.05.17/outbox.cif.g08.bks.cpg/sg62_4_cif.got.tgz:7301.got - 2010.06.03 15:25:27.
