data_PCOD9466838
_publ_section_title
;
Structure prediction by ZEFSAII (Michael W. Deem and Ramdas Pophale) SiO2 
 PCOD9466838
Probable space group: P N M A
;
_chemical_formula_sum "Si O2"
_cell_formula_units_Z 40
_cell_length_a 9.931881
_cell_length_b 7.750623
_cell_length_c 24.218913
_cell_angle_alpha 90.000000
_cell_angle_beta 90.000000
_cell_angle_gamma 90.000000
_cell_volume 1864.329910
_symmetry_space_group_name_H-M "P N M A"
_symmetry_group_IT_number 62
_symmetry_cell_setting 'orthorhombic'
loop_
_space_group_symop_operation_xyz
x,y,z
1/2-x,-y,1/2+z
1/2+x,1/2-y,1/2-z
-x,1/2+y,-z
-x,-y,-z
1/2+x,y,1/2-z
1/2-x,1/2+y,1/2+z
x,1/2-y,z
loop_
_atom_site_type_symbol
_atom_site_label
_atom_site_fract_x
_atom_site_fract_y
_atom_site_fract_z
Si Si1 0.067955 0.250000 0.684819
Si Si2 0.013749 0.052822 0.580818
Si Si3 0.955815 0.942028 0.855144
Si Si4 0.859374 0.250000 0.777389
Si Si5 0.214431 0.453941 0.914149
Si Si6 0.209738 0.959187 0.036326
O O1 0.069925 0.088188 0.642673
O O2 0.197988 0.250000 0.723113
O O3 0.931001 0.250000 0.718622
O O4 0.992136 0.250000 0.559472
O O5 0.866566 0.972730 0.584953
O O6 0.135668 0.978043 0.545626
O O7 0.928060 0.750000 0.835061
O O8 0.876989 0.974679 0.912585
O O9 0.112381 0.962693 0.871261
O O10 0.909358 0.084861 0.811922
O O11 0.219007 0.250000 0.901754
O O12 0.162084 0.479969 0.976603
O O13 0.790908 0.250000 0.961554
#
# Coordination Sequence:
#
# PCOD9466838 Si02
#       6
#     4   8   8   4   8   8
#     4  10  22  42  76  96 120 178 216 268 339 386
#     4   8  18  37  59  90 127 165 215 262 321 388
#     4  12  24  42  63  95 134 170 215 274 320 385
#     4  12  24  46  76  94 128 170 216 278 335 374
#     4  11  21  34  60  94 131 176 216 257 314 391
#     4  11  19  38  60  89 131 178 216 260 325 385
#
# _framework density 21.455431999999998
#
# number of rings (size 3 to 8) (size 9 to 14) (size 15 to 20)
#    0.600    0.800    4.000    2.400    2.800    0.000 
#    0.000    4.000    0.000    0.000    0.000    0.000 
#    0.000    0.000    0.000    0.000    0.000    0.000 
#
# Total GULP energy -223451.905727 kJ/mol
# GULP energy per Si atom -5586.297643 kJ/mol
# Density = 2.140660 g / cm^3
# Si number density = 21.455432 Si / 1000 Ang^3
#
#
#
# Elastic Constant Matrix: (Units=GPa)
#
#
# Indices 1 2 3 4 5 6 
#
# 1 84.9259 1.8812 -7.8106 0.0000 0.0000 0.0000
# 2 1.8812 98.7916 1.9626 0.0000 0.0000 0.0000
# 3 -7.8106 1.9626 39.5190 0.0000 0.0000 0.0000
# 4 0.0000 0.0000 0.0000 9.3417 0.0000 0.0000
# 5 0.0000 0.0000 0.0000 0.0000 39.7428 0.0000
# 6 0.0000 0.0000 0.0000 0.0000 0.0000 4.3329
#
#
#
# Elastic Compliance Matrix: (Units=1/GPa)
#
#
# Indices 1 2 3 4 5 6 
#
# 1 0.012000 -0.000276 0.002385 0.000000 0.000000 0.000000
# 2 -0.000276 0.010139 -0.000558 0.000000 0.000000 0.000000
# 3 0.002385 -0.000558 0.025803 0.000000 0.000000 0.000000
# 4 0.000000 0.000000 0.000000 0.107047 0.000000 0.000000
# 5 0.000000 0.000000 0.000000 0.000000 0.025162 0.000000
# 6 0.000000 0.000000 0.000000 0.000000 0.000000 0.230795
#
#
# Mechanical properties :
#
#
# Convention : Reuss Voigt Hill
#
# Bulk Modulus (GPa) = 19.59029 23.92254 21.75642
# Shear Modulus (GPa) = 11.76864 25.83037 18.79950
#
# Velocity S-wave (km/s) = 2.34458 3.47350 2.96330
# Velocity P-wave (km/s) = 4.05955 5.22121 4.67659
#
# Compressibility (1/GPa) = 0.05104570
#
# Stress axis : x y z
#
# Youngs Moduli (GPa) = 83.33006 98.63237 38.75451
#
# Poissons Ratio (x) = 0.02721 -0.09245
# Poissons Ratio (y) = 0.02299 0.02163
# Poissons Ratio (z) = -0.19878 0.05504
#
# Static dielectric constant tensor:
#      x y z
#    x 1.835760 0.000000 0.000000 
#    y 0.000000 1.752520 0.000000 
#    z 0.000000 0.000000 1.738040 
# 
# From -- ./inp_files/30685.got.cif
#   From: 2010.05.17/outbox.cif.g08.bks.cpg/sg62_16_cif.got.tgz:30685.got - 2010.06.03 15:25:27.
