data_PCOD9466217
_publ_section_title
;
Structure prediction by ZEFSAII (Michael W. Deem and Ramdas Pophale) SiO2 
 PCOD9466217
Probable space group: P N M A
;
_chemical_formula_sum "Si O2"
_cell_formula_units_Z 60
_cell_length_a 18.925999
_cell_length_b 9.594988
_cell_length_c 17.159857
_cell_angle_alpha 90.000000
_cell_angle_beta 90.000000
_cell_angle_gamma 90.000000
_cell_volume 3116.139655
_symmetry_space_group_name_H-M "P N M A"
_symmetry_group_IT_number 62
_symmetry_cell_setting 'orthorhombic'
loop_
_space_group_symop_operation_xyz
x,y,z
1/2-x,-y,1/2+z
1/2+x,1/2-y,1/2-z
-x,1/2+y,-z
-x,-y,-z
1/2+x,y,1/2-z
1/2-x,1/2+y,1/2+z
x,1/2-y,z
loop_
_atom_site_type_symbol
_atom_site_label
_atom_site_fract_x
_atom_site_fract_y
_atom_site_fract_z
Si Si1 0.475310 0.750000 0.508445
Si Si2 0.418621 0.471168 0.435425
Si Si3 0.566441 0.082168 0.161382
Si Si4 0.664545 0.913603 0.723309
Si Si5 0.183711 0.087980 0.214733
Si Si6 0.299174 0.087807 0.558985
Si Si7 0.078430 0.415271 0.651557
Si Si8 0.844889 0.915281 0.512818
O O1 0.441733 0.627387 0.452669
O O2 0.513390 0.871663 0.562926
O O3 0.372293 0.451364 0.357900
O O4 0.369306 0.421949 0.507428
O O5 0.553516 0.250000 0.154207
O O6 0.612240 0.058854 0.238780
O O7 0.494769 0.996263 0.161558
O O8 0.614301 0.032607 0.088456
O O9 0.649584 0.750000 0.739785
O O10 0.749380 0.929206 0.727352
O O11 0.633064 0.012257 0.789870
O O12 0.182810 0.250000 0.190236
O O13 0.192829 0.995348 0.138660
O O14 0.284812 0.250000 0.577063
O O15 0.232895 0.030555 0.508900
O O16 0.071943 0.250000 0.666468
O O17 0.107320 0.433070 0.563778
O O18 0.835450 0.750000 0.527369
#
# Coordination Sequence:
#
# PCOD9466217 Si02
#       8
#     4   8   8   8   8   8   8   8
#     4  10  24  42  60  92 128 154 216 264 312 368
#     4  11  23  43  66  93 122 173 211 261 313 380
#     4  10  21  40  63  90 119 161 205 251 308 370
#     4  11  22  42  66  89 124 166 212 255 314 379
#     4  10  23  40  62  93 125 158 210 263 307 371
#     4  11  21  40  66  90 123 166 206 257 313 368
#     4  11  23  39  60  93 129 162 203 252 314 368
#     4   9  19  38  65  89 119 158 206 256 305 368
#
# _framework density 19.254591000000001
#
# number of rings (size 3 to 8) (size 9 to 14) (size 15 to 20)
#    0.000    1.600    2.667    1.600    1.867    4.800 
#    2.400    1.333    2.933    0.000    0.000    0.000 
#    0.000    0.000    0.000    0.000    0.000    0.000 
#
# Total GULP energy -334042.710730 kJ/mol
# GULP energy per Si atom -5567.378512 kJ/mol
# Density = 1.921077 g / cm^3
# Si number density = 19.254591 Si / 1000 Ang^3
#
#
#
# Elastic Constant Matrix: (Units=GPa)
#
#
# Indices 1 2 3 4 5 6 
#
# 1 25.9458 11.2472 -8.0581 0.0000 0.0000 0.0000
# 2 11.2472 69.7180 2.7518 0.0000 0.0000 0.0000
# 3 -8.0581 2.7518 24.9091 0.0000 0.0000 0.0000
# 4 0.0000 0.0000 0.0000 24.3403 0.0000 0.0000
# 5 0.0000 0.0000 0.0000 0.0000 -2.1160 0.0000
# 6 0.0000 0.0000 0.0000 0.0000 0.0000 22.6371
#
#
#
# Elastic Compliance Matrix: (Units=1/GPa)
#
#
# Indices 1 2 3 4 5 6 
#
# 1 0.047133 -0.008241 0.016158 0.000000 0.000000 0.000000
# 2 -0.008241 0.015847 -0.004417 0.000000 0.000000 0.000000
# 3 0.016158 -0.004417 0.045861 0.000000 0.000000 0.000000
# 4 0.000000 0.000000 0.000000 0.041084 0.000000 0.000000
# 5 0.000000 0.000000 0.000000 0.000000 -0.472587 0.000000
# 6 0.000000 0.000000 0.000000 0.000000 0.000000 0.044175
#
#
# Mechanical properties :
#
#
# Convention : Reuss Voigt Hill
#
# Bulk Modulus (GPa) = 8.63259 14.71721 11.67490
# Shear Modulus (GPa) = -20.25333 16.61440 -1.81947
#
# Velocity S-wave (km/s) = -3.24677 2.94067 -0.97314
# Velocity P-wave (km/s) = 3.09229 4.38065 2.19407
#
# Compressibility (1/GPa) = 0.11584003
#
# Stress axis : x y z
#
# Youngs Moduli (GPa) = 21.21675 63.10194 21.80505
#
# Poissons Ratio (x) = 0.52005 -0.35232
# Poissons Ratio (y) = 0.17486 0.09631
# Poissons Ratio (z) = -0.34282 0.27871
#
# Static dielectric constant tensor:
#      x y z
#    x 1.712000 0.000000 0.000000 
#    y 0.000000 1.648310 0.000000 
#    z 0.000000 0.000000 1.655620 
# 
# From -- ./inp_files/24360.got.cif
#   From: 2010.05.17/outbox.cif.g08.bks.cpg/sg62_13_cif.got.tgz:24360.got - 2010.06.03 15:25:27.
