data_PCOD9466240
_publ_section_title
;
Structure prediction by ZEFSAII (Michael W. Deem and Ramdas Pophale) SiO2 
 PCOD9466240
Probable space group: P N M A
;
_chemical_formula_sum "Si O2"
_cell_formula_units_Z 48
_cell_length_a 19.032242
_cell_length_b 8.562742
_cell_length_c 15.309168
_cell_angle_alpha 90.000000
_cell_angle_beta 90.000000
_cell_angle_gamma 90.000000
_cell_volume 2494.907215
_symmetry_space_group_name_H-M "P N M A"
_symmetry_group_IT_number 62
_symmetry_cell_setting 'orthorhombic'
loop_
_space_group_symop_operation_xyz
x,y,z
1/2-x,-y,1/2+z
1/2+x,1/2-y,1/2-z
-x,1/2+y,-z
-x,-y,-z
1/2+x,y,1/2-z
1/2-x,1/2+y,1/2+z
x,1/2-y,z
loop_
_atom_site_type_symbol
_atom_site_label
_atom_site_fract_x
_atom_site_fract_y
_atom_site_fract_z
Si Si1 0.981817 0.935383 0.404368
Si Si2 0.718441 0.560741 0.500784
Si Si3 0.438040 0.436924 0.561036
Si Si4 0.740089 0.060216 0.195984
Si Si5 0.917096 0.562471 0.746436
Si Si6 0.829052 0.437057 0.360758
O O1 0.989644 0.750000 0.404698
O O2 0.902358 0.982306 0.381678
O O3 0.000000 0.000000 0.500000
O O4 0.032903 0.007031 0.331397
O O5 0.724614 0.750000 0.494933
O O6 0.638389 0.518305 0.477614
O O7 0.739705 0.511766 0.598527
O O8 0.771393 0.483893 0.432470
O O9 0.500000 0.500000 0.500000
O O10 0.441674 0.250000 0.562716
O O11 0.441623 0.499607 0.659828
O O12 0.738698 0.250000 0.196149
O O13 0.662614 0.008165 0.225777
O O14 0.797498 0.012876 0.267365
O O15 0.917184 0.750000 0.749498
O O16 0.838676 0.250000 0.360615
#
# Coordination Sequence:
#
# PCOD9466240 Si02
#       6
#     8   8   8   8   8   8
#     4  12  26  44  65  96 130 169 215 264 320 383
#     4  10  21  40  64  91 125 167 213 265 318 377
#     4  11  24  40  62  92 129 173 221 271 325 384
#     4   9  20  38  63  91 121 161 208 256 315 376
#     4  11  22  42  68  94 130 173 213 264 324 384
#     4  11  22  40  65  95 126 165 211 261 319 381
#
# _framework density 19.239193
#
# number of rings (size 3 to 8) (size 9 to 14) (size 15 to 20)
#    0.000    1.333    1.667    4.000    2.333    2.000 
#    0.000    2.500    0.000    0.000    0.000    0.000 
#    0.000    0.000    0.000    0.000    0.000    0.000 
#
# Total GULP energy -268439.031064 kJ/mol
# GULP energy per Si atom -5592.479814 kJ/mol
# Density = 1.919540 g / cm^3
# Si number density = 19.239193 Si / 1000 Ang^3
#
#
#
# Elastic Constant Matrix: (Units=GPa)
#
#
# Indices 1 2 3 4 5 6 
#
# 1 97.2707 23.1315 35.0017 0.0000 0.0000 0.0000
# 2 23.1315 51.5425 25.8996 0.0000 0.0000 0.0000
# 3 35.0017 25.8996 145.8473 0.0000 0.0000 0.0000
# 4 0.0000 0.0000 0.0000 32.3074 0.0000 0.0000
# 5 0.0000 0.0000 0.0000 0.0000 41.2156 0.0000
# 6 0.0000 0.0000 0.0000 0.0000 0.0000 30.6866
#
#
#
# Elastic Compliance Matrix: (Units=1/GPa)
#
#
# Indices 1 2 3 4 5 6 
#
# 1 0.012081 -0.004353 -0.002126 0.000000 0.000000 0.000000
# 2 -0.004353 0.022871 -0.003017 0.000000 0.000000 0.000000
# 3 -0.002126 -0.003017 0.007902 0.000000 0.000000 0.000000
# 4 0.000000 0.000000 0.000000 0.030953 0.000000 0.000000
# 5 0.000000 0.000000 0.000000 0.000000 0.024263 0.000000
# 6 0.000000 0.000000 0.000000 0.000000 0.000000 0.032588
#
#
# Mechanical properties :
#
#
# Convention : Reuss Voigt Hill
#
# Bulk Modulus (GPa) = 41.90776 51.41403 46.66089
# Shear Modulus (GPa) = 31.72511 34.88374 33.30443
#
# Velocity S-wave (km/s) = 4.06517 4.26274 4.16513
# Velocity P-wave (km/s) = 6.62299 7.14210 6.88743
#
# Compressibility (1/GPa) = 0.02386193
#
# Stress axis : x y z
#
# Youngs Moduli (GPa) = 82.77510 43.72336 126.54289
#
# Poissons Ratio (x) = 0.19034 0.26906
# Poissons Ratio (y) = 0.36035 0.38174
# Poissons Ratio (z) = 0.17600 0.13190
#
# Static dielectric constant tensor:
#      x y z
#    x 1.640590 0.000000 0.000000 
#    y 0.000000 1.657160 0.000000 
#    z 0.000000 0.000000 1.628050 
# 
# From -- ./inp_files/19617.got.cif
#   From: 2010.05.17/outbox.cif.g08.bks.cpg/sg62_10_cif.got.tgz:19617.got - 2010.06.03 15:25:27.
