data_PCOD9466784
_publ_section_title
;
Structure prediction by ZEFSAII (Michael W. Deem and Ramdas Pophale) SiO2 
 PCOD9466784
Probable space group: P N M A
;
_chemical_formula_sum "Si O2"
_cell_formula_units_Z 48
_cell_length_a 14.790929
_cell_length_b 29.765237
_cell_length_c 4.905640
_cell_angle_alpha 90.000000
_cell_angle_beta 90.000000
_cell_angle_gamma 90.000000
_cell_volume 2159.735026
_symmetry_space_group_name_H-M "P N M A"
_symmetry_group_IT_number 62
_symmetry_cell_setting 'orthorhombic'
loop_
_space_group_symop_operation_xyz
x,y,z
1/2-x,-y,1/2+z
1/2+x,1/2-y,1/2-z
-x,1/2+y,-z
-x,-y,-z
1/2+x,y,1/2-z
1/2-x,1/2+y,1/2+z
x,1/2-y,z
loop_
_atom_site_type_symbol
_atom_site_label
_atom_site_fract_x
_atom_site_fract_y
_atom_site_fract_z
Si Si1 0.909950 0.099763 0.419980
Si Si2 0.380068 0.598912 0.966809
Si Si3 0.663637 0.750000 0.650875
Si Si4 0.078592 0.839432 0.098373
Si Si5 0.745947 0.529966 0.821570
Si Si6 0.232266 0.250000 0.842117
Si Si7 0.629006 0.158880 0.550508
O O1 0.882113 0.140276 0.623491
O O2 0.838203 0.059991 0.421100
O O3 0.013554 0.086386 0.493764
O O4 0.911995 0.120541 0.119055
O O5 0.320611 0.560245 0.831340
O O6 0.374138 0.640364 0.754852
O O7 0.341944 0.618093 0.250622
O O8 0.618286 0.705016 0.536375
O O9 0.757482 0.750000 0.483529
O O10 0.676269 0.750000 0.974312
O O11 0.972931 0.830636 0.144255
O O12 0.715515 0.495177 0.586475
O O13 0.184667 0.296043 0.922976
#
# Coordination Sequence:
#
# PCOD9466784 Si02
#       7
#     8   8   4   8   8   4   8
#     4  10  23  42  67  92 125 170 213 260 320 383
#     4  10  23  42  67  92 125 170 213 260 320 383
#     4  12  25  36  59 100 130 167 211 260 307 360
#     4  10  22  42  63  89 127 174 213 256 308 370
#     4  12  26  42  66  97 126 163 206 274 338 392
#     4  12  25  36  59 100 130 167 211 260 307 360
#     4  10  22  42  63  89 127 174 213 256 308 370
#
# _framework density 22.224948999999999
#
# number of rings (size 3 to 8) (size 9 to 14) (size 15 to 20)
#    0.000    1.333    0.000    4.500    7.000    1.333 
#    0.000    6.667    0.000    0.000    0.000    0.000 
#    0.000    0.000    0.000    0.000    0.000    0.000 
#
# Total GULP energy -268488.008365 kJ/mol
# GULP energy per Si atom -5593.500174 kJ/mol
# Density = 2.217436 g / cm^3
# Si number density = 22.224949 Si / 1000 Ang^3
#
#
#
# Elastic Constant Matrix: (Units=GPa)
#
#
# Indices 1 2 3 4 5 6 
#
# 1 63.3047 39.0565 0.7848 0.0000 0.0000 0.0000
# 2 39.0565 81.9904 -0.5116 0.0000 0.0000 0.0000
# 3 0.7848 -0.5116 88.5740 0.0000 0.0000 0.0000
# 4 0.0000 0.0000 0.0000 19.8437 0.0000 0.0000
# 5 0.0000 0.0000 0.0000 0.0000 22.2664 0.0000
# 6 0.0000 0.0000 0.0000 0.0000 0.0000 -247.1607
#
#
#
# Elastic Compliance Matrix: (Units=1/GPa)
#
#
# Indices 1 2 3 4 5 6 
#
# 1 0.022377 -0.010661 -0.000260 0.000000 0.000000 0.000000
# 2 -0.010661 0.017276 0.000194 0.000000 0.000000 0.000000
# 3 -0.000260 0.000194 0.011293 0.000000 0.000000 0.000000
# 4 0.000000 0.000000 0.000000 0.050394 0.000000 0.000000
# 5 0.000000 0.000000 0.000000 0.000000 0.044911 0.000000
# 6 0.000000 0.000000 0.000000 0.000000 0.000000 -0.004046
#
#
# Mechanical properties :
#
#
# Convention : Reuss Voigt Hill
#
# Bulk Modulus (GPa) = 33.90580 34.72540 34.31560
# Shear Modulus (GPa) = 28.82004 -28.04082 0.38961
#
# Velocity S-wave (km/s) = 3.60494 -3.55587 0.41915
# Velocity P-wave (km/s) = 5.71107 1.09568 3.96332
#
# Compressibility (1/GPa) = 0.02949348
#
# Stress axis : x y z
#
# Youngs Moduli (GPa) = 44.68801 57.88289 88.54718
#
# Poissons Ratio (x) = 0.61710 0.02301
# Poissons Ratio (y) = 0.47643 -0.01720
# Poissons Ratio (z) = 0.01161 -0.01124
#
# Static dielectric constant tensor:
#      x y z
#    x 1.847820 0.000000 0.000000 
#    y 0.000000 1.831470 0.000000 
#    z 0.000000 0.000000 1.789490 
# 
# From -- ./inp_files/1186.got.cif
#   From: 2010.05.17/outbox.cif.g08.bks.cpg/sg62_1_cif.got.tgz:1186.got - 2010.06.03 15:25:27.
