data_PCOD9466670
_publ_section_title
;
Structure prediction by ZEFSAII (Michael W. Deem and Ramdas Pophale) SiO2 
 PCOD9466670
Probable space group: P N M A
;
_chemical_formula_sum "Si O2"
_cell_formula_units_Z 32
_cell_length_a 12.670132
_cell_length_b 9.710349
_cell_length_c 11.912154
_cell_angle_alpha 90.000000
_cell_angle_beta 90.000000
_cell_angle_gamma 90.000000
_cell_volume 1465.569026
_symmetry_space_group_name_H-M "P N M A"
_symmetry_group_IT_number 62
_symmetry_cell_setting 'orthorhombic'
loop_
_space_group_symop_operation_xyz
x,y,z
1/2-x,-y,1/2+z
1/2+x,1/2-y,1/2-z
-x,1/2+y,-z
-x,-y,-z
1/2+x,y,1/2-z
1/2-x,1/2+y,1/2+z
x,1/2-y,z
loop_
_atom_site_type_symbol
_atom_site_label
_atom_site_fract_x
_atom_site_fract_y
_atom_site_fract_z
Si Si1 0.054152 0.003074 0.676191
Si Si2 0.044021 0.590313 0.101864
Si Si3 0.140281 0.101651 0.449970
Si Si4 0.739244 0.093923 0.411115
O O1 0.076456 0.100812 0.568850
O O2 0.033778 0.076657 0.792520
O O3 0.159130 0.910581 0.670735
O O4 0.947861 0.922053 0.643497
O O5 0.058920 0.750000 0.073263
O O6 0.153862 0.514956 0.131263
O O7 0.000000 0.500000 0.000000
O O8 0.192835 0.250000 0.434773
O O9 0.217655 0.972827 0.471631
O O10 0.700895 0.250000 0.423578
#
# Coordination Sequence:
#
# PCOD9466670 Si02
#       4
#     8   8   8   8
#     4   9  22  39  68  93 124 162 213 262 313 372
#     4  12  27  45  64  90 131 173 211 258 315 379
#     4   9  18  38  68  96 122 157 210 265 312 367
#     4  10  22  40  65  97 128 164 210 260 318 377
#
# _framework density 21.834522
#
# number of rings (size 3 to 8) (size 9 to 14) (size 15 to 20)
#    1.500    0.500    0.000    3.000    0.000    7.000 
#    0.000    0.000    0.000    0.000    0.000    0.000 
#    0.000    0.000    0.000    0.000    0.000    0.000 
#
# Total GULP energy -178277.169987 kJ/mol
# GULP energy per Si atom -5571.161562 kJ/mol
# Density = 2.178483 g / cm^3
# Si number density = 21.834522 Si / 1000 Ang^3
#
#
#
# Elastic Constant Matrix: (Units=GPa)
#
#
# Indices 1 2 3 4 5 6 
#
# 1 65.3632 31.2811 19.7984 0.0000 0.0000 0.0000
# 2 31.2811 194.4484 28.6241 0.0000 0.0000 0.0000
# 3 19.7984 28.6241 78.0095 0.0000 0.0000 0.0000
# 4 0.0000 0.0000 0.0000 9.1613 0.0000 0.0000
# 5 0.0000 0.0000 0.0000 0.0000 13.1812 0.0000
# 6 0.0000 0.0000 0.0000 0.0000 0.0000 25.5228
#
#
#
# Elastic Compliance Matrix: (Units=1/GPa)
#
#
# Indices 1 2 3 4 5 6 
#
# 1 0.017482 -0.002282 -0.003599 0.000000 0.000000 0.000000
# 2 -0.002282 0.005734 -0.001525 0.000000 0.000000 0.000000
# 3 -0.003599 -0.001525 0.014292 0.000000 0.000000 0.000000
# 4 0.000000 0.000000 0.000000 0.109154 0.000000 0.000000
# 5 0.000000 0.000000 0.000000 0.000000 0.075865 0.000000
# 6 0.000000 0.000000 0.000000 0.000000 0.000000 0.039181
#
#
# Mechanical properties :
#
#
# Convention : Reuss Voigt Hill
#
# Bulk Modulus (GPa) = 44.06279 55.24759 49.65519
# Shear Modulus (GPa) = 17.60027 26.78091 22.19059
#
# Velocity S-wave (km/s) = 2.84223 3.50600 3.19142
# Velocity P-wave (km/s) = 5.56733 6.46120 6.03085
#
# Compressibility (1/GPa) = 0.02269488
#
# Stress axis : x y z
#
# Youngs Moduli (GPa) = 57.20276 174.38602 69.96955
#
# Poissons Ratio (x) = 0.39803 0.25184
# Poissons Ratio (y) = 0.13056 0.10669
# Poissons Ratio (z) = 0.20589 0.26591
#
# Static dielectric constant tensor:
#      x y z
#    x 1.878710 0.000000 0.000000 
#    y 0.000000 1.808830 0.000000 
#    z 0.000000 0.000000 1.805400 
# 
# From -- ./inp_files/12753.got.cif
#   From: 2010.05.17/outbox.cif.g08.bks.cpg/sg62_7_cif.got.tgz:12753.got - 2010.06.03 15:25:27.
