data_PCOD9466440
_publ_section_title
;
Structure prediction by ZEFSAII (Michael W. Deem and Ramdas Pophale) SiO2 
 PCOD9466440
Probable space group: P N M A
;
_chemical_formula_sum "Si O2"
_cell_formula_units_Z 48
_cell_length_a 8.592257
_cell_length_b 20.866034
_cell_length_c 14.711725
_cell_angle_alpha 90.000000
_cell_angle_beta 90.000000
_cell_angle_gamma 90.000000
_cell_volume 2637.611135
_symmetry_space_group_name_H-M "P N M A"
_symmetry_group_IT_number 62
_symmetry_cell_setting 'orthorhombic'
loop_
_space_group_symop_operation_xyz
x,y,z
1/2-x,-y,1/2+z
1/2+x,1/2-y,1/2-z
-x,1/2+y,-z
-x,-y,-z
1/2+x,y,1/2-z
1/2-x,1/2+y,1/2+z
x,1/2-y,z
loop_
_atom_site_type_symbol
_atom_site_label
_atom_site_fract_x
_atom_site_fract_y
_atom_site_fract_z
Si Si1 0.952286 0.679550 0.539003
Si Si2 0.346382 0.540327 0.977743
Si Si3 0.685590 0.321250 0.422452
Si Si4 0.743697 0.816961 0.710819
Si Si5 0.329940 0.045245 0.297010
Si Si6 0.642623 0.035028 0.387124
O O1 0.906977 0.750000 0.501709
O O2 0.877900 0.614997 0.499897
O O3 0.890279 0.679292 0.643167
O O4 0.138147 0.675102 0.538746
O O5 0.304790 0.532890 0.871102
O O6 0.500000 0.500000 0.000000
O O7 0.204702 0.512598 0.036397
O O8 0.622439 0.250000 0.452479
O O9 0.703100 0.317170 0.313835
O O10 0.621342 0.394076 0.433325
O O11 0.661015 0.750000 0.691085
O O12 0.640259 0.878529 0.695593
O O13 0.486254 0.014092 0.334882
O O14 0.272231 0.035745 0.194177
#
# Coordination Sequence:
#
# PCOD9466440 Si02
#       6
#     8   8   8   8   8   8
#     4   9  17  31  46  70  98 133 171 205 249 306
#     4  11  20  35  54  75 103 138 171 213 260 304
#     4   9  17  26  43  69 101 135 166 198 240 299
#     4   8  16  26  43  66 100 134 163 195 240 299
#     4  10  22  33  50  75 105 135 177 212 253 308
#     4  11  21  34  50  74 104 138 174 214 255 304
#
# _framework density 18.198286
#
# number of rings (size 3 to 8) (size 9 to 14) (size 15 to 20)
#    0.000    2.333    1.667    1.500   11.667    0.667 
#    0.000    0.000    0.000    0.000    0.000    5.833 
#    0.000    0.000    0.000    0.000    0.000    0.000 
#
# Total GULP energy -267216.322131 kJ/mol
# GULP energy per Si atom -5567.006711 kJ/mol
# Density = 1.815687 g / cm^3
# Si number density = 18.198286 Si / 1000 Ang^3
#
#
#
# Elastic Constant Matrix: (Units=GPa)
#
#
# Indices 1 2 3 4 5 6 
#
# 1 33.1029 7.7448 -5.6141 0.0000 0.0000 0.0000
# 2 7.7448 104.7923 23.6644 0.0000 0.0000 0.0000
# 3 -5.6141 23.6644 36.5299 0.0000 0.0000 0.0000
# 4 0.0000 0.0000 0.0000 23.2604 0.0000 0.0000
# 5 0.0000 0.0000 0.0000 0.0000 25.3269 0.0000
# 6 0.0000 0.0000 0.0000 0.0000 0.0000 17.4264
#
#
#
# Elastic Compliance Matrix: (Units=1/GPa)
#
#
# Indices 1 2 3 4 5 6 
#
# 1 0.032476 -0.004132 0.007668 0.000000 0.000000 0.000000
# 2 -0.004132 0.011704 -0.008217 0.000000 0.000000 0.000000
# 3 0.007668 -0.008217 0.033876 0.000000 0.000000 0.000000
# 4 0.000000 0.000000 0.000000 0.042991 0.000000 0.000000
# 5 0.000000 0.000000 0.000000 0.000000 0.039484 0.000000
# 6 0.000000 0.000000 0.000000 0.000000 0.000000 0.057384
#
#
# Mechanical properties :
#
#
# Convention : Reuss Voigt Hill
#
# Bulk Modulus (GPa) = 14.55729 25.11281 19.83505
# Shear Modulus (GPa) = 19.98607 23.11142 21.54874
#
# Velocity S-wave (km/s) = 3.31756 3.56754 3.44482
# Velocity P-wave (km/s) = 4.76357 5.54971 5.17160
#
# Compressibility (1/GPa) = 0.06869410
#
# Stress axis : x y z
#
# Youngs Moduli (GPa) = 30.79205 85.44418 29.51939
#
# Poissons Ratio (x) = 0.35303 -0.22634
# Poissons Ratio (y) = 0.12722 0.24255
# Poissons Ratio (z) = -0.23610 0.70207
#
# Static dielectric constant tensor:
#      x y z
#    x 1.688330 0.000000 0.000000 
#    y 0.000000 1.705360 0.000000 
#    z 0.000000 0.000000 1.592640 
# 
# From -- ./inp_files/17064.got.cif
#   From: 2010.05.17/outbox.cif.g08.bks.cpg/sg62_9_cif.got.tgz:17064.got - 2010.06.03 15:25:27.
