data_PCOD9466865
_publ_section_title
;
Structure prediction by ZEFSAII (Michael W. Deem and Ramdas Pophale) SiO2 
 PCOD9466865
Probable space group: P N M A
;
_chemical_formula_sum "Si O2"
_cell_formula_units_Z 48
_cell_length_a 18.966396
_cell_length_b 8.615842
_cell_length_c 15.038917
_cell_angle_alpha 90.000000
_cell_angle_beta 90.000000
_cell_angle_gamma 90.000000
_cell_volume 2457.531553
_symmetry_space_group_name_H-M "P N M A"
_symmetry_group_IT_number 62
_symmetry_cell_setting 'orthorhombic'
loop_
_space_group_symop_operation_xyz
x,y,z
1/2-x,-y,1/2+z
1/2+x,1/2-y,1/2-z
-x,1/2+y,-z
-x,-y,-z
1/2+x,y,1/2-z
1/2-x,1/2+y,1/2+z
x,1/2-y,z
loop_
_atom_site_type_symbol
_atom_site_label
_atom_site_fract_x
_atom_site_fract_y
_atom_site_fract_z
Si Si1 0.220127 0.066323 0.492694
Si Si2 0.822459 0.564255 0.157469
Si Si3 0.567973 0.935726 0.050299
Si Si4 0.591804 0.563297 0.255272
Si Si5 0.978164 0.936988 0.095827
Si Si6 0.760061 0.566705 0.818589
O O1 0.224385 0.250000 0.478194
O O2 0.265366 0.981180 0.416895
O O3 0.139570 0.010521 0.486702
O O4 0.250631 0.021540 0.588641
O O5 0.822222 0.750000 0.169767
O O6 0.899584 0.514274 0.124008
O O7 0.799789 0.484677 0.249114
O O8 0.571647 0.750000 0.040099
O O9 0.565731 0.970959 0.155753
O O10 0.500000 0.000000 0.000000
O O11 0.602732 0.750000 0.261015
O O12 0.534505 0.517082 0.329014
O O13 0.665427 0.480515 0.275312
O O14 0.978080 0.750000 0.091622
O O15 0.000000 0.000000 0.000000
O O16 0.757409 0.750000 0.834277
#
# Coordination Sequence:
#
# PCOD9466865 Si02
#       6
#     8   8   8   8   8   8
#     4  12  25  43  67  94 129 171 217 271 327 386
#     4  11  23  42  66  96 131 167 212 267 322 388
#     4  11  24  42  66  95 131 172 218 269 324 392
#     4  10  22  43  67  93 130 173 213 262 324 387
#     4  10  23  41  64  94 127 167 210 258 317 380
#     4  12  25  41  65  97 128 168 217 267 325 389
#
# _framework density 19.531794000000001
#
# number of rings (size 3 to 8) (size 9 to 14) (size 15 to 20)
#    0.000    1.000    1.667    5.000    2.333    5.333 
#    0.000    0.000    0.000    0.000    0.000    0.000 
#    0.000    0.000    0.000    0.000    0.000    0.000 
#
# Total GULP energy -268616.589540 kJ/mol
# GULP energy per Si atom -5596.178949 kJ/mol
# Density = 1.948734 g / cm^3
# Si number density = 19.531794 Si / 1000 Ang^3
#
#
#
# Elastic Constant Matrix: (Units=GPa)
#
#
# Indices 1 2 3 4 5 6 
#
# 1 86.1659 21.8803 -0.8978 0.0000 0.0000 0.0000
# 2 21.8803 41.8877 1.9799 0.0000 0.0000 0.0000
# 3 -0.8978 1.9799 61.7173 0.0000 0.0000 0.0000
# 4 0.0000 0.0000 0.0000 36.0976 0.0000 0.0000
# 5 0.0000 0.0000 0.0000 0.0000 41.2678 0.0000
# 6 0.0000 0.0000 0.0000 0.0000 0.0000 30.1317
#
#
#
# Elastic Compliance Matrix: (Units=1/GPa)
#
#
# Indices 1 2 3 4 5 6 
#
# 1 0.013391 -0.007015 0.000420 0.000000 0.000000 0.000000
# 2 -0.007015 0.027584 -0.000987 0.000000 0.000000 0.000000
# 3 0.000420 -0.000987 0.016241 0.000000 0.000000 0.000000
# 4 0.000000 0.000000 0.000000 0.027703 0.000000 0.000000
# 5 0.000000 0.000000 0.000000 0.000000 0.024232 0.000000
# 6 0.000000 0.000000 0.000000 0.000000 0.000000 0.033188
#
#
# Mechanical properties :
#
#
# Convention : Reuss Voigt Hill
#
# Bulk Modulus (GPa) = 23.77992 26.18840 24.98416
# Shear Modulus (GPa) = 29.15116 32.61998 30.88557
#
# Velocity S-wave (km/s) = 3.86748 4.09112 3.98087
# Velocity P-wave (km/s) = 5.66962 5.97942 5.82658
#
# Compressibility (1/GPa) = 0.04205228
#
# Stress axis : x y z
#
# Youngs Moduli (GPa) = 74.67594 36.25253 61.57373
#
# Poissons Ratio (x) = 0.25431 -0.02585
# Poissons Ratio (y) = 0.52384 0.06077
# Poissons Ratio (z) = -0.03135 0.03578
#
# Static dielectric constant tensor:
#      x y z
#    x 1.659000 0.000000 0.000000 
#    y 0.000000 1.662870 0.000000 
#    z 0.000000 0.000000 1.654580 
# 
# From -- ./inp_files/19633.got.cif
#   From: 2010.05.17/outbox.cif.g08.bks.cpg/sg62_10_cif.got.tgz:19633.got - 2010.06.03 15:25:27.
