data_PCOD9466453
_publ_section_title
;
Structure prediction by ZEFSAII (Michael W. Deem and Ramdas Pophale) SiO2 
 PCOD9466453
Probable space group: P N M A
;
_chemical_formula_sum "Si O2"
_cell_formula_units_Z 48
_cell_length_a 16.510176
_cell_length_b 18.481457
_cell_length_c 8.280495
_cell_angle_alpha 90.000000
_cell_angle_beta 90.000000
_cell_angle_gamma 90.000000
_cell_volume 2526.644893
_symmetry_space_group_name_H-M "P N M A"
_symmetry_group_IT_number 62
_symmetry_cell_setting 'orthorhombic'
loop_
_space_group_symop_operation_xyz
x,y,z
1/2-x,-y,1/2+z
1/2+x,1/2-y,1/2-z
-x,1/2+y,-z
-x,-y,-z
1/2+x,y,1/2-z
1/2-x,1/2+y,1/2+z
x,1/2-y,z
loop_
_atom_site_type_symbol
_atom_site_label
_atom_site_fract_x
_atom_site_fract_y
_atom_site_fract_z
Si Si1 0.840805 0.334881 0.008174
Si Si2 0.732086 0.045319 0.181464
Si Si3 0.494711 0.419366 0.566688
Si Si4 0.670752 0.670347 0.118145
Si Si5 0.074513 0.537402 0.413950
Si Si6 0.179936 0.088577 0.958829
O O1 0.836711 0.250000 0.054069
O O2 0.930187 0.370078 0.028411
O O3 0.828648 0.338918 0.813237
O O4 0.776101 0.386024 0.099480
O O5 0.704276 0.059105 0.364452
O O6 0.648161 0.019405 0.099635
O O7 0.792659 0.976599 0.161479
O O8 0.500000 0.500000 0.500000
O O9 0.460729 0.433079 0.745155
O O10 0.586441 0.392024 0.560298
O O11 0.640926 0.750000 0.081116
O O12 0.618329 0.610199 0.023859
O O13 0.762950 0.656649 0.070344
O O14 0.000000 0.500000 0.500000
#
# Coordination Sequence:
#
# PCOD9466453 Si02
#       6
#     8   8   8   8   8   8
#     4  10  22  41  61  83 119 158 196 243 302 353
#     4  11  21  37  57  88 115 151 195 240 292 350
#     4  11  20  38  59  89 119 152 193 245 294 352
#     4   9  21  40  59  85 117 153 196 245 297 356
#     4  10  22  35  60  89 116 151 197 245 297 352
#     4  11  22  35  63  87 118 152 198 243 291 357
#
# _framework density 18.997527000000002
#
# number of rings (size 3 to 8) (size 9 to 14) (size 15 to 20)
#    0.000    1.667    3.333    2.000    7.000    1.333 
#    0.000    0.833    0.000    0.000    0.000    0.000 
#    0.000    0.000    0.000    0.000    0.000    0.000 
#
# Total GULP energy -267559.932299 kJ/mol
# GULP energy per Si atom -5574.165256 kJ/mol
# Density = 1.895429 g / cm^3
# Si number density = 18.997527 Si / 1000 Ang^3
#
#
#
# Elastic Constant Matrix: (Units=GPa)
#
#
# Indices 1 2 3 4 5 6 
#
# 1 169.0348 55.8425 30.1559 0.0000 0.0000 0.0000
# 2 55.8425 99.7636 27.7877 0.0000 0.0000 0.0000
# 3 30.1559 27.7877 20.8034 0.0000 0.0000 0.0000
# 4 0.0000 0.0000 0.0000 22.1190 0.0000 0.0000
# 5 0.0000 0.0000 0.0000 0.0000 26.9068 0.0000
# 6 0.0000 0.0000 0.0000 0.0000 0.0000 16.5461
#
#
#
# Elastic Compliance Matrix: (Units=1/GPa)
#
#
# Indices 1 2 3 4 5 6 
#
# 1 0.008233 -0.002045 -0.009203 0.000000 0.000000 0.000000
# 2 -0.002045 0.016471 -0.019036 0.000000 0.000000 0.000000
# 3 -0.009203 -0.019036 0.086836 0.000000 0.000000 0.000000
# 4 0.000000 0.000000 0.000000 0.045210 0.000000 0.000000
# 5 0.000000 0.000000 0.000000 0.000000 0.037165 0.000000
# 6 0.000000 0.000000 0.000000 0.000000 0.000000 0.060437
#
#
# Mechanical properties :
#
#
# Convention : Reuss Voigt Hill
#
# Bulk Modulus (GPa) = 19.61855 57.46377 38.54116
# Shear Modulus (GPa) = 15.06431 24.83542 19.94986
#
# Velocity S-wave (km/s) = 2.81901 3.61958 3.24409
# Velocity P-wave (km/s) = 4.57658 6.91246 5.86205
#
# Compressibility (1/GPa) = 0.05097217
#
# Stress axis : x y z
#
# Youngs Moduli (GPa) = 121.45602 60.71416 11.51602
#
# Poissons Ratio (x) = 0.12418 0.10598
# Poissons Ratio (y) = 0.24841 0.21921
# Poissons Ratio (z) = 1.11775 1.15572
#
# Static dielectric constant tensor:
#      x y z
#    x 1.634580 0.000000 0.000000 
#    y 0.000000 1.435980 0.000000 
#    z 0.000000 0.000000 1.661710 
# 
# From -- ./inp_files/6625.got.cif
#   From: 2010.05.17/outbox.cif.g08.bks.cpg/sg62_4_cif.got.tgz:6625.got - 2010.06.03 15:25:27.
