data_PCOD9466790
_publ_section_title
;
Structure prediction by ZEFSAII (Michael W. Deem and Ramdas Pophale) SiO2 
 PCOD9466790
Probable space group: P N M A
;
_chemical_formula_sum "Si O2"
_cell_formula_units_Z 56
_cell_length_a 14.336846
_cell_length_b 29.192734
_cell_length_c 6.412391
_cell_angle_alpha 90.000000
_cell_angle_beta 90.000000
_cell_angle_gamma 90.000000
_cell_volume 2683.789109
_symmetry_space_group_name_H-M "P N M A"
_symmetry_group_IT_number 62
_symmetry_cell_setting 'orthorhombic'
loop_
_space_group_symop_operation_xyz
x,y,z
1/2-x,-y,1/2+z
1/2+x,1/2-y,1/2-z
-x,1/2+y,-z
-x,-y,-z
1/2+x,y,1/2-z
1/2-x,1/2+y,1/2+z
x,1/2-y,z
loop_
_atom_site_type_symbol
_atom_site_label
_atom_site_fract_x
_atom_site_fract_y
_atom_site_fract_z
Si Si1 0.999957 0.467775 0.202625
Si Si2 0.846475 0.860760 0.112628
Si Si3 0.349388 0.019180 0.978018
Si Si4 0.205442 0.857981 0.772567
Si Si5 0.486231 0.860878 0.718476
Si Si6 0.246207 0.431580 0.632023
Si Si7 0.654361 0.302549 0.003787
O O1 0.898491 0.465370 0.309659
O O2 0.072800 0.491379 0.354704
O O3 0.031505 0.415311 0.193661
O O4 0.000000 0.500000 0.000000
O O5 0.842323 0.907293 0.252950
O O6 0.823621 0.820488 0.273073
O O7 0.768560 0.867094 0.932095
O O8 0.942846 0.846137 0.003364
O O9 0.317122 0.058800 0.821884
O O10 0.272405 0.981699 0.038166
O O11 0.252184 0.812204 0.864953
O O12 0.095219 0.853557 0.742000
O O13 0.222664 0.896973 0.950562
O O14 0.424353 0.835673 0.893577
O O15 0.625955 0.250000 0.011287
#
# Coordination Sequence:
#
# PCOD9466790 Si02
#       7
#     8   8   8   8   8   8   8
#     4  11  23  40  58  91 132 180 224 276 327 392
#     4  10  22  42  64  90 132 170 216 272 344 397
#     4  11  25  35  58  87 126 174 230 270 323 379
#     4  10  23  43  66  95 130 174 218 272 341 412
#     4  11  23  40  69  96 134 171 220 278 340 403
#     4  11  24  37  59  92 128 178 227 276 319 393
#     4  10  24  45  68  98 130 166 217 277 347 424
#
# _framework density 20.866021
#
# number of rings (size 3 to 8) (size 9 to 14) (size 15 to 20)
#    0.000    1.429    0.000    5.143    8.000    8.571 
#    0.000    1.429    0.000    0.000    0.000    0.000 
#    0.000    0.000    0.000    0.000    0.000    0.000 
#
# Total GULP energy -312452.800784 kJ/mol
# GULP energy per Si atom -5579.514300 kJ/mol
# Density = 2.081853 g / cm^3
# Si number density = 20.866021 Si / 1000 Ang^3
#
#
#
# Elastic Constant Matrix: (Units=GPa)
#
#
# Indices 1 2 3 4 5 6 
#
# 1 85.9837 22.9319 33.8980 0.0000 0.0000 0.0000
# 2 22.9319 99.5359 51.0091 0.0000 0.0000 0.0000
# 3 33.8980 51.0091 118.0863 0.0000 0.0000 0.0000
# 4 0.0000 0.0000 0.0000 16.3245 0.0000 0.0000
# 5 0.0000 0.0000 0.0000 0.0000 26.8159 0.0000
# 6 0.0000 0.0000 0.0000 0.0000 0.0000 20.8082
#
#
#
# Elastic Compliance Matrix: (Units=1/GPa)
#
#
# Indices 1 2 3 4 5 6 
#
# 1 0.013269 -0.001419 -0.003196 0.000000 0.000000 0.000000
# 2 -0.001419 0.013055 -0.005232 0.000000 0.000000 0.000000
# 3 -0.003196 -0.005232 0.011646 0.000000 0.000000 0.000000
# 4 0.000000 0.000000 0.000000 0.061258 0.000000 0.000000
# 5 0.000000 0.000000 0.000000 0.000000 0.037291 0.000000
# 6 0.000000 0.000000 0.000000 0.000000 0.000000 0.048058
#
#
# Mechanical properties :
#
#
# Convention : Reuss Voigt Hill
#
# Bulk Modulus (GPa) = 54.71837 57.69821 56.20829
# Shear Modulus (GPa) = 23.76861 25.84083 24.80472
#
# Velocity S-wave (km/s) = 3.37873 3.52293 3.45158
# Velocity P-wave (km/s) = 6.44218 6.65281 6.54834
#
# Compressibility (1/GPa) = 0.01827540
#
# Stress axis : x y z
#
# Youngs Moduli (GPa) = 75.36637 76.60066 85.86832
#
# Poissons Ratio (x) = 0.10871 0.27442
# Poissons Ratio (y) = 0.10695 0.44925
# Poissons Ratio (z) = 0.24086 0.40076
#
# Static dielectric constant tensor:
#      x y z
#    x 1.823490 0.000000 0.000000 
#    y 0.000000 1.813930 0.000000 
#    z 0.000000 0.000000 1.800270 
# 
# From -- ./inp_files/1264.got.cif
#   From: 2010.05.17/outbox.cif.g08.bks.cpg/sg62_1_cif.got.tgz:1264.got - 2010.06.03 15:25:27.
