data_PCOD9466423
_publ_section_title
;
Structure prediction by ZEFSAII (Michael W. Deem and Ramdas Pophale) SiO2 
 PCOD9466423
Probable space group: P N M A
;
_chemical_formula_sum "Si O2"
_cell_formula_units_Z 40
_cell_length_a 13.032151
_cell_length_b 14.919499
_cell_length_c 9.406671
_cell_angle_alpha 90.000000
_cell_angle_beta 90.000000
_cell_angle_gamma 90.000000
_cell_volume 1828.968803
_symmetry_space_group_name_H-M "P N M A"
_symmetry_group_IT_number 62
_symmetry_cell_setting 'orthorhombic'
loop_
_space_group_symop_operation_xyz
x,y,z
1/2-x,-y,1/2+z
1/2+x,1/2-y,1/2-z
-x,1/2+y,-z
-x,-y,-z
1/2+x,y,1/2-z
1/2-x,1/2+y,1/2+z
x,1/2-y,z
loop_
_atom_site_type_symbol
_atom_site_label
_atom_site_fract_x
_atom_site_fract_y
_atom_site_fract_z
Si Si1 0.843410 0.445304 0.717433
Si Si2 0.042889 0.750000 0.606666
Si Si3 0.621065 0.750000 0.578420
Si Si4 0.216449 0.750000 0.386082
Si Si5 0.454328 0.602502 0.095103
Si Si6 0.729464 0.565222 0.508829
Si Si7 0.448001 0.750000 0.339710
O O1 0.817253 0.339633 0.697613
O O2 0.951039 0.462493 0.635483
O O3 0.753578 0.499400 0.638148
O O4 0.846651 0.467407 0.884163
O O5 0.059675 0.750000 0.773389
O O6 0.154298 0.750000 0.532169
O O7 0.986345 0.836095 0.539543
O O8 0.690518 0.661179 0.563343
O O9 0.538516 0.750000 0.452071
O O10 0.336766 0.750000 0.410583
O O11 0.339017 0.571938 0.070765
O O12 0.453124 0.666172 0.233721
#
# Coordination Sequence:
#
# PCOD9466423 Si02
#       7
#     8   4   4   4   8   8   4
#     4  11  24  43  68 100 131 176 223 273 332 406
#     4   9  23  39  67  98 131 175 220 275 336 384
#     4  12  25  44  67  99 138 174 228 278 332 404
#     4  10  21  43  71  89 135 174 219 267 339 391
#     4  10  21  43  69  96 130 177 224 275 330 404
#     4  12  25  43  70 100 135 178 224 277 339 404
#     4  11  19  40  75  98 120 179 233 264 327 407
#
# _framework density 21.870246000000002
#
# number of rings (size 3 to 8) (size 9 to 14) (size 15 to 20)
#    0.000    1.200    4.000    3.000    5.600    1.600 
#    0.000    2.000    0.000    0.000    0.000    0.000 
#    0.000    0.000    0.000    0.000    0.000    0.000 
#
# Total GULP energy -223643.108454 kJ/mol
# GULP energy per Si atom -5591.077711 kJ/mol
# Density = 2.182047 g / cm^3
# Si number density = 21.870246 Si / 1000 Ang^3
#
#
#
# Elastic Constant Matrix: (Units=GPa)
#
#
# Indices 1 2 3 4 5 6 
#
# 1 91.7807 12.2435 3.2029 0.0000 0.0000 0.0000
# 2 12.2435 57.3851 20.4515 0.0000 0.0000 0.0000
# 3 3.2029 20.4515 116.4774 0.0000 0.0000 0.0000
# 4 0.0000 0.0000 0.0000 3.3049 0.0000 0.0000
# 5 0.0000 0.0000 0.0000 0.0000 17.2401 0.0000
# 6 0.0000 0.0000 0.0000 0.0000 0.0000 19.6001
#
#
#
# Elastic Compliance Matrix: (Units=1/GPa)
#
#
# Indices 1 2 3 4 5 6 
#
# 1 0.011216 -0.002436 0.000119 0.000000 0.000000 0.000000
# 2 -0.002436 0.019118 -0.003290 0.000000 0.000000 0.000000
# 3 0.000119 -0.003290 0.009160 0.000000 0.000000 0.000000
# 4 0.000000 0.000000 0.000000 0.302581 0.000000 0.000000
# 5 0.000000 0.000000 0.000000 0.000000 0.058004 0.000000
# 6 0.000000 0.000000 0.000000 0.000000 0.000000 0.051020
#
#
# Mechanical properties :
#
#
# Convention : Reuss Voigt Hill
#
# Bulk Modulus (GPa) = 35.35840 37.49322 36.42581
# Shear Modulus (GPa) = 10.59907 23.34536 16.97222
#
# Velocity S-wave (km/s) = 2.20383 3.27073 2.78877
# Velocity P-wave (km/s) = 4.76217 5.60752 5.20204
#
# Compressibility (1/GPa) = 0.02828183
#
# Stress axis : x y z
#
# Youngs Moduli (GPa) = 89.15610 52.30600 109.17360
#
# Poissons Ratio (x) = 0.12739 -0.01302
# Poissons Ratio (y) = 0.21715 0.35917
# Poissons Ratio (z) = -0.01063 0.17208
#
# Static dielectric constant tensor:
#      x y z
#    x 1.816230 0.000000 0.000000 
#    y 0.000000 1.829770 0.000000 
#    z 0.000000 0.000000 1.802550 
# 
# From -- ./inp_files/5091.got.cif
#   From: 2010.05.17/outbox.cif.g08.bks.cpg/sg62_3_cif.got.tgz:5091.got - 2010.06.03 15:25:27.
