data_PCOD9466053
_publ_section_title
;
Structure prediction by ZEFSAII (Michael W. Deem and Ramdas Pophale) SiO2 
 PCOD9466053
Probable space group: P N M A
;
_chemical_formula_sum "Si O2"
_cell_formula_units_Z 48
_cell_length_a 31.688724
_cell_length_b 8.553261
_cell_length_c 9.151970
_cell_angle_alpha 90.000000
_cell_angle_beta 90.000000
_cell_angle_gamma 90.000000
_cell_volume 2480.567586
_symmetry_space_group_name_H-M "P N M A"
_symmetry_group_IT_number 62
_symmetry_cell_setting 'orthorhombic'
loop_
_space_group_symop_operation_xyz
x,y,z
1/2-x,-y,1/2+z
1/2+x,1/2-y,1/2-z
-x,1/2+y,-z
-x,-y,-z
1/2+x,y,1/2-z
1/2-x,1/2+y,1/2+z
x,1/2-y,z
loop_
_atom_site_type_symbol
_atom_site_label
_atom_site_fract_x
_atom_site_fract_y
_atom_site_fract_z
Si Si1 0.791020 0.560772 0.409950
Si Si2 0.622907 0.062264 0.421772
Si Si3 0.959403 0.436289 0.085724
Si Si4 0.374591 0.940269 0.916035
Si Si5 0.540796 0.437982 0.915112
Si Si6 0.294137 0.437373 0.418948
O O1 0.792136 0.750000 0.399523
O O2 0.832336 0.509361 0.500217
O O3 0.748542 0.516625 0.495884
O O4 0.791536 0.491436 0.248269
O O5 0.619109 0.250000 0.425134
O O6 0.624625 0.010133 0.252663
O O7 0.582645 0.990388 0.502408
O O8 0.665410 0.012234 0.503605
O O9 0.961345 0.250000 0.090770
O O10 0.959041 0.501958 0.249814
O O11 0.000000 0.500000 0.000000
O O12 0.374277 0.750000 0.915685
O O13 0.416619 0.989843 0.001529
O O14 0.539997 0.250000 0.914679
O O15 0.500000 0.500000 0.000000
O O16 0.297831 0.250000 0.424614
#
# Coordination Sequence:
#
# PCOD9466053 Si02
#       6
#     8   8   8   8   8   8
#     4  10  21  39  61  85 117 158 202 248 301 360
#     4  11  22  40  64  89 121 161 201 246 304 365
#     4  12  25  42  63  91 124 160 206 256 308 365
#     4   9  20  38  61  86 114 154 202 247 295 357
#     4  11  22  39  63  91 123 162 207 253 304 362
#     4  11  23  38  59  90 122 155 201 252 302 361
#
# _framework density 19.350408999999999
#
# number of rings (size 3 to 8) (size 9 to 14) (size 15 to 20)
#    0.000    1.333    0.000    6.000    0.000    5.333 
#    0.000    5.000    0.000    0.000    0.000    0.000 
#    0.000    0.000    0.000    0.000    0.000    0.000 
#
# Total GULP energy -268539.007768 kJ/mol
# GULP energy per Si atom -5594.562662 kJ/mol
# Density = 1.930637 g / cm^3
# Si number density = 19.350409 Si / 1000 Ang^3
#
#
#
# Elastic Constant Matrix: (Units=GPa)
#
#
# Indices 1 2 3 4 5 6 
#
# 1 196.6105 51.2838 111.6442 0.0000 0.0000 0.0000
# 2 51.2838 71.3337 48.7960 0.0000 0.0000 0.0000
# 3 111.6442 48.7960 213.6404 0.0000 0.0000 0.0000
# 4 0.0000 0.0000 0.0000 33.7604 0.0000 0.0000
# 5 0.0000 0.0000 0.0000 0.0000 46.4918 0.0000
# 6 0.0000 0.0000 0.0000 0.0000 0.0000 29.9351
#
#
#
# Elastic Compliance Matrix: (Units=1/GPa)
#
#
# Indices 1 2 3 4 5 6 
#
# 1 0.007860 -0.003367 -0.003339 0.000000 0.000000 0.000000
# 2 -0.003367 0.018057 -0.002365 0.000000 0.000000 0.000000
# 3 -0.003339 -0.002365 0.006965 0.000000 0.000000 0.000000
# 4 0.000000 0.000000 0.000000 0.029620 0.000000 0.000000
# 5 0.000000 0.000000 0.000000 0.000000 0.021509 0.000000
# 6 0.000000 0.000000 0.000000 0.000000 0.000000 0.033406
#
#
# Mechanical properties :
#
#
# Convention : Reuss Voigt Hill
#
# Bulk Modulus (GPa) = 67.83358 100.55919 84.19638
# Shear Modulus (GPa) = 35.59410 40.02818 37.81114
#
# Velocity S-wave (km/s) = 4.29353 4.55312 4.42523
# Velocity P-wave (km/s) = 7.72727 8.92869 8.34962
#
# Compressibility (1/GPa) = 0.01474196
#
# Stress axis : x y z
#
# Youngs Moduli (GPa) = 127.22193 55.38035 143.56477
#
# Poissons Ratio (x) = 0.18648 0.47930
# Poissons Ratio (y) = 0.42839 0.33947
# Poissons Ratio (z) = 0.42474 0.13095
#
# Static dielectric constant tensor:
#      x y z
#    x 1.641780 0.000000 0.000000 
#    y 0.000000 1.662740 0.000000 
#    z 0.000000 0.000000 1.631570 
# 
# From -- ./inp_files/10202.got.cif
#   From: 2010.05.17/outbox.cif.g08.bks.cpg/sg62_6_cif.got.tgz:10202.got - 2010.06.03 15:25:27.
