data_PCOD9466751
_publ_section_title
;
Structure prediction by ZEFSAII (Michael W. Deem and Ramdas Pophale) SiO2 
 PCOD9466751
Probable space group: P N M A
;
_chemical_formula_sum "Si O2"
_cell_formula_units_Z 48
_cell_length_a 5.272261
_cell_length_b 15.796592
_cell_length_c 26.376364
_cell_angle_alpha 90.000000
_cell_angle_beta 90.000000
_cell_angle_gamma 90.000000
_cell_volume 2196.722662
_symmetry_space_group_name_H-M "P N M A"
_symmetry_group_IT_number 62
_symmetry_cell_setting 'orthorhombic'
loop_
_space_group_symop_operation_xyz
x,y,z
1/2-x,-y,1/2+z
1/2+x,1/2-y,1/2-z
-x,1/2+y,-z
-x,-y,-z
1/2+x,y,1/2-z
1/2-x,1/2+y,1/2+z
x,1/2-y,z
loop_
_atom_site_type_symbol
_atom_site_label
_atom_site_fract_x
_atom_site_fract_y
_atom_site_fract_z
Si Si1 0.922363 0.250000 0.815358
Si Si2 0.199237 0.649545 0.715975
Si Si3 0.417131 0.536223 0.630241
Si Si4 0.912865 0.912456 0.435767
Si Si5 0.310611 0.055841 0.466030
Si Si6 0.409789 0.250000 0.876995
Si Si7 0.474140 0.563849 0.278728
O O1 0.626600 0.250000 0.832191
O O2 0.006366 0.335509 0.787201
O O3 0.115216 0.250000 0.862561
O O4 0.439769 0.632993 0.753301
O O5 0.203378 0.750000 0.704220
O O6 0.240884 0.596720 0.664318
O O7 0.285119 0.456802 0.602227
O O8 0.552753 0.587104 0.584799
O O9 0.594568 0.488400 0.670974
O O10 0.036781 0.834094 0.408360
O O11 0.102158 0.989518 0.447001
O O12 0.805844 0.884301 0.490849
O O13 0.500000 0.000000 0.500000
O O14 0.260072 0.542995 0.238091
#
# Coordination Sequence:
#
# PCOD9466751 Si02
#       7
#     4   8   8   8   8   4   8
#     4  12  24  43  60  90 136 182 218 265 316 367
#     4  10  23  43  65  94 130 168 212 270 328 385
#     4  11  22  38  68  93 126 169 216 265 326 394
#     4  10  22  41  66  96 128 170 216 270 325 390
#     4   9  21  41  65  92 125 165 212 274 323 381
#     4  12  24  41  70  96 130 178 218 263 328 393
#     4  12  25  39  60  93 131 173 222 264 313 378
#
# _framework density 21.850731
#
# number of rings (size 3 to 8) (size 9 to 14) (size 15 to 20)
#    0.000    1.333    1.667    3.500    7.000    0.000 
#    1.500    0.000   14.667    0.000    0.000    0.000 
#    0.000    0.000    0.000    0.000    0.000    0.000 
#
# Total GULP energy -268063.581577 kJ/mol
# GULP energy per Si atom -5584.657950 kJ/mol
# Density = 2.180100 g / cm^3
# Si number density = 21.850731 Si / 1000 Ang^3
#
#
#
# Elastic Constant Matrix: (Units=GPa)
#
#
# Indices 1 2 3 4 5 6 
#
# 1 42.2903 -11.7468 6.3533 0.0000 0.0000 0.0000
# 2 -11.7468 65.1792 17.8574 0.0000 0.0000 0.0000
# 3 6.3533 17.8574 105.1896 0.0000 0.0000 0.0000
# 4 0.0000 0.0000 0.0000 -15.1999 0.0000 0.0000
# 5 0.0000 0.0000 0.0000 0.0000 32.1571 0.0000
# 6 0.0000 0.0000 0.0000 0.0000 0.0000 19.3742
#
#
#
# Elastic Compliance Matrix: (Units=1/GPa)
#
#
# Indices 1 2 3 4 5 6 
#
# 1 0.025471 0.005256 -0.002431 0.000000 0.000000 0.000000
# 2 0.005256 0.017175 -0.003233 0.000000 0.000000 0.000000
# 3 -0.002431 -0.003233 0.010202 0.000000 0.000000 0.000000
# 4 0.000000 0.000000 0.000000 -0.065790 0.000000 0.000000
# 5 0.000000 0.000000 0.000000 0.000000 0.031097 0.000000
# 6 0.000000 0.000000 0.000000 0.000000 0.000000 0.051615
#
#
# Mechanical properties :
#
#
# Convention : Reuss Voigt Hill
#
# Bulk Modulus (GPa) = 19.21819 26.39854 22.80837
# Shear Modulus (GPa) = 56.86238 20.61261 38.73749
#
# Velocity S-wave (km/s) = 5.10682 3.07471 4.21506
# Velocity P-wave (km/s) = 6.60205 4.97118 5.84379
#
# Compressibility (1/GPa) = 0.05203403
#
# Stress axis : x y z
#
# Youngs Moduli (GPa) = 39.25983 58.22252 98.01661
#
# Poissons Ratio (x) = -0.30605 0.23826
# Poissons Ratio (y) = -0.20637 0.31691
# Poissons Ratio (z) = 0.09543 0.18825
#
# Static dielectric constant tensor:
#      x y z
#    x 1.164860 0.000000 0.000000 
#    y 0.000000 1.779870 0.000000 
#    z 0.000000 0.000000 1.615640 
# 
# From -- ./inp_files/28350.got.cif
#   From: 2010.05.17/outbox.cif.g08.bks.cpg/sg62_15_cif.got.tgz:28350.got - 2010.06.03 15:25:27.
