data_PCOD9466903
_publ_section_title
;
Structure prediction by ZEFSAII (Michael W. Deem and Ramdas Pophale) SiO2 
 PCOD9466903
Probable space group: P N M A
;
_chemical_formula_sum "Si O2"
_cell_formula_units_Z 40
_cell_length_a 15.275697
_cell_length_b 14.721049
_cell_length_c 7.310434
_cell_angle_alpha 90.000000
_cell_angle_beta 90.000000
_cell_angle_gamma 90.000000
_cell_volume 1643.928612
_symmetry_space_group_name_H-M "P N M A"
_symmetry_group_IT_number 62
_symmetry_cell_setting 'orthorhombic'
loop_
_space_group_symop_operation_xyz
x,y,z
1/2-x,-y,1/2+z
1/2+x,1/2-y,1/2-z
-x,1/2+y,-z
-x,-y,-z
1/2+x,y,1/2-z
1/2-x,1/2+y,1/2+z
x,1/2-y,z
loop_
_atom_site_type_symbol
_atom_site_label
_atom_site_fract_x
_atom_site_fract_y
_atom_site_fract_z
Si Si1 0.760418 0.007474 0.384196
Si Si2 0.318333 0.355886 0.422786
Si Si3 0.653406 0.153842 0.531398
Si Si4 0.444853 0.584101 0.141049
Si Si5 0.505289 0.397995 0.252804
O O1 0.764578 0.087379 0.231195
O O2 0.717026 0.068429 0.545660
O O3 0.011673 0.126190 0.462061
O O4 0.859075 0.974127 0.420882
O O5 0.293962 0.250000 0.440558
O O6 0.298607 0.416088 0.602831
O O7 0.418237 0.363825 0.353883
O O8 0.699589 0.250000 0.515071
O O9 0.592492 0.151578 0.709962
O O10 0.588156 0.137268 0.362839
O O11 0.502548 0.508125 0.244366
#
# Coordination Sequence:
#
# PCOD9466903 Si02
#       5
#     8   8   8   8   8
#     4  11  22  44  65  98 135 176 227 284 334 419
#     4  11  24  44  70 100 137 186 230 286 357 415
#     4  12  24  40  68 103 136 177 230 288 350 418
#     4  10  23  42  70  96 134 184 230 283 348 413
#     4  10  22  44  70  96 138 180 228 291 349 411
#
# _framework density 24.331956000000002
#
# number of rings (size 3 to 8) (size 9 to 14) (size 15 to 20)
#    0.000    1.200    4.000    3.000    0.000    2.400 
#    0.000    0.000    0.000    0.000    0.000    0.000 
#    0.000    0.000    0.000    0.000    0.000    0.000 
#
# Total GULP energy -223398.660163 kJ/mol
# GULP energy per Si atom -5584.966504 kJ/mol
# Density = 2.427658 g / cm^3
# Si number density = 24.331956 Si / 1000 Ang^3
#
#
#
# Elastic Constant Matrix: (Units=GPa)
#
#
# Indices 1 2 3 4 5 6 
#
# 1 62.6277 31.0551 10.9664 0.0000 0.0000 0.0000
# 2 31.0551 198.0218 35.1103 0.0000 0.0000 0.0000
# 3 10.9664 35.1103 66.6738 0.0000 0.0000 0.0000
# 4 0.0000 0.0000 0.0000 140.9650 0.0000 0.0000
# 5 0.0000 0.0000 0.0000 0.0000 39.0230 0.0000
# 6 0.0000 0.0000 0.0000 0.0000 0.0000 14.8774
#
#
#
# Elastic Compliance Matrix: (Units=1/GPa)
#
#
# Indices 1 2 3 4 5 6 
#
# 1 0.017463 -0.002459 -0.001577 0.000000 0.000000 0.000000
# 2 -0.002459 0.005916 -0.002711 0.000000 0.000000 0.000000
# 3 -0.001577 -0.002711 0.016685 0.000000 0.000000 0.000000
# 4 0.000000 0.000000 0.000000 0.007094 0.000000 0.000000
# 5 0.000000 0.000000 0.000000 0.000000 0.025626 0.000000
# 6 0.000000 0.000000 0.000000 0.000000 0.000000 0.067216
#
#
# Mechanical properties :
#
#
# Convention : Reuss Voigt Hill
#
# Bulk Modulus (GPa) = 37.63664 53.50966 45.57315
# Shear Modulus (GPa) = 30.79733 55.65253 43.22493
#
# Velocity S-wave (km/s) = 3.56155 4.78768 4.21939
# Velocity P-wave (km/s) = 5.69337 7.25270 6.51982
#
# Compressibility (1/GPa) = 0.02656985
#
# Stress axis : x y z
#
# Youngs Moduli (GPa) = 57.26423 169.02559 59.93236
#
# Poissons Ratio (x) = 0.41563 0.09454
# Poissons Ratio (y) = 0.14081 0.16248
# Poissons Ratio (z) = 0.09033 0.45824
#
# Static dielectric constant tensor:
#      x y z
#    x 1.925010 0.000000 0.000000 
#    y 0.000000 1.943840 0.000000 
#    z 0.000000 0.000000 2.100490 
# 
# From -- ./inp_files/6255.got.cif
#   From: 2010.05.17/outbox.cif.g08.bks.cpg/sg62_4_cif.got.tgz:6255.got - 2010.06.03 15:25:27.
