data_PCOD9466156
_publ_section_title
;
Structure prediction by ZEFSAII (Michael W. Deem and Ramdas Pophale) SiO2 
 PCOD9466156
Probable space group: P N M A
;
_chemical_formula_sum "Si O2"
_cell_formula_units_Z 56
_cell_length_a 15.955919
_cell_length_b 18.908923
_cell_length_c 9.005262
_cell_angle_alpha 90.000000
_cell_angle_beta 90.000000
_cell_angle_gamma 90.000000
_cell_volume 2716.970788
_symmetry_space_group_name_H-M "P N M A"
_symmetry_group_IT_number 62
_symmetry_cell_setting 'orthorhombic'
loop_
_space_group_symop_operation_xyz
x,y,z
1/2-x,-y,1/2+z
1/2+x,1/2-y,1/2-z
-x,1/2+y,-z
-x,-y,-z
1/2+x,y,1/2-z
1/2-x,1/2+y,1/2+z
x,1/2-y,z
loop_
_atom_site_type_symbol
_atom_site_label
_atom_site_fract_x
_atom_site_fract_y
_atom_site_fract_z
Si Si1 0.108963 0.168160 0.870373
Si Si2 0.211302 0.515688 0.608022
Si Si3 0.018457 0.666193 0.377723
Si Si4 0.707968 0.836433 0.054537
Si Si5 0.563557 0.444572 0.071913
Si Si6 0.634923 0.525711 0.566917
Si Si7 0.030661 0.411218 0.092224
O O1 0.111169 0.250000 0.833424
O O2 0.206424 0.146912 0.855661
O O3 0.036871 0.140054 0.760568
O O4 0.077297 0.159253 0.039889
O O5 0.211364 0.600000 0.567494
O O6 0.149679 0.471253 0.499677
O O7 0.300020 0.480225 0.567736
O O8 0.181300 0.512984 0.777548
O O9 0.014182 0.750000 0.391649
O O10 0.117708 0.650119 0.369228
O O11 0.972531 0.630014 0.516061
O O12 0.710517 0.750000 0.016425
O O13 0.557605 0.440884 0.248679
O O14 0.500000 0.500000 0.000000
O O15 0.569927 0.590546 0.580545
O O16 0.571274 0.462014 0.532688
#
# Coordination Sequence:
#
# PCOD9466156 Si02
#       7
#     8   8   8   8   8   8   8
#     4  10  22  41  66  94 130 174 219 263 321 388
#     4  12  23  41  63  98 127 171 216 271 323 389
#     4  10  22  42  66  93 131 173 214 264 322 386
#     4  10  21  39  66  94 128 171 216 263 324 385
#     4  12  23  39  66  97 131 166 214 267 324 390
#     4  11  24  38  63  90 129 164 211 264 330 379
#     4  11  23  42  60  95 130 167 207 272 326 382
#
# _framework density 20.611190000000001
#
# number of rings (size 3 to 8) (size 9 to 14) (size 15 to 20)
#    0.000    1.143    4.286    1.714    2.000    1.714 
#    0.000    0.714    0.000    0.000    0.000    0.000 
#    0.000    0.000    0.000    0.000    0.000    0.000 
#
# Total GULP energy -311767.321748 kJ/mol
# GULP energy per Si atom -5567.273603 kJ/mol
# Density = 2.056428 g / cm^3
# Si number density = 20.611190 Si / 1000 Ang^3
#
#
#
# Elastic Constant Matrix: (Units=GPa)
#
#
# Indices 1 2 3 4 5 6 
#
# 1 156.2099 29.2556 49.6578 0.0000 0.0000 0.0000
# 2 29.2556 23.0922 21.7306 0.0000 0.0000 0.0000
# 3 49.6578 21.7306 106.2533 0.0000 0.0000 0.0000
# 4 0.0000 0.0000 0.0000 25.6280 0.0000 0.0000
# 5 0.0000 0.0000 0.0000 0.0000 24.1775 0.0000
# 6 0.0000 0.0000 0.0000 0.0000 0.0000 21.0450
#
#
#
# Elastic Compliance Matrix: (Units=1/GPa)
#
#
# Indices 1 2 3 4 5 6 
#
# 1 0.008815 -0.009029 -0.002273 0.000000 0.000000 0.000000
# 2 -0.009029 0.062873 -0.008639 0.000000 0.000000 0.000000
# 3 -0.002273 -0.008639 0.012241 0.000000 0.000000 0.000000
# 4 0.000000 0.000000 0.000000 0.039020 0.000000 0.000000
# 5 0.000000 0.000000 0.000000 0.000000 0.041361 0.000000
# 6 0.000000 0.000000 0.000000 0.000000 0.000000 0.047517
#
#
# Mechanical properties :
#
#
# Convention : Reuss Voigt Hill
#
# Bulk Modulus (GPa) = 22.70315 54.09369 38.39842
# Shear Modulus (GPa) = 18.76941 26.49753 22.63347
#
# Velocity S-wave (km/s) = 3.02096 3.58940 3.31738
# Velocity P-wave (km/s) = 4.81738 6.59395 5.77440
#
# Compressibility (1/GPa) = 0.04404676
#
# Stress axis : x y z
#
# Youngs Moduli (GPa) = 113.43970 15.90511 81.69463
#
# Poissons Ratio (x) = 0.14360 0.18572
# Poissons Ratio (y) = 1.02423 0.70575
# Poissons Ratio (z) = 0.25788 0.13740
#
# Static dielectric constant tensor:
#      x y z
#    x 1.905790 0.000000 0.000000 
#    y 0.000000 1.851550 0.000000 
#    z 0.000000 0.000000 1.759620 
# 
# From -- ./inp_files/6799.got.cif
#   From: 2010.05.17/outbox.cif.g08.bks.cpg/sg62_4_cif.got.tgz:6799.got - 2010.06.03 15:25:27.
