data_PCOD9466672
_publ_section_title
;
Structure prediction by ZEFSAII (Michael W. Deem and Ramdas Pophale) SiO2 
 PCOD9466672
Probable space group: P N M A
;
_chemical_formula_sum "Si O2"
_cell_formula_units_Z 48
_cell_length_a 25.885617
_cell_length_b 12.991889
_cell_length_c 5.902422
_cell_angle_alpha 90.000000
_cell_angle_beta 90.000000
_cell_angle_gamma 90.000000
_cell_volume 1985.002596
_symmetry_space_group_name_H-M "P N M A"
_symmetry_group_IT_number 62
_symmetry_cell_setting 'orthorhombic'
loop_
_space_group_symop_operation_xyz
x,y,z
1/2-x,-y,1/2+z
1/2+x,1/2-y,1/2-z
-x,1/2+y,-z
-x,-y,-z
1/2+x,y,1/2-z
1/2-x,1/2+y,1/2+z
x,1/2-y,z
loop_
_atom_site_type_symbol
_atom_site_label
_atom_site_fract_x
_atom_site_fract_y
_atom_site_fract_z
Si Si1 0.013792 0.129591 0.763096
Si Si2 0.202245 0.134366 0.684766
Si Si3 0.414482 0.486250 0.576354
Si Si4 0.100207 0.429921 0.500134
Si Si5 0.264797 0.629361 0.683817
Si Si6 0.141341 0.632426 0.715102
O O1 0.014148 0.250000 0.821189
O O2 0.957740 0.081787 0.796097
O O3 0.042050 0.112223 0.522272
O O4 0.052217 0.056863 0.907200
O O5 0.223885 0.250000 0.689486
O O6 0.220359 0.089644 0.438850
O O7 0.140562 0.132551 0.650623
O O8 0.215086 0.091144 0.935616
O O9 0.374836 0.407584 0.463042
O O10 0.386380 0.567791 0.736976
O O11 0.111196 0.548736 0.566378
O O12 0.280756 0.750000 0.690608
O O13 0.202323 0.624566 0.675262
O O14 0.125109 0.750000 0.678729
#
# Coordination Sequence:
#
# PCOD9466672 Si02
#       6
#     8   8   8   8   8   8
#     4  10  22  42  66  95 135 174 221 283 349 416
#     4  10  22  40  65  98 137 177 225 280 342 412
#     4  10  23  42  65  99 131 174 228 282 345 421
#     4  11  24  39  64  96 131 171 227 283 346 420
#     4   9  21  40  64  96 134 180 227 276 339 413
#     4  10  23  41  63  92 129 175 224 282 343 409
#
# _framework density 24.181328000000001
#
# number of rings (size 3 to 8) (size 9 to 14) (size 15 to 20)
#    0.000    2.000    0.000    1.500    7.000    4.000 
#    0.000    0.000    0.000    0.000    0.000    0.000 
#    0.000    0.000    0.000    0.000    0.000    0.000 
#
# Total GULP energy -267589.931284 kJ/mol
# GULP energy per Si atom -5574.790235 kJ/mol
# Density = 2.412629 g / cm^3
# Si number density = 24.181328 Si / 1000 Ang^3
#
#
#
# Elastic Constant Matrix: (Units=GPa)
#
#
# Indices 1 2 3 4 5 6 
#
# 1 78.3160 13.8786 38.3456 0.0000 0.0000 0.0000
# 2 13.8786 113.1080 10.6926 0.0000 0.0000 0.0000
# 3 38.3456 10.6926 128.9743 0.0000 0.0000 0.0000
# 4 0.0000 0.0000 0.0000 13.8846 0.0000 0.0000
# 5 0.0000 0.0000 0.0000 0.0000 391.4177 0.0000
# 6 0.0000 0.0000 0.0000 0.0000 0.0000 31.4812
#
#
#
# Elastic Compliance Matrix: (Units=1/GPa)
#
#
# Indices 1 2 3 4 5 6 
#
# 1 0.015176 -0.001447 -0.004392 0.000000 0.000000 0.000000
# 2 -0.001447 0.009049 -0.000320 0.000000 0.000000 0.000000
# 3 -0.004392 -0.000320 0.009086 0.000000 0.000000 0.000000
# 4 0.000000 0.000000 0.000000 0.072022 0.000000 0.000000
# 5 0.000000 0.000000 0.000000 0.000000 0.002555 0.000000
# 6 0.000000 0.000000 0.000000 0.000000 0.000000 0.031765
#
#
# Mechanical properties :
#
#
# Convention : Reuss Voigt Hill
#
# Bulk Modulus (GPa) = 47.63583 49.58132 48.60858
# Shear Modulus (GPa) = 31.45293 104.52213 67.98753
#
# Velocity S-wave (km/s) = 3.61045 6.58165 5.30818
# Velocity P-wave (km/s) = 6.09284 8.84907 7.59700
#
# Compressibility (1/GPa) = 0.02099260
#
# Stress axis : x y z
#
# Youngs Moduli (GPa) = 65.89529 110.51074 110.06204
#
# Poissons Ratio (x) = 0.15990 0.48338
# Poissons Ratio (y) = 0.09534 0.03522
# Poissons Ratio (z) = 0.28941 0.03537
#
# Static dielectric constant tensor:
#      x y z
#    x 1.840430 0.000000 0.000000 
#    y 0.000000 1.918930 0.000000 
#    z 0.000000 0.000000 2.102100 
# 
# From -- ./inp_files/3183.got.cif
#   From: 2010.05.17/outbox.cif.g08.bks.cpg/sg62_2_cif.got.tgz:3183.got - 2010.06.03 15:25:27.
