data_PCOD9466562
_publ_section_title
;
Structure prediction by ZEFSAII (Michael W. Deem and Ramdas Pophale) SiO2 
 PCOD9466562
Probable space group: P N M A
;
_chemical_formula_sum "Si O2"
_cell_formula_units_Z 64
_cell_length_a 5.352094
_cell_length_b 17.747923
_cell_length_c 31.122102
_cell_angle_alpha 90.000000
_cell_angle_beta 90.000000
_cell_angle_gamma 90.000000
_cell_volume 2956.243410
_symmetry_space_group_name_H-M "P N M A"
_symmetry_group_IT_number 62
_symmetry_cell_setting 'orthorhombic'
loop_
_space_group_symop_operation_xyz
x,y,z
1/2-x,-y,1/2+z
1/2+x,1/2-y,1/2-z
-x,1/2+y,-z
-x,-y,-z
1/2+x,y,1/2-z
1/2-x,1/2+y,1/2+z
x,1/2-y,z
loop_
_atom_site_type_symbol
_atom_site_label
_atom_site_fract_x
_atom_site_fract_y
_atom_site_fract_z
Si Si1 0.481640 0.661344 0.634483
Si Si2 0.390789 0.434247 0.908337
Si Si3 0.859046 0.830330 0.349398
Si Si4 0.530261 0.890684 0.275037
Si Si5 0.097165 0.162142 0.510821
Si Si6 0.482659 0.889916 0.914211
Si Si7 0.456344 0.571101 0.723324
Si Si8 0.503454 0.831248 0.428254
O O1 0.469859 0.750000 0.644102
O O2 0.741830 0.643740 0.610346
O O3 0.469781 0.612991 0.678060
O O4 0.241791 0.639170 0.605706
O O5 0.462524 0.399179 0.861656
O O6 0.465276 0.519955 0.909925
O O7 0.104414 0.410604 0.912993
O O8 0.479282 0.390572 0.952111
O O9 0.979611 0.750000 0.337851
O O10 0.641480 0.848864 0.316134
O O11 0.730716 0.821948 0.395582
O O12 0.247299 0.872617 0.260619
O O13 0.541987 0.980458 0.282746
O O14 0.022082 0.250000 0.513100
O O15 0.039848 0.131851 0.464051
O O16 0.390833 0.162347 0.523814
O O17 0.700234 0.590103 0.751742
O O18 0.363540 0.750000 0.423182
#
# Coordination Sequence:
#
# PCOD9466562 Si02
#       8
#     8   8   8   8   8   8   8   8
#     4  12  27  48  70 102 138 176 221 271 344 415
#     4  11  23  39  67  95 129 175 235 281 325 390
#     4  10  22  39  61  92 132 177 226 277 331 388
#     4  10  23  40  62  93 132 169 213 267 334 400
#     4  10  22  42  63  94 135 179 227 280 338 395
#     4  12  28  43  71 100 139 180 220 279 341 408
#     4  10  22  42  70 100 130 170 219 274 330 392
#     4   9  20  37  62  92 126 173 227 277 325 384
#
# _framework density 21.649097999999999
#
# number of rings (size 3 to 8) (size 9 to 14) (size 15 to 20)
#    0.000    1.500    0.000    4.875    8.750    2.500 
#    0.000    0.000    0.000    0.000    0.000    0.000 
#    0.000    0.000    0.000    0.000    0.000    0.000 
#
# Total GULP energy -356959.880012 kJ/mol
# GULP energy per Si atom -5577.498125 kJ/mol
# Density = 2.159982 g / cm^3
# Si number density = 21.649098 Si / 1000 Ang^3
#
#
#
# Elastic Constant Matrix: (Units=GPa)
#
#
# Indices 1 2 3 4 5 6 
#
# 1 64.0901 -0.5124 7.9771 0.0000 0.0000 0.0000
# 2 -0.5124 51.8063 -3.8602 0.0000 0.0000 0.0000
# 3 7.9771 -3.8602 78.4981 0.0000 0.0000 0.0000
# 4 0.0000 0.0000 0.0000 -22.4260 0.0000 0.0000
# 5 0.0000 0.0000 0.0000 0.0000 32.5666 0.0000
# 6 0.0000 0.0000 0.0000 0.0000 0.0000 23.6370
#
#
#
# Elastic Compliance Matrix: (Units=1/GPa)
#
#
# Indices 1 2 3 4 5 6 
#
# 1 0.015803 0.000037 -0.001604 0.000000 0.000000 0.000000
# 2 0.000037 0.019374 0.000949 0.000000 0.000000 0.000000
# 3 -0.001604 0.000949 0.012949 0.000000 0.000000 0.000000
# 4 0.000000 0.000000 0.000000 -0.044591 0.000000 0.000000
# 5 0.000000 0.000000 0.000000 0.000000 0.030706 0.000000
# 6 0.000000 0.000000 0.000000 0.000000 0.000000 0.042306
#
#
# Mechanical properties :
#
#
# Convention : Reuss Voigt Hill
#
# Bulk Modulus (GPa) = 21.32703 22.40039 21.86371
# Shear Modulus (GPa) = 53.52532 19.47485 36.50008
#
# Velocity S-wave (km/s) = 4.97772 3.00253 4.11053
# Velocity P-wave (km/s) = 6.55054 4.73178 5.71399
#
# Compressibility (1/GPa) = 0.04688885
#
# Stress axis : x y z
#
# Youngs Moduli (GPa) = 63.27913 51.61622 77.22697
#
# Poissons Ratio (x) = -0.00190 0.12388
# Poissons Ratio (y) = -0.00233 -0.07329
# Poissons Ratio (z) = 0.10151 -0.04898
#
# Static dielectric constant tensor:
#      x y z
#    x 1.939700 0.000000 0.000000 
#    y 0.000000 1.850450 0.000000 
#    z 0.000000 0.000000 1.763350 
# 
# From -- ./inp_files/31700.got.cif
#   From: 2010.05.17/outbox.cif.g08.bks.cpg/sg62_16_cif.got.tgz:31700.got - 2010.06.03 15:25:27.
