data_PCOD9466590
_publ_section_title
;
Structure prediction by ZEFSAII (Michael W. Deem and Ramdas Pophale) SiO2 
 PCOD9466590
Probable space group: P N M A
;
_chemical_formula_sum "Si O2"
_cell_formula_units_Z 32
_cell_length_a 11.013617
_cell_length_b 7.320981
_cell_length_c 22.388714
_cell_angle_alpha 90.000000
_cell_angle_beta 90.000000
_cell_angle_gamma 90.000000
_cell_volume 1805.212774
_symmetry_space_group_name_H-M "P N M A"
_symmetry_group_IT_number 62
_symmetry_cell_setting 'orthorhombic'
loop_
_space_group_symop_operation_xyz
x,y,z
1/2-x,-y,1/2+z
1/2+x,1/2-y,1/2-z
-x,1/2+y,-z
-x,-y,-z
1/2+x,y,1/2-z
1/2-x,1/2+y,1/2+z
x,1/2-y,z
loop_
_atom_site_type_symbol
_atom_site_label
_atom_site_fract_x
_atom_site_fract_y
_atom_site_fract_z
Si Si1 0.508138 0.250000 0.908476
Si Si2 0.101304 0.969958 0.816786
Si Si3 0.902108 0.250000 0.857340
Si Si4 0.738692 0.750000 0.478432
Si Si5 0.804819 0.954379 0.586407
Si Si6 0.650254 0.250000 0.786559
O O1 0.627460 0.250000 0.949184
O O2 0.420546 0.420187 0.919990
O O3 0.554005 0.250000 0.840322
O O4 0.088926 0.750000 0.812207
O O5 0.210903 0.012967 0.862763
O O6 0.131018 0.072224 0.754897
O O7 0.982678 0.072169 0.842239
O O8 0.857463 0.250000 0.925682
O O9 0.783007 0.250000 0.815854
O O10 0.734599 0.922217 0.523700
O O11 0.846865 0.750000 0.602771
#
# Coordination Sequence:
#
# PCOD9466590 Si02
#       6
#     4   8   4   4   8   4
#     4  11  19  38  62  85 117 159 187 251 298 337
#     4  10  22  40  58  87 116 158 197 238 298 352
#     4  10  22  41  59  87 121 153 196 246 295 348
#     4   9  21  40  57  90 120 149 204 240 286 357
#     4   9  21  37  58  87 114 153 195 238 292 349
#     4  10  24  37  60  86 118 153 199 245 295 352
#
# _framework density 17.72644
#
# number of rings (size 3 to 8) (size 9 to 14) (size 15 to 20)
#    0.750    1.500    0.000    2.250    7.000    3.000 
#    2.250    2.500    0.000    0.000    0.000    0.000 
#    0.000    0.000    0.000    0.000    0.000    0.000 
#
# Total GULP energy -178296.712906 kJ/mol
# GULP energy per Si atom -5571.772278 kJ/mol
# Density = 1.768609 g / cm^3
# Si number density = 17.726440 Si / 1000 Ang^3
#
#
#
# Elastic Constant Matrix: (Units=GPa)
#
#
# Indices 1 2 3 4 5 6 
#
# 1 13.5974 3.8173 -13.1534 0.0000 0.0000 0.0000
# 2 3.8173 76.7263 3.3125 0.0000 0.0000 0.0000
# 3 -13.1534 3.3125 87.8234 0.0000 0.0000 0.0000
# 4 0.0000 0.0000 0.0000 10.1380 0.0000 0.0000
# 5 0.0000 0.0000 0.0000 0.0000 21.1744 0.0000
# 6 0.0000 0.0000 0.0000 0.0000 0.0000 28.1800
#
#
#
# Elastic Compliance Matrix: (Units=1/GPa)
#
#
# Indices 1 2 3 4 5 6 
#
# 1 0.087838 -0.004946 0.013342 0.000000 0.000000 0.000000
# 2 -0.004946 0.013333 -0.001244 0.000000 0.000000 0.000000
# 3 0.013342 -0.001244 0.013432 0.000000 0.000000 0.000000
# 4 0.000000 0.000000 0.000000 0.098638 0.000000 0.000000
# 5 0.000000 0.000000 0.000000 0.000000 0.047227 0.000000
# 6 0.000000 0.000000 0.000000 0.000000 0.000000 0.035486
#
#
# Mechanical properties :
#
#
# Convention : Reuss Voigt Hill
#
# Bulk Modulus (GPa) = 7.75748 18.45554 13.10651
# Shear Modulus (GPa) = 15.40267 24.17653 19.78960
#
# Velocity S-wave (km/s) = 2.95092 3.69707 3.34487
# Velocity P-wave (km/s) = 3.99954 5.35334 4.72518
#
# Compressibility (1/GPa) = 0.12890780
#
# Stress axis : x y z
#
# Youngs Moduli (GPa) = 11.38455 75.00120 74.45097
#
# Poissons Ratio (x) = 0.37097 -0.99334
# Poissons Ratio (y) = 0.05631 0.09259
# Poissons Ratio (z) = -0.15189 0.09328
#
# Static dielectric constant tensor:
#      x y z
#    x 1.572800 0.000000 0.000000 
#    y 0.000000 1.692620 0.000000 
#    z 0.000000 0.000000 1.615840 
# 
# From -- ./inp_files/28551.got.cif
#   From: 2010.05.17/outbox.cif.g08.bks.cpg/sg62_15_cif.got.tgz:28551.got - 2010.06.03 15:25:27.
