data_PCOD9466736
_publ_section_title
;
Structure prediction by ZEFSAII (Michael W. Deem and Ramdas Pophale) SiO2 
 PCOD9466736
Probable space group: P N M A
;
_chemical_formula_sum "Si O2"
_cell_formula_units_Z 36
_cell_length_a 7.644142
_cell_length_b 9.815519
_cell_length_c 19.098354
_cell_angle_alpha 90.000000
_cell_angle_beta 90.000000
_cell_angle_gamma 90.000000
_cell_volume 1432.972820
_symmetry_space_group_name_H-M "P N M A"
_symmetry_group_IT_number 62
_symmetry_cell_setting 'orthorhombic'
loop_
_space_group_symop_operation_xyz
x,y,z
1/2-x,-y,1/2+z
1/2+x,1/2-y,1/2-z
-x,1/2+y,-z
-x,-y,-z
1/2+x,y,1/2-z
1/2-x,1/2+y,1/2+z
x,1/2-y,z
loop_
_atom_site_type_symbol
_atom_site_label
_atom_site_fract_x
_atom_site_fract_y
_atom_site_fract_z
Si Si1 0.275741 0.533699 0.908257
Si Si2 0.914024 0.750000 0.491761
Si Si3 0.608797 0.750000 0.696052
Si Si4 0.231475 0.250000 0.654451
Si Si5 0.779481 0.750000 0.923152
Si Si6 0.132891 0.962878 0.678372
Si Si7 0.085204 0.250000 0.934800
O O1 0.318640 0.613522 0.980368
O O2 0.161924 0.632274 0.860571
O O3 0.459351 0.521416 0.867723
O O4 0.187538 0.388997 0.918799
O O5 0.910730 0.750000 0.408622
O O6 0.101261 0.750000 0.530759
O O7 0.583533 0.632005 0.757033
O O8 0.207965 0.389339 0.696768
O O9 0.411017 0.250000 0.611100
O O10 0.769095 0.622483 0.870132
O O11 0.930372 0.750000 0.980492
#
# Coordination Sequence:
#
# PCOD9466736 Si02
#       7
#     8   4   4   4   4   8   4
#     4  10  22  41  65  89 119 161 201 243 300 364
#     4   9  19  39  65  90 119 159 202 241 294 365
#     4  10  22  42  68  90 108 144 208 260 294 346
#     4  12  25  37  57  93 128 158 198 250 300 347
#     4   9  19  39  65  90 119 159 202 241 294 365
#     4  10  22  41  65  89 119 161 201 243 300 364
#     4  12  25  37  57  93 128 158 198 250 300 347
#
# _framework density 25.122598
#
# number of rings (size 3 to 8) (size 9 to 14) (size 15 to 20)
#    0.000    1.778    0.000    5.333    0.000   11.556 
#    0.000    6.667    0.000    0.000    0.000    0.000 
#    0.000    0.000    0.000    0.000    0.000    0.000 
#
# Total GULP energy -200852.387544 kJ/mol
# GULP energy per Si atom -5579.232987 kJ/mol
# Density = 2.506542 g / cm^3
# Si number density = 25.122598 Si / 1000 Ang^3
#
#
#
# Elastic Constant Matrix: (Units=GPa)
#
#
# Indices 1 2 3 4 5 6 
#
# 1 81.0647 36.6228 -1.9205 0.0000 0.0000 0.0000
# 2 36.6228 250.7934 42.7033 0.0000 0.0000 0.0000
# 3 -1.9205 42.7033 58.9551 0.0000 0.0000 0.0000
# 4 0.0000 0.0000 0.0000 85.5669 0.0000 0.0000
# 5 0.0000 0.0000 0.0000 0.0000 -5.4345 0.0000
# 6 0.0000 0.0000 0.0000 0.0000 0.0000 -10.2503
#
#
#
# Elastic Compliance Matrix: (Units=1/GPa)
#
#
# Indices 1 2 3 4 5 6 
#
# 1 0.013436 -0.002323 0.002120 0.000000 0.000000 0.000000
# 2 -0.002323 0.004950 -0.003661 0.000000 0.000000 0.000000
# 3 0.002120 -0.003661 0.019683 0.000000 0.000000 0.000000
# 4 0.000000 0.000000 0.000000 0.011687 0.000000 0.000000
# 5 0.000000 0.000000 0.000000 0.000000 -0.184010 0.000000
# 6 0.000000 0.000000 0.000000 0.000000 0.000000 -0.097559
#
#
# Mechanical properties :
#
#
# Convention : Reuss Voigt Hill
#
# Bulk Modulus (GPa) = 32.95882 60.62494 46.79188
# Shear Modulus (GPa) = -23.36750 34.87026 5.75138
#
# Velocity S-wave (km/s) = -3.05313 3.72963 1.51469
# Velocity P-wave (km/s) = 0.84788 6.53689 4.66100
#
# Compressibility (1/GPa) = 0.03034090
#
# Stress axis : x y z
#
# Youngs Moduli (GPa) = 74.42961 202.02207 50.80521
#
# Poissons Ratio (x) = 0.46929 -0.10772
# Poissons Ratio (y) = 0.17290 0.18600
# Poissons Ratio (z) = -0.15781 0.73962
#
# Static dielectric constant tensor:
#      x y z
#    x 2.122490 0.000000 0.000000 
#    y 0.000000 2.092950 0.000000 
#    z 0.000000 0.000000 1.718670 
# 
# From -- ./inp_files/25668.got.cif
#   From: 2010.05.17/outbox.cif.g08.bks.cpg/sg62_13_cif.got.tgz:25668.got - 2010.06.03 15:25:27.
