data_PCOD9466489
_publ_section_title
;
Structure prediction by ZEFSAII (Michael W. Deem and Ramdas Pophale) SiO2 
 PCOD9466489
Probable space group: P N M A
;
_chemical_formula_sum "Si O2"
_cell_formula_units_Z 48
_cell_length_a 17.585757
_cell_length_b 14.502208
_cell_length_c 9.841199
_cell_angle_alpha 90.000000
_cell_angle_beta 90.000000
_cell_angle_gamma 90.000000
_cell_volume 2509.823673
_symmetry_space_group_name_H-M "P N M A"
_symmetry_group_IT_number 62
_symmetry_cell_setting 'orthorhombic'
loop_
_space_group_symop_operation_xyz
x,y,z
1/2-x,-y,1/2+z
1/2+x,1/2-y,1/2-z
-x,1/2+y,-z
-x,-y,-z
1/2+x,y,1/2-z
1/2-x,1/2+y,1/2+z
x,1/2-y,z
loop_
_atom_site_type_symbol
_atom_site_label
_atom_site_fract_x
_atom_site_fract_y
_atom_site_fract_z
Si Si1 0.877997 0.250000 0.392221
Si Si2 0.038629 0.250000 0.545326
Si Si3 0.327035 0.941423 0.685952
Si Si4 0.790488 0.750000 0.955040
Si Si5 0.574377 0.045012 0.557943
Si Si6 0.654035 0.547648 0.803242
Si Si7 0.421151 0.750000 0.361902
Si Si8 0.080334 0.047039 0.455478
O O1 0.799442 0.250000 0.475669
O O2 0.871760 0.345013 0.306534
O O3 0.952199 0.250000 0.487331
O O4 0.050409 0.250000 0.707789
O O5 0.075135 0.155147 0.491644
O O6 0.315450 0.836122 0.636784
O O7 0.358244 0.983020 0.545651
O O8 0.242390 0.967877 0.732895
O O9 0.390566 0.957888 0.800698
O O10 0.830937 0.750000 0.101807
O O11 0.556503 0.153978 0.568510
O O12 0.500000 0.000000 0.500000
O O13 0.599666 0.009049 0.704107
O O14 0.641303 0.506908 0.953137
O O15 0.000000 0.000000 0.500000
#
# Coordination Sequence:
#
# PCOD9466489 Si02
#       8
#     4   4   8   4   8   8   4   8
#     4  10  22  37  66  89 121 159 212 260 300 363
#     4  12  23  38  63  94 128 162 201 259 309 370
#     4  10  22  39  64  89 121 162 209 252 305 369
#     4   8  19  42  61  88 117 167 206 252 309 366
#     4  11  23  40  63  90 125 162 202 254 314 363
#     4  11  22  42  62  90 122 164 207 255 306 367
#     4  10  22  41  60  87 128 162 199 251 310 375
#     4  12  23  39  64  94 124 163 210 255 311 371
#
# _framework density 19.124849000000001
#
# number of rings (size 3 to 8) (size 9 to 14) (size 15 to 20)
#    0.000    1.333    3.333    2.500    0.000    0.667 
#    0.000    0.000    0.000    0.000    0.000    0.000 
#    0.000    0.000    0.000    0.000    0.000    0.000 
#
# Total GULP energy -267467.058593 kJ/mol
# GULP energy per Si atom -5572.230387 kJ/mol
# Density = 1.908132 g / cm^3
# Si number density = 19.124849 Si / 1000 Ang^3
#
#
#
# Elastic Constant Matrix: (Units=GPa)
#
#
# Indices 1 2 3 4 5 6 
#
# 1 73.1412 17.9366 16.8815 0.0000 0.0000 0.0000
# 2 17.9366 101.3133 5.8739 0.0000 0.0000 0.0000
# 3 16.8815 5.8739 77.4144 0.0000 0.0000 0.0000
# 4 0.0000 0.0000 0.0000 10.3452 0.0000 0.0000
# 5 0.0000 0.0000 0.0000 0.0000 36.7623 0.0000
# 6 0.0000 0.0000 0.0000 0.0000 0.0000 22.8589
#
#
#
# Elastic Compliance Matrix: (Units=1/GPa)
#
#
# Indices 1 2 3 4 5 6 
#
# 1 0.014990 -0.002475 -0.003081 0.000000 0.000000 0.000000
# 2 -0.002475 0.010323 -0.000243 0.000000 0.000000 0.000000
# 3 -0.003081 -0.000243 0.013608 0.000000 0.000000 0.000000
# 4 0.000000 0.000000 0.000000 0.096664 0.000000 0.000000
# 5 0.000000 0.000000 0.000000 0.000000 0.027202 0.000000
# 6 0.000000 0.000000 0.000000 0.000000 0.000000 0.043747
#
#
# Mechanical properties :
#
#
# Convention : Reuss Voigt Hill
#
# Bulk Modulus (GPa) = 36.60152 37.02808 36.81480
# Shear Modulus (GPa) = 22.00320 28.07173 25.03746
#
# Velocity S-wave (km/s) = 3.39559 3.83536 3.62216
# Velocity P-wave (km/s) = 5.87819 6.24633 6.06505
#
# Compressibility (1/GPa) = 0.02732127
#
# Stress axis : x y z
#
# Youngs Moduli (GPa) = 66.70962 96.87377 73.48701
#
# Poissons Ratio (x) = 0.23979 0.22642
# Poissons Ratio (y) = 0.16512 0.01789
# Poissons Ratio (z) = 0.20554 0.02359
#
# Static dielectric constant tensor:
#      x y z
#    x 1.692980 0.000000 0.000000 
#    y 0.000000 1.679900 0.000000 
#    z 0.000000 0.000000 1.674590 
# 
# From -- ./inp_files/7718.got.cif
#   From: 2010.05.17/outbox.cif.g08.bks.cpg/sg62_4_cif.got.tgz:7718.got - 2010.06.03 15:25:27.
