data_PCOD9466339
_publ_section_title
;
Structure prediction by ZEFSAII (Michael W. Deem and Ramdas Pophale) SiO2 
 PCOD9466339
Probable space group: P N M A
;
_chemical_formula_sum "Si O2"
_cell_formula_units_Z 48
_cell_length_a 22.326420
_cell_length_b 8.622087
_cell_length_c 12.608803
_cell_angle_alpha 90.000000
_cell_angle_beta 90.000000
_cell_angle_gamma 90.000000
_cell_volume 2427.198810
_symmetry_space_group_name_H-M "P N M A"
_symmetry_group_IT_number 62
_symmetry_cell_setting 'orthorhombic'
loop_
_space_group_symop_operation_xyz
x,y,z
1/2-x,-y,1/2+z
1/2+x,1/2-y,1/2-z
-x,1/2+y,-z
-x,-y,-z
1/2+x,y,1/2-z
1/2-x,1/2+y,1/2+z
x,1/2-y,z
loop_
_atom_site_type_symbol
_atom_site_label
_atom_site_fract_x
_atom_site_fract_y
_atom_site_fract_z
Si Si1 0.932517 0.062138 0.512329
Si Si2 0.304923 0.935434 0.580878
Si Si3 0.860399 0.064993 0.134444
Si Si4 0.489008 0.564304 0.382723
Si Si5 0.174427 0.561099 0.638316
Si Si6 0.606624 0.563750 0.246959
O O1 0.935825 0.250000 0.510689
O O2 0.886038 0.010111 0.421186
O O3 0.903470 0.015994 0.625420
O O4 0.000000 0.000000 0.500000
O O5 0.305941 0.750000 0.578966
O O6 0.235887 0.989097 0.583039
O O7 0.337829 0.995752 0.475874
O O8 0.339518 0.990836 0.686162
O O9 0.858228 0.250000 0.125257
O O10 0.824059 0.014543 0.238501
O O11 0.928091 0.012346 0.156094
O O12 0.500000 0.500000 0.500000
O O13 0.482676 0.750000 0.386048
O O14 0.545483 0.525726 0.309647
O O15 0.173287 0.750000 0.636041
O O16 0.614111 0.750000 0.249087
#
# Coordination Sequence:
#
# PCOD9466339 Si02
#       6
#     8   8   8   8   8   8
#     4  10  21  41  65  90 121 157 199 248 304 361
#     4  11  23  39  60  88 119 158 205 246 298 360
#     4  11  22  39  61  86 119 155 197 247 298 354
#     4  11  21  35  56  87 122 156 197 245 297 351
#     4   9  22  41  61  86 120 159 197 244 301 358
#     4  10  22  38  60  88 122 158 197 248 304 356
#
# _framework density 19.775883
#
# number of rings (size 3 to 8) (size 9 to 14) (size 15 to 20)
#    0.000    1.667    1.667    2.500    2.333    1.333 
#    0.000    5.000    0.000    0.000    0.000    0.000 
#    0.000    0.000    0.000    0.000    0.000    0.000 
#
# Total GULP energy -268139.235785 kJ/mol
# GULP energy per Si atom -5586.234079 kJ/mol
# Density = 1.973087 g / cm^3
# Si number density = 19.775883 Si / 1000 Ang^3
#
#
#
# Elastic Constant Matrix: (Units=GPa)
#
#
# Indices 1 2 3 4 5 6 
#
# 1 122.3630 25.5213 40.1232 0.0000 0.0000 0.0000
# 2 25.5213 21.5545 22.0754 0.0000 0.0000 0.0000
# 3 40.1232 22.0754 111.5086 0.0000 0.0000 0.0000
# 4 0.0000 0.0000 0.0000 12.0293 0.0000 0.0000
# 5 0.0000 0.0000 0.0000 0.0000 21.7804 0.0000
# 6 0.0000 0.0000 0.0000 0.0000 0.0000 27.1254
#
#
#
# Elastic Compliance Matrix: (Units=1/GPa)
#
#
# Indices 1 2 3 4 5 6 
#
# 1 0.011118 -0.011373 -0.001749 0.000000 0.000000 0.000000
# 2 -0.011373 0.069827 -0.009731 0.000000 0.000000 0.000000
# 3 -0.001749 -0.009731 0.011524 0.000000 0.000000 0.000000
# 4 0.000000 0.000000 0.000000 0.083130 0.000000 0.000000
# 5 0.000000 0.000000 0.000000 0.000000 0.045913 0.000000
# 6 0.000000 0.000000 0.000000 0.000000 0.000000 0.036866
#
#
# Mechanical properties :
#
#
# Convention : Reuss Voigt Hill
#
# Bulk Modulus (GPa) = 21.38497 47.87399 34.62948
# Shear Modulus (GPa) = 15.64108 23.36742 19.50425
#
# Velocity S-wave (km/s) = 2.81538 3.44119 3.14389
# Velocity P-wave (km/s) = 4.62662 6.32850 5.54326
#
# Compressibility (1/GPa) = 0.04676182
#
# Stress axis : x y z
#
# Youngs Moduli (GPa) = 89.94476 14.32121 86.77701
#
# Poissons Ratio (x) = 0.16287 0.15177
# Poissons Ratio (y) = 1.02292 0.84446
# Poissons Ratio (z) = 0.15731 0.13937
#
# Static dielectric constant tensor:
#      x y z
#    x 1.688070 0.000000 0.000000 
#    y 0.000000 1.674540 0.000000 
#    z 0.000000 0.000000 1.695870 
# 
# From -- ./inp_files/15130.got.cif
#   From: 2010.05.17/outbox.cif.g08.bks.cpg/sg62_8_cif.got.tgz:15130.got - 2010.06.03 15:25:27.
