data_PCOD9466853
_publ_section_title
;
Structure prediction by ZEFSAII (Michael W. Deem and Ramdas Pophale) SiO2 
 PCOD9466853
Probable space group: P N M A
;
_chemical_formula_sum "Si O2"
_cell_formula_units_Z 40
_cell_length_a 17.741161
_cell_length_b 16.619715
_cell_length_c 5.673670
_cell_angle_alpha 90.000000
_cell_angle_beta 90.000000
_cell_angle_gamma 90.000000
_cell_volume 1672.898845
_symmetry_space_group_name_H-M "P N M A"
_symmetry_group_IT_number 62
_symmetry_cell_setting 'orthorhombic'
loop_
_space_group_symop_operation_xyz
x,y,z
1/2-x,-y,1/2+z
1/2+x,1/2-y,1/2-z
-x,1/2+y,-z
-x,-y,-z
1/2+x,y,1/2-z
1/2-x,1/2+y,1/2+z
x,1/2-y,z
loop_
_atom_site_type_symbol
_atom_site_label
_atom_site_fract_x
_atom_site_fract_y
_atom_site_fract_z
Si Si1 0.789150 0.750000 0.619379
Si Si2 0.051441 0.084263 0.729792
Si Si3 0.175790 0.872763 0.100090
Si Si4 0.595631 0.471439 0.274625
Si Si5 0.457949 0.750000 0.014134
Si Si6 0.927235 0.250000 0.131201
Si Si7 0.203548 0.750000 0.488398
O O1 0.741190 0.669197 0.556655
O O2 0.868236 0.750000 0.500709
O O3 0.785845 0.750000 0.898502
O O4 0.019318 0.170189 0.650789
O O5 0.983546 0.020173 0.751438
O O6 0.102562 0.061440 0.495685
O O7 0.087830 0.085061 0.992459
O O8 0.099432 0.830208 0.003096
O O9 0.160004 0.965360 0.145218
O O10 0.194471 0.830574 0.343659
O O11 0.492421 0.750000 0.752191
O O12 0.868805 0.250000 0.347153
#
# Coordination Sequence:
#
# PCOD9466853 Si02
#       7
#     4   8   8   8   4   4   4
#     4   9  22  40  61  98 133 180 236 270 345 419
#     4  10  25  40  66  99 141 170 216 287 341 412
#     4   9  19  38  66  91 124 176 228 285 326 420
#     4  10  22  43  66 103 130 172 226 280 346 397
#     4  12  24  44  62 100 139 185 217 296 356 418
#     4   9  20  32  63  96 119 167 218 271 343 399
#     4   8  16  36  60  98 119 170 219 283 320 412
#
# _framework density 23.910591
#
# number of rings (size 3 to 8) (size 9 to 14) (size 15 to 20)
#    0.000    2.800    0.000    1.200   14.000    2.400 
#    7.200    2.000    0.000    0.000    0.000    0.000 
#    0.000    0.000    0.000    0.000    0.000    0.000 
#
# Total GULP energy -222913.808698 kJ/mol
# GULP energy per Si atom -5572.845217 kJ/mol
# Density = 2.385617 g / cm^3
# Si number density = 23.910591 Si / 1000 Ang^3
#
#
#
# Elastic Constant Matrix: (Units=GPa)
#
#
# Indices 1 2 3 4 5 6 
#
# 1 61.9255 1.3763 23.2700 0.0000 0.0000 0.0000
# 2 1.3763 73.5600 34.4112 0.0000 0.0000 0.0000
# 3 23.2700 34.4112 133.1474 0.0000 0.0000 0.0000
# 4 0.0000 0.0000 0.0000 28.3936 0.0000 0.0000
# 5 0.0000 0.0000 0.0000 0.0000 0.7739 0.0000
# 6 0.0000 0.0000 0.0000 0.0000 0.0000 27.4769
#
#
#
# Elastic Compliance Matrix: (Units=1/GPa)
#
#
# Indices 1 2 3 4 5 6 
#
# 1 0.017383 0.001247 -0.003360 0.000000 0.000000 0.000000
# 2 0.001247 0.015553 -0.004238 0.000000 0.000000 0.000000
# 3 -0.003360 -0.004238 0.009193 0.000000 0.000000 0.000000
# 4 0.000000 0.000000 0.000000 0.035219 0.000000 0.000000
# 5 0.000000 0.000000 0.000000 0.000000 1.292122 0.000000
# 6 0.000000 0.000000 0.000000 0.000000 0.000000 0.036394
#
#
# Mechanical properties :
#
#
# Convention : Reuss Voigt Hill
#
# Bulk Modulus (GPa) = 33.98193 42.97198 38.47695
# Shear Modulus (GPa) = 3.50048 25.30059 14.40053
#
# Velocity S-wave (km/s) = 1.21127 3.25642 2.45677
# Velocity P-wave (km/s) = 4.02482 5.67010 4.91677
#
# Compressibility (1/GPa) = 0.02942741
#
# Stress axis : x y z
#
# Youngs Moduli (GPa) = 57.52604 64.29491 108.77946
#
# Poissons Ratio (x) = -0.08016 0.36553
# Poissons Ratio (y) = -0.07172 0.46096
# Poissons Ratio (z) = 0.19330 0.27245
#
# Static dielectric constant tensor:
#      x y z
#    x 1.945240 0.000000 0.000000 
#    y 0.000000 1.939240 0.000000 
#    z 0.000000 0.000000 2.022770 
# 
# From -- ./inp_files/1597.got.cif
#   From: 2010.05.17/outbox.cif.g08.bks.cpg/sg62_1_cif.got.tgz:1597.got - 2010.06.03 15:25:27.
