data_PCOD9466038
_publ_section_title
;
Structure prediction by ZEFSAII (Michael W. Deem and Ramdas Pophale) SiO2 
 PCOD9466038
Probable space group: P N M A
;
_chemical_formula_sum "Si O2"
_cell_formula_units_Z 40
_cell_length_a 15.117055
_cell_length_b 17.651407
_cell_length_c 7.285272
_cell_angle_alpha 90.000000
_cell_angle_beta 90.000000
_cell_angle_gamma 90.000000
_cell_volume 1943.982241
_symmetry_space_group_name_H-M "P N M A"
_symmetry_group_IT_number 62
_symmetry_cell_setting 'orthorhombic'
loop_
_space_group_symop_operation_xyz
x,y,z
1/2-x,-y,1/2+z
1/2+x,1/2-y,1/2-z
-x,1/2+y,-z
-x,-y,-z
1/2+x,y,1/2-z
1/2-x,1/2+y,1/2+z
x,1/2-y,z
loop_
_atom_site_type_symbol
_atom_site_label
_atom_site_fract_x
_atom_site_fract_y
_atom_site_fract_z
Si Si1 0.559696 0.333756 0.426944
Si Si2 0.977781 0.902270 0.317606
Si Si3 0.408796 0.165730 0.137893
Si Si4 0.170435 0.512792 0.732730
Si Si5 0.131523 0.007129 0.156242
O O1 0.598177 0.250000 0.399547
O O2 0.547629 0.351833 0.641765
O O3 0.464771 0.334585 0.326278
O O4 0.613371 0.403171 0.340230
O O5 0.947348 0.038410 0.749359
O O6 0.020146 0.853734 0.479515
O O7 0.107828 0.047685 0.629582
O O8 0.371555 0.250000 0.109304
O O9 0.341370 0.095962 0.147106
O O10 0.272192 0.489136 0.735139
O O11 0.134516 0.513871 0.940609
#
# Coordination Sequence:
#
# PCOD9466038 Si02
#       5
#     8   8   8   8   8
#     4  10  21  39  60  86 120 153 194 246 301 356
#     4  11  21  41  62  90 117 159 202 251 294 357
#     4  11  22  37  62  88 117 157 196 243 303 355
#     4  11  22  38  62  90 122 156 206 248 296 357
#     4  11  22  38  62  90 120 161 201 250 300 351
#
# _framework density 20.576321
#
# number of rings (size 3 to 8) (size 9 to 14) (size 15 to 20)
#    0.000    1.200    4.000    3.600    2.800    0.800 
#    0.000    0.000    0.000    4.800    0.000    0.000 
#    0.000    0.000    0.000    0.000    0.000    0.000 
#
# Total GULP energy -223608.355699 kJ/mol
# GULP energy per Si atom -5590.208892 kJ/mol
# Density = 2.052949 g / cm^3
# Si number density = 20.576321 Si / 1000 Ang^3
#
#
#
# Elastic Constant Matrix: (Units=GPa)
#
#
# Indices 1 2 3 4 5 6 
#
# 1 81.1502 18.2588 -18.4885 0.0000 0.0000 0.0000
# 2 18.2588 118.8299 10.0756 0.0000 0.0000 0.0000
# 3 -18.4885 10.0756 36.9484 0.0000 0.0000 0.0000
# 4 0.0000 0.0000 0.0000 17.6041 0.0000 0.0000
# 5 0.0000 0.0000 0.0000 0.0000 19.2336 0.0000
# 6 0.0000 0.0000 0.0000 0.0000 0.0000 11.1900
#
#
#
# Elastic Compliance Matrix: (Units=1/GPa)
#
#
# Indices 1 2 3 4 5 6 
#
# 1 0.014876 -0.002986 0.008258 0.000000 0.000000 0.000000
# 2 -0.002986 0.009214 -0.004007 0.000000 0.000000 0.000000
# 3 0.008258 -0.004007 0.032290 0.000000 0.000000 0.000000
# 4 0.000000 0.000000 0.000000 0.056805 0.000000 0.000000
# 5 0.000000 0.000000 0.000000 0.000000 0.051992 0.000000
# 6 0.000000 0.000000 0.000000 0.000000 0.000000 0.089366
#
#
# Mechanical properties :
#
#
# Convention : Reuss Voigt Hill
#
# Bulk Modulus (GPa) = 16.97495 28.51337 22.74416
# Shear Modulus (GPa) = 18.40614 24.74438 21.57526
#
# Velocity S-wave (km/s) = 2.99411 3.47157 3.24164
# Velocity P-wave (km/s) = 4.49673 5.47325 5.00885
#
# Compressibility (1/GPa) = 0.05891033
#
# Stress axis : x y z
#
# Youngs Moduli (GPa) = 67.22182 108.53129 30.96975
#
# Poissons Ratio (x) = 0.32407 -0.25575
# Poissons Ratio (y) = 0.20072 0.12409
# Poissons Ratio (z) = -0.55512 0.43485
#
# Static dielectric constant tensor:
#      x y z
#    x 1.708000 0.000000 0.000000 
#    y 0.000000 1.733710 0.000000 
#    z 0.000000 0.000000 1.769630 
# 
# From -- ./inp_files/6589.got.cif
#   From: 2010.05.17/outbox.cif.g08.bks.cpg/sg62_4_cif.got.tgz:6589.got - 2010.06.03 15:25:27.
