data_PCOD9466655
_publ_section_title
;
Structure prediction by ZEFSAII (Michael W. Deem and Ramdas Pophale) SiO2 
 PCOD9466655
Probable space group: P N M A
;
_chemical_formula_sum "Si O2"
_cell_formula_units_Z 32
_cell_length_a 14.932490
_cell_length_b 10.328308
_cell_length_c 9.797810
_cell_angle_alpha 90.000000
_cell_angle_beta 90.000000
_cell_angle_gamma 90.000000
_cell_volume 1511.090330
_symmetry_space_group_name_H-M "P N M A"
_symmetry_group_IT_number 62
_symmetry_cell_setting 'orthorhombic'
loop_
_space_group_symop_operation_xyz
x,y,z
1/2-x,-y,1/2+z
1/2+x,1/2-y,1/2-z
-x,1/2+y,-z
-x,-y,-z
1/2+x,y,1/2-z
1/2-x,1/2+y,1/2+z
x,1/2-y,z
loop_
_atom_site_type_symbol
_atom_site_label
_atom_site_fract_x
_atom_site_fract_y
_atom_site_fract_z
Si Si1 0.536568 0.896836 0.107806
Si Si2 0.072182 0.106411 0.887570
Si Si3 0.734105 0.968196 0.192009
Si Si4 0.174021 0.897282 0.023111
O O1 0.516720 0.750000 0.063051
O O2 0.489660 0.915074 0.255420
O O3 0.642812 0.912715 0.129855
O O4 0.500000 0.000000 0.000000
O O5 0.052916 0.250000 0.947484
O O6 0.175633 0.112778 0.832345
O O7 0.086217 0.977673 0.980088
O O8 0.718057 0.975382 0.352702
O O9 0.760244 0.096008 0.107089
O O10 0.157842 0.750000 0.064992
#
# Coordination Sequence:
#
# PCOD9466655 Si02
#       4
#     8   8   8   8
#     4  11  23  40  65  93 126 170 212 262 320 380
#     4   9  21  39  59  89 125 160 207 259 313 371
#     4  10  22  41  66  89 127 168 209 261 317 372
#     4  10  22  40  64  92 126 169 214 260 318 380
#
# _framework density 21.176760999999999
#
# number of rings (size 3 to 8) (size 9 to 14) (size 15 to 20)
#    1.500    0.500    0.000    3.750    0.000    6.000 
#    0.000    0.000    0.000    0.000    0.000    0.000 
#    0.000    0.000    0.000    0.000    0.000    0.000 
#
# Total GULP energy -178219.408457 kJ/mol
# GULP energy per Si atom -5569.356514 kJ/mol
# Density = 2.112856 g / cm^3
# Si number density = 21.176761 Si / 1000 Ang^3
#
#
#
# Elastic Constant Matrix: (Units=GPa)
#
#
# Indices 1 2 3 4 5 6 
#
# 1 95.0911 0.8114 13.4834 0.0000 0.0000 0.0000
# 2 0.8114 87.4988 49.9947 0.0000 0.0000 0.0000
# 3 13.4834 49.9947 83.0996 0.0000 0.0000 0.0000
# 4 0.0000 0.0000 0.0000 26.1340 0.0000 0.0000
# 5 0.0000 0.0000 0.0000 0.0000 32.4011 0.0000
# 6 0.0000 0.0000 0.0000 0.0000 0.0000 -18.5628
#
#
#
# Elastic Compliance Matrix: (Units=1/GPa)
#
#
# Indices 1 2 3 4 5 6 
#
# 1 0.010873 0.001382 -0.002596 0.000000 0.000000 0.000000
# 2 0.001382 0.017591 -0.010807 0.000000 0.000000 0.000000
# 3 -0.002596 -0.010807 0.018957 0.000000 0.000000 0.000000
# 4 0.000000 0.000000 0.000000 0.038264 0.000000 0.000000
# 5 0.000000 0.000000 0.000000 0.000000 0.030863 0.000000
# 6 0.000000 0.000000 0.000000 0.000000 0.000000 -0.053871
#
#
# Mechanical properties :
#
#
# Convention : Reuss Voigt Hill
#
# Bulk Modulus (GPa) = 42.77399 43.80759 43.29079
# Shear Modulus (GPa) = 52.90356 21.42112 37.16234
#
# Velocity S-wave (km/s) = 5.00361 3.18392 4.19365
# Velocity P-wave (km/s) = 7.32283 5.85218 6.62842
#
# Compressibility (1/GPa) = 0.02337869
#
# Stress axis : x y z
#
# Youngs Moduli (GPa) = 91.97509 56.84716 52.75108
#
# Poissons Ratio (x) = -0.07858 0.13693
# Poissons Ratio (y) = -0.12714 0.57011
# Poissons Ratio (z) = 0.23875 0.61437
#
# Static dielectric constant tensor:
#      x y z
#    x 1.823420 0.000000 0.000000 
#    y 0.000000 1.743130 0.000000 
#    z 0.000000 0.000000 1.778230 
# 
# From -- ./inp_files/7213.got.cif
#   From: 2010.05.17/outbox.cif.g08.bks.cpg/sg62_4_cif.got.tgz:7213.got - 2010.06.03 15:25:27.
