data_PCOD9466641
_publ_section_title
;
Structure prediction by ZEFSAII (Michael W. Deem and Ramdas Pophale) SiO2 
 PCOD9466641
Probable space group: P N M A
;
_chemical_formula_sum "Si O2"
_cell_formula_units_Z 40
_cell_length_a 8.501681
_cell_length_b 8.638124
_cell_length_c 24.752832
_cell_angle_alpha 90.000000
_cell_angle_beta 90.000000
_cell_angle_gamma 90.000000
_cell_volume 1817.812702
_symmetry_space_group_name_H-M "P N M A"
_symmetry_group_IT_number 62
_symmetry_cell_setting 'orthorhombic'
loop_
_space_group_symop_operation_xyz
x,y,z
1/2-x,-y,1/2+z
1/2+x,1/2-y,1/2-z
-x,1/2+y,-z
-x,-y,-z
1/2+x,y,1/2-z
1/2-x,1/2+y,1/2+z
x,1/2-y,z
loop_
_atom_site_type_symbol
_atom_site_label
_atom_site_fract_x
_atom_site_fract_y
_atom_site_fract_z
Si Si1 0.663943 0.936584 0.628848
Si Si2 0.170086 0.435314 0.074449
Si Si3 0.356288 0.066950 0.178458
Si Si4 0.829487 0.431142 0.728767
Si Si5 0.660626 0.433636 0.023522
O O1 0.672958 0.750000 0.637955
O O2 0.495998 0.971149 0.602157
O O3 0.793097 0.982895 0.583886
O O4 0.699173 0.023812 0.684046
O O5 0.176181 0.250000 0.066070
O O6 0.304850 0.476599 0.118042
O O7 0.203348 0.517914 0.018263
O O8 0.389854 0.250000 0.179157
O O9 0.210912 0.029270 0.218087
O O10 0.505250 0.977681 0.202111
O O11 0.824906 0.250000 0.741295
O O12 0.648311 0.250000 0.024979
O O13 0.500000 0.500000 0.000000
#
# Coordination Sequence:
#
# PCOD9466641 Si02
#       5
#     8   8   8   8   8
#     4  10  22  41  62  87 120 161 203 244 300 369
#     4  10  22  40  63  88 116 154 202 249 297 357
#     4  11  23  41  64  88 119 162 203 244 301 370
#     4  12  25  40  62  93 124 156 200 256 304 350
#     4  11  23  38  60  88 121 159 200 247 300 358
#
# _framework density 22.004467000000002
#
# number of rings (size 3 to 8) (size 9 to 14) (size 15 to 20)
#    0.000    1.200    0.000    6.000    0.000   10.400 
#    0.000    0.000    0.000    0.000    0.000    0.000 
#    0.000    0.000    0.000    0.000    0.000    0.000 
#
# Total GULP energy -223995.752493 kJ/mol
# GULP energy per Si atom -5599.893812 kJ/mol
# Density = 2.195438 g / cm^3
# Si number density = 22.004467 Si / 1000 Ang^3
#
#
#
# Elastic Constant Matrix: (Units=GPa)
#
#
# Indices 1 2 3 4 5 6 
#
# 1 59.3845 -1.3346 -18.6067 0.0000 0.0000 0.0000
# 2 -1.3346 17.1432 5.7780 0.0000 0.0000 0.0000
# 3 -18.6067 5.7780 75.7483 0.0000 0.0000 0.0000
# 4 0.0000 0.0000 0.0000 25.7451 0.0000 0.0000
# 5 0.0000 0.0000 0.0000 0.0000 35.2799 0.0000
# 6 0.0000 0.0000 0.0000 0.0000 0.0000 28.4938
#
#
#
# Elastic Compliance Matrix: (Units=1/GPa)
#
#
# Indices 1 2 3 4 5 6 
#
# 1 0.018244 -0.000093 0.004488 0.000000 0.000000 0.000000
# 2 -0.000093 0.059872 -0.004590 0.000000 0.000000 0.000000
# 3 0.004488 -0.004590 0.014654 0.000000 0.000000 0.000000
# 4 0.000000 0.000000 0.000000 0.038842 0.000000 0.000000
# 5 0.000000 0.000000 0.000000 0.000000 0.028345 0.000000
# 6 0.000000 0.000000 0.000000 0.000000 0.000000 0.035095
#
#
# Mechanical properties :
#
#
# Convention : Reuss Voigt Hill
#
# Bulk Modulus (GPa) = 10.82460 13.77217 12.29838
# Shear Modulus (GPa) = 22.10100 28.99970 25.55035
#
# Velocity S-wave (km/s) = 3.17264 3.63423 3.41125
# Velocity P-wave (km/s) = 4.28379 4.88698 4.59529
#
# Compressibility (1/GPa) = 0.09238217
#
# Stress axis : x y z
#
# Youngs Moduli (GPa) = 54.81360 16.70230 68.23966
#
# Poissons Ratio (x) = 0.00155 -0.30629
# Poissons Ratio (y) = 0.00507 0.31320
# Poissons Ratio (z) = -0.24602 0.07666
#
# Static dielectric constant tensor:
#      x y z
#    x 1.867690 0.000000 0.000000 
#    y 0.000000 1.728060 0.000000 
#    z 0.000000 0.000000 1.805440 
# 
# From -- ./inp_files/28556.got.cif
#   From: 2010.05.17/outbox.cif.g08.bks.cpg/sg62_15_cif.got.tgz:28556.got - 2010.06.03 15:25:27.
