data_PCOD9466829
_publ_section_title
;
Structure prediction by ZEFSAII (Michael W. Deem and Ramdas Pophale) SiO2 
 PCOD9466829
Probable space group: P N M A
;
_chemical_formula_sum "Si O2"
_cell_formula_units_Z 60
_cell_length_a 9.320848
_cell_length_b 25.757445
_cell_length_c 9.828016
_cell_angle_alpha 90.000000
_cell_angle_beta 90.000000
_cell_angle_gamma 90.000000
_cell_volume 2359.522167
_symmetry_space_group_name_H-M "P N M A"
_symmetry_group_IT_number 62
_symmetry_cell_setting 'orthorhombic'
loop_
_space_group_symop_operation_xyz
x,y,z
1/2-x,-y,1/2+z
1/2+x,1/2-y,1/2-z
-x,1/2+y,-z
-x,-y,-z
1/2+x,y,1/2-z
1/2-x,1/2+y,1/2+z
x,1/2-y,z
loop_
_atom_site_type_symbol
_atom_site_label
_atom_site_fract_x
_atom_site_fract_y
_atom_site_fract_z
Si Si1 0.391369 0.826464 0.569108
Si Si2 0.353806 0.345700 0.269228
Si Si3 0.091488 0.855230 0.249840
Si Si4 0.667161 0.088160 0.614448
Si Si5 0.008993 0.563917 0.626927
Si Si6 0.218164 0.499184 0.201215
Si Si7 0.040021 0.250000 0.828432
Si Si8 0.251244 0.409354 0.521698
O O1 0.542551 0.811705 0.637502
O O2 0.265100 0.818930 0.676884
O O3 0.392041 0.888185 0.527618
O O4 0.388404 0.794793 0.429514
O O5 0.460668 0.377811 0.174069
O O6 0.288082 0.388782 0.372076
O O7 0.184246 0.879602 0.370165
O O8 0.201697 0.862610 0.121288
O O9 0.954215 0.890423 0.216882
O O10 0.041561 0.796372 0.257949
O O11 0.708129 0.031904 0.674294
O O12 0.912566 0.531662 0.733502
O O13 0.910599 0.569359 0.493838
O O14 0.163304 0.536314 0.626914
O O15 0.168365 0.541872 0.090385
#
# Coordination Sequence:
#
# PCOD9466829 Si02
#       8
#     8   8   8   8   8   8   4   8
#     4  11  25  44  71  95 137 180 224 282 346 410
#     4  12  23  44  63  94 136 186 224 284 346 387
#     4  10  22  42  70  98 133 174 218 280 351 410
#     4  10  22  43  66  99 137 181 217 284 351 404
#     4  12  24  40  61  97 131 184 238 288 330 407
#     4  11  24  38  63  96 130 181 239 279 338 419
#     4  10  22  44  74 100 124 168 218 272 328 418
#     4  11  22  42  62  90 139 179 225 288 346 392
#
# _framework density 25.428878000000001
#
# number of rings (size 3 to 8) (size 9 to 14) (size 15 to 20)
#    0.000    1.067    5.333    2.000    0.000    8.533 
#    0.000    0.000    0.000    6.400    0.000    0.000 
#    0.000    0.000    0.000    0.000    0.000    0.000 
#
# Total GULP energy -334274.028131 kJ/mol
# GULP energy per Si atom -5571.233802 kJ/mol
# Density = 2.537100 g / cm^3
# Si number density = 25.428878 Si / 1000 Ang^3
#
#
#
# Elastic Constant Matrix: (Units=GPa)
#
#
# Indices 1 2 3 4 5 6 
#
# 1 115.8495 19.5252 10.9603 0.0000 0.0000 0.0000
# 2 19.5252 79.2018 -0.8532 0.0000 0.0000 0.0000
# 3 10.9603 -0.8532 74.2561 0.0000 0.0000 0.0000
# 4 0.0000 0.0000 0.0000 40.9619 0.0000 0.0000
# 5 0.0000 0.0000 0.0000 0.0000 45.1963 0.0000
# 6 0.0000 0.0000 0.0000 0.0000 0.0000 66.2542
#
#
#
# Elastic Compliance Matrix: (Units=1/GPa)
#
#
# Indices 1 2 3 4 5 6 
#
# 1 0.009144 -0.002269 -0.001376 0.000000 0.000000 0.000000
# 2 -0.002269 0.013191 0.000486 0.000000 0.000000 0.000000
# 3 -0.001376 0.000486 0.013676 0.000000 0.000000 0.000000
# 4 0.000000 0.000000 0.000000 0.024413 0.000000 0.000000
# 5 0.000000 0.000000 0.000000 0.000000 0.022126 0.000000
# 6 0.000000 0.000000 0.000000 0.000000 0.000000 0.015093
#
#
# Mechanical properties :
#
#
# Convention : Reuss Voigt Hill
#
# Bulk Modulus (GPa) = 33.67715 36.50799 35.09257
# Shear Modulus (GPa) = 43.91449 46.46081 45.18765
#
# Velocity S-wave (km/s) = 4.16017 4.27908 4.22005
# Velocity P-wave (km/s) = 6.02897 6.22914 6.12987
#
# Compressibility (1/GPa) = 0.02969373
#
# Stress axis : x y z
#
# Youngs Moduli (GPa) = 109.35537 75.81140 73.12307
#
# Poissons Ratio (x) = 0.17203 0.10060
# Poissons Ratio (y) = 0.24815 -0.03557
# Poissons Ratio (z) = 0.15045 -0.03688
#
# Static dielectric constant tensor:
#      x y z
#    x 2.049530 0.000000 0.000000 
#    y 0.000000 2.040830 0.000000 
#    z 0.000000 0.000000 2.120570 
# 
# From -- ./inp_files/11517.got.cif
#   From: 2010.05.17/outbox.cif.g08.bks.cpg/sg62_6_cif.got.tgz:11517.got - 2010.06.03 15:25:27.
