data_PCOD9466834
_publ_section_title
;
Structure prediction by ZEFSAII (Michael W. Deem and Ramdas Pophale) SiO2 
 PCOD9466834
Probable space group: P N M A
;
_chemical_formula_sum "Si O2"
_cell_formula_units_Z 60
_cell_length_a 21.030104
_cell_length_b 7.519361
_cell_length_c 15.543038
_cell_angle_alpha 90.000000
_cell_angle_beta 90.000000
_cell_angle_gamma 90.000000
_cell_volume 2457.866355
_symmetry_space_group_name_H-M "P N M A"
_symmetry_group_IT_number 62
_symmetry_cell_setting 'orthorhombic'
loop_
_space_group_symop_operation_xyz
x,y,z
1/2-x,-y,1/2+z
1/2+x,1/2-y,1/2-z
-x,1/2+y,-z
-x,-y,-z
1/2+x,y,1/2-z
1/2-x,1/2+y,1/2+z
x,1/2-y,z
loop_
_atom_site_type_symbol
_atom_site_label
_atom_site_fract_x
_atom_site_fract_y
_atom_site_fract_z
Si Si1 0.760555 0.453777 0.733605
Si Si2 0.754914 0.958362 0.430054
Si Si3 0.842397 0.750000 0.951640
Si Si4 0.098516 0.047190 0.316364
Si Si5 0.131250 0.544956 0.836459
Si Si6 0.073813 0.961040 0.012660
Si Si7 0.038538 0.967835 0.687455
Si Si8 0.398029 0.464024 0.013272
O O1 0.740615 0.250000 0.735475
O O2 0.752924 0.520721 0.830855
O O3 0.833301 0.464092 0.704550
O O4 0.706826 0.542356 0.675370
O O5 0.737184 0.750000 0.437989
O O6 0.709560 0.093703 0.477950
O O7 0.827008 0.982602 0.458926
O O8 0.892500 0.590333 0.919985
O O9 0.104459 0.250000 0.287652
O O10 0.031407 0.971383 0.283139
O O11 0.089657 0.041720 0.419638
O O12 0.111380 0.750000 0.843817
O O13 0.105120 0.463030 0.923809
O O14 0.094208 0.474992 0.752665
O O15 0.084113 0.750000 0.026557
O O16 0.000000 0.000000 0.000000
O O17 0.037436 0.750000 0.685691
O O18 0.056308 0.024491 0.590753
O O19 0.401302 0.250000 0.006912
#
# Coordination Sequence:
#
# PCOD9466834 Si02
#       8
#     8   8   4   8   8   8   8   8
#     4  11  25  43  65  99 136 176 230 290 350 421
#     4  11  25  44  68 104 137 182 234 287 354 419
#     4  12  26  44  76  96 144 178 232 294 352 416
#     4  11  24  39  64  98 139 175 225 283 345 412
#     4  10  22  42  72  98 130 179 238 289 347 421
#     4  11  25  46  71 106 141 188 241 294 357 428
#     4   9  20  41  67  96 129 180 230 278 347 416
#     4  11  21  40  68  96 135 180 227 282 343 415
#
# _framework density 24.411415999999999
#
# number of rings (size 3 to 8) (size 9 to 14) (size 15 to 20)
#    0.000    1.333    2.667    2.000    4.667    1.067 
#    2.400    3.333    0.000    0.000    0.000    0.000 
#    0.000    0.000    0.000    0.000    0.000    0.000 
#
# Total GULP energy -334629.553930 kJ/mol
# GULP energy per Si atom -5577.159232 kJ/mol
# Density = 2.435585 g / cm^3
# Si number density = 24.411416 Si / 1000 Ang^3
#
#
#
# Elastic Constant Matrix: (Units=GPa)
#
#
# Indices 1 2 3 4 5 6 
#
# 1 170.4574 13.8455 5.0516 0.0000 0.0000 0.0000
# 2 13.8455 118.3593 8.7362 0.0000 0.0000 0.0000
# 3 5.0516 8.7362 42.9525 0.0000 0.0000 0.0000
# 4 0.0000 0.0000 0.0000 -7.0963 0.0000 0.0000
# 5 0.0000 0.0000 0.0000 0.0000 24.8530 0.0000
# 6 0.0000 0.0000 0.0000 0.0000 0.0000 26.7233
#
#
#
# Elastic Compliance Matrix: (Units=1/GPa)
#
#
# Indices 1 2 3 4 5 6 
#
# 1 0.005936 -0.000653 -0.000565 0.000000 0.000000 0.000000
# 2 -0.000653 0.008649 -0.001682 0.000000 0.000000 0.000000
# 3 -0.000565 -0.001682 0.023690 0.000000 0.000000 0.000000
# 4 0.000000 0.000000 0.000000 -0.140919 0.000000 0.000000
# 5 0.000000 0.000000 0.000000 0.000000 0.040237 0.000000
# 6 0.000000 0.000000 0.000000 0.000000 0.000000 0.037421
#
#
# Mechanical properties :
#
#
# Convention : Reuss Voigt Hill
#
# Bulk Modulus (GPa) = 30.79306 43.00398 36.89852
# Shear Modulus (GPa) = -598.11968 29.17173 -284.47397
#
# Velocity S-wave (km/s) = -15.66998 3.46063 -10.80676
# Velocity P-wave (km/s) = 17.74137 5.79850 11.85609
#
# Compressibility (1/GPa) = 0.03247485
#
# Stress axis : x y z
#
# Youngs Moduli (GPa) = 168.45397 115.61521 42.21148
#
# Poissons Ratio (x) = 0.07546 0.02387
# Poissons Ratio (y) = 0.10995 0.07102
# Poissons Ratio (z) = 0.09525 0.19452
#
# Static dielectric constant tensor:
#      x y z
#    x 1.975100 0.000000 0.000000 
#    y 0.000000 1.879690 0.000000 
#    z 0.000000 0.000000 2.174210 
# 
# From -- ./inp_files/24407.got.cif
#   From: 2010.05.17/outbox.cif.g08.bks.cpg/sg62_13_cif.got.tgz:24407.got - 2010.06.03 15:25:27.
