data_PCOD9466100
_publ_section_title
;
Structure prediction by ZEFSAII (Michael W. Deem and Ramdas Pophale) SiO2 
 PCOD9466100
Probable space group: P N M A
;
_chemical_formula_sum "Si O2"
_cell_formula_units_Z 44
_cell_length_a 9.447063
_cell_length_b 9.301852
_cell_length_c 21.179460
_cell_angle_alpha 90.000000
_cell_angle_beta 90.000000
_cell_angle_gamma 90.000000
_cell_volume 1861.148899
_symmetry_space_group_name_H-M "P N M A"
_symmetry_group_IT_number 62
_symmetry_cell_setting 'orthorhombic'
loop_
_space_group_symop_operation_xyz
x,y,z
1/2-x,-y,1/2+z
1/2+x,1/2-y,1/2-z
-x,1/2+y,-z
-x,-y,-z
1/2+x,y,1/2-z
1/2-x,1/2+y,1/2+z
x,1/2-y,z
loop_
_atom_site_type_symbol
_atom_site_label
_atom_site_fract_x
_atom_site_fract_y
_atom_site_fract_z
Si Si1 0.899832 0.414955 0.627527
Si Si2 0.810985 0.912101 0.427344
Si Si3 0.916871 0.579162 0.245100
Si Si4 0.453279 0.750000 0.515274
Si Si5 0.333390 0.576948 0.683905
Si Si6 0.656588 0.973982 0.556799
O O1 0.852631 0.250000 0.624045
O O2 0.986406 0.431519 0.691716
O O3 0.766070 0.513266 0.613876
O O4 0.020976 0.436603 0.574428
O O5 0.786590 0.750000 0.400587
O O6 0.738521 0.028266 0.382027
O O7 0.745131 0.915013 0.496324
O O8 0.891805 0.750000 0.232647
O O9 0.016005 0.501885 0.193765
O O10 0.774742 0.494166 0.264259
O O11 0.397407 0.626444 0.466625
O O12 0.523714 0.627770 0.561493
O O13 0.339688 0.750000 0.690029
#
# Coordination Sequence:
#
# PCOD9466100 Si02
#       6
#     8   8   8   4   8   8
#     4   9  19  37  64  86 113 150 200 247 290 351
#     4  10  21  39  63  86 115 156 203 246 298 364
#     4  10  21  43  65  89 120 164 207 247 302 372
#     4  10  24  36  58  78 132 158 194 240 290 362
#     4  11  23  41  62  94 124 155 203 262 307 353
#     4  11  20  42  55  88 119 160 196 243 297 359
#
# _framework density 23.641311999999999
#
# number of rings (size 3 to 8) (size 9 to 14) (size 15 to 20)
#    0.000    1.818    1.818    3.818    1.273    0.000 
#   14.727    0.000    0.000    0.000    0.000    0.000 
#    0.000    0.000    0.000    0.000    0.000    0.000 
#
# Total GULP energy -245051.745471 kJ/mol
# GULP energy per Si atom -5569.357852 kJ/mol
# Density = 2.358750 g / cm^3
# Si number density = 23.641312 Si / 1000 Ang^3
#
#
#
# Elastic Constant Matrix: (Units=GPa)
#
#
# Indices 1 2 3 4 5 6 
#
# 1 109.2888 48.9781 18.0915 0.0000 0.0000 0.0000
# 2 48.9781 174.8721 14.2945 0.0000 0.0000 0.0000
# 3 18.0915 14.2945 62.0326 0.0000 0.0000 0.0000
# 4 0.0000 0.0000 0.0000 -26.5476 0.0000 0.0000
# 5 0.0000 0.0000 0.0000 0.0000 52.5476 0.0000
# 6 0.0000 0.0000 0.0000 0.0000 0.0000 18.9853
#
#
#
# Elastic Compliance Matrix: (Units=1/GPa)
#
#
# Indices 1 2 3 4 5 6 
#
# 1 0.010833 -0.002829 -0.002507 0.000000 0.000000 0.000000
# 2 -0.002829 0.006567 -0.000688 0.000000 0.000000 0.000000
# 3 -0.002507 -0.000688 0.017010 0.000000 0.000000 0.000000
# 4 0.000000 0.000000 0.000000 -0.037668 0.000000 0.000000
# 5 0.000000 0.000000 0.000000 0.000000 0.019030 0.000000
# 6 0.000000 0.000000 0.000000 0.000000 0.000000 0.052672
#
#
# Mechanical properties :
#
#
# Convention : Reuss Voigt Hill
#
# Bulk Modulus (GPa) = 44.72076 56.54686 50.63381
# Shear Modulus (GPa) = 56.85159 26.65235 41.75197
#
# Velocity S-wave (km/s) = 4.90915 3.36127 4.20701
# Velocity P-wave (km/s) = 7.14776 6.24778 6.71287
#
# Compressibility (1/GPa) = 0.02236098
#
# Stress axis : x y z
#
# Youngs Moduli (GPa) = 92.31022 152.27409 58.78748
#
# Poissons Ratio (x) = 0.43081 0.14741
# Poissons Ratio (y) = 0.26116 0.04046
# Poissons Ratio (z) = 0.23146 0.10479
#
# Static dielectric constant tensor:
#      x y z
#    x 1.938320 0.000000 0.000000 
#    y 0.000000 1.859790 0.000000 
#    z 0.000000 0.000000 1.966520 
# 
# From -- ./inp_files/29169.got.cif
#   From: 2010.05.17/outbox.cif.g08.bks.cpg/sg62_15_cif.got.tgz:29169.got - 2010.06.03 15:25:27.
