data_PCOD9466832
_publ_section_title
;
Structure prediction by ZEFSAII (Michael W. Deem and Ramdas Pophale) SiO2 
 PCOD9466832
Probable space group: P N M A
;
_chemical_formula_sum "Si O2"
_cell_formula_units_Z 64
_cell_length_a 9.115800
_cell_length_b 31.901067
_cell_length_c 9.977062
_cell_angle_alpha 90.000000
_cell_angle_beta 90.000000
_cell_angle_gamma 90.000000
_cell_volume 2901.367009
_symmetry_space_group_name_H-M "P N M A"
_symmetry_group_IT_number 62
_symmetry_cell_setting 'orthorhombic'
loop_
_space_group_symop_operation_xyz
x,y,z
1/2-x,-y,1/2+z
1/2+x,1/2-y,1/2-z
-x,1/2+y,-z
-x,-y,-z
1/2+x,y,1/2-z
1/2-x,1/2+y,1/2+z
x,1/2-y,z
loop_
_atom_site_type_symbol
_atom_site_label
_atom_site_fract_x
_atom_site_fract_y
_atom_site_fract_z
Si Si1 0.470567 0.435745 0.969764
Si Si2 0.006095 0.481557 0.813175
Si Si3 0.221025 0.115813 0.379211
Si Si4 0.233414 0.633167 0.345702
Si Si5 0.273393 0.462388 0.206599
Si Si6 0.216373 0.797840 0.555754
Si Si7 0.555954 0.609282 0.409258
Si Si8 0.576358 0.299298 0.216070
O O1 0.508620 0.461319 0.836497
O O2 0.342856 0.404431 0.924932
O O3 0.610387 0.410229 0.024331
O O4 0.396463 0.460255 0.091918
O O5 0.872604 0.513384 0.833084
O O6 0.976787 0.440419 0.900872
O O7 0.154280 0.508757 0.823901
O O8 0.237533 0.084914 0.252104
O O9 0.380504 0.118918 0.445817
O O10 0.157366 0.161939 0.355914
O O11 0.186146 0.673972 0.427517
O O12 0.406802 0.630301 0.360998
O O13 0.178454 0.625817 0.195397
O O14 0.208886 0.750000 0.513572
O O15 0.371986 0.804860 0.630010
O O16 0.092311 0.804107 0.670819
O O17 0.615961 0.250000 0.183646
#
# Coordination Sequence:
#
# PCOD9466832 Si02
#       8
#     8   8   8   8   8   8   8   8
#     4  11  23  44  62  87 131 174 223 283 332 395
#     4  11  24  43  61  86 127 177 223 277 333 389
#     4  12  25  41  66  99 129 175 221 274 334 398
#     4  11  23  45  68  93 129 177 223 272 328 399
#     4  12  25  37  64  94 127 170 227 279 337 396
#     4  10  22  42  72 103 136 170 214 274 337 400
#     4  11  26  43  69  91 131 180 226 270 329 393
#     4  10  23  43  70 102 136 169 210 271 338 398
#
# _framework density 22.058567
#
# number of rings (size 3 to 8) (size 9 to 14) (size 15 to 20)
#    0.000    1.000    2.500    4.875    5.250    0.500 
#    0.000    1.250    0.000    0.000    0.000    0.000 
#    0.000    0.000    0.000    0.000    0.000    0.000 
#
# Total GULP energy -357715.824331 kJ/mol
# GULP energy per Si atom -5589.309755 kJ/mol
# Density = 2.200836 g / cm^3
# Si number density = 22.058567 Si / 1000 Ang^3
#
#
#
# Elastic Constant Matrix: (Units=GPa)
#
#
# Indices 1 2 3 4 5 6 
#
# 1 61.6092 18.9798 -13.0926 0.0000 0.0000 0.0000
# 2 18.9798 105.3104 23.6589 0.0000 0.0000 0.0000
# 3 -13.0926 23.6589 35.9098 0.0000 0.0000 0.0000
# 4 0.0000 0.0000 0.0000 20.6641 0.0000 0.0000
# 5 0.0000 0.0000 0.0000 0.0000 17.0785 0.0000
# 6 0.0000 0.0000 0.0000 0.0000 0.0000 34.3718
#
#
#
# Elastic Compliance Matrix: (Units=1/GPa)
#
#
# Indices 1 2 3 4 5 6 
#
# 1 0.020686 -0.006365 0.011735 0.000000 0.000000 0.000000
# 2 -0.006365 0.013104 -0.010954 0.000000 0.000000 0.000000
# 3 0.011735 -0.010954 0.039343 0.000000 0.000000 0.000000
# 4 0.000000 0.000000 0.000000 0.048393 0.000000 0.000000
# 5 0.000000 0.000000 0.000000 0.000000 0.058553 0.000000
# 6 0.000000 0.000000 0.000000 0.000000 0.000000 0.029094
#
#
# Mechanical properties :
#
#
# Convention : Reuss Voigt Hill
#
# Bulk Modulus (GPa) = 16.13777 29.10242 22.62009
# Shear Modulus (GPa) = 20.74737 25.97508 23.36123
#
# Velocity S-wave (km/s) = 3.07018 3.43527 3.25784
# Velocity P-wave (km/s) = 4.46091 5.38114 4.94249
#
# Compressibility (1/GPa) = 0.06196644
#
# Stress axis : x y z
#
# Youngs Moduli (GPa) = 48.34200 76.31441 25.41746
#
# Poissons Ratio (x) = 0.48571 -0.29828
# Poissons Ratio (y) = 0.30768 0.27842
# Poissons Ratio (z) = -0.56731 0.83593
#
# Static dielectric constant tensor:
#      x y z
#    x 1.826390 0.000000 0.000000 
#    y 0.000000 1.807620 0.000000 
#    z 0.000000 0.000000 1.848870 
# 
# From -- ./inp_files/11563.got.cif
#   From: 2010.05.17/outbox.cif.g08.bks.cpg/sg62_6_cif.got.tgz:11563.got - 2010.06.03 15:25:27.
