data_PCOD9466096
_publ_section_title
;
Structure prediction by ZEFSAII (Michael W. Deem and Ramdas Pophale) SiO2 
 PCOD9466096
Probable space group: P N M A
;
_chemical_formula_sum "Si O2"
_cell_formula_units_Z 48
_cell_length_a 14.928804
_cell_length_b 13.928425
_cell_length_c 11.369542
_cell_angle_alpha 90.000000
_cell_angle_beta 90.000000
_cell_angle_gamma 90.000000
_cell_volume 2364.122610
_symmetry_space_group_name_H-M "P N M A"
_symmetry_group_IT_number 62
_symmetry_cell_setting 'orthorhombic'
loop_
_space_group_symop_operation_xyz
x,y,z
1/2-x,-y,1/2+z
1/2+x,1/2-y,1/2-z
-x,1/2+y,-z
-x,-y,-z
1/2+x,y,1/2-z
1/2-x,1/2+y,1/2+z
x,1/2-y,z
loop_
_atom_site_type_symbol
_atom_site_label
_atom_site_fract_x
_atom_site_fract_y
_atom_site_fract_z
Si Si1 0.242265 0.139409 0.418669
Si Si2 0.518786 0.012544 0.636455
Si Si3 0.897953 0.981724 0.467171
Si Si4 0.149996 0.637787 0.161193
Si Si5 0.383357 0.361009 0.213856
Si Si6 0.658191 0.362563 0.744437
O O1 0.209254 0.250000 0.431870
O O2 0.164098 0.061803 0.431485
O O3 0.311199 0.124086 0.528174
O O4 0.297028 0.133330 0.298450
O O5 0.434098 0.071079 0.685860
O O6 0.608201 0.076802 0.646583
O O7 0.500000 0.000000 0.500000
O O8 0.539901 0.917697 0.712564
O O9 0.886786 0.901706 0.364584
O O10 0.865463 0.079569 0.404657
O O11 0.000000 0.000000 0.500000
O O12 0.124592 0.750000 0.171409
O O13 0.236144 0.619564 0.242759
O O14 0.405655 0.250000 0.193786
O O15 0.643973 0.250000 0.731344
#
# Coordination Sequence:
#
# PCOD9466096 Si02
#       6
#     8   8   8   8   8   8
#     4   9  18  38  66  89 119 166 209 256 318 375
#     4  11  20  34  60  95 126 167 211 258 312 374
#     4  10  21  39  62  92 123 163 212 257 308 374
#     4   9  17  34  61  86 120 162 205 259 315 367
#     4  10  22  40  61  92 129 165 210 260 312 375
#     4   9  20  38  59  90 124 162 213 260 309 369
#
# _framework density 20.303516999999999
#
# number of rings (size 3 to 8) (size 9 to 14) (size 15 to 20)
#    0.000    2.333    1.667    2.000    0.000    2.000 
#   18.000    0.000    0.000    6.000    0.000    0.000 
#    0.000    0.000    0.000    0.000    0.000    0.000 
#
# Total GULP energy -268001.556604 kJ/mol
# GULP energy per Si atom -5583.365763 kJ/mol
# Density = 2.025731 g / cm^3
# Si number density = 20.303517 Si / 1000 Ang^3
#
#
#
# Elastic Constant Matrix: (Units=GPa)
#
#
# Indices 1 2 3 4 5 6 
#
# 1 101.0310 75.8872 29.1973 0.0000 0.0000 0.0000
# 2 75.8872 162.5287 35.9880 0.0000 0.0000 0.0000
# 3 29.1973 35.9880 37.3192 0.0000 0.0000 0.0000
# 4 0.0000 0.0000 0.0000 24.2792 0.0000 0.0000
# 5 0.0000 0.0000 0.0000 0.0000 31.8339 0.0000
# 6 0.0000 0.0000 0.0000 0.0000 0.0000 40.9695
#
#
#
# Elastic Compliance Matrix: (Units=1/GPa)
#
#
# Indices 1 2 3 4 5 6 
#
# 1 0.016566 -0.006186 -0.006995 0.000000 0.000000 0.000000
# 2 -0.006186 0.010133 -0.004932 0.000000 0.000000 0.000000
# 3 -0.006995 -0.004932 0.037025 0.000000 0.000000 0.000000
# 4 0.000000 0.000000 0.000000 0.041187 0.000000 0.000000
# 5 0.000000 0.000000 0.000000 0.000000 0.031413 0.000000
# 6 0.000000 0.000000 0.000000 0.000000 0.000000 0.024408
#
#
# Mechanical properties :
#
#
# Convention : Reuss Voigt Hill
#
# Bulk Modulus (GPa) = 36.36716 64.78042 50.57379
# Shear Modulus (GPa) = 24.25706 30.07029 27.16367
#
# Velocity S-wave (km/s) = 3.46022 3.85260 3.66167
# Velocity P-wave (km/s) = 5.82365 7.19481 6.54523
#
# Compressibility (1/GPa) = 0.02749734
#
# Stress axis : x y z
#
# Youngs Moduli (GPa) = 60.36440 98.68593 27.00885
#
# Poissons Ratio (x) = 0.61047 0.18894
# Poissons Ratio (y) = 0.37341 0.13321
# Poissons Ratio (z) = 0.42227 0.48672
#
# Static dielectric constant tensor:
#      x y z
#    x 1.720390 0.000000 0.000000 
#    y 0.000000 1.725980 0.000000 
#    z 0.000000 0.000000 1.757290 
# 
# From -- ./inp_files/13262.got.cif
#   From: 2010.05.17/outbox.cif.g08.bks.cpg/sg62_7_cif.got.tgz:13262.got - 2010.06.03 15:25:27.
