data_PCOD9466776
_publ_section_title
;
Structure prediction by ZEFSAII (Michael W. Deem and Ramdas Pophale) SiO2 
 PCOD9466776
Probable space group: P N M A
;
_chemical_formula_sum "Si O2"
_cell_formula_units_Z 56
_cell_length_a 14.735610
_cell_length_b 28.519134
_cell_length_c 5.386699
_cell_angle_alpha 90.000000
_cell_angle_beta 90.000000
_cell_angle_gamma 90.000000
_cell_volume 2263.743212
_symmetry_space_group_name_H-M "P N M A"
_symmetry_group_IT_number 62
_symmetry_cell_setting 'orthorhombic'
loop_
_space_group_symop_operation_xyz
x,y,z
1/2-x,-y,1/2+z
1/2+x,1/2-y,1/2-z
-x,1/2+y,-z
-x,-y,-z
1/2+x,y,1/2-z
1/2-x,1/2+y,1/2+z
x,1/2-y,z
loop_
_atom_site_type_symbol
_atom_site_label
_atom_site_fract_x
_atom_site_fract_y
_atom_site_fract_z
Si Si1 0.456605 0.121985 0.968140
Si Si2 0.505931 0.301544 0.309090
Si Si3 0.308527 0.800721 0.468985
Si Si4 0.834265 0.325600 0.893517
Si Si5 0.974685 0.027710 0.751063
Si Si6 0.226814 0.891969 0.737558
Si Si7 0.711928 0.490379 0.172169
O O1 0.521085 0.151540 0.148293
O O2 0.372760 0.098193 0.119398
O O3 0.405252 0.163031 0.821506
O O4 0.500043 0.082114 0.794485
O O5 0.517868 0.250000 0.188649
O O6 0.582472 0.303675 0.524685
O O7 0.401422 0.304277 0.401196
O O8 0.286345 0.750000 0.589390
O O9 0.254223 0.800511 0.210339
O O10 0.269881 0.846245 0.608973
O O11 0.797409 0.375341 0.987503
O O12 0.866987 0.023680 0.763280
O O13 0.000000 0.000000 0.500000
O O14 0.000000 0.000000 0.000000
O O15 0.292388 0.936220 0.744821
O O16 0.788111 0.507373 0.372092
#
# Coordination Sequence:
#
# PCOD9466776 Si02
#       7
#     8   8   8   8   8   8   8
#     4  10  23  44  65  97 140 187 241 300 375 448
#     4  10  23  42  69 103 148 197 248 309 379 452
#     4  10  23  42  64 102 144 184 244 303 369 446
#     4  10  22  41  72  97 141 184 248 300 377 436
#     4  12  28  46  71 109 149 191 244 314 377 447
#     4  10  23  41  68  96 133 187 239 303 365 441
#     4  12  25  46  75 100 142 191 249 298 375 446
#
# _framework density 24.73779
#
# number of rings (size 3 to 8) (size 9 to 14) (size 15 to 20)
#    0.000    1.429    1.429    2.143    8.000    7.429 
#    0.000    2.857    0.000    0.000    0.000    0.000 
#    0.000    0.000    0.000    0.000    0.000    0.000 
#
# Total GULP energy -312133.213869 kJ/mol
# GULP energy per Si atom -5573.807391 kJ/mol
# Density = 2.468149 g / cm^3
# Si number density = 24.737790 Si / 1000 Ang^3
#
#
#
# Elastic Constant Matrix: (Units=GPa)
#
#
# Indices 1 2 3 4 5 6 
#
# 1 64.7621 34.8622 18.7565 0.0000 0.0000 0.0000
# 2 34.8622 165.3247 36.1264 0.0000 0.0000 0.0000
# 3 18.7565 36.1264 84.6414 0.0000 0.0000 0.0000
# 4 0.0000 0.0000 0.0000 29.3252 0.0000 0.0000
# 5 0.0000 0.0000 0.0000 0.0000 27.0615 0.0000
# 6 0.0000 0.0000 0.0000 0.0000 0.0000 25.2360
#
#
#
# Elastic Compliance Matrix: (Units=1/GPa)
#
#
# Indices 1 2 3 4 5 6 
#
# 1 0.017923 -0.003211 -0.002601 0.000000 0.000000 0.000000
# 2 -0.003211 0.007246 -0.002381 0.000000 0.000000 0.000000
# 3 -0.002601 -0.002381 0.013407 0.000000 0.000000 0.000000
# 4 0.000000 0.000000 0.000000 0.034100 0.000000 0.000000
# 5 0.000000 0.000000 0.000000 0.000000 0.036953 0.000000
# 6 0.000000 0.000000 0.000000 0.000000 0.000000 0.039626
#
#
# Mechanical properties :
#
#
# Convention : Reuss Voigt Hill
#
# Bulk Modulus (GPa) = 45.06619 54.91313 49.98966
# Shear Modulus (GPa) = 28.89520 31.32342 30.10931
#
# Velocity S-wave (km/s) = 3.42140 3.56226 3.49254
# Velocity P-wave (km/s) = 5.81937 6.25826 6.04280
#
# Compressibility (1/GPa) = 0.02218959
#
# Stress axis : x y z
#
# Youngs Moduli (GPa) = 55.79408 138.00419 74.58607
#
# Poissons Ratio (x) = 0.44314 0.19401
# Poissons Ratio (y) = 0.17916 0.17761
# Poissons Ratio (z) = 0.14513 0.32862
#
# Static dielectric constant tensor:
#      x y z
#    x 2.096690 0.000000 0.000000 
#    y 0.000000 1.841070 0.000000 
#    z 0.000000 0.000000 2.041700 
# 
# From -- ./inp_files/1286.got.cif
#   From: 2010.05.17/outbox.cif.g08.bks.cpg/sg62_1_cif.got.tgz:1286.got - 2010.06.03 15:25:27.
