data_PCOD9466995
_publ_section_title
;
Structure prediction by ZEFSAII (Michael W. Deem and Ramdas Pophale) SiO2 
 PCOD9466995
Probable space group: P N M A
;
_chemical_formula_sum "Si O2"
_cell_formula_units_Z 40
_cell_length_a 8.767292
_cell_length_b 21.183650
_cell_length_c 9.691528
_cell_angle_alpha 90.000000
_cell_angle_beta 90.000000
_cell_angle_gamma 90.000000
_cell_volume 1799.942031
_symmetry_space_group_name_H-M "P N M A"
_symmetry_group_IT_number 62
_symmetry_cell_setting 'orthorhombic'
loop_
_space_group_symop_operation_xyz
x,y,z
1/2-x,-y,1/2+z
1/2+x,1/2-y,1/2-z
-x,1/2+y,-z
-x,-y,-z
1/2+x,y,1/2-z
1/2-x,1/2+y,1/2+z
x,1/2-y,z
loop_
_atom_site_type_symbol
_atom_site_label
_atom_site_fract_x
_atom_site_fract_y
_atom_site_fract_z
Si Si1 0.670719 0.587295 0.182358
Si Si2 0.907115 0.503274 0.307513
Si Si3 0.625344 0.113228 0.190110
Si Si4 0.655054 0.960509 0.481578
Si Si5 0.673108 0.824808 0.931834
O O1 0.637671 0.588288 0.348468
O O2 0.514960 0.556457 0.128385
O O3 0.482826 0.553646 0.771273
O O4 0.703055 0.645557 0.083857
O O5 0.809035 0.537143 0.188509
O O6 0.778893 0.489657 0.419502
O O7 0.759189 0.083331 0.094307
O O8 0.501061 0.158031 0.115237
O O9 0.709292 0.145992 0.319045
O O10 0.500000 0.000000 0.500000
O O11 0.691155 0.750000 0.934541
#
# Coordination Sequence:
#
# PCOD9466995 Si02
#       5
#     8   8   8   8   8
#     4  10  24  44  71 110 152 194 243 307 391 452
#     4  10  23  41  74 115 146 187 238 312 404 453
#     4  12  26  47  75 111 154 194 251 321 391 463
#     4  10  25  44  73 116 159 183 235 311 405 487
#     4  12  28  51  72 102 152 214 268 309 363 454
#
# _framework density 22.222937999999999
#
# number of rings (size 3 to 8) (size 9 to 14) (size 15 to 20)
#    1.200    0.000    2.000    2.400    5.600    2.400 
#    0.000    5.000    0.000    0.000    0.000    0.000 
#    0.000    0.000    0.000    0.000    0.000    0.000 
#
# Total GULP energy -223041.694071 kJ/mol
# GULP energy per Si atom -5576.042352 kJ/mol
# Density = 2.217236 g / cm^3
# Si number density = 22.222938 Si / 1000 Ang^3
#
#
#
# Elastic Constant Matrix: (Units=GPa)
#
#
# Indices 1 2 3 4 5 6 
#
# 1 173.8572 64.5214 94.6162 0.0000 0.0000 0.0000
# 2 64.5214 168.9555 90.7426 0.0000 0.0000 0.0000
# 3 94.6162 90.7426 168.9180 0.0000 0.0000 0.0000
# 4 0.0000 0.0000 0.0000 30.9982 0.0000 0.0000
# 5 0.0000 0.0000 0.0000 0.0000 48.3044 0.0000
# 6 0.0000 0.0000 0.0000 0.0000 0.0000 27.1946
#
#
#
# Elastic Compliance Matrix: (Units=1/GPa)
#
#
# Indices 1 2 3 4 5 6 
#
# 1 0.008382 -0.000955 -0.004182 0.000000 0.000000 0.000000
# 2 -0.000955 0.008428 -0.003992 0.000000 0.000000 0.000000
# 3 -0.004182 -0.003992 0.010407 0.000000 0.000000 0.000000
# 4 0.000000 0.000000 0.000000 0.032260 0.000000 0.000000
# 5 0.000000 0.000000 0.000000 0.000000 0.020702 0.000000
# 6 0.000000 0.000000 0.000000 0.000000 0.000000 0.036772
#
#
# Mechanical properties :
#
#
# Convention : Reuss Voigt Hill
#
# Bulk Modulus (GPa) = 111.62993 112.38790 112.00892
# Shear Modulus (GPa) = 36.18038 38.75613 37.46826
#
# Velocity S-wave (km/s) = 4.03931 4.18062 4.11057
# Velocity P-wave (km/s) = 8.49091 8.60152 8.54639
#
# Compressibility (1/GPa) = 0.00895817
#
# Stress axis : x y z
#
# Youngs Moduli (GPa) = 119.29980 118.65719 96.08585
#
# Poissons Ratio (x) = 0.11330 0.40185
# Poissons Ratio (y) = 0.11392 0.38362
# Poissons Ratio (z) = 0.49894 0.47373
#
# Static dielectric constant tensor:
#      x y z
#    x 1.845800 0.000000 0.000000 
#    y 0.000000 1.780860 0.000000 
#    z 0.000000 0.000000 2.269580 
# 
# From -- ./inp_files/4395.got.cif
#   From: 2010.05.17/outbox.cif.g08.bks.cpg/sg62_3_cif.got.tgz:4395.got - 2010.06.03 15:25:27.
