data_PCOD9466321
_publ_section_title
;
Structure prediction by ZEFSAII (Michael W. Deem and Ramdas Pophale) SiO2 
 PCOD9466321
Probable space group: P N M A
;
_chemical_formula_sum "Si O2"
_cell_formula_units_Z 48
_cell_length_a 27.751728
_cell_length_b 8.617492
_cell_length_c 10.302084
_cell_angle_alpha 90.000000
_cell_angle_beta 90.000000
_cell_angle_gamma 90.000000
_cell_volume 2463.746418
_symmetry_space_group_name_H-M "P N M A"
_symmetry_group_IT_number 62
_symmetry_cell_setting 'orthorhombic'
loop_
_space_group_symop_operation_xyz
x,y,z
1/2-x,-y,1/2+z
1/2+x,1/2-y,1/2-z
-x,1/2+y,-z
-x,-y,-z
1/2+x,y,1/2-z
1/2-x,1/2+y,1/2+z
x,1/2-y,z
loop_
_atom_site_type_symbol
_atom_site_label
_atom_site_fract_x
_atom_site_fract_y
_atom_site_fract_z
Si Si1 0.642504 0.437176 0.019203
Si Si2 0.359809 0.936491 0.524293
Si Si3 0.465282 0.935971 0.888977
Si Si4 0.287458 0.938613 0.749852
Si Si5 0.963459 0.065131 0.893286
Si Si6 0.323701 0.063779 0.253284
O O1 0.644989 0.250000 0.007944
O O2 0.651419 0.510391 0.879344
O O3 0.589963 0.476345 0.075369
O O4 0.683173 0.488267 0.122342
O O5 0.362318 0.750000 0.527008
O O6 0.317153 0.987070 0.622344
O O7 0.410139 0.002672 0.575283
O O8 0.348770 0.993834 0.379952
O O9 0.468797 0.750000 0.882211
O O10 0.477613 0.006761 0.749563
O O11 0.500000 0.000000 0.000000
O O12 0.287359 0.750000 0.750183
O O13 0.232202 0.989671 0.749958
O O14 0.963690 0.250000 0.896930
O O15 0.000000 0.000000 0.000000
O O16 0.324690 0.250000 0.261915
#
# Coordination Sequence:
#
# PCOD9466321 Si02
#       6
#     8   8   8   8   8   8
#     4  10  21  41  64  87 123 169 208 252 313 373
#     4  11  22  42  66  91 127 170 211 259 318 376
#     4  11  24  44  69  95 127 167 211 259 316 376
#     4   9  19  39  64  89 123 165 213 262 311 368
#     4  12  26  45  69  97 127 163 209 262 320 383
#     4  11  23  37  59  95 130 165 212 262 308 366
#
# _framework density 19.482524000000002
#
# number of rings (size 3 to 8) (size 9 to 14) (size 15 to 20)
#    0.000    1.333    1.667    4.000    2.333    1.333 
#    0.000    3.333    0.000    0.000    0.000    0.000 
#    0.000    0.000    0.000    0.000    0.000    0.000 
#
# Total GULP energy -268493.227918 kJ/mol
# GULP energy per Si atom -5593.608915 kJ/mol
# Density = 1.943818 g / cm^3
# Si number density = 19.482524 Si / 1000 Ang^3
#
#
#
# Elastic Constant Matrix: (Units=GPa)
#
#
# Indices 1 2 3 4 5 6 
#
# 1 73.2718 35.1807 49.2352 0.0000 0.0000 0.0000
# 2 35.1807 69.7465 50.8464 0.0000 0.0000 0.0000
# 3 49.2352 50.8464 185.5740 0.0000 0.0000 0.0000
# 4 0.0000 0.0000 0.0000 22.9831 0.0000 0.0000
# 5 0.0000 0.0000 0.0000 0.0000 43.3311 0.0000
# 6 0.0000 0.0000 0.0000 0.0000 0.0000 28.9334
#
#
#
# Elastic Compliance Matrix: (Units=1/GPa)
#
#
# Indices 1 2 3 4 5 6 
#
# 1 0.019313 -0.007505 -0.003068 0.000000 0.000000 0.000000
# 2 -0.007505 0.020833 -0.003717 0.000000 0.000000 0.000000
# 3 -0.003068 -0.003717 0.007221 0.000000 0.000000 0.000000
# 4 0.000000 0.000000 0.000000 0.043510 0.000000 0.000000
# 5 0.000000 0.000000 0.000000 0.000000 0.023078 0.000000
# 6 0.000000 0.000000 0.000000 0.000000 0.000000 0.034562
#
#
# Mechanical properties :
#
#
# Convention : Reuss Voigt Hill
#
# Bulk Modulus (GPa) = 53.22730 66.56855 59.89792
# Shear Modulus (GPa) = 27.26896 31.93816 29.60356
#
# Velocity S-wave (km/s) = 3.74527 4.05325 3.90230
# Velocity P-wave (km/s) = 6.78841 7.49317 7.14948
#
# Compressibility (1/GPa) = 0.01878735
#
# Stress axis : x y z
#
# Youngs Moduli (GPa) = 51.77977 48.00081 138.48581
#
# Poissons Ratio (x) = 0.36025 0.42481
# Poissons Ratio (y) = 0.38861 0.51474
# Poissons Ratio (z) = 0.15883 0.17842
#
# Static dielectric constant tensor:
#      x y z
#    x 1.663030 0.000000 0.000000 
#    y 0.000000 1.655640 0.000000 
#    z 0.000000 0.000000 1.643730 
# 
# From -- ./inp_files/10280.got.cif
#   From: 2010.05.17/outbox.cif.g08.bks.cpg/sg62_6_cif.got.tgz:10280.got - 2010.06.03 15:25:27.
