data_PCOD9466871
_publ_section_title
;
Structure prediction by ZEFSAII (Michael W. Deem and Ramdas Pophale) SiO2 
 PCOD9466871
Probable space group: P N M A
;
_chemical_formula_sum "Si O2"
_cell_formula_units_Z 40
_cell_length_a 7.596480
_cell_length_b 8.496830
_cell_length_c 28.291145
_cell_angle_alpha 90.000000
_cell_angle_beta 90.000000
_cell_angle_gamma 90.000000
_cell_volume 1826.080221
_symmetry_space_group_name_H-M "P N M A"
_symmetry_group_IT_number 62
_symmetry_cell_setting 'orthorhombic'
loop_
_space_group_symop_operation_xyz
x,y,z
1/2-x,-y,1/2+z
1/2+x,1/2-y,1/2-z
-x,1/2+y,-z
-x,-y,-z
1/2+x,y,1/2-z
1/2-x,1/2+y,1/2+z
x,1/2-y,z
loop_
_atom_site_type_symbol
_atom_site_label
_atom_site_fract_x
_atom_site_fract_y
_atom_site_fract_z
Si Si1 0.816847 0.934596 0.480539
Si Si2 0.312919 0.579868 0.432865
Si Si3 0.975921 0.750000 0.707369
Si Si4 0.829068 0.488506 0.885739
Si Si5 0.886841 0.750000 0.815197
Si Si6 0.947656 0.072383 0.654599
O O1 0.826064 0.750000 0.466147
O O2 0.688431 0.954115 0.525321
O O3 0.760992 0.037574 0.435326
O O4 0.000000 0.000000 0.500000
O O5 0.272799 0.750000 0.455083
O O6 0.498953 0.593299 0.406951
O O7 0.163403 0.550293 0.393554
O O8 0.969519 0.750000 0.763889
O O9 0.906299 0.582218 0.686678
O O10 0.177940 0.750000 0.692343
O O11 0.920839 0.603071 0.848412
O O12 0.656844 0.424635 0.857979
O O13 0.903161 0.250000 0.673035
#
# Coordination Sequence:
#
# PCOD9466871 Si02
#       6
#     8   8   4   8   4   8
#     4  12  25  40  66  96 139 187 233 279 340 411
#     4  11  24  40  67  97 134 185 228 276 338 412
#     4  10  24  46  70 104 132 178 232 287 362 410
#     4  11  24  42  66  97 136 177 225 285 339 405
#     4  10  26  44  76 100 138 176 230 295 350 424
#     4  10  22  43  68  97 137 178 224 285 347 415
#
# _framework density 21.904844000000001
#
# number of rings (size 3 to 8) (size 9 to 14) (size 15 to 20)
#    0.000    1.200    2.000    3.000    8.400    0.000 
#    0.000    6.000    0.000    0.000    0.000    0.000 
#    0.000    0.000    0.000    0.000    0.000    0.000 
#
# Total GULP energy -222790.068924 kJ/mol
# GULP energy per Si atom -5569.751723 kJ/mol
# Density = 2.185499 g / cm^3
# Si number density = 21.904844 Si / 1000 Ang^3
#
#
#
# Elastic Constant Matrix: (Units=GPa)
#
#
# Indices 1 2 3 4 5 6 
#
# 1 63.2320 3.3765 -1.5250 0.0000 0.0000 0.0000
# 2 3.3765 106.0851 73.7716 0.0000 0.0000 0.0000
# 3 -1.5250 73.7716 123.3788 0.0000 0.0000 0.0000
# 4 0.0000 0.0000 0.0000 31.8719 0.0000 0.0000
# 5 0.0000 0.0000 0.0000 0.0000 -6.2925 0.0000
# 6 0.0000 0.0000 0.0000 0.0000 0.0000 9.5584
#
#
#
# Elastic Compliance Matrix: (Units=1/GPa)
#
#
# Indices 1 2 3 4 5 6 
#
# 1 0.015894 -0.001100 0.000854 0.000000 0.000000 0.000000
# 2 -0.001100 0.016212 -0.009707 0.000000 0.000000 0.000000
# 3 0.000854 -0.009707 0.013920 0.000000 0.000000 0.000000
# 4 0.000000 0.000000 0.000000 0.031376 0.000000 0.000000
# 5 0.000000 0.000000 0.000000 0.000000 -0.158918 0.000000
# 6 0.000000 0.000000 0.000000 0.000000 0.000000 0.104620
#
#
# Mechanical properties :
#
#
# Convention : Reuss Voigt Hill
#
# Bulk Modulus (GPa) = 38.28476 49.32691 43.80583
# Shear Modulus (GPa) = 96.68360 21.49907 59.09133
#
# Velocity S-wave (km/s) = 6.65085 3.13625 5.19951
# Velocity P-wave (km/s) = 8.74609 5.97347 7.48921
#
# Compressibility (1/GPa) = 0.02612005
#
# Stress axis : x y z
#
# Youngs Moduli (GPa) = 62.91638 61.68414 71.84041
#
# Poissons Ratio (x) = 0.06784 -0.06135
# Poissons Ratio (y) = 0.06919 0.69735
# Poissons Ratio (z) = -0.05373 0.59877
#
# Static dielectric constant tensor:
#      x y z
#    x 1.848100 0.000000 0.000000 
#    y 0.000000 1.801300 0.000000 
#    z 0.000000 0.000000 1.040130 
# 
# From -- ./inp_files/30687.got.cif
#   From: 2010.05.17/outbox.cif.g08.bks.cpg/sg62_16_cif.got.tgz:30687.got - 2010.06.03 15:25:27.
