data_PCOD9466065
_publ_section_title
;
Structure prediction by ZEFSAII (Michael W. Deem and Ramdas Pophale) SiO2 
 PCOD9466065
Probable space group: P N M A
;
_chemical_formula_sum "Si O2"
_cell_formula_units_Z 64
_cell_length_a 24.175690
_cell_length_b 8.832431
_cell_length_c 15.341499
_cell_angle_alpha 90.000000
_cell_angle_beta 90.000000
_cell_angle_gamma 90.000000
_cell_volume 3275.872027
_symmetry_space_group_name_H-M "P N M A"
_symmetry_group_IT_number 62
_symmetry_cell_setting 'orthorhombic'
loop_
_space_group_symop_operation_xyz
x,y,z
1/2-x,-y,1/2+z
1/2+x,1/2-y,1/2-z
-x,1/2+y,-z
-x,-y,-z
1/2+x,y,1/2-z
1/2-x,1/2+y,1/2+z
x,1/2-y,z
loop_
_atom_site_type_symbol
_atom_site_label
_atom_site_fract_x
_atom_site_fract_y
_atom_site_fract_z
Si Si1 0.245898 0.068687 0.731163
Si Si2 0.667381 0.434847 0.929554
Si Si3 0.132959 0.924287 0.012348
Si Si4 0.039425 0.432295 0.573384
Si Si5 0.364403 0.572501 0.690638
Si Si6 0.473364 0.071690 0.414113
Si Si7 0.972264 0.070003 0.745963
Si Si8 0.750407 0.428882 0.078494
O O1 0.244921 0.250000 0.731498
O O2 0.201215 0.017797 0.657710
O O3 0.306458 0.011219 0.703802
O O4 0.238749 0.009472 0.829719
O O5 0.668587 0.250000 0.929612
O O6 0.603415 0.483593 0.929564
O O7 0.699583 0.483182 0.017743
O O8 0.125490 0.750000 0.043440
O O9 0.092112 0.944075 0.931004
O O10 0.195400 0.944332 0.981575
O O11 0.118335 0.034230 0.091400
O O12 0.040114 0.250000 0.565208
O O13 0.000000 0.500000 0.500000
O O14 0.010181 0.471069 0.664327
O O15 0.357529 0.750000 0.703537
O O16 0.412563 0.509455 0.752485
O O17 0.486568 0.250000 0.406903
O O18 0.500000 0.000000 0.500000
O O19 0.495480 0.983772 0.331440
O O20 0.964060 0.250000 0.747610
O O21 0.742168 0.250000 0.096500
#
# Coordination Sequence:
#
# PCOD9466065 Si02
#       8
#     8   8   8   8   8   8   8   8
#     4  11  23  41  65  93 127 164 204 257 319 377
#     4   9  20  42  67  90 125 166 203 253 317 377
#     4  10  21  39  61  87 127 166 200 250 314 374
#     4  10  24  45  67  92 121 165 218 267 319 370
#     4  12  24  39  63  91 123 162 212 261 314 384
#     4  11  22  36  58  90 127 167 207 250 307 375
#     4  11  24  41  62  89 127 167 212 264 315 375
#     4  10  21  40  64  91 123 163 204 250 313 381
#
# _framework density 19.536783
#
# number of rings (size 3 to 8) (size 9 to 14) (size 15 to 20)
#    0.000    1.500    2.500    2.250    3.500    2.000 
#    0.000    1.250    0.000    0.000    0.000    0.000 
#    0.000    0.000    0.000    0.000    0.000    0.000 
#
# Total GULP energy -357517.115162 kJ/mol
# GULP energy per Si atom -5586.204924 kJ/mol
# Density = 1.949232 g / cm^3
# Si number density = 19.536783 Si / 1000 Ang^3
#
#
#
# Elastic Constant Matrix: (Units=GPa)
#
#
# Indices 1 2 3 4 5 6 
#
# 1 142.0755 25.3699 51.3914 0.0000 0.0000 0.0000
# 2 25.3699 36.6586 31.5481 0.0000 0.0000 0.0000
# 3 51.3914 31.5481 112.8023 0.0000 0.0000 0.0000
# 4 0.0000 0.0000 0.0000 33.0386 0.0000 0.0000
# 5 0.0000 0.0000 0.0000 0.0000 25.9267 0.0000
# 6 0.0000 0.0000 0.0000 0.0000 0.0000 24.8777
#
#
#
# Elastic Compliance Matrix: (Units=1/GPa)
#
#
# Indices 1 2 3 4 5 6 
#
# 1 0.008748 -0.003456 -0.003019 0.000000 0.000000 0.000000
# 2 -0.003456 0.037291 -0.008855 0.000000 0.000000 0.000000
# 3 -0.003019 -0.008855 0.012717 0.000000 0.000000 0.000000
# 4 0.000000 0.000000 0.000000 0.030268 0.000000 0.000000
# 5 0.000000 0.000000 0.000000 0.000000 0.038570 0.000000
# 6 0.000000 0.000000 0.000000 0.000000 0.000000 0.040197
#
#
# Mechanical properties :
#
#
# Convention : Reuss Voigt Hill
#
# Bulk Modulus (GPa) = 35.59201 56.46170 46.02686
# Shear Modulus (GPa) = 24.05994 28.98374 26.52184
#
# Velocity S-wave (km/s) = 3.51311 3.85586 3.68847
# Velocity P-wave (km/s) = 5.89181 6.98473 6.46142
#
# Compressibility (1/GPa) = 0.02809619
#
# Stress axis : x y z
#
# Youngs Moduli (GPa) = 114.31760 26.81621 78.63571
#
# Poissons Ratio (x) = 0.09267 0.23738
# Poissons Ratio (y) = 0.39507 0.69631
# Poissons Ratio (z) = 0.34510 0.23745
#
# Static dielectric constant tensor:
#      x y z
#    x 1.703130 0.000000 0.000000 
#    y 0.000000 1.665960 0.000000 
#    z 0.000000 0.000000 1.678710 
# 
# From -- ./inp_files/20788.got.cif
#   From: 2010.05.17/outbox.cif.g08.bks.cpg/sg62_11_cif.got.tgz:20788.got - 2010.06.03 15:25:27.
