data_PCOD9466394
_publ_section_title
;
Structure prediction by ZEFSAII (Michael W. Deem and Ramdas Pophale) SiO2 
 PCOD9466394
Probable space group: P N M A
;
_chemical_formula_sum "Si O2"
_cell_formula_units_Z 48
_cell_length_a 15.187895
_cell_length_b 8.750747
_cell_length_c 19.061902
_cell_angle_alpha 90.000000
_cell_angle_beta 90.000000
_cell_angle_gamma 90.000000
_cell_volume 2533.430217
_symmetry_space_group_name_H-M "P N M A"
_symmetry_group_IT_number 62
_symmetry_cell_setting 'orthorhombic'
loop_
_space_group_symop_operation_xyz
x,y,z
1/2-x,-y,1/2+z
1/2+x,1/2-y,1/2-z
-x,1/2+y,-z
-x,-y,-z
1/2+x,y,1/2-z
1/2-x,1/2+y,1/2+z
x,1/2-y,z
loop_
_atom_site_type_symbol
_atom_site_label
_atom_site_fract_x
_atom_site_fract_y
_atom_site_fract_z
Si Si1 0.141095 0.932730 0.820431
Si Si2 0.301889 0.433224 0.742741
Si Si3 0.749064 0.065293 0.916379
Si Si4 0.594250 0.934207 0.521065
Si Si5 0.056434 0.567620 0.563787
Si Si6 0.499790 0.567232 0.212324
O O1 0.133602 0.750000 0.815278
O O2 0.119306 0.979486 0.899858
O O3 0.237784 0.984539 0.797068
O O4 0.072979 0.009258 0.766820
O O5 0.290841 0.250000 0.749283
O O6 0.273416 0.475712 0.663729
O O7 0.403422 0.468846 0.758012
O O8 0.740205 0.250000 0.919584
O O9 0.656938 0.991464 0.938168
O O10 0.828860 0.019007 0.967311
O O11 0.589296 0.750000 0.518591
O O12 0.500000 0.000000 0.500000
O O13 0.054856 0.750000 0.561008
O O14 0.000000 0.500000 0.500000
O O15 0.016600 0.509741 0.637404
O O16 0.491861 0.750000 0.204488
#
# Coordination Sequence:
#
# PCOD9466394 Si02
#       6
#     8   8   8   8   8   8
#     4  11  23  39  61  94 129 163 206 259 317 372
#     4  10  22  39  64  91 121 163 209 257 313 374
#     4  10  21  42  66  92 126 166 211 262 314 371
#     4  10  23  41  63  93 127 165 208 259 315 371
#     4  12  26  43  64  93 126 168 213 264 319 377
#     4  11  23  42  66  94 126 166 212 259 312 377
#
# _framework density 18.946643999999999
#
# number of rings (size 3 to 8) (size 9 to 14) (size 15 to 20)
#    0.000    1.333    1.667    3.500    2.333    4.667 
#    0.000    0.000    0.000    0.000    0.000    0.000 
#    0.000    0.000    0.000    0.000    0.000    0.000 
#
# Total GULP energy -268457.748009 kJ/mol
# GULP energy per Si atom -5592.869750 kJ/mol
# Density = 1.890352 g / cm^3
# Si number density = 18.946644 Si / 1000 Ang^3
#
#
#
# Elastic Constant Matrix: (Units=GPa)
#
#
# Indices 1 2 3 4 5 6 
#
# 1 119.3938 41.5306 39.0956 0.0000 0.0000 0.0000
# 2 41.5306 45.7777 30.7468 0.0000 0.0000 0.0000
# 3 39.0956 30.7468 112.5333 0.0000 0.0000 0.0000
# 4 0.0000 0.0000 0.0000 25.6453 0.0000 0.0000
# 5 0.0000 0.0000 0.0000 0.0000 41.8125 0.0000
# 6 0.0000 0.0000 0.0000 0.0000 0.0000 35.5602
#
#
#
# Elastic Compliance Matrix: (Units=1/GPa)
#
#
# Indices 1 2 3 4 5 6 
#
# 1 0.012445 -0.010272 -0.001517 0.000000 0.000000 0.000000
# 2 -0.010272 0.035232 -0.006058 0.000000 0.000000 0.000000
# 3 -0.001517 -0.006058 0.011068 0.000000 0.000000 0.000000
# 4 0.000000 0.000000 0.000000 0.038993 0.000000 0.000000
# 5 0.000000 0.000000 0.000000 0.000000 0.023916 0.000000
# 6 0.000000 0.000000 0.000000 0.000000 0.000000 0.028121
#
#
# Mechanical properties :
#
#
# Convention : Reuss Voigt Hill
#
# Bulk Modulus (GPa) = 43.37887 55.60564 49.49226
# Shear Modulus (GPa) = 25.88597 31.69240 28.78918
#
# Velocity S-wave (km/s) = 3.70030 4.09432 3.90229
# Velocity P-wave (km/s) = 6.41882 7.19469 6.81780
#
# Compressibility (1/GPa) = 0.02305270
#
# Stress axis : x y z
#
# Youngs Moduli (GPa) = 80.35067 28.38314 90.34661
#
# Poissons Ratio (x) = 0.29154 0.13708
# Poissons Ratio (y) = 0.82534 0.54729
# Poissons Ratio (z) = 0.12191 0.17194
#
# Static dielectric constant tensor:
#      x y z
#    x 1.614920 0.000000 0.000000 
#    y 0.000000 1.641020 0.000000 
#    z 0.000000 0.000000 1.631250 
# 
# From -- ./inp_files/23722.got.cif
#   From: 2010.05.17/outbox.cif.g08.bks.cpg/sg62_12_cif.got.tgz:23722.got - 2010.06.03 15:25:27.
