data_PCOD9466867
_publ_section_title
;
Structure prediction by ZEFSAII (Michael W. Deem and Ramdas Pophale) SiO2 
 PCOD9466867
Probable space group: P N M A
;
_chemical_formula_sum "Si O2"
_cell_formula_units_Z 56
_cell_length_a 15.803046
_cell_length_b 30.190896
_cell_length_c 5.166722
_cell_angle_alpha 90.000000
_cell_angle_beta 90.000000
_cell_angle_gamma 90.000000
_cell_volume 2465.085011
_symmetry_space_group_name_H-M "P N M A"
_symmetry_group_IT_number 62
_symmetry_cell_setting 'orthorhombic'
loop_
_space_group_symop_operation_xyz
x,y,z
1/2-x,-y,1/2+z
1/2+x,1/2-y,1/2-z
-x,1/2+y,-z
-x,-y,-z
1/2+x,y,1/2-z
1/2-x,1/2+y,1/2+z
x,1/2-y,z
loop_
_atom_site_type_symbol
_atom_site_label
_atom_site_fract_x
_atom_site_fract_y
_atom_site_fract_z
Si Si1 0.226445 0.524889 0.889267
Si Si2 0.178093 0.298368 0.061825
Si Si3 0.489455 0.671829 0.345463
Si Si4 0.332599 0.203326 0.684907
Si Si5 0.466829 0.024424 0.250458
Si Si6 0.461191 0.376813 0.138940
Si Si7 0.726890 0.626877 0.687921
O O1 0.277509 0.496246 0.676099
O O2 0.133687 0.522980 0.767347
O O3 0.250948 0.577002 0.893588
O O4 0.160892 0.250000 0.188932
O O5 0.102091 0.306220 0.859804
O O6 0.268437 0.294908 0.921420
O O7 0.193107 0.344224 0.215393
O O8 0.568596 0.701076 0.250466
O O9 0.510943 0.658036 0.640944
O O10 0.496673 0.632460 0.137865
O O11 0.319509 0.250000 0.535448
O O12 0.308941 0.158616 0.536647
O O13 0.490456 0.075757 0.240653
O O14 0.500000 0.000000 0.500000
O O15 0.500000 0.000000 0.000000
O O16 0.357491 0.376995 0.128008
#
# Coordination Sequence:
#
# PCOD9466867 Si02
#       7
#     8   8   8   8   8   8   8
#     4  11  26  44  69 101 138 179 231 289 354 418
#     4  11  24  41  66 101 135 177 231 281 338 413
#     4  11  23  42  66  98 132 177 222 273 336 403
#     4  10  22  43  67  95 136 180 223 279 343 404
#     4  11  23  42  66  95 132 173 224 287 345 412
#     4  10  23  43  66  91 129 179 223 271 341 409
#     4  10  23  43  68  91 138 181 230 278 347 408
#
# _framework density 22.717272000000001
#
# number of rings (size 3 to 8) (size 9 to 14) (size 15 to 20)
#    0.000    1.429    1.429    2.571    4.000    5.714 
#    0.000    1.429    0.000    0.000    0.000    0.000 
#    0.000    0.000    0.000    0.000    0.000    0.000 
#
# Total GULP energy -312481.283873 kJ/mol
# GULP energy per Si atom -5580.022926 kJ/mol
# Density = 2.266557 g / cm^3
# Si number density = 22.717272 Si / 1000 Ang^3
#
#
#
# Elastic Constant Matrix: (Units=GPa)
#
#
# Indices 1 2 3 4 5 6 
#
# 1 56.0432 19.8366 4.0612 0.0000 0.0000 0.0000
# 2 19.8366 158.0054 21.7287 0.0000 0.0000 0.0000
# 3 4.0612 21.7287 71.9460 0.0000 0.0000 0.0000
# 4 0.0000 0.0000 0.0000 -43.2124 0.0000 0.0000
# 5 0.0000 0.0000 0.0000 0.0000 34.3452 0.0000
# 6 0.0000 0.0000 0.0000 0.0000 0.0000 -99.4121
#
#
#
# Elastic Compliance Matrix: (Units=1/GPa)
#
#
# Indices 1 2 3 4 5 6 
#
# 1 0.018682 -0.002296 -0.000361 0.000000 0.000000 0.000000
# 2 -0.002296 0.006885 -0.001950 0.000000 0.000000 0.000000
# 3 -0.000361 -0.001950 0.014509 0.000000 0.000000 0.000000
# 4 0.000000 0.000000 0.000000 -0.023142 0.000000 0.000000
# 5 0.000000 0.000000 0.000000 0.000000 0.029116 0.000000
# 6 0.000000 0.000000 0.000000 0.000000 0.000000 -0.010059
#
#
# Mechanical properties :
#
#
# Convention : Reuss Voigt Hill
#
# Bulk Modulus (GPa) = 32.40194 41.91637 37.15916
# Shear Modulus (GPa) = 90.10216 -5.63132 42.23542
#
# Velocity S-wave (km/s) = 6.30464 -1.57615 4.31649
# Velocity P-wave (km/s) = 8.20318 3.89603 6.42149
#
# Compressibility (1/GPa) = 0.03086235
#
# Stress axis : x y z
#
# Youngs Moduli (GPa) = 53.52710 145.23788 68.92470
#
# Poissons Ratio (x) = 0.33343 0.02490
# Poissons Ratio (y) = 0.12288 0.13439
# Poissons Ratio (z) = 0.01933 0.28319
#
# Static dielectric constant tensor:
#      x y z
#    x 1.904400 0.000000 0.000000 
#    y 0.000000 1.907470 0.000000 
#    z 0.000000 0.000000 1.880450 
# 
# From -- ./inp_files/1256.got.cif
#   From: 2010.05.17/outbox.cif.g08.bks.cpg/sg62_1_cif.got.tgz:1256.got - 2010.06.03 15:25:27.
