data_PCOD9466081
_publ_section_title
;
Structure prediction by ZEFSAII (Michael W. Deem and Ramdas Pophale) SiO2 
 PCOD9466081
Probable space group: P N M A
;
_chemical_formula_sum "Si O2"
_cell_formula_units_Z 56
_cell_length_a 14.805155
_cell_length_b 8.935506
_cell_length_c 21.209806
_cell_angle_alpha 90.000000
_cell_angle_beta 90.000000
_cell_angle_gamma 90.000000
_cell_volume 2805.878139
_symmetry_space_group_name_H-M "P N M A"
_symmetry_group_IT_number 62
_symmetry_cell_setting 'orthorhombic'
loop_
_space_group_symop_operation_xyz
x,y,z
1/2-x,-y,1/2+z
1/2+x,1/2-y,1/2-z
-x,1/2+y,-z
-x,-y,-z
1/2+x,y,1/2-z
1/2-x,1/2+y,1/2+z
x,1/2-y,z
loop_
_atom_site_type_symbol
_atom_site_label
_atom_site_fract_x
_atom_site_fract_y
_atom_site_fract_z
Si Si1 0.998921 0.421357 0.725251
Si Si2 0.956479 0.919593 0.134308
Si Si3 0.307202 0.573261 0.753337
Si Si4 0.575120 0.073103 0.454551
Si Si5 0.775582 0.075400 0.106954
Si Si6 0.729629 0.427659 0.972335
Si Si7 0.345553 0.428810 0.150702
O O1 0.991097 0.250000 0.703591
O O2 0.053387 0.423439 0.790951
O O3 0.058507 0.516309 0.677189
O O4 0.900652 0.484366 0.742584
O O5 0.981109 0.750000 0.115675
O O6 0.862631 0.969851 0.103938
O O7 0.033898 0.034088 0.113584
O O8 0.324871 0.750000 0.742492
O O9 0.265686 0.559189 0.823741
O O10 0.235364 0.523582 0.699460
O O11 0.583989 0.250000 0.463782
O O12 0.500000 0.000000 0.500000
O O13 0.669315 0.989766 0.462251
O O14 0.804851 0.250000 0.100255
O O15 0.711560 0.043811 0.046879
O O16 0.726516 0.250000 0.962178
O O17 0.671129 0.506771 0.918831
O O18 0.343244 0.250000 0.149203
#
# Coordination Sequence:
#
# PCOD9466081 Si02
#       7
#     8   8   8   8   8   8   8
#     4  11  24  40  62  93 125 160 205 260 315 369
#     4  11  22  36  58  87 120 159 199 250 310 372
#     4  10  22  41  65  92 120 161 212 257 309 370
#     4  12  23  35  54  84 121 160 203 248 303 373
#     4  10  21  39  62  87 119 161 203 251 307 366
#     4  11  23  39  60  88 125 163 202 256 314 374
#     4  11  23  41  66  93 125 166 208 258 312 373
#
# _framework density 19.958100000000002
#
# number of rings (size 3 to 8) (size 9 to 14) (size 15 to 20)
#    0.000    1.143    2.857    3.857    0.000    6.286 
#    0.000    0.714    0.000    0.000    0.000    0.000 
#    0.000    0.000    0.000    0.000    0.000    0.000 
#
# Total GULP energy -312781.977635 kJ/mol
# GULP energy per Si atom -5585.392458 kJ/mol
# Density = 1.991267 g / cm^3
# Si number density = 19.958100 Si / 1000 Ang^3
#
#
#
# Elastic Constant Matrix: (Units=GPa)
#
#
# Indices 1 2 3 4 5 6 
#
# 1 32.1585 19.4340 -12.3617 0.0000 0.0000 0.0000
# 2 19.4340 66.8213 22.8746 0.0000 0.0000 0.0000
# 3 -12.3617 22.8746 62.5859 0.0000 0.0000 0.0000
# 4 0.0000 0.0000 0.0000 30.0587 0.0000 0.0000
# 5 0.0000 0.0000 0.0000 0.0000 25.0688 0.0000
# 6 0.0000 0.0000 0.0000 0.0000 0.0000 28.8548
#
#
#
# Elastic Compliance Matrix: (Units=1/GPa)
#
#
# Indices 1 2 3 4 5 6 
#
# 1 0.050243 -0.020585 0.017447 0.000000 0.000000 0.000000
# 2 -0.020585 0.025539 -0.013400 0.000000 0.000000 0.000000
# 3 0.017447 -0.013400 0.024322 0.000000 0.000000 0.000000
# 4 0.000000 0.000000 0.000000 0.033268 0.000000 0.000000
# 5 0.000000 0.000000 0.000000 0.000000 0.039890 0.000000
# 6 0.000000 0.000000 0.000000 0.000000 0.000000 0.034656
#
#
# Mechanical properties :
#
#
# Convention : Reuss Voigt Hill
#
# Bulk Modulus (GPa) = 14.91915 24.60660 19.76288
# Shear Modulus (GPa) = 18.98709 25.57106 22.27907
#
# Velocity S-wave (km/s) = 3.08774 3.58332 3.34472
# Velocity P-wave (km/s) = 4.49485 5.42919 4.98396
#
# Compressibility (1/GPa) = 0.06702795
#
# Stress axis : x y z
#
# Youngs Moduli (GPa) = 19.90345 39.15523 41.11530
#
# Poissons Ratio (x) = 0.80601 -0.71735
# Poissons Ratio (y) = 0.40971 0.55096
# Poissons Ratio (z) = -0.34726 0.52469
#
# Static dielectric constant tensor:
#      x y z
#    x 1.677990 0.000000 0.000000 
#    y 0.000000 1.700180 0.000000 
#    z 0.000000 0.000000 1.790510 
# 
# From -- ./inp_files/27252.got.cif
#   From: 2010.05.17/outbox.cif.g08.bks.cpg/sg62_14_cif.got.tgz:27252.got - 2010.06.03 15:25:27.
