data_PCOD9466301
_publ_section_title
;
Structure prediction by ZEFSAII (Michael W. Deem and Ramdas Pophale) SiO2 
 PCOD9466301
Probable space group: P N M A
;
_chemical_formula_sum "Si O2"
_cell_formula_units_Z 48
_cell_length_a 17.690705
_cell_length_b 13.961868
_cell_length_c 10.155051
_cell_angle_alpha 90.000000
_cell_angle_beta 90.000000
_cell_angle_gamma 90.000000
_cell_volume 2508.249747
_symmetry_space_group_name_H-M "P N M A"
_symmetry_group_IT_number 62
_symmetry_cell_setting 'orthorhombic'
loop_
_space_group_symop_operation_xyz
x,y,z
1/2-x,-y,1/2+z
1/2+x,1/2-y,1/2-z
-x,1/2+y,-z
-x,-y,-z
1/2+x,y,1/2-z
1/2-x,1/2+y,1/2+z
x,1/2-y,z
loop_
_atom_site_type_symbol
_atom_site_label
_atom_site_fract_x
_atom_site_fract_y
_atom_site_fract_z
Si Si1 0.684460 0.980778 0.880063
Si Si2 0.942486 0.639958 0.762879
Si Si3 0.568463 0.362830 0.952689
Si Si4 0.894350 0.363841 0.609987
Si Si5 0.384324 0.137850 0.344637
Si Si6 0.641826 0.963307 0.382431
O O1 0.627703 0.071036 0.877720
O O2 0.769622 0.015069 0.895909
O O3 0.673412 0.918130 0.749046
O O4 0.656880 0.917011 0.002939
O O5 0.922660 0.750000 0.796425
O O6 0.921973 0.623385 0.609902
O O7 0.901509 0.562444 0.852925
O O8 0.032860 0.630829 0.778307
O O9 0.578963 0.250000 0.924687
O O10 0.482338 0.388704 0.916371
O O11 0.886990 0.250000 0.594203
O O12 0.872567 0.397270 0.755366
O O13 0.364907 0.250000 0.355407
O O14 0.386586 0.088951 0.486752
#
# Coordination Sequence:
#
# PCOD9466301 Si02
#       6
#     8   8   8   8   8   8
#     4  12  23  41  63  94 126 167 207 253 313 375
#     4  10  21  41  67  94 122 166 215 256 305 368
#     4  10  21  40  69  95 119 164 218 263 299 358
#     4  11  22  41  67  91 121 164 219 259 299 369
#     4  11  24  42  64  91 129 168 209 257 314 371
#     4  12  25  40  60  98 131 166 197 259 324 370
#
# _framework density 19.136849000000002
#
# number of rings (size 3 to 8) (size 9 to 14) (size 15 to 20)
#    0.000    1.000    3.333    4.000    0.000    2.667 
#    0.000    2.500    0.000    0.000    0.000    0.000 
#    0.000    0.000    0.000    0.000    0.000    0.000 
#
# Total GULP energy -268541.083588 kJ/mol
# GULP energy per Si atom -5594.605908 kJ/mol
# Density = 1.909329 g / cm^3
# Si number density = 19.136849 Si / 1000 Ang^3
#
#
#
# Elastic Constant Matrix: (Units=GPa)
#
#
# Indices 1 2 3 4 5 6 
#
# 1 52.4633 28.9120 -14.7340 0.0000 0.0000 0.0000
# 2 28.9120 95.8232 12.0057 0.0000 0.0000 0.0000
# 3 -14.7340 12.0057 53.7097 0.0000 0.0000 0.0000
# 4 0.0000 0.0000 0.0000 28.8745 0.0000 0.0000
# 5 0.0000 0.0000 0.0000 0.0000 5.4470 0.0000
# 6 0.0000 0.0000 0.0000 0.0000 0.0000 -0.2188
#
#
#
# Elastic Compliance Matrix: (Units=1/GPa)
#
#
# Indices 1 2 3 4 5 6 
#
# 1 0.026820 -0.009274 0.009430 0.000000 0.000000 0.000000
# 2 -0.009274 0.013943 -0.005661 0.000000 0.000000 0.000000
# 3 0.009430 -0.005661 0.022471 0.000000 0.000000 0.000000
# 4 0.000000 0.000000 0.000000 0.034633 0.000000 0.000000
# 5 0.000000 0.000000 0.000000 0.000000 0.183586 0.000000
# 6 0.000000 0.000000 0.000000 0.000000 0.000000 -4.571229
#
#
# Mechanical properties :
#
#
# Convention : Reuss Voigt Hill
#
# Bulk Modulus (GPa) = 19.14752 28.26263 23.70507
# Shear Modulus (GPa) = -1.17333 18.54139 8.68403
#
# Velocity S-wave (km/s) = -0.78387 3.11607 2.13254
# Velocity P-wave (km/s) = 3.03447 5.26757 4.29856
#
# Compressibility (1/GPa) = 0.05222607
#
# Stress axis : x y z
#
# Youngs Moduli (GPa) = 37.28549 71.71951 44.50190
#
# Poissons Ratio (x) = 0.66511 -0.41967
# Poissons Ratio (y) = 0.34578 0.25191
# Poissons Ratio (z) = -0.35162 0.40599
#
# Static dielectric constant tensor:
#      x y z
#    x 1.633160 0.000000 0.000000 
#    y 0.000000 1.669630 0.000000 
#    z 0.000000 0.000000 1.637510 
# 
# From -- ./inp_files/7633.got.cif
#   From: 2010.05.17/outbox.cif.g08.bks.cpg/sg62_4_cif.got.tgz:7633.got - 2010.06.03 15:25:27.
