data_PCOD9466002
_publ_section_title
;
Structure prediction by ZEFSAII (Michael W. Deem and Ramdas Pophale) SiO2 
 PCOD9466002
Probable space group: P N M A
;
_chemical_formula_sum "Si O2"
_cell_formula_units_Z 60
_cell_length_a 28.452609
_cell_length_b 9.843537
_cell_length_c 9.850044
_cell_angle_alpha 90.000000
_cell_angle_beta 90.000000
_cell_angle_gamma 90.000000
_cell_volume 2758.744271
_symmetry_space_group_name_H-M "P N M A"
_symmetry_group_IT_number 62
_symmetry_cell_setting 'orthorhombic'
loop_
_space_group_symop_operation_xyz
x,y,z
1/2-x,-y,1/2+z
1/2+x,1/2-y,1/2-z
-x,1/2+y,-z
-x,-y,-z
1/2+x,y,1/2-z
1/2-x,1/2+y,1/2+z
x,1/2-y,z
loop_
_atom_site_type_symbol
_atom_site_label
_atom_site_fract_x
_atom_site_fract_y
_atom_site_fract_z
Si Si1 0.788007 0.892971 0.643350
Si Si2 0.764034 0.250000 0.839333
Si Si3 0.069993 0.090038 0.069363
Si Si4 0.033451 0.901292 0.839706
Si Si5 0.668953 0.007860 0.405556
Si Si6 0.455166 0.094734 0.024283
Si Si7 0.648917 0.913189 0.968947
Si Si8 0.694977 0.021929 0.705879
O O1 0.795956 0.750000 0.567176
O O2 0.810046 0.893863 0.791693
O O3 0.811216 0.015582 0.560518
O O4 0.732945 0.908271 0.664210
O O5 0.802142 0.369918 0.883568
O O6 0.727727 0.133064 0.777568
O O7 0.081876 0.250000 0.057775
O O8 0.113595 0.004222 0.123635
O O9 0.022936 0.080633 0.159109
O O10 0.055496 0.020851 0.927460
O O11 0.042864 0.750000 0.899695
O O12 0.050543 0.900263 0.686837
O O13 0.673564 0.060917 0.560273
O O14 0.463831 0.250000 0.976354
O O15 0.403184 0.048785 0.977510
O O16 0.500000 0.000000 0.000000
O O17 0.653110 0.750000 0.974043
O O18 0.658621 0.965859 0.816464
#
# Coordination Sequence:
#
# PCOD9466002 Si02
#       8
#     8   4   8   8   8   8   8   8
#     4  11  25  43  68 100 135 178 226 285 346 406
#     4  10  26  44  64 108 134 184 224 288 346 420
#     4  10  21  38  65 102 130 167 220 281 340 406
#     4   9  20  40  65  93 134 173 218 278 343 405
#     4  11  25  42  68  98 135 177 231 278 351 410
#     4  10  23  44  66  95 134 182 227 277 342 413
#     4  11  26  45  69 102 139 184 231 282 351 420
#     4  11  25  44  72  93 140 177 231 283 343 412
#
# _framework density 21.749025
#
# number of rings (size 3 to 8) (size 9 to 14) (size 15 to 20)
#    0.000    1.600    0.000    3.200   13.067    1.067 
#    0.000    0.000    0.000    0.000    0.000    0.000 
#    0.000    0.000    0.000    0.000    0.000    0.000 
#
# Total GULP energy -334003.690173 kJ/mol
# GULP energy per Si atom -5566.728170 kJ/mol
# Density = 2.169952 g / cm^3
# Si number density = 21.749025 Si / 1000 Ang^3
#
#
#
# Elastic Constant Matrix: (Units=GPa)
#
#
# Indices 1 2 3 4 5 6 
#
# 1 64.9383 17.7973 9.0454 0.0000 0.0000 0.0000
# 2 17.7973 90.3142 5.6506 0.0000 0.0000 0.0000
# 3 9.0454 5.6506 68.4688 0.0000 0.0000 0.0000
# 4 0.0000 0.0000 0.0000 19.2649 0.0000 0.0000
# 5 0.0000 0.0000 0.0000 0.0000 29.0374 0.0000
# 6 0.0000 0.0000 0.0000 0.0000 0.0000 37.3785
#
#
#
# Elastic Compliance Matrix: (Units=1/GPa)
#
#
# Indices 1 2 3 4 5 6 
#
# 1 0.016527 -0.003136 -0.001925 0.000000 0.000000 0.000000
# 2 -0.003136 0.011725 -0.000553 0.000000 0.000000 0.000000
# 3 -0.001925 -0.000553 0.014905 0.000000 0.000000 0.000000
# 4 0.000000 0.000000 0.000000 0.051908 0.000000 0.000000
# 5 0.000000 0.000000 0.000000 0.000000 0.034438 0.000000
# 6 0.000000 0.000000 0.000000 0.000000 0.000000 0.026753
#
#
# Mechanical properties :
#
#
# Convention : Reuss Voigt Hill
#
# Bulk Modulus (GPa) = 31.31979 32.07866 31.69923
# Shear Modulus (GPa) = 28.06972 29.88470 28.97721
#
# Velocity S-wave (km/s) = 3.59642 3.71087 3.65409
# Velocity P-wave (km/s) = 5.62827 5.75693 5.69296
#
# Compressibility (1/GPa) = 0.03192869
#
# Stress axis : x y z
#
# Youngs Moduli (GPa) = 60.50746 85.28686 67.09112
#
# Poissons Ratio (x) = 0.26749 0.12912
# Poissons Ratio (y) = 0.18977 0.03712
# Poissons Ratio (z) = 0.11645 0.04719
#
# Static dielectric constant tensor:
#      x y z
#    x 1.806190 0.000000 0.000000 
#    y 0.000000 1.830190 0.000000 
#    z 0.000000 0.000000 1.867470 
# 
# From -- ./inp_files/15518.got.cif
#   From: 2010.05.17/outbox.cif.g08.bks.cpg/sg62_8_cif.got.tgz:15518.got - 2010.06.03 15:25:27.
