data_PCOD9466389
_publ_section_title
;
Structure prediction by ZEFSAII (Michael W. Deem and Ramdas Pophale) SiO2 
 PCOD9466389
Probable space group: P N M A
;
_chemical_formula_sum "Si O2"
_cell_formula_units_Z 64
_cell_length_a 29.526202
_cell_length_b 18.252393
_cell_length_c 5.691697
_cell_angle_alpha 90.000000
_cell_angle_beta 90.000000
_cell_angle_gamma 90.000000
_cell_volume 3067.391219
_symmetry_space_group_name_H-M "P N M A"
_symmetry_group_IT_number 62
_symmetry_cell_setting 'orthorhombic'
loop_
_space_group_symop_operation_xyz
x,y,z
1/2-x,-y,1/2+z
1/2+x,1/2-y,1/2-z
-x,1/2+y,-z
-x,-y,-z
1/2+x,y,1/2-z
1/2-x,1/2+y,1/2+z
x,1/2-y,z
loop_
_atom_site_type_symbol
_atom_site_label
_atom_site_fract_x
_atom_site_fract_y
_atom_site_fract_z
Si Si1 0.979753 0.049012 0.299046
Si Si2 0.232927 0.330050 0.229586
Si Si3 0.287787 0.083054 0.900121
Si Si4 0.926355 0.955382 0.959304
Si Si5 0.592760 0.836947 0.848920
Si Si6 0.857374 0.833856 0.090799
Si Si7 0.127106 0.900981 0.153829
Si Si8 0.798919 0.937673 0.379677
O O1 0.956560 0.125072 0.361763
O O2 0.023531 0.061664 0.136892
O O3 0.000000 0.000000 0.500000
O O4 0.939544 0.998301 0.196535
O O5 0.238173 0.250000 0.342735
O O6 0.186395 0.329087 0.079189
O O7 0.226104 0.394591 0.412717
O O8 0.275156 0.347636 0.059516
O O9 0.318709 0.095047 0.674307
O O10 0.238089 0.054950 0.825846
O O11 0.312125 0.018595 0.043902
O O12 0.897394 0.881839 0.979756
O O13 0.897076 0.019009 0.830992
O O14 0.591167 0.750000 0.838223
O O15 0.613405 0.864843 0.596572
O O16 0.614975 0.860044 0.099858
O O17 0.869460 0.750000 0.153668
O O18 0.839465 0.884743 0.302873
#
# Coordination Sequence:
#
# PCOD9466389 Si02
#       8
#     8   8   8   8   8   8   8   8
#     4  10  21  42  65  97 130 172 219 277 343 412
#     4  10  22  40  60  87 131 171 215 280 341 389
#     4  11  24  37  62  94 123 176 229 280 328 404
#     4  10  22  39  68  96 129 173 221 276 339 420
#     4  11  25  45  69  99 139 180 226 286 348 408
#     4  10  23  41  63  96 133 171 218 279 347 409
#     4  11  25  42  68 100 135 180 231 281 339 406
#     4  11  22  39  62  91 127 171 229 280 334 401
#
# _framework density 20.864635
#
# number of rings (size 3 to 8) (size 9 to 14) (size 15 to 20)
#    0.000    1.500    2.500    1.500    7.000    3.000 
#    0.000    0.625    0.000    0.000    0.000    0.000 
#    0.000    0.000    0.000    0.000    0.000    0.000 
#
# Total GULP energy -356843.285419 kJ/mol
# GULP energy per Si atom -5575.676335 kJ/mol
# Density = 2.081715 g / cm^3
# Si number density = 20.864635 Si / 1000 Ang^3
#
#
#
# Elastic Constant Matrix: (Units=GPa)
#
#
# Indices 1 2 3 4 5 6 
#
# 1 74.2045 55.0809 21.4064 0.0000 0.0000 0.0000
# 2 55.0809 143.0698 29.2317 0.0000 0.0000 0.0000
# 3 21.4064 29.2317 66.9069 0.0000 0.0000 0.0000
# 4 0.0000 0.0000 0.0000 30.4923 0.0000 0.0000
# 5 0.0000 0.0000 0.0000 0.0000 27.2315 0.0000
# 6 0.0000 0.0000 0.0000 0.0000 0.0000 23.5987
#
#
#
# Elastic Compliance Matrix: (Units=1/GPa)
#
#
# Indices 1 2 3 4 5 6 
#
# 1 0.019490 -0.006840 -0.003247 0.000000 0.000000 0.000000
# 2 -0.006840 0.010075 -0.002213 0.000000 0.000000 0.000000
# 3 -0.003247 -0.002213 0.016952 0.000000 0.000000 0.000000
# 4 0.000000 0.000000 0.000000 0.032795 0.000000 0.000000
# 5 0.000000 0.000000 0.000000 0.000000 0.036722 0.000000
# 6 0.000000 0.000000 0.000000 0.000000 0.000000 0.042375
#
#
# Mechanical properties :
#
#
# Convention : Reuss Voigt Hill
#
# Bulk Modulus (GPa) = 45.62892 55.06881 50.34887
# Shear Modulus (GPa) = 26.27188 28.16199 27.21693
#
# Velocity S-wave (km/s) = 3.55231 3.67788 3.61564
# Velocity P-wave (km/s) = 6.22428 6.66981 6.45090
#
# Compressibility (1/GPa) = 0.02191593
#
# Stress axis : x y z
#
# Youngs Moduli (GPa) = 51.30724 99.25295 58.98956
#
# Poissons Ratio (x) = 0.67891 0.19156
# Poissons Ratio (y) = 0.35095 0.13057
# Poissons Ratio (z) = 0.16661 0.21969
#
# Static dielectric constant tensor:
#      x y z
#    x 1.789540 0.000000 0.000000 
#    y 0.000000 1.733310 0.000000 
#    z 0.000000 0.000000 1.788570 
# 
# From -- ./inp_files/3697.got.cif
#   From: 2010.05.17/outbox.cif.g08.bks.cpg/sg62_2_cif.got.tgz:3697.got - 2010.06.03 15:25:27.
