data_PCOD9466714
_publ_section_title
;
Structure prediction by ZEFSAII (Michael W. Deem and Ramdas Pophale) SiO2 
 PCOD9466714
Probable space group: P N M A
;
_chemical_formula_sum "Si O2"
_cell_formula_units_Z 48
_cell_length_a 15.227711
_cell_length_b 16.095831
_cell_length_c 9.455481
_cell_angle_alpha 90.000000
_cell_angle_beta 90.000000
_cell_angle_gamma 90.000000
_cell_volume 2317.563571
_symmetry_space_group_name_H-M "P N M A"
_symmetry_group_IT_number 62
_symmetry_cell_setting 'orthorhombic'
loop_
_space_group_symop_operation_xyz
x,y,z
1/2-x,-y,1/2+z
1/2+x,1/2-y,1/2-z
-x,1/2+y,-z
-x,-y,-z
1/2+x,y,1/2-z
1/2-x,1/2+y,1/2+z
x,1/2-y,z
loop_
_atom_site_type_symbol
_atom_site_label
_atom_site_fract_x
_atom_site_fract_y
_atom_site_fract_z
Si Si1 0.773489 0.350724 0.069328
Si Si2 0.604011 0.411982 0.912846
Si Si3 0.754142 0.155529 0.384335
Si Si4 0.531481 0.587532 0.566674
Si Si5 0.944702 0.100968 0.399422
Si Si6 0.618660 0.155242 0.605608
O O1 0.782881 0.250000 0.072536
O O2 0.745450 0.380797 0.227221
O O3 0.867301 0.391111 0.034325
O O4 0.696629 0.377900 0.965689
O O5 0.591144 0.509630 0.940851
O O6 0.599104 0.395573 0.746529
O O7 0.523721 0.371671 0.999861
O O8 0.720578 0.250000 0.375673
O O9 0.857915 0.156067 0.411078
O O10 0.697954 0.117533 0.511484
O O11 0.500000 0.500000 0.500000
O O12 0.523729 0.593926 0.736759
O O13 0.466313 0.652487 0.493787
O O14 0.639837 0.250000 0.648163
#
# Coordination Sequence:
#
# PCOD9466714 Si02
#       6
#     8   8   8   8   8   8
#     4  10  22  41  63  89 122 164 209 257 314 376
#     4  11  23  39  60  92 128 161 205 258 311 376
#     4   9  21  39  62  88 118 160 210 256 306 372
#     4  11  22  41  63  93 123 165 210 258 310 371
#     4  10  23  41  62  92 124 165 208 255 314 375
#     4  11  23  40  62  93 127 163 206 259 317 373
#
# _framework density 20.711407000000001
#
# number of rings (size 3 to 8) (size 9 to 14) (size 15 to 20)
#    0.000    1.667    1.667    2.000    2.333    3.333 
#    0.000    1.667    0.000    0.000    0.000    0.000 
#    0.000    0.000    0.000    0.000    0.000    0.000 
#
# Total GULP energy -268004.808473 kJ/mol
# GULP energy per Si atom -5583.433510 kJ/mol
# Density = 2.066427 g / cm^3
# Si number density = 20.711407 Si / 1000 Ang^3
#
#
#
# Elastic Constant Matrix: (Units=GPa)
#
#
# Indices 1 2 3 4 5 6 
#
# 1 123.2192 17.8260 87.4045 0.0000 0.0000 0.0000
# 2 17.8260 53.6505 9.9841 0.0000 0.0000 0.0000
# 3 87.4045 9.9841 116.5524 0.0000 0.0000 0.0000
# 4 0.0000 0.0000 0.0000 9.0339 0.0000 0.0000
# 5 0.0000 0.0000 0.0000 0.0000 26.0798 0.0000
# 6 0.0000 0.0000 0.0000 0.0000 0.0000 33.0589
#
#
#
# Elastic Compliance Matrix: (Units=1/GPa)
#
#
# Indices 1 2 3 4 5 6 
#
# 1 0.017970 -0.003519 -0.013174 0.000000 0.000000 0.000000
# 2 -0.003519 0.019630 0.000957 0.000000 0.000000 0.000000
# 3 -0.013174 0.000957 0.018378 0.000000 0.000000 0.000000
# 4 0.000000 0.000000 0.000000 0.110694 0.000000 0.000000
# 5 0.000000 0.000000 0.000000 0.000000 0.038344 0.000000
# 6 0.000000 0.000000 0.000000 0.000000 0.000000 0.030249
#
#
# Mechanical properties :
#
#
# Convention : Reuss Voigt Hill
#
# Bulk Modulus (GPa) = 40.80714 58.20570 49.50642
# Shear Modulus (GPa) = 18.18807 25.51502 21.85154
#
# Velocity S-wave (km/s) = 2.96660 3.51369 3.25168
# Velocity P-wave (km/s) = 5.61069 6.68024 6.16869
#
# Compressibility (1/GPa) = 0.02450551
#
# Stress axis : x y z
#
# Youngs Moduli (GPa) = 55.64860 50.94192 54.41416
#
# Poissons Ratio (x) = 0.17926 0.71688
# Poissons Ratio (y) = 0.19583 -0.05209
# Poissons Ratio (z) = 0.73314 -0.04877
#
# Static dielectric constant tensor:
#      x y z
#    x 1.725800 0.000000 0.000000 
#    y 0.000000 1.800210 0.000000 
#    z 0.000000 0.000000 1.765100 
# 
# From -- ./inp_files/6427.got.cif
#   From: 2010.05.17/outbox.cif.g08.bks.cpg/sg62_4_cif.got.tgz:6427.got - 2010.06.03 15:25:27.
