data_PCOD9466333
_publ_section_title
;
Structure prediction by ZEFSAII (Michael W. Deem and Ramdas Pophale) SiO2 
 PCOD9466333
Probable space group: P N M A
;
_chemical_formula_sum "Si O2"
_cell_formula_units_Z 60
_cell_length_a 23.357565
_cell_length_b 12.544453
_cell_length_c 9.447417
_cell_angle_alpha 90.000000
_cell_angle_beta 90.000000
_cell_angle_gamma 90.000000
_cell_volume 2768.167592
_symmetry_space_group_name_H-M "P N M A"
_symmetry_group_IT_number 62
_symmetry_cell_setting 'orthorhombic'
loop_
_space_group_symop_operation_xyz
x,y,z
1/2-x,-y,1/2+z
1/2+x,1/2-y,1/2-z
-x,1/2+y,-z
-x,-y,-z
1/2+x,y,1/2-z
1/2-x,1/2+y,1/2+z
x,1/2-y,z
loop_
_atom_site_type_symbol
_atom_site_label
_atom_site_fract_x
_atom_site_fract_y
_atom_site_fract_z
Si Si1 0.469143 0.576373 0.839192
Si Si2 0.399764 0.364099 0.882419
Si Si3 0.946611 0.750000 0.413163
Si Si4 0.902972 0.628109 0.944581
Si Si5 0.163125 0.865454 0.685246
Si Si6 0.779455 0.372730 0.761002
Si Si7 0.771832 0.557951 0.961661
Si Si8 0.078759 0.036195 0.770972
O O1 0.440532 0.463404 0.876084
O O2 0.433133 0.617375 0.705660
O O3 0.532704 0.546437 0.791359
O O4 0.463935 0.657603 0.967178
O O5 0.431169 0.250000 0.858927
O O6 0.347803 0.374333 0.770994
O O7 0.369078 0.361717 0.033704
O O8 0.924449 0.651005 0.306759
O O9 0.906312 0.750000 0.989816
O O10 0.836394 0.595915 0.940402
O O11 0.932521 0.556834 0.064152
O O12 0.153231 0.750000 0.756688
O O13 0.229138 0.877891 0.642183
O O14 0.138406 0.971009 0.758433
O O15 0.761231 0.250000 0.769884
O O16 0.766954 0.437707 0.902980
O O17 0.750327 0.423446 0.620988
#
# Coordination Sequence:
#
# PCOD9466333 Si02
#       8
#     8   8   4   8   8   8   8   8
#     4  12  25  44  72 104 137 184 231 279 350 424
#     4   9  19  37  65  95 132 173 226 281 330 405
#     4  12  26  46  72 106 134 180 236 292 340 400
#     4  12  25  46  68 100 147 184 226 288 363 431
#     4  10  22  40  66 100 133 180 238 292 343 402
#     4  10  21  41  64  97 134 180 234 287 349 415
#     4  11  22  43  72  98 138 187 236 293 354 418
#     4  12  27  45  70 104 146 182 231 292 354 414
#
# _framework density 21.674987000000002
#
# number of rings (size 3 to 8) (size 9 to 14) (size 15 to 20)
#    0.000    1.067    4.000    3.600    1.867    0.000 
#    1.200    4.667    0.000    0.000    0.000    0.000 
#    0.000    0.000    0.000    0.000    0.000    0.000 
#
# Total GULP energy -334407.357183 kJ/mol
# GULP energy per Si atom -5573.455953 kJ/mol
# Density = 2.162565 g / cm^3
# Si number density = 21.674987 Si / 1000 Ang^3
#
#
#
# Elastic Constant Matrix: (Units=GPa)
#
#
# Indices 1 2 3 4 5 6 
#
# 1 74.3570 31.3116 13.2485 0.0000 0.0000 0.0000
# 2 31.3116 132.7162 35.2129 0.0000 0.0000 0.0000
# 3 13.2485 35.2129 52.5248 0.0000 0.0000 0.0000
# 4 0.0000 0.0000 0.0000 27.2872 0.0000 0.0000
# 5 0.0000 0.0000 0.0000 0.0000 10.0680 0.0000
# 6 0.0000 0.0000 0.0000 0.0000 0.0000 24.8140
#
#
#
# Elastic Compliance Matrix: (Units=1/GPa)
#
#
# Indices 1 2 3 4 5 6 
#
# 1 0.015059 -0.003096 -0.001723 0.000000 0.000000 0.000000
# 2 -0.003096 0.009802 -0.005790 0.000000 0.000000 0.000000
# 3 -0.001723 -0.005790 0.023355 0.000000 0.000000 0.000000
# 4 0.000000 0.000000 0.000000 0.036647 0.000000 0.000000
# 5 0.000000 0.000000 0.000000 0.000000 0.099324 0.000000
# 6 0.000000 0.000000 0.000000 0.000000 0.000000 0.040300
#
#
# Mechanical properties :
#
#
# Convention : Reuss Voigt Hill
#
# Bulk Modulus (GPa) = 37.03993 46.57157 41.80575
# Shear Modulus (GPa) = 19.63059 24.42216 22.02638
#
# Velocity S-wave (km/s) = 3.01272 3.36034 3.19127
# Velocity P-wave (km/s) = 5.40628 6.04887 5.73658
#
# Compressibility (1/GPa) = 0.02699789
#
# Stress axis : x y z
#
# Youngs Moduli (GPa) = 66.40434 102.02502 42.81740
#
# Poissons Ratio (x) = 0.31584 0.07378
# Poissons Ratio (y) = 0.20557 0.24792
# Poissons Ratio (z) = 0.11442 0.59074
#
# Static dielectric constant tensor:
#      x y z
#    x 1.888810 0.000000 0.000000 
#    y 0.000000 1.784660 0.000000 
#    z 0.000000 0.000000 1.758600 
# 
# From -- ./inp_files/9909.got.cif
#   From: 2010.05.17/outbox.cif.g08.bks.cpg/sg62_5_cif.got.tgz:9909.got - 2010.06.03 15:25:27.
