data_PCOD9466870
_publ_section_title
;
Structure prediction by ZEFSAII (Michael W. Deem and Ramdas Pophale) SiO2 
 PCOD9466870
Probable space group: P N M A
;
_chemical_formula_sum "Si O2"
_cell_formula_units_Z 32
_cell_length_a 9.107670
_cell_length_b 11.044803
_cell_length_c 13.051537
_cell_angle_alpha 90.000000
_cell_angle_beta 90.000000
_cell_angle_gamma 90.000000
_cell_volume 1312.885704
_symmetry_space_group_name_H-M "P N M A"
_symmetry_group_IT_number 62
_symmetry_cell_setting 'orthorhombic'
loop_
_space_group_symop_operation_xyz
x,y,z
1/2-x,-y,1/2+z
1/2+x,1/2-y,1/2-z
-x,1/2+y,-z
-x,-y,-z
1/2+x,y,1/2-z
1/2-x,1/2+y,1/2+z
x,1/2-y,z
loop_
_atom_site_type_symbol
_atom_site_label
_atom_site_fract_x
_atom_site_fract_y
_atom_site_fract_z
Si Si1 0.931982 0.618271 0.799047
Si Si2 0.767483 0.118932 0.877484
Si Si3 0.044629 0.613975 0.428286
Si Si4 0.248144 0.932438 0.883070
O O1 0.890005 0.750000 0.843891
O O2 0.848031 0.501927 0.843093
O O3 0.884164 0.620991 0.680729
O O4 0.102670 0.598296 0.820814
O O5 0.826796 0.250000 0.843001
O O6 0.593688 0.114807 0.850995
O O7 0.772453 0.115737 0.002132
O O8 0.050455 0.750000 0.471358
O O9 0.204196 0.573548 0.388665
O O10 0.000000 0.500000 0.500000
#
# Coordination Sequence:
#
# PCOD9466870 Si02
#       4
#     8   8   8   8
#     4  12  25  42  67  98 132 178 230 281 338 406
#     4  10  22  43  68  97 132 170 217 278 342 404
#     4   9  20  39  66  96 128 167 212 264 325 390
#     4  11  24  42  66  97 135 175 221 275 335 400
#
# _framework density 24.373788999999999
#
# number of rings (size 3 to 8) (size 9 to 14) (size 15 to 20)
#    0.000    1.500    0.000    4.500    0.000    8.000 
#    0.000    2.500    0.000    0.000    0.000    0.000 
#    0.000    0.000    0.000    0.000    0.000    0.000 
#
# Total GULP energy -178551.674474 kJ/mol
# GULP energy per Si atom -5579.739827 kJ/mol
# Density = 2.431831 g / cm^3
# Si number density = 24.373789 Si / 1000 Ang^3
#
#
#
# Elastic Constant Matrix: (Units=GPa)
#
#
# Indices 1 2 3 4 5 6 
#
# 1 63.9949 71.3369 9.5413 0.0000 0.0000 0.0000
# 2 71.3369 269.3234 45.2821 0.0000 0.0000 0.0000
# 3 9.5413 45.2821 77.0798 0.0000 0.0000 0.0000
# 4 0.0000 0.0000 0.0000 22.7572 0.0000 0.0000
# 5 0.0000 0.0000 0.0000 0.0000 34.8182 0.0000
# 6 0.0000 0.0000 0.0000 0.0000 0.0000 33.3941
#
#
#
# Elastic Compliance Matrix: (Units=1/GPa)
#
#
# Indices 1 2 3 4 5 6 
#
# 1 0.022216 -0.006016 0.000784 0.000000 0.000000 0.000000
# 2 -0.006016 0.005749 -0.002633 0.000000 0.000000 0.000000
# 3 0.000784 -0.002633 0.014423 0.000000 0.000000 0.000000
# 4 0.000000 0.000000 0.000000 0.043942 0.000000 0.000000
# 5 0.000000 0.000000 0.000000 0.000000 0.028721 0.000000
# 6 0.000000 0.000000 0.000000 0.000000 0.000000 0.029945
#
#
# Mechanical properties :
#
#
# Convention : Reuss Voigt Hill
#
# Bulk Modulus (GPa) = 37.51093 73.63540 55.57316
# Shear Modulus (GPa) = 29.47906 37.14309 33.31108
#
# Velocity S-wave (km/s) = 3.48150 3.90794 3.70087
# Velocity P-wave (km/s) = 5.62000 7.11612 6.41185
#
# Compressibility (1/GPa) = 0.02665890
#
# Stress axis : x y z
#
# Youngs Moduli (GPa) = 45.01296 173.93640 69.33304
#
# Poissons Ratio (x) = 1.04645 -0.05439
# Poissons Ratio (y) = 0.27081 0.18254
# Poissons Ratio (z) = -0.03531 0.45794
#
# Static dielectric constant tensor:
#      x y z
#    x 1.977590 0.000000 0.000000 
#    y 0.000000 2.005310 0.000000 
#    z 0.000000 0.000000 2.048470 
# 
# From -- ./inp_files/16441.got.cif
#   From: 2010.05.17/outbox.cif.g08.bks.cpg/sg62_9_cif.got.tgz:16441.got - 2010.06.03 15:25:27.
