data_PCOD9466809
_publ_section_title
;
Structure prediction by ZEFSAII (Michael W. Deem and Ramdas Pophale) SiO2 
 PCOD9466809
Probable space group: P N M A
;
_chemical_formula_sum "Si O2"
_cell_formula_units_Z 60
_cell_length_a 18.540128
_cell_length_b 9.331218
_cell_length_c 16.156933
_cell_angle_alpha 90.000000
_cell_angle_beta 90.000000
_cell_angle_gamma 90.000000
_cell_volume 2795.181337
_symmetry_space_group_name_H-M "P N M A"
_symmetry_group_IT_number 62
_symmetry_cell_setting 'orthorhombic'
loop_
_space_group_symop_operation_xyz
x,y,z
1/2-x,-y,1/2+z
1/2+x,1/2-y,1/2-z
-x,1/2+y,-z
-x,-y,-z
1/2+x,y,1/2-z
1/2-x,1/2+y,1/2+z
x,1/2-y,z
loop_
_atom_site_type_symbol
_atom_site_label
_atom_site_fract_x
_atom_site_fract_y
_atom_site_fract_z
Si Si1 0.684459 0.420465 0.292573
Si Si2 0.483322 0.750000 0.535935
Si Si3 0.685248 0.086003 0.724118
Si Si4 0.708879 0.586216 0.463183
Si Si5 0.428000 0.414853 0.805867
Si Si6 0.079356 0.506860 0.922364
Si Si7 0.343122 0.415080 0.978090
Si Si8 0.581964 0.085085 0.880276
O O1 0.685212 0.250000 0.298424
O O2 0.747347 0.479932 0.232356
O O3 0.698536 0.491989 0.381374
O O4 0.609313 0.480714 0.258586
O O5 0.452964 0.626640 0.471490
O O6 0.517972 0.622690 0.594834
O O7 0.710012 0.250000 0.708056
O O8 0.626874 0.042179 0.655598
O O9 0.645249 0.082442 0.812616
O O10 0.727878 0.750000 0.442042
O O11 0.635282 0.583423 0.514663
O O12 0.771974 0.511965 0.515843
O O13 0.428267 0.250000 0.774302
O O14 0.508432 0.453112 0.833463
O O15 0.380301 0.418857 0.889167
O O16 0.325156 0.250000 0.998052
O O17 0.397828 0.480178 0.045643
O O18 0.574042 0.250000 0.910426
#
# Coordination Sequence:
#
# PCOD9466809 Si02
#       8
#     8   4   8   8   8   8   8   8
#     4  12  27  43  66 101 135 168 223 285 333 394
#     4  10  24  44  64 100 134 168 230 282 334 396
#     4  11  23  43  69  96 135 180 222 268 334 406
#     4  12  25  44  68  93 130 180 225 276 335 400
#     4  10  23  43  67  99 134 175 217 267 330 401
#     4  11  24  44  70  99 134 182 226 281 339 403
#     4  11  23  40  67  99 134 171 219 277 330 387
#     4  10  22  42  67  96 132 180 222 263 330 396
#
# _framework density 21.465513000000001
#
# number of rings (size 3 to 8) (size 9 to 14) (size 15 to 20)
#    0.000    1.067    2.667    3.200    2.800    5.867 
#    2.400    0.000    0.000    0.000    0.000    0.000 
#    0.000    0.000    0.000    0.000    0.000    0.000 
#
# Total GULP energy -334762.903453 kJ/mol
# GULP energy per Si atom -5579.381724 kJ/mol
# Density = 2.141666 g / cm^3
# Si number density = 21.465513 Si / 1000 Ang^3
#
#
#
# Elastic Constant Matrix: (Units=GPa)
#
#
# Indices 1 2 3 4 5 6 
#
# 1 46.2607 36.3287 9.5447 0.0000 0.0000 0.0000
# 2 36.3287 142.9963 15.0361 0.0000 0.0000 0.0000
# 3 9.5447 15.0361 43.8767 0.0000 0.0000 0.0000
# 4 0.0000 0.0000 0.0000 24.6521 0.0000 0.0000
# 5 0.0000 0.0000 0.0000 0.0000 21.7031 0.0000
# 6 0.0000 0.0000 0.0000 0.0000 0.0000 32.7800
#
#
#
# Elastic Compliance Matrix: (Units=1/GPa)
#
#
# Indices 1 2 3 4 5 6 
#
# 1 0.027581 -0.006615 -0.003733 0.000000 0.000000 0.000000
# 2 -0.006615 0.008841 -0.001591 0.000000 0.000000 0.000000
# 3 -0.003733 -0.001591 0.024148 0.000000 0.000000 0.000000
# 4 0.000000 0.000000 0.000000 0.040564 0.000000 0.000000
# 5 0.000000 0.000000 0.000000 0.000000 0.046076 0.000000
# 6 0.000000 0.000000 0.000000 0.000000 0.000000 0.030506
#
#
# Mechanical properties :
#
#
# Convention : Reuss Voigt Hill
#
# Bulk Modulus (GPa) = 27.25271 39.43918 33.34595
# Shear Modulus (GPa) = 23.38349 27.30866 25.34608
#
# Velocity S-wave (km/s) = 3.30411 3.57068 3.43998
# Velocity P-wave (km/s) = 5.22301 5.95087 5.59878
#
# Compressibility (1/GPa) = 0.03669360
#
# Stress axis : x y z
#
# Youngs Moduli (GPa) = 36.25640 113.11042 41.41069
#
# Poissons Ratio (x) = 0.74818 0.15459
# Poissons Ratio (y) = 0.23982 0.06588
# Poissons Ratio (z) = 0.13535 0.17993
#
# Static dielectric constant tensor:
#      x y z
#    x 1.813370 0.000000 0.000000 
#    y 0.000000 1.733350 0.000000 
#    z 0.000000 0.000000 1.761150 
# 
# From -- ./inp_files/24396.got.cif
#   From: 2010.05.17/outbox.cif.g08.bks.cpg/sg62_13_cif.got.tgz:24396.got - 2010.06.03 15:25:27.
