data_PCOD9466296
_publ_section_title
;
Structure prediction by ZEFSAII (Michael W. Deem and Ramdas Pophale) SiO2 
 PCOD9466296
Probable space group: P N M A
;
_chemical_formula_sum "Si O2"
_cell_formula_units_Z 56
_cell_length_a 15.040409
_cell_length_b 29.264369
_cell_length_c 5.416918
_cell_angle_alpha 90.000000
_cell_angle_beta 90.000000
_cell_angle_gamma 90.000000
_cell_volume 2384.246051
_symmetry_space_group_name_H-M "P N M A"
_symmetry_group_IT_number 62
_symmetry_cell_setting 'orthorhombic'
loop_
_space_group_symop_operation_xyz
x,y,z
1/2-x,-y,1/2+z
1/2+x,1/2-y,1/2-z
-x,1/2+y,-z
-x,-y,-z
1/2+x,y,1/2-z
1/2-x,1/2+y,1/2+z
x,1/2-y,z
loop_
_atom_site_type_symbol
_atom_site_label
_atom_site_fract_x
_atom_site_fract_y
_atom_site_fract_z
Si Si1 0.528851 0.800728 0.323967
Si Si2 0.722123 0.698630 0.078754
Si Si3 0.526004 0.526032 0.252295
Si Si4 0.279339 0.884784 0.131000
Si Si5 0.531173 0.386109 0.967433
Si Si6 0.617088 0.860906 0.694179
Si Si7 0.730542 0.525069 0.139690
O O1 0.490904 0.750000 0.341524
O O2 0.631139 0.796852 0.234718
O O3 0.482210 0.835288 0.137934
O O4 0.542760 0.827508 0.577303
O O5 0.755642 0.750000 0.029613
O O6 0.784002 0.663963 0.229457
O O7 0.685657 0.671311 0.842989
O O8 0.500000 0.500000 0.500000
O O9 0.482997 0.576200 0.244248
O O10 0.630766 0.529710 0.232964
O O11 0.500000 0.500000 0.000000
O O12 0.365779 0.890912 0.957289
O O13 0.276589 0.925782 0.328058
O O14 0.184044 0.885410 0.993327
O O15 0.445763 0.393590 0.144151
O O16 0.770416 0.492662 0.357717
#
# Coordination Sequence:
#
# PCOD9466296 Si02
#       7
#     8   8   8   8   8   8   8
#     4   9  19  38  64  93 131 177 227 288 353 418
#     4   9  19  38  64  94 131 176 227 284 352 419
#     4  12  27  48  74 106 142 187 240 299 363 429
#     4  11  25  43  66  98 140 183 232 290 355 422
#     4  11  25  43  66 100 139 183 235 290 354 432
#     4  10  21  40  68  97 136 179 234 289 354 421
#     4  12  27  48  74 106 142 189 238 297 363 429
#
# _framework density 23.487507000000001
#
# number of rings (size 3 to 8) (size 9 to 14) (size 15 to 20)
#    0.000    1.429    0.000    5.571    8.000    2.857 
#    0.000    0.000    0.000    0.000    0.000    0.000 
#    0.000    0.000    0.000    0.000    0.000    0.000 
#
# Total GULP energy -312725.480500 kJ/mol
# GULP energy per Si atom -5584.383580 kJ/mol
# Density = 2.343405 g / cm^3
# Si number density = 23.487507 Si / 1000 Ang^3
#
#
#
# Elastic Constant Matrix: (Units=GPa)
#
#
# Indices 1 2 3 4 5 6 
#
# 1 79.3005 4.8673 -13.6981 0.0000 0.0000 0.0000
# 2 4.8673 113.8747 18.3397 0.0000 0.0000 0.0000
# 3 -13.6981 18.3397 72.5762 0.0000 0.0000 0.0000
# 4 0.0000 0.0000 0.0000 11.9973 0.0000 0.0000
# 5 0.0000 0.0000 0.0000 0.0000 25.1580 0.0000
# 6 0.0000 0.0000 0.0000 0.0000 0.0000 17.3599
#
#
#
# Elastic Compliance Matrix: (Units=1/GPa)
#
#
# Indices 1 2 3 4 5 6 
#
# 1 0.013144 -0.001002 0.002734 0.000000 0.000000 0.000000
# 2 -0.001002 0.009231 -0.002522 0.000000 0.000000 0.000000
# 3 0.002734 -0.002522 0.014932 0.000000 0.000000 0.000000
# 4 0.000000 0.000000 0.000000 0.083352 0.000000 0.000000
# 5 0.000000 0.000000 0.000000 0.000000 0.039749 0.000000
# 6 0.000000 0.000000 0.000000 0.000000 0.000000 0.057604
#
#
# Mechanical properties :
#
#
# Convention : Reuss Voigt Hill
#
# Bulk Modulus (GPa) = 27.99006 31.64100 29.81553
# Shear Modulus (GPa) = 21.59829 27.98587 24.79208
#
# Velocity S-wave (km/s) = 3.03572 3.45559 3.25244
# Velocity P-wave (km/s) = 4.92243 5.42421 5.17940
#
# Compressibility (1/GPa) = 0.03572697
#
# Stress axis : x y z
#
# Youngs Moduli (GPa) = 76.08009 108.33611 66.97089
#
# Poissons Ratio (x) = 0.10857 -0.18310
# Poissons Ratio (y) = 0.07624 0.16888
# Poissons Ratio (z) = -0.20801 0.27319
#
# Static dielectric constant tensor:
#      x y z
#    x 1.773930 0.000000 0.000000 
#    y 0.000000 1.919140 0.000000 
#    z 0.000000 0.000000 1.979050 
# 
# From -- ./inp_files/1277.got.cif
#   From: 2010.05.17/outbox.cif.g08.bks.cpg/sg62_1_cif.got.tgz:1277.got - 2010.06.03 15:25:27.
