data_PCOD9466108
_publ_section_title
;
Structure prediction by ZEFSAII (Michael W. Deem and Ramdas Pophale) SiO2 
 PCOD9466108
Probable space group: P N M A
;
_chemical_formula_sum "Si O2"
_cell_formula_units_Z 56
_cell_length_a 13.302925
_cell_length_b 29.395343
_cell_length_c 6.504343
_cell_angle_alpha 90.000000
_cell_angle_beta 90.000000
_cell_angle_gamma 90.000000
_cell_volume 2543.484586
_symmetry_space_group_name_H-M "P N M A"
_symmetry_group_IT_number 62
_symmetry_cell_setting 'orthorhombic'
loop_
_space_group_symop_operation_xyz
x,y,z
1/2-x,-y,1/2+z
1/2+x,1/2-y,1/2-z
-x,1/2+y,-z
-x,-y,-z
1/2+x,y,1/2-z
1/2-x,1/2+y,1/2+z
x,1/2-y,z
loop_
_atom_site_type_symbol
_atom_site_label
_atom_site_fract_x
_atom_site_fract_y
_atom_site_fract_z
Si Si1 0.289167 0.642854 0.204689
Si Si2 0.428267 0.937387 0.677837
Si Si3 0.602812 0.802090 0.220704
Si Si4 0.593021 0.492044 0.702060
Si Si5 0.259446 0.551907 0.992362
Si Si6 0.905758 0.699182 0.994013
Si Si7 0.023970 0.152661 0.394551
O O1 0.199905 0.678389 0.165618
O O2 0.244630 0.593618 0.149610
O O3 0.331967 0.659354 0.425554
O O4 0.384853 0.645984 0.054475
O O5 0.491101 0.981636 0.751156
O O6 0.486283 0.892990 0.759021
O O7 0.423318 0.946397 0.433507
O O8 0.318669 0.934767 0.783301
O O9 0.617617 0.750000 0.157172
O O10 0.506589 0.803435 0.369910
O O11 0.572981 0.832759 0.024129
O O12 0.662313 0.480872 0.893145
O O13 0.657956 0.526097 0.559980
O O14 0.862631 0.750000 0.023179
O O15 0.939365 0.691128 0.762010
#
# Coordination Sequence:
#
# PCOD9466108 Si02
#       7
#     8   8   8   8   8   8   8
#     4  10  23  40  61  89 124 160 200 254 311 364
#     4  10  23  41  60  89 124 165 205 252 310 364
#     4  10  22  40  62  92 124 158 202 253 312 372
#     4  11  22  39  63  88 123 163 206 257 307 361
#     4  11  22  40  61  90 121 158 208 253 303 365
#     4  10  21  39  63  89 122 161 200 251 307 367
#     4  10  22  41  63  90 123 161 209 253 303 375
#
# _framework density 22.017040999999999
#
# number of rings (size 3 to 8) (size 9 to 14) (size 15 to 20)
#    0.000    1.714    1.429    2.143    2.000    4.000 
#    7.714    1.429    0.000    0.000    0.000    0.000 
#    0.000    0.000    0.000    0.000    0.000    0.000 
#
# Total GULP energy -312652.983200 kJ/mol
# GULP energy per Si atom -5583.088986 kJ/mol
# Density = 2.196693 g / cm^3
# Si number density = 22.017041 Si / 1000 Ang^3
#
#
#
# Elastic Constant Matrix: (Units=GPa)
#
#
# Indices 1 2 3 4 5 6 
#
# 1 37.1166 15.1231 -4.0042 0.0000 0.0000 0.0000
# 2 15.1231 85.7826 12.6958 0.0000 0.0000 0.0000
# 3 -4.0042 12.6958 40.9406 0.0000 0.0000 0.0000
# 4 0.0000 0.0000 0.0000 21.7639 0.0000 0.0000
# 5 0.0000 0.0000 0.0000 0.0000 17.2423 0.0000
# 6 0.0000 0.0000 0.0000 0.0000 0.0000 30.7586
#
#
#
# Elastic Compliance Matrix: (Units=1/GPa)
#
#
# Indices 1 2 3 4 5 6 
#
# 1 0.029893 -0.005977 0.004777 0.000000 0.000000 0.000000
# 2 -0.005977 0.013413 -0.004744 0.000000 0.000000 0.000000
# 3 0.004777 -0.004744 0.026364 0.000000 0.000000 0.000000
# 4 0.000000 0.000000 0.000000 0.045948 0.000000 0.000000
# 5 0.000000 0.000000 0.000000 0.000000 0.057997 0.000000
# 6 0.000000 0.000000 0.000000 0.000000 0.000000 0.032511
#
#
# Mechanical properties :
#
#
# Convention : Reuss Voigt Hill
#
# Bulk Modulus (GPa) = 17.30635 23.49658 20.40147
# Shear Modulus (GPa) = 21.07266 23.28797 22.18031
#
# Velocity S-wave (km/s) = 3.09707 3.25580 3.17742
# Velocity P-wave (km/s) = 4.54606 4.98285 4.76946
#
# Compressibility (1/GPa) = 0.05778225
#
# Stress axis : x y z
#
# Youngs Moduli (GPa) = 33.45284 74.55335 37.93048
#
# Poissons Ratio (x) = 0.44561 -0.18120
# Poissons Ratio (y) = 0.19995 0.17994
# Poissons Ratio (z) = -0.15981 0.35369
#
# Static dielectric constant tensor:
#      x y z
#    x 1.776770 0.000000 0.000000 
#    y 0.000000 1.843360 0.000000 
#    z 0.000000 0.000000 1.823530 
# 
# From -- ./inp_files/1280.got.cif
#   From: 2010.05.17/outbox.cif.g08.bks.cpg/sg62_1_cif.got.tgz:1280.got - 2010.06.03 15:25:27.
