data_PCOD9466073
_publ_section_title
;
Structure prediction by ZEFSAII (Michael W. Deem and Ramdas Pophale) SiO2 
 PCOD9466073
Probable space group: P N M A
;
_chemical_formula_sum "Si O2"
_cell_formula_units_Z 48
_cell_length_a 11.426038
_cell_length_b 21.602678
_cell_length_c 9.166458
_cell_angle_alpha 90.000000
_cell_angle_beta 90.000000
_cell_angle_gamma 90.000000
_cell_volume 2262.584508
_symmetry_space_group_name_H-M "P N M A"
_symmetry_group_IT_number 62
_symmetry_cell_setting 'orthorhombic'
loop_
_space_group_symop_operation_xyz
x,y,z
1/2-x,-y,1/2+z
1/2+x,1/2-y,1/2-z
-x,1/2+y,-z
-x,-y,-z
1/2+x,y,1/2-z
1/2-x,1/2+y,1/2+z
x,1/2-y,z
loop_
_atom_site_type_symbol
_atom_site_label
_atom_site_fract_x
_atom_site_fract_y
_atom_site_fract_z
Si Si1 0.735386 0.603475 0.196603
Si Si2 0.961504 0.071466 0.475199
Si Si3 0.594560 0.118917 0.434598
Si Si4 0.821816 0.377272 0.011987
Si Si5 0.264025 0.036962 0.245379
Si Si6 0.620025 0.182465 0.141890
O O1 0.716307 0.637710 0.347932
O O2 0.777671 0.535743 0.247628
O O3 0.612846 0.592193 0.115121
O O4 0.825607 0.628440 0.076859
O O5 0.871528 0.068155 0.339480
O O6 0.053262 0.125752 0.438312
O O7 0.000000 0.000000 0.500000
O O8 0.460170 0.113779 0.479263
O O9 0.649553 0.060068 0.344133
O O10 0.603218 0.172315 0.313864
O O11 0.768624 0.439166 0.088314
O O12 0.758139 0.325926 0.110286
O O13 0.578780 0.250000 0.095368
#
# Coordination Sequence:
#
# PCOD9466073 Si02
#       6
#     8   8   8   8   8   8
#     4  11  24  37  65 102 142 176 223 291 352 416
#     4  11  22  41  68 105 145 181 230 289 350 418
#     4  10  23  44  62  96 136 180 231 283 345 411
#     4  11  23  41  65  95 134 180 230 282 348 406
#     4  10  21  39  62 101 139 188 229 273 346 421
#     4  11  25  48  72  96 129 185 246 289 345 433
#
# _framework density 21.214679
#
# number of rings (size 3 to 8) (size 9 to 14) (size 15 to 20)
#    0.000    1.333    1.667    5.000    4.667    2.000 
#    0.000    1.667    0.000    0.000    0.000    0.000 
#    0.000    0.000    0.000    0.000    0.000    0.000 
#
# Total GULP energy -267903.639222 kJ/mol
# GULP energy per Si atom -5581.325817 kJ/mol
# Density = 2.116639 g / cm^3
# Si number density = 21.214679 Si / 1000 Ang^3
#
#
#
# Elastic Constant Matrix: (Units=GPa)
#
#
# Indices 1 2 3 4 5 6 
#
# 1 121.6215 34.3361 43.6617 0.0000 0.0000 0.0000
# 2 34.3361 86.2565 5.8431 0.0000 0.0000 0.0000
# 3 43.6617 5.8431 125.2227 0.0000 0.0000 0.0000
# 4 0.0000 0.0000 0.0000 7.2513 0.0000 0.0000
# 5 0.0000 0.0000 0.0000 0.0000 27.9215 0.0000
# 6 0.0000 0.0000 0.0000 0.0000 0.0000 7.6919
#
#
#
# Elastic Compliance Matrix: (Units=1/GPa)
#
#
# Indices 1 2 3 4 5 6 
#
# 1 0.010608 -0.003985 -0.003513 0.000000 0.000000 0.000000
# 2 -0.003985 0.013127 0.000777 0.000000 0.000000 0.000000
# 3 -0.003513 0.000777 0.009174 0.000000 0.000000 0.000000
# 4 0.000000 0.000000 0.000000 0.137907 0.000000 0.000000
# 5 0.000000 0.000000 0.000000 0.000000 0.035815 0.000000
# 6 0.000000 0.000000 0.000000 0.000000 0.000000 0.130007
#
#
# Mechanical properties :
#
#
# Convention : Reuss Voigt Hill
#
# Bulk Modulus (GPa) = 51.36659 55.64249 53.50454
# Shear Modulus (GPa) = 14.02253 25.19026 19.60639
#
# Velocity S-wave (km/s) = 2.57375 3.44960 3.04335
# Velocity P-wave (km/s) = 5.75305 6.49242 6.13389
#
# Compressibility (1/GPa) = 0.01946791
#
# Stress axis : x y z
#
# Youngs Moduli (GPa) = 94.26527 76.17906 108.99921
#
# Poissons Ratio (x) = 0.30357 0.38290
# Poissons Ratio (y) = 0.37564 -0.08468
# Poissons Ratio (z) = 0.33115 -0.05918
#
# Static dielectric constant tensor:
#      x y z
#    x 1.816780 0.000000 0.000000 
#    y 0.000000 1.855460 0.000000 
#    z 0.000000 0.000000 1.793940 
# 
# From -- ./inp_files/5285.got.cif
#   From: 2010.05.17/outbox.cif.g08.bks.cpg/sg62_3_cif.got.tgz:5285.got - 2010.06.03 15:25:27.
