data_PCOD9466611
_publ_section_title
;
Structure prediction by ZEFSAII (Michael W. Deem and Ramdas Pophale) SiO2 
 PCOD9466611
Probable space group: P N M A
;
_chemical_formula_sum "Si O2"
_cell_formula_units_Z 48
_cell_length_a 18.141615
_cell_length_b 8.889838
_cell_length_c 15.715762
_cell_angle_alpha 90.000000
_cell_angle_beta 90.000000
_cell_angle_gamma 90.000000
_cell_volume 2534.575522
_symmetry_space_group_name_H-M "P N M A"
_symmetry_group_IT_number 62
_symmetry_cell_setting 'orthorhombic'
loop_
_space_group_symop_operation_xyz
x,y,z
1/2-x,-y,1/2+z
1/2+x,1/2-y,1/2-z
-x,1/2+y,-z
-x,-y,-z
1/2+x,y,1/2-z
1/2-x,1/2+y,1/2+z
x,1/2-y,z
loop_
_atom_site_type_symbol
_atom_site_label
_atom_site_fract_x
_atom_site_fract_y
_atom_site_fract_z
Si Si1 0.038417 0.430179 0.082696
Si Si2 0.456625 0.429900 0.920754
Si Si3 0.711237 0.430528 0.432531
Si Si4 0.794697 0.570045 0.591298
Si Si5 0.041459 0.070317 0.754419
Si Si6 0.202919 0.930799 0.740268
O O1 0.030554 0.250000 0.081370
O O2 0.125359 0.466373 0.080967
O O3 0.000369 0.495044 0.166791
O O4 0.000000 0.500000 0.000000
O O5 0.453832 0.250000 0.930204
O O6 0.374475 0.494896 0.916100
O O7 0.499577 0.465772 0.833476
O O8 0.500000 0.500000 0.000000
O O9 0.717243 0.250000 0.445015
O O10 0.744225 0.513323 0.513999
O O11 0.757491 0.470273 0.348283
O O12 0.802653 0.750000 0.587560
O O13 0.755412 0.530625 0.680348
O O14 0.041603 0.250000 0.765461
O O15 0.124631 0.010487 0.749293
O O16 0.191944 0.750000 0.741489
#
# Coordination Sequence:
#
# PCOD9466611 Si02
#       6
#     8   8   8   8   8   8
#     4  11  23  40  63  90 121 158 199 244 296 353
#     4  11  24  41  62  89 121 158 200 247 298 352
#     4  10  22  40  61  86 117 155 198 243 293 350
#     4  11  23  39  61  89 119 154 197 243 295 354
#     4  11  24  40  60  89 121 155 198 246 297 353
#     4  10  22  40  61  85 116 156 198 241 294 354
#
# _framework density 18.938082999999999
#
# number of rings (size 3 to 8) (size 9 to 14) (size 15 to 20)
#    0.000    1.333    0.000    5.000    0.000   12.667 
#    0.000    0.000    0.000    0.000    0.000    0.000 
#    0.000    0.000    0.000    0.000    0.000    0.000 
#
# Total GULP energy -268562.922285 kJ/mol
# GULP energy per Si atom -5595.060881 kJ/mol
# Density = 1.889498 g / cm^3
# Si number density = 18.938083 Si / 1000 Ang^3
#
#
#
# Elastic Constant Matrix: (Units=GPa)
#
#
# Indices 1 2 3 4 5 6 
#
# 1 106.1028 44.3052 21.6466 0.0000 0.0000 0.0000
# 2 44.3052 45.0950 47.8431 0.0000 0.0000 0.0000
# 3 21.6466 47.8431 104.6600 0.0000 0.0000 0.0000
# 4 0.0000 0.0000 0.0000 36.6696 0.0000 0.0000
# 5 0.0000 0.0000 0.0000 0.0000 41.5250 0.0000
# 6 0.0000 0.0000 0.0000 0.0000 0.0000 32.1578
#
#
#
# Elastic Compliance Matrix: (Units=1/GPa)
#
#
# Indices 1 2 3 4 5 6 
#
# 1 0.019746 -0.029256 0.009290 0.000000 0.000000 0.000000
# 2 -0.029256 0.086404 -0.033447 0.000000 0.000000 0.000000
# 3 0.009290 -0.033447 0.022923 0.000000 0.000000 0.000000
# 4 0.000000 0.000000 0.000000 0.027271 0.000000 0.000000
# 5 0.000000 0.000000 0.000000 0.000000 0.024082 0.000000
# 6 0.000000 0.000000 0.000000 0.000000 0.000000 0.031097
#
#
# Mechanical properties :
#
#
# Convention : Reuss Voigt Hill
#
# Bulk Modulus (GPa) = 44.95037 53.71639 49.33338
# Shear Modulus (GPa) = 15.34855 31.54135 23.44495
#
# Velocity S-wave (km/s) = 2.84995 4.08548 3.52231
# Velocity P-wave (km/s) = 5.88358 7.11903 6.53059
#
# Compressibility (1/GPa) = 0.02224676
#
# Stress axis : x y z
#
# Youngs Moduli (GPa) = 50.64333 11.57353 43.62451
#
# Poissons Ratio (x) = 0.33859 -0.40526
# Poissons Ratio (y) = 1.48162 1.45910
# Poissons Ratio (z) = -0.47046 0.38710
#
# Static dielectric constant tensor:
#      x y z
#    x 1.607120 0.000000 0.000000 
#    y 0.000000 1.638070 0.000000 
#    z 0.000000 0.000000 1.622900 
# 
# From -- ./inp_files/19591.got.cif
#   From: 2010.05.17/outbox.cif.g08.bks.cpg/sg62_10_cif.got.tgz:19591.got - 2010.06.03 15:25:27.
