data_PCOD9466227
_publ_section_title
;
Structure prediction by ZEFSAII (Michael W. Deem and Ramdas Pophale) SiO2 
 PCOD9466227
Probable space group: P N M A
;
_chemical_formula_sum "Si O2"
_cell_formula_units_Z 64
_cell_length_a 31.794914
_cell_length_b 8.120580
_cell_length_c 12.266657
_cell_angle_alpha 90.000000
_cell_angle_beta 90.000000
_cell_angle_gamma 90.000000
_cell_volume 3167.166722
_symmetry_space_group_name_H-M "P N M A"
_symmetry_group_IT_number 62
_symmetry_cell_setting 'orthorhombic'
loop_
_space_group_symop_operation_xyz
x,y,z
1/2-x,-y,1/2+z
1/2+x,1/2-y,1/2-z
-x,1/2+y,-z
-x,-y,-z
1/2+x,y,1/2-z
1/2-x,1/2+y,1/2+z
x,1/2-y,z
loop_
_atom_site_type_symbol
_atom_site_label
_atom_site_fract_x
_atom_site_fract_y
_atom_site_fract_z
Si Si1 0.697466 0.054848 0.753557
Si Si2 0.830737 0.056131 0.018749
Si Si3 0.074633 0.053326 0.983805
Si Si4 0.879007 0.547794 0.404333
Si Si5 0.870620 0.553457 0.653340
Si Si6 0.791368 0.050837 0.793571
Si Si7 0.047353 0.552968 0.213363
Si Si8 0.543549 0.049402 0.756014
O O1 0.699880 0.250000 0.774450
O O2 0.661666 0.990771 0.835625
O O3 0.744581 0.988062 0.768169
O O4 0.682312 0.028566 0.630623
O O5 0.822425 0.250000 0.030466
O O6 0.879985 0.027915 0.999362
O O7 0.806039 0.993269 0.912991
O O8 0.080172 0.250000 0.980153
O O9 0.056857 0.000473 0.866621
O O10 0.047212 0.008977 0.088854
O O11 0.879086 0.750000 0.403143
O O12 0.876299 0.493143 0.529348
O O13 0.921425 0.493750 0.342158
O O14 0.869914 0.750000 0.650424
O O15 0.826998 0.496981 0.707061
O O16 0.910259 0.501609 0.726744
O O17 0.790588 0.250000 0.795799
O O18 0.047139 0.750000 0.209931
O O19 0.004586 0.495993 0.272851
O O20 0.544054 0.250000 0.758540
#
# Coordination Sequence:
#
# PCOD9466227 Si02
#       8
#     8   8   8   8   8   8   8   8
#     4  10  21  40  64  86 115 156 196 239 290 346
#     4  11  22  37  60  90 123 154 189 240 295 343
#     4  11  20  36  62  88 116 152 197 238 283 351
#     4   9  19  38  61  84 111 149 197 241 285 342
#     4  11  23  38  61  85 113 155 201 244 285 346
#     4  10  23  40  60  86 120 156 191 238 296 344
#     4  11  22  37  58  85 120 154 187 240 301 350
#     4   9  19  36  60  86 114 151 191 239 297 348
#
# _framework density 20.207336000000002
#
# number of rings (size 3 to 8) (size 9 to 14) (size 15 to 20)
#    0.000    1.750    2.500    1.875    1.750    1.500 
#    0.000    3.125    0.000    0.000    0.000    0.000 
#    0.000    0.000    0.000    0.000    0.000    0.000 
#
# Total GULP energy -357511.029566 kJ/mol
# GULP energy per Si atom -5586.109837 kJ/mol
# Density = 2.016134 g / cm^3
# Si number density = 20.207336 Si / 1000 Ang^3
#
#
#
# Elastic Constant Matrix: (Units=GPa)
#
#
# Indices 1 2 3 4 5 6 
#
# 1 99.4531 4.6198 17.9649 0.0000 0.0000 0.0000
# 2 4.6198 19.2682 -0.8863 0.0000 0.0000 0.0000
# 3 17.9649 -0.8863 101.1276 0.0000 0.0000 0.0000
# 4 0.0000 0.0000 0.0000 13.5926 0.0000 0.0000
# 5 0.0000 0.0000 0.0000 0.0000 -1.3876 0.0000
# 6 0.0000 0.0000 0.0000 0.0000 0.0000 -0.4415
#
#
#
# Elastic Compliance Matrix: (Units=1/GPa)
#
#
# Indices 1 2 3 4 5 6 
#
# 1 0.010518 -0.002609 -0.001891 0.000000 0.000000 0.000000
# 2 -0.002609 0.052567 0.000924 0.000000 0.000000 0.000000
# 3 -0.001891 0.000924 0.010233 0.000000 0.000000 0.000000
# 4 0.000000 0.000000 0.000000 0.073570 0.000000 0.000000
# 5 0.000000 0.000000 0.000000 0.000000 -0.720660 0.000000
# 6 0.000000 0.000000 0.000000 0.000000 0.000000 -2.264917
#
#
# Mechanical properties :
#
#
# Convention : Reuss Voigt Hill
#
# Bulk Modulus (GPa) = 15.11365 29.24954 22.18159
# Shear Modulus (GPa) = -1.77969 15.56273 6.89152
#
# Velocity S-wave (km/s) = -0.93948 2.77817 1.84873
# Velocity P-wave (km/s) = 2.51370 4.97967 3.94435
#
# Compressibility (1/GPa) = 0.06616535
#
# Stress axis : x y z
#
# Youngs Moduli (GPa) = 95.07682 19.02339 97.72712
#
# Poissons Ratio (x) = 0.04963 0.18483
# Poissons Ratio (y) = 0.24803 -0.09031
# Poissons Ratio (z) = 0.17982 -0.01758
#
# Static dielectric constant tensor:
#      x y z
#    x 1.691480 0.000000 0.000000 
#    y 0.000000 1.717810 0.000000 
#    z 0.000000 0.000000 1.678460 
# 
# From -- ./inp_files/15824.got.cif
#   From: 2010.05.17/outbox.cif.g08.bks.cpg/sg62_8_cif.got.tgz:15824.got - 2010.06.03 15:25:27.
