data_PCOD9466270
_publ_section_title
;
Structure prediction by ZEFSAII (Michael W. Deem and Ramdas Pophale) SiO2 
 PCOD9466270
Probable space group: P N M A
;
_chemical_formula_sum "Si O2"
_cell_formula_units_Z 60
_cell_length_a 11.724761
_cell_length_b 9.626933
_cell_length_c 25.924110
_cell_angle_alpha 90.000000
_cell_angle_beta 90.000000
_cell_angle_gamma 90.000000
_cell_volume 2926.144734
_symmetry_space_group_name_H-M "P N M A"
_symmetry_group_IT_number 62
_symmetry_cell_setting 'orthorhombic'
loop_
_space_group_symop_operation_xyz
x,y,z
1/2-x,-y,1/2+z
1/2+x,1/2-y,1/2-z
-x,1/2+y,-z
-x,-y,-z
1/2+x,y,1/2-z
1/2-x,1/2+y,1/2+z
x,1/2-y,z
loop_
_atom_site_type_symbol
_atom_site_label
_atom_site_fract_x
_atom_site_fract_y
_atom_site_fract_z
Si Si1 0.627718 0.088520 0.552421
Si Si2 0.212973 0.091126 0.614089
Si Si3 0.239811 0.591427 0.338755
Si Si4 0.009486 0.250000 0.479241
Si Si5 0.012082 0.086211 0.692716
Si Si6 0.937481 0.589235 0.896564
Si Si7 0.656718 0.488884 0.997592
Si Si8 0.924633 0.090206 0.211112
O O1 0.598895 0.250000 0.542685
O O2 0.704155 0.084118 0.604858
O O3 0.712950 0.026256 0.510211
O O4 0.517124 0.995869 0.563938
O O5 0.251695 0.250000 0.622805
O O6 0.120890 0.053188 0.657341
O O7 0.317804 0.986601 0.611774
O O8 0.151729 0.083268 0.558618
O O9 0.257672 0.750000 0.319891
O O10 0.306184 0.485807 0.302060
O O11 0.105268 0.564781 0.338199
O O12 0.102560 0.373922 0.465324
O O13 0.916678 0.371706 0.495664
O O14 0.018207 0.250000 0.705866
O O15 0.014553 0.994229 0.743671
O O16 0.923791 0.750000 0.911875
O O17 0.002358 0.585662 0.841478
O O18 0.907606 0.250000 0.225810
#
# Coordination Sequence:
#
# PCOD9466270 Si02
#       8
#     8   8   8   4   8   8   8   8
#     4  10  21  40  66  92 122 167 212 259 305 370
#     4  11  25  43  62  92 128 166 211 261 313 373
#     4   9  20  38  63  90 117 153 206 252 297 369
#     4  10  24  38  64  90 132 168 202 254 308 382
#     4  10  23  39  63  90 119 159 208 253 305 375
#     4  10  24  43  65  89 126 164 211 261 317 378
#     4  11  23  41  63  96 129 173 209 257 320 365
#     4  10  22  42  60  89 123 158 197 255 319 372
#
# _framework density 20.504797
#
# number of rings (size 3 to 8) (size 9 to 14) (size 15 to 20)
#    0.000    1.867    1.333    0.800    7.467    3.200 
#    0.000    0.000    0.000    0.000    0.000    0.000 
#    0.000    0.000    0.000    0.000    0.000    0.000 
#
# Total GULP energy -334294.510774 kJ/mol
# GULP energy per Si atom -5571.575180 kJ/mol
# Density = 2.045813 g / cm^3
# Si number density = 20.504797 Si / 1000 Ang^3
#
#
#
# Elastic Constant Matrix: (Units=GPa)
#
#
# Indices 1 2 3 4 5 6 
#
# 1 114.0853 70.4390 4.9007 0.0000 0.0000 0.0000
# 2 70.4390 130.4599 19.0340 0.0000 0.0000 0.0000
# 3 4.9007 19.0340 41.6381 0.0000 0.0000 0.0000
# 4 0.0000 0.0000 0.0000 4.6949 0.0000 0.0000
# 5 0.0000 0.0000 0.0000 0.0000 17.7056 0.0000
# 6 0.0000 0.0000 0.0000 0.0000 0.0000 38.2119
#
#
#
# Elastic Compliance Matrix: (Units=1/GPa)
#
#
# Indices 1 2 3 4 5 6 
#
# 1 0.013279 -0.007437 0.001837 0.000000 0.000000 0.000000
# 2 -0.007437 0.012379 -0.004783 0.000000 0.000000 0.000000
# 3 0.001837 -0.004783 0.025987 0.000000 0.000000 0.000000
# 4 0.000000 0.000000 0.000000 0.212996 0.000000 0.000000
# 5 0.000000 0.000000 0.000000 0.000000 0.056479 0.000000
# 6 0.000000 0.000000 0.000000 0.000000 0.000000 0.026170
#
#
# Mechanical properties :
#
#
# Convention : Reuss Voigt Hill
#
# Bulk Modulus (GPa) = 32.38696 52.77011 42.57853
# Shear Modulus (GPa) = 13.21529 24.90979 19.06254
#
# Velocity S-wave (km/s) = 2.54145 3.48922 3.05234
# Velocity P-wave (km/s) = 4.94379 6.48261 5.76478
#
# Compressibility (1/GPa) = 0.03087662
#
# Stress axis : x y z
#
# Youngs Moduli (GPa) = 75.30950 80.78336 38.48096
#
# Poissons Ratio (x) = 0.60082 -0.07069
# Poissons Ratio (y) = 0.56011 0.18407
# Poissons Ratio (z) = -0.13835 0.38641
#
# Static dielectric constant tensor:
#      x y z
#    x 1.728780 0.000000 0.000000 
#    y 0.000000 1.698160 0.000000 
#    z 0.000000 0.000000 1.767060 
# 
# From -- ./inp_files/31148.got.cif
#   From: 2010.05.17/outbox.cif.g08.bks.cpg/sg62_16_cif.got.tgz:31148.got - 2010.06.03 15:25:27.
