data_PCOD9466078
_publ_section_title
;
Structure prediction by ZEFSAII (Michael W. Deem and Ramdas Pophale) SiO2 
 PCOD9466078
Probable space group: P N M A
;
_chemical_formula_sum "Si O2"
_cell_formula_units_Z 56
_cell_length_a 20.574324
_cell_length_b 8.579791
_cell_length_c 16.319375
_cell_angle_alpha 90.000000
_cell_angle_beta 90.000000
_cell_angle_gamma 90.000000
_cell_volume 2880.751559
_symmetry_space_group_name_H-M "P N M A"
_symmetry_group_IT_number 62
_symmetry_cell_setting 'orthorhombic'
loop_
_space_group_symop_operation_xyz
x,y,z
1/2-x,-y,1/2+z
1/2+x,1/2-y,1/2-z
-x,1/2+y,-z
-x,-y,-z
1/2+x,y,1/2-z
1/2-x,1/2+y,1/2+z
x,1/2-y,z
loop_
_atom_site_type_symbol
_atom_site_label
_atom_site_fract_x
_atom_site_fract_y
_atom_site_fract_z
Si Si1 0.694563 0.561732 0.814864
Si Si2 0.535278 0.063260 0.251576
Si Si3 0.098104 0.561653 0.830454
Si Si4 0.179846 0.560977 0.497714
Si Si5 0.835855 0.064617 0.833186
Si Si6 0.043890 0.562218 0.426320
Si Si7 0.826004 0.562959 0.015499
O O1 0.696453 0.750000 0.815312
O O2 0.644536 0.511779 0.744936
O O3 0.674138 0.511811 0.906906
O O4 0.767200 0.500297 0.800541
O O5 0.538967 0.250000 0.252651
O O6 0.475472 0.014554 0.309691
O O7 0.603136 0.993544 0.281362
O O8 0.521371 0.006576 0.159776
O O9 0.100031 0.750000 0.834154
O O10 0.126403 0.495052 0.914184
O O11 0.179133 0.750000 0.497432
O O12 0.118173 0.510714 0.445151
O O13 0.251165 0.512692 0.466916
O O14 0.833550 0.250000 0.832787
O O15 0.842832 0.003176 0.926175
O O16 0.041701 0.750000 0.423957
O O17 0.000000 0.500000 0.500000
O O18 0.827279 0.750000 0.011047
#
# Coordination Sequence:
#
# PCOD9466078 Si02
#       7
#     8   8   8   8   8   8   8
#     4   9  18  37  62  87 117 155 195 244 302 355
#     4  11  24  42  61  86 121 162 202 247 304 361
#     4  10  22  39  61  88 119 155 199 249 301 357
#     4   8  17  35  58  83 115 153 192 240 294 349
#     4  11  23  40  61  88 120 156 201 250 300 358
#     4  11  22  38  60  89 125 161 201 246 298 359
#     4  10  21  39  62  87 116 154 199 248 304 357
#
# _framework density 19.439371999999999
#
# number of rings (size 3 to 8) (size 9 to 14) (size 15 to 20)
#    0.000    2.000    0.000    4.286    2.000    4.571 
#    0.000    9.286    0.000    0.000    0.000    0.000 
#    0.000    0.000    0.000    0.000    0.000    0.000 
#
# Total GULP energy -312887.303660 kJ/mol
# GULP energy per Si atom -5587.273280 kJ/mol
# Density = 1.939513 g / cm^3
# Si number density = 19.439372 Si / 1000 Ang^3
#
#
#
# Elastic Constant Matrix: (Units=GPa)
#
#
# Indices 1 2 3 4 5 6 
#
# 1 43.9631 1.2070 -0.4035 0.0000 0.0000 0.0000
# 2 1.2070 27.4631 -3.3155 0.0000 0.0000 0.0000
# 3 -0.4035 -3.3155 18.4997 0.0000 0.0000 0.0000
# 4 0.0000 0.0000 0.0000 28.6556 0.0000 0.0000
# 5 0.0000 0.0000 0.0000 0.0000 36.6307 0.0000
# 6 0.0000 0.0000 0.0000 0.0000 0.0000 19.0505
#
#
#
# Elastic Compliance Matrix: (Units=1/GPa)
#
#
# Indices 1 2 3 4 5 6 
#
# 1 0.022776 -0.000962 0.000324 0.000000 0.000000 0.000000
# 2 -0.000962 0.037258 0.006656 0.000000 0.000000 0.000000
# 3 0.000324 0.006656 0.055255 0.000000 0.000000 0.000000
# 4 0.000000 0.000000 0.000000 0.034897 0.000000 0.000000
# 5 0.000000 0.000000 0.000000 0.000000 0.027300 0.000000
# 6 0.000000 0.000000 0.000000 0.000000 0.000000 0.052492
#
#
# Mechanical properties :
#
#
# Convention : Reuss Voigt Hill
#
# Bulk Modulus (GPa) = 7.85379 9.43354 8.64366
# Shear Modulus (GPa) = 19.20252 23.02986 21.11619
#
# Velocity S-wave (km/s) = 3.14636 3.44568 3.29942
# Velocity P-wave (km/s) = 4.15312 4.54903 4.35557
#
# Compressibility (1/GPa) = 0.12732709
#
# Stress axis : x y z
#
# Youngs Moduli (GPa) = 43.90636 26.83963 18.09790
#
# Poissons Ratio (x) = 0.02581 -0.00587
# Poissons Ratio (y) = 0.04223 -0.12047
# Poissons Ratio (z) = -0.01424 -0.17866
#
# Static dielectric constant tensor:
#      x y z
#    x 1.675850 0.000000 0.000000 
#    y 0.000000 1.654570 0.000000 
#    z 0.000000 0.000000 1.670640 
# 
# From -- ./inp_files/20265.got.cif
#   From: 2010.05.17/outbox.cif.g08.bks.cpg/sg62_11_cif.got.tgz:20265.got - 2010.06.03 15:25:27.
