data_PCOD9466460
_publ_section_title
;
Structure prediction by ZEFSAII (Michael W. Deem and Ramdas Pophale) SiO2 
 PCOD9466460
Probable space group: P N M A
;
_chemical_formula_sum "Si O2"
_cell_formula_units_Z 64
_cell_length_a 20.621403
_cell_length_b 26.797386
_cell_length_c 5.320646
_cell_angle_alpha 90.000000
_cell_angle_beta 90.000000
_cell_angle_gamma 90.000000
_cell_volume 2940.187362
_symmetry_space_group_name_H-M "P N M A"
_symmetry_group_IT_number 62
_symmetry_cell_setting 'orthorhombic'
loop_
_space_group_symop_operation_xyz
x,y,z
1/2-x,-y,1/2+z
1/2+x,1/2-y,1/2-z
-x,1/2+y,-z
-x,-y,-z
1/2+x,y,1/2-z
1/2-x,1/2+y,1/2+z
x,1/2-y,z
loop_
_atom_site_type_symbol
_atom_site_label
_atom_site_fract_x
_atom_site_fract_y
_atom_site_fract_z
Si Si1 0.882450 0.102758 0.889612
Si Si2 0.020415 0.544862 0.323578
Si Si3 0.010438 0.863990 0.707447
Si Si4 0.223905 0.627380 0.748672
Si Si5 0.283135 0.479307 0.107096
Si Si6 0.880127 0.306700 0.503652
Si Si7 0.385420 0.549016 0.324315
Si Si8 0.133114 0.388679 0.310648
O O1 0.906385 0.050593 0.770520
O O2 0.880777 0.152073 0.720283
O O3 0.813087 0.102302 0.017532
O O4 0.942069 0.113112 0.081857
O O5 0.000000 0.500000 0.500000
O O6 0.013471 0.595729 0.482992
O O7 0.961952 0.543542 0.126204
O O8 0.933702 0.859458 0.756429
O O9 0.050033 0.814691 0.629260
O O10 0.218013 0.580207 0.559454
O O11 0.179083 0.673622 0.669307
O O12 0.298322 0.639843 0.800424
O O13 0.237423 0.494095 0.347105
O O14 0.351415 0.499630 0.217173
O O15 0.871113 0.250000 0.582268
O O16 0.360095 0.570883 0.585633
O O17 0.374228 0.587037 0.088261
#
# Coordination Sequence:
#
# PCOD9466460 Si02
#       8
#     8   8   8   8   8   8   8   8
#     4  10  22  40  63  92 129 176 228 281 346 407
#     4  10  22  36  58  93 136 178 228 280 331 397
#     4   9  21  42  63  92 121 171 219 275 337 416
#     4  11  25  39  67  97 137 179 232 282 345 419
#     4  12  24  39  59  95 140 189 231 267 327 409
#     4  10  24  46  70  97 130 169 228 299 361 411
#     4  11  22  38  60  90 138 188 222 269 326 390
#     4  11  22  42  65  95 136 176 223 272 332 408
#
# _framework density 21.767320000000002
#
# number of rings (size 3 to 8) (size 9 to 14) (size 15 to 20)
#    0.000    1.500    3.750    0.000    8.750    4.500 
#    0.000    0.625    0.000    1.500    0.000    0.000 
#    0.000    0.000    0.000    0.000    0.000    0.000 
#
# Total GULP energy -357046.681943 kJ/mol
# GULP energy per Si atom -5578.854405 kJ/mol
# Density = 2.171778 g / cm^3
# Si number density = 21.767320 Si / 1000 Ang^3
#
#
#
# Elastic Constant Matrix: (Units=GPa)
#
#
# Indices 1 2 3 4 5 6 
#
# 1 160.0886 28.4626 25.1472 0.0000 0.0000 0.0000
# 2 28.4626 80.8828 7.3913 0.0000 0.0000 0.0000
# 3 25.1472 7.3913 77.2645 0.0000 0.0000 0.0000
# 4 0.0000 0.0000 0.0000 14.0414 0.0000 0.0000
# 5 0.0000 0.0000 0.0000 0.0000 33.2953 0.0000
# 6 0.0000 0.0000 0.0000 0.0000 0.0000 20.9470
#
#
#
# Elastic Compliance Matrix: (Units=1/GPa)
#
#
# Indices 1 2 3 4 5 6 
#
# 1 0.006972 -0.002266 -0.002052 0.000000 0.000000 0.000000
# 2 -0.002266 0.013209 -0.000526 0.000000 0.000000 0.000000
# 3 -0.002052 -0.000526 0.013661 0.000000 0.000000 0.000000
# 4 0.000000 0.000000 0.000000 0.071218 0.000000 0.000000
# 5 0.000000 0.000000 0.000000 0.000000 0.030034 0.000000
# 6 0.000000 0.000000 0.000000 0.000000 0.000000 0.047739
#
#
# Mechanical properties :
#
#
# Convention : Reuss Voigt Hill
#
# Bulk Modulus (GPa) = 41.40270 48.91533 45.15902
# Shear Modulus (GPa) = 24.92860 30.80574 27.86717
#
# Velocity S-wave (km/s) = 3.38780 3.76603 3.58191
# Velocity P-wave (km/s) = 5.86215 6.43672 6.15614
#
# Compressibility (1/GPa) = 0.02415301
#
# Stress axis : x y z
#
# Youngs Moduli (GPa) = 143.43549 75.70600 73.20183
#
# Poissons Ratio (x) = 0.17154 0.15024
# Poissons Ratio (y) = 0.32500 0.03852
# Poissons Ratio (z) = 0.29438 0.03983
#
# Static dielectric constant tensor:
#      x y z
#    x 1.940110 0.000000 0.000000 
#    y 0.000000 1.765820 0.000000 
#    z 0.000000 0.000000 1.951660 
# 
# From -- ./inp_files/2405.got.cif
#   From: 2010.05.17/outbox.cif.g08.bks.cpg/sg62_2_cif.got.tgz:2405.got - 2010.06.03 15:25:27.
