data_PCOD9466362
_publ_section_title
;
Structure prediction by ZEFSAII (Michael W. Deem and Ramdas Pophale) SiO2 
 PCOD9466362
Probable space group: P N M A
;
_chemical_formula_sum "Si O2"
_cell_formula_units_Z 48
_cell_length_a 8.162694
_cell_length_b 16.165416
_cell_length_c 14.468004
_cell_angle_alpha 90.000000
_cell_angle_beta 90.000000
_cell_angle_gamma 90.000000
_cell_volume 1909.101512
_symmetry_space_group_name_H-M "P N M A"
_symmetry_group_IT_number 62
_symmetry_cell_setting 'orthorhombic'
loop_
_space_group_symop_operation_xyz
x,y,z
1/2-x,-y,1/2+z
1/2+x,1/2-y,1/2-z
-x,1/2+y,-z
-x,-y,-z
1/2+x,y,1/2-z
1/2-x,1/2+y,1/2+z
x,1/2-y,z
loop_
_atom_site_type_symbol
_atom_site_label
_atom_site_fract_x
_atom_site_fract_y
_atom_site_fract_z
Si Si1 0.267693 0.906028 0.627776
Si Si2 0.449783 0.092243 0.964929
Si Si3 0.582518 0.912939 0.373901
Si Si4 0.558260 0.345045 0.210340
Si Si5 0.239868 0.848112 0.300749
Si Si6 0.224496 0.843900 0.952337
O O1 0.210547 0.884640 0.524916
O O2 0.390013 0.847863 0.683657
O O3 0.093114 0.901084 0.681077
O O4 0.351396 0.994607 0.635177
O O5 0.402519 0.106138 0.859472
O O6 0.602354 0.148322 0.993302
O O7 0.500000 0.000000 0.000000
O O8 0.404586 0.892857 0.334361
O O9 0.700918 0.859215 0.307306
O O10 0.600536 0.892603 0.482669
O O11 0.518581 0.250000 0.184914
O O12 0.716299 0.371846 0.149028
O O13 0.245527 0.750000 0.322153
O O14 0.170512 0.750000 0.946345
#
# Coordination Sequence:
#
# PCOD9466362 Si02
#       6
#     8   8   8   8   8   8
#     4  11  24  42  68 100 137 180 228 290 344 412
#     4  11  24  45  67  99 135 180 227 283 346 410
#     4  12  25  43  71 103 140 181 231 287 345 414
#     4  10  23  41  66  96 135 183 233 287 350 414
#     4  12  27  44  69 102 141 183 231 283 345 414
#     4  10  21  41  67  94 133 182 231 283 347 415
#
# _framework density 25.142717000000001
#
# number of rings (size 3 to 8) (size 9 to 14) (size 15 to 20)
#    0.000    1.000    1.667    4.500    4.667    4.000 
#    0.000    0.000    0.000    0.000    0.000    0.000 
#    0.000    0.000    0.000    0.000    0.000    0.000 
#
# Total GULP energy -268717.409860 kJ/mol
# GULP energy per Si atom -5598.279372 kJ/mol
# Density = 2.508549 g / cm^3
# Si number density = 25.142717 Si / 1000 Ang^3
#
#
#
# Elastic Constant Matrix: (Units=GPa)
#
#
# Indices 1 2 3 4 5 6 
#
# 1 81.7762 -1.1903 21.6903 0.0000 0.0000 0.0000
# 2 -1.1903 46.1011 37.6536 0.0000 0.0000 0.0000
# 3 21.6903 37.6536 101.4017 0.0000 0.0000 0.0000
# 4 0.0000 0.0000 0.0000 13.9845 0.0000 0.0000
# 5 0.0000 0.0000 0.0000 0.0000 53.1203 0.0000
# 6 0.0000 0.0000 0.0000 0.0000 0.0000 22.1215
#
#
#
# Elastic Compliance Matrix: (Units=1/GPa)
#
#
# Indices 1 2 3 4 5 6 
#
# 1 0.013427 0.003865 -0.004307 0.000000 0.000000 0.000000
# 2 0.003865 0.032246 -0.012801 0.000000 0.000000 0.000000
# 3 -0.004307 -0.012801 0.015536 0.000000 0.000000 0.000000
# 4 0.000000 0.000000 0.000000 0.071508 0.000000 0.000000
# 5 0.000000 0.000000 0.000000 0.000000 0.018825 0.000000
# 6 0.000000 0.000000 0.000000 0.000000 0.000000 0.045205
#
#
# Mechanical properties :
#
#
# Convention : Reuss Voigt Hill
#
# Bulk Modulus (GPa) = 28.79903 38.39846 33.59874
# Shear Modulus (GPa) = 21.29390 29.25361 25.27375
#
# Velocity S-wave (km/s) = 2.91335 3.41472 3.17395
# Velocity P-wave (km/s) = 4.77450 5.55449 5.17920
#
# Compressibility (1/GPa) = 0.03472339
#
# Stress axis : x y z
#
# Youngs Moduli (GPa) = 74.47570 31.01118 64.36484
#
# Poissons Ratio (x) = -0.11985 0.27723
# Poissons Ratio (y) = -0.28782 0.82392
# Poissons Ratio (z) = 0.32078 0.39697
#
# Static dielectric constant tensor:
#      x y z
#    x 2.006460 0.000000 0.000000 
#    y 0.000000 1.942050 0.000000 
#    z 0.000000 0.000000 1.987430 
# 
# From -- ./inp_files/16968.got.cif
#   From: 2010.05.17/outbox.cif.g08.bks.cpg/sg62_9_cif.got.tgz:16968.got - 2010.06.03 15:25:27.
