data_PCOD9466112
_publ_section_title
;
Structure prediction by ZEFSAII (Michael W. Deem and Ramdas Pophale) SiO2 
 PCOD9466112
Probable space group: P N M A
;
_chemical_formula_sum "Si O2"
_cell_formula_units_Z 64
_cell_length_a 9.374958
_cell_length_b 15.087951
_cell_length_c 21.298910
_cell_angle_alpha 90.000000
_cell_angle_beta 90.000000
_cell_angle_gamma 90.000000
_cell_volume 3012.707538
_symmetry_space_group_name_H-M "P N M A"
_symmetry_group_IT_number 62
_symmetry_cell_setting 'orthorhombic'
loop_
_space_group_symop_operation_xyz
x,y,z
1/2-x,-y,1/2+z
1/2+x,1/2-y,1/2-z
-x,1/2+y,-z
-x,-y,-z
1/2+x,y,1/2-z
1/2-x,1/2+y,1/2+z
x,1/2-y,z
loop_
_atom_site_type_symbol
_atom_site_label
_atom_site_fract_x
_atom_site_fract_y
_atom_site_fract_z
Si Si1 0.036255 0.397020 0.490736
Si Si2 0.877560 0.528405 0.311534
Si Si3 0.455928 0.652270 0.620326
Si Si4 0.905958 0.347626 0.620799
Si Si5 0.382730 0.347379 0.138105
Si Si6 0.583101 0.955927 0.371960
Si Si7 0.634161 0.351217 0.696159
Si Si8 0.629921 0.851250 0.490969
O O1 0.204778 0.376276 0.495516
O O2 0.000000 0.500000 0.500000
O O3 0.951656 0.352729 0.548621
O O4 0.976773 0.367394 0.423349
O O5 0.904475 0.423764 0.310339
O O6 0.751534 0.539094 0.361759
O O7 0.827226 0.578026 0.249335
O O8 0.012220 0.578975 0.339479
O O9 0.494108 0.750000 0.649178
O O10 0.283401 0.652902 0.616759
O O11 0.483089 0.552045 0.645855
O O12 0.536350 0.650185 0.553851
O O13 0.947836 0.250000 0.644612
O O14 0.739976 0.358573 0.636695
O O15 0.417590 0.250000 0.162500
O O16 0.519877 0.880990 0.327123
O O17 0.564082 0.921719 0.442537
O O18 0.639397 0.250000 0.718560
O O19 0.628522 0.750000 0.464879
#
# Coordination Sequence:
#
# PCOD9466112 Si02
#       8
#     8   8   8   8   8   8   8   8
#     4  12  22  37  59  93 129 165 198 247 305 371
#     4  11  22  42  61  86 116 161 204 252 304 356
#     4   9  21  38  59  88 120 156 196 242 297 359
#     4  11  23  39  60  89 125 162 201 250 306 365
#     4  10  21  39  63  90 123 161 202 250 304 365
#     4  11  22  39  62  85 118 159 201 249 300 364
#     4  11  26  41  62  89 119 158 205 257 305 360
#     4  11  22  36  58  89 125 162 199 242 300 366
#
# _framework density 21.24335
#
# number of rings (size 3 to 8) (size 9 to 14) (size 15 to 20)
#    0.000    1.250    2.500    3.750    3.500    2.500 
#    0.000    0.625    0.000    2.250    0.000    0.000 
#    0.000    0.000    0.000    0.000    0.000    0.000 
#
# Total GULP energy -357069.870095 kJ/mol
# GULP energy per Si atom -5579.216720 kJ/mol
# Density = 2.119500 g / cm^3
# Si number density = 21.243350 Si / 1000 Ang^3
#
#
#
# Elastic Constant Matrix: (Units=GPa)
#
#
# Indices 1 2 3 4 5 6 
#
# 1 24.4349 40.5160 2.1631 0.0000 0.0000 0.0000
# 2 40.5160 176.3602 26.8420 0.0000 0.0000 0.0000
# 3 2.1631 26.8420 41.0405 0.0000 0.0000 0.0000
# 4 0.0000 0.0000 0.0000 14.7805 0.0000 0.0000
# 5 0.0000 0.0000 0.0000 0.0000 19.2275 0.0000
# 6 0.0000 0.0000 0.0000 0.0000 0.0000 20.5268
#
#
#
# Elastic Compliance Matrix: (Units=1/GPa)
#
#
# Indices 1 2 3 4 5 6 
#
# 1 0.068058 -0.016758 0.007373 0.000000 0.000000 0.000000
# 2 -0.016758 0.010423 -0.005934 0.000000 0.000000 0.000000
# 3 0.007373 -0.005934 0.027859 0.000000 0.000000 0.000000
# 4 0.000000 0.000000 0.000000 0.067657 0.000000 0.000000
# 5 0.000000 0.000000 0.000000 0.000000 0.052009 0.000000
# 6 0.000000 0.000000 0.000000 0.000000 0.000000 0.048717
#
#
# Mechanical properties :
#
#
# Convention : Reuss Voigt Hill
#
# Bulk Modulus (GPa) = 13.20948 42.31973 27.76461
# Shear Modulus (GPa) = 15.12431 22.39460 18.75946
#
# Velocity S-wave (km/s) = 2.67114 3.25036 2.97488
# Velocity P-wave (km/s) = 3.96800 5.83533 4.98979
#
# Compressibility (1/GPa) = 0.07570321
#
# Stress axis : x y z
#
# Youngs Moduli (GPa) = 14.69325 95.94049 35.89564
#
# Poissons Ratio (x) = 1.60773 -0.26466
# Poissons Ratio (y) = 0.24622 0.21300
# Poissons Ratio (z) = -0.10833 0.56930
#
# Static dielectric constant tensor:
#      x y z
#    x 1.720320 0.000000 0.000000 
#    y 0.000000 1.823620 0.000000 
#    z 0.000000 0.000000 1.760090 
# 
# From -- ./inp_files/29013.got.cif
#   From: 2010.05.17/outbox.cif.g08.bks.cpg/sg62_15_cif.got.tgz:29013.got - 2010.06.03 15:25:27.
