data_PCOD9466874
_publ_section_title
;
Structure prediction by ZEFSAII (Michael W. Deem and Ramdas Pophale) SiO2 
 PCOD9466874
Probable space group: P N M A
;
_chemical_formula_sum "Si O2"
_cell_formula_units_Z 40
_cell_length_a 15.555024
_cell_length_b 11.967918
_cell_length_c 11.326969
_cell_angle_alpha 90.000000
_cell_angle_beta 90.000000
_cell_angle_gamma 90.000000
_cell_volume 2108.642727
_symmetry_space_group_name_H-M "P N M A"
_symmetry_group_IT_number 62
_symmetry_cell_setting 'orthorhombic'
loop_
_space_group_symop_operation_xyz
x,y,z
1/2-x,-y,1/2+z
1/2+x,1/2-y,1/2-z
-x,1/2+y,-z
-x,-y,-z
1/2+x,y,1/2-z
1/2-x,1/2+y,1/2+z
x,1/2-y,z
loop_
_atom_site_type_symbol
_atom_site_label
_atom_site_fract_x
_atom_site_fract_y
_atom_site_fract_z
Si Si1 0.053924 0.750000 0.019973
Si Si2 0.933217 0.750000 0.667488
Si Si3 0.364138 0.750000 0.566023
Si Si4 0.374071 0.250000 0.253686
Si Si5 0.590189 0.010899 0.065104
Si Si6 0.353505 0.123928 0.713935
Si Si7 0.267984 0.435211 0.120258
O O1 0.087987 0.854412 0.097824
O O2 0.097702 0.750000 0.890677
O O3 0.951077 0.750000 0.009440
O O4 0.897330 0.750000 0.799414
O O5 0.901014 0.861392 0.605142
O O6 0.037055 0.750000 0.678743
O O7 0.304027 0.641451 0.556725
O O8 0.317773 0.356778 0.214415
O O9 0.594357 0.931973 0.179875
O O10 0.500000 0.000000 0.000000
O O11 0.664879 0.975562 0.976712
O O12 0.324504 0.250000 0.747064
O O13 0.277457 0.039840 0.681933
#
# Coordination Sequence:
#
# PCOD9466874 Si02
#       7
#     4   4   4   4   8   8   8
#     4   9  24  45  70  94 141 177 228 281 344 414
#     4  11  22  45  69  95 134 184 235 277 339 428
#     4  10  22  45  66  98 131 181 227 284 343 405
#     4  10  22  43  69 101 130 192 232 270 356 407
#     4  12  26  46  70  98 143 183 229 284 348 415
#     4  10  26  45  63 102 140 173 232 284 339 408
#     4  11  24  41  70 101 137 178 232 289 335 413
#
# _framework density 18.969548
#
# number of rings (size 3 to 8) (size 9 to 14) (size 15 to 20)
#    0.600    0.800    4.000    0.000    8.400    0.800 
#    3.600    0.000    0.000    0.000    0.000    0.000 
#    0.000    0.000    0.000    0.000    0.000    0.000 
#
# Total GULP energy -223347.665886 kJ/mol
# GULP energy per Si atom -5583.691647 kJ/mol
# Density = 1.892637 g / cm^3
# Si number density = 18.969548 Si / 1000 Ang^3
#
#
#
# Elastic Constant Matrix: (Units=GPa)
#
#
# Indices 1 2 3 4 5 6 
#
# 1 148.7802 74.5045 68.1186 0.0000 0.0000 0.0000
# 2 74.5045 170.0661 64.4501 0.0000 0.0000 0.0000
# 3 68.1186 64.4501 119.9816 0.0000 0.0000 0.0000
# 4 0.0000 0.0000 0.0000 69.8571 0.0000 0.0000
# 5 0.0000 0.0000 0.0000 0.0000 33.8930 0.0000
# 6 0.0000 0.0000 0.0000 0.0000 0.0000 35.3019
#
#
#
# Elastic Compliance Matrix: (Units=1/GPa)
#
#
# Indices 1 2 3 4 5 6 
#
# 1 0.010051 -0.002813 -0.004195 0.000000 0.000000 0.000000
# 2 -0.002813 0.008171 -0.002792 0.000000 0.000000 0.000000
# 3 -0.004195 -0.002792 0.012216 0.000000 0.000000 0.000000
# 4 0.000000 0.000000 0.000000 0.014315 0.000000 0.000000
# 5 0.000000 0.000000 0.000000 0.000000 0.029505 0.000000
# 6 0.000000 0.000000 0.000000 0.000000 0.000000 0.028327
#
#
# Mechanical properties :
#
#
# Convention : Reuss Voigt Hill
#
# Bulk Modulus (GPa) = 92.27544 94.77494 93.52519
# Shear Modulus (GPa) = 39.74671 43.26071 41.50371
#
# Velocity S-wave (km/s) = 4.58240 4.78067 4.68259
# Velocity P-wave (km/s) = 8.76056 8.97459 8.86822
#
# Compressibility (1/GPa) = 0.01083712
#
# Stress axis : x y z
#
# Youngs Moduli (GPa) = 99.49382 122.39076 81.86056
#
# Poissons Ratio (x) = 0.34433 0.34341
# Poissons Ratio (y) = 0.27992 0.22853
# Poissons Ratio (z) = 0.41738 0.34167
#
# Static dielectric constant tensor:
#      x y z
#    x 1.642690 0.000000 0.000000 
#    y 0.000000 1.642570 0.000000 
#    z 0.000000 0.000000 1.648890 
# 
# From -- ./inp_files/13056.got.cif
#   From: 2010.05.17/outbox.cif.g08.bks.cpg/sg62_7_cif.got.tgz:13056.got - 2010.06.03 15:25:27.
