data_PCOD9466345
_publ_section_title
;
Structure prediction by ZEFSAII (Michael W. Deem and Ramdas Pophale) SiO2 
 PCOD9466345
Probable space group: P N M A
;
_chemical_formula_sum "Si O2"
_cell_formula_units_Z 32
_cell_length_a 13.060748
_cell_length_b 12.859142
_cell_length_c 7.352270
_cell_angle_alpha 90.000000
_cell_angle_beta 90.000000
_cell_angle_gamma 90.000000
_cell_volume 1234.813843
_symmetry_space_group_name_H-M "P N M A"
_symmetry_group_IT_number 62
_symmetry_cell_setting 'orthorhombic'
loop_
_space_group_symop_operation_xyz
x,y,z
1/2-x,-y,1/2+z
1/2+x,1/2-y,1/2-z
-x,1/2+y,-z
-x,-y,-z
1/2+x,y,1/2-z
1/2-x,1/2+y,1/2+z
x,1/2-y,z
loop_
_atom_site_type_symbol
_atom_site_label
_atom_site_fract_x
_atom_site_fract_y
_atom_site_fract_z
Si Si1 0.055315 0.136837 0.090811
Si Si2 0.516706 0.923338 0.200439
Si Si3 0.233041 0.913639 0.404327
Si Si4 0.303745 0.865183 0.013645
O O1 0.035524 0.250000 0.170952
O O2 0.027016 0.042142 0.223555
O O3 0.175369 0.125640 0.031214
O O4 0.995551 0.130960 0.897967
O O5 0.612669 0.894694 0.072392
O O6 0.416811 0.895146 0.085437
O O7 0.246579 0.867812 0.205240
O O8 0.242835 0.039522 0.400415
O O9 0.297212 0.750000 0.934569
#
# Coordination Sequence:
#
# PCOD9466345 Si02
#       4
#     8   8   8   8
#     4  10  22  40  64  95 133 173 212 265 329 389
#     4  10  21  41  65  92 134 165 219 272 315 395
#     4  11  21  44  65  95 135 166 222 271 314 397
#     4  11  25  43  67  98 133 174 218 271 330 385
#
# _framework density 25.914836000000001
#
# number of rings (size 3 to 8) (size 9 to 14) (size 15 to 20)
#    0.000    1.500    2.500    3.750    0.000    5.000 
#    0.000    2.500    0.000    0.000    0.000    0.000 
#    0.000    0.000    0.000    0.000    0.000    0.000 
#
# Total GULP energy -178854.955852 kJ/mol
# GULP energy per Si atom -5589.217370 kJ/mol
# Density = 2.585585 g / cm^3
# Si number density = 25.914836 Si / 1000 Ang^3
#
#
#
# Elastic Constant Matrix: (Units=GPa)
#
#
# Indices 1 2 3 4 5 6 
#
# 1 105.3573 25.8360 -36.5739 0.0000 0.0000 0.0000
# 2 25.8360 207.3745 18.3470 0.0000 0.0000 0.0000
# 3 -36.5739 18.3470 52.0422 0.0000 0.0000 0.0000
# 4 0.0000 0.0000 0.0000 22.9950 0.0000 0.0000
# 5 0.0000 0.0000 0.0000 0.0000 27.1757 0.0000
# 6 0.0000 0.0000 0.0000 0.0000 0.0000 -34.4284
#
#
#
# Elastic Compliance Matrix: (Units=1/GPa)
#
#
# Indices 1 2 3 4 5 6 
#
# 1 0.013853 -0.002670 0.010677 0.000000 0.000000 0.000000
# 2 -0.002670 0.005492 -0.003813 0.000000 0.000000 0.000000
# 3 0.010677 -0.003813 0.028063 0.000000 0.000000 0.000000
# 4 0.000000 0.000000 0.000000 0.043488 0.000000 0.000000
# 5 0.000000 0.000000 0.000000 0.000000 0.036798 0.000000
# 6 0.000000 0.000000 0.000000 0.000000 0.000000 -0.029046
#
#
# Mechanical properties :
#
#
# Convention : Reuss Voigt Hill
#
# Bulk Modulus (GPa) = 17.92292 42.22135 30.07214
# Shear Modulus (GPa) = 45.93114 26.95947 36.44530
#
# Velocity S-wave (km/s) = 4.21454 3.22888 3.75420
# Velocity P-wave (km/s) = 5.53301 5.49806 5.51556
#
# Compressibility (1/GPa) = 0.05579447
#
# Stress axis : x y z
#
# Youngs Moduli (GPa) = 72.18792 182.07511 35.63439
#
# Poissons Ratio (x) = 0.48622 -0.38046
# Poissons Ratio (y) = 0.19278 0.13587
# Poissons Ratio (z) = -0.77074 0.69425
#
# Static dielectric constant tensor:
#      x y z
#    x 2.068960 0.000000 0.000000 
#    y 0.000000 2.071520 0.000000 
#    z 0.000000 0.000000 2.022410 
# 
# From -- ./inp_files/5771.got.cif
#   From: 2010.05.17/outbox.cif.g08.bks.cpg/sg62_3_cif.got.tgz:5771.got - 2010.06.03 15:25:27.
