data_PCOD9466781
_publ_section_title
;
Structure prediction by ZEFSAII (Michael W. Deem and Ramdas Pophale) SiO2 
 PCOD9466781
Probable space group: P N M A
;
_chemical_formula_sum "Si O2"
_cell_formula_units_Z 64
_cell_length_a 15.900053
_cell_length_b 8.513246
_cell_length_c 24.391778
_cell_angle_alpha 90.000000
_cell_angle_beta 90.000000
_cell_angle_gamma 90.000000
_cell_volume 3301.696989
_symmetry_space_group_name_H-M "P N M A"
_symmetry_group_IT_number 62
_symmetry_cell_setting 'orthorhombic'
loop_
_space_group_symop_operation_xyz
x,y,z
1/2-x,-y,1/2+z
1/2+x,1/2-y,1/2-z
-x,1/2+y,-z
-x,-y,-z
1/2+x,y,1/2-z
1/2-x,1/2+y,1/2+z
x,1/2-y,z
loop_
_atom_site_type_symbol
_atom_site_label
_atom_site_fract_x
_atom_site_fract_y
_atom_site_fract_z
Si Si1 0.498428 0.938339 0.561692
Si Si2 0.163713 0.437654 0.131840
Si Si3 0.839857 0.058847 0.632927
Si Si4 0.909515 0.063021 0.248777
Si Si5 0.998612 0.060232 0.561669
Si Si6 0.400385 0.061665 0.747219
Si Si7 0.844455 0.937731 0.362919
Si Si8 0.652704 0.438710 0.633533
O O1 0.499062 0.750000 0.561615
O O2 0.413777 0.989778 0.593528
O O3 0.500000 0.000000 0.500000
O O4 0.579225 0.997729 0.594996
O O5 0.171175 0.250000 0.128052
O O6 0.140750 0.484552 0.194003
O O7 0.252425 0.514372 0.116744
O O8 0.842078 0.250000 0.632552
O O9 0.915388 0.004677 0.594026
O O10 0.857938 0.011468 0.695655
O O11 0.746336 0.010875 0.615696
O O12 0.918253 0.250000 0.244907
O O13 0.861559 0.015991 0.304080
O O14 0.863283 0.999024 0.194990
O O15 0.001929 0.985779 0.250108
O O16 0.997157 0.250000 0.560985
O O17 0.081462 0.012667 0.595708
O O18 0.000000 0.000000 0.500000
O O19 0.393356 0.250000 0.742348
O O20 0.849160 0.750000 0.356003
O O21 0.649249 0.250000 0.633650
#
# Coordination Sequence:
#
# PCOD9466781 Si02
#       8
#     8   8   8   8   8   8   8   8
#     4  11  25  44  64  88 123 164 210 262 313 368
#     4  11  24  41  62  93 129 160 201 259 316 369
#     4   9  20  39  62  90 122 157 201 248 299 363
#     4  12  23  37  60  93 131 164 200 254 313 368
#     4  10  22  42  63  87 120 158 205 257 306 364
#     4  11  20  37  65  92 124 166 207 247 302 376
#     4  11  23  41  65  91 123 165 211 254 305 375
#     4  11  22  39  66  94 122 163 207 252 310 372
#
# _framework density 19.383970000000001
#
# number of rings (size 3 to 8) (size 9 to 14) (size 15 to 20)
#    0.000    1.250    2.500    3.750    0.000    4.500 
#    0.000    6.875    0.000    0.000    0.000    0.000 
#    0.000    0.000    0.000    0.000    0.000    0.000 
#
# Total GULP energy -357894.573437 kJ/mol
# GULP energy per Si atom -5592.102710 kJ/mol
# Density = 1.933985 g / cm^3
# Si number density = 19.383970 Si / 1000 Ang^3
#
#
#
# Elastic Constant Matrix: (Units=GPa)
#
#
# Indices 1 2 3 4 5 6 
#
# 1 160.2462 2.9128 79.4914 0.0000 0.0000 0.0000
# 2 2.9128 22.6207 18.1355 0.0000 0.0000 0.0000
# 3 79.4914 18.1355 154.6236 0.0000 0.0000 0.0000
# 4 0.0000 0.0000 0.0000 32.2055 0.0000 0.0000
# 5 0.0000 0.0000 0.0000 0.0000 -1.4592 0.0000
# 6 0.0000 0.0000 0.0000 0.0000 0.0000 25.4702
#
#
#
# Elastic Compliance Matrix: (Units=1/GPa)
#
#
# Indices 1 2 3 4 5 6 
#
# 1 0.008520 0.002665 -0.004693 0.000000 0.000000 0.000000
# 2 0.002665 0.049629 -0.007191 0.000000 0.000000 0.000000
# 3 -0.004693 -0.007191 0.009723 0.000000 0.000000 0.000000
# 4 0.000000 0.000000 0.000000 0.031051 0.000000 0.000000
# 5 0.000000 0.000000 0.000000 0.000000 -0.685319 0.000000
# 6 0.000000 0.000000 0.000000 0.000000 0.000000 0.039261
#
#
# Mechanical properties :
#
#
# Convention : Reuss Voigt Hill
#
# Bulk Modulus (GPa) = 20.22847 59.84108 40.03478
# Shear Modulus (GPa) = -9.76145 27.04003 8.63929
#
# Velocity S-wave (km/s) = -2.24650 3.73898 2.11343
# Velocity P-wave (km/s) = 1.93114 7.04119 5.16274
#
# Compressibility (1/GPa) = 0.04943527
#
# Stress axis : x y z
#
# Youngs Moduli (GPa) = 117.37472 20.14935 102.84731
#
# Poissons Ratio (x) = -0.05370 0.48261
# Poissons Ratio (y) = -0.31281 0.73958
# Poissons Ratio (z) = 0.55078 0.14489
#
# Static dielectric constant tensor:
#      x y z
#    x 1.680170 0.000000 0.000000 
#    y 0.000000 1.659940 0.000000 
#    z 0.000000 0.000000 1.638800 
# 
# From -- ./inp_files/29790.got.cif
#   From: 2010.05.17/outbox.cif.g08.bks.cpg/sg62_15_cif.got.tgz:29790.got - 2010.06.03 15:25:27.
