data_PCOD9466315
_publ_section_title
;
Structure prediction by ZEFSAII (Michael W. Deem and Ramdas Pophale) SiO2 
 PCOD9466315
Probable space group: P N M A
;
_chemical_formula_sum "Si O2"
_cell_formula_units_Z 40
_cell_length_a 14.594671
_cell_length_b 9.397313
_cell_length_c 14.001197
_cell_angle_alpha 90.000000
_cell_angle_beta 90.000000
_cell_angle_gamma 90.000000
_cell_volume 1920.273851
_symmetry_space_group_name_H-M "P N M A"
_symmetry_group_IT_number 62
_symmetry_cell_setting 'orthorhombic'
loop_
_space_group_symop_operation_xyz
x,y,z
1/2-x,-y,1/2+z
1/2+x,1/2-y,1/2-z
-x,1/2+y,-z
-x,-y,-z
1/2+x,y,1/2-z
1/2-x,1/2+y,1/2+z
x,1/2-y,z
loop_
_atom_site_type_symbol
_atom_site_label
_atom_site_fract_x
_atom_site_fract_y
_atom_site_fract_z
Si Si1 0.267784 0.581985 0.208117
Si Si2 0.053070 0.917975 0.202238
Si Si3 0.719935 0.414125 0.013038
Si Si4 0.055602 0.917232 0.419775
Si Si5 0.387477 0.417474 0.364688
O O1 0.274419 0.750000 0.234814
O O2 0.160126 0.543225 0.203103
O O3 0.325715 0.488090 0.281048
O O4 0.300066 0.568121 0.098647
O O5 0.047085 0.750000 0.180099
O O6 0.021064 0.939741 0.312153
O O7 0.985099 0.005926 0.136112
O O8 0.697156 0.250000 0.038994
O O9 0.658335 0.522758 0.071850
O O10 0.826240 0.434398 0.039965
O O11 0.053331 0.750000 0.438719
O O12 0.000000 0.000000 0.500000
O O13 0.398960 0.250000 0.347048
#
# Coordination Sequence:
#
# PCOD9466315 Si02
#       5
#     8   8   8   8   8
#     4  10  21  41  63  84 116 160 203 241 290 361
#     4  10  22  39  60  84 115 159 202 239 288 358
#     4  10  22  39  60  86 119 155 195 247 300 350
#     4  11  22  37  59  88 118 154 200 247 295 350
#     4  11  23  38  59  90 123 153 193 252 307 347
#
# _framework density 20.830362000000001
#
# number of rings (size 3 to 8) (size 9 to 14) (size 15 to 20)
#    0.000    1.600    2.000    2.400    0.000    9.600 
#    0.000    0.000    0.000    0.000    0.000    0.000 
#    0.000    0.000    0.000    0.000    0.000    0.000 
#
# Total GULP energy -223606.668042 kJ/mol
# GULP energy per Si atom -5590.166701 kJ/mol
# Density = 2.078295 g / cm^3
# Si number density = 20.830362 Si / 1000 Ang^3
#
#
#
# Elastic Constant Matrix: (Units=GPa)
#
#
# Indices 1 2 3 4 5 6 
#
# 1 68.0731 11.9381 -11.0080 0.0000 0.0000 0.0000
# 2 11.9381 35.9474 11.0556 0.0000 0.0000 0.0000
# 3 -11.0080 11.0556 26.2645 0.0000 0.0000 0.0000
# 4 0.0000 0.0000 0.0000 21.5040 0.0000 0.0000
# 5 0.0000 0.0000 0.0000 0.0000 30.5945 0.0000
# 6 0.0000 0.0000 0.0000 0.0000 0.0000 38.9481
#
#
#
# Elastic Compliance Matrix: (Units=1/GPa)
#
#
# Indices 1 2 3 4 5 6 
#
# 1 0.018287 -0.009684 0.011741 0.000000 0.000000 0.000000
# 2 -0.009684 0.037084 -0.019669 0.000000 0.000000 0.000000
# 3 0.011741 -0.019669 0.051274 0.000000 0.000000 0.000000
# 4 0.000000 0.000000 0.000000 0.046503 0.000000 0.000000
# 5 0.000000 0.000000 0.000000 0.000000 0.032686 0.000000
# 6 0.000000 0.000000 0.000000 0.000000 0.000000 0.025675
#
#
# Mechanical properties :
#
#
# Convention : Reuss Voigt Hill
#
# Bulk Modulus (GPa) = 14.00143 17.13961 15.57052
# Shear Modulus (GPa) = 18.48161 26.09591 22.28876
#
# Velocity S-wave (km/s) = 2.98190 3.54331 3.27465
# Velocity P-wave (km/s) = 4.31183 4.99861 4.66786
#
# Compressibility (1/GPa) = 0.07142130
#
# Stress axis : x y z
#
# Youngs Moduli (GPa) = 54.68371 26.96613 19.50298
#
# Poissons Ratio (x) = 0.26114 -0.22898
# Poissons Ratio (y) = 0.52956 0.38359
# Poissons Ratio (z) = -0.64203 0.53038
#
# Static dielectric constant tensor:
#      x y z
#    x 1.804990 0.000000 0.000000 
#    y 0.000000 1.688160 0.000000 
#    z 0.000000 0.000000 1.747490 
# 
# From -- ./inp_files/18590.got.cif
#   From: 2010.05.17/outbox.cif.g08.bks.cpg/sg62_10_cif.got.tgz:18590.got - 2010.06.03 15:25:27.
