data_PCOD9466341
_publ_section_title
;
Structure prediction by ZEFSAII (Michael W. Deem and Ramdas Pophale) SiO2 
 PCOD9466341
Probable space group: P N M A
;
_chemical_formula_sum "Si O2"
_cell_formula_units_Z 48
_cell_length_a 9.666599
_cell_length_b 8.051778
_cell_length_c 25.644042
_cell_angle_alpha 90.000000
_cell_angle_beta 90.000000
_cell_angle_gamma 90.000000
_cell_volume 1995.960649
_symmetry_space_group_name_H-M "P N M A"
_symmetry_group_IT_number 62
_symmetry_cell_setting 'orthorhombic'
loop_
_space_group_symop_operation_xyz
x,y,z
1/2-x,-y,1/2+z
1/2+x,1/2-y,1/2-z
-x,1/2+y,-z
-x,-y,-z
1/2+x,y,1/2-z
1/2-x,1/2+y,1/2+z
x,1/2-y,z
loop_
_atom_site_type_symbol
_atom_site_label
_atom_site_fract_x
_atom_site_fract_y
_atom_site_fract_z
Si Si1 0.551577 0.554360 0.635452
Si Si2 0.801241 0.056898 0.919366
Si Si3 0.455418 0.057665 0.810369
Si Si4 0.711626 0.546172 0.533294
Si Si5 0.493013 0.941125 0.920706
Si Si6 0.309069 0.051061 0.257936
O O1 0.580598 0.750000 0.636713
O O2 0.389006 0.530244 0.625494
O O3 0.625951 0.486798 0.583272
O O4 0.614380 0.488583 0.689081
O O5 0.836306 0.250000 0.916392
O O6 0.636307 0.037811 0.917577
O O7 0.840391 0.988939 0.976958
O O8 0.432217 0.250000 0.821915
O O9 0.429903 0.952935 0.862462
O O10 0.349573 0.997347 0.766068
O O11 0.609991 0.028814 0.789871
O O12 0.710261 0.750000 0.532746
O O13 0.872006 0.496302 0.541511
O O14 0.523656 0.750000 0.933045
O O15 0.321412 0.250000 0.253395
#
# Coordination Sequence:
#
# PCOD9466341 Si02
#       6
#     8   8   8   8   8   8
#     4  10  21  41  65  90 123 167 212 253 304 377
#     4  11  23  37  59  95 132 164 206 263 318 365
#     4  12  26  44  67  98 131 160 205 267 324 370
#     4   9  19  39  64  90 123 163 212 263 310 370
#     4  11  22  42  66  89 124 170 216 256 309 381
#     4  11  24  45  71  94 124 169 214 253 311 385
#
# _framework density 24.048569000000001
#
# number of rings (size 3 to 8) (size 9 to 14) (size 15 to 20)
#    0.000    1.333    1.667    4.000    2.333    1.333 
#    0.000    3.333    0.000    0.000    0.000    0.000 
#    0.000    0.000    0.000    0.000    0.000    0.000 
#
# Total GULP energy -268674.083653 kJ/mol
# GULP energy per Si atom -5597.376743 kJ/mol
# Density = 2.399383 g / cm^3
# Si number density = 24.048569 Si / 1000 Ang^3
#
#
#
# Elastic Constant Matrix: (Units=GPa)
#
#
# Indices 1 2 3 4 5 6 
#
# 1 76.9374 -12.6680 -1.9822 0.0000 0.0000 0.0000
# 2 -12.6680 49.6885 1.7123 0.0000 0.0000 0.0000
# 3 -1.9822 1.7123 49.0706 0.0000 0.0000 0.0000
# 4 0.0000 0.0000 0.0000 15.0786 0.0000 0.0000
# 5 0.0000 0.0000 0.0000 0.0000 45.7596 0.0000
# 6 0.0000 0.0000 0.0000 0.0000 0.0000 26.7707
#
#
#
# Elastic Compliance Matrix: (Units=1/GPa)
#
#
# Indices 1 2 3 4 5 6 
#
# 1 0.013576 0.003446 0.000428 0.000000 0.000000 0.000000
# 2 0.003446 0.021025 -0.000594 0.000000 0.000000 0.000000
# 3 0.000428 -0.000594 0.020417 0.000000 0.000000 0.000000
# 4 0.000000 0.000000 0.000000 0.066319 0.000000 0.000000
# 5 0.000000 0.000000 0.000000 0.000000 0.021853 0.000000
# 6 0.000000 0.000000 0.000000 0.000000 0.000000 0.037354
#
#
# Mechanical properties :
#
#
# Convention : Reuss Voigt Hill
#
# Bulk Modulus (GPa) = 16.23963 16.64675 16.44319
# Shear Modulus (GPa) = 25.70564 30.09740 27.90152
#
# Velocity S-wave (km/s) = 3.27296 3.54153 3.40989
# Velocity P-wave (km/s) = 4.58808 4.86420 4.72816
#
# Compressibility (1/GPa) = 0.06157776
#
# Stress axis : x y z
#
# Youngs Moduli (GPa) = 73.65898 47.56352 48.97913
#
# Poissons Ratio (x) = -0.16392 -0.02097
# Poissons Ratio (y) = -0.25386 0.02911
# Poissons Ratio (z) = -0.03154 0.02827
#
# Static dielectric constant tensor:
#      x y z
#    x 1.932720 0.000000 0.000000 
#    y 0.000000 1.848850 0.000000 
#    z 0.000000 0.000000 1.938750 
# 
# From -- ./inp_files/31915.got.cif
#   From: 2010.05.17/outbox.cif.g08.bks.cpg/sg62_16_cif.got.tgz:31915.got - 2010.06.03 15:25:27.
