data_PCOD9466532
_publ_section_title
;
Structure prediction by ZEFSAII (Michael W. Deem and Ramdas Pophale) SiO2 
 PCOD9466532
Probable space group: P N M A
;
_chemical_formula_sum "Si O2"
_cell_formula_units_Z 40
_cell_length_a 10.561483
_cell_length_b 10.677853
_cell_length_c 17.020910
_cell_angle_alpha 90.000000
_cell_angle_beta 90.000000
_cell_angle_gamma 90.000000
_cell_volume 1919.515473
_symmetry_space_group_name_H-M "P N M A"
_symmetry_group_IT_number 62
_symmetry_cell_setting 'orthorhombic'
loop_
_space_group_symop_operation_xyz
x,y,z
1/2-x,-y,1/2+z
1/2+x,1/2-y,1/2-z
-x,1/2+y,-z
-x,-y,-z
1/2+x,y,1/2-z
1/2-x,1/2+y,1/2+z
x,1/2-y,z
loop_
_atom_site_type_symbol
_atom_site_label
_atom_site_fract_x
_atom_site_fract_y
_atom_site_fract_z
Si Si1 0.021832 0.894242 0.065520
Si Si2 0.798426 0.250000 0.181192
Si Si3 0.219821 0.023151 0.847705
Si Si4 0.487536 0.750000 0.813433
Si Si5 0.008965 0.989478 0.407012
Si Si6 0.761864 0.605628 0.326897
O O1 0.036525 0.750000 0.037229
O O2 0.145237 0.928952 0.116889
O O3 0.898930 0.899985 0.121655
O O4 0.000000 0.000000 0.000000
O O5 0.804390 0.377326 0.131513
O O6 0.909695 0.250000 0.244729
O O7 0.656850 0.250000 0.218073
O O8 0.353594 0.063231 0.883612
O O9 0.231661 0.029076 0.753655
O O10 0.501292 0.873934 0.866229
O O11 0.892878 0.910837 0.372857
O O12 0.000000 0.000000 0.500000
O O13 0.743141 0.750000 0.304126
#
# Coordination Sequence:
#
# PCOD9466532 Si02
#       6
#     8   4   8   4   8   8
#     4  11  26  47  68  99 136 176 219 273 337 398
#     4  10  22  38  68  96 132 164 222 280 328 378
#     4  11  23  43  66  98 129 174 223 272 323 393
#     4  10  22  42  64  98 128 166 216 268 330 388
#     4  11  24  42  64  96 131 169 213 266 327 386
#     4  11  24  43  67  93 130 170 218 273 324 384
#
# _framework density 20.838591000000001
#
# number of rings (size 3 to 8) (size 9 to 14) (size 15 to 20)
#    0.000    1.200    2.000    3.000    5.600    3.200 
#    7.200    0.000    0.000    0.000    0.000    0.000 
#    0.000    0.000    0.000    0.000    0.000    0.000 
#
# Total GULP energy -223664.178953 kJ/mol
# GULP energy per Si atom -5591.604474 kJ/mol
# Density = 2.079116 g / cm^3
# Si number density = 20.838591 Si / 1000 Ang^3
#
#
#
# Elastic Constant Matrix: (Units=GPa)
#
#
# Indices 1 2 3 4 5 6 
#
# 1 134.7954 10.1499 32.8523 0.0000 0.0000 0.0000
# 2 10.1499 72.2752 7.0480 0.0000 0.0000 0.0000
# 3 32.8523 7.0480 71.6610 0.0000 0.0000 0.0000
# 4 0.0000 0.0000 0.0000 22.3521 0.0000 0.0000
# 5 0.0000 0.0000 0.0000 0.0000 34.9325 0.0000
# 6 0.0000 0.0000 0.0000 0.0000 0.0000 17.4226
#
#
#
# Elastic Compliance Matrix: (Units=1/GPa)
#
#
# Indices 1 2 3 4 5 6 
#
# 1 0.008399 -0.000812 -0.003770 0.000000 0.000000 0.000000
# 2 -0.000812 0.014048 -0.001010 0.000000 0.000000 0.000000
# 3 -0.003770 -0.001010 0.015782 0.000000 0.000000 0.000000
# 4 0.000000 0.000000 0.000000 0.044738 0.000000 0.000000
# 5 0.000000 0.000000 0.000000 0.000000 0.028627 0.000000
# 6 0.000000 0.000000 0.000000 0.000000 0.000000 0.057397
#
#
# Mechanical properties :
#
#
# Convention : Reuss Voigt Hill
#
# Bulk Modulus (GPa) = 36.97406 42.09247 39.53326
# Shear Modulus (GPa) = 26.42840 30.18686 28.30763
#
# Velocity S-wave (km/s) = 3.56510 3.81018 3.68968
# Velocity P-wave (km/s) = 5.89306 6.29284 6.09623
#
# Compressibility (1/GPa) = 0.02704599
#
# Stress axis : x y z
#
# Youngs Moduli (GPa) = 119.06579 71.18220 63.36163
#
# Poissons Ratio (x) = 0.05778 0.23890
# Poissons Ratio (y) = 0.09666 0.06397
# Poissons Ratio (z) = 0.44893 0.07186
#
# Static dielectric constant tensor:
#      x y z
#    x 1.730530 0.000000 0.000000 
#    y 0.000000 1.783380 0.000000 
#    z 0.000000 0.000000 1.717310 
# 
# From -- ./inp_files/21935.got.cif
#   From: 2010.05.17/outbox.cif.g08.bks.cpg/sg62_11_cif.got.tgz:21935.got - 2010.06.03 15:25:27.
