data_PCOD9466858
_publ_section_title
;
Structure prediction by ZEFSAII (Michael W. Deem and Ramdas Pophale) SiO2 
 PCOD9466858
Probable space group: P N M A
;
_chemical_formula_sum "Si O2"
_cell_formula_units_Z 48
_cell_length_a 12.014616
_cell_length_b 8.687606
_cell_length_c 22.532274
_cell_angle_alpha 90.000000
_cell_angle_beta 90.000000
_cell_angle_gamma 90.000000
_cell_volume 2351.879330
_symmetry_space_group_name_H-M "P N M A"
_symmetry_group_IT_number 62
_symmetry_cell_setting 'orthorhombic'
loop_
_space_group_symop_operation_xyz
x,y,z
1/2-x,-y,1/2+z
1/2+x,1/2-y,1/2-z
-x,1/2+y,-z
-x,-y,-z
1/2+x,y,1/2-z
1/2-x,1/2+y,1/2+z
x,1/2-y,z
loop_
_atom_site_type_symbol
_atom_site_label
_atom_site_fract_x
_atom_site_fract_y
_atom_site_fract_z
Si Si1 0.449966 0.423722 0.663575
Si Si2 0.855971 0.068574 0.228387
Si Si3 0.007659 0.933379 0.566303
Si Si4 0.784437 0.436839 0.618327
Si Si5 0.588193 0.079082 0.542429
Si Si6 0.801556 0.566595 0.355398
O O1 0.440174 0.250000 0.689442
O O2 0.518565 0.533731 0.706486
O O3 0.525024 0.411556 0.605166
O O4 0.328590 0.475931 0.643755
O O5 0.838401 0.250000 0.235760
O O6 0.771149 0.003659 0.178193
O O7 0.839918 0.979880 0.289676
O O8 0.996524 0.750000 0.564905
O O9 0.123558 0.981157 0.596562
O O10 0.000000 0.000000 0.500000
O O11 0.908142 0.005550 0.605746
O O12 0.780083 0.250000 0.620760
O O13 0.706831 0.489707 0.562268
O O14 0.609439 0.250000 0.518653
O O15 0.500000 0.000000 0.500000
O O16 0.811077 0.750000 0.364483
#
# Coordination Sequence:
#
# PCOD9466858 Si02
#       6
#     8   8   8   8   8   8
#     4   9  21  41  62  88 122 163 211 258 313 382
#     4  11  23  40  65  98 131 166 211 267 325 384
#     4  12  27  46  67  96 132 174 222 270 327 394
#     4  10  22  43  66  92 127 171 216 262 319 385
#     4   9  19  35  59  90 120 155 202 253 307 365
#     4  11  24  43  68  94 127 172 215 266 325 387
#
# _framework density 20.409210000000002
#
# number of rings (size 3 to 8) (size 9 to 14) (size 15 to 20)
#    0.000    1.667    0.000    5.000    4.667    4.667 
#    0.000    0.000    0.000    0.000    0.000    0.000 
#    0.000    0.000    0.000    0.000    0.000    0.000 
#
# Total GULP energy -268094.938922 kJ/mol
# GULP energy per Si atom -5585.311228 kJ/mol
# Density = 2.036276 g / cm^3
# Si number density = 20.409210 Si / 1000 Ang^3
#
#
#
# Elastic Constant Matrix: (Units=GPa)
#
#
# Indices 1 2 3 4 5 6 
#
# 1 116.5296 20.0427 10.2448 0.0000 0.0000 0.0000
# 2 20.0427 53.1266 2.9035 0.0000 0.0000 0.0000
# 3 10.2448 2.9035 47.8410 0.0000 0.0000 0.0000
# 4 0.0000 0.0000 0.0000 25.3972 0.0000 0.0000
# 5 0.0000 0.0000 0.0000 0.0000 11.0782 0.0000
# 6 0.0000 0.0000 0.0000 0.0000 0.0000 31.2784
#
#
#
# Elastic Compliance Matrix: (Units=1/GPa)
#
#
# Indices 1 2 3 4 5 6 
#
# 1 0.009327 -0.003421 -0.001790 0.000000 0.000000 0.000000
# 2 -0.003421 0.020140 -0.000490 0.000000 0.000000 0.000000
# 3 -0.001790 -0.000490 0.021316 0.000000 0.000000 0.000000
# 4 0.000000 0.000000 0.000000 0.039374 0.000000 0.000000
# 5 0.000000 0.000000 0.000000 0.000000 0.090267 0.000000
# 6 0.000000 0.000000 0.000000 0.000000 0.000000 0.031971
#
#
# Mechanical properties :
#
#
# Convention : Reuss Voigt Hill
#
# Bulk Modulus (GPa) = 25.39221 31.54214 28.46718
# Shear Modulus (GPa) = 21.10379 25.83783 23.47081
#
# Velocity S-wave (km/s) = 3.21913 3.56193 3.39486
# Velocity P-wave (km/s) = 5.12695 5.69253 5.41712
#
# Compressibility (1/GPa) = 0.03938216
#
# Stress axis : x y z
#
# Youngs Moduli (GPa) = 107.21256 49.65159 46.91404
#
# Poissons Ratio (x) = 0.16986 0.08396
# Poissons Ratio (y) = 0.36678 0.02298
# Poissons Ratio (z) = 0.19188 0.02432
#
# Static dielectric constant tensor:
#      x y z
#    x 1.757950 0.000000 0.000000 
#    y 0.000000 1.753340 0.000000 
#    z 0.000000 0.000000 1.714610 
# 
# From -- ./inp_files/29261.got.cif
#   From: 2010.05.17/outbox.cif.g08.bks.cpg/sg62_15_cif.got.tgz:29261.got - 2010.06.03 15:25:27.
