data_PCOD9466914
_publ_section_title
;
Structure prediction by ZEFSAII (Michael W. Deem and Ramdas Pophale) SiO2 
 PCOD9466914
Probable space group: P N M A
;
_chemical_formula_sum "Si O2"
_cell_formula_units_Z 40
_cell_length_a 15.031233
_cell_length_b 14.117605
_cell_length_c 7.499963
_cell_angle_alpha 90.000000
_cell_angle_beta 90.000000
_cell_angle_gamma 90.000000
_cell_volume 1591.529725
_symmetry_space_group_name_H-M "P N M A"
_symmetry_group_IT_number 62
_symmetry_cell_setting 'orthorhombic'
loop_
_space_group_symop_operation_xyz
x,y,z
1/2-x,-y,1/2+z
1/2+x,1/2-y,1/2-z
-x,1/2+y,-z
-x,-y,-z
1/2+x,y,1/2-z
1/2-x,1/2+y,1/2+z
x,1/2-y,z
loop_
_atom_site_type_symbol
_atom_site_label
_atom_site_fract_x
_atom_site_fract_y
_atom_site_fract_z
Si Si1 0.081315 0.250000 0.750747
Si Si2 0.481871 0.750000 0.888712
Si Si3 0.815644 0.250000 0.329722
Si Si4 0.690141 0.905112 0.131958
Si Si5 0.277338 0.250000 0.586263
Si Si6 0.946523 0.544328 0.725828
Si Si7 0.115899 0.455966 0.881588
O O1 0.005497 0.250000 0.602072
O O2 0.173940 0.250000 0.642140
O O3 0.083216 0.347157 0.856670
O O4 0.578440 0.750000 0.803174
O O5 0.435763 0.848121 0.836159
O O6 0.792424 0.161336 0.458998
O O7 0.780948 0.250000 0.127316
O O8 0.680712 0.838964 0.307575
O O9 0.780654 0.964000 0.164212
O O10 0.604254 0.969918 0.101364
O O11 0.951576 0.480517 0.230983
O O12 0.897472 0.525906 0.911784
#
# Coordination Sequence:
#
# PCOD9466914 Si02
#       7
#     4   4   4   8   4   8   8
#     4  10  22  45  71 100 145 190 243 305 370 461
#     4  12  28  43  68 106 142 198 247 311 375 434
#     4  11  25  43  75 111 152 186 243 306 368 454
#     4  10  24  48  74 107 152 198 241 310 373 447
#     4   9  23  43  72 111 143 194 239 294 381 441
#     4  11  26  46  71 107 145 198 253 310 375 441
#     4  10  24  46  72 103 144 193 244 313 369 452
#
# _framework density 25.133053
#
# number of rings (size 3 to 8) (size 9 to 14) (size 15 to 20)
#    0.000    1.600    0.000    2.400    8.400    8.800 
#    0.000    0.000    0.000    0.000    0.000    0.000 
#    0.000    0.000    0.000    0.000    0.000    0.000 
#
# Total GULP energy -224143.120354 kJ/mol
# GULP energy per Si atom -5603.578009 kJ/mol
# Density = 2.507585 g / cm^3
# Si number density = 25.133053 Si / 1000 Ang^3
#
#
#
# Elastic Constant Matrix: (Units=GPa)
#
#
# Indices 1 2 3 4 5 6 
#
# 1 36.5852 12.5493 4.8115 0.0000 0.0000 0.0000
# 2 12.5493 116.2606 50.0643 0.0000 0.0000 0.0000
# 3 4.8115 50.0643 143.3252 0.0000 0.0000 0.0000
# 4 0.0000 0.0000 0.0000 60.9380 0.0000 0.0000
# 5 0.0000 0.0000 0.0000 0.0000 26.9544 0.0000
# 6 0.0000 0.0000 0.0000 0.0000 0.0000 -104.8626
#
#
#
# Elastic Compliance Matrix: (Units=1/GPa)
#
#
# Indices 1 2 3 4 5 6 
#
# 1 0.028387 -0.003124 0.000138 0.000000 0.000000 0.000000
# 2 -0.003124 0.010468 -0.003552 0.000000 0.000000 0.000000
# 3 0.000138 -0.003552 0.008213 0.000000 0.000000 0.000000
# 4 0.000000 0.000000 0.000000 0.016410 0.000000 0.000000
# 5 0.000000 0.000000 0.000000 0.000000 0.037100 0.000000
# 6 0.000000 0.000000 0.000000 0.000000 0.000000 -0.009536
#
#
# Mechanical properties :
#
#
# Convention : Reuss Voigt Hill
#
# Bulk Modulus (GPa) = 29.41734 47.89126 38.65430
# Shear Modulus (GPa) = 43.31003 11.85569 27.58286
#
# Velocity S-wave (km/s) = 4.15568 2.17426 3.31641
# Velocity P-wave (km/s) = 5.89545 5.03981 5.48434
#
# Compressibility (1/GPa) = 0.03399356
#
# Stress axis : x y z
#
# Youngs Moduli (GPa) = 35.22775 95.52975 121.75653
#
# Poissons Ratio (x) = 0.29839 -0.01682
# Poissons Ratio (y) = 0.11004 0.43244
# Poissons Ratio (z) = -0.00487 0.33929
#
# Static dielectric constant tensor:
#      x y z
#    x 1.987940 0.000000 0.000000 
#    y 0.000000 2.014350 0.000000 
#    z 0.000000 0.000000 2.009180 
# 
# From -- ./inp_files/2150.got.cif
#   From: 2010.05.17/outbox.cif.g08.bks.cpg/sg62_2_cif.got.tgz:2150.got - 2010.06.03 15:25:27.
