data_PCOD9466019
_publ_section_title
;
Structure prediction by ZEFSAII (Michael W. Deem and Ramdas Pophale) SiO2 
 PCOD9466019
Probable space group: P N M A
;
_chemical_formula_sum "Si O2"
_cell_formula_units_Z 64
_cell_length_a 9.501281
_cell_length_b 21.805679
_cell_length_c 16.415142
_cell_angle_alpha 90.000000
_cell_angle_beta 90.000000
_cell_angle_gamma 90.000000
_cell_volume 3400.920039
_symmetry_space_group_name_H-M "P N M A"
_symmetry_group_IT_number 62
_symmetry_cell_setting 'orthorhombic'
loop_
_space_group_symop_operation_xyz
x,y,z
1/2-x,-y,1/2+z
1/2+x,1/2-y,1/2-z
-x,1/2+y,-z
-x,-y,-z
1/2+x,y,1/2-z
1/2-x,1/2+y,1/2+z
x,1/2-y,z
loop_
_atom_site_type_symbol
_atom_site_label
_atom_site_fract_x
_atom_site_fract_y
_atom_site_fract_z
Si Si1 0.398793 0.616410 0.025439
Si Si2 0.250649 0.481474 0.415831
Si Si3 0.377036 0.580429 0.211182
Si Si4 0.037268 0.078252 0.093924
Si Si5 0.128674 0.009081 0.249992
Si Si6 0.084356 0.177974 0.857341
Si Si7 0.714543 0.612446 0.028172
Si Si8 0.119464 0.820439 0.996714
O O1 0.397825 0.609488 0.122685
O O2 0.558660 0.627074 0.998093
O O3 0.335664 0.554776 0.984317
O O4 0.284866 0.667209 0.001312
O O5 0.417529 0.472521 0.428479
O O6 0.205938 0.459401 0.326402
O O7 0.207012 0.552173 0.415530
O O8 0.487621 0.525559 0.223413
O O9 0.228158 0.545563 0.216650
O O10 0.399445 0.632070 0.281089
O O11 0.947824 0.139334 0.075030
O O12 0.090414 0.058465 0.181820
O O13 0.175647 0.089021 0.039592
O O14 0.074951 0.250000 0.834580
O O15 0.216073 0.165687 0.917845
O O16 0.952053 0.161022 0.916298
O O17 0.084993 0.750000 0.985369
#
# Coordination Sequence:
#
# PCOD9466019 Si02
#       8
#     8   8   8   8   8   8   8   8
#     4  11  23  34  57  88 120 157 194 252 304 352
#     4  11  21  37  55  84 123 158 195 237 305 368
#     4  12  22  37  54  86 125 158 200 246 301 363
#     4  10  22  37  61  86 115 163 199 246 303 369
#     4  12  22  36  58  87 122 155 195 249 306 360
#     4  10  21  39  59  81 115 166 209 243 289 361
#     4  11  20  36  56  85 119 155 200 248 297 353
#     4   9  21  42  63  83 116 161 211 250 299 366
#
# _framework density 18.818435999999998
#
# number of rings (size 3 to 8) (size 9 to 14) (size 15 to 20)
#    0.000    1.250    3.750    2.250    1.750    3.000 
#    0.000    3.125    0.000    3.000    0.000    0.000 
#    0.000    0.000    0.000    0.000    0.000    0.000 
#
# Total GULP energy -357048.745060 kJ/mol
# GULP energy per Si atom -5578.886642 kJ/mol
# Density = 1.877560 g / cm^3
# Si number density = 18.818436 Si / 1000 Ang^3
#
#
#
# Elastic Constant Matrix: (Units=GPa)
#
#
# Indices 1 2 3 4 5 6 
#
# 1 123.8866 7.6127 32.4790 0.0000 0.0000 0.0000
# 2 7.6127 58.8533 39.7498 0.0000 0.0000 0.0000
# 3 32.4790 39.7498 88.7531 0.0000 0.0000 0.0000
# 4 0.0000 0.0000 0.0000 22.1042 0.0000 0.0000
# 5 0.0000 0.0000 0.0000 0.0000 25.3787 0.0000
# 6 0.0000 0.0000 0.0000 0.0000 0.0000 9.1024
#
#
#
# Elastic Compliance Matrix: (Units=1/GPa)
#
#
# Indices 1 2 3 4 5 6 
#
# 1 0.009023 0.001524 -0.003984 0.000000 0.000000 0.000000
# 2 0.001524 0.024618 -0.011583 0.000000 0.000000 0.000000
# 3 -0.003984 -0.011583 0.017913 0.000000 0.000000 0.000000
# 4 0.000000 0.000000 0.000000 0.045240 0.000000 0.000000
# 5 0.000000 0.000000 0.000000 0.000000 0.039403 0.000000
# 6 0.000000 0.000000 0.000000 0.000000 0.000000 0.109861
#
#
# Mechanical properties :
#
#
# Convention : Reuss Voigt Hill
#
# Bulk Modulus (GPa) = 42.61438 47.90847 45.26143
# Shear Modulus (GPa) = 17.73257 24.09382 20.91320
#
# Velocity S-wave (km/s) = 3.07302 3.58205 3.33725
# Velocity P-wave (km/s) = 5.94015 6.52853 6.24128
#
# Compressibility (1/GPa) = 0.02346625
#
# Stress axis : x y z
#
# Youngs Moduli (GPa) = 110.82989 40.62136 55.82522
#
# Poissons Ratio (x) = -0.06191 0.22243
# Poissons Ratio (y) = -0.16890 0.64663
# Poissons Ratio (z) = 0.44159 0.47052
#
# Static dielectric constant tensor:
#      x y z
#    x 1.702340 0.000000 0.000000 
#    y 0.000000 1.636560 0.000000 
#    z 0.000000 0.000000 1.671730 
# 
# From -- ./inp_files/17352.got.cif
#   From: 2010.05.17/outbox.cif.g08.bks.cpg/sg62_9_cif.got.tgz:17352.got - 2010.06.03 15:25:27.
