data_PCOD9466338
_publ_section_title
;
Structure prediction by ZEFSAII (Michael W. Deem and Ramdas Pophale) SiO2 
 PCOD9466338
Probable space group: P N M A
;
_chemical_formula_sum "Si O2"
_cell_formula_units_Z 56
_cell_length_a 18.062030
_cell_length_b 8.651372
_cell_length_c 17.717671
_cell_angle_alpha 90.000000
_cell_angle_beta 90.000000
_cell_angle_gamma 90.000000
_cell_volume 2768.587023
_symmetry_space_group_name_H-M "P N M A"
_symmetry_group_IT_number 62
_symmetry_cell_setting 'orthorhombic'
loop_
_space_group_symop_operation_xyz
x,y,z
1/2-x,-y,1/2+z
1/2+x,1/2-y,1/2-z
-x,1/2+y,-z
-x,-y,-z
1/2+x,y,1/2-z
1/2-x,1/2+y,1/2+z
x,1/2-y,z
loop_
_atom_site_type_symbol
_atom_site_label
_atom_site_fract_x
_atom_site_fract_y
_atom_site_fract_z
Si Si1 0.081243 0.566848 0.781621
Si Si2 0.344447 0.935528 0.421329
Si Si3 0.163287 0.563641 0.088559
Si Si4 0.919162 0.434802 0.483976
Si Si5 0.423060 0.063141 0.736589
Si Si6 0.182605 0.563879 0.370709
Si Si7 0.824444 0.934343 0.348642
O O1 0.080168 0.750000 0.783180
O O2 0.093751 0.500010 0.865180
O O3 0.148139 0.508372 0.728925
O O4 0.003864 0.504503 0.748684
O O5 0.345607 0.750000 0.419374
O O6 0.265082 0.992794 0.388389
O O7 0.350787 0.990500 0.507299
O O8 0.163899 0.750000 0.080695
O O9 0.103897 0.522272 0.152598
O O10 0.243711 0.516853 0.121510
O O11 0.921469 0.250000 0.472267
O O12 0.867699 0.466803 0.556338
O O13 0.882835 0.515983 0.412163
O O14 0.000000 0.500000 0.500000
O O15 0.427264 0.250000 0.741861
O O16 0.361323 0.008882 0.796821
O O17 0.188786 0.750000 0.362555
O O18 0.823198 0.750000 0.338823
#
# Coordination Sequence:
#
# PCOD9466338 Si02
#       7
#     8   8   8   8   8   8   8
#     4  12  26  42  61  91 126 161 208 261 312 372
#     4  11  22  41  67  92 122 164 208 255 313 371
#     4  10  22  40  65  95 126 161 207 258 308 368
#     4  11  21  35  57  91 128 166 207 253 304 364
#     4  10  21  41  65  89 121 163 208 256 312 370
#     4   9  19  37  62  89 120 158 204 250 300 364
#     4  11  22  40  64  91 125 164 205 253 313 376
#
# _framework density 20.226924
#
# number of rings (size 3 to 8) (size 9 to 14) (size 15 to 20)
#    0.000    1.429    1.429    4.286    0.000    5.143 
#    0.000    3.571    0.000    0.000    0.000    0.000 
#    0.000    0.000    0.000    0.000    0.000    0.000 
#
# Total GULP energy -313140.703309 kJ/mol
# GULP energy per Si atom -5591.798273 kJ/mol
# Density = 2.018089 g / cm^3
# Si number density = 20.226924 Si / 1000 Ang^3
#
#
#
# Elastic Constant Matrix: (Units=GPa)
#
#
# Indices 1 2 3 4 5 6 
#
# 1 15.6942 2.2406 -8.9059 0.0000 0.0000 0.0000
# 2 2.2406 42.3802 26.7329 0.0000 0.0000 0.0000
# 3 -8.9059 26.7329 104.5616 0.0000 0.0000 0.0000
# 4 0.0000 0.0000 0.0000 34.1018 0.0000 0.0000
# 5 0.0000 0.0000 0.0000 0.0000 34.3042 0.0000
# 6 0.0000 0.0000 0.0000 0.0000 0.0000 17.3677
#
#
#
# Elastic Compliance Matrix: (Units=1/GPa)
#
#
# Indices 1 2 3 4 5 6 
#
# 1 0.069631 -0.008849 0.008193 0.000000 0.000000 0.000000
# 2 -0.008849 0.029258 -0.008234 0.000000 0.000000 0.000000
# 3 0.008193 -0.008234 0.012367 0.000000 0.000000 0.000000
# 4 0.000000 0.000000 0.000000 0.029324 0.000000 0.000000
# 5 0.000000 0.000000 0.000000 0.000000 0.029151 0.000000
# 6 0.000000 0.000000 0.000000 0.000000 0.000000 0.057578
#
#
# Mechanical properties :
#
#
# Convention : Reuss Voigt Hill
#
# Bulk Modulus (GPa) = 10.69809 22.53013 16.61411
# Shear Modulus (GPa) = 18.09977 26.65928 22.37953
#
# Velocity S-wave (km/s) = 2.99463 3.63438 3.32990
# Velocity P-wave (km/s) = 4.15422 5.36419 4.79750
#
# Compressibility (1/GPa) = 0.09347460
#
# Stress axis : x y z
#
# Youngs Moduli (GPa) = 14.36150 34.17916 80.86222
#
# Poissons Ratio (x) = 0.30246 -0.66252
# Poissons Ratio (y) = 0.12709 0.66581
# Poissons Ratio (z) = -0.11767 0.28143
#
# Static dielectric constant tensor:
#      x y z
#    x 1.700960 0.000000 0.000000 
#    y 0.000000 1.685330 0.000000 
#    z 0.000000 0.000000 1.677890 
# 
# From -- ./inp_files/20412.got.cif
#   From: 2010.05.17/outbox.cif.g08.bks.cpg/sg62_11_cif.got.tgz:20412.got - 2010.06.03 15:25:27.
