data_PCOD9466083
_publ_section_title
;
Structure prediction by ZEFSAII (Michael W. Deem and Ramdas Pophale) SiO2 
 PCOD9466083
Probable space group: P N M A
;
_chemical_formula_sum "Si O2"
_cell_formula_units_Z 48
_cell_length_a 23.745566
_cell_length_b 13.917788
_cell_length_c 7.534862
_cell_angle_alpha 90.000000
_cell_angle_beta 90.000000
_cell_angle_gamma 90.000000
_cell_volume 2490.164546
_symmetry_space_group_name_H-M "P N M A"
_symmetry_group_IT_number 62
_symmetry_cell_setting 'orthorhombic'
loop_
_space_group_symop_operation_xyz
x,y,z
1/2-x,-y,1/2+z
1/2+x,1/2-y,1/2-z
-x,1/2+y,-z
-x,-y,-z
1/2+x,y,1/2-z
1/2-x,1/2+y,1/2+z
x,1/2-y,z
loop_
_atom_site_type_symbol
_atom_site_label
_atom_site_fract_x
_atom_site_fract_y
_atom_site_fract_z
Si Si1 0.865327 0.862030 0.400037
Si Si2 0.578823 0.641762 0.285017
Si Si3 0.698591 0.015096 0.622336
Si Si4 0.388736 0.358379 0.306914
Si Si5 0.328363 0.997801 0.793552
Si Si6 0.526591 0.023557 0.812011
O O1 0.860850 0.750000 0.420451
O O2 0.822769 0.900496 0.249959
O O3 0.926133 0.895368 0.331952
O O4 0.854054 0.913229 0.587848
O O5 0.565619 0.750000 0.218538
O O6 0.601372 0.651496 0.483590
O O7 0.629190 0.587804 0.181302
O O8 0.525186 0.570497 0.294220
O O9 0.765669 0.012996 0.632560
O O10 0.669043 0.919595 0.706570
O O11 0.677716 0.022904 0.417906
O O12 0.387572 0.250000 0.230785
O O13 0.439707 0.427703 0.245184
O O14 0.500000 0.000000 0.000000
#
# Coordination Sequence:
#
# PCOD9466083 Si02
#       6
#     8   8   8   8   8   8
#     4  11  24  41  61  91 126 164 206 253 308 365
#     4  10  21  39  62  88 118 159 208 251 306 369
#     4  10  22  40  65  88 129 159 204 258 309 364
#     4   9  21  39  62  89 117 159 204 249 307 369
#     4  11  21  41  63  91 125 164 202 259 309 362
#     4  11  21  39  60  87 124 159 199 255 303 358
#
# _framework density 19.275835000000001
#
# number of rings (size 3 to 8) (size 9 to 14) (size 15 to 20)
#    0.000    1.667    3.333    1.000    0.000    3.333 
#    0.000    0.000    0.000    0.000    0.000    0.000 
#    0.000    0.000    0.000    0.000    0.000    0.000 
#
# Total GULP energy -267673.027920 kJ/mol
# GULP energy per Si atom -5576.521415 kJ/mol
# Density = 1.923196 g / cm^3
# Si number density = 19.275835 Si / 1000 Ang^3
#
#
#
# Elastic Constant Matrix: (Units=GPa)
#
#
# Indices 1 2 3 4 5 6 
#
# 1 117.4645 50.3544 -10.9296 0.0000 0.0000 0.0000
# 2 50.3544 146.3794 23.9645 0.0000 0.0000 0.0000
# 3 -10.9296 23.9645 38.1242 0.0000 0.0000 0.0000
# 4 0.0000 0.0000 0.0000 29.6233 0.0000 0.0000
# 5 0.0000 0.0000 0.0000 0.0000 28.9784 0.0000
# 6 0.0000 0.0000 0.0000 0.0000 0.0000 4.9865
#
#
#
# Elastic Compliance Matrix: (Units=1/GPa)
#
#
# Indices 1 2 3 4 5 6 
#
# 1 0.011186 -0.004875 0.006271 0.000000 0.000000 0.000000
# 2 -0.004875 0.009740 -0.007520 0.000000 0.000000 0.000000
# 3 0.006271 -0.007520 0.032755 0.000000 0.000000 0.000000
# 4 0.000000 0.000000 0.000000 0.033757 0.000000 0.000000
# 5 0.000000 0.000000 0.000000 0.000000 0.034508 0.000000
# 6 0.000000 0.000000 0.000000 0.000000 0.000000 0.200542
#
#
# Mechanical properties :
#
#
# Convention : Reuss Voigt Hill
#
# Bulk Modulus (GPa) = 24.13470 47.63853 35.88662
# Shear Modulus (GPa) = 14.34529 28.62288 21.48408
#
# Velocity S-wave (km/s) = 2.73098 3.85763 3.34213
# Velocity P-wave (km/s) = 4.74260 6.67904 5.79231
#
# Compressibility (1/GPa) = 0.04143411
#
# Stress axis : x y z
#
# Youngs Moduli (GPa) = 89.39382 102.67370 30.52995
#
# Poissons Ratio (x) = 0.50052 -0.19146
# Poissons Ratio (y) = 0.43578 0.22958
# Poissons Ratio (z) = -0.56061 0.77208
#
# Static dielectric constant tensor:
#      x y z
#    x 1.628170 0.000000 0.000000 
#    y 0.000000 1.713530 0.000000 
#    z 0.000000 0.000000 1.682980 
# 
# From -- ./inp_files/9319.got.cif
#   From: 2010.05.17/outbox.cif.g08.bks.cpg/sg62_5_cif.got.tgz:9319.got - 2010.06.03 15:25:27.
