data_PCOD9466506
_publ_section_title
;
Structure prediction by ZEFSAII (Michael W. Deem and Ramdas Pophale) SiO2 
 PCOD9466506
Probable space group: P N M A
;
_chemical_formula_sum "Si O2"
_cell_formula_units_Z 32
_cell_length_a 4.740142
_cell_length_b 14.800206
_cell_length_c 19.566621
_cell_angle_alpha 90.000000
_cell_angle_beta 90.000000
_cell_angle_gamma 90.000000
_cell_volume 1372.697824
_symmetry_space_group_name_H-M "P N M A"
_symmetry_group_IT_number 62
_symmetry_cell_setting 'orthorhombic'
loop_
_space_group_symop_operation_xyz
x,y,z
1/2-x,-y,1/2+z
1/2+x,1/2-y,1/2-z
-x,1/2+y,-z
-x,-y,-z
1/2+x,y,1/2-z
1/2-x,1/2+y,1/2+z
x,1/2-y,z
loop_
_atom_site_type_symbol
_atom_site_label
_atom_site_fract_x
_atom_site_fract_y
_atom_site_fract_z
Si Si1 0.042460 0.354014 0.933033
Si Si2 0.472599 0.536605 0.112916
Si Si3 0.419591 0.347400 0.068341
Si Si4 0.672211 0.093249 0.295133
O O1 0.984451 0.250000 0.916653
O O2 0.261034 0.399186 0.879843
O O3 0.756600 0.410523 0.932104
O O4 0.203710 0.357740 0.005528
O O5 0.294887 0.503166 0.178580
O O6 0.422354 0.556960 0.922100
O O7 0.568626 0.250000 0.059665
O O8 0.249400 0.346417 0.139925
O O9 0.852521 0.108342 0.226469
#
# Coordination Sequence:
#
# PCOD9466506 Si02
#       4
#     8   8   8   8
#     4  11  21  39  62  92 117 150 196 246 300 349
#     4  10  22  38  62  84 126 152 192 244 296 338
#     4   9  22  37  62  92 122 153 192 237 296 360
#     4  10  22  38  59  84 119 159 197 233 283 349
#
# _framework density 23.31176
#
# number of rings (size 3 to 8) (size 9 to 14) (size 15 to 20)
#    1.500    0.500    0.000    3.750    0.000    3.000 
#    0.000    8.750    0.000   15.000    0.000    0.000 
#    0.000    0.000    0.000    0.000    0.000    0.000 
#
# Total GULP energy -178494.502497 kJ/mol
# GULP energy per Si atom -5577.953203 kJ/mol
# Density = 2.325870 g / cm^3
# Si number density = 23.311760 Si / 1000 Ang^3
#
#
#
# Elastic Constant Matrix: (Units=GPa)
#
#
# Indices 1 2 3 4 5 6 
#
# 1 65.9552 7.6077 -0.4650 0.0000 0.0000 0.0000
# 2 7.6077 131.8897 1.7765 0.0000 0.0000 0.0000
# 3 -0.4650 1.7765 15.8295 0.0000 0.0000 0.0000
# 4 0.0000 0.0000 0.0000 9.6935 0.0000 0.0000
# 5 0.0000 0.0000 0.0000 0.0000 31.4372 0.0000
# 6 0.0000 0.0000 0.0000 0.0000 0.0000 10.2712
#
#
#
# Elastic Compliance Matrix: (Units=1/GPa)
#
#
# Indices 1 2 3 4 5 6 
#
# 1 0.015268 -0.000888 0.000548 0.000000 0.000000 0.000000
# 2 -0.000888 0.007645 -0.000884 0.000000 0.000000 0.000000
# 3 0.000548 -0.000884 0.063289 0.000000 0.000000 0.000000
# 4 0.000000 0.000000 0.000000 0.103162 0.000000 0.000000
# 5 0.000000 0.000000 0.000000 0.000000 0.031809 0.000000
# 6 0.000000 0.000000 0.000000 0.000000 0.000000 0.097359
#
#
# Mechanical properties :
#
#
# Convention : Reuss Voigt Hill
#
# Bulk Modulus (GPa) = 11.93972 25.72364 18.83168
# Shear Modulus (GPa) = 14.33080 23.93072 19.13076
#
# Velocity S-wave (km/s) = 2.48210 3.20746 2.86780
# Velocity P-wave (km/s) = 3.65339 4.97751 4.36594
#
# Compressibility (1/GPa) = 0.08375404
#
# Stress axis : x y z
#
# Youngs Moduli (GPa) = 65.49596 130.80049 15.80062
#
# Poissons Ratio (x) = 0.11616 -0.00866
# Poissons Ratio (y) = 0.05817 0.01397
# Poissons Ratio (z) = -0.03591 0.11564
#
# Static dielectric constant tensor:
#      x y z
#    x 1.841890 0.000000 0.000000 
#    y 0.000000 1.919230 0.000000 
#    z 0.000000 0.000000 1.904260 
# 
# From -- ./inp_files/16080.got.cif
#   From: 2010.05.17/outbox.cif.g08.bks.cpg/sg62_9_cif.got.tgz:16080.got - 2010.06.03 15:25:27.
