data_PCOD9466952
_publ_section_title
;
Structure prediction by ZEFSAII (Michael W. Deem and Ramdas Pophale) SiO2 
 PCOD9466952
Probable space group: P N M A
;
_chemical_formula_sum "Si O2"
_cell_formula_units_Z 56
_cell_length_a 10.301385
_cell_length_b 14.360919
_cell_length_c 16.684483
_cell_angle_alpha 90.000000
_cell_angle_beta 90.000000
_cell_angle_gamma 90.000000
_cell_volume 2468.258294
_symmetry_space_group_name_H-M "P N M A"
_symmetry_group_IT_number 62
_symmetry_cell_setting 'orthorhombic'
loop_
_space_group_symop_operation_xyz
x,y,z
1/2-x,-y,1/2+z
1/2+x,1/2-y,1/2-z
-x,1/2+y,-z
-x,-y,-z
1/2+x,y,1/2-z
1/2-x,1/2+y,1/2+z
x,1/2-y,z
loop_
_atom_site_type_symbol
_atom_site_label
_atom_site_fract_x
_atom_site_fract_y
_atom_site_fract_z
Si Si1 0.869784 0.545108 0.080540
Si Si2 0.251596 0.852697 0.890562
Si Si3 0.645861 0.491145 0.396294
Si Si4 0.586971 0.998041 0.834441
Si Si5 0.052633 0.357688 0.239278
Si Si6 0.375391 0.144315 0.854192
Si Si7 0.990302 0.147061 0.467501
O O1 0.844369 0.436863 0.099707
O O2 0.769155 0.603324 0.134203
O O3 0.021858 0.559374 0.096546
O O4 0.837360 0.551002 0.985810
O O5 0.193569 0.750000 0.889875
O O6 0.344756 0.863886 0.813159
O O7 0.353961 0.858028 0.964229
O O8 0.614026 0.405545 0.337559
O O9 0.944573 0.439963 0.415483
O O10 0.771386 0.536878 0.354027
O O11 0.475814 0.072869 0.813317
O O12 0.571308 0.917945 0.767765
O O13 0.022945 0.250000 0.228472
O O14 0.375082 0.250000 0.823347
O O15 0.433130 0.145449 0.944577
O O16 0.956921 0.250000 0.431573
#
# Coordination Sequence:
#
# PCOD9466952 Si02
#       7
#     8   8   8   8   8   8   8
#     4  11  22  43  60  96 142 184 219 272 344 406
#     4   9  18  36  64  96 131 173 219 274 335 397
#     4  11  26  38  63  94 140 184 217 269 347 419
#     4  11  20  39  63  93 129 171 226 281 334 403
#     4  10  23  40  66 104 139 174 222 283 346 405
#     4  11  21  36  66  95 122 169 231 281 323 391
#     4   9  16  29  57  92 121 160 214 274 326 384
#
# _framework density 22.688063
#
# number of rings (size 3 to 8) (size 9 to 14) (size 15 to 20)
#    0.000    1.714    4.286    2.571    2.000    2.286 
#    0.000    2.857    0.000    4.286    0.000    0.000 
#    0.000    0.000    0.000    0.000    0.000    0.000 
#
# Total GULP energy -312861.903109 kJ/mol
# GULP energy per Si atom -5586.819698 kJ/mol
# Density = 2.263642 g / cm^3
# Si number density = 22.688063 Si / 1000 Ang^3
#
#
#
# Elastic Constant Matrix: (Units=GPa)
#
#
# Indices 1 2 3 4 5 6 
#
# 1 115.0444 26.4651 2.2514 0.0000 0.0000 0.0000
# 2 26.4651 100.8464 10.6437 0.0000 0.0000 0.0000
# 3 2.2514 10.6437 60.7170 0.0000 0.0000 0.0000
# 4 0.0000 0.0000 0.0000 16.8280 0.0000 0.0000
# 5 0.0000 0.0000 0.0000 0.0000 31.6239 0.0000
# 6 0.0000 0.0000 0.0000 0.0000 0.0000 5.2452
#
#
#
# Elastic Compliance Matrix: (Units=1/GPa)
#
#
# Indices 1 2 3 4 5 6 
#
# 1 0.009251 -0.002437 0.000084 0.000000 0.000000 0.000000
# 2 -0.002437 0.010745 -0.001793 0.000000 0.000000 0.000000
# 3 0.000084 -0.001793 0.016781 0.000000 0.000000 0.000000
# 4 0.000000 0.000000 0.000000 0.059425 0.000000 0.000000
# 5 0.000000 0.000000 0.000000 0.000000 0.031622 0.000000
# 6 0.000000 0.000000 0.000000 0.000000 0.000000 0.190652
#
#
# Mechanical properties :
#
#
# Convention : Reuss Voigt Hill
#
# Bulk Modulus (GPa) = 35.10556 39.48092 37.29324
# Shear Modulus (GPa) = 14.86935 26.55591 20.71263
#
# Velocity S-wave (km/s) = 2.56282 3.42494 3.02475
# Velocity P-wave (km/s) = 4.92586 5.75149 5.35462
#
# Compressibility (1/GPa) = 0.02848552
#
# Stress axis : x y z
#
# Youngs Moduli (GPa) = 108.09426 93.06837 59.59094
#
# Poissons Ratio (x) = 0.22678 -0.00501
# Poissons Ratio (y) = 0.26339 0.10686
# Poissons Ratio (z) = -0.00909 0.16689
#
# Static dielectric constant tensor:
#      x y z
#    x 1.965460 0.000000 0.000000 
#    y 0.000000 1.838830 0.000000 
#    z 0.000000 0.000000 1.892570 
# 
# From -- ./inp_files/18080.got.cif
#   From: 2010.05.17/outbox.cif.g08.bks.cpg/sg62_10_cif.got.tgz:18080.got - 2010.06.03 15:25:27.
