data_PCOD9466133
_publ_section_title
;
Structure prediction by ZEFSAII (Michael W. Deem and Ramdas Pophale) SiO2 
 PCOD9466133
Probable space group: P N M A
;
_chemical_formula_sum "Si O2"
_cell_formula_units_Z 32
_cell_length_a 9.013517
_cell_length_b 5.400024
_cell_length_c 28.996002
_cell_angle_alpha 90.000000
_cell_angle_beta 90.000000
_cell_angle_gamma 90.000000
_cell_volume 1411.328440
_symmetry_space_group_name_H-M "P N M A"
_symmetry_group_IT_number 62
_symmetry_cell_setting 'orthorhombic'
loop_
_space_group_symop_operation_xyz
x,y,z
1/2-x,-y,1/2+z
1/2+x,1/2-y,1/2-z
-x,1/2+y,-z
-x,-y,-z
1/2+x,y,1/2-z
1/2-x,1/2+y,1/2+z
x,1/2-y,z
loop_
_atom_site_type_symbol
_atom_site_label
_atom_site_fract_x
_atom_site_fract_y
_atom_site_fract_z
Si Si1 0.940854 0.750000 0.629702
Si Si2 0.564549 0.750000 0.975512
Si Si3 0.612934 0.250000 0.380253
Si Si4 0.177573 0.750000 0.149828
Si Si5 0.929502 0.750000 0.979475
Si Si6 0.476151 0.750000 0.185570
Si Si7 0.841311 0.250000 0.181881
Si Si8 0.089971 0.250000 0.783811
O O1 0.004024 0.750000 0.577737
O O2 0.984294 0.498576 0.657519
O O3 0.762813 0.750000 0.637081
O O4 0.746915 0.750000 0.979664
O O5 0.500000 0.500000 0.000000
O O6 0.702009 0.503650 0.379351
O O7 0.521457 0.250000 0.426375
O O8 0.511527 0.250000 0.334967
O O9 0.297366 0.750000 0.189477
O O10 0.012999 0.750000 0.170106
O O11 0.000000 0.500000 0.000000
O O12 0.514663 0.750000 0.239280
O O13 0.819432 0.496762 0.211457
#
# Coordination Sequence:
#
# PCOD9466133 Si02
#       8
#     4   4   4   4   4   4   4   4
#     4  12  27  44  71  99 141 186 232 284 366 425
#     4  12  28  50  75 108 153 190 245 309 381 436
#     4  10  22  43  66  91 129 169 227 274 336 403
#     4  10  21  39  65  86 127 170 217 271 335 389
#     4  12  26  44  75 106 137 180 244 294 365 440
#     4  12  24  41  67  97 135 177 228 279 345 418
#     4  10  23  42  67  95 135 174 225 276 342 412
#     4  10  23  41  62 100 127 176 218 285 324 409
#
# _framework density 22.673673999999998
#
# number of rings (size 3 to 8) (size 9 to 14) (size 15 to 20)
#    0.000    1.000    0.000    6.000    7.000    0.000 
#    0.000    0.000    0.000    0.000    0.000    0.000 
#    0.000    0.000    0.000    0.000    0.000    0.000 
#
# Total GULP energy -178455.500494 kJ/mol
# GULP energy per Si atom -5576.734390 kJ/mol
# Density = 2.262207 g / cm^3
# Si number density = 22.673674 Si / 1000 Ang^3
#
#
#
# Elastic Constant Matrix: (Units=GPa)
#
#
# Indices 1 2 3 4 5 6 
#
# 1 90.8618 50.0295 10.2761 0.0000 0.0000 0.0000
# 2 50.0295 254.3611 75.7021 0.0000 0.0000 0.0000
# 3 10.2761 75.7021 116.8156 0.0000 0.0000 0.0000
# 4 0.0000 0.0000 0.0000 35.2169 0.0000 0.0000
# 5 0.0000 0.0000 0.0000 0.0000 34.4640 0.0000
# 6 0.0000 0.0000 0.0000 0.0000 0.0000 23.3028
#
#
#
# Elastic Compliance Matrix: (Units=1/GPa)
#
#
# Indices 1 2 3 4 5 6 
#
# 1 0.012377 -0.002615 0.000606 0.000000 0.000000 0.000000
# 2 -0.002615 0.005423 -0.003284 0.000000 0.000000 0.000000
# 3 0.000606 -0.003284 0.010636 0.000000 0.000000 0.000000
# 4 0.000000 0.000000 0.000000 0.028395 0.000000 0.000000
# 5 0.000000 0.000000 0.000000 0.000000 0.029016 0.000000
# 6 0.000000 0.000000 0.000000 0.000000 0.000000 0.042913
#
#
# Mechanical properties :
#
#
# Convention : Reuss Voigt Hill
#
# Bulk Modulus (GPa) = 56.02607 81.56154 68.79381
# Shear Modulus (GPa) = 34.41229 40.33213 37.37221
#
# Velocity S-wave (km/s) = 3.90002 4.22217 4.06429
# Velocity P-wave (km/s) = 6.71145 7.73427 7.24094
#
# Compressibility (1/GPa) = 0.01784883
#
# Stress axis : x y z
#
# Youngs Moduli (GPa) = 80.79591 184.39314 94.02271
#
# Poissons Ratio (x) = 0.48212 -0.05694
# Poissons Ratio (y) = 0.21125 0.30882
# Poissons Ratio (z) = -0.04893 0.60564
#
# Static dielectric constant tensor:
#      x y z
#    x 1.926710 0.000000 0.000000 
#    y 0.000000 1.861740 0.000000 
#    z 0.000000 0.000000 1.829570 
# 
# From -- ./inp_files/30619.got.cif
#   From: 2010.05.17/outbox.cif.g08.bks.cpg/sg62_16_cif.got.tgz:30619.got - 2010.06.03 15:25:27.
