data_PCOD9466243
_publ_section_title
;
Structure prediction by ZEFSAII (Michael W. Deem and Ramdas Pophale) SiO2 
 PCOD9466243
Probable space group: P N M A
;
_chemical_formula_sum "Si O2"
_cell_formula_units_Z 48
_cell_length_a 22.931497
_cell_length_b 8.744642
_cell_length_c 12.101992
_cell_angle_alpha 90.000000
_cell_angle_beta 90.000000
_cell_angle_gamma 90.000000
_cell_volume 2426.785006
_symmetry_space_group_name_H-M "P N M A"
_symmetry_group_IT_number 62
_symmetry_cell_setting 'orthorhombic'
loop_
_space_group_symop_operation_xyz
x,y,z
1/2-x,-y,1/2+z
1/2+x,1/2-y,1/2-z
-x,1/2+y,-z
-x,-y,-z
1/2+x,y,1/2-z
1/2-x,1/2+y,1/2+z
x,1/2-y,z
loop_
_atom_site_type_symbol
_atom_site_label
_atom_site_fract_x
_atom_site_fract_y
_atom_site_fract_z
Si Si1 0.234552 0.931810 0.651004
Si Si2 0.143623 0.930743 0.087160
Si Si3 0.075171 0.070437 0.279248
Si Si4 0.639236 0.566551 0.671702
Si Si5 0.131021 0.930836 0.479854
Si Si6 0.548417 0.430537 0.838635
O O1 0.247586 0.750000 0.651543
O O2 0.198947 0.968985 0.762622
O O3 0.189162 0.961809 0.550832
O O4 0.293045 0.024704 0.633424
O O5 0.133754 0.750000 0.099560
O O6 0.096076 0.020127 0.158634
O O7 0.142032 0.968679 0.957309
O O8 0.064534 0.250000 0.284442
O O9 0.125053 0.022411 0.366633
O O10 0.017104 0.982289 0.315638
O O11 0.629606 0.750000 0.685852
O O12 0.587905 0.477780 0.733804
O O13 0.127908 0.750000 0.458424
O O14 0.077549 0.981425 0.558533
O O15 0.551518 0.250000 0.858933
#
# Coordination Sequence:
#
# PCOD9466243 Si02
#       6
#     8   8   8   8   8   8
#     4   9  20  39  62  88 119 156 196 247 302 358
#     4  11  24  40  60  89 122 160 204 251 300 357
#     4  12  25  40  60  88 124 162 203 250 303 358
#     4   9  21  42  63  85 119 161 202 247 301 359
#     4  10  21  40  64  92 124 159 201 250 302 355
#     4  11  22  39  64  92 121 157 202 250 303 361
#
# _framework density 19.779254999999999
#
# number of rings (size 3 to 8) (size 9 to 14) (size 15 to 20)
#    0.000    1.667    0.000    5.500    2.333    5.333 
#    0.000    0.000    0.000    0.000    0.000    0.000 
#    0.000    0.000    0.000    0.000    0.000    0.000 
#
# Total GULP energy -268436.626286 kJ/mol
# GULP energy per Si atom -5592.429714 kJ/mol
# Density = 1.973424 g / cm^3
# Si number density = 19.779255 Si / 1000 Ang^3
#
#
#
# Elastic Constant Matrix: (Units=GPa)
#
#
# Indices 1 2 3 4 5 6 
#
# 1 33.4107 2.0754 -5.0315 0.0000 0.0000 0.0000
# 2 2.0754 22.8944 2.8034 0.0000 0.0000 0.0000
# 3 -5.0315 2.8034 72.5287 0.0000 0.0000 0.0000
# 4 0.0000 0.0000 0.0000 32.9997 0.0000 0.0000
# 5 0.0000 0.0000 0.0000 0.0000 4.9666 0.0000
# 6 0.0000 0.0000 0.0000 0.0000 0.0000 35.2400
#
#
#
# Elastic Compliance Matrix: (Units=1/GPa)
#
#
# Indices 1 2 3 4 5 6 
#
# 1 0.030455 -0.003034 0.002230 0.000000 0.000000 0.000000
# 2 -0.003034 0.044189 -0.001918 0.000000 0.000000 0.000000
# 3 0.002230 -0.001918 0.014016 0.000000 0.000000 0.000000
# 4 0.000000 0.000000 0.000000 0.030303 0.000000 0.000000
# 5 0.000000 0.000000 0.000000 0.000000 0.201346 0.000000
# 6 0.000000 0.000000 0.000000 0.000000 0.000000 0.028377
#
#
# Mechanical properties :
#
#
# Convention : Reuss Voigt Hill
#
# Bulk Modulus (GPa) = 12.01698 14.28092 13.14895
# Shear Modulus (GPa) = 13.09349 23.24036 18.16692
#
# Velocity S-wave (km/s) = 2.57569 3.43153 3.03394
# Velocity P-wave (km/s) = 3.86449 4.78919 4.35147
#
# Compressibility (1/GPa) = 0.08321558
#
# Stress axis : x y z
#
# Youngs Moduli (GPa) = 32.83548 22.63018 71.34452
#
# Poissons Ratio (x) = 0.06866 -0.15910
# Poissons Ratio (y) = 0.09962 0.13687
# Poissons Ratio (z) = -0.07322 0.04341
#
# Static dielectric constant tensor:
#      x y z
#    x 1.672120 0.000000 0.000000 
#    y 0.000000 1.643040 0.000000 
#    z 0.000000 0.000000 1.700310 
# 
# From -- ./inp_files/15099.got.cif
#   From: 2010.05.17/outbox.cif.g08.bks.cpg/sg62_8_cif.got.tgz:15099.got - 2010.06.03 15:25:27.
