data_PCOD9466696
_publ_section_title
;
Structure prediction by ZEFSAII (Michael W. Deem and Ramdas Pophale) SiO2 
 PCOD9466696
Probable space group: P N M A
;
_chemical_formula_sum "Si O2"
_cell_formula_units_Z 32
_cell_length_a 9.214980
_cell_length_b 16.450241
_cell_length_c 8.478337
_cell_angle_alpha 90.000000
_cell_angle_beta 90.000000
_cell_angle_gamma 90.000000
_cell_volume 1285.219591
_symmetry_space_group_name_H-M "P N M A"
_symmetry_group_IT_number 62
_symmetry_cell_setting 'orthorhombic'
loop_
_space_group_symop_operation_xyz
x,y,z
1/2-x,-y,1/2+z
1/2+x,1/2-y,1/2-z
-x,1/2+y,-z
-x,-y,-z
1/2+x,y,1/2-z
1/2-x,1/2+y,1/2+z
x,1/2-y,z
loop_
_atom_site_type_symbol
_atom_site_label
_atom_site_fract_x
_atom_site_fract_y
_atom_site_fract_z
Si Si1 0.295492 0.250000 0.027323
Si Si2 0.620628 0.653847 0.604741
Si Si3 0.629282 0.250000 0.128554
Si Si4 0.374622 0.481256 0.125200
Si Si5 0.355120 0.905996 0.414703
O O1 0.465737 0.250000 0.068075
O O2 0.247572 0.172137 0.928355
O O3 0.197868 0.250000 0.190064
O O4 0.577373 0.750000 0.618340
O O5 0.790016 0.667903 0.566651
O O6 0.602494 0.598985 0.762091
O O7 0.513072 0.617237 0.477775
O O8 0.363533 0.554218 0.246665
O O9 0.500000 0.500000 0.000000
O O10 0.224048 0.467860 0.034050
#
# Coordination Sequence:
#
# PCOD9466696 Si02
#       5
#     4   8   4   8   8
#     4  12  22  44  81 124 170 225 289 344 414 510
#     4  10  22  47  83 122 171 227 275 338 426 513
#     4  10  22  40  85 122 172 225 281 336 428 512
#     4  12  28  49  81 126 169 219 281 361 433 505
#     4  12  25  49  84 120 170 218 286 351 421 518
#
# _framework density 24.898468000000001
#
# number of rings (size 3 to 8) (size 9 to 14) (size 15 to 20)
#    0.750    0.000    3.750    3.750    0.000    2.000 
#    2.250    0.000    8.250    0.000    0.000    0.000 
#    0.000    0.000    0.000    0.000    0.000    0.000 
#
# Total GULP energy -178976.762065 kJ/mol
# GULP energy per Si atom -5593.023815 kJ/mol
# Density = 2.484180 g / cm^3
# Si number density = 24.898468 Si / 1000 Ang^3
#
#
#
# Elastic Constant Matrix: (Units=GPa)
#
#
# Indices 1 2 3 4 5 6 
#
# 1 205.1794 105.8593 75.7485 0.0000 0.0000 0.0000
# 2 105.8593 161.7510 107.0757 0.0000 0.0000 0.0000
# 3 75.7485 107.0757 163.2249 0.0000 0.0000 0.0000
# 4 0.0000 0.0000 0.0000 44.1966 0.0000 0.0000
# 5 0.0000 0.0000 0.0000 0.0000 46.2725 0.0000
# 6 0.0000 0.0000 0.0000 0.0000 0.0000 55.3000
#
#
#
# Elastic Compliance Matrix: (Units=1/GPa)
#
#
# Indices 1 2 3 4 5 6 
#
# 1 0.007377 -0.004528 -0.000453 0.000000 0.000000 0.000000
# 2 -0.004528 0.013707 -0.006891 0.000000 0.000000 0.000000
# 3 -0.000453 -0.006891 0.010857 0.000000 0.000000 0.000000
# 4 0.000000 0.000000 0.000000 0.022626 0.000000 0.000000
# 5 0.000000 0.000000 0.000000 0.000000 0.021611 0.000000
# 6 0.000000 0.000000 0.000000 0.000000 0.000000 0.018083
#
#
# Mechanical properties :
#
#
# Convention : Reuss Voigt Hill
#
# Bulk Modulus (GPa) = 121.98337 123.05806 122.52071
# Shear Modulus (GPa) = 41.41184 45.25195 43.33189
#
# Velocity S-wave (km/s) = 4.08269 4.26779 4.17627
# Velocity P-wave (km/s) = 8.44531 8.59166 8.51880
#
# Compressibility (1/GPa) = 0.00819784
#
# Stress axis : x y z
#
# Youngs Moduli (GPa) = 135.55051 72.95405 92.10636
#
# Poissons Ratio (x) = 0.33035 0.04174
# Poissons Ratio (y) = 0.61380 0.63466
# Poissons Ratio (z) = 0.06142 0.50269
#
# Static dielectric constant tensor:
#      x y z
#    x 2.124110 0.000000 0.000000 
#    y 0.000000 2.106780 0.000000 
#    z 0.000000 0.000000 1.967100 
# 
# From -- ./inp_files/467.got.cif
#   From: 2010.05.17/outbox.cif.g08.bks.cpg/sg62_1_cif.got.tgz:467.got - 2010.06.03 15:25:27.
