data_PCOD9466258
_publ_section_title
;
Structure prediction by ZEFSAII (Michael W. Deem and Ramdas Pophale) SiO2 
 PCOD9466258
Probable space group: P N M A
;
_chemical_formula_sum "Si O2"
_cell_formula_units_Z 64
_cell_length_a 15.208357
_cell_length_b 15.431579
_cell_length_c 12.455753
_cell_angle_alpha 90.000000
_cell_angle_beta 90.000000
_cell_angle_gamma 90.000000
_cell_volume 2923.227749
_symmetry_space_group_name_H-M "P N M A"
_symmetry_group_IT_number 62
_symmetry_cell_setting 'orthorhombic'
loop_
_space_group_symop_operation_xyz
x,y,z
1/2-x,-y,1/2+z
1/2+x,1/2-y,1/2-z
-x,1/2+y,-z
-x,-y,-z
1/2+x,y,1/2-z
1/2-x,1/2+y,1/2+z
x,1/2-y,z
loop_
_atom_site_type_symbol
_atom_site_label
_atom_site_fract_x
_atom_site_fract_y
_atom_site_fract_z
Si Si1 0.928678 0.350427 0.504000
Si Si2 0.711654 0.103698 0.765028
Si Si3 0.593309 0.850065 0.238497
Si Si4 0.427974 0.855843 0.638040
Si Si5 0.094252 0.850224 0.725893
Si Si6 0.943224 0.647930 0.105539
Si Si7 0.727410 0.412635 0.206514
Si Si8 0.361347 0.850926 0.006035
O O1 0.895585 0.250000 0.509181
O O2 0.033693 0.351377 0.493442
O O3 0.907961 0.391444 0.619491
O O4 0.894302 0.390523 0.393005
O O5 0.806286 0.149432 0.775235
O O6 0.645455 0.139875 0.675023
O O7 0.663844 0.111791 0.878651
O O8 0.735987 0.007264 0.730546
O O9 0.563297 0.750000 0.223074
O O10 0.524563 0.888774 0.323844
O O11 0.425494 0.750000 0.637941
O O12 0.514747 0.885809 0.702933
O O13 0.431851 0.887237 0.514847
O O14 0.343160 0.887279 0.702883
O O15 0.069714 0.750000 0.705964
O O16 0.186082 0.853791 0.786083
O O17 0.962431 0.750000 0.090443
O O18 0.682856 0.401196 0.091524
O O19 0.333519 0.750000 0.001569
#
# Coordination Sequence:
#
# PCOD9466258 Si02
#       8
#     8   8   8   8   8   8   8   8
#     4   9  18  37  67  92 115 154 219 277 312 362
#     4  12  27  41  62  97 137 170 209 266 331 392
#     4  10  21  40  65  93 120 166 221 267 317 384
#     4  10  22  42  66  91 124 167 219 273 321 381
#     4  10  21  40  65  93 120 166 221 267 317 384
#     4  10  22  42  66  91 124 167 219 273 321 381
#     4  12  27  41  62  97 137 170 209 266 331 392
#     4  11  22  45  71  91 124 179 231 268 309 388
#
# _framework density 21.893606999999999
#
# number of rings (size 3 to 8) (size 9 to 14) (size 15 to 20)
#    0.000    1.500    2.500    2.250    5.250    1.000 
#    0.000    2.500    0.000    0.000    0.000    0.000 
#    0.000    0.000    0.000    0.000    0.000    0.000 
#
# Total GULP energy -357583.897148 kJ/mol
# GULP energy per Si atom -5587.248393 kJ/mol
# Density = 2.184378 g / cm^3
# Si number density = 21.893607 Si / 1000 Ang^3
#
#
#
# Elastic Constant Matrix: (Units=GPa)
#
#
# Indices 1 2 3 4 5 6 
#
# 1 62.6458 -24.2566 -17.7014 0.0000 0.0000 0.0000
# 2 -24.2566 32.5457 -0.6493 0.0000 0.0000 0.0000
# 3 -17.7014 -0.6493 82.4494 0.0000 0.0000 0.0000
# 4 0.0000 0.0000 0.0000 10.3732 0.0000 0.0000
# 5 0.0000 0.0000 0.0000 0.0000 51.6940 0.0000
# 6 0.0000 0.0000 0.0000 0.0000 0.0000 106.0829
#
#
#
# Elastic Compliance Matrix: (Units=1/GPa)
#
#
# Indices 1 2 3 4 5 6 
#
# 1 0.024658 0.018486 0.005439 0.000000 0.000000 0.000000
# 2 0.018486 0.044590 0.004320 0.000000 0.000000 0.000000
# 3 0.005439 0.004320 0.013330 0.000000 0.000000 0.000000
# 4 0.000000 0.000000 0.000000 0.096402 0.000000 0.000000
# 5 0.000000 0.000000 0.000000 0.000000 0.019345 0.000000
# 6 0.000000 0.000000 0.000000 0.000000 0.000000 0.009427
#
#
# Mechanical properties :
#
#
# Convention : Reuss Voigt Hill
#
# Bulk Modulus (GPa) = 7.19069 10.26959 8.73014
# Shear Modulus (GPa) = 25.30151 48.31325 36.80738
#
# Velocity S-wave (km/s) = 3.40318 4.70268 4.10468
# Velocity P-wave (km/s) = 4.32825 5.84703 5.14400
#
# Compressibility (1/GPa) = 0.13906871
#
# Stress axis : x y z
#
# Youngs Moduli (GPa) = 40.55552 22.42661 75.01606
#
# Poissons Ratio (x) = -0.41458 -0.40804
# Poissons Ratio (y) = -0.74971 -0.32407
# Poissons Ratio (z) = -0.22060 -0.09688
#
# Static dielectric constant tensor:
#      x y z
#    x 1.749920 0.000000 0.000000 
#    y 0.000000 1.850310 0.000000 
#    z 0.000000 0.000000 1.824970 
# 
# From -- ./inp_files/13621.got.cif
#   From: 2010.05.17/outbox.cif.g08.bks.cpg/sg62_7_cif.got.tgz:13621.got - 2010.06.03 15:25:27.
