data_PCOD9466045
_publ_section_title
;
Structure prediction by ZEFSAII (Michael W. Deem and Ramdas Pophale) SiO2 
 PCOD9466045
Probable space group: P N M A
;
_chemical_formula_sum "Si O2"
_cell_formula_units_Z 64
_cell_length_a 21.206272
_cell_length_b 14.182777
_cell_length_c 11.015847
_cell_angle_alpha 90.000000
_cell_angle_beta 90.000000
_cell_angle_gamma 90.000000
_cell_volume 3313.168299
_symmetry_space_group_name_H-M "P N M A"
_symmetry_group_IT_number 62
_symmetry_cell_setting 'orthorhombic'
loop_
_space_group_symop_operation_xyz
x,y,z
1/2-x,-y,1/2+z
1/2+x,1/2-y,1/2-z
-x,1/2+y,-z
-x,-y,-z
1/2+x,y,1/2-z
1/2-x,1/2+y,1/2+z
x,1/2-y,z
loop_
_atom_site_type_symbol
_atom_site_label
_atom_site_fract_x
_atom_site_fract_y
_atom_site_fract_z
Si Si1 0.266378 0.644128 0.833116
Si Si2 0.869972 0.141538 0.554841
Si Si3 0.454469 0.435076 0.581965
Si Si4 0.717005 0.139998 0.891721
Si Si5 0.387141 0.500887 0.159452
Si Si6 0.328741 0.029638 0.710391
Si Si7 0.884871 0.354603 0.141092
Si Si8 0.507904 0.355850 0.829895
O O1 0.278405 0.750000 0.788342
O O2 0.292856 0.565886 0.743862
O O3 0.191191 0.636522 0.855957
O O4 0.298758 0.633284 0.965200
O O5 0.849445 0.250000 0.535993
O O6 0.863855 0.075415 0.438159
O O7 0.836001 0.090987 0.667127
O O8 0.943183 0.143476 0.595031
O O9 0.500000 0.500000 0.500000
O O10 0.397034 0.488394 0.651182
O O11 0.417558 0.366601 0.489012
O O12 0.491243 0.381429 0.689873
O O13 0.717098 0.250000 0.857952
O O14 0.785166 0.093600 0.874566
O O15 0.668500 0.075739 0.817026
O O16 0.407715 0.439598 0.274545
O O17 0.445209 0.565609 0.119022
O O18 0.900001 0.250000 0.189316
O O19 0.534975 0.250000 0.835978
#
# Coordination Sequence:
#
# PCOD9466045 Si02
#       8
#     8   8   8   8   8   8   8   8
#     4  10  21  39  60  88 122 157 198 248 305 364
#     4  10  22  38  58  86 116 154 203 246 293 355
#     4  11  22  40  63  87 121 163 209 254 302 366
#     4  11  22  36  60  90 119 157 201 245 303 371
#     4  12  21  37  60  85 124 152 191 249 310 358
#     4  11  21  39  65  88 122 161 200 255 306 358
#     4  11  22  37  62  88 116 158 202 245 303 369
#     4  10  22  39  60  83 114 156 201 251 300 354
#
# _framework density 19.316856999999999
#
# number of rings (size 3 to 8) (size 9 to 14) (size 15 to 20)
#    0.000    1.250    5.000    1.875    0.000    1.000 
#    0.000    1.250    0.000    0.000    0.000    0.000 
#    0.000    0.000    0.000    0.000    0.000    0.000 
#
# Total GULP energy -357168.218113 kJ/mol
# GULP energy per Si atom -5580.753408 kJ/mol
# Density = 1.927289 g / cm^3
# Si number density = 19.316857 Si / 1000 Ang^3
#
#
#
# Elastic Constant Matrix: (Units=GPa)
#
#
# Indices 1 2 3 4 5 6 
#
# 1 42.2153 36.8269 -0.2626 0.0000 0.0000 0.0000
# 2 36.8269 150.8542 29.4725 0.0000 0.0000 0.0000
# 3 -0.2626 29.4725 47.6119 0.0000 0.0000 0.0000
# 4 0.0000 0.0000 0.0000 21.1570 0.0000 0.0000
# 5 0.0000 0.0000 0.0000 0.0000 21.9330 0.0000
# 6 0.0000 0.0000 0.0000 0.0000 0.0000 26.0009
#
#
#
# Elastic Compliance Matrix: (Units=1/GPa)
#
#
# Indices 1 2 3 4 5 6 
#
# 1 0.031352 -0.008745 0.005586 0.000000 0.000000 0.000000
# 2 -0.008745 0.009980 -0.006226 0.000000 0.000000 0.000000
# 3 0.005586 -0.006226 0.024888 0.000000 0.000000 0.000000
# 4 0.000000 0.000000 0.000000 0.047266 0.000000 0.000000
# 5 0.000000 0.000000 0.000000 0.000000 0.045593 0.000000
# 6 0.000000 0.000000 0.000000 0.000000 0.000000 0.038460
#
#
# Mechanical properties :
#
#
# Convention : Reuss Voigt Hill
#
# Bulk Modulus (GPa) = 21.07480 41.41722 31.24601
# Shear Modulus (GPa) = 21.54006 25.46115 23.50060
#
# Velocity S-wave (km/s) = 3.34292 3.63447 3.49174
# Velocity P-wave (km/s) = 5.08271 6.25300 5.69798
#
# Compressibility (1/GPa) = 0.04745003
#
# Stress axis : x y z
#
# Youngs Moduli (GPa) = 31.89627 100.19861 40.17998
#
# Poissons Ratio (x) = 0.87624 -0.22446
# Poissons Ratio (y) = 0.27893 0.25017
# Poissons Ratio (z) = -0.17818 0.62385
#
# Static dielectric constant tensor:
#      x y z
#    x 1.684230 0.000000 0.000000 
#    y 0.000000 1.659360 0.000000 
#    z 0.000000 0.000000 1.684010 
# 
# From -- ./inp_files/14337.got.cif
#   From: 2010.05.17/outbox.cif.g08.bks.cpg/sg62_8_cif.got.tgz:14337.got - 2010.06.03 15:25:27.
