data_PCOD9466518
_publ_section_title
;
Structure prediction by ZEFSAII (Michael W. Deem and Ramdas Pophale) SiO2 
 PCOD9466518
Probable space group: P N M A
;
_chemical_formula_sum "Si O2"
_cell_formula_units_Z 60
_cell_length_a 8.513133
_cell_length_b 24.075632
_cell_length_c 16.567913
_cell_angle_alpha 90.000000
_cell_angle_beta 90.000000
_cell_angle_gamma 90.000000
_cell_volume 3395.743829
_symmetry_space_group_name_H-M "P N M A"
_symmetry_group_IT_number 62
_symmetry_cell_setting 'orthorhombic'
loop_
_space_group_symop_operation_xyz
x,y,z
1/2-x,-y,1/2+z
1/2+x,1/2-y,1/2-z
-x,1/2+y,-z
-x,-y,-z
1/2+x,y,1/2-z
1/2-x,1/2+y,1/2+z
x,1/2-y,z
loop_
_atom_site_type_symbol
_atom_site_label
_atom_site_fract_x
_atom_site_fract_y
_atom_site_fract_z
Si Si1 0.537831 0.500636 0.366877
Si Si2 0.730844 0.467974 0.216612
Si Si3 0.099930 0.917573 0.996738
Si Si4 0.650924 0.658963 0.718473
Si Si5 0.554190 0.047854 0.060999
Si Si6 0.952995 0.813994 0.927303
Si Si7 0.144737 0.250000 0.379658
Si Si8 0.100022 0.662683 0.592022
O O1 0.672621 0.483906 0.304745
O O2 0.376798 0.503012 0.316471
O O3 0.572262 0.556275 0.415975
O O4 0.508789 0.452817 0.434122
O O5 0.785113 0.403648 0.214568
O O6 0.591239 0.473748 0.151252
O O7 0.278213 0.929122 0.970488
O O8 0.051289 0.854162 0.984974
O O9 0.494603 0.665120 0.663453
O O10 0.768349 0.701472 0.675694
O O11 0.616436 0.672074 0.811068
O O12 0.435981 0.099249 0.069848
O O13 0.500000 0.000000 0.000000
O O14 0.004611 0.750000 0.933425
O O15 0.768446 0.819461 0.942204
O O16 0.045838 0.201511 0.429150
#
# Coordination Sequence:
#
# PCOD9466518 Si02
#       8
#     8   8   8   8   8   8   4   8
#     4  10  22  38  61  83 122 153 202 248 306 362
#     4  11  22  38  56  89 110 163 196 250 303 362
#     4  10  23  42  57  86 119 166 195 256 307 363
#     4  12  23  35  53  76 121 161 202 242 284 363
#     4  11  25  39  59  84 120 163 208 260 311 359
#     4  12  24  38  56  82 117 166 205 245 306 361
#     4  12  22  38  50  80 120 160 206 242 290 346
#     4  12  25  36  54  83 116 162 212 255 287 354
#
# _framework density 17.669177999999999
#
# number of rings (size 3 to 8) (size 9 to 14) (size 15 to 20)
#    0.000    0.800    5.333    2.800   11.200    0.000 
#    0.000    0.000    0.000    0.000    0.000    0.933 
#    2.000    0.000    0.000    0.000    0.000    0.000 
#
# Total GULP energy -334399.653208 kJ/mol
# GULP energy per Si atom -5573.327553 kJ/mol
# Density = 1.762896 g / cm^3
# Si number density = 17.669178 Si / 1000 Ang^3
#
#
#
# Elastic Constant Matrix: (Units=GPa)
#
#
# Indices 1 2 3 4 5 6 
#
# 1 49.0236 34.5257 27.9790 0.0000 0.0000 0.0000
# 2 34.5257 105.9920 43.9584 0.0000 0.0000 0.0000
# 3 27.9790 43.9584 64.0488 0.0000 0.0000 0.0000
# 4 0.0000 0.0000 0.0000 -42.8632 0.0000 0.0000
# 5 0.0000 0.0000 0.0000 0.0000 26.0899 0.0000
# 6 0.0000 0.0000 0.0000 0.0000 0.0000 -8.6991
#
#
#
# Elastic Compliance Matrix: (Units=1/GPa)
#
#
# Indices 1 2 3 4 5 6 
#
# 1 0.029669 -0.005996 -0.008846 0.000000 0.000000 0.000000
# 2 -0.005996 0.014400 -0.007264 0.000000 0.000000 0.000000
# 3 -0.008846 -0.007264 0.024463 0.000000 0.000000 0.000000
# 4 0.000000 0.000000 0.000000 -0.023330 0.000000 0.000000
# 5 0.000000 0.000000 0.000000 0.000000 0.038329 0.000000
# 6 0.000000 0.000000 0.000000 0.000000 0.000000 -0.114954
#
#
# Mechanical properties :
#
#
# Convention : Reuss Voigt Hill
#
# Bulk Modulus (GPa) = 41.11618 47.99895 44.55756
# Shear Modulus (GPa) = 239.27559 2.41227 120.84393
#
# Velocity S-wave (km/s) = 11.64962 1.16970 8.27895
# Velocity P-wave (km/s) = 14.29238 5.38968 10.80094
#
# Compressibility (1/GPa) = 0.02432133
#
# Stress axis : x y z
#
# Youngs Moduli (GPa) = 33.70469 69.44206 40.87837
#
# Poissons Ratio (x) = 0.41637 0.36159
# Poissons Ratio (y) = 0.20209 0.29695
# Poissons Ratio (z) = 0.29814 0.50444
#
# Static dielectric constant tensor:
#      x y z
#    x 1.717490 0.000000 0.000000 
#    y 0.000000 1.583270 0.000000 
#    z 0.000000 0.000000 1.598970 
# 
# From -- ./inp_files/17314.got.cif
#   From: 2010.05.17/outbox.cif.g08.bks.cpg/sg62_9_cif.got.tgz:17314.got - 2010.06.03 15:25:27.
