data_PCOD9466963
_publ_section_title
;
Structure prediction by ZEFSAII (Michael W. Deem and Ramdas Pophale) SiO2 
 PCOD9466963
Probable space group: P N M A
;
_chemical_formula_sum "Si O2"
_cell_formula_units_Z 64
_cell_length_a 14.397445
_cell_length_b 8.956212
_cell_length_c 25.054264
_cell_angle_alpha 90.000000
_cell_angle_beta 90.000000
_cell_angle_gamma 90.000000
_cell_volume 3230.661399
_symmetry_space_group_name_H-M "P N M A"
_symmetry_group_IT_number 62
_symmetry_cell_setting 'orthorhombic'
loop_
_space_group_symop_operation_xyz
x,y,z
1/2-x,-y,1/2+z
1/2+x,1/2-y,1/2-z
-x,1/2+y,-z
-x,-y,-z
1/2+x,y,1/2-z
1/2-x,1/2+y,1/2+z
x,1/2-y,z
loop_
_atom_site_type_symbol
_atom_site_label
_atom_site_fract_x
_atom_site_fract_y
_atom_site_fract_z
Si Si1 0.319072 0.071582 0.700688
Si Si2 0.023810 0.420804 0.944608
Si Si3 0.853762 0.926568 0.604044
Si Si4 0.475425 0.572263 0.057291
Si Si5 0.229839 0.419088 0.979227
Si Si6 0.495529 0.071015 0.332364
Si Si7 0.738121 0.072334 0.915927
Si Si8 0.285195 0.069936 0.299448
O O1 0.326860 0.250000 0.705379
O O2 0.274194 0.036947 0.642923
O O3 0.421187 0.998267 0.702049
O O4 0.253834 0.006863 0.746700
O O5 0.989027 0.250000 0.943549
O O6 0.992750 0.508215 0.892275
O O7 0.135708 0.417236 0.945487
O O8 0.000000 0.500000 0.000000
O O9 0.869491 0.750000 0.605971
O O10 0.785184 0.969363 0.652247
O O11 0.800501 0.970912 0.549801
O O12 0.950890 0.011758 0.600348
O O13 0.483535 0.750000 0.052239
O O14 0.370758 0.537043 0.075573
O O15 0.500000 0.500000 0.000000
O O16 0.267057 0.250000 0.981393
O O17 0.210260 0.479592 0.038264
O O18 0.501937 0.250000 0.332593
O O19 0.391824 0.029027 0.312691
O O20 0.750495 0.250000 0.924742
O O21 0.282522 0.250000 0.293889
#
# Coordination Sequence:
#
# PCOD9466963 Si02
#       8
#     8   8   8   8   8   8   8   8
#     4  11  25  44  67  96 128 167 213 265 320 377
#     4  11  23  37  58  92 129 167 212 261 320 383
#     4  11  22  39  62  89 122 162 208 259 316 373
#     4  11  22  37  59  90 126 167 213 258 316 379
#     4  11  22  35  58  90 122 159 206 257 310 374
#     4  11  23  43  68  94 128 168 211 262 320 383
#     4  10  23  41  60  86 127 169 206 256 319 381
#     4  10  24  45  68  93 124 168 215 263 319 377
#
# _framework density 19.810184
#
# number of rings (size 3 to 8) (size 9 to 14) (size 15 to 20)
#    0.000    1.250    2.500    3.000    0.000    8.000 
#    0.000    2.500    0.000    0.000    0.000    0.000 
#    0.000    0.000    0.000    0.000    0.000    0.000 
#
# Total GULP energy -357817.288657 kJ/mol
# GULP energy per Si atom -5590.895135 kJ/mol
# Density = 1.976509 g / cm^3
# Si number density = 19.810184 Si / 1000 Ang^3
#
#
#
# Elastic Constant Matrix: (Units=GPa)
#
#
# Indices 1 2 3 4 5 6 
#
# 1 122.1710 40.6886 43.0724 0.0000 0.0000 0.0000
# 2 40.6886 51.5853 39.8453 0.0000 0.0000 0.0000
# 3 43.0724 39.8453 106.7392 0.0000 0.0000 0.0000
# 4 0.0000 0.0000 0.0000 35.9048 0.0000 0.0000
# 5 0.0000 0.0000 0.0000 0.0000 32.9505 0.0000
# 6 0.0000 0.0000 0.0000 0.0000 0.0000 26.4087
#
#
#
# Elastic Compliance Matrix: (Units=1/GPa)
#
#
# Indices 1 2 3 4 5 6 
#
# 1 0.011326 -0.007593 -0.001736 0.000000 0.000000 0.000000
# 2 -0.007593 0.032329 -0.009005 0.000000 0.000000 0.000000
# 3 -0.001736 -0.009005 0.013431 0.000000 0.000000 0.000000
# 4 0.000000 0.000000 0.000000 0.027851 0.000000 0.000000
# 5 0.000000 0.000000 0.000000 0.000000 0.030349 0.000000
# 6 0.000000 0.000000 0.000000 0.000000 0.000000 0.037866
#
#
# Mechanical properties :
#
#
# Convention : Reuss Voigt Hill
#
# Bulk Modulus (GPa) = 48.97288 58.63422 53.80355
# Shear Modulus (GPa) = 25.42908 29.51209 27.47058
#
# Velocity S-wave (km/s) = 3.58667 3.86391 3.72787
# Velocity P-wave (km/s) = 6.47511 7.04050 6.76372
#
# Compressibility (1/GPa) = 0.02041946
#
# Stress axis : x y z
#
# Youngs Moduli (GPa) = 88.29251 30.93157 74.45690
#
# Poissons Ratio (x) = 0.23485 0.12926
# Poissons Ratio (y) = 0.67036 0.67046
# Poissons Ratio (z) = 0.15328 0.27853
#
# Static dielectric constant tensor:
#      x y z
#    x 1.730140 0.000000 0.000000 
#    y 0.000000 1.669780 0.000000 
#    z 0.000000 0.000000 1.668010 
# 
# From -- ./inp_files/29770.got.cif
#   From: 2010.05.17/outbox.cif.g08.bks.cpg/sg62_15_cif.got.tgz:29770.got - 2010.06.03 15:25:27.
