data_PCOD9466358
_publ_section_title
;
Structure prediction by ZEFSAII (Michael W. Deem and Ramdas Pophale) SiO2 
 PCOD9466358
Probable space group: P N M A
;
_chemical_formula_sum "Si O2"
_cell_formula_units_Z 40
_cell_length_a 9.159313
_cell_length_b 14.318162
_cell_length_c 13.792515
_cell_angle_alpha 90.000000
_cell_angle_beta 90.000000
_cell_angle_gamma 90.000000
_cell_volume 1808.812861
_symmetry_space_group_name_H-M "P N M A"
_symmetry_group_IT_number 62
_symmetry_cell_setting 'orthorhombic'
loop_
_space_group_symop_operation_xyz
x,y,z
1/2-x,-y,1/2+z
1/2+x,1/2-y,1/2-z
-x,1/2+y,-z
-x,-y,-z
1/2+x,y,1/2-z
1/2-x,1/2+y,1/2+z
x,1/2-y,z
loop_
_atom_site_type_symbol
_atom_site_label
_atom_site_fract_x
_atom_site_fract_y
_atom_site_fract_z
Si Si1 0.403823 0.859888 0.062836
Si Si2 0.271258 0.543504 0.755081
Si Si3 0.592546 0.550594 0.418549
Si Si4 0.484526 0.139479 0.133810
Si Si5 0.382525 0.645435 0.285836
O O1 0.375129 0.750000 0.046523
O O2 0.252214 0.914911 0.050882
O O3 0.444844 0.868540 0.176266
O O4 0.520016 0.887234 0.980399
O O5 0.383650 0.521594 0.668805
O O6 0.355233 0.608296 0.830265
O O7 0.223821 0.443132 0.798229
O O8 0.134608 0.589998 0.700833
O O9 0.500000 0.500000 0.500000
O O10 0.504494 0.634801 0.367987
O O11 0.465321 0.250000 0.143092
O O12 0.317199 0.750000 0.288821
#
# Coordination Sequence:
#
# PCOD9466358 Si02
#       5
#     8   8   8   8   8
#     4   9  21  39  63  91 129 174 220 274 332 395
#     4  11  23  43  66  98 132 176 224 280 335 406
#     4  11  22  40  65  94 134 172 221 273 344 403
#     4  11  23  44  67  96 134 180 228 279 340 402
#     4  10  21  41  66  96 134 176 222 273 341 409
#
# _framework density 22.113952000000001
#
# number of rings (size 3 to 8) (size 9 to 14) (size 15 to 20)
#    0.000    1.600    2.000    2.400    0.000    4.000 
#    7.200    3.000    0.000    0.000    0.000    0.000 
#    0.000    0.000    0.000    0.000    0.000    0.000 
#
# Total GULP energy -223507.912636 kJ/mol
# GULP energy per Si atom -5587.697816 kJ/mol
# Density = 2.206362 g / cm^3
# Si number density = 22.113952 Si / 1000 Ang^3
#
#
#
# Elastic Constant Matrix: (Units=GPa)
#
#
# Indices 1 2 3 4 5 6 
#
# 1 50.1963 33.5833 18.9209 0.0000 0.0000 0.0000
# 2 33.5833 122.0497 25.3354 0.0000 0.0000 0.0000
# 3 18.9209 25.3354 59.2334 0.0000 0.0000 0.0000
# 4 0.0000 0.0000 0.0000 24.9000 0.0000 0.0000
# 5 0.0000 0.0000 0.0000 0.0000 44.3629 0.0000
# 6 0.0000 0.0000 0.0000 0.0000 0.0000 26.1949
#
#
#
# Elastic Compliance Matrix: (Units=1/GPa)
#
#
# Indices 1 2 3 4 5 6 
#
# 1 0.026103 -0.005983 -0.005779 0.000000 0.000000 0.000000
# 2 -0.005983 0.010363 -0.002521 0.000000 0.000000 0.000000
# 3 -0.005779 -0.002521 0.019807 0.000000 0.000000 0.000000
# 4 0.000000 0.000000 0.000000 0.040161 0.000000 0.000000
# 5 0.000000 0.000000 0.000000 0.000000 0.022541 0.000000
# 6 0.000000 0.000000 0.000000 0.000000 0.000000 0.038175
#
#
# Mechanical properties :
#
#
# Convention : Reuss Voigt Hill
#
# Bulk Modulus (GPa) = 36.09306 43.01761 39.55534
# Shear Modulus (GPa) = 25.64730 29.33420 27.49075
#
# Velocity S-wave (km/s) = 3.40925 3.64607 3.52964
# Velocity P-wave (km/s) = 5.64395 6.10082 5.87682
#
# Compressibility (1/GPa) = 0.02770616
#
# Stress axis : x y z
#
# Youngs Moduli (GPa) = 38.30989 96.49691 50.48763
#
# Poissons Ratio (x) = 0.57733 0.29177
# Poissons Ratio (y) = 0.22920 0.12730
# Poissons Ratio (z) = 0.22140 0.24331
#
# Static dielectric constant tensor:
#      x y z
#    x 1.854050 0.000000 0.000000 
#    y 0.000000 1.799270 0.000000 
#    z 0.000000 0.000000 1.880000 
# 
# From -- ./inp_files/16683.got.cif
#   From: 2010.05.17/outbox.cif.g08.bks.cpg/sg62_9_cif.got.tgz:16683.got - 2010.06.03 15:25:27.
