data_PCOD9466274
_publ_section_title
;
Structure prediction by ZEFSAII (Michael W. Deem and Ramdas Pophale) SiO2 
 PCOD9466274
Probable space group: P N M A
;
_chemical_formula_sum "Si O2"
_cell_formula_units_Z 56
_cell_length_a 15.010304
_cell_length_b 8.523424
_cell_length_c 21.929519
_cell_angle_alpha 90.000000
_cell_angle_beta 90.000000
_cell_angle_gamma 90.000000
_cell_volume 2805.644796
_symmetry_space_group_name_H-M "P N M A"
_symmetry_group_IT_number 62
_symmetry_cell_setting 'orthorhombic'
loop_
_space_group_symop_operation_xyz
x,y,z
1/2-x,-y,1/2+z
1/2+x,1/2-y,1/2-z
-x,1/2+y,-z
-x,-y,-z
1/2+x,y,1/2-z
1/2-x,1/2+y,1/2+z
x,1/2-y,z
loop_
_atom_site_type_symbol
_atom_site_label
_atom_site_fract_x
_atom_site_fract_y
_atom_site_fract_z
Si Si1 0.930941 0.562204 0.174501
Si Si2 0.607149 0.436406 0.260547
Si Si3 0.699046 0.060033 0.783036
Si Si4 0.719242 0.439901 0.017482
Si Si5 0.899614 0.061415 0.622928
Si Si6 0.583296 0.562717 0.537736
Si Si7 0.903293 0.559376 0.406041
O O1 0.927292 0.750000 0.170052
O O2 0.853502 0.511850 0.221779
O O3 0.920309 0.491057 0.107755
O O4 0.025342 0.513424 0.203354
O O5 0.598611 0.250000 0.263592
O O6 0.702723 0.489926 0.285896
O O7 0.604025 0.493181 0.190605
O O8 0.705653 0.250000 0.782653
O O9 0.641074 0.013393 0.841882
O O10 0.716729 0.250000 0.018484
O O11 0.679917 0.502368 0.080708
O O12 0.821620 0.489459 0.010217
O O13 0.655947 0.495881 0.962586
O O14 0.897587 0.250000 0.626951
O O15 0.993759 0.010675 0.592979
O O16 0.500000 0.500000 0.500000
O O17 0.580888 0.750000 0.535765
O O18 0.902787 0.750000 0.407417
#
# Coordination Sequence:
#
# PCOD9466274 Si02
#       7
#     8   8   8   8   8   8   8
#     4  11  23  43  68  92 123 167 212 260 315 373
#     4  12  25  39  61  94 129 163 204 260 318 377
#     4  10  21  40  66  93 125 167 213 259 311 377
#     4  10  22  40  63  92 126 166 206 258 319 370
#     4  11  21  39  64  93 126 166 211 254 308 378
#     4  11  25  43  64  92 127 167 214 264 318 378
#     4   9  19  38  63  92 125 161 206 255 308 370
#
# _framework density 19.959761
#
# number of rings (size 3 to 8) (size 9 to 14) (size 15 to 20)
#    0.000    1.429    1.429    3.857    2.000    4.571 
#    0.000    1.429    0.000    0.000    0.000    0.000 
#    0.000    0.000    0.000    0.000    0.000    0.000 
#
# Total GULP energy -313179.042698 kJ/mol
# GULP energy per Si atom -5592.482905 kJ/mol
# Density = 1.991433 g / cm^3
# Si number density = 19.959761 Si / 1000 Ang^3
#
#
#
# Elastic Constant Matrix: (Units=GPa)
#
#
# Indices 1 2 3 4 5 6 
#
# 1 87.5120 7.2523 -14.3072 0.0000 0.0000 0.0000
# 2 7.2523 22.9239 -1.1992 0.0000 0.0000 0.0000
# 3 -14.3072 -1.1992 40.5774 0.0000 0.0000 0.0000
# 4 0.0000 0.0000 0.0000 24.3321 0.0000 0.0000
# 5 0.0000 0.0000 0.0000 0.0000 29.9862 0.0000
# 6 0.0000 0.0000 0.0000 0.0000 0.0000 16.1786
#
#
#
# Elastic Compliance Matrix: (Units=1/GPa)
#
#
# Indices 1 2 3 4 5 6 
#
# 1 0.012433 -0.003710 0.004274 0.000000 0.000000 0.000000
# 2 -0.003710 0.044797 0.000016 0.000000 0.000000 0.000000
# 3 0.004274 0.000016 0.026152 0.000000 0.000000 0.000000
# 4 0.000000 0.000000 0.000000 0.041098 0.000000 0.000000
# 5 0.000000 0.000000 0.000000 0.000000 0.033349 0.000000
# 6 0.000000 0.000000 0.000000 0.000000 0.000000 0.061810
#
#
# Mechanical properties :
#
#
# Convention : Reuss Voigt Hill
#
# Bulk Modulus (GPa) = 11.82840 14.94503 13.38672
# Shear Modulus (GPa) = 20.27087 24.71719 22.49403
#
# Velocity S-wave (km/s) = 3.19028 3.52284 3.36068
# Velocity P-wave (km/s) = 4.41696 4.90418 4.66694
#
# Compressibility (1/GPa) = 0.08454232
#
# Stress axis : x y z
#
# Youngs Moduli (GPa) = 80.42964 22.32292 38.23831
#
# Poissons Ratio (x) = 0.08281 -0.16344
# Poissons Ratio (y) = 0.29838 -0.00060
# Poissons Ratio (z) = -0.34377 -0.00035
#
# Static dielectric constant tensor:
#      x y z
#    x 1.702020 0.000000 0.000000 
#    y 0.000000 1.679790 0.000000 
#    z 0.000000 0.000000 1.672510 
# 
# From -- ./inp_files/27207.got.cif
#   From: 2010.05.17/outbox.cif.g08.bks.cpg/sg62_14_cif.got.tgz:27207.got - 2010.06.03 15:25:27.
