data_PCOD9466113
_publ_section_title
;
Structure prediction by ZEFSAII (Michael W. Deem and Ramdas Pophale) SiO2 
 PCOD9466113
Probable space group: P N M A
;
_chemical_formula_sum "Si O2"
_cell_formula_units_Z 48
_cell_length_a 17.239253
_cell_length_b 15.310159
_cell_length_c 9.688600
_cell_angle_alpha 90.000000
_cell_angle_beta 90.000000
_cell_angle_gamma 90.000000
_cell_volume 2557.167466
_symmetry_space_group_name_H-M "P N M A"
_symmetry_group_IT_number 62
_symmetry_cell_setting 'orthorhombic'
loop_
_space_group_symop_operation_xyz
x,y,z
1/2-x,-y,1/2+z
1/2+x,1/2-y,1/2-z
-x,1/2+y,-z
-x,-y,-z
1/2+x,y,1/2-z
1/2-x,1/2+y,1/2+z
x,1/2-y,z
loop_
_atom_site_type_symbol
_atom_site_label
_atom_site_fract_x
_atom_site_fract_y
_atom_site_fract_z
Si Si1 0.067194 0.853252 0.135747
Si Si2 0.430654 0.648076 0.584507
Si Si3 0.487934 0.912807 0.092098
Si Si4 0.183567 0.505329 0.014823
Si Si5 0.337599 0.995865 0.190962
Si Si6 0.953642 0.346412 0.327146
O O1 0.086908 0.750000 0.147864
O O2 0.131447 0.910981 0.057752
O O3 0.047745 0.895618 0.284050
O O4 0.988440 0.859111 0.045754
O O5 0.407576 0.750000 0.599216
O O6 0.361061 0.580878 0.568662
O O7 0.483673 0.622255 0.715120
O O8 0.402782 0.922724 0.157470
O O9 0.504031 0.842718 0.974236
O O10 0.500000 0.000000 0.000000
O O11 0.266119 0.512782 0.088092
O O12 0.188482 0.495403 0.849886
O O13 0.382386 0.087443 0.168437
O O14 0.928225 0.250000 0.283068
#
# Coordination Sequence:
#
# PCOD9466113 Si02
#       6
#     8   8   8   8   8   8
#     4  11  22  41  68  91 118 165 217 261 309 366
#     4  10  21  40  68  91 114 161 214 258 308 364
#     4  10  21  39  63  91 119 160 205 258 305 364
#     4  12  24  41  60  90 129 165 201 261 314 380
#     4  11  25  38  61  89 126 165 204 249 319 380
#     4  10  21  40  65  91 119 156 210 265 309 367
#
# _framework density 18.770769999999999
#
# number of rings (size 3 to 8) (size 9 to 14) (size 15 to 20)
#    0.000    1.333    3.333    3.000    7.000    0.667 
#    0.000    2.500    0.000    0.000    0.000    0.000 
#    0.000    0.000    0.000    0.000    0.000    0.000 
#
# Total GULP energy -267862.255895 kJ/mol
# GULP energy per Si atom -5580.463664 kJ/mol
# Density = 1.872805 g / cm^3
# Si number density = 18.770770 Si / 1000 Ang^3
#
#
#
# Elastic Constant Matrix: (Units=GPa)
#
#
# Indices 1 2 3 4 5 6 
#
# 1 85.2257 22.8360 28.8784 0.0000 0.0000 0.0000
# 2 22.8360 67.0372 -2.1404 0.0000 0.0000 0.0000
# 3 28.8784 -2.1404 125.3750 0.0000 0.0000 0.0000
# 4 0.0000 0.0000 0.0000 2.9441 0.0000 0.0000
# 5 0.0000 0.0000 0.0000 0.0000 32.3586 0.0000
# 6 0.0000 0.0000 0.0000 0.0000 0.0000 9.8671
#
#
#
# Elastic Compliance Matrix: (Units=1/GPa)
#
#
# Indices 1 2 3 4 5 6 
#
# 1 0.014194 -0.004942 -0.003354 0.000000 0.000000 0.000000
# 2 -0.004942 0.016646 0.001423 0.000000 0.000000 0.000000
# 3 -0.003354 0.001423 0.008773 0.000000 0.000000 0.000000
# 4 0.000000 0.000000 0.000000 0.339658 0.000000 0.000000
# 5 0.000000 0.000000 0.000000 0.000000 0.030904 0.000000
# 6 0.000000 0.000000 0.000000 0.000000 0.000000 0.101347
#
#
# Mechanical properties :
#
#
# Convention : Reuss Voigt Hill
#
# Bulk Modulus (GPa) = 38.66064 41.86510 40.26287
# Shear Modulus (GPa) = 9.36521 24.23823 16.80172
#
# Velocity S-wave (km/s) = 2.23609 3.59733 2.99507
# Velocity P-wave (km/s) = 5.22568 6.29334 5.78420
#
# Compressibility (1/GPa) = 0.02586610
#
# Stress axis : x y z
#
# Youngs Moduli (GPa) = 70.45100 60.07418 113.98783
#
# Poissons Ratio (x) = 0.29690 0.38230
# Poissons Ratio (y) = 0.34819 -0.16216
# Poissons Ratio (z) = 0.23628 -0.08546
#
# Static dielectric constant tensor:
#      x y z
#    x 1.613700 0.000000 0.000000 
#    y 0.000000 1.683290 0.000000 
#    z 0.000000 0.000000 1.670850 
# 
# From -- ./inp_files/7641.got.cif
#   From: 2010.05.17/outbox.cif.g08.bks.cpg/sg62_4_cif.got.tgz:7641.got - 2010.06.03 15:25:27.
