data_PCOD9466477
_publ_section_title
;
Structure prediction by ZEFSAII (Michael W. Deem and Ramdas Pophale) SiO2 
 PCOD9466477
Probable space group: P N M A
;
_chemical_formula_sum "Si O2"
_cell_formula_units_Z 48
_cell_length_a 9.536743
_cell_length_b 8.422899
_cell_length_c 31.980460
_cell_angle_alpha 90.000000
_cell_angle_beta 90.000000
_cell_angle_gamma 90.000000
_cell_volume 2568.895148
_symmetry_space_group_name_H-M "P N M A"
_symmetry_group_IT_number 62
_symmetry_cell_setting 'orthorhombic'
loop_
_space_group_symop_operation_xyz
x,y,z
1/2-x,-y,1/2+z
1/2+x,1/2-y,1/2-z
-x,1/2+y,-z
-x,-y,-z
1/2+x,y,1/2-z
1/2-x,1/2+y,1/2+z
x,1/2-y,z
loop_
_atom_site_type_symbol
_atom_site_label
_atom_site_fract_x
_atom_site_fract_y
_atom_site_fract_z
Si Si1 0.093187 0.942595 0.788241
Si Si2 0.411326 0.440136 0.039439
Si Si3 0.911493 0.438457 0.617322
Si Si4 0.919693 0.558000 0.708533
Si Si5 0.592767 0.557816 0.618770
Si Si6 0.911606 0.942255 0.960402
O O1 0.082135 0.750000 0.787907
O O2 0.256807 0.982482 0.784506
O O3 0.007922 0.999824 0.748196
O O4 0.047321 0.995423 0.834629
O O5 0.409587 0.250000 0.038420
O O6 0.487996 0.494729 0.081574
O O7 0.249830 0.496457 0.037660
O O8 0.500000 0.500000 0.000000
O O9 0.907096 0.250000 0.614434
O O10 0.961080 0.490094 0.663524
O O11 0.752736 0.503158 0.611714
O O12 0.930090 0.750000 0.705989
O O13 0.594184 0.750000 0.618870
O O14 0.490216 0.504418 0.581918
O O15 0.911316 0.750000 0.960477
O O16 0.000000 0.000000 0.000000
#
# Coordination Sequence:
#
# PCOD9466477 Si02
#       6
#     8   8   8   8   8   8
#     4   8  15  28  51  77 100 130 173 218 265 314
#     4  11  23  39  58  83 111 142 178 220 267 320
#     4  11  22  36  54  79 110 147 184 220 264 320
#     4   9  17  32  53  77 104 138 178 225 272 318
#     4   9  18  36  58  80 105 138 179 227 274 318
#     4  10  22  37  57  82 108 137 174 218 267 318
#
# _framework density 18.685075999999999
#
# number of rings (size 3 to 8) (size 9 to 14) (size 15 to 20)
#    0.000    2.333    0.000    4.000    0.000    6.000 
#    0.000    8.333    0.000    0.000    0.000    0.000 
#    0.000    0.000    0.000    0.000    0.000    0.000 
#
# Total GULP energy -267890.375701 kJ/mol
# GULP energy per Si atom -5581.049494 kJ/mol
# Density = 1.864255 g / cm^3
# Si number density = 18.685076 Si / 1000 Ang^3
#
#
#
# Elastic Constant Matrix: (Units=GPa)
#
#
# Indices 1 2 3 4 5 6 
#
# 1 127.1545 23.4749 126.5468 0.0000 0.0000 0.0000
# 2 23.4749 26.8751 30.6284 0.0000 0.0000 0.0000
# 3 126.5468 30.6284 216.8938 0.0000 0.0000 0.0000
# 4 0.0000 0.0000 0.0000 27.8207 0.0000 0.0000
# 5 0.0000 0.0000 0.0000 0.0000 43.9798 0.0000
# 6 0.0000 0.0000 0.0000 0.0000 0.0000 17.1284
#
#
#
# Elastic Compliance Matrix: (Units=1/GPa)
#
#
# Indices 1 2 3 4 5 6 
#
# 1 0.019258 -0.004786 -0.010560 0.000000 0.000000 0.000000
# 2 -0.004786 0.045536 -0.003638 0.000000 0.000000 0.000000
# 3 -0.010560 -0.003638 0.011285 0.000000 0.000000 0.000000
# 4 0.000000 0.000000 0.000000 0.035945 0.000000 0.000000
# 5 0.000000 0.000000 0.000000 0.000000 0.022738 0.000000
# 6 0.000000 0.000000 0.000000 0.000000 0.000000 0.058383
#
#
# Mechanical properties :
#
#
# Convention : Reuss Voigt Hill
#
# Bulk Modulus (GPa) = 26.23936 81.35816 53.79876
# Shear Modulus (GPa) = 20.50735 30.47066 25.48901
#
# Velocity S-wave (km/s) = 3.31649 4.04263 3.69743
# Velocity P-wave (km/s) = 5.36087 8.08869 6.86169
#
# Compressibility (1/GPa) = 0.03811069
#
# Stress axis : x y z
#
# Youngs Moduli (GPa) = 51.92771 21.96082 88.60995
#
# Poissons Ratio (x) = 0.10511 0.93571
# Poissons Ratio (y) = 0.24855 0.32233
# Poissons Ratio (z) = 0.54835 0.07988
#
# Static dielectric constant tensor:
#      x y z
#    x 1.623740 0.000000 0.000000 
#    y 0.000000 1.657580 0.000000 
#    z 0.000000 0.000000 1.643960 
# 
# From -- ./inp_files/32045.got.cif
#   From: 2010.05.17/outbox.cif.g08.bks.cpg/sg62_17_cif.got.tgz:32045.got - 2010.06.03 15:25:27.
