data_PCOD9466601
_publ_section_title
;
Structure prediction by ZEFSAII (Michael W. Deem and Ramdas Pophale) SiO2 
 PCOD9466601
Probable space group: P N M A
;
_chemical_formula_sum "Si O2"
_cell_formula_units_Z 40
_cell_length_a 12.720737
_cell_length_b 9.400404
_cell_length_c 15.949109
_cell_angle_alpha 90.000000
_cell_angle_beta 90.000000
_cell_angle_gamma 90.000000
_cell_volume 1907.195522
_symmetry_space_group_name_H-M "P N M A"
_symmetry_group_IT_number 62
_symmetry_cell_setting 'orthorhombic'
loop_
_space_group_symop_operation_xyz
x,y,z
1/2-x,-y,1/2+z
1/2+x,1/2-y,1/2-z
-x,1/2+y,-z
-x,-y,-z
1/2+x,y,1/2-z
1/2-x,1/2+y,1/2+z
x,1/2-y,z
loop_
_atom_site_type_symbol
_atom_site_label
_atom_site_fract_x
_atom_site_fract_y
_atom_site_fract_z
Si Si1 0.474002 0.912647 0.872182
Si Si2 0.475373 0.912927 0.417691
Si Si3 0.163479 0.911899 0.490839
Si Si4 0.618729 0.078544 0.744897
Si Si5 0.709830 0.913642 0.378155
O O1 0.448835 0.750000 0.849147
O O2 0.376473 0.995872 0.912743
O O3 0.528491 0.999749 0.797743
O O4 0.564216 0.907040 0.944663
O O5 0.453384 0.750000 0.440920
O O6 0.388103 0.965131 0.352236
O O7 0.585658 0.917027 0.367260
O O8 0.500000 0.000000 0.500000
O O9 0.189430 0.750000 0.467237
O O10 0.253775 0.987086 0.545270
O O11 0.602576 0.250000 0.746815
O O12 0.726116 0.047396 0.794586
O O13 0.739872 0.750000 0.399407
#
# Coordination Sequence:
#
# PCOD9466601 Si02
#       5
#     8   8   8   8   8
#     4   9  16  27  47  77 112 145 181 230 286 334
#     4  10  22  40  60  83 115 153 193 239 291 347
#     4   9  16  27  47  77 111 147 185 227 278 340
#     4   9  18  35  57  80 109 148 192 238 286 341
#     4   9  18  35  57  79 110 148 189 237 287 340
#
# _framework density 20.973203000000002
#
# number of rings (size 3 to 8) (size 9 to 14) (size 15 to 20)
#    0.000    2.800    0.000    1.200    0.000    6.400 
#    3.600    0.000    0.000    0.000    0.000    0.000 
#    0.000    0.000    0.000    0.000    0.000    0.000 
#
# Total GULP energy -223263.251144 kJ/mol
# GULP energy per Si atom -5581.581279 kJ/mol
# Density = 2.092547 g / cm^3
# Si number density = 20.973203 Si / 1000 Ang^3
#
#
#
# Elastic Constant Matrix: (Units=GPa)
#
#
# Indices 1 2 3 4 5 6 
#
# 1 54.0216 14.3994 13.8066 0.0000 0.0000 0.0000
# 2 14.3994 61.3155 31.8596 0.0000 0.0000 0.0000
# 3 13.8066 31.8596 103.4786 0.0000 0.0000 0.0000
# 4 0.0000 0.0000 0.0000 27.8947 0.0000 0.0000
# 5 0.0000 0.0000 0.0000 0.0000 20.3617 0.0000
# 6 0.0000 0.0000 0.0000 0.0000 0.0000 16.7433
#
#
#
# Elastic Compliance Matrix: (Units=1/GPa)
#
#
# Indices 1 2 3 4 5 6 
#
# 1 0.019928 -0.003927 -0.001450 0.000000 0.000000 0.000000
# 2 -0.003927 0.020189 -0.005692 0.000000 0.000000 0.000000
# 3 -0.001450 -0.005692 0.011610 0.000000 0.000000 0.000000
# 4 0.000000 0.000000 0.000000 0.035849 0.000000 0.000000
# 5 0.000000 0.000000 0.000000 0.000000 0.049112 0.000000
# 6 0.000000 0.000000 0.000000 0.000000 0.000000 0.059725
#
#
# Mechanical properties :
#
#
# Convention : Reuss Voigt Hill
#
# Bulk Modulus (GPa) = 33.79541 37.66079 35.72810
# Shear Modulus (GPa) = 21.89015 23.58328 22.73672
#
# Velocity S-wave (km/s) = 3.23417 3.35692 3.29612
# Velocity P-wave (km/s) = 5.48590 5.74637 5.61764
#
# Compressibility (1/GPa) = 0.02958982
#
# Stress axis : x y z
#
# Youngs Moduli (GPa) = 50.17986 49.53260 86.13443
#
# Poissons Ratio (x) = 0.19449 0.12489
# Poissons Ratio (y) = 0.19703 0.49027
# Poissons Ratio (z) = 0.07276 0.28194
#
# Static dielectric constant tensor:
#      x y z
#    x 1.778080 0.000000 0.000000 
#    y 0.000000 1.840650 0.000000 
#    z 0.000000 0.000000 1.752170 
# 
# From -- ./inp_files/18596.got.cif
#   From: 2010.05.17/outbox.cif.g08.bks.cpg/sg62_10_cif.got.tgz:18596.got - 2010.06.03 15:25:27.
