data_PCOD9466991
_publ_section_title
;
Structure prediction by ZEFSAII (Michael W. Deem and Ramdas Pophale) SiO2 
 PCOD9466991
Probable space group: P N M A
;
_chemical_formula_sum "Si O2"
_cell_formula_units_Z 28
_cell_length_a 12.004383
_cell_length_b 13.845221
_cell_length_c 7.869972
_cell_angle_alpha 90.000000
_cell_angle_beta 90.000000
_cell_angle_gamma 90.000000
_cell_volume 1308.015598
_symmetry_space_group_name_H-M "P N M A"
_symmetry_group_IT_number 62
_symmetry_cell_setting 'orthorhombic'
loop_
_space_group_symop_operation_xyz
x,y,z
1/2-x,-y,1/2+z
1/2+x,1/2-y,1/2-z
-x,1/2+y,-z
-x,-y,-z
1/2+x,y,1/2-z
1/2-x,1/2+y,1/2+z
x,1/2-y,z
loop_
_atom_site_type_symbol
_atom_site_label
_atom_site_fract_x
_atom_site_fract_y
_atom_site_fract_z
Si Si1 0.879008 0.750000 0.770478
Si Si2 0.953156 0.750000 0.400310
Si Si3 0.390395 0.533159 0.096048
Si Si4 0.566025 0.750000 0.444447
Si Si5 0.790573 0.407586 0.129936
O O1 0.964865 0.750000 0.606915
O O2 0.796067 0.659023 0.738393
O O3 0.950987 0.750000 0.943187
O O4 0.892627 0.852092 0.366864
O O5 0.048733 0.750000 0.258068
O O6 0.374963 0.466999 0.257039
O O7 0.500000 0.500000 0.000000
O O8 0.285188 0.518961 0.974577
O O9 0.638465 0.659253 0.505050
#
# Coordination Sequence:
#
# PCOD9466991 Si02
#       5
#     4   4   8   4   8
#     4   9  21  45  62 102 137 175 226 283 336 400
#     4  10  24  42  66  97 138 173 225 287 330 400
#     4  11  25  45  67 102 139 179 235 287 340 415
#     4  11  23  43  72  97 135 178 227 284 346 406
#     4  10  23  41  67  99 135 181 229 276 349 411
#
# _framework density 21.406472999999998
#
# number of rings (size 3 to 8) (size 9 to 14) (size 15 to 20)
#    0.000    1.714    0.000    4.286    8.000    2.286 
#    0.000    2.857    0.000    0.000    0.000    0.000 
#    0.000    0.000    0.000    0.000    0.000    0.000 
#
# Total GULP energy -156289.355091 kJ/mol
# GULP energy per Si atom -5581.762682 kJ/mol
# Density = 2.135775 g / cm^3
# Si number density = 21.406473 Si / 1000 Ang^3
#
#
#
# Elastic Constant Matrix: (Units=GPa)
#
#
# Indices 1 2 3 4 5 6 
#
# 1 75.9541 24.8949 36.7060 0.0000 0.0000 0.0000
# 2 24.8949 80.6564 42.5699 0.0000 0.0000 0.0000
# 3 36.7060 42.5699 66.8267 0.0000 0.0000 0.0000
# 4 0.0000 0.0000 0.0000 20.7962 0.0000 0.0000
# 5 0.0000 0.0000 0.0000 0.0000 50.9752 0.0000
# 6 0.0000 0.0000 0.0000 0.0000 0.0000 10.8896
#
#
#
# Elastic Compliance Matrix: (Units=1/GPa)
#
#
# Indices 1 2 3 4 5 6 
#
# 1 0.017937 -0.000507 -0.009530 0.000000 0.000000 0.000000
# 2 -0.000507 0.018692 -0.011629 0.000000 0.000000 0.000000
# 3 -0.009530 -0.011629 0.027606 0.000000 0.000000 0.000000
# 4 0.000000 0.000000 0.000000 0.048086 0.000000 0.000000
# 5 0.000000 0.000000 0.000000 0.000000 0.019617 0.000000
# 6 0.000000 0.000000 0.000000 0.000000 0.000000 0.091831
#
#
# Mechanical properties :
#
#
# Convention : Reuss Voigt Hill
#
# Bulk Modulus (GPa) = 47.83510 47.97545 47.90527
# Shear Modulus (GPa) = 18.24355 24.48329 21.36342
#
# Velocity S-wave (km/s) = 2.92249 3.38558 3.16252
# Velocity P-wave (km/s) = 5.81227 6.14355 5.98021
#
# Compressibility (1/GPa) = 0.02090515
#
# Stress axis : x y z
#
# Youngs Moduli (GPa) = 55.74978 53.49751 36.22344
#
# Poissons Ratio (x) = 0.02711 0.34520
# Poissons Ratio (y) = 0.02825 0.42125
# Poissons Ratio (z) = 0.53128 0.62213
#
# Static dielectric constant tensor:
#      x y z
#    x 1.772430 0.000000 0.000000 
#    y 0.000000 1.776510 0.000000 
#    z 0.000000 0.000000 1.804550 
# 
# From -- ./inp_files/4794.got.cif
#   From: 2010.05.17/outbox.cif.g08.bks.cpg/sg62_3_cif.got.tgz:4794.got - 2010.06.03 15:25:27.
