data_PCOD9466470
_publ_section_title
;
Structure prediction by ZEFSAII (Michael W. Deem and Ramdas Pophale) SiO2 
 PCOD9466470
Probable space group: P N M A
;
_chemical_formula_sum "Si O2"
_cell_formula_units_Z 36
_cell_length_a 8.629515
_cell_length_b 14.668255
_cell_length_c 12.829184
_cell_angle_alpha 90.000000
_cell_angle_beta 90.000000
_cell_angle_gamma 90.000000
_cell_volume 1623.917168
_symmetry_space_group_name_H-M "P N M A"
_symmetry_group_IT_number 62
_symmetry_cell_setting 'orthorhombic'
loop_
_space_group_symop_operation_xyz
x,y,z
1/2-x,-y,1/2+z
1/2+x,1/2-y,1/2-z
-x,1/2+y,-z
-x,-y,-z
1/2+x,y,1/2-z
1/2-x,1/2+y,1/2+z
x,1/2-y,z
loop_
_atom_site_type_symbol
_atom_site_label
_atom_site_fract_x
_atom_site_fract_y
_atom_site_fract_z
Si Si1 0.479528 0.614575 0.766388
Si Si2 0.702206 0.750000 0.671630
Si Si3 0.657820 0.525955 0.942732
Si Si4 0.320490 0.851083 0.395559
Si Si5 0.363752 0.084731 0.696133
O O1 0.564641 0.670862 0.676373
O O2 0.338149 0.670796 0.815304
O O3 0.609425 0.599153 0.855287
O O4 0.427115 0.514519 0.731075
O O5 0.730727 0.438199 0.887236
O O6 0.500000 0.500000 0.000000
O O7 0.777162 0.571842 0.021589
O O8 0.295108 0.750000 0.438803
O O9 0.209529 0.866578 0.295784
O O10 0.495087 0.862296 0.355437
#
# Coordination Sequence:
#
# PCOD9466470 Si02
#       5
#     8   4   8   8   8
#     4  11  21  41  66  98 132 180 220 276 351 404
#     4  10  22  36  68  98 132 164 220 280 344 404
#     4  12  25  44  69  99 134 181 236 278 342 420
#     4  12  26  44  71 105 137 182 238 290 338 411
#     4  12  23  48  71  94 143 188 224 283 355 415
#
# _framework density 22.168619
#
# number of rings (size 3 to 8) (size 9 to 14) (size 15 to 20)
#    0.000    0.444    6.667    1.333    3.111    0.000 
#    0.000    1.111    0.000    0.000    0.000    0.000 
#    0.000    0.000    0.000    0.000    0.000    0.000 
#
# Total GULP energy -200449.499348 kJ/mol
# GULP energy per Si atom -5568.041649 kJ/mol
# Density = 2.211816 g / cm^3
# Si number density = 22.168619 Si / 1000 Ang^3
#
#
#
# Elastic Constant Matrix: (Units=GPa)
#
#
# Indices 1 2 3 4 5 6 
#
# 1 76.9240 -6.2681 -5.1484 0.0000 0.0000 0.0000
# 2 -6.2681 68.7276 -15.7556 0.0000 0.0000 0.0000
# 3 -5.1484 -15.7556 37.5098 0.0000 0.0000 0.0000
# 4 0.0000 0.0000 0.0000 2.6379 0.0000 0.0000
# 5 0.0000 0.0000 0.0000 0.0000 39.3661 0.0000
# 6 0.0000 0.0000 0.0000 0.0000 0.0000 28.8916
#
#
#
# Elastic Compliance Matrix: (Units=1/GPa)
#
#
# Indices 1 2 3 4 5 6 
#
# 1 0.013320 0.001808 0.002588 0.000000 0.000000 0.000000
# 2 0.001808 0.016346 0.007114 0.000000 0.000000 0.000000
# 3 0.002588 0.007114 0.030003 0.000000 0.000000 0.000000
# 4 0.000000 0.000000 0.000000 0.379087 0.000000 0.000000
# 5 0.000000 0.000000 0.000000 0.000000 0.025403 0.000000
# 6 0.000000 0.000000 0.000000 0.000000 0.000000 0.034612
#
#
# Mechanical properties :
#
#
# Convention : Reuss Voigt Hill
#
# Bulk Modulus (GPa) = 12.09344 14.31301 13.20323
# Shear Modulus (GPa) = 9.93414 28.20135 19.06774
#
# Velocity S-wave (km/s) = 2.11917 3.57056 2.93597
# Velocity P-wave (km/s) = 3.38451 4.84448 4.17875
#
# Compressibility (1/GPa) = 0.08268947
#
# Stress axis : x y z
#
# Youngs Moduli (GPa) = 75.07304 61.17703 33.32986
#
# Poissons Ratio (x) = -0.11061 -0.08625
# Poissons Ratio (y) = -0.13574 -0.23711
# Poissons Ratio (z) = -0.19427 -0.43522
#
# Static dielectric constant tensor:
#      x y z
#    x 1.822200 0.000000 0.000000 
#    y 0.000000 1.779590 0.000000 
#    z 0.000000 0.000000 1.878300 
# 
# From -- ./inp_files/16600.got.cif
#   From: 2010.05.17/outbox.cif.g08.bks.cpg/sg62_9_cif.got.tgz:16600.got - 2010.06.03 15:25:27.
