data_PCOD9466687
_publ_section_title
;
Structure prediction by ZEFSAII (Michael W. Deem and Ramdas Pophale) SiO2 
 PCOD9466687
Probable space group: P N M A
;
_chemical_formula_sum "Si O2"
_cell_formula_units_Z 40
_cell_length_a 14.226316
_cell_length_b 10.042327
_cell_length_c 13.392354
_cell_angle_alpha 90.000000
_cell_angle_beta 90.000000
_cell_angle_gamma 90.000000
_cell_volume 1913.302903
_symmetry_space_group_name_H-M "P N M A"
_symmetry_group_IT_number 62
_symmetry_cell_setting 'orthorhombic'
loop_
_space_group_symop_operation_xyz
x,y,z
1/2-x,-y,1/2+z
1/2+x,1/2-y,1/2-z
-x,1/2+y,-z
-x,-y,-z
1/2+x,y,1/2-z
1/2-x,1/2+y,1/2+z
x,1/2-y,z
loop_
_atom_site_type_symbol
_atom_site_label
_atom_site_fract_x
_atom_site_fract_y
_atom_site_fract_z
Si Si1 0.567863 0.750000 0.110246
Si Si2 0.041333 0.250000 0.295883
Si Si3 0.161692 0.750000 0.605807
Si Si4 0.229360 0.509972 0.066305
Si Si5 0.070359 0.403599 0.939881
Si Si6 0.568514 0.958685 0.279741
Si Si7 0.365222 0.750000 0.011863
O O1 0.585767 0.878968 0.178383
O O2 0.459574 0.750000 0.076993
O O3 0.627744 0.750000 0.009603
O O4 0.063540 0.383955 0.236712
O O5 0.101431 0.250000 0.397443
O O6 0.931621 0.250000 0.327191
O O7 0.221651 0.616307 0.618610
O O8 0.151581 0.569792 0.141642
O O9 0.304363 0.619962 0.036094
O O10 0.172912 0.456120 0.969147
O O11 0.062962 0.250000 0.972370
O O12 0.030900 0.413341 0.827831
O O13 0.000000 0.500000 0.000000
#
# Coordination Sequence:
#
# PCOD9466687 Si02
#       7
#     4   4   4   8   8   8   4
#     4  11  23  45  68  89 132 179 218 263 333 392
#     4  11  25  45  64  93 134 179 216 263 333 394
#     4  11  23  45  66  89 134 181 210 269 331 394
#     4  11  23  43  67  98 133 165 219 277 325 386
#     4  10  22  40  68  96 133 173 203 264 338 381
#     4  11  23  43  67  98 132 165 219 278 324 387
#     4  11  25  45  66  93 132 179 222 257 333 396
#
# _framework density 20.906257
#
# number of rings (size 3 to 8) (size 9 to 14) (size 15 to 20)
#    0.000    1.200    2.000    3.600    8.400    3.200 
#   21.600    0.000    0.000    0.000    0.000    0.000 
#    0.000    0.000    0.000    0.000    0.000    0.000 
#
# Total GULP energy -223692.125003 kJ/mol
# GULP energy per Si atom -5592.303125 kJ/mol
# Density = 2.085867 g / cm^3
# Si number density = 20.906257 Si / 1000 Ang^3
#
#
#
# Elastic Constant Matrix: (Units=GPa)
#
#
# Indices 1 2 3 4 5 6 
#
# 1 96.7544 23.3236 13.4785 0.0000 0.0000 0.0000
# 2 23.3236 127.4989 -3.6403 0.0000 0.0000 0.0000
# 3 13.4785 -3.6403 45.8094 0.0000 0.0000 0.0000
# 4 0.0000 0.0000 0.0000 22.7052 0.0000 0.0000
# 5 0.0000 0.0000 0.0000 0.0000 12.8434 0.0000
# 6 0.0000 0.0000 0.0000 0.0000 0.0000 28.5023
#
#
#
# Elastic Compliance Matrix: (Units=1/GPa)
#
#
# Indices 1 2 3 4 5 6 
#
# 1 0.011349 -0.002176 -0.003512 0.000000 0.000000 0.000000
# 2 -0.002176 0.008278 0.001298 0.000000 0.000000 0.000000
# 3 -0.003512 0.001298 0.022966 0.000000 0.000000 0.000000
# 4 0.000000 0.000000 0.000000 0.044043 0.000000 0.000000
# 5 0.000000 0.000000 0.000000 0.000000 0.077861 0.000000
# 6 0.000000 0.000000 0.000000 0.000000 0.000000 0.035085
#
#
# Mechanical properties :
#
#
# Convention : Reuss Voigt Hill
#
# Bulk Modulus (GPa) = 29.57445 37.37627 33.47536
# Shear Modulus (GPa) = 22.76505 28.60356 25.68431
#
# Velocity S-wave (km/s) = 3.30345 3.70291 3.50887
# Velocity P-wave (km/s) = 5.35978 6.01655 5.69764
#
# Compressibility (1/GPa) = 0.03381297
#
# Stress axis : x y z
#
# Youngs Moduli (GPa) = 88.11055 120.79614 43.54228
#
# Poissons Ratio (x) = 0.26291 0.15293
# Poissons Ratio (y) = 0.19177 -0.05653
# Poissons Ratio (z) = 0.30947 -0.15682
#
# Static dielectric constant tensor:
#      x y z
#    x 1.741390 0.000000 0.000000 
#    y 0.000000 1.717500 0.000000 
#    z 0.000000 0.000000 1.759660 
# 
# From -- ./inp_files/18677.got.cif
#   From: 2010.05.17/outbox.cif.g08.bks.cpg/sg62_10_cif.got.tgz:18677.got - 2010.06.03 15:25:27.
