data_PCOD9466582
_publ_section_title
;
Structure prediction by ZEFSAII (Michael W. Deem and Ramdas Pophale) SiO2 
 PCOD9466582
Probable space group: P N M A
;
_chemical_formula_sum "Si O2"
_cell_formula_units_Z 40
_cell_length_a 10.075659
_cell_length_b 28.561910
_cell_length_c 4.976952
_cell_angle_alpha 90.000000
_cell_angle_beta 90.000000
_cell_angle_gamma 90.000000
_cell_volume 1432.267573
_symmetry_space_group_name_H-M "P N M A"
_symmetry_group_IT_number 62
_symmetry_cell_setting 'orthorhombic'
loop_
_space_group_symop_operation_xyz
x,y,z
1/2-x,-y,1/2+z
1/2+x,1/2-y,1/2-z
-x,1/2+y,-z
-x,-y,-z
1/2+x,y,1/2-z
1/2-x,1/2+y,1/2+z
x,1/2-y,z
loop_
_atom_site_type_symbol
_atom_site_label
_atom_site_fract_x
_atom_site_fract_y
_atom_site_fract_z
Si Si1 0.222526 0.895055 0.690708
Si Si2 0.901681 0.750000 0.802793
Si Si3 0.140972 0.750000 0.429988
Si Si4 0.427007 0.170732 0.561814
Si Si5 0.093714 0.090420 0.691326
Si Si6 0.341046 0.007131 0.304091
O O1 0.287514 0.897127 0.400167
O O2 0.125092 0.939742 0.731680
O O3 0.344468 0.903427 0.898169
O O4 0.149203 0.850156 0.806707
O O5 0.988146 0.750000 0.531330
O O6 0.743781 0.750000 0.824253
O O7 0.954832 0.796311 0.954208
O O8 0.160636 0.795315 0.245312
O O9 0.482284 0.127814 0.737332
O O10 0.060608 0.036063 0.754368
O O11 0.280356 0.003945 0.599792
#
# Coordination Sequence:
#
# PCOD9466582 Si02
#       6
#     8   4   4   8   8   8
#     4  10  22  39  66  99 144 185 239 289 359 428
#     4  11  28  48  77  98 148 186 246 308 378 443
#     4  11  28  52  71 110 140 194 240 312 378 441
#     4  11  26  43  71 103 138 186 246 307 366 436
#     4  10  22  39  67  98 144 185 239 290 357 429
#     4   8  16  35  58  94 137 189 226 285 349 423
#
# _framework density 27.927741000000001
#
# number of rings (size 3 to 8) (size 9 to 14) (size 15 to 20)
#    0.000    2.000    0.000    1.200    8.400    4.000 
#    0.000    0.000    0.000   14.400    0.000    0.000 
#    0.000    0.000    0.000    0.000    0.000    0.000 
#
# Total GULP energy -224664.027372 kJ/mol
# GULP energy per Si atom -5616.600684 kJ/mol
# Density = 2.786418 g / cm^3
# Si number density = 27.927741 Si / 1000 Ang^3
#
#
#
# Elastic Constant Matrix: (Units=GPa)
#
#
# Indices 1 2 3 4 5 6 
#
# 1 108.8758 59.7201 48.0686 0.0000 0.0000 0.0000
# 2 59.7201 182.0974 18.8039 0.0000 0.0000 0.0000
# 3 48.0686 18.8039 114.6530 0.0000 0.0000 0.0000
# 4 0.0000 0.0000 0.0000 41.6832 0.0000 0.0000
# 5 0.0000 0.0000 0.0000 0.0000 36.6301 0.0000
# 6 0.0000 0.0000 0.0000 0.0000 0.0000 34.9225
#
#
#
# Elastic Compliance Matrix: (Units=1/GPa)
#
#
# Indices 1 2 3 4 5 6 
#
# 1 0.013566 -0.003928 -0.005043 0.000000 0.000000 0.000000
# 2 -0.003928 0.006724 0.000544 0.000000 0.000000 0.000000
# 3 -0.005043 0.000544 0.010747 0.000000 0.000000 0.000000
# 4 0.000000 0.000000 0.000000 0.023990 0.000000 0.000000
# 5 0.000000 0.000000 0.000000 0.000000 0.027300 0.000000
# 6 0.000000 0.000000 0.000000 0.000000 0.000000 0.028635
#
#
# Mechanical properties :
#
#
# Convention : Reuss Voigt Hill
#
# Bulk Modulus (GPa) = 70.51158 73.20127 71.85643
# Shear Modulus (GPa) = 37.72311 41.24938 39.48625
#
# Velocity S-wave (km/s) = 3.67923 3.84735 3.76423
# Velocity P-wave (km/s) = 6.58420 6.78262 6.68415
#
# Compressibility (1/GPa) = 0.01418207
#
# Stress axis : x y z
#
# Youngs Moduli (GPa) = 73.71263 148.72778 93.04772
#
# Poissons Ratio (x) = 0.58425 0.46928
# Poissons Ratio (y) = 0.28957 -0.05064
# Poissons Ratio (z) = 0.37176 -0.08094
#
# Static dielectric constant tensor:
#      x y z
#    x 2.126950 0.000000 0.000000 
#    y 0.000000 2.173880 0.000000 
#    z 0.000000 0.000000 2.122970 
# 
# From -- ./inp_files/629.got.cif
#   From: 2010.05.17/outbox.cif.g08.bks.cpg/sg62_1_cif.got.tgz:629.got - 2010.06.03 15:25:27.
