data_PCOD9466177
_publ_section_title
;
Structure prediction by ZEFSAII (Michael W. Deem and Ramdas Pophale) SiO2 
 PCOD9466177
Probable space group: P N M A
;
_chemical_formula_sum "Si O2"
_cell_formula_units_Z 56
_cell_length_a 13.858332
_cell_length_b 12.809546
_cell_length_c 16.841191
_cell_angle_alpha 90.000000
_cell_angle_beta 90.000000
_cell_angle_gamma 90.000000
_cell_volume 2989.630395
_symmetry_space_group_name_H-M "P N M A"
_symmetry_group_IT_number 62
_symmetry_cell_setting 'orthorhombic'
loop_
_space_group_symop_operation_xyz
x,y,z
1/2-x,-y,1/2+z
1/2+x,1/2-y,1/2-z
-x,1/2+y,-z
-x,-y,-z
1/2+x,y,1/2-z
1/2-x,1/2+y,1/2+z
x,1/2-y,z
loop_
_atom_site_type_symbol
_atom_site_label
_atom_site_fract_x
_atom_site_fract_y
_atom_site_fract_z
Si Si1 0.703047 0.371298 0.056405
Si Si2 0.847923 0.869660 0.942157
Si Si3 0.510771 0.370159 0.161079
Si Si4 0.283640 0.373093 0.734831
Si Si5 0.167517 0.498336 0.603829
Si Si6 0.330332 0.947442 0.381960
Si Si7 0.965939 0.994513 0.818376
O O1 0.728016 0.250000 0.043768
O O2 0.612934 0.376977 0.116346
O O3 0.790491 0.438634 0.092517
O O4 0.671625 0.426466 0.974402
O O5 0.865510 0.750000 0.921754
O O6 0.744674 0.909211 0.910206
O O7 0.924869 0.944002 0.899046
O O8 0.846285 0.885513 0.036564
O O9 0.477356 0.250000 0.155787
O O10 0.434722 0.449531 0.121879
O O11 0.523753 0.405588 0.251723
O O12 0.285001 0.250000 0.720640
O O13 0.207325 0.430198 0.676906
O O14 0.249306 0.396994 0.824308
O O15 0.387015 0.423918 0.714535
O O16 0.430833 0.955844 0.335970
#
# Coordination Sequence:
#
# PCOD9466177 Si02
#       7
#     8   8   8   8   8   8   8
#     4  10  22  39  62  90 123 165 208 255 312 369
#     4  10  22  39  62  90 122 163 207 255 309 367
#     4  11  21  37  63  93 128 165 203 255 313 366
#     4  11  23  40  62  88 123 166 208 258 316 368
#     4  10  21  40  61  89 127 157 209 255 304 373
#     4  11  22  42  62  89 126 162 212 263 305 375
#     4  11  23  41  60  94 127 161 206 265 308 376
#
# _framework density 18.731411999999999
#
# number of rings (size 3 to 8) (size 9 to 14) (size 15 to 20)
#    0.000    1.429    2.857    2.571    0.000    2.286 
#    0.000    0.000    0.000    0.000    0.000    0.000 
#    0.000    0.000    0.000    0.000    0.000    0.000 
#
# Total GULP energy -312831.926620 kJ/mol
# GULP energy per Si atom -5586.284404 kJ/mol
# Density = 1.868878 g / cm^3
# Si number density = 18.731412 Si / 1000 Ang^3
#
#
#
# Elastic Constant Matrix: (Units=GPa)
#
#
# Indices 1 2 3 4 5 6 
#
# 1 78.3321 31.7635 18.7380 0.0000 0.0000 0.0000
# 2 31.7635 93.3591 11.3800 0.0000 0.0000 0.0000
# 3 18.7380 11.3800 88.5852 0.0000 0.0000 0.0000
# 4 0.0000 0.0000 0.0000 13.2451 0.0000 0.0000
# 5 0.0000 0.0000 0.0000 0.0000 21.4502 0.0000
# 6 0.0000 0.0000 0.0000 0.0000 0.0000 13.1631
#
#
#
# Elastic Compliance Matrix: (Units=1/GPa)
#
#
# Indices 1 2 3 4 5 6 
#
# 1 0.015387 -0.004915 -0.002623 0.000000 0.000000 0.000000
# 2 -0.004915 0.012452 -0.000560 0.000000 0.000000 0.000000
# 3 -0.002623 -0.000560 0.011915 0.000000 0.000000 0.000000
# 4 0.000000 0.000000 0.000000 0.075500 0.000000 0.000000
# 5 0.000000 0.000000 0.000000 0.000000 0.046620 0.000000
# 6 0.000000 0.000000 0.000000 0.000000 0.000000 0.075970
#
#
# Mechanical properties :
#
#
# Convention : Reuss Voigt Hill
#
# Bulk Modulus (GPa) = 42.44989 42.67104 42.56046
# Shear Modulus (GPa) = 19.09176 22.79799 20.94488
#
# Velocity S-wave (km/s) = 3.19601 3.49248 3.34753
# Velocity P-wave (km/s) = 6.02752 6.25245 6.14101
#
# Compressibility (1/GPa) = 0.02355719
#
# Stress axis : x y z
#
# Youngs Moduli (GPa) = 64.99071 80.30907 83.92515
#
# Poissons Ratio (x) = 0.39474 0.22016
# Poissons Ratio (y) = 0.31945 0.04699
# Poissons Ratio (z) = 0.17049 0.04497
#
# Static dielectric constant tensor:
#      x y z
#    x 1.622370 0.000000 0.000000 
#    y 0.000000 1.619000 0.000000 
#    z 0.000000 0.000000 1.646010 
# 
# From -- ./inp_files/18990.got.cif
#   From: 2010.05.17/outbox.cif.g08.bks.cpg/sg62_10_cif.got.tgz:18990.got - 2010.06.03 15:25:27.
