data_PCOD9466323
_publ_section_title
;
Structure prediction by ZEFSAII (Michael W. Deem and Ramdas Pophale) SiO2 
 PCOD9466323
Probable space group: P N M A
;
_chemical_formula_sum "Si O2"
_cell_formula_units_Z 48
_cell_length_a 28.746116
_cell_length_b 8.508208
_cell_length_c 10.156729
_cell_angle_alpha 90.000000
_cell_angle_beta 90.000000
_cell_angle_gamma 90.000000
_cell_volume 2484.111796
_symmetry_space_group_name_H-M "P N M A"
_symmetry_group_IT_number 62
_symmetry_cell_setting 'orthorhombic'
loop_
_space_group_symop_operation_xyz
x,y,z
1/2-x,-y,1/2+z
1/2+x,1/2-y,1/2-z
-x,1/2+y,-z
-x,-y,-z
1/2+x,y,1/2-z
1/2-x,1/2+y,1/2+z
x,1/2-y,z
loop_
_atom_site_type_symbol
_atom_site_label
_atom_site_fract_x
_atom_site_fract_y
_atom_site_fract_z
Si Si1 0.790467 0.060959 0.847797
Si Si2 0.888106 0.435955 0.243814
Si Si3 0.289850 0.937756 0.352081
Si Si4 0.551519 0.065996 0.510872
Si Si5 0.447123 0.061202 0.005745
Si Si6 0.395188 0.438999 0.734393
O O1 0.787194 0.250000 0.855387
O O2 0.750677 0.004431 0.746814
O O3 0.840903 0.023565 0.785854
O O4 0.786677 0.999933 0.997784
O O5 0.879941 0.250000 0.259892
O O6 0.839013 0.515644 0.212444
O O7 0.917003 0.495873 0.369714
O O8 0.920517 0.468918 0.119215
O O9 0.286641 0.750000 0.359855
O O10 0.551504 0.250000 0.544798
O O11 0.500000 0.000000 0.500000
O O12 0.576844 0.035355 0.373677
O O13 0.450304 0.250000 0.016251
O O14 0.417554 0.024636 0.875287
O O15 0.500000 0.000000 0.000000
O O16 0.400672 0.250000 0.712018
#
# Coordination Sequence:
#
# PCOD9466323 Si02
#       6
#     8   8   8   8   8   8
#     4  10  23  42  65  92 126 164 206 257 313 371
#     4  11  23  41  64  91 126 166 205 254 313 371
#     4  11  24  41  65  97 126 161 209 258 310 372
#     4  12  24  39  62  92 123 161 206 256 309 372
#     4  10  23  40  62  90 122 164 208 252 307 365
#     4  10  21  41  64  88 122 164 206 255 310 368
#
# _framework density 19.322801999999999
#
# number of rings (size 3 to 8) (size 9 to 14) (size 15 to 20)
#    0.000    1.333    1.667    3.500    2.333    6.000 
#    0.000    0.000    0.000    0.000    0.000    0.000 
#    0.000    0.000    0.000    0.000    0.000    0.000 
#
# Total GULP energy -268211.018442 kJ/mol
# GULP energy per Si atom -5587.729551 kJ/mol
# Density = 1.927882 g / cm^3
# Si number density = 19.322802 Si / 1000 Ang^3
#
#
#
# Elastic Constant Matrix: (Units=GPa)
#
#
# Indices 1 2 3 4 5 6 
#
# 1 182.1174 22.5989 84.6424 0.0000 0.0000 0.0000
# 2 22.5989 19.6149 20.5516 0.0000 0.0000 0.0000
# 3 84.6424 20.5516 152.5193 0.0000 0.0000 0.0000
# 4 0.0000 0.0000 0.0000 -58.3607 0.0000 0.0000
# 5 0.0000 0.0000 0.0000 0.0000 42.0944 0.0000
# 6 0.0000 0.0000 0.0000 0.0000 0.0000 4.5766
#
#
#
# Elastic Compliance Matrix: (Units=1/GPa)
#
#
# Indices 1 2 3 4 5 6 
#
# 1 0.007830 -0.005203 -0.003644 0.000000 0.000000 0.000000
# 2 -0.005203 0.062820 -0.005577 0.000000 0.000000 0.000000
# 3 -0.003644 -0.005577 0.009331 0.000000 0.000000 0.000000
# 4 0.000000 0.000000 0.000000 -0.017135 0.000000 0.000000
# 5 0.000000 0.000000 0.000000 0.000000 0.023756 0.000000
# 6 0.000000 0.000000 0.000000 0.000000 0.000000 0.218501
#
#
# Mechanical properties :
#
#
# Convention : Reuss Voigt Hill
#
# Bulk Modulus (GPa) = 19.55752 67.75971 43.65862
# Shear Modulus (GPa) = 14.24513 12.75933 13.50223
#
# Velocity S-wave (km/s) = 2.71812 2.57247 2.64630
# Velocity P-wave (km/s) = 4.47151 6.63075 5.65514
#
# Compressibility (1/GPa) = 0.05113122
#
# Stress axis : x y z
#
# Youngs Moduli (GPa) = 127.70633 15.91850 107.17392
#
# Poissons Ratio (x) = 0.08283 0.39060
# Poissons Ratio (y) = 0.66448 0.59774
# Poissons Ratio (z) = 0.46543 0.08878
#
# Static dielectric constant tensor:
#      x y z
#    x 1.655400 0.000000 0.000000 
#    y 0.000000 1.673100 0.000000 
#    z 0.000000 0.000000 1.661390 
# 
# From -- ./inp_files/10171.got.cif
#   From: 2010.05.17/outbox.cif.g08.bks.cpg/sg62_6_cif.got.tgz:10171.got - 2010.06.03 15:25:27.
