data_PCOD9466079
_publ_section_title
;
Structure prediction by ZEFSAII (Michael W. Deem and Ramdas Pophale) SiO2 
 PCOD9466079
Probable space group: P N M A
;
_chemical_formula_sum "Si O2"
_cell_formula_units_Z 40
_cell_length_a 13.713141
_cell_length_b 8.776146
_cell_length_c 18.292946
_cell_angle_alpha 90.000000
_cell_angle_beta 90.000000
_cell_angle_gamma 90.000000
_cell_volume 2201.529115
_symmetry_space_group_name_H-M "P N M A"
_symmetry_group_IT_number 62
_symmetry_cell_setting 'orthorhombic'
loop_
_space_group_symop_operation_xyz
x,y,z
1/2-x,-y,1/2+z
1/2+x,1/2-y,1/2-z
-x,1/2+y,-z
-x,-y,-z
1/2+x,y,1/2-z
1/2-x,1/2+y,1/2+z
x,1/2-y,z
loop_
_atom_site_type_symbol
_atom_site_label
_atom_site_fract_x
_atom_site_fract_y
_atom_site_fract_z
Si Si1 0.802475 0.567768 0.525259
Si Si2 0.409794 0.069111 0.835091
Si Si3 0.399075 0.932435 0.528258
Si Si4 0.675498 0.069178 0.310575
Si Si5 0.114649 0.567663 0.622413
O O1 0.804093 0.750000 0.524471
O O2 0.846610 0.505207 0.600154
O O3 0.692988 0.506962 0.512588
O O4 0.865270 0.503684 0.457215
O O5 0.411828 0.250000 0.844200
O O6 0.364138 0.023706 0.757492
O O7 0.518449 0.002169 0.842572
O O8 0.395790 0.750000 0.518389
O O9 0.383001 0.963089 0.614560
O O10 0.500000 0.000000 0.500000
O O11 0.666568 0.250000 0.295080
O O12 0.788520 0.037285 0.329702
O O13 0.104989 0.750000 0.614810
#
# Coordination Sequence:
#
# PCOD9466079 Si02
#       5
#     8   8   8   8   8
#     4  11  22  38  60  85 115 150 192 237 283 338
#     4  12  24  37  58  87 117 150 191 236 284 340
#     4  10  21  39  62  87 117 153 193 235 283 339
#     4   9  21  40  59  82 114 150 187 233 286 336
#     4  10  21  40  62  83 113 149 188 235 288 343
#
# _framework density 18.16919
#
# number of rings (size 3 to 8) (size 9 to 14) (size 15 to 20)
#    0.000    1.600    0.000    6.600    0.000    6.400 
#    0.000    2.000    0.000    0.000    0.000    0.000 
#    0.000    0.000    0.000    0.000    0.000    0.000 
#
# Total GULP energy -223624.561402 kJ/mol
# GULP energy per Si atom -5590.614035 kJ/mol
# Density = 1.812784 g / cm^3
# Si number density = 18.169190 Si / 1000 Ang^3
#
#
#
# Elastic Constant Matrix: (Units=GPa)
#
#
# Indices 1 2 3 4 5 6 
#
# 1 115.0100 86.7853 92.8806 0.0000 0.0000 0.0000
# 2 86.7853 152.1219 93.3365 0.0000 0.0000 0.0000
# 3 92.8806 93.3365 116.1094 0.0000 0.0000 0.0000
# 4 0.0000 0.0000 0.0000 37.0692 0.0000 0.0000
# 5 0.0000 0.0000 0.0000 0.0000 16.1786 0.0000
# 6 0.0000 0.0000 0.0000 0.0000 0.0000 36.0613
#
#
#
# Elastic Compliance Matrix: (Units=1/GPa)
#
#
# Indices 1 2 3 4 5 6 
#
# 1 0.025770 -0.004052 -0.017357 0.000000 0.000000 0.000000
# 2 -0.004052 0.013609 -0.007698 0.000000 0.000000 0.000000
# 3 -0.017357 -0.007698 0.028686 0.000000 0.000000 0.000000
# 4 0.000000 0.000000 0.000000 0.026977 0.000000 0.000000
# 5 0.000000 0.000000 0.000000 0.000000 0.061810 0.000000
# 6 0.000000 0.000000 0.000000 0.000000 0.000000 0.027731
#
#
# Mechanical properties :
#
#
# Convention : Reuss Voigt Hill
#
# Bulk Modulus (GPa) = 101.52809 103.24957 102.38883
# Shear Modulus (GPa) = 20.31868 25.21108 22.76488
#
# Velocity S-wave (km/s) = 3.34773 3.72906 3.54353
# Velocity P-wave (km/s) = 8.42281 8.68857 8.55672
#
# Compressibility (1/GPa) = 0.00984949
#
# Stress axis : x y z
#
# Youngs Moduli (GPa) = 38.80512 73.48255 34.86077
#
# Poissons Ratio (x) = 0.29775 0.60508
# Poissons Ratio (y) = 0.15724 0.26837
# Poissons Ratio (z) = 0.67354 0.56569
#
# Static dielectric constant tensor:
#      x y z
#    x 1.602880 0.000000 0.000000 
#    y 0.000000 1.603720 0.000000 
#    z 0.000000 0.000000 1.591610 
# 
# From -- ./inp_files/26463.got.cif
#   From: 2010.05.17/outbox.cif.g08.bks.cpg/sg62_14_cif.got.tgz:26463.got - 2010.06.03 15:25:27.
