data_PCOD9466733
_publ_section_title
;
Structure prediction by ZEFSAII (Michael W. Deem and Ramdas Pophale) SiO2 
 PCOD9466733
Probable space group: P N M A
;
_chemical_formula_sum "Si O2"
_cell_formula_units_Z 24
_cell_length_a 8.896496
_cell_length_b 11.520931
_cell_length_c 9.448497
_cell_angle_alpha 90.000000
_cell_angle_beta 90.000000
_cell_angle_gamma 90.000000
_cell_volume 968.432360
_symmetry_space_group_name_H-M "P N M A"
_symmetry_group_IT_number 62
_symmetry_cell_setting 'orthorhombic'
loop_
_space_group_symop_operation_xyz
x,y,z
1/2-x,-y,1/2+z
1/2+x,1/2-y,1/2-z
-x,1/2+y,-z
-x,-y,-z
1/2+x,y,1/2-z
1/2-x,1/2+y,1/2+z
x,1/2-y,z
loop_
_atom_site_type_symbol
_atom_site_label
_atom_site_fract_x
_atom_site_fract_y
_atom_site_fract_z
Si Si1 0.238281 0.250000 0.220305
Si Si2 0.563907 0.750000 0.531821
Si Si3 0.156999 0.512697 0.576640
Si Si4 0.646080 0.378583 0.643581
O O1 0.067216 0.250000 0.156690
O O2 0.277936 0.250000 0.388112
O O3 0.314865 0.366329 0.159650
O O4 0.517266 0.855543 0.426629
O O5 0.273839 0.524754 0.449049
O O6 0.155741 0.414461 0.695407
O O7 0.000000 0.500000 0.500000
O O8 0.719058 0.250000 0.626548
#
# Coordination Sequence:
#
# PCOD9466733 Si02
#       4
#     4   4   8   8
#     4  10  22  41  65 101 135 172 232 276 352 402
#     4   8  20  43  63  97 137 174 226 280 338 416
#     4  11  24  42  70  93 138 179 229 288 340 415
#     4   9  23  46  62  97 136 173 229 281 350 403
#
# _framework density 24.782319999999999
#
# number of rings (size 3 to 8) (size 9 to 14) (size 15 to 20)
#    1.000    1.333    1.667    0.000   11.667    1.333 
#    3.000    0.000    0.000    0.000    0.000    0.000 
#    0.000    0.000    0.000    0.000    0.000    0.000 
#
# Total GULP energy -133948.113838 kJ/mol
# GULP energy per Si atom -5581.171410 kJ/mol
# Density = 2.472591 g / cm^3
# Si number density = 24.782320 Si / 1000 Ang^3
#
#
#
# Elastic Constant Matrix: (Units=GPa)
#
#
# Indices 1 2 3 4 5 6 
#
# 1 53.2853 18.2403 41.7594 0.0000 0.0000 0.0000
# 2 18.2403 73.0118 20.6951 0.0000 0.0000 0.0000
# 3 41.7594 20.6951 178.6866 0.0000 0.0000 0.0000
# 4 0.0000 0.0000 0.0000 55.3737 0.0000 0.0000
# 5 0.0000 0.0000 0.0000 0.0000 39.2140 0.0000
# 6 0.0000 0.0000 0.0000 0.0000 0.0000 9.0974
#
#
#
# Elastic Compliance Matrix: (Units=1/GPa)
#
#
# Indices 1 2 3 4 5 6 
#
# 1 0.024401 -0.004632 -0.005166 0.000000 0.000000 0.000000
# 2 -0.004632 0.015040 -0.000660 0.000000 0.000000 0.000000
# 3 -0.005166 -0.000660 0.006880 0.000000 0.000000 0.000000
# 4 0.000000 0.000000 0.000000 0.018059 0.000000 0.000000
# 5 0.000000 0.000000 0.000000 0.000000 0.025501 0.000000
# 6 0.000000 0.000000 0.000000 0.000000 0.000000 0.109921
#
#
# Mechanical properties :
#
#
# Convention : Reuss Voigt Hill
#
# Bulk Modulus (GPa) = 39.35934 51.81925 45.58930
# Shear Modulus (GPa) = 21.81629 35.68962 28.75295
#
# Velocity S-wave (km/s) = 2.97023 3.79901 3.40990
# Velocity P-wave (km/s) = 5.26113 6.34023 5.82572
#
# Compressibility (1/GPa) = 0.02540693
#
# Stress axis : x y z
#
# Youngs Moduli (GPa) = 40.98183 66.48726 145.34650
#
# Poissons Ratio (x) = 0.30795 0.75088
# Poissons Ratio (y) = 0.18982 0.09586
# Poissons Ratio (z) = 0.21172 0.04385
#
# Static dielectric constant tensor:
#      x y z
#    x 1.932300 0.000000 0.000000 
#    y 0.000000 2.030180 0.000000 
#    z 0.000000 0.000000 1.948450 
# 
# From -- ./inp_files/4720.got.cif
#   From: 2010.05.17/outbox.cif.g08.bks.cpg/sg62_3_cif.got.tgz:4720.got - 2010.06.03 15:25:27.
