data_PCOD9466395
_publ_section_title
;
Structure prediction by ZEFSAII (Michael W. Deem and Ramdas Pophale) SiO2 
 PCOD9466395
Probable space group: P N M A
;
_chemical_formula_sum "Si O2"
_cell_formula_units_Z 40
_cell_length_a 11.292197
_cell_length_b 12.767381
_cell_length_c 13.518322
_cell_angle_alpha 90.000000
_cell_angle_beta 90.000000
_cell_angle_gamma 90.000000
_cell_volume 1948.960565
_symmetry_space_group_name_H-M "P N M A"
_symmetry_group_IT_number 62
_symmetry_cell_setting 'orthorhombic'
loop_
_space_group_symop_operation_xyz
x,y,z
1/2-x,-y,1/2+z
1/2+x,1/2-y,1/2-z
-x,1/2+y,-z
-x,-y,-z
1/2+x,y,1/2-z
1/2-x,1/2+y,1/2+z
x,1/2-y,z
loop_
_atom_site_type_symbol
_atom_site_label
_atom_site_fract_x
_atom_site_fract_y
_atom_site_fract_z
Si Si1 0.391400 0.043180 0.566308
Si Si2 0.578532 0.371814 0.710331
Si Si3 0.260089 0.448385 0.372413
Si Si4 0.234183 0.636341 0.667682
Si Si5 0.987523 0.025175 0.386393
O O1 0.457515 0.116250 0.645862
O O2 0.500000 0.000000 0.500000
O O3 0.300730 0.084476 0.482247
O O4 0.322331 0.952819 0.626667
O O5 0.607974 0.250000 0.722270
O O6 0.680201 0.438409 0.652613
O O7 0.559404 0.432809 0.814131
O O8 0.300118 0.375113 0.282969
O O9 0.120362 0.449194 0.356173
O O10 0.285181 0.750000 0.646670
O O11 0.108018 0.617188 0.617511
O O12 0.000000 0.000000 0.500000
#
# Coordination Sequence:
#
# PCOD9466395 Si02
#       5
#     8   8   8   8   8
#     4  10  21  42  66  93 129 168 214 267 308 380
#     4  10  23  42  67  94 125 171 218 261 316 380
#     4  10  22  43  65  91 133 166 208 272 320 374
#     4  11  24  42  66  94 129 174 213 259 325 386
#     4  11  22  42  63  94 133 163 211 269 319 376
#
# _framework density 20.523761
#
# number of rings (size 3 to 8) (size 9 to 14) (size 15 to 20)
#    0.000    1.600    4.000    0.000    0.000    6.400 
#    0.000    0.000    0.000    0.000    0.000    0.000 
#    0.000    0.000    0.000    0.000    0.000    0.000 
#
# Total GULP energy -222943.146449 kJ/mol
# GULP energy per Si atom -5573.578661 kJ/mol
# Density = 2.047705 g / cm^3
# Si number density = 20.523761 Si / 1000 Ang^3
#
#
#
# Elastic Constant Matrix: (Units=GPa)
#
#
# Indices 1 2 3 4 5 6 
#
# 1 59.2153 2.2599 -22.5742 0.0000 0.0000 0.0000
# 2 2.2599 46.6726 -0.3420 0.0000 0.0000 0.0000
# 3 -22.5742 -0.3420 99.1906 0.0000 0.0000 0.0000
# 4 0.0000 0.0000 0.0000 3.4512 0.0000 0.0000
# 5 0.0000 0.0000 0.0000 0.0000 35.4394 0.0000
# 6 0.0000 0.0000 0.0000 0.0000 0.0000 18.6254
#
#
#
# Elastic Compliance Matrix: (Units=1/GPa)
#
#
# Indices 1 2 3 4 5 6 
#
# 1 0.018527 -0.000866 0.004213 0.000000 0.000000 0.000000
# 2 -0.000866 0.021467 -0.000123 0.000000 0.000000 0.000000
# 3 0.004213 -0.000123 0.011040 0.000000 0.000000 0.000000
# 4 0.000000 0.000000 0.000000 0.289757 0.000000 0.000000
# 5 0.000000 0.000000 0.000000 0.000000 0.028217 0.000000
# 6 0.000000 0.000000 0.000000 0.000000 0.000000 0.053690
#
#
# Mechanical properties :
#
#
# Convention : Reuss Voigt Hill
#
# Bulk Modulus (GPa) = 17.39674 18.19621 17.79648
# Shear Modulus (GPa) = 11.48341 26.55218 19.01780
#
# Velocity S-wave (km/s) = 2.36798 3.60075 3.04735
# Velocity P-wave (km/s) = 3.99640 5.11589 4.59040
#
# Compressibility (1/GPa) = 0.05748202
#
# Stress axis : x y z
#
# Youngs Moduli (GPa) = 53.97570 46.58336 90.57896
#
# Poissons Ratio (x) = 0.04035 -0.38165
# Poissons Ratio (y) = 0.04675 0.01115
# Poissons Ratio (z) = -0.22742 0.00574
#
# Static dielectric constant tensor:
#      x y z
#    x 1.678430 0.000000 0.000000 
#    y 0.000000 1.691290 0.000000 
#    z 0.000000 0.000000 1.749960 
# 
# From -- ./inp_files/17807.got.cif
#   From: 2010.05.17/outbox.cif.g08.bks.cpg/sg62_9_cif.got.tgz:17807.got - 2010.06.03 15:25:27.
