data_PCOD9466778
_publ_section_title
;
Structure prediction by ZEFSAII (Michael W. Deem and Ramdas Pophale) SiO2 
 PCOD9466778
Probable space group: P N M A
;
_chemical_formula_sum "Si O2"
_cell_formula_units_Z 60
_cell_length_a 8.517700
_cell_length_b 32.165435
_cell_length_c 10.540792
_cell_angle_alpha 90.000000
_cell_angle_beta 90.000000
_cell_angle_gamma 90.000000
_cell_volume 2887.919029
_symmetry_space_group_name_H-M "P N M A"
_symmetry_group_IT_number 62
_symmetry_cell_setting 'orthorhombic'
loop_
_space_group_symop_operation_xyz
x,y,z
1/2-x,-y,1/2+z
1/2+x,1/2-y,1/2-z
-x,1/2+y,-z
-x,-y,-z
1/2+x,y,1/2-z
1/2-x,1/2+y,1/2+z
x,1/2-y,z
loop_
_atom_site_type_symbol
_atom_site_label
_atom_site_fract_x
_atom_site_fract_y
_atom_site_fract_z
Si Si1 0.372833 0.158370 0.800072
Si Si2 0.672959 0.901524 0.645376
Si Si3 0.920217 0.700459 0.080079
Si Si4 0.415908 0.186885 0.318516
Si Si5 0.130931 0.250000 0.332071
Si Si6 0.104001 0.490391 0.621532
Si Si7 0.397273 0.540936 0.682933
Si Si8 0.841242 0.607071 0.383772
O O1 0.254083 0.186053 0.881594
O O2 0.463404 0.184462 0.691033
O O3 0.267604 0.124477 0.727803
O O4 0.502047 0.134487 0.881472
O O5 0.627800 0.859843 0.720917
O O6 0.793390 0.930412 0.722733
O O7 0.517353 0.928219 0.613656
O O8 0.753553 0.887737 0.516084
O O9 0.926419 0.750000 0.072867
O O10 0.972986 0.683846 0.942980
O O11 0.263987 0.213529 0.358515
O O12 0.504226 0.213717 0.212654
O O13 0.270800 0.513762 0.607467
O O14 0.125566 0.441416 0.635888
O O15 0.000000 0.500000 0.500000
O O16 0.008752 0.509905 0.738566
#
# Coordination Sequence:
#
# PCOD9466778 Si02
#       8
#     8   8   8   8   4   8   8   8
#     4  10  24  41  66  94 127 166 208 261 323 375
#     4  11  22  43  65  94 128 169 214 269 322 384
#     4  11  21  43  65  92 127 161 207 260 317 379
#     4  11  22  42  64  91 125 164 209 260 312 382
#     4  10  22  42  62  86 122 160 202 254 308 370
#     4  11  22  42  64  92 130 171 219 265 320 389
#     4  10  24  42  63  92 131 173 213 270 328 375
#     4  11  22  43  64  95 127 169 214 263 321 382
#
# _framework density 20.776206999999999
#
# number of rings (size 3 to 8) (size 9 to 14) (size 15 to 20)
#    0.000    1.333    4.000    2.000    0.000    1.600 
#    9.600    0.000    1.467    0.000    0.000    0.000 
#    0.000    0.000    0.000    0.000    0.000    0.000 
#
# Total GULP energy -334424.507467 kJ/mol
# GULP energy per Si atom -5573.741791 kJ/mol
# Density = 2.072892 g / cm^3
# Si number density = 20.776207 Si / 1000 Ang^3
#
#
#
# Elastic Constant Matrix: (Units=GPa)
#
#
# Indices 1 2 3 4 5 6 
#
# 1 110.0540 28.0981 11.5068 0.0000 0.0000 0.0000
# 2 28.0981 66.2788 -7.1531 0.0000 0.0000 0.0000
# 3 11.5068 -7.1531 11.6257 0.0000 0.0000 0.0000
# 4 0.0000 0.0000 0.0000 9.0681 0.0000 0.0000
# 5 0.0000 0.0000 0.0000 0.0000 23.7053 0.0000
# 6 0.0000 0.0000 0.0000 0.0000 0.0000 46.3833
#
#
#
# Elastic Compliance Matrix: (Units=1/GPa)
#
#
# Indices 1 2 3 4 5 6 
#
# 1 0.012712 -0.007227 -0.017029 0.000000 0.000000 0.000000
# 2 -0.007227 0.020270 0.019625 0.000000 0.000000 0.000000
# 3 -0.017029 0.019625 0.114946 0.000000 0.000000 0.000000
# 4 0.000000 0.000000 0.000000 0.110276 0.000000 0.000000
# 5 0.000000 0.000000 0.000000 0.000000 0.042185 0.000000
# 6 0.000000 0.000000 0.000000 0.000000 0.000000 0.021559
#
#
# Mechanical properties :
#
#
# Convention : Reuss Voigt Hill
#
# Bulk Modulus (GPa) = 7.21160 28.09577 17.65369
# Shear Modulus (GPa) = 13.24743 26.19847 19.72295
#
# Velocity S-wave (km/s) = 2.52786 3.55489 3.08442
# Velocity P-wave (km/s) = 3.46392 5.51380 4.60439
#
# Compressibility (1/GPa) = 0.13866555
#
# Stress axis : x y z
#
# Youngs Moduli (GPa) = 78.66561 49.33513 8.69973
#
# Poissons Ratio (x) = 0.35654 0.14815
# Poissons Ratio (y) = 0.56851 -0.17073
# Poissons Ratio (z) = 1.33958 -0.96818
#
# Static dielectric constant tensor:
#      x y z
#    x 1.755760 0.000000 0.000000 
#    y 0.000000 1.729030 0.000000 
#    z 0.000000 0.000000 1.740420 
# 
# From -- ./inp_files/11526.got.cif
#   From: 2010.05.17/outbox.cif.g08.bks.cpg/sg62_6_cif.got.tgz:11526.got - 2010.06.03 15:25:27.
