data_PCOD9466023
_publ_section_title
;
Structure prediction by ZEFSAII (Michael W. Deem and Ramdas Pophale) SiO2 
 PCOD9466023
Probable space group: P N M A
;
_chemical_formula_sum "Si O2"
_cell_formula_units_Z 40
_cell_length_a 14.013855
_cell_length_b 22.940711
_cell_length_c 6.491931
_cell_angle_alpha 90.000000
_cell_angle_beta 90.000000
_cell_angle_gamma 90.000000
_cell_volume 2087.076599
_symmetry_space_group_name_H-M "P N M A"
_symmetry_group_IT_number 62
_symmetry_cell_setting 'orthorhombic'
loop_
_space_group_symop_operation_xyz
x,y,z
1/2-x,-y,1/2+z
1/2+x,1/2-y,1/2-z
-x,1/2+y,-z
-x,-y,-z
1/2+x,y,1/2-z
1/2-x,1/2+y,1/2+z
x,1/2-y,z
loop_
_atom_site_type_symbol
_atom_site_label
_atom_site_fract_x
_atom_site_fract_y
_atom_site_fract_z
Si Si1 0.877372 0.606098 0.271605
Si Si2 0.673838 0.624803 0.162234
Si Si3 0.007371 0.817769 0.573630
Si Si4 0.602003 0.983405 0.901046
Si Si5 0.953045 0.397261 0.044926
O O1 0.785679 0.636355 0.173421
O O2 0.845122 0.544489 0.369409
O O3 0.930435 0.645633 0.440844
O O4 0.956555 0.590387 0.100650
O O5 0.631249 0.620836 0.391472
O O6 0.608724 0.670598 0.039146
O O7 0.654069 0.563156 0.047004
O O8 0.984351 0.750000 0.579320
O O9 0.017502 0.846249 0.797883
O O10 0.579908 0.950701 0.687133
O O11 0.500000 0.000000 0.000000
#
# Coordination Sequence:
#
# PCOD9466023 Si02
#       5
#     8   8   8   8   8
#     4  11  23  38  62  93 122 156 204 242 305 360
#     4  10  24  38  60  94 123 156 198 249 300 363
#     4  10  23  44  62  83 119 161 210 253 296 349
#     4  11  20  37  58  90 126 161 190 241 297 368
#     4  10  21  39  59  84 124 162 197 243 303 354
#
# _framework density 19.165564
#
# number of rings (size 3 to 8) (size 9 to 14) (size 15 to 20)
#    0.000    1.600    6.000    0.600    2.800    7.200 
#    0.000    2.000    0.000    0.000    0.000    0.000 
#    0.000    0.000    0.000    0.000    0.000    0.000 
#
# Total GULP energy -223359.299429 kJ/mol
# GULP energy per Si atom -5583.982486 kJ/mol
# Density = 1.912194 g / cm^3
# Si number density = 19.165564 Si / 1000 Ang^3
#
#
#
# Elastic Constant Matrix: (Units=GPa)
#
#
# Indices 1 2 3 4 5 6 
#
# 1 69.0969 -0.8649 5.9306 0.0000 0.0000 0.0000
# 2 -0.8649 124.9086 40.7970 0.0000 0.0000 0.0000
# 3 5.9306 40.7970 94.3777 0.0000 0.0000 0.0000
# 4 0.0000 0.0000 0.0000 8.5754 0.0000 0.0000
# 5 0.0000 0.0000 0.0000 0.0000 5.2378 0.0000
# 6 0.0000 0.0000 0.0000 0.0000 0.0000 12.2918
#
#
#
# Elastic Compliance Matrix: (Units=1/GPa)
#
#
# Indices 1 2 3 4 5 6 
#
# 1 0.014574 0.000466 -0.001117 0.000000 0.000000 0.000000
# 2 0.000466 0.009337 -0.004065 0.000000 0.000000 0.000000
# 3 -0.001117 -0.004065 0.012423 0.000000 0.000000 0.000000
# 4 0.000000 0.000000 0.000000 0.116612 0.000000 0.000000
# 5 0.000000 0.000000 0.000000 0.000000 0.190922 0.000000
# 6 0.000000 0.000000 0.000000 0.000000 0.000000 0.081355
#
#
# Mechanical properties :
#
#
# Convention : Reuss Voigt Hill
#
# Bulk Modulus (GPa) = 37.17358 42.23429 39.70393
# Shear Modulus (GPa) = 11.27081 21.38903 16.32992
#
# Velocity S-wave (km/s) = 2.42766 3.34430 2.92215
# Velocity P-wave (km/s) = 5.22457 6.08251 5.66979
#
# Compressibility (1/GPa) = 0.02690083
#
# Stress axis : x y z
#
# Youngs Moduli (GPa) = 68.61469 107.10213 80.49413
#
# Poissons Ratio (x) = -0.04989 0.08993
# Poissons Ratio (y) = -0.03196 0.32724
# Poissons Ratio (z) = 0.07665 0.43541
#
# Static dielectric constant tensor:
#      x y z
#    x 1.659760 0.000000 0.000000 
#    y 0.000000 1.668530 0.000000 
#    z 0.000000 0.000000 1.666430 
# 
# From -- ./inp_files/1034.got.cif
#   From: 2010.05.17/outbox.cif.g08.bks.cpg/sg62_1_cif.got.tgz:1034.got - 2010.06.03 15:25:27.
