data_PCOD9466098
_publ_section_title
;
Structure prediction by ZEFSAII (Michael W. Deem and Ramdas Pophale) SiO2 
 PCOD9466098
Probable space group: P N M A
;
_chemical_formula_sum "Si O2"
_cell_formula_units_Z 40
_cell_length_a 12.746248
_cell_length_b 14.903774
_cell_length_c 9.770676
_cell_angle_alpha 90.000000
_cell_angle_beta 90.000000
_cell_angle_gamma 90.000000
_cell_volume 1856.107957
_symmetry_space_group_name_H-M "P N M A"
_symmetry_group_IT_number 62
_symmetry_cell_setting 'orthorhombic'
loop_
_space_group_symop_operation_xyz
x,y,z
1/2-x,-y,1/2+z
1/2+x,1/2-y,1/2-z
-x,1/2+y,-z
-x,-y,-z
1/2+x,y,1/2-z
1/2-x,1/2+y,1/2+z
x,1/2-y,z
loop_
_atom_site_type_symbol
_atom_site_label
_atom_site_fract_x
_atom_site_fract_y
_atom_site_fract_z
Si Si1 0.295667 0.456106 0.001263
Si Si2 0.581514 0.853157 0.223764
Si Si3 0.233706 0.348072 0.548518
Si Si4 0.069311 0.019241 0.867159
Si Si5 0.847875 0.350405 0.245954
O O1 0.324874 0.556620 0.050408
O O2 0.279802 0.390944 0.130712
O O3 0.381244 0.412338 0.903327
O O4 0.187691 0.462976 0.916169
O O5 0.568318 0.750000 0.184758
O O6 0.673162 0.856356 0.339838
O O7 0.479363 0.896387 0.290750
O O8 0.182123 0.250000 0.570356
O O9 0.284885 0.345324 0.396758
O O10 0.066343 0.927856 0.778531
O O11 0.000000 0.000000 0.000000
O O12 0.885990 0.250000 0.277213
#
# Coordination Sequence:
#
# PCOD9466098 Si02
#       5
#     8   8   8   8   8
#     4  11  22  40  67  94 131 172 212 268 333 379
#     4  11  23  41  64  97 134 171 217 269 320 392
#     4   9  18  35  60  87 124 166 211 260 312 376
#     4  11  23  40  70  94 129 175 219 265 325 392
#     4  10  21  39  62  95 131 165 214 274 318 377
#
# _framework density 21.550471000000002
#
# number of rings (size 3 to 8) (size 9 to 14) (size 15 to 20)
#    0.000    1.600    4.000    3.000    0.000    2.400 
#    0.000    2.000    0.000    0.000    0.000    0.000 
#    0.000    0.000    0.000    0.000    0.000    0.000 
#
# Total GULP energy -223402.299232 kJ/mol
# GULP energy per Si atom -5585.057481 kJ/mol
# Density = 2.150142 g / cm^3
# Si number density = 21.550471 Si / 1000 Ang^3
#
#
#
# Elastic Constant Matrix: (Units=GPa)
#
#
# Indices 1 2 3 4 5 6 
#
# 1 44.2536 41.3515 11.1635 0.0000 0.0000 0.0000
# 2 41.3515 217.6900 43.1751 0.0000 0.0000 0.0000
# 3 11.1635 43.1751 68.0601 0.0000 0.0000 0.0000
# 4 0.0000 0.0000 0.0000 38.7808 0.0000 0.0000
# 5 0.0000 0.0000 0.0000 0.0000 17.7715 0.0000
# 6 0.0000 0.0000 0.0000 0.0000 0.0000 32.9445
#
#
#
# Elastic Compliance Matrix: (Units=1/GPa)
#
#
# Indices 1 2 3 4 5 6 
#
# 1 0.027585 -0.004968 -0.001373 0.000000 0.000000 0.000000
# 2 -0.004968 0.006149 -0.003086 0.000000 0.000000 0.000000
# 3 -0.001373 -0.003086 0.016876 0.000000 0.000000 0.000000
# 4 0.000000 0.000000 0.000000 0.025786 0.000000 0.000000
# 5 0.000000 0.000000 0.000000 0.000000 0.056270 0.000000
# 6 0.000000 0.000000 0.000000 0.000000 0.000000 0.030354
#
#
# Mechanical properties :
#
#
# Convention : Reuss Voigt Hill
#
# Bulk Modulus (GPa) = 31.48978 57.93155 44.71067
# Shear Modulus (GPa) = 25.97937 33.52026 29.74982
#
# Velocity S-wave (km/s) = 3.47582 3.94817 3.71950
# Velocity P-wave (km/s) = 5.54547 6.90827 6.26404
#
# Compressibility (1/GPa) = 0.03175633
#
# Stress axis : x y z
#
# Youngs Moduli (GPa) = 36.25117 162.61742 59.25600
#
# Poissons Ratio (x) = 0.80782 0.08138
# Poissons Ratio (y) = 0.18008 0.18287
# Poissons Ratio (z) = 0.04979 0.50186
#
# Static dielectric constant tensor:
#      x y z
#    x 1.773790 0.000000 0.000000 
#    y 0.000000 1.803910 0.000000 
#    z 0.000000 0.000000 1.790330 
# 
# From -- ./inp_files/6121.got.cif
#   From: 2010.05.17/outbox.cif.g08.bks.cpg/sg62_4_cif.got.tgz:6121.got - 2010.06.03 15:25:27.
