data_PCOD9466080
_publ_section_title
;
Structure prediction by ZEFSAII (Michael W. Deem and Ramdas Pophale) SiO2 
 PCOD9466080
Probable space group: P N M A
;
_chemical_formula_sum "Si O2"
_cell_formula_units_Z 64
_cell_length_a 17.805702
_cell_length_b 8.867853
_cell_length_c 20.530163
_cell_angle_alpha 90.000000
_cell_angle_beta 90.000000
_cell_angle_gamma 90.000000
_cell_volume 3241.678820
_symmetry_space_group_name_H-M "P N M A"
_symmetry_group_IT_number 62
_symmetry_cell_setting 'orthorhombic'
loop_
_space_group_symop_operation_xyz
x,y,z
1/2-x,-y,1/2+z
1/2+x,1/2-y,1/2-z
-x,1/2+y,-z
-x,-y,-z
1/2+x,y,1/2-z
1/2-x,1/2+y,1/2+z
x,1/2-y,z
loop_
_atom_site_type_symbol
_atom_site_label
_atom_site_fract_x
_atom_site_fract_y
_atom_site_fract_z
Si Si1 0.666435 0.931043 0.241947
Si Si2 0.110839 0.930170 0.628501
Si Si3 0.670053 0.930293 0.509918
Si Si4 0.561524 0.568472 0.626943
Si Si5 0.946007 0.068608 0.625538
Si Si6 0.827996 0.430677 0.513971
Si Si7 0.335960 0.570049 0.262134
Si Si8 0.886659 0.930715 0.876418
O O1 0.663749 0.750000 0.251010
O O2 0.603862 0.971066 0.188647
O O3 0.750466 0.968684 0.218214
O O4 0.650161 0.009954 0.310245
O O5 0.114002 0.750000 0.636424
O O6 0.150108 0.969114 0.560085
O O7 0.149754 0.008711 0.689772
O O8 0.024897 0.984794 0.625805
O O9 0.669841 0.750000 0.505026
O O10 0.606668 0.976826 0.562026
O O11 0.751250 0.987698 0.532608
O O12 0.652316 0.001277 0.439952
O O13 0.564280 0.750000 0.631758
O O14 0.604072 0.500131 0.688710
O O15 0.474514 0.523763 0.623878
O O16 0.958514 0.250000 0.626159
O O17 0.896125 0.031283 0.562291
O O18 0.816560 0.250000 0.518303
O O19 0.343929 0.750000 0.262547
O O20 0.881759 0.750000 0.878984
#
# Coordination Sequence:
#
# PCOD9466080 Si02
#       8
#     8   8   8   8   8   8   8   8
#     4  10  22  39  59  86 117 150 192 240 288 340
#     4  11  23  38  58  86 120 155 193 240 290 341
#     4  11  23  39  61  88 118 152 192 239 289 345
#     4  10  23  41  60  87 119 150 190 239 290 345
#     4  10  21  39  62  87 117 153 195 241 289 345
#     4  10  22  40  61  87 119 154 194 240 289 343
#     4  11  23  39  61  86 115 154 195 237 287 343
#     4  11  23  39  60  85 116 154 193 236 287 342
#
# _framework density 19.742856
#
# number of rings (size 3 to 8) (size 9 to 14) (size 15 to 20)
#    0.000    1.500    0.000    4.500    0.000   10.000 
#    0.000    0.000    0.000    0.000    0.000    0.000 
#    0.000    0.000    0.000    0.000    0.000    0.000 
#
# Total GULP energy -358022.047918 kJ/mol
# GULP energy per Si atom -5594.094499 kJ/mol
# Density = 1.969792 g / cm^3
# Si number density = 19.742856 Si / 1000 Ang^3
#
#
#
# Elastic Constant Matrix: (Units=GPa)
#
#
# Indices 1 2 3 4 5 6 
#
# 1 75.3755 12.6816 -14.5567 0.0000 0.0000 0.0000
# 2 12.6816 8.4881 6.0562 0.0000 0.0000 0.0000
# 3 -14.5567 6.0562 61.3948 0.0000 0.0000 0.0000
# 4 0.0000 0.0000 0.0000 -10.7165 0.0000 0.0000
# 5 0.0000 0.0000 0.0000 0.0000 39.5285 0.0000
# 6 0.0000 0.0000 0.0000 0.0000 0.0000 34.9123
#
#
#
# Elastic Compliance Matrix: (Units=1/GPa)
#
#
# Indices 1 2 3 4 5 6 
#
# 1 0.021429 -0.038339 0.008863 0.000000 0.000000 0.000000
# 2 -0.038339 0.195325 -0.028358 0.000000 0.000000 0.000000
# 3 0.008863 -0.028358 0.021187 0.000000 0.000000 0.000000
# 4 0.000000 0.000000 0.000000 -0.093314 0.000000 0.000000
# 5 0.000000 0.000000 0.000000 0.000000 0.025298 0.000000
# 6 0.000000 0.000000 0.000000 0.000000 0.000000 0.028643
#
#
# Mechanical properties :
#
#
# Convention : Reuss Voigt Hill
#
# Bulk Modulus (GPa) = 8.17846 17.06895 12.62371
# Shear Modulus (GPa) = 14.08477 22.15002 18.11739
#
# Velocity S-wave (km/s) = 2.67387 3.35315 3.03259
# Velocity P-wave (km/s) = 3.69923 4.86373 4.32089
#
# Compressibility (1/GPa) = 0.12227244
#
# Stress axis : x y z
#
# Youngs Moduli (GPa) = 46.66607 5.11967 47.19948
#
# Poissons Ratio (x) = 0.19628 -0.41831
# Poissons Ratio (y) = 1.78913 1.33847
# Poissons Ratio (z) = -0.41359 0.14518
#
# Static dielectric constant tensor:
#      x y z
#    x 1.674170 0.000000 0.000000 
#    y 0.000000 1.658230 0.000000 
#    z 0.000000 0.000000 1.661460 
# 
# From -- ./inp_files/27695.got.cif
#   From: 2010.05.17/outbox.cif.g08.bks.cpg/sg62_14_cif.got.tgz:27695.got - 2010.06.03 15:25:27.
