data_PCOD9466943
_publ_section_title
;
Structure prediction by ZEFSAII (Michael W. Deem and Ramdas Pophale) SiO2 
 PCOD9466943
Probable space group: P N M A
;
_chemical_formula_sum "Si O2"
_cell_formula_units_Z 40
_cell_length_a 7.680954
_cell_length_b 26.475542
_cell_length_c 8.200174
_cell_angle_alpha 90.000000
_cell_angle_beta 90.000000
_cell_angle_gamma 90.000000
_cell_volume 1667.566230
_symmetry_space_group_name_H-M "P N M A"
_symmetry_group_IT_number 62
_symmetry_cell_setting 'orthorhombic'
loop_
_space_group_symop_operation_xyz
x,y,z
1/2-x,-y,1/2+z
1/2+x,1/2-y,1/2-z
-x,1/2+y,-z
-x,-y,-z
1/2+x,y,1/2-z
1/2-x,1/2+y,1/2+z
x,1/2-y,z
loop_
_atom_site_type_symbol
_atom_site_label
_atom_site_fract_x
_atom_site_fract_y
_atom_site_fract_z
Si Si1 0.626643 0.551662 0.822058
Si Si2 0.122787 0.250000 0.187007
Si Si3 0.736374 0.750000 0.485281
Si Si4 0.235179 0.349732 0.015911
Si Si5 0.237910 0.050065 0.514422
Si Si6 0.127984 0.648932 0.180327
O O1 0.617631 0.548591 0.627166
O O2 0.442556 0.554448 0.914275
O O3 0.729103 0.601944 0.873392
O O4 0.721847 0.501033 0.883403
O O5 0.111966 0.250000 0.381911
O O6 0.937590 0.250000 0.097128
O O7 0.219612 0.300346 0.126350
O O8 0.725470 0.800359 0.378794
O O9 0.380798 0.347836 0.875212
O O10 0.055783 0.352869 0.913178
O O11 0.273928 0.097718 0.628898
#
# Coordination Sequence:
#
# PCOD9466943 Si02
#       6
#     8   4   4   8   8   8
#     4  11  24  41  62  89 121 157 198 245 296 351
#     4  10  23  40  60  88 120 156 197 244 295 350
#     4  10  23  40  60  88 120 156 197 244 295 350
#     4  11  23  40  62  89 121 157 199 245 296 352
#     4  11  24  41  62  89 121 157 198 245 296 351
#     4  11  23  40  62  89 121 157 199 245 296 352
#
# _framework density 23.987054000000001
#
# number of rings (size 3 to 8) (size 9 to 14) (size 15 to 20)
#    0.000    1.200    0.000    5.400    0.000   12.800 
#    0.000    0.000    0.000    0.000    0.000    0.000 
#    0.000    0.000    0.000    0.000    0.000    0.000 
#
# Total GULP energy -224258.301624 kJ/mol
# GULP energy per Si atom -5606.457541 kJ/mol
# Density = 2.393246 g / cm^3
# Si number density = 23.987054 Si / 1000 Ang^3
#
#
#
# Elastic Constant Matrix: (Units=GPa)
#
#
# Indices 1 2 3 4 5 6 
#
# 1 61.9850 23.6006 -23.4032 0.0000 0.0000 0.0000
# 2 23.6006 174.9153 28.0085 0.0000 0.0000 0.0000
# 3 -23.4032 28.0085 74.6693 0.0000 0.0000 0.0000
# 4 0.0000 0.0000 0.0000 46.9217 0.0000 0.0000
# 5 0.0000 0.0000 0.0000 0.0000 37.9191 0.0000
# 6 0.0000 0.0000 0.0000 0.0000 0.0000 25.2038
#
#
#
# Elastic Compliance Matrix: (Units=1/GPa)
#
#
# Indices 1 2 3 4 5 6 
#
# 1 0.020715 -0.004080 0.008023 0.000000 0.000000 0.000000
# 2 -0.004080 0.006886 -0.003862 0.000000 0.000000 0.000000
# 3 0.008023 -0.003862 0.017355 0.000000 0.000000 0.000000
# 4 0.000000 0.000000 0.000000 0.021312 0.000000 0.000000
# 5 0.000000 0.000000 0.000000 0.000000 0.026372 0.000000
# 6 0.000000 0.000000 0.000000 0.000000 0.000000 0.039677
#
#
# Mechanical properties :
#
#
# Convention : Reuss Voigt Hill
#
# Bulk Modulus (GPa) = 22.16299 40.88683 31.52491
# Shear Modulus (GPa) = 33.96875 40.89984 37.43429
#
# Velocity S-wave (km/s) = 3.76723 4.13374 3.95473
# Velocity P-wave (km/s) = 5.30870 6.31396 5.83303
#
# Compressibility (1/GPa) = 0.04512027
#
# Stress axis : x y z
#
# Youngs Moduli (GPa) = 48.27305 145.22513 57.61867
#
# Poissons Ratio (x) = 0.59248 -0.46228
# Poissons Ratio (y) = 0.19694 0.22250
# Poissons Ratio (z) = -0.38730 0.56080
#
# Static dielectric constant tensor:
#      x y z
#    x 1.995300 0.000000 0.000000 
#    y 0.000000 1.829760 0.000000 
#    z 0.000000 0.000000 1.838890 
# 
# From -- ./inp_files/4333.got.cif
#   From: 2010.05.17/outbox.cif.g08.bks.cpg/sg62_3_cif.got.tgz:4333.got - 2010.06.03 15:25:27.
