data_PCOD9466928
_publ_section_title
;
Structure prediction by ZEFSAII (Michael W. Deem and Ramdas Pophale) SiO2 
 PCOD9466928
Probable space group: P N M A
;
_chemical_formula_sum "Si O2"
_cell_formula_units_Z 36
_cell_length_a 8.977015
_cell_length_b 19.705327
_cell_length_c 8.014807
_cell_angle_alpha 90.000000
_cell_angle_beta 90.000000
_cell_angle_gamma 90.000000
_cell_volume 1417.779413
_symmetry_space_group_name_H-M "P N M A"
_symmetry_group_IT_number 62
_symmetry_cell_setting 'orthorhombic'
loop_
_space_group_symop_operation_xyz
x,y,z
1/2-x,-y,1/2+z
1/2+x,1/2-y,1/2-z
-x,1/2+y,-z
-x,-y,-z
1/2+x,y,1/2-z
1/2-x,1/2+y,1/2+z
x,1/2-y,z
loop_
_atom_site_type_symbol
_atom_site_label
_atom_site_fract_x
_atom_site_fract_y
_atom_site_fract_z
Si Si1 0.836660 0.018609 0.563803
Si Si2 0.174928 0.750000 0.057287
Si Si3 0.131838 0.750000 0.407921
Si Si4 0.164130 0.900550 0.083003
Si Si5 0.162776 0.136137 0.049955
Si Si6 0.540848 0.250000 0.242858
O O1 0.833713 0.058996 0.740144
O O2 0.762546 0.070477 0.432655
O O3 0.739217 0.950775 0.549515
O O4 0.000000 0.000000 0.500000
O O5 0.067869 0.750000 0.222277
O O6 0.241845 0.825884 0.076979
O O7 0.090547 0.750000 0.881173
O O8 0.239708 0.813479 0.437047
O O9 0.015372 0.750000 0.556738
O O10 0.992723 0.886138 0.032816
O O11 0.128617 0.181750 0.211017
#
# Coordination Sequence:
#
# PCOD9466928 Si02
#       6
#     8   4   4   8   8   4
#     4  12  26  44  73 110 154 213 265 327 413 486
#     4  10  22  48  79 108 151 196 267 322 397 472
#     4  11  21  45  81 114 151 204 258 335 407 473
#     4  11  25  50  75 111 156 208 270 337 405 489
#     4  10  23  47  73 108 162 197 268 339 391 489
#     4   9  23  43  74 114 148 204 261 335 400 471
#
# _framework density 25.391821
#
# number of rings (size 3 to 8) (size 9 to 14) (size 15 to 20)
#    0.000    1.333    2.222    2.667    0.000    5.333 
#    0.000   15.556    0.000    0.000    0.000    0.000 
#    0.000    0.000    0.000    0.000    0.000    0.000 
#
# Total GULP energy -201397.251964 kJ/mol
# GULP energy per Si atom -5594.368110 kJ/mol
# Density = 2.533403 g / cm^3
# Si number density = 25.391821 Si / 1000 Ang^3
#
#
#
# Elastic Constant Matrix: (Units=GPa)
#
#
# Indices 1 2 3 4 5 6 
#
# 1 101.1706 91.1556 55.2112 0.0000 0.0000 0.0000
# 2 91.1556 257.6671 71.9595 0.0000 0.0000 0.0000
# 3 55.2112 71.9595 186.5756 0.0000 0.0000 0.0000
# 4 0.0000 0.0000 0.0000 37.0619 0.0000 0.0000
# 5 0.0000 0.0000 0.0000 0.0000 34.9055 0.0000
# 6 0.0000 0.0000 0.0000 0.0000 0.0000 60.0793
#
#
#
# Elastic Compliance Matrix: (Units=1/GPa)
#
#
# Indices 1 2 3 4 5 6 
#
# 1 0.015722 -0.004777 -0.002810 0.000000 0.000000 0.000000
# 2 -0.004777 0.005801 -0.000824 0.000000 0.000000 0.000000
# 3 -0.002810 -0.000824 0.006509 0.000000 0.000000 0.000000
# 4 0.000000 0.000000 0.000000 0.026982 0.000000 0.000000
# 5 0.000000 0.000000 0.000000 0.000000 0.028649 0.000000
# 6 0.000000 0.000000 0.000000 0.000000 0.000000 0.016645
#
#
# Mechanical properties :
#
#
# Convention : Reuss Voigt Hill
#
# Bulk Modulus (GPa) = 89.20371 109.11842 99.16107
# Shear Modulus (GPa) = 41.36802 48.21513 44.79158
#
# Velocity S-wave (km/s) = 4.04070 4.36230 4.20458
# Velocity P-wave (km/s) = 7.54830 8.27285 7.91886
#
# Compressibility (1/GPa) = 0.01121030
#
# Stress axis : x y z
#
# Youngs Moduli (GPa) = 63.60447 172.38098 153.63445
#
# Poissons Ratio (x) = 0.82352 0.43170
# Poissons Ratio (y) = 0.30386 0.12655
# Poissons Ratio (z) = 0.17872 0.14199
#
# Static dielectric constant tensor:
#      x y z
#    x 2.001690 0.000000 0.000000 
#    y 0.000000 2.050220 0.000000 
#    z 0.000000 0.000000 2.006280 
# 
# From -- ./inp_files/4229.got.cif
#   From: 2010.05.17/outbox.cif.g08.bks.cpg/sg62_3_cif.got.tgz:4229.got - 2010.06.03 15:25:27.
