data_PCOD9466680
_publ_section_title
;
Structure prediction by ZEFSAII (Michael W. Deem and Ramdas Pophale) SiO2 
 PCOD9466680
Probable space group: P N M A
;
_chemical_formula_sum "Si O2"
_cell_formula_units_Z 28
_cell_length_a 8.787731
_cell_length_b 13.611809
_cell_length_c 8.637665
_cell_angle_alpha 90.000000
_cell_angle_beta 90.000000
_cell_angle_gamma 90.000000
_cell_volume 1033.210848
_symmetry_space_group_name_H-M "P N M A"
_symmetry_group_IT_number 62
_symmetry_cell_setting 'orthorhombic'
loop_
_space_group_symop_operation_xyz
x,y,z
1/2-x,-y,1/2+z
1/2+x,1/2-y,1/2-z
-x,1/2+y,-z
-x,-y,-z
1/2+x,y,1/2-z
1/2-x,1/2+y,1/2+z
x,1/2-y,z
loop_
_atom_site_type_symbol
_atom_site_label
_atom_site_fract_x
_atom_site_fract_y
_atom_site_fract_z
Si Si1 0.590371 0.459048 0.849795
Si Si2 0.650513 0.250000 0.169097
Si Si3 0.443195 0.250000 0.905331
Si Si4 0.634385 0.916538 0.540921
Si Si5 0.601825 0.250000 0.525988
O O1 0.525932 0.347337 0.840849
O O2 0.580855 0.518121 0.687472
O O3 0.766960 0.466261 0.904443
O O4 0.500000 0.500000 0.000000
O O5 0.649886 0.250000 0.348726
O O6 0.486100 0.250000 0.087787
O O7 0.740661 0.156417 0.110776
O O8 0.261695 0.250000 0.881296
O O9 0.503987 0.846452 0.473246
#
# Coordination Sequence:
#
# PCOD9466680 Si02
#       5
#     8   4   4   8   4
#     4  11  23  44  69 101 139 183 235 295 351 419
#     4   9  17  35  62  94 126 174 236 281 318 406
#     4  10  22  40  66  99 142 183 226 287 357 420
#     4  10  22  40  70 102 135 179 236 291 351 417
#     4  11  19  39  70 101 128 183 244 280 327 434
#
# _framework density 27.099986999999999
#
# number of rings (size 3 to 8) (size 9 to 14) (size 15 to 20)
#    0.000    1.714    0.000    7.714    0.000    0.000 
#    0.000   22.857    0.000    0.000    0.000   12.000 
#    0.000    0.000    0.000    0.000    0.000    0.000 
#
# Total GULP energy -156883.887284 kJ/mol
# GULP energy per Si atom -5602.995974 kJ/mol
# Density = 2.703831 g / cm^3
# Si number density = 27.099987 Si / 1000 Ang^3
#
#
#
# Elastic Constant Matrix: (Units=GPa)
#
#
# Indices 1 2 3 4 5 6 
#
# 1 248.2598 97.8080 86.0660 0.0000 0.0000 0.0000
# 2 97.8080 190.9517 91.9902 0.0000 0.0000 0.0000
# 3 86.0660 91.9902 144.9620 0.0000 0.0000 0.0000
# 4 0.0000 0.0000 0.0000 3.8304 0.0000 0.0000
# 5 0.0000 0.0000 0.0000 0.0000 48.0186 0.0000
# 6 0.0000 0.0000 0.0000 0.0000 0.0000 10.0918
#
#
#
# Elastic Compliance Matrix: (Units=1/GPa)
#
#
# Indices 1 2 3 4 5 6 
#
# 1 0.005462 -0.001779 -0.002114 0.000000 0.000000 0.000000
# 2 -0.001779 0.008123 -0.004098 0.000000 0.000000 0.000000
# 3 -0.002114 -0.004098 0.010754 0.000000 0.000000 0.000000
# 4 0.000000 0.000000 0.000000 0.261073 0.000000 0.000000
# 5 0.000000 0.000000 0.000000 0.000000 0.020825 0.000000
# 6 0.000000 0.000000 0.000000 0.000000 0.000000 0.099090
#
#
# Mechanical properties :
#
#
# Convention : Reuss Voigt Hill
#
# Bulk Modulus (GPa) = 119.67189 126.21131 122.94160
# Shear Modulus (GPa) = 11.78985 32.94211 22.36598
#
# Velocity S-wave (km/s) = 2.08805 3.49029 2.87594
# Velocity P-wave (km/s) = 7.07591 7.93199 7.51615
#
# Compressibility (1/GPa) = 0.00835618
#
# Stress axis : x y z
#
# Youngs Moduli (GPa) = 183.08961 123.11433 92.99124
#
# Poissons Ratio (x) = 0.21907 0.19654
# Poissons Ratio (y) = 0.32579 0.38107
# Poissons Ratio (z) = 0.38697 0.50452
#
# Static dielectric constant tensor:
#      x y z
#    x 2.108430 0.000000 0.000000 
#    y 0.000000 2.188440 0.000000 
#    z 0.000000 0.000000 2.088880 
# 
# From -- ./inp_files/4080.got.cif
#   From: 2010.05.17/outbox.cif.g08.bks.cpg/sg62_3_cif.got.tgz:4080.got - 2010.06.03 15:25:27.
