data_PCOD9466218
_publ_section_title
;
Structure prediction by ZEFSAII (Michael W. Deem and Ramdas Pophale) SiO2 
 PCOD9466218
Probable space group: P N M A
;
_chemical_formula_sum "Si O2"
_cell_formula_units_Z 56
_cell_length_a 22.074718
_cell_length_b 8.622098
_cell_length_c 15.033685
_cell_angle_alpha 90.000000
_cell_angle_beta 90.000000
_cell_angle_gamma 90.000000
_cell_volume 2861.367008
_symmetry_space_group_name_H-M "P N M A"
_symmetry_group_IT_number 62
_symmetry_cell_setting 'orthorhombic'
loop_
_space_group_symop_operation_xyz
x,y,z
1/2-x,-y,1/2+z
1/2+x,1/2-y,1/2-z
-x,1/2+y,-z
-x,-y,-z
1/2+x,y,1/2-z
1/2-x,1/2+y,1/2+z
x,1/2-y,z
loop_
_atom_site_type_symbol
_atom_site_label
_atom_site_fract_x
_atom_site_fract_y
_atom_site_fract_z
Si Si1 0.717048 0.564058 0.199914
Si Si2 0.037267 0.062329 0.916741
Si Si3 0.098952 0.064623 0.396666
Si Si4 0.176756 0.438909 0.928881
Si Si5 0.877786 0.563293 0.402502
Si Si6 0.488632 0.562567 0.218817
Si Si7 0.742419 0.064511 0.389746
O O1 0.716317 0.750000 0.201731
O O2 0.660764 0.505032 0.142398
O O3 0.779291 0.512652 0.151570
O O4 0.714129 0.501184 0.299572
O O5 0.036794 0.250000 0.919437
O O6 0.107435 0.010700 0.920544
O O7 0.009688 0.013894 0.821689
O O8 0.000000 0.000000 0.000000
O O9 0.101520 0.250000 0.390410
O O10 0.094820 0.022921 0.500896
O O11 0.042980 0.003304 0.339584
O O12 0.176442 0.250000 0.928121
O O13 0.207005 0.488846 0.021828
O O14 0.870521 0.750000 0.398206
O O15 0.811947 0.489235 0.394108
O O16 0.924768 0.516933 0.325944
O O17 0.491749 0.750000 0.215818
O O18 0.740015 0.250000 0.387840
#
# Coordination Sequence:
#
# PCOD9466218 Si02
#       7
#     8   8   8   8   8   8   8
#     4  11  22  40  63  88 121 164 205 247 307 370
#     4  10  22  41  62  86 117 157 205 248 296 356
#     4  11  23  38  60  92 125 156 200 258 309 361
#     4   9  20  40  63  85 118 160 196 242 303 360
#     4  10  21  40  63  90 123 161 202 250 307 369
#     4  10  22  40  62  86 119 165 208 247 302 370
#     4  11  22  37  61  93 123 157 200 250 305 362
#
# _framework density 19.571065000000001
#
# number of rings (size 3 to 8) (size 9 to 14) (size 15 to 20)
#    0.000    1.714    1.429    2.571    2.000    4.000 
#    0.000    3.571    0.000    0.000    0.000    0.000 
#    0.000    0.000    0.000    0.000    0.000    0.000 
#
# Total GULP energy -312997.887178 kJ/mol
# GULP energy per Si atom -5589.247985 kJ/mol
# Density = 1.952652 g / cm^3
# Si number density = 19.571065 Si / 1000 Ang^3
#
#
#
# Elastic Constant Matrix: (Units=GPa)
#
#
# Indices 1 2 3 4 5 6 
#
# 1 39.5606 12.1727 -11.0164 0.0000 0.0000 0.0000
# 2 12.1727 19.8802 26.1057 0.0000 0.0000 0.0000
# 3 -11.0164 26.1057 95.5990 0.0000 0.0000 0.0000
# 4 0.0000 0.0000 0.0000 27.1002 0.0000 0.0000
# 5 0.0000 0.0000 0.0000 0.0000 25.4757 0.0000
# 6 0.0000 0.0000 0.0000 0.0000 0.0000 31.7698
#
#
#
# Elastic Compliance Matrix: (Units=1/GPa)
#
#
# Indices 1 2 3 4 5 6 
#
# 1 0.049462 -0.058887 0.021780 0.000000 0.000000 0.000000
# 2 -0.058887 0.148530 -0.047346 0.000000 0.000000 0.000000
# 3 0.021780 -0.047346 0.025899 0.000000 0.000000 0.000000
# 4 0.000000 0.000000 0.000000 0.036900 0.000000 0.000000
# 5 0.000000 0.000000 0.000000 0.000000 0.039253 0.000000
# 6 0.000000 0.000000 0.000000 0.000000 0.000000 0.031476
#
#
# Mechanical properties :
#
#
# Convention : Reuss Voigt Hill
#
# Bulk Modulus (GPa) = 18.18607 23.28486 20.73547
# Shear Modulus (GPa) = 9.63847 25.38767 17.51307
#
# Velocity S-wave (km/s) = 2.22161 3.60558 2.99464
# Velocity P-wave (km/s) = 3.98663 5.40898 4.75133
#
# Compressibility (1/GPa) = 0.05498713
#
# Stress axis : x y z
#
# Youngs Moduli (GPa) = 20.21750 6.73264 38.61126
#
# Poissons Ratio (x) = 0.39646 -0.84096
# Poissons Ratio (y) = 1.19054 1.82808
# Poissons Ratio (z) = -0.44034 0.31876
#
# Static dielectric constant tensor:
#      x y z
#    x 1.655170 0.000000 0.000000 
#    y 0.000000 1.670290 0.000000 
#    z 0.000000 0.000000 1.674830 
# 
# From -- ./inp_files/20390.got.cif
#   From: 2010.05.17/outbox.cif.g08.bks.cpg/sg62_11_cif.got.tgz:20390.got - 2010.06.03 15:25:27.
