data_PCOD9466292
_publ_section_title
;
Structure prediction by ZEFSAII (Michael W. Deem and Ramdas Pophale) SiO2 
 PCOD9466292
Probable space group: P N M A
;
_chemical_formula_sum "Si O2"
_cell_formula_units_Z 52
_cell_length_a 14.207155
_cell_length_b 9.366832
_cell_length_c 20.164097
_cell_angle_alpha 90.000000
_cell_angle_beta 90.000000
_cell_angle_gamma 90.000000
_cell_volume 2683.358060
_symmetry_space_group_name_H-M "P N M A"
_symmetry_group_IT_number 62
_symmetry_cell_setting 'orthorhombic'
loop_
_space_group_symop_operation_xyz
x,y,z
1/2-x,-y,1/2+z
1/2+x,1/2-y,1/2-z
-x,1/2+y,-z
-x,-y,-z
1/2+x,y,1/2-z
1/2-x,1/2+y,1/2+z
x,1/2-y,z
loop_
_atom_site_type_symbol
_atom_site_label
_atom_site_fract_x
_atom_site_fract_y
_atom_site_fract_z
Si Si1 0.515401 0.750000 0.026123
Si Si2 0.815539 0.081013 0.718685
Si Si3 0.106696 0.523969 0.566378
Si Si4 0.793511 0.082344 0.874840
Si Si5 0.001733 0.421097 0.930090
Si Si6 0.138875 0.580652 0.830309
Si Si7 0.005012 0.589359 0.703487
O O1 0.585595 0.626354 0.994834
O O2 0.441740 0.626081 0.050961
O O3 0.810440 0.250000 0.703804
O O4 0.789207 0.059169 0.795903
O O5 0.741049 0.989630 0.677256
O O6 0.920672 0.023449 0.707373
O O7 0.215641 0.505834 0.585688
O O8 0.054129 0.582387 0.632141
O O9 0.774879 0.250000 0.886705
O O10 0.899943 0.053837 0.896841
O O11 0.015973 0.250000 0.935508
O O12 0.080453 0.495027 0.885015
O O13 0.000000 0.500000 0.000000
O O14 0.144368 0.750000 0.844545
O O15 0.081245 0.563182 0.761230
O O16 0.966515 0.750000 0.713712
#
# Coordination Sequence:
#
# PCOD9466292 Si02
#       7
#     4   8   8   8   8   8   8
#     4  10  24  40  64  88 132 166 220 254 318 390
#     4  11  23  39  65 100 127 169 219 271 330 390
#     4  11  21  44  63  95 127 174 212 270 321 393
#     4  10  21  40  68  93 125 168 217 266 325 388
#     4  11  24  47  67  95 131 178 226 273 330 396
#     4  11  23  42  65  96 133 168 213 278 334 388
#     4  11  23  40  64  95 133 166 208 273 332 384
#
# _framework density 19.378703000000002
#
# number of rings (size 3 to 8) (size 9 to 14) (size 15 to 20)
#    0.000    1.231    4.615    1.385    1.077    0.615 
#    9.692    0.000    0.000    0.000    0.000    0.000 
#    0.000    0.000    0.000    0.000    0.000    0.000 
#
# Total GULP energy -289497.883660 kJ/mol
# GULP energy per Si atom -5567.266993 kJ/mol
# Density = 1.933460 g / cm^3
# Si number density = 19.378703 Si / 1000 Ang^3
#
#
#
# Elastic Constant Matrix: (Units=GPa)
#
#
# Indices 1 2 3 4 5 6 
#
# 1 32.9472 26.3222 3.1472 0.0000 0.0000 0.0000
# 2 26.3222 121.7384 22.0518 0.0000 0.0000 0.0000
# 3 3.1472 22.0518 18.5842 0.0000 0.0000 0.0000
# 4 0.0000 0.0000 0.0000 20.1222 0.0000 0.0000
# 5 0.0000 0.0000 0.0000 0.0000 3.3961 0.0000
# 6 0.0000 0.0000 0.0000 0.0000 0.0000 26.4665
#
#
#
# Elastic Compliance Matrix: (Units=1/GPa)
#
#
# Indices 1 2 3 4 5 6 
#
# 1 0.036933 -0.008729 0.004103 0.000000 0.000000 0.000000
# 2 -0.008729 0.012526 -0.013385 0.000000 0.000000 0.000000
# 3 0.004103 -0.013385 0.068997 0.000000 0.000000 0.000000
# 4 0.000000 0.000000 0.000000 0.049696 0.000000 0.000000
# 5 0.000000 0.000000 0.000000 0.000000 0.294455 0.000000
# 6 0.000000 0.000000 0.000000 0.000000 0.000000 0.037784
#
#
# Mechanical properties :
#
#
# Convention : Reuss Voigt Hill
#
# Bulk Modulus (GPa) = 12.13085 30.70134 21.41609
# Shear Modulus (GPa) = 8.86695 18.11355 13.49025
#
# Velocity S-wave (km/s) = 2.14139 3.06063 2.64130
# Velocity P-wave (km/s) = 3.51959 5.32608 4.51413
#
# Compressibility (1/GPa) = 0.08243446
#
# Stress axis : x y z
#
# Youngs Moduli (GPa) = 27.07581 79.83187 14.49336
#
# Poissons Ratio (x) = 0.69685 -0.05947
# Poissons Ratio (y) = 0.23634 0.19400
# Poissons Ratio (z) = -0.11110 1.06858
#
# Static dielectric constant tensor:
#      x y z
#    x 1.650440 0.000000 0.000000 
#    y 0.000000 1.648200 0.000000 
#    z 0.000000 0.000000 1.697080 
# 
# From -- ./inp_files/26984.got.cif
#   From: 2010.05.17/outbox.cif.g08.bks.cpg/sg62_14_cif.got.tgz:26984.got - 2010.06.03 15:25:27.
