data_PCOD9466526
_publ_section_title
;
Structure prediction by ZEFSAII (Michael W. Deem and Ramdas Pophale) SiO2 
 PCOD9466526
Probable space group: P N M A
;
_chemical_formula_sum "Si O2"
_cell_formula_units_Z 64
_cell_length_a 15.287330
_cell_length_b 22.923135
_cell_length_c 9.509385
_cell_angle_alpha 90.000000
_cell_angle_beta 90.000000
_cell_angle_gamma 90.000000
_cell_volume 3332.407348
_symmetry_space_group_name_H-M "P N M A"
_symmetry_group_IT_number 62
_symmetry_cell_setting 'orthorhombic'
loop_
_space_group_symop_operation_xyz
x,y,z
1/2-x,-y,1/2+z
1/2+x,1/2-y,1/2-z
-x,1/2+y,-z
-x,-y,-z
1/2+x,y,1/2-z
1/2-x,1/2+y,1/2+z
x,1/2-y,z
loop_
_atom_site_type_symbol
_atom_site_label
_atom_site_fract_x
_atom_site_fract_y
_atom_site_fract_z
Si Si1 0.852938 0.603752 0.432636
Si Si2 0.924298 0.597874 0.134202
Si Si3 0.191618 0.817832 0.080342
Si Si4 0.646395 0.964093 0.937897
Si Si5 0.489065 0.183380 0.416595
Si Si6 0.522506 0.404778 0.175720
Si Si7 0.116744 0.582144 0.249212
Si Si8 0.838370 0.534286 0.881591
O O1 0.865675 0.614770 0.266631
O O2 0.772743 0.644593 0.477371
O O3 0.845545 0.533887 0.450142
O O4 0.937103 0.616875 0.528967
O O5 0.015421 0.578090 0.204485
O O6 0.878735 0.549971 0.034088
O O7 0.950103 0.650319 0.030043
O O8 0.213323 0.750000 0.108562
O O9 0.154775 0.854312 0.213777
O O10 0.109760 0.819099 0.974195
O O11 0.560498 0.946421 0.850964
O O12 0.738948 0.943202 0.875004
O O13 0.633387 0.936771 0.091933
O O14 0.515931 0.250000 0.402063
O O15 0.494451 0.148681 0.272229
O O16 0.598177 0.437905 0.264169
O O17 0.162463 0.534451 0.149111
#
# Coordination Sequence:
#
# PCOD9466526 Si02
#       8
#     8   8   8   8   8   8   8   8
#     4  12  22  39  63  97 132 167 210 274 328 393
#     4  10  22  38  63  94 128 166 217 265 328 389
#     4  10  23  41  64  90 122 170 225 265 316 393
#     4  12  24  39  63  98 145 165 211 277 343 391
#     4   9  22  45  65  86 126 174 221 269 318 387
#     4  11  24  40  64  98 133 169 215 270 335 399
#     4  11  20  41  61  93 130 172 209 273 326 390
#     4  11  23  38  63  95 128 178 213 257 334 403
#
# _framework density 19.205334000000001
#
# number of rings (size 3 to 8) (size 9 to 14) (size 15 to 20)
#    0.000    1.250    3.750    2.250    1.750    3.000 
#    0.000    0.625    0.000    0.000    0.000    0.000 
#    0.000    0.000    0.000    0.000    0.000    0.000 
#
# Total GULP energy -357378.933790 kJ/mol
# GULP energy per Si atom -5584.045840 kJ/mol
# Density = 1.916162 g / cm^3
# Si number density = 19.205334 Si / 1000 Ang^3
#
#
#
# Elastic Constant Matrix: (Units=GPa)
#
#
# Indices 1 2 3 4 5 6 
#
# 1 104.8154 34.3074 41.0581 0.0000 0.0000 0.0000
# 2 34.3074 119.8156 57.1152 0.0000 0.0000 0.0000
# 3 41.0581 57.1152 85.7853 0.0000 0.0000 0.0000
# 4 0.0000 0.0000 0.0000 11.8501 0.0000 0.0000
# 5 0.0000 0.0000 0.0000 0.0000 19.6237 0.0000
# 6 0.0000 0.0000 0.0000 0.0000 0.0000 21.4958
#
#
#
# Elastic Compliance Matrix: (Units=1/GPa)
#
#
# Indices 1 2 3 4 5 6 
#
# 1 0.011824 -0.001008 -0.004988 0.000000 0.000000 0.000000
# 2 -0.001008 0.012313 -0.007715 0.000000 0.000000 0.000000
# 3 -0.004988 -0.007715 0.019181 0.000000 0.000000 0.000000
# 4 0.000000 0.000000 0.000000 0.084388 0.000000 0.000000
# 5 0.000000 0.000000 0.000000 0.000000 0.050959 0.000000
# 6 0.000000 0.000000 0.000000 0.000000 0.000000 0.046521
#
#
# Mechanical properties :
#
#
# Convention : Reuss Voigt Hill
#
# Bulk Modulus (GPa) = 62.91123 63.93086 63.42105
# Shear Modulus (GPa) = 19.38685 22.45630 20.92157
#
# Velocity S-wave (km/s) = 3.18063 3.42317 3.30413
# Velocity P-wave (km/s) = 6.80565 6.99889 6.90295
#
# Compressibility (1/GPa) = 0.01589541
#
# Stress axis : x y z
#
# Youngs Moduli (GPa) = 84.57019 81.21811 52.13428
#
# Poissons Ratio (x) = 0.08186 0.26006
# Poissons Ratio (y) = 0.08523 0.40223
# Poissons Ratio (z) = 0.42187 0.62662
#
# Static dielectric constant tensor:
#      x y z
#    x 1.717240 0.000000 0.000000 
#    y 0.000000 1.653120 0.000000 
#    z 0.000000 0.000000 1.666700 
# 
# From -- ./inp_files/6957.got.cif
#   From: 2010.05.17/outbox.cif.g08.bks.cpg/sg62_4_cif.got.tgz:6957.got - 2010.06.03 15:25:27.
