data_PCOD9466599
_publ_section_title
;
Structure prediction by ZEFSAII (Michael W. Deem and Ramdas Pophale) SiO2 
 PCOD9466599
Probable space group: P N M A
;
_chemical_formula_sum "Si O2"
_cell_formula_units_Z 52
_cell_length_a 8.839776
_cell_length_b 28.651539
_cell_length_c 10.189430
_cell_angle_alpha 90.000000
_cell_angle_beta 90.000000
_cell_angle_gamma 90.000000
_cell_volume 2580.709408
_symmetry_space_group_name_H-M "P N M A"
_symmetry_group_IT_number 62
_symmetry_cell_setting 'orthorhombic'
loop_
_space_group_symop_operation_xyz
x,y,z
1/2-x,-y,1/2+z
1/2+x,1/2-y,1/2-z
-x,1/2+y,-z
-x,-y,-z
1/2+x,y,1/2-z
1/2-x,1/2+y,1/2+z
x,1/2-y,z
loop_
_atom_site_type_symbol
_atom_site_label
_atom_site_fract_x
_atom_site_fract_y
_atom_site_fract_z
Si Si1 0.211718 0.135247 0.067206
Si Si2 0.473320 0.389083 0.239838
Si Si3 0.700017 0.750000 0.329192
Si Si4 0.748515 0.042727 0.582542
Si Si5 0.925703 0.820387 0.186404
Si Si6 0.565990 0.417869 0.819287
Si Si7 0.276711 0.935116 0.925626
O O1 0.375862 0.138996 0.132499
O O2 0.087177 0.143212 0.178779
O O3 0.198872 0.080458 0.025989
O O4 0.176430 0.165405 0.939588
O O5 0.574482 0.427322 0.164295
O O6 0.358391 0.412622 0.342490
O O7 0.824236 0.790276 0.284912
O O8 0.570500 0.709347 0.355098
O O9 0.641437 0.050697 0.707381
O O10 0.917680 0.057706 0.623183
O O11 0.746699 0.989074 0.543443
O O12 0.974383 0.868521 0.255186
O O13 0.685733 0.410854 0.936636
#
# Coordination Sequence:
#
# PCOD9466599 Si02
#       7
#     8   8   4   8   8   8   8
#     4  10  22  40  59  86 128 157 212 250 300 374
#     4  10  23  38  56  86 113 180 201 252 289 358
#     4  10  22  40  70  94 116 146 180 262 316 382
#     4  11  23  36  55  87 123 167 210 269 297 343
#     4  10  22  41  65  99 119 147 198 251 332 363
#     4  11  23  37  61  86 124 162 200 263 307 369
#     4  11  23  37  56  83 123 167 223 248 298 355
#
# _framework density 20.149498000000001
#
# number of rings (size 3 to 8) (size 9 to 14) (size 15 to 20)
#    0.000    1.538    1.538    3.231   10.769    0.615 
#    0.000    0.000    0.000    3.692    0.000    0.000 
#    0.000    0.000    0.000    0.000    0.000    0.000 
#
# Total GULP energy -289532.725622 kJ/mol
# GULP energy per Si atom -5567.937031 kJ/mol
# Density = 2.010364 g / cm^3
# Si number density = 20.149498 Si / 1000 Ang^3
#
#
#
# Elastic Constant Matrix: (Units=GPa)
#
#
# Indices 1 2 3 4 5 6 
#
# 1 56.1943 -13.9640 -11.5910 0.0000 0.0000 0.0000
# 2 -13.9640 38.0818 -13.3747 0.0000 0.0000 0.0000
# 3 -11.5910 -13.3747 40.7025 0.0000 0.0000 0.0000
# 4 0.0000 0.0000 0.0000 4.1372 0.0000 0.0000
# 5 0.0000 0.0000 0.0000 0.0000 22.7893 0.0000
# 6 0.0000 0.0000 0.0000 0.0000 0.0000 19.4447
#
#
#
# Elastic Compliance Matrix: (Units=1/GPa)
#
#
# Indices 1 2 3 4 5 6 
#
# 1 0.022980 0.012124 0.010528 0.000000 0.000000 0.000000
# 2 0.012124 0.036081 0.015309 0.000000 0.000000 0.000000
# 3 0.010528 0.015309 0.032597 0.000000 0.000000 0.000000
# 4 0.000000 0.000000 0.000000 0.241708 0.000000 0.000000
# 5 0.000000 0.000000 0.000000 0.000000 0.043880 0.000000
# 6 0.000000 0.000000 0.000000 0.000000 0.000000 0.051428
#
#
# Mechanical properties :
#
#
# Convention : Reuss Voigt Hill
#
# Bulk Modulus (GPa) = 5.96736 6.34659 6.15697
# Shear Modulus (GPa) = 12.23652 20.86812 16.55232
#
# Velocity S-wave (km/s) = 2.46699 3.22167 2.86925
# Velocity P-wave (km/s) = 3.32907 4.12255 3.74687
#
# Compressibility (1/GPa) = 0.16757836
#
# Stress axis : x y z
#
# Youngs Moduli (GPa) = 43.51684 27.71514 30.67771
#
# Poissons Ratio (x) = -0.33601 -0.32297
# Poissons Ratio (y) = -0.52759 -0.46964
# Poissons Ratio (z) = -0.45814 -0.42428
#
# Static dielectric constant tensor:
#      x y z
#    x 1.745030 0.000000 0.000000 
#    y 0.000000 1.680540 0.000000 
#    z 0.000000 0.000000 1.736360 
# 
# From -- ./inp_files/11412.got.cif
#   From: 2010.05.17/outbox.cif.g08.bks.cpg/sg62_6_cif.got.tgz:11412.got - 2010.06.03 15:25:27.
