data_PCOD9466103
_publ_section_title
;
Structure prediction by ZEFSAII (Michael W. Deem and Ramdas Pophale) SiO2 
 PCOD9466103
Probable space group: P N M A
;
_chemical_formula_sum "Si O2"
_cell_formula_units_Z 44
_cell_length_a 21.931335
_cell_length_b 9.652705
_cell_length_c 8.911510
_cell_angle_alpha 90.000000
_cell_angle_beta 90.000000
_cell_angle_gamma 90.000000
_cell_volume 1886.537321
_symmetry_space_group_name_H-M "P N M A"
_symmetry_group_IT_number 62
_symmetry_cell_setting 'orthorhombic'
loop_
_space_group_symop_operation_xyz
x,y,z
1/2-x,-y,1/2+z
1/2+x,1/2-y,1/2-z
-x,1/2+y,-z
-x,-y,-z
1/2+x,y,1/2-z
1/2-x,1/2+y,1/2+z
x,1/2-y,z
loop_
_atom_site_type_symbol
_atom_site_label
_atom_site_fract_x
_atom_site_fract_y
_atom_site_fract_z
Si Si1 0.935748 0.405969 0.658947
Si Si2 0.256104 0.089082 0.944302
Si Si3 0.000407 0.250000 0.057616
Si Si4 0.130622 0.086840 0.568384
Si Si5 0.682326 0.904562 0.367625
Si Si6 0.056431 0.032862 0.849941
O O1 0.932086 0.250000 0.592397
O O2 0.923291 0.523494 0.536607
O O3 0.881809 0.414834 0.781970
O O4 0.998350 0.420711 0.747065
O O5 0.259727 0.250000 0.986405
O O6 0.311463 0.001640 0.016331
O O7 0.195960 0.018639 0.009430
O O8 0.268267 0.081265 0.766859
O O9 0.047886 0.129197 0.994462
O O10 0.953128 0.373266 0.110596
O O11 0.138647 0.250000 0.539966
O O12 0.112490 0.063264 0.740301
O O13 0.687981 0.750000 0.431438
#
# Coordination Sequence:
#
# PCOD9466103 Si02
#       6
#     8   8   4   8   8   8
#     4  10  21  39  63  87 119 153 198 248 293 347
#     4  10  22  41  61  88 119 156 198 246 298 353
#     4  10  24  40  58  80 132 160 192 236 284 360
#     4  11  22  37  63  90 117 150 200 249 290 348
#     4   9  20  40  60  87 118 153 198 248 291 350
#     4  11  22  42  58  88 121 159 195 238 294 351
#
# _framework density 23.323153999999999
#
# number of rings (size 3 to 8) (size 9 to 14) (size 15 to 20)
#    0.000    1.818    1.818    2.727    3.818    3.636 
#    6.545    0.000    0.000    0.000    0.000    0.000 
#    0.000    0.000    0.000    0.000    0.000    0.000 
#
# Total GULP energy -245184.215918 kJ/mol
# GULP energy per Si atom -5572.368544 kJ/mol
# Density = 2.327007 g / cm^3
# Si number density = 23.323154 Si / 1000 Ang^3
#
#
#
# Elastic Constant Matrix: (Units=GPa)
#
#
# Indices 1 2 3 4 5 6 
#
# 1 35.8339 22.4616 23.2298 0.0000 0.0000 0.0000
# 2 22.4616 233.7704 51.1451 0.0000 0.0000 0.0000
# 3 23.2298 51.1451 49.4259 0.0000 0.0000 0.0000
# 4 0.0000 0.0000 0.0000 17.4369 0.0000 0.0000
# 5 0.0000 0.0000 0.0000 0.0000 43.0033 0.0000
# 6 0.0000 0.0000 0.0000 0.0000 0.0000 14.6492
#
#
#
# Elastic Compliance Matrix: (Units=1/GPa)
#
#
# Indices 1 2 3 4 5 6 
#
# 1 0.040157 0.000350 -0.019236 0.000000 0.000000 0.000000
# 2 0.000350 0.005533 -0.005890 0.000000 0.000000 0.000000
# 3 -0.019236 -0.005890 0.035367 0.000000 0.000000 0.000000
# 4 0.000000 0.000000 0.000000 0.057350 0.000000 0.000000
# 5 0.000000 0.000000 0.000000 0.000000 0.023254 0.000000
# 6 0.000000 0.000000 0.000000 0.000000 0.000000 0.068263
#
#
# Mechanical properties :
#
#
# Convention : Reuss Voigt Hill
#
# Bulk Modulus (GPa) = 31.73951 56.96704 44.35327
# Shear Modulus (GPa) = 17.24281 29.83079 23.53680
#
# Velocity S-wave (km/s) = 2.72196 3.58022 3.18017
# Velocity P-wave (km/s) = 4.84942 6.44738 5.70463
#
# Compressibility (1/GPa) = 0.03150647
#
# Stress axis : x y z
#
# Youngs Moduli (GPa) = 24.90239 180.74657 28.27474
#
# Poissons Ratio (x) = -0.06326 0.54388
# Poissons Ratio (y) = -0.00872 0.16653
# Poissons Ratio (z) = 0.47901 1.06452
#
# Static dielectric constant tensor:
#      x y z
#    x 1.962410 0.000000 0.000000 
#    y 0.000000 1.820510 0.000000 
#    z 0.000000 0.000000 1.910990 
# 
# From -- ./inp_files/15061.got.cif
#   From: 2010.05.17/outbox.cif.g08.bks.cpg/sg62_8_cif.got.tgz:15061.got - 2010.06.03 15:25:27.
