data_PCOD9466420
_publ_section_title
;
Structure prediction by ZEFSAII (Michael W. Deem and Ramdas Pophale) SiO2 
 PCOD9466420
Probable space group: P N M A
;
_chemical_formula_sum "Si O2"
_cell_formula_units_Z 48
_cell_length_a 18.918714
_cell_length_b 13.746683
_cell_length_c 8.307380
_cell_angle_alpha 90.000000
_cell_angle_beta 90.000000
_cell_angle_gamma 90.000000
_cell_volume 2160.496696
_symmetry_space_group_name_H-M "P N M A"
_symmetry_group_IT_number 62
_symmetry_cell_setting 'orthorhombic'
loop_
_space_group_symop_operation_xyz
x,y,z
1/2-x,-y,1/2+z
1/2+x,1/2-y,1/2-z
-x,1/2+y,-z
-x,-y,-z
1/2+x,y,1/2-z
1/2-x,1/2+y,1/2+z
x,1/2-y,z
loop_
_atom_site_type_symbol
_atom_site_label
_atom_site_fract_x
_atom_site_fract_y
_atom_site_fract_z
Si Si1 0.104156 0.052424 0.068514
Si Si2 0.624231 0.250000 0.000801
Si Si3 0.317819 0.750000 0.647880
Si Si4 0.308565 0.250000 0.921838
Si Si5 0.649901 0.462613 0.918797
Si Si6 0.526348 0.750000 0.099565
Si Si7 0.015316 0.040289 0.741082
Si Si8 0.713850 0.954568 0.241523
O O1 0.143197 0.154472 0.083289
O O2 0.163769 0.971650 0.104263
O O3 0.063957 0.047853 0.900565
O O4 0.046652 0.032674 0.208848
O O5 0.641943 0.346761 0.904306
O O6 0.539076 0.250000 0.026797
O O7 0.669651 0.250000 0.162078
O O8 0.238221 0.750000 0.583061
O O9 0.392476 0.250000 0.955770
O O10 0.288026 0.344485 0.818690
O O11 0.570508 0.500405 0.890979
O O12 0.708970 0.492455 0.790208
O O13 0.680096 0.487204 0.093143
O O14 0.514056 0.851894 0.197281
#
# Coordination Sequence:
#
# PCOD9466420 Si02
#       8
#     8   4   4   4   8   4   8   8
#     4  11  23  42  69  96 135 172 222 273 331 395
#     4  10  23  41  69  93 131 168 224 269 330 403
#     4  12  23  43  63  99 134 176 213 275 335 387
#     4  12  25  41  65  94 136 171 221 271 333 399
#     4  11  23  41  66  96 129 175 219 274 332 399
#     4  10  21  43  69 100 131 179 224 269 336 401
#     4  10  22  42  68  99 133 174 219 274 332 397
#     4  12  24  41  67  96 131 173 223 273 331 397
#
# _framework density 22.217113000000001
#
# number of rings (size 3 to 8) (size 9 to 14) (size 15 to 20)
#    0.000    1.000    3.333    4.000    0.000    3.333 
#    0.000    0.000    0.000    0.000    0.000    0.000 
#    0.000    0.000    0.000    0.000    0.000    0.000 
#
# Total GULP energy -268407.941168 kJ/mol
# GULP energy per Si atom -5591.832108 kJ/mol
# Density = 2.216655 g / cm^3
# Si number density = 22.217113 Si / 1000 Ang^3
#
#
#
# Elastic Constant Matrix: (Units=GPa)
#
#
# Indices 1 2 3 4 5 6 
#
# 1 193.0533 24.7756 61.9407 0.0000 0.0000 0.0000
# 2 24.7756 77.1618 12.1748 0.0000 0.0000 0.0000
# 3 61.9407 12.1748 75.7905 0.0000 0.0000 0.0000
# 4 0.0000 0.0000 0.0000 9.5134 0.0000 0.0000
# 5 0.0000 0.0000 0.0000 0.0000 57.0457 0.0000
# 6 0.0000 0.0000 0.0000 0.0000 0.0000 27.7062
#
#
#
# Elastic Compliance Matrix: (Units=1/GPa)
#
#
# Indices 1 2 3 4 5 6 
#
# 1 0.007168 -0.001413 -0.005631 0.000000 0.000000 0.000000
# 2 -0.001413 0.013575 -0.001026 0.000000 0.000000 0.000000
# 3 -0.005631 -0.001026 0.017961 0.000000 0.000000 0.000000
# 4 0.000000 0.000000 0.000000 0.105115 0.000000 0.000000
# 5 0.000000 0.000000 0.000000 0.000000 0.017530 0.000000
# 6 0.000000 0.000000 0.000000 0.000000 0.000000 0.036093
#
#
# Mechanical properties :
#
#
# Convention : Reuss Voigt Hill
#
# Bulk Modulus (GPa) = 44.31762 60.42086 52.36924
# Shear Modulus (GPa) = 22.61378 35.32735 28.97057
#
# Velocity S-wave (km/s) = 3.19384 3.99193 3.61498
# Velocity P-wave (km/s) = 5.79583 6.96434 6.40678
#
# Compressibility (1/GPa) = 0.02256439
#
# Stress axis : x y z
#
# Youngs Moduli (GPa) = 139.50892 73.66291 55.67567
#
# Poissons Ratio (x) = 0.10409 0.31352
# Poissons Ratio (y) = 0.19713 0.05712
# Poissons Ratio (z) = 0.78559 0.07557
#
# Static dielectric constant tensor:
#      x y z
#    x 1.862450 0.000000 0.000000 
#    y 0.000000 1.804440 0.000000 
#    z 0.000000 0.000000 1.841530 
# 
# From -- ./inp_files/7734.got.cif
#   From: 2010.05.17/outbox.cif.g08.bks.cpg/sg62_4_cif.got.tgz:7734.got - 2010.06.03 15:25:27.
