data_PCOD9466251
_publ_section_title
;
Structure prediction by ZEFSAII (Michael W. Deem and Ramdas Pophale) SiO2 
 PCOD9466251
Probable space group: P N M A
;
_chemical_formula_sum "Si O2"
_cell_formula_units_Z 40
_cell_length_a 15.385758
_cell_length_b 13.003718
_cell_length_c 9.981049
_cell_angle_alpha 90.000000
_cell_angle_beta 90.000000
_cell_angle_gamma 90.000000
_cell_volume 1996.929017
_symmetry_space_group_name_H-M "P N M A"
_symmetry_group_IT_number 62
_symmetry_cell_setting 'orthorhombic'
loop_
_space_group_symop_operation_xyz
x,y,z
1/2-x,-y,1/2+z
1/2+x,1/2-y,1/2-z
-x,1/2+y,-z
-x,-y,-z
1/2+x,y,1/2-z
1/2-x,1/2+y,1/2+z
x,1/2-y,z
loop_
_atom_site_type_symbol
_atom_site_label
_atom_site_fract_x
_atom_site_fract_y
_atom_site_fract_z
Si Si1 0.679967 0.870863 0.288562
Si Si2 0.871966 0.930101 0.217830
Si Si3 0.960467 0.129747 0.279475
Si Si4 0.914694 0.950226 0.936073
Si Si5 0.969096 0.128102 0.587406
O O1 0.662973 0.750000 0.320734
O O2 0.781948 0.889877 0.274453
O O3 0.623909 0.897356 0.154575
O O4 0.644929 0.955116 0.392085
O O5 0.954881 0.896362 0.306130
O O6 0.884430 0.054468 0.224835
O O7 0.875625 0.892368 0.063854
O O8 0.937026 0.250000 0.274652
O O9 0.978836 0.094972 0.432837
O O10 0.047015 0.112049 0.189685
O O11 0.000000 0.000000 0.000000
O O12 0.970527 0.250000 0.576066
#
# Coordination Sequence:
#
# PCOD9466251 Si02
#       5
#     8   8   8   8   8
#     4  11  24  40  64  95 127 167 214 260 319 386
#     4  11  23  40  66  93 130 167 212 264 322 378
#     4  10  22  40  64  90 125 168 214 266 318 378
#     4  10  22  41  63  94 125 167 209 267 317 368
#     4  10  21  40  65  90 123 169 211 257 317 383
#
# _framework density 20.030757000000001
#
# number of rings (size 3 to 8) (size 9 to 14) (size 15 to 20)
#    0.000    1.600    4.000    1.200    2.800    4.800 
#    0.000    1.000    0.000    0.000    0.000    0.000 
#    0.000    0.000    0.000    0.000    0.000    0.000 
#
# Total GULP energy -222849.458082 kJ/mol
# GULP energy per Si atom -5571.236452 kJ/mol
# Density = 1.998517 g / cm^3
# Si number density = 20.030757 Si / 1000 Ang^3
#
#
#
# Elastic Constant Matrix: (Units=GPa)
#
#
# Indices 1 2 3 4 5 6 
#
# 1 65.6277 12.7683 6.3359 0.0000 0.0000 0.0000
# 2 12.7683 43.1361 28.3019 0.0000 0.0000 0.0000
# 3 6.3359 28.3019 114.1491 0.0000 0.0000 0.0000
# 4 0.0000 0.0000 0.0000 19.9489 0.0000 0.0000
# 5 0.0000 0.0000 0.0000 0.0000 29.5947 0.0000
# 6 0.0000 0.0000 0.0000 0.0000 0.0000 29.2161
#
#
#
# Elastic Compliance Matrix: (Units=1/GPa)
#
#
# Indices 1 2 3 4 5 6 
#
# 1 0.016180 -0.005016 0.000346 0.000000 0.000000 0.000000
# 2 -0.005016 0.029241 -0.006972 0.000000 0.000000 0.000000
# 3 0.000346 -0.006972 0.010470 0.000000 0.000000 0.000000
# 4 0.000000 0.000000 0.000000 0.050128 0.000000 0.000000
# 5 0.000000 0.000000 0.000000 0.000000 0.033790 0.000000
# 6 0.000000 0.000000 0.000000 0.000000 0.000000 0.034228
#
#
# Mechanical properties :
#
#
# Convention : Reuss Voigt Hill
#
# Bulk Modulus (GPa) = 30.66826 35.30280 32.98553
# Shear Modulus (GPa) = 24.01654 27.45238 25.73446
#
# Velocity S-wave (km/s) = 3.46639 3.70606 3.58823
# Velocity P-wave (km/s) = 5.60044 5.99798 5.80262
#
# Compressibility (1/GPa) = 0.03260700
#
# Stress axis : x y z
#
# Youngs Moduli (GPa) = 61.80464 34.19821 95.51259
#
# Poissons Ratio (x) = 0.17154 -0.03301
# Poissons Ratio (y) = 0.31001 0.66588
# Poissons Ratio (z) = -0.02136 0.23842
#
# Static dielectric constant tensor:
#      x y z
#    x 1.675490 0.000000 0.000000 
#    y 0.000000 1.775490 0.000000 
#    z 0.000000 0.000000 1.756310 
# 
# From -- ./inp_files/6082.got.cif
#   From: 2010.05.17/outbox.cif.g08.bks.cpg/sg62_4_cif.got.tgz:6082.got - 2010.06.03 15:25:27.
