data_PCOD9466644
_publ_section_title
;
Structure prediction by ZEFSAII (Michael W. Deem and Ramdas Pophale) SiO2 
 PCOD9466644
Probable space group: P N M A
;
_chemical_formula_sum "Si O2"
_cell_formula_units_Z 40
_cell_length_a 15.362151
_cell_length_b 23.908194
_cell_length_c 4.623622
_cell_angle_alpha 90.000000
_cell_angle_beta 90.000000
_cell_angle_gamma 90.000000
_cell_volume 1698.169836
_symmetry_space_group_name_H-M "P N M A"
_symmetry_group_IT_number 62
_symmetry_cell_setting 'orthorhombic'
loop_
_space_group_symop_operation_xyz
x,y,z
1/2-x,-y,1/2+z
1/2+x,1/2-y,1/2-z
-x,1/2+y,-z
-x,-y,-z
1/2+x,y,1/2-z
1/2-x,1/2+y,1/2+z
x,1/2-y,z
loop_
_atom_site_type_symbol
_atom_site_label
_atom_site_fract_x
_atom_site_fract_y
_atom_site_fract_z
Si Si1 0.575214 0.974043 0.699396
Si Si2 0.505155 0.860818 0.604222
Si Si3 0.229886 0.899335 0.756212
Si Si4 0.102984 0.813718 0.437108
Si Si5 0.350406 0.913214 0.249093
O O1 0.527945 0.916718 0.792973
O O2 0.664314 0.944160 0.597955
O O3 0.500000 0.000000 0.500000
O O4 0.607767 0.028699 0.867927
O O5 0.518891 0.814585 0.848241
O O6 0.419701 0.875384 0.422342
O O7 0.575201 0.844857 0.356197
O O8 0.177664 0.848522 0.605189
O O9 0.280774 0.928962 0.495269
O O10 0.300425 0.882143 0.993854
O O11 0.128503 0.750000 0.377816
#
# Coordination Sequence:
#
# PCOD9466644 Si02
#       5
#     8   8   8   8   8
#     4   9  20  37  60  89 124 163 199 239 297 372
#     4  10  22  40  63  90 118 159 211 254 307 379
#     4  11  22  38  60  90 125 161 203 252 310 370
#     4  11  23  43  64  85 118 166 214 261 310 369
#     4  11  22  38  60  92 128 157 196 256 314 370
#
# _framework density 23.554769
#
# number of rings (size 3 to 8) (size 9 to 14) (size 15 to 20)
#    0.000    1.600    0.000    5.400    0.000    3.200 
#    0.000   23.000    0.000    0.000    0.000    0.000 
#    0.000    0.000    0.000    0.000    0.000    0.000 
#
# Total GULP energy -222745.967473 kJ/mol
# GULP energy per Si atom -5568.649187 kJ/mol
# Density = 2.350116 g / cm^3
# Si number density = 23.554769 Si / 1000 Ang^3
#
#
#
# Elastic Constant Matrix: (Units=GPa)
#
#
# Indices 1 2 3 4 5 6 
#
# 1 93.3001 53.1146 39.3190 0.0000 0.0000 0.0000
# 2 53.1146 125.7217 21.4164 0.0000 0.0000 0.0000
# 3 39.3190 21.4164 97.8057 0.0000 0.0000 0.0000
# 4 0.0000 0.0000 0.0000 14.3256 0.0000 0.0000
# 5 0.0000 0.0000 0.0000 0.0000 47.7776 0.0000
# 6 0.0000 0.0000 0.0000 0.0000 0.0000 19.6640
#
#
#
# Elastic Compliance Matrix: (Units=1/GPa)
#
#
# Indices 1 2 3 4 5 6 
#
# 1 0.016359 -0.006015 -0.005259 0.000000 0.000000 0.000000
# 2 -0.006015 0.010474 0.000125 0.000000 0.000000 0.000000
# 3 -0.005259 0.000125 0.012311 0.000000 0.000000 0.000000
# 4 0.000000 0.000000 0.000000 0.069805 0.000000 0.000000
# 5 0.000000 0.000000 0.000000 0.000000 0.020930 0.000000
# 6 0.000000 0.000000 0.000000 0.000000 0.000000 0.050854
#
#
# Mechanical properties :
#
#
# Convention : Reuss Voigt Hill
#
# Bulk Modulus (GPa) = 59.36626 60.50305 59.93466
# Shear Modulus (GPa) = 23.96369 29.88528 26.92448
#
# Velocity S-wave (km/s) = 3.19307 3.56583 3.38458
# Velocity P-wave (km/s) = 6.23317 6.53417 6.38545
#
# Compressibility (1/GPa) = 0.01684458
#
# Stress axis : x y z
#
# Youngs Moduli (GPa) = 61.12838 95.47267 81.22590
#
# Poissons Ratio (x) = 0.57431 0.42719
# Poissons Ratio (y) = 0.36771 -0.01013
# Poissons Ratio (z) = 0.32149 -0.01191
#
# Static dielectric constant tensor:
#      x y z
#    x 2.017440 0.000000 0.000000 
#    y 0.000000 1.897830 0.000000 
#    z 0.000000 0.000000 1.910060 
# 
# From -- ./inp_files/1073.got.cif
#   From: 2010.05.17/outbox.cif.g08.bks.cpg/sg62_1_cif.got.tgz:1073.got - 2010.06.03 15:25:27.
