data_PCOD9466266
_publ_section_title
;
Structure prediction by ZEFSAII (Michael W. Deem and Ramdas Pophale) SiO2 
 PCOD9466266
Probable space group: P N M A
;
_chemical_formula_sum "Si O2"
_cell_formula_units_Z 44
_cell_length_a 28.382909
_cell_length_b 8.645702
_cell_length_c 7.402233
_cell_angle_alpha 90.000000
_cell_angle_beta 90.000000
_cell_angle_gamma 90.000000
_cell_volume 1816.435237
_symmetry_space_group_name_H-M "P N M A"
_symmetry_group_IT_number 62
_symmetry_cell_setting 'orthorhombic'
loop_
_space_group_symop_operation_xyz
x,y,z
1/2-x,-y,1/2+z
1/2+x,1/2-y,1/2-z
-x,1/2+y,-z
-x,-y,-z
1/2+x,y,1/2-z
1/2-x,1/2+y,1/2+z
x,1/2-y,z
loop_
_atom_site_type_symbol
_atom_site_label
_atom_site_fract_x
_atom_site_fract_y
_atom_site_fract_z
Si Si1 0.524789 0.750000 0.089148
Si Si2 0.597964 0.433902 0.596019
Si Si3 0.950356 0.750000 0.715834
Si Si4 0.038071 0.750000 0.986623
Si Si5 0.698839 0.077880 0.007238
Si Si6 0.099981 0.493668 0.476937
Si Si7 0.796737 0.921761 0.078415
O O1 0.520930 0.750000 0.305232
O O2 0.557473 0.888155 0.023952
O O3 0.476628 0.750000 0.981368
O O4 0.587570 0.250000 0.547533
O O5 0.565720 0.585499 0.547408
O O6 0.650725 0.470780 0.523151
O O7 0.599543 0.430685 0.816960
O O8 0.915813 0.606724 0.695500
O O9 0.993580 0.750000 0.852124
O O10 0.687994 0.250000 0.079103
O O11 0.654979 0.966971 0.056551
O O12 0.751418 0.026634 0.050457
O O13 0.699022 0.088784 0.792753
O O14 0.787003 0.750000 0.003824
#
# Coordination Sequence:
#
# PCOD9466266 Si02
#       7
#     4   8   4   4   8   8   8
#     4  12  28  44  72 111 138 188 241 306 368 433
#     4  10  21  46  74 102 145 198 240 296 368 430
#     4  12  24  50  77  98 144 198 243 304 371 417
#     4  12  28  46  73 115 148 184 246 308 367 438
#     4  10  21  40  65  98 134 182 230 278 349 424
#     4  11  22  46  73  98 139 194 247 292 361 438
#     4   9  21  38  64  97 135 179 227 281 345 425
#
# _framework density 24.223271
#
# number of rings (size 3 to 8) (size 9 to 14) (size 15 to 20)
#    0.000    1.455    3.636    1.636    2.545    2.909 
#    1.636    1.818    0.000    0.000    0.000    0.000 
#    0.000    0.000    0.000    0.000    0.000    0.000 
#
# Total GULP energy -245392.706943 kJ/mol
# GULP energy per Si atom -5577.106976 kJ/mol
# Density = 2.416814 g / cm^3
# Si number density = 24.223271 Si / 1000 Ang^3
#
#
#
# Elastic Constant Matrix: (Units=GPa)
#
#
# Indices 1 2 3 4 5 6 
#
# 1 183.1270 31.0079 42.2925 0.0000 0.0000 0.0000
# 2 31.0079 54.4691 13.3063 0.0000 0.0000 0.0000
# 3 42.2925 13.3063 90.0560 0.0000 0.0000 0.0000
# 4 0.0000 0.0000 0.0000 31.4890 0.0000 0.0000
# 5 0.0000 0.0000 0.0000 0.0000 39.3511 0.0000
# 6 0.0000 0.0000 0.0000 0.0000 0.0000 45.9366
#
#
#
# Elastic Compliance Matrix: (Units=1/GPa)
#
#
# Indices 1 2 3 4 5 6 
#
# 1 0.006597 -0.003111 -0.002638 0.000000 0.000000 0.000000
# 2 -0.003111 0.020513 -0.001570 0.000000 0.000000 0.000000
# 3 -0.002638 -0.001570 0.012575 0.000000 0.000000 0.000000
# 4 0.000000 0.000000 0.000000 0.031757 0.000000 0.000000
# 5 0.000000 0.000000 0.000000 0.000000 0.025412 0.000000
# 6 0.000000 0.000000 0.000000 0.000000 0.000000 0.021769
#
#
# Mechanical properties :
#
#
# Convention : Reuss Voigt Hill
#
# Bulk Modulus (GPa) = 39.92501 55.65172 47.78836
# Shear Modulus (GPa) = 35.30787 39.42503 37.36645
#
# Velocity S-wave (km/s) = 3.82200 4.03869 3.93184
# Velocity P-wave (km/s) = 5.99956 6.69122 6.35481
#
# Compressibility (1/GPa) = 0.02504696
#
# Stress axis : x y z
#
# Youngs Moduli (GPa) = 151.58986 48.74840 79.52145
#
# Poissons Ratio (x) = 0.15165 0.20981
# Poissons Ratio (y) = 0.47157 0.12485
# Poissons Ratio (z) = 0.39995 0.07654
#
# Static dielectric constant tensor:
#      x y z
#    x 1.911760 0.000000 0.000000 
#    y 0.000000 1.859110 0.000000 
#    z 0.000000 0.000000 1.996750 
# 
# From -- ./inp_files/10107.got.cif
#   From: 2010.05.17/outbox.cif.g08.bks.cpg/sg62_6_cif.got.tgz:10107.got - 2010.06.03 15:25:27.
