data_PCOD9466961
_publ_section_title
;
Structure prediction by ZEFSAII (Michael W. Deem and Ramdas Pophale) SiO2 
 PCOD9466961
Probable space group: P N M A
;
_chemical_formula_sum "Si O2"
_cell_formula_units_Z 32
_cell_length_a 14.320857
_cell_length_b 13.001200
_cell_length_c 8.487090
_cell_angle_alpha 90.000000
_cell_angle_beta 90.000000
_cell_angle_gamma 90.000000
_cell_volume 1580.197080
_symmetry_space_group_name_H-M "P N M A"
_symmetry_group_IT_number 62
_symmetry_cell_setting 'orthorhombic'
loop_
_space_group_symop_operation_xyz
x,y,z
1/2-x,-y,1/2+z
1/2+x,1/2-y,1/2-z
-x,1/2+y,-z
-x,-y,-z
1/2+x,y,1/2-z
1/2-x,1/2+y,1/2+z
x,1/2-y,z
loop_
_atom_site_type_symbol
_atom_site_label
_atom_site_fract_x
_atom_site_fract_y
_atom_site_fract_z
Si Si1 0.969798 0.933826 0.251454
Si Si2 0.785085 0.868418 0.086462
Si Si3 0.500374 0.634638 0.899535
Si Si4 0.154360 0.478636 0.221234
O O1 0.888657 0.876729 0.161815
O O2 0.001521 0.877792 0.412488
O O3 0.937724 0.046661 0.316239
O O4 0.064105 0.958219 0.154728
O O5 0.754434 0.750000 0.083901
O O6 0.718791 0.940972 0.189218
O O7 0.794000 0.916584 0.913583
O O8 0.522541 0.750000 0.852606
O O9 0.396866 0.600565 0.840903
#
# Coordination Sequence:
#
# PCOD9466961 Si02
#       4
#     8   8   8   8
#     4   9  21  39  61  92 126 154 211 256 294 379
#     4  12  24  41  65  89 124 169 205 258 317 360
#     4   9  18  38  64  88 123 163 195 249 313 358
#     4  10  23  41  59  95 125 156 213 258 295 382
#
# _framework density 20.250637999999999
#
# number of rings (size 3 to 8) (size 9 to 14) (size 15 to 20)
#    1.500    0.500    0.000    3.750    0.000    2.000 
#    0.000    3.750    0.000    0.000    0.000    0.000 
#    0.000    0.000    0.000    0.000    0.000    0.000 
#
# Total GULP energy -178373.221861 kJ/mol
# GULP energy per Si atom -5574.163183 kJ/mol
# Density = 2.020455 g / cm^3
# Si number density = 20.250638 Si / 1000 Ang^3
#
#
#
# Elastic Constant Matrix: (Units=GPa)
#
#
# Indices 1 2 3 4 5 6 
#
# 1 23.8310 5.9114 -3.4179 0.0000 0.0000 0.0000
# 2 5.9114 125.6753 42.4367 0.0000 0.0000 0.0000
# 3 -3.4179 42.4367 54.7721 0.0000 0.0000 0.0000
# 4 0.0000 0.0000 0.0000 13.4281 0.0000 0.0000
# 5 0.0000 0.0000 0.0000 0.0000 30.1180 0.0000
# 6 0.0000 0.0000 0.0000 0.0000 0.0000 18.5980
#
#
#
# Elastic Compliance Matrix: (Units=1/GPa)
#
#
# Indices 1 2 3 4 5 6 
#
# 1 0.043806 -0.004041 0.005864 0.000000 0.000000 0.000000
# 2 -0.004041 0.011149 -0.008890 0.000000 0.000000 0.000000
# 3 0.005864 -0.008890 0.025512 0.000000 0.000000 0.000000
# 4 0.000000 0.000000 0.000000 0.074471 0.000000 0.000000
# 5 0.000000 0.000000 0.000000 0.000000 0.033203 0.000000
# 6 0.000000 0.000000 0.000000 0.000000 0.000000 0.053769
#
#
# Mechanical properties :
#
#
# Convention : Reuss Voigt Hill
#
# Bulk Modulus (GPa) = 15.07553 32.68209 23.87881
# Shear Modulus (GPa) = 17.97571 23.05202 20.51386
#
# Velocity S-wave (km/s) = 2.98260 3.37758 3.18622
# Velocity P-wave (km/s) = 4.39566 5.60219 5.03520
#
# Compressibility (1/GPa) = 0.06633265
#
# Stress axis : x y z
#
# Youngs Moduli (GPa) = 22.82817 89.69363 39.19800
#
# Poissons Ratio (x) = 0.36242 -0.22987
# Poissons Ratio (y) = 0.09224 0.34848
# Poissons Ratio (z) = -0.13387 0.79740
#
# Static dielectric constant tensor:
#      x y z
#    x 1.742140 0.000000 0.000000 
#    y 0.000000 1.707210 0.000000 
#    z 0.000000 0.000000 1.710490 
# 
# From -- ./inp_files/5781.got.cif
#   From: 2010.05.17/outbox.cif.g08.bks.cpg/sg62_3_cif.got.tgz:5781.got - 2010.06.03 15:25:27.
