data_PCOD9466725
_publ_section_title
;
Structure prediction by ZEFSAII (Michael W. Deem and Ramdas Pophale) SiO2 
 PCOD9466725
Probable space group: P N M A
;
_chemical_formula_sum "Si O2"
_cell_formula_units_Z 56
_cell_length_a 14.295207
_cell_length_b 30.538318
_cell_length_c 6.861233
_cell_angle_alpha 90.000000
_cell_angle_beta 90.000000
_cell_angle_gamma 90.000000
_cell_volume 2995.282088
_symmetry_space_group_name_H-M "P N M A"
_symmetry_group_IT_number 62
_symmetry_cell_setting 'orthorhombic'
loop_
_space_group_symop_operation_xyz
x,y,z
1/2-x,-y,1/2+z
1/2+x,1/2-y,1/2-z
-x,1/2+y,-z
-x,-y,-z
1/2+x,y,1/2-z
1/2-x,1/2+y,1/2+z
x,1/2-y,z
loop_
_atom_site_type_symbol
_atom_site_label
_atom_site_fract_x
_atom_site_fract_y
_atom_site_fract_z
Si Si1 0.551518 0.948134 0.815230
Si Si2 0.791231 0.156344 0.790354
Si Si3 0.203635 0.937279 0.013326
Si Si4 0.936494 0.300959 0.079387
Si Si5 0.047749 0.853847 0.524732
Si Si6 0.909549 0.697951 0.244429
Si Si7 0.136761 0.495101 0.339597
O O1 0.615334 0.935252 0.632366
O O2 0.457717 0.973540 0.756698
O O3 0.524920 0.904357 0.933273
O O4 0.608436 0.979362 0.962888
O O5 0.774779 0.109899 0.895842
O O6 0.694655 0.179222 0.732877
O O7 0.858806 0.148590 0.605979
O O8 0.850588 0.186197 0.939417
O O9 0.179139 0.970760 0.187039
O O10 0.289525 0.957652 0.893917
O O11 0.931199 0.250000 0.131603
O O12 0.936234 0.330106 0.270749
O O13 0.030792 0.308327 0.953469
O O14 0.966530 0.828580 0.408638
O O15 0.908961 0.750000 0.286850
#
# Coordination Sequence:
#
# PCOD9466725 Si02
#       7
#     8   8   8   8   8   8   8
#     4  11  23  42  62  89 126 163 209 251 312 368
#     4  11  23  40  66  92 127 161 209 263 312 371
#     4  12  22  43  61  95 125 161 211 255 308 370
#     4  10  22  41  64  91 125 163 204 257 316 375
#     4  11  22  42  63  92 123 163 209 259 309 379
#     4  10  23  42  62  91 124 160 206 256 315 377
#     4  11  24  40  64  90 126 166 204 258 310 366
#
# _framework density 18.696069000000001
#
# number of rings (size 3 to 8) (size 9 to 14) (size 15 to 20)
#    0.000    1.143    4.286    2.143    0.000    2.857 
#    5.143    1.429    0.000    0.000    0.000    0.000 
#    0.000    0.000    0.000    0.000    0.000    0.000 
#
# Total GULP energy -313026.522555 kJ/mol
# GULP energy per Si atom -5589.759331 kJ/mol
# Density = 1.865352 g / cm^3
# Si number density = 18.696069 Si / 1000 Ang^3
#
#
#
# Elastic Constant Matrix: (Units=GPa)
#
#
# Indices 1 2 3 4 5 6 
#
# 1 68.8317 28.3968 6.3648 0.0000 0.0000 0.0000
# 2 28.3968 82.3561 2.2418 0.0000 0.0000 0.0000
# 3 6.3648 2.2418 29.4441 0.0000 0.0000 0.0000
# 4 0.0000 0.0000 0.0000 36.1904 0.0000 0.0000
# 5 0.0000 0.0000 0.0000 0.0000 16.1783 0.0000
# 6 0.0000 0.0000 0.0000 0.0000 0.0000 28.9919
#
#
#
# Elastic Compliance Matrix: (Units=1/GPa)
#
#
# Indices 1 2 3 4 5 6 
#
# 1 0.017248 -0.005858 -0.003282 0.000000 0.000000 0.000000
# 2 -0.005858 0.014157 0.000188 0.000000 0.000000 0.000000
# 3 -0.003282 0.000188 0.034658 0.000000 0.000000 0.000000
# 4 0.000000 0.000000 0.000000 0.027632 0.000000 0.000000
# 5 0.000000 0.000000 0.000000 0.000000 0.061811 0.000000
# 6 0.000000 0.000000 0.000000 0.000000 0.000000 0.034492
#
#
# Mechanical properties :
#
#
# Convention : Reuss Voigt Hill
#
# Bulk Modulus (GPa) = 20.76441 28.29317 24.52879
# Shear Modulus (GPa) = 22.32583 25.84736 24.08660
#
# Velocity S-wave (km/s) = 3.45939 3.72224 3.59322
# Velocity P-wave (km/s) = 5.20451 5.79995 5.51028
#
# Compressibility (1/GPa) = 0.04815932
#
# Stress axis : x y z
#
# Youngs Moduli (GPa) = 57.97623 70.63583 28.85346
#
# Poissons Ratio (x) = 0.41378 0.09471
# Poissons Ratio (y) = 0.33962 -0.00544
# Poissons Ratio (z) = 0.19031 -0.01331
#
# Static dielectric constant tensor:
#      x y z
#    x 1.620080 0.000000 0.000000 
#    y 0.000000 1.621070 0.000000 
#    z 0.000000 0.000000 1.616600 
# 
# From -- ./inp_files/1257.got.cif
#   From: 2010.05.17/outbox.cif.g08.bks.cpg/sg62_1_cif.got.tgz:1257.got - 2010.06.03 15:25:27.
