data_PCOD9466066
_publ_section_title
;
Structure prediction by ZEFSAII (Michael W. Deem and Ramdas Pophale) SiO2 
 PCOD9466066
Probable space group: P N M A
;
_chemical_formula_sum "Si O2"
_cell_formula_units_Z 48
_cell_length_a 15.314866
_cell_length_b 8.492640
_cell_length_c 19.195394
_cell_angle_alpha 90.000000
_cell_angle_beta 90.000000
_cell_angle_gamma 90.000000
_cell_volume 2496.622884
_symmetry_space_group_name_H-M "P N M A"
_symmetry_group_IT_number 62
_symmetry_cell_setting 'orthorhombic'
loop_
_space_group_symop_operation_xyz
x,y,z
1/2-x,-y,1/2+z
1/2+x,1/2-y,1/2-z
-x,1/2+y,-z
-x,-y,-z
1/2+x,y,1/2-z
1/2-x,1/2+y,1/2+z
x,1/2-y,z
loop_
_atom_site_type_symbol
_atom_site_label
_atom_site_fract_x
_atom_site_fract_y
_atom_site_fract_z
Si Si1 0.145235 0.940378 0.822365
Si Si2 0.308316 0.061379 0.740638
Si Si3 0.754442 0.058065 0.914909
Si Si4 0.595042 0.940444 0.521668
Si Si5 0.056462 0.438505 0.564291
Si Si6 0.504139 0.438589 0.213232
O O1 0.149848 0.750000 0.821781
O O2 0.119452 0.990725 0.900075
O O3 0.071055 0.989974 0.767281
O O4 0.236980 0.007002 0.796560
O O5 0.313499 0.250000 0.740104
O O6 0.276437 0.008253 0.663907
O O7 0.402399 0.992688 0.758807
O O8 0.753939 0.250000 0.915352
O O9 0.657546 0.006019 0.936946
O O10 0.830265 0.006532 0.967623
O O11 0.593559 0.750000 0.520658
O O12 0.500000 0.000000 0.500000
O O13 0.057103 0.250000 0.561899
O O14 0.000000 0.500000 0.500000
O O15 0.015670 0.492490 0.637387
O O16 0.502271 0.250000 0.208981
#
# Coordination Sequence:
#
# PCOD9466066 Si02
#       6
#     8   8   8   8   8   8
#     4  10  22  39  61  89 122 158 200 251 306 365
#     4  11  22  38  62  90 119 158 205 255 306 365
#     4   9  20  39  62  87 122 161 198 245 307 362
#     4  10  21  39  61  88 120 157 197 245 303 362
#     4  11  23  41  62  90 123 163 208 255 309 370
#     4  11  23  40  61  89 123 162 203 254 310 368
#
# _framework density 19.225971999999999
#
# number of rings (size 3 to 8) (size 9 to 14) (size 15 to 20)
#    0.000    1.667    1.667    2.500    2.333    1.333 
#    0.000    2.500    0.000    0.000    0.000    0.000 
#    0.000    0.000    0.000    0.000    0.000    0.000 
#
# Total GULP energy -268299.692729 kJ/mol
# GULP energy per Si atom -5589.576932 kJ/mol
# Density = 1.918221 g / cm^3
# Si number density = 19.225972 Si / 1000 Ang^3
#
#
#
# Elastic Constant Matrix: (Units=GPa)
#
#
# Indices 1 2 3 4 5 6 
#
# 1 130.1387 14.2612 34.8053 0.0000 0.0000 0.0000
# 2 14.2612 21.8956 14.3520 0.0000 0.0000 0.0000
# 3 34.8053 14.3520 113.5442 0.0000 0.0000 0.0000
# 4 0.0000 0.0000 0.0000 21.5086 0.0000 0.0000
# 5 0.0000 0.0000 0.0000 0.0000 42.6184 0.0000
# 6 0.0000 0.0000 0.0000 0.0000 0.0000 27.4596
#
#
#
# Elastic Compliance Matrix: (Units=1/GPa)
#
#
# Indices 1 2 3 4 5 6 
#
# 1 0.008724 -0.004284 -0.002133 0.000000 0.000000 0.000000
# 2 -0.004284 0.051901 -0.005247 0.000000 0.000000 0.000000
# 3 -0.002133 -0.005247 0.010124 0.000000 0.000000 0.000000
# 4 0.000000 0.000000 0.000000 0.046493 0.000000 0.000000
# 5 0.000000 0.000000 0.000000 0.000000 0.023464 0.000000
# 6 0.000000 0.000000 0.000000 0.000000 0.000000 0.036417
#
#
# Mechanical properties :
#
#
# Convention : Reuss Voigt Hill
#
# Bulk Modulus (GPa) = 21.08765 43.60175 32.34470
# Shear Modulus (GPa) = 23.12051 31.79465 27.45758
#
# Velocity S-wave (km/s) = 3.47157 4.07102 3.78319
# Velocity P-wave (km/s) = 5.20203 6.69518 5.99527
#
# Compressibility (1/GPa) = 0.04742112
#
# Stress axis : x y z
#
# Youngs Moduli (GPa) = 114.62666 19.26748 98.77407
#
# Poissons Ratio (x) = 0.08255 0.21065
# Poissons Ratio (y) = 0.49109 0.51827
# Poissons Ratio (z) = 0.24446 0.10110
#
# Static dielectric constant tensor:
#      x y z
#    x 1.640840 0.000000 0.000000 
#    y 0.000000 1.651390 0.000000 
#    z 0.000000 0.000000 1.649080 
# 
# From -- ./inp_files/23647.got.cif
#   From: 2010.05.17/outbox.cif.g08.bks.cpg/sg62_12_cif.got.tgz:23647.got - 2010.06.03 15:25:27.
