data_PCOD9466101
_publ_section_title
;
Structure prediction by ZEFSAII (Michael W. Deem and Ramdas Pophale) SiO2 
 PCOD9466101
Probable space group: P N M A
;
_chemical_formula_sum "Si O2"
_cell_formula_units_Z 48
_cell_length_a 9.996569
_cell_length_b 16.145771
_cell_length_c 15.295561
_cell_angle_alpha 90.000000
_cell_angle_beta 90.000000
_cell_angle_gamma 90.000000
_cell_volume 2468.738937
_symmetry_space_group_name_H-M "P N M A"
_symmetry_group_IT_number 62
_symmetry_cell_setting 'orthorhombic'
loop_
_space_group_symop_operation_xyz
x,y,z
1/2-x,-y,1/2+z
1/2+x,1/2-y,1/2-z
-x,1/2+y,-z
-x,-y,-z
1/2+x,y,1/2-z
1/2-x,1/2+y,1/2+z
x,1/2-y,z
loop_
_atom_site_type_symbol
_atom_site_label
_atom_site_fract_x
_atom_site_fract_y
_atom_site_fract_z
Si Si1 0.896960 0.576736 0.000586
Si Si2 0.957062 0.603962 0.187392
Si Si3 0.640636 0.930705 0.756972
Si Si4 0.364647 0.507317 0.052489
Si Si5 0.741691 0.345346 0.837104
Si Si6 0.101950 0.344411 0.190869
O O1 0.751002 0.536404 0.002415
O O2 0.904844 0.626365 0.909973
O O3 0.924324 0.628483 0.087933
O O4 0.000000 0.500000 0.000000
O O5 0.907729 0.508767 0.199214
O O6 0.869729 0.650036 0.260527
O O7 0.117067 0.615850 0.196464
O O8 0.794681 0.903082 0.756313
O O9 0.544138 0.856515 0.730935
O O10 0.617764 0.959103 0.856290
O O11 0.313236 0.597764 0.083807
O O12 0.500000 0.500000 0.000000
O O13 0.764241 0.250000 0.861418
O O14 0.147177 0.250000 0.195430
#
# Coordination Sequence:
#
# PCOD9466101 Si02
#       6
#     8   8   8   8   8   8
#     4  11  21  41  63  91 121 165 216 250 308 385
#     4  11  22  41  67  89 123 168 216 255 313 396
#     4  10  21  39  63  86 120 162 212 249 301 386
#     4  10  23  39  64  90 121 168 213 252 305 383
#     4  11  24  41  62  97 130 160 209 271 322 367
#     4  11  23  39  60  93 126 158 203 264 316 360
#
# _framework density 19.443124999999998
#
# number of rings (size 3 to 8) (size 9 to 14) (size 15 to 20)
#    0.000    1.333    3.333    3.000    7.000    1.333 
#    0.000    4.167    0.000    0.000    0.000    0.000 
#    0.000    0.000    0.000    0.000    0.000    0.000 
#
# Total GULP energy -267916.108100 kJ/mol
# GULP energy per Si atom -5581.585585 kJ/mol
# Density = 1.939887 g / cm^3
# Si number density = 19.443125 Si / 1000 Ang^3
#
#
#
# Elastic Constant Matrix: (Units=GPa)
#
#
# Indices 1 2 3 4 5 6 
#
# 1 113.4750 11.0948 33.5693 0.0000 0.0000 0.0000
# 2 11.0948 83.2230 4.2903 0.0000 0.0000 0.0000
# 3 33.5693 4.2903 32.0963 0.0000 0.0000 0.0000
# 4 0.0000 0.0000 0.0000 15.2705 0.0000 0.0000
# 5 0.0000 0.0000 0.0000 0.0000 39.1783 0.0000
# 6 0.0000 0.0000 0.0000 0.0000 0.0000 23.1510
#
#
#
# Elastic Compliance Matrix: (Units=1/GPa)
#
#
# Indices 1 2 3 4 5 6 
#
# 1 0.012847 -0.001027 -0.013300 0.000000 0.000000 0.000000
# 2 -0.001027 0.012181 -0.000554 0.000000 0.000000 0.000000
# 3 -0.013300 -0.000554 0.045141 0.000000 0.000000 0.000000
# 4 0.000000 0.000000 0.000000 0.065486 0.000000 0.000000
# 5 0.000000 0.000000 0.000000 0.000000 0.025524 0.000000
# 6 0.000000 0.000000 0.000000 0.000000 0.000000 0.043195
#
#
# Mechanical properties :
#
#
# Convention : Reuss Voigt Hill
#
# Bulk Modulus (GPa) = 24.74789 36.30036 30.52412
# Shear Modulus (GPa) = 20.19343 27.50927 23.85135
#
# Velocity S-wave (km/s) = 3.22621 3.76554 3.50626
# Velocity P-wave (km/s) = 5.16081 6.13321 5.66790
#
# Compressibility (1/GPa) = 0.04040749
#
# Stress axis : x y z
#
# Youngs Moduli (GPa) = 77.83666 82.09240 22.15305
#
# Poissons Ratio (x) = 0.08432 0.29463
# Poissons Ratio (y) = 0.07995 0.01227
# Poissons Ratio (z) = 1.03521 0.04548
#
# Static dielectric constant tensor:
#      x y z
#    x 1.749560 0.000000 0.000000 
#    y 0.000000 1.715730 0.000000 
#    z 0.000000 0.000000 1.671470 
# 
# From -- ./inp_files/16942.got.cif
#   From: 2010.05.17/outbox.cif.g08.bks.cpg/sg62_9_cif.got.tgz:16942.got - 2010.06.03 15:25:27.
