data_PCOD9466681
_publ_section_title
;
Structure prediction by ZEFSAII (Michael W. Deem and Ramdas Pophale) SiO2 
 PCOD9466681
Probable space group: P N M A
;
_chemical_formula_sum "Si O2"
_cell_formula_units_Z 36
_cell_length_a 7.779250
_cell_length_b 10.265728
_cell_length_c 18.362395
_cell_angle_alpha 90.000000
_cell_angle_beta 90.000000
_cell_angle_gamma 90.000000
_cell_volume 1466.414705
_symmetry_space_group_name_H-M "P N M A"
_symmetry_group_IT_number 62
_symmetry_cell_setting 'orthorhombic'
loop_
_space_group_symop_operation_xyz
x,y,z
1/2-x,-y,1/2+z
1/2+x,1/2-y,1/2-z
-x,1/2+y,-z
-x,-y,-z
1/2+x,y,1/2-z
1/2-x,1/2+y,1/2+z
x,1/2-y,z
loop_
_atom_site_type_symbol
_atom_site_label
_atom_site_fract_x
_atom_site_fract_y
_atom_site_fract_z
Si Si1 0.812837 0.250000 0.307685
Si Si2 0.875012 0.522197 0.890757
Si Si3 0.239173 0.898364 0.964602
Si Si4 0.391732 0.975097 0.263788
Si Si5 0.586529 0.893432 0.131077
O O1 0.746072 0.361869 0.364965
O O2 0.870188 0.368354 0.250100
O O3 0.051861 0.577005 0.927805
O O4 0.943922 0.458524 0.816592
O O5 0.788011 0.431264 0.950896
O O6 0.291135 0.750000 0.951741
O O7 0.375228 0.995370 0.927625
O O8 0.428386 0.912107 0.185750
O O9 0.243627 0.913461 0.312354
O O10 0.589469 0.750000 0.098138
#
# Coordination Sequence:
#
# PCOD9466681 Si02
#       5
#     4   8   8   8   8
#     4  12  22  40  68 106 132 182 224 298 336 416
#     4  10  22  40  67 101 140 174 234 283 341 407
#     4  10  23  41  72 101 136 186 235 282 343 425
#     4  11  24  40  70  98 139 182 230 288 357 412
#     4  11  25  43  67 101 139 182 234 296 354 420
#
# _framework density 24.549672999999999
#
# number of rings (size 3 to 8) (size 9 to 14) (size 15 to 20)
#    0.000    1.333    3.333    1.333    7.778    6.222 
#    0.000    1.111    0.000    0.000    0.000    0.000 
#    0.000    0.000    0.000    0.000    0.000    0.000 
#
# Total GULP energy -200425.013306 kJ/mol
# GULP energy per Si atom -5567.361481 kJ/mol
# Density = 2.449380 g / cm^3
# Si number density = 24.549673 Si / 1000 Ang^3
#
#
#
# Elastic Constant Matrix: (Units=GPa)
#
#
# Indices 1 2 3 4 5 6 
#
# 1 58.2145 33.9929 14.5170 0.0000 0.0000 0.0000
# 2 33.9929 126.7941 50.7012 0.0000 0.0000 0.0000
# 3 14.5170 50.7012 140.9116 0.0000 0.0000 0.0000
# 4 0.0000 0.0000 0.0000 40.2252 0.0000 0.0000
# 5 0.0000 0.0000 0.0000 0.0000 53.1459 0.0000
# 6 0.0000 0.0000 0.0000 0.0000 0.0000 9.2117
#
#
#
# Elastic Compliance Matrix: (Units=1/GPa)
#
#
# Indices 1 2 3 4 5 6 
#
# 1 0.020369 -0.005398 -0.000156 0.000000 0.000000 0.000000
# 2 -0.005398 0.010643 -0.003273 0.000000 0.000000 0.000000
# 3 -0.000156 -0.003273 0.008290 0.000000 0.000000 0.000000
# 4 0.000000 0.000000 0.000000 0.024860 0.000000 0.000000
# 5 0.000000 0.000000 0.000000 0.000000 0.018816 0.000000
# 6 0.000000 0.000000 0.000000 0.000000 0.000000 0.108558
#
#
# Mechanical properties :
#
#
# Convention : Reuss Voigt Hill
#
# Bulk Modulus (GPa) = 46.19585 58.26025 52.22805
# Shear Modulus (GPa) = 23.10453 35.63051 29.36752
#
# Velocity S-wave (km/s) = 3.07112 3.81381 3.46244
# Velocity P-wave (km/s) = 5.60659 6.57089 6.10780
#
# Compressibility (1/GPa) = 0.02164697
#
# Stress axis : x y z
#
# Youngs Moduli (GPa) = 49.09411 93.95869 120.62035
#
# Poissons Ratio (x) = 0.50723 0.01882
# Poissons Ratio (y) = 0.26503 0.39482
# Poissons Ratio (z) = 0.00766 0.30755
#
# Static dielectric constant tensor:
#      x y z
#    x 2.130280 0.000000 0.000000 
#    y 0.000000 1.905210 0.000000 
#    z 0.000000 0.000000 1.924740 
# 
# From -- ./inp_files/25610.got.cif
#   From: 2010.05.17/outbox.cif.g08.bks.cpg/sg62_13_cif.got.tgz:25610.got - 2010.06.03 15:25:27.
