data_PCOD9466308
_publ_section_title
;
Structure prediction by ZEFSAII (Michael W. Deem and Ramdas Pophale) SiO2 
 PCOD9466308
Probable space group: P N M A
;
_chemical_formula_sum "Si O2"
_cell_formula_units_Z 28
_cell_length_a 25.283921
_cell_length_b 5.275179
_cell_length_c 10.036668
_cell_angle_alpha 90.000000
_cell_angle_beta 90.000000
_cell_angle_gamma 90.000000
_cell_volume 1338.662766
_symmetry_space_group_name_H-M "P N M A"
_symmetry_group_IT_number 62
_symmetry_cell_setting 'orthorhombic'
loop_
_space_group_symop_operation_xyz
x,y,z
1/2-x,-y,1/2+z
1/2+x,1/2-y,1/2-z
-x,1/2+y,-z
-x,-y,-z
1/2+x,y,1/2-z
1/2-x,1/2+y,1/2+z
x,1/2-y,z
loop_
_atom_site_type_symbol
_atom_site_label
_atom_site_fract_x
_atom_site_fract_y
_atom_site_fract_z
Si Si1 0.374216 0.750000 0.225533
Si Si2 0.681601 0.750000 0.863791
Si Si3 0.410493 0.750000 0.526184
Si Si4 0.335695 0.250000 0.832001
Si Si5 0.801359 0.750000 0.807458
Si Si6 0.518340 0.250000 0.919656
Si Si7 0.944517 0.250000 0.832377
O O1 0.338873 0.499802 0.210275
O O2 0.401846 0.750000 0.369136
O O3 0.419085 0.750000 0.110288
O O4 0.744811 0.750000 0.877611
O O5 0.657538 0.750000 0.011046
O O6 0.351778 0.750000 0.593644
O O7 0.440651 0.501120 0.578318
O O8 0.305993 0.501139 0.783358
O O9 0.391907 0.250000 0.758821
O O10 0.491123 0.250000 0.774490
O O11 0.500000 0.500000 0.000000
#
# Coordination Sequence:
#
# PCOD9466308 Si02
#       7
#     4   4   4   4   4   4   4
#     4  12  26  43  64 100 130 169 214 277 320 378
#     4  12  25  40  65  91 134 167 213 269 323 379
#     4  10  23  42  63  94 133 164 219 263 320 391
#     4  10  21  41  59  91 120 164 220 251 316 383
#     4  10  23  38  63  88 123 173 206 261 317 384
#     4  12  25  43  71  98 132 169 221 268 328 383
#     4  10  21  41  67  90 128 174 207 265 318 382
#
# _framework density 20.916395000000001
#
# number of rings (size 3 to 8) (size 9 to 14) (size 15 to 20)
#    0.000    1.143    0.000    6.000    4.000    3.429 
#    0.000    0.000    0.000    0.000    0.000    0.000 
#    0.000    0.000    0.000    0.000    0.000    0.000 
#
# Total GULP energy -156726.949222 kJ/mol
# GULP energy per Si atom -5597.391044 kJ/mol
# Density = 2.086879 g / cm^3
# Si number density = 20.916395 Si / 1000 Ang^3
#
#
#
# Elastic Constant Matrix: (Units=GPa)
#
#
# Indices 1 2 3 4 5 6 
#
# 1 87.2286 43.0510 8.7135 0.0000 0.0000 0.0000
# 2 43.0510 198.7569 50.4830 0.0000 0.0000 0.0000
# 3 8.7135 50.4830 108.9261 0.0000 0.0000 0.0000
# 4 0.0000 0.0000 0.0000 -6.0894 0.0000 0.0000
# 5 0.0000 0.0000 0.0000 0.0000 14.9616 0.0000
# 6 0.0000 0.0000 0.0000 0.0000 0.0000 0.7827
#
#
#
# Elastic Compliance Matrix: (Units=1/GPa)
#
#
# Indices 1 2 3 4 5 6 
#
# 1 0.012845 -0.002858 0.000297 0.000000 0.000000 0.000000
# 2 -0.002858 0.006338 -0.002709 0.000000 0.000000 0.000000
# 3 0.000297 -0.002709 0.010412 0.000000 0.000000 0.000000
# 4 0.000000 0.000000 0.000000 -0.164218 0.000000 0.000000
# 5 0.000000 0.000000 0.000000 0.000000 0.066838 0.000000
# 6 0.000000 0.000000 0.000000 0.000000 0.000000 1.277667
#
#
# Mechanical properties :
#
#
# Convention : Reuss Voigt Hill
#
# Bulk Modulus (GPa) = 52.47685 66.60071 59.53878
# Shear Modulus (GPa) = 4.07573 21.44191 12.75882
#
# Velocity S-wave (km/s) = 1.39743 3.20523 2.47248
# Velocity P-wave (km/s) = 5.26755 6.75341 6.05622
#
# Compressibility (1/GPa) = 0.01905602
#
# Stress axis : x y z
#
# Youngs Moduli (GPa) = 77.85233 157.77121 96.04038
#
# Poissons Ratio (x) = 0.45085 -0.02851
# Poissons Ratio (y) = 0.22247 0.26017
# Poissons Ratio (z) = -0.02311 0.42740
#
# Static dielectric constant tensor:
#      x y z
#    x 1.779900 0.000000 0.000000 
#    y 0.000000 1.718170 0.000000 
#    z 0.000000 0.000000 1.704330 
# 
# From -- ./inp_files/9032.got.cif
#   From: 2010.05.17/outbox.cif.g08.bks.cpg/sg62_5_cif.got.tgz:9032.got - 2010.06.03 15:25:27.
