data_PCOD9466626
_publ_section_title
;
Structure prediction by ZEFSAII (Michael W. Deem and Ramdas Pophale) SiO2 
 PCOD9466626
Probable space group: P N M A
;
_chemical_formula_sum "Si O2"
_cell_formula_units_Z 40
_cell_length_a 9.810884
_cell_length_b 24.519840
_cell_length_c 8.644152
_cell_angle_alpha 90.000000
_cell_angle_beta 90.000000
_cell_angle_gamma 90.000000
_cell_volume 2079.448494
_symmetry_space_group_name_H-M "P N M A"
_symmetry_group_IT_number 62
_symmetry_cell_setting 'orthorhombic'
loop_
_space_group_symop_operation_xyz
x,y,z
1/2-x,-y,1/2+z
1/2+x,1/2-y,1/2-z
-x,1/2+y,-z
-x,-y,-z
1/2+x,y,1/2-z
1/2-x,1/2+y,1/2+z
x,1/2-y,z
loop_
_atom_site_type_symbol
_atom_site_label
_atom_site_fract_x
_atom_site_fract_y
_atom_site_fract_z
Si Si1 0.883731 0.652548 0.181467
Si Si2 0.039784 0.250000 0.050315
Si Si3 0.332112 0.250000 0.184671
Si Si4 0.611952 0.537500 0.923275
Si Si5 0.389267 0.526559 0.390757
Si Si6 0.082876 0.655837 0.453085
O O1 0.925048 0.588994 0.155762
O O2 0.718989 0.654563 0.157693
O O3 0.951486 0.667223 0.346247
O O4 0.941982 0.696161 0.057014
O O5 0.900306 0.250000 0.147028
O O6 0.167845 0.250000 0.170314
O O7 0.385969 0.300618 0.084658
O O8 0.629263 0.514312 0.752160
O O9 0.500000 0.500000 0.000000
O O10 0.751494 0.530467 0.013966
O O11 0.568543 0.599311 0.954657
O O12 0.500000 0.500000 0.500000
#
# Coordination Sequence:
#
# PCOD9466626 Si02
#       6
#     8   4   4   8   8   8
#     4  10  22  40  62  88 121 160 201 251 302 367
#     4  10  23  42  62  90 122 156 207 252 308 360
#     4  10  23  42  60  90 122 156 205 258 304 358
#     4  11  22  40  61  90 125 162 203 252 304 364
#     4  11  24  39  61  91 124 162 207 253 303 368
#     4  10  22  40  63  89 122 159 205 251 302 365
#
# _framework density 19.235869999999998
#
# number of rings (size 3 to 8) (size 9 to 14) (size 15 to 20)
#    0.000    1.600    2.000    1.800    5.600    1.600 
#    3.600    0.000    0.000    0.000    0.000    0.000 
#    0.000    0.000    0.000    0.000    0.000    0.000 
#
# Total GULP energy -223226.673599 kJ/mol
# GULP energy per Si atom -5580.666840 kJ/mol
# Density = 1.919209 g / cm^3
# Si number density = 19.235870 Si / 1000 Ang^3
#
#
#
# Elastic Constant Matrix: (Units=GPa)
#
#
# Indices 1 2 3 4 5 6 
#
# 1 14.3216 14.5224 0.5873 0.0000 0.0000 0.0000
# 2 14.5224 93.1383 16.9209 0.0000 0.0000 0.0000
# 3 0.5873 16.9209 79.8105 0.0000 0.0000 0.0000
# 4 0.0000 0.0000 0.0000 16.9246 0.0000 0.0000
# 5 0.0000 0.0000 0.0000 0.0000 41.0486 0.0000
# 6 0.0000 0.0000 0.0000 0.0000 0.0000 22.4801
#
#
#
# Elastic Compliance Matrix: (Units=1/GPa)
#
#
# Indices 1 2 3 4 5 6 
#
# 1 0.083317 -0.013396 0.002227 0.000000 0.000000 0.000000
# 2 -0.013396 0.013321 -0.002726 0.000000 0.000000 0.000000
# 3 0.002227 -0.002726 0.013091 0.000000 0.000000 0.000000
# 4 0.000000 0.000000 0.000000 0.059086 0.000000 0.000000
# 5 0.000000 0.000000 0.000000 0.000000 0.024361 0.000000
# 6 0.000000 0.000000 0.000000 0.000000 0.000000 0.044484
#
#
# Mechanical properties :
#
#
# Convention : Reuss Voigt Hill
#
# Bulk Modulus (GPa) = 12.20403 27.92574 20.06488
# Shear Modulus (GPa) = 17.07877 26.43997 21.75937
#
# Velocity S-wave (km/s) = 2.98293 3.71147 3.36696
# Velocity P-wave (km/s) = 4.26873 5.73722 5.05657
#
# Compressibility (1/GPa) = 0.08194017
#
# Stress axis : x y z
#
# Youngs Moduli (GPa) = 12.00237 75.07179 76.38749
#
# Poissons Ratio (x) = 1.00563 -0.17011
# Poissons Ratio (y) = 0.16078 0.20820
# Poissons Ratio (z) = -0.02673 0.20461
#
# Static dielectric constant tensor:
#      x y z
#    x 1.670240 0.000000 0.000000 
#    y 0.000000 1.696410 0.000000 
#    z 0.000000 0.000000 1.966990 
# 
# From -- ./inp_files/4318.got.cif
#   From: 2010.05.17/outbox.cif.g08.bks.cpg/sg62_3_cif.got.tgz:4318.got - 2010.06.03 15:25:27.
