data_PCOD9466881
_publ_section_title
;
Structure prediction by ZEFSAII (Michael W. Deem and Ramdas Pophale) SiO2 
 PCOD9466881
Probable space group: P N M A
;
_chemical_formula_sum "Si O2"
_cell_formula_units_Z 40
_cell_length_a 7.801049
_cell_length_b 16.399291
_cell_length_c 12.738523
_cell_angle_alpha 90.000000
_cell_angle_beta 90.000000
_cell_angle_gamma 90.000000
_cell_volume 1629.660555
_symmetry_space_group_name_H-M "P N M A"
_symmetry_group_IT_number 62
_symmetry_cell_setting 'orthorhombic'
loop_
_space_group_symop_operation_xyz
x,y,z
1/2-x,-y,1/2+z
1/2+x,1/2-y,1/2-z
-x,1/2+y,-z
-x,-y,-z
1/2+x,y,1/2-z
1/2-x,1/2+y,1/2+z
x,1/2-y,z
loop_
_atom_site_type_symbol
_atom_site_label
_atom_site_fract_x
_atom_site_fract_y
_atom_site_fract_z
Si Si1 0.769208 0.345304 0.885645
Si Si2 0.670765 0.552602 0.016858
Si Si3 0.717372 0.892049 0.608017
Si Si4 0.163549 0.154413 0.166293
Si Si5 0.352744 0.848166 0.331384
O O1 0.775273 0.250000 0.864027
O O2 0.669102 0.381480 0.786722
O O3 0.965793 0.375499 0.879893
O O4 0.701712 0.354255 0.002849
O O5 0.730572 0.593079 0.908185
O O6 0.500000 0.500000 0.000000
O O7 0.794630 0.486062 0.073427
O O8 0.689379 0.625283 0.100342
O O9 0.532228 0.853149 0.628638
O O10 0.821950 0.875405 0.713625
O O11 0.216852 0.250000 0.158642
O O12 0.358081 0.750000 0.333005
#
# Coordination Sequence:
#
# PCOD9466881 Si02
#       5
#     8   8   8   8   8
#     4  10  22  43  72 106 139 186 241 302 367 440
#     4  12  28  46  73 110 151 197 251 315 383 447
#     4  12  27  46  77 110 149 196 256 317 380 448
#     4  12  26  51  78 108 153 208 257 315 385 463
#     4  10  23  44  73 102 145 193 242 300 372 452
#
# _framework density 24.544989999999999
#
# number of rings (size 3 to 8) (size 9 to 14) (size 15 to 20)
#    0.000    0.800    2.000    4.200    5.600    0.000 
#    0.000    4.000    0.000    0.000    0.000    0.000 
#    0.000    0.000    0.000    0.000    0.000    0.000 
#
# Total GULP energy -223630.899369 kJ/mol
# GULP energy per Si atom -5590.772484 kJ/mol
# Density = 2.448912 g / cm^3
# Si number density = 24.544990 Si / 1000 Ang^3
#
#
#
# Elastic Constant Matrix: (Units=GPa)
#
#
# Indices 1 2 3 4 5 6 
#
# 1 46.7117 20.4962 35.9889 0.0000 0.0000 0.0000
# 2 20.4962 101.9683 29.7168 0.0000 0.0000 0.0000
# 3 35.9889 29.7168 215.8255 0.0000 0.0000 0.0000
# 4 0.0000 0.0000 0.0000 29.5954 0.0000 0.0000
# 5 0.0000 0.0000 0.0000 0.0000 32.4415 0.0000
# 6 0.0000 0.0000 0.0000 0.0000 0.0000 29.7598
#
#
#
# Elastic Compliance Matrix: (Units=1/GPa)
#
#
# Indices 1 2 3 4 5 6 
#
# 1 0.026149 -0.004152 -0.003789 0.000000 0.000000 0.000000
# 2 -0.004152 0.010876 -0.000805 0.000000 0.000000 0.000000
# 3 -0.003789 -0.000805 0.005376 0.000000 0.000000 0.000000
# 4 0.000000 0.000000 0.000000 0.033789 0.000000 0.000000
# 5 0.000000 0.000000 0.000000 0.000000 0.030825 0.000000
# 6 0.000000 0.000000 0.000000 0.000000 0.000000 0.033602
#
#
# Mechanical properties :
#
#
# Convention : Reuss Voigt Hill
#
# Bulk Modulus (GPa) = 40.14553 59.65658 49.90105
# Shear Modulus (GPa) = 30.04599 36.91290 33.47945
#
# Velocity S-wave (km/s) = 3.50254 3.88221 3.69725
# Velocity P-wave (km/s) = 5.72262 6.66732 6.21295
#
# Compressibility (1/GPa) = 0.02490938
#
# Stress axis : x y z
#
# Youngs Moduli (GPa) = 38.24294 91.94397 186.01223
#
# Poissons Ratio (x) = 0.38174 0.70473
# Poissons Ratio (y) = 0.15878 0.14978
# Poissons Ratio (z) = 0.14489 0.07403
#
# Static dielectric constant tensor:
#      x y z
#    x 1.990580 0.000000 0.000000 
#    y 0.000000 2.127140 0.000000 
#    z 0.000000 0.000000 1.964900 
# 
# From -- ./inp_files/11082.got.cif
#   From: 2010.05.17/outbox.cif.g08.bks.cpg/sg62_6_cif.got.tgz:11082.got - 2010.06.03 15:25:27.
