data_PCOD9466637
_publ_section_title
;
Structure prediction by ZEFSAII (Michael W. Deem and Ramdas Pophale) SiO2 
 PCOD9466637
Probable space group: P N M A
;
_chemical_formula_sum "Si O2"
_cell_formula_units_Z 48
_cell_length_a 8.574724
_cell_length_b 10.702563
_cell_length_c 26.160362
_cell_angle_alpha 90.000000
_cell_angle_beta 90.000000
_cell_angle_gamma 90.000000
_cell_volume 2400.776284
_symmetry_space_group_name_H-M "P N M A"
_symmetry_group_IT_number 62
_symmetry_cell_setting 'orthorhombic'
loop_
_space_group_symop_operation_xyz
x,y,z
1/2-x,-y,1/2+z
1/2+x,1/2-y,1/2-z
-x,1/2+y,-z
-x,-y,-z
1/2+x,y,1/2-z
1/2-x,1/2+y,1/2+z
x,1/2-y,z
loop_
_atom_site_type_symbol
_atom_site_label
_atom_site_fract_x
_atom_site_fract_y
_atom_site_fract_z
Si Si1 0.372145 0.750000 0.674916
Si Si2 0.667890 0.499830 0.203895
Si Si3 0.174941 0.006028 0.109853
Si Si4 0.977271 0.250000 0.279009
Si Si5 0.661161 0.392940 0.609859
Si Si6 0.653627 0.391090 0.797836
Si Si7 0.857442 0.600172 0.997070
O O1 0.381805 0.871716 0.640204
O O2 0.505920 0.750000 0.717657
O O3 0.199569 0.750000 0.701044
O O4 0.574014 0.370716 0.203334
O O5 0.766819 0.520060 0.153010
O O6 0.772191 0.520659 0.254194
O O7 0.531144 0.601710 0.207029
O O8 0.228829 0.054486 0.054304
O O9 0.299137 0.939795 0.146221
O O10 0.024185 0.917058 0.105893
O O11 0.688537 0.250000 0.625286
O O12 0.724467 0.411850 0.552242
O O13 0.709897 0.250000 0.790523
O O14 0.898821 0.750000 0.992226
O O15 0.000000 0.500000 0.000000
#
# Coordination Sequence:
#
# PCOD9466637 Si02
#       7
#     4   8   8   4   8   8   8
#     4  12  24  40  60  88 124 158 204 251 305 358
#     4  12  24  41  61  88 123 160 204 247 310 358
#     4  11  21  38  64  89 119 162 201 251 308 359
#     4  12  24  42  60  90 124 160 210 251 297 370
#     4  10  22  40  62  92 124 158 203 254 301 364
#     4  12  24  39  61  88 122 160 200 249 302 373
#     4   9  19  37  62  90 122 158 206 255 308 364
#
# _framework density 19.993534
#
# number of rings (size 3 to 8) (size 9 to 14) (size 15 to 20)
#    0.000    1.000    4.167    3.000    2.333    0.667 
#    1.500    0.833    0.000    0.000    0.000    0.000 
#    0.000    0.000    0.000    0.000    0.000    0.000 
#
# Total GULP energy -267961.341500 kJ/mol
# GULP energy per Si atom -5582.527948 kJ/mol
# Density = 1.994803 g / cm^3
# Si number density = 19.993534 Si / 1000 Ang^3
#
#
#
# Elastic Constant Matrix: (Units=GPa)
#
#
# Indices 1 2 3 4 5 6 
#
# 1 62.2905 -11.9609 62.1132 0.0000 0.0000 0.0000
# 2 -11.9609 102.8988 4.4638 0.0000 0.0000 0.0000
# 3 62.1132 4.4638 212.2574 0.0000 0.0000 0.0000
# 4 0.0000 0.0000 0.0000 26.7262 0.0000 0.0000
# 5 0.0000 0.0000 0.0000 0.0000 23.9854 0.0000
# 6 0.0000 0.0000 0.0000 0.0000 0.0000 24.7014
#
#
#
# Elastic Compliance Matrix: (Units=1/GPa)
#
#
# Indices 1 2 3 4 5 6 
#
# 1 0.023584 0.003044 -0.006965 0.000000 0.000000 0.000000
# 2 0.003044 0.010120 -0.001103 0.000000 0.000000 0.000000
# 3 -0.006965 -0.001103 0.006773 0.000000 0.000000 0.000000
# 4 0.000000 0.000000 0.000000 0.037416 0.000000 0.000000
# 5 0.000000 0.000000 0.000000 0.000000 0.041692 0.000000
# 6 0.000000 0.000000 0.000000 0.000000 0.000000 0.040483
#
#
# Mechanical properties :
#
#
# Convention : Reuss Voigt Hill
#
# Bulk Modulus (GPa) = 32.86676 54.07543 43.47109
# Shear Modulus (GPa) = 27.73757 36.60465 32.17111
#
# Velocity S-wave (km/s) = 3.72872 4.28346 4.01568
# Velocity P-wave (km/s) = 5.91711 7.18117 6.57957
#
# Compressibility (1/GPa) = 0.03042588
#
# Stress axis : x y z
#
# Youngs Moduli (GPa) = 42.40200 98.81488 147.65040
#
# Poissons Ratio (x) = -0.30075 1.02844
# Poissons Ratio (y) = -0.12905 0.16293
# Poissons Ratio (z) = 0.29535 0.10904
#
# Static dielectric constant tensor:
#      x y z
#    x 1.669160 0.000000 0.000000 
#    y 0.000000 1.734770 0.000000 
#    z 0.000000 0.000000 1.729840 
# 
# From -- ./inp_files/28836.got.cif
#   From: 2010.05.17/outbox.cif.g08.bks.cpg/sg62_15_cif.got.tgz:28836.got - 2010.06.03 15:25:27.
