data_PCOD9466004
_publ_section_title
;
Structure prediction by ZEFSAII (Michael W. Deem and Ramdas Pophale) SiO2 
 PCOD9466004
Probable space group: P N M A
;
_chemical_formula_sum "Si O2"
_cell_formula_units_Z 56
_cell_length_a 11.331820
_cell_length_b 13.750416
_cell_length_c 15.302619
_cell_angle_alpha 90.000000
_cell_angle_beta 90.000000
_cell_angle_gamma 90.000000
_cell_volume 2384.411843
_symmetry_space_group_name_H-M "P N M A"
_symmetry_group_IT_number 62
_symmetry_cell_setting 'orthorhombic'
loop_
_space_group_symop_operation_xyz
x,y,z
1/2-x,-y,1/2+z
1/2+x,1/2-y,1/2-z
-x,1/2+y,-z
-x,-y,-z
1/2+x,y,1/2-z
1/2-x,1/2+y,1/2+z
x,1/2-y,z
loop_
_atom_site_type_symbol
_atom_site_label
_atom_site_fract_x
_atom_site_fract_y
_atom_site_fract_z
Si Si1 0.116645 0.135656 0.113892
Si Si2 0.003881 0.638950 0.697424
Si Si3 0.831077 0.358316 0.599519
Si Si4 0.610416 0.866592 0.280319
Si Si5 0.545253 0.391649 0.009066
Si Si6 0.312376 0.523263 0.138078
Si Si7 0.931700 0.632048 0.071509
O O1 0.154569 0.250000 0.104740
O O2 0.220502 0.057830 0.104024
O O3 0.062747 0.126505 0.210708
O O4 0.033449 0.115079 0.029791
O O5 0.055133 0.750000 0.699422
O O6 0.093421 0.549521 0.682756
O O7 0.925019 0.635318 0.608044
O O8 0.798896 0.250000 0.628262
O O9 0.910582 0.396762 0.679798
O O10 0.703610 0.405138 0.583946
O O11 0.921263 0.345696 0.520144
O O12 0.606925 0.750000 0.288738
O O13 0.519375 0.904561 0.353305
O O14 0.739912 0.909384 0.296124
O O15 0.646415 0.398739 0.936326
O O16 0.500000 0.500000 0.000000
O O17 0.931470 0.750000 0.079134
#
# Coordination Sequence:
#
# PCOD9466004 Si02
#       7
#     8   8   8   8   8   8   8
#     4  10  22  43  70  96 129 179 222 273 334 393
#     4  10  22  43  67  96 132 172 228 279 329 395
#     4  10  21  38  65  89 122 175 219 264 323 390
#     4  10  24  40  60  95 133 174 217 270 333 396
#     4  10  22  38  61  96 125 164 210 270 329 389
#     4  11  24  40  65  96 137 168 215 275 331 402
#     4   9  19  40  65  92 127 168 223 268 318 396
#
# _framework density 23.485876000000001
#
# number of rings (size 3 to 8) (size 9 to 14) (size 15 to 20)
#    0.000    2.000    0.000    2.571    6.000    2.857 
#    2.571    0.000    0.000    0.000    0.000    0.000 
#    0.000    0.000    0.000    0.000    0.000    0.000 
#
# Total GULP energy -311738.766552 kJ/mol
# GULP energy per Si atom -5566.763688 kJ/mol
# Density = 2.343242 g / cm^3
# Si number density = 23.485876 Si / 1000 Ang^3
#
#
#
# Elastic Constant Matrix: (Units=GPa)
#
#
# Indices 1 2 3 4 5 6 
#
# 1 68.3171 30.6765 58.6056 0.0000 0.0000 0.0000
# 2 30.6765 66.5600 22.1429 0.0000 0.0000 0.0000
# 3 58.6056 22.1429 180.6911 0.0000 0.0000 0.0000
# 4 0.0000 0.0000 0.0000 24.8195 0.0000 0.0000
# 5 0.0000 0.0000 0.0000 0.0000 27.0502 0.0000
# 6 0.0000 0.0000 0.0000 0.0000 0.0000 22.6696
#
#
#
# Elastic Compliance Matrix: (Units=1/GPa)
#
#
# Indices 1 2 3 4 5 6 
#
# 1 0.024592 -0.009050 -0.006867 0.000000 0.000000 0.000000
# 2 -0.009050 0.018993 0.000608 0.000000 0.000000 0.000000
# 3 -0.006867 0.000608 0.007687 0.000000 0.000000 0.000000
# 4 0.000000 0.000000 0.000000 0.040291 0.000000 0.000000
# 5 0.000000 0.000000 0.000000 0.000000 0.036968 0.000000
# 6 0.000000 0.000000 0.000000 0.000000 0.000000 0.044112
#
#
# Mechanical properties :
#
#
# Convention : Reuss Voigt Hill
#
# Bulk Modulus (GPa) = 48.41746 59.82425 54.12086
# Shear Modulus (GPa) = 23.79293 28.51739 26.15516
#
# Velocity S-wave (km/s) = 3.18634 3.48837 3.34077
# Velocity P-wave (km/s) = 5.84785 6.46163 6.16239
#
# Compressibility (1/GPa) = 0.02065371
#
# Stress axis : x y z
#
# Youngs Moduli (GPa) = 40.66317 52.65177 130.08658
#
# Poissons Ratio (x) = 0.47648 0.89334
# Poissons Ratio (y) = 0.36799 -0.07905
# Poissons Ratio (z) = 0.27925 -0.03200
#
# Static dielectric constant tensor:
#      x y z
#    x 0.774450 0.000000 0.000000 
#    y 0.000000 1.872990 0.000000 
#    z 0.000000 0.000000 2.544320 
# 
# From -- ./inp_files/18102.got.cif
#   From: 2010.05.17/outbox.cif.g08.bks.cpg/sg62_10_cif.got.tgz:18102.got - 2010.06.03 15:25:27.
