data_PCOD9466730
_publ_section_title
;
Structure prediction by ZEFSAII (Michael W. Deem and Ramdas Pophale) SiO2 
 PCOD9466730
Probable space group: P N M A
;
_chemical_formula_sum "Si O2"
_cell_formula_units_Z 56
_cell_length_a 8.947198
_cell_length_b 14.473667
_cell_length_c 19.560963
_cell_angle_alpha 90.000000
_cell_angle_beta 90.000000
_cell_angle_gamma 90.000000
_cell_volume 2533.120540
_symmetry_space_group_name_H-M "P N M A"
_symmetry_group_IT_number 62
_symmetry_cell_setting 'orthorhombic'
loop_
_space_group_symop_operation_xyz
x,y,z
1/2-x,-y,1/2+z
1/2+x,1/2-y,1/2-z
-x,1/2+y,-z
-x,-y,-z
1/2+x,y,1/2-z
1/2-x,1/2+y,1/2+z
x,1/2-y,z
loop_
_atom_site_type_symbol
_atom_site_label
_atom_site_fract_x
_atom_site_fract_y
_atom_site_fract_z
Si Si1 0.428272 0.142903 0.473371
Si Si2 0.731400 0.456617 0.515193
Si Si3 0.764925 0.649070 0.151343
Si Si4 0.965284 0.085282 0.763316
Si Si5 0.253692 0.644888 0.844079
Si Si6 0.284200 0.040415 0.203813
Si Si7 0.569044 0.857319 0.915233
O O1 0.402642 0.250000 0.495208
O O2 0.593905 0.108742 0.490430
O O3 0.390493 0.139822 0.392617
O O4 0.318974 0.061529 0.500884
O O5 0.748022 0.431546 0.595252
O O6 0.877245 0.423491 0.475424
O O7 0.746797 0.750000 0.118578
O O8 0.645271 0.637991 0.212218
O O9 0.925683 0.641790 0.187763
O O10 0.861697 0.020211 0.810576
O O11 0.073272 0.025309 0.714564
O O12 0.268996 0.750000 0.819261
O O13 0.244140 0.581761 0.778608
O O14 0.399961 0.627273 0.890130
O O15 0.324934 0.116593 0.148600
O O16 0.584480 0.750000 0.934088
#
# Coordination Sequence:
#
# PCOD9466730 Si02
#       7
#     8   8   8   8   8   8   8
#     4  10  22  42  66  96 129 169 219 267 325 394
#     4  11  25  41  68  95 132 176 217 270 329 394
#     4  11  23  45  67  96 132 171 220 278 331 387
#     4  10  23  39  67  91 124 168 225 271 328 386
#     4  10  22  41  64  94 132 171 216 270 327 391
#     4  11  21  40  61  95 131 173 219 267 326 384
#     4  11  24  40  61  97 134 176 220 266 327 399
#
# _framework density 22.107120999999999
#
# number of rings (size 3 to 8) (size 9 to 14) (size 15 to 20)
#    0.000    1.429    1.429    3.857    6.000    0.571 
#    0.000    0.000    0.000    0.000    0.000    0.000 
#    0.000    0.000    0.000    0.000    0.000    0.000 
#
# Total GULP energy -313094.767110 kJ/mol
# GULP energy per Si atom -5590.977984 kJ/mol
# Density = 2.205680 g / cm^3
# Si number density = 22.107121 Si / 1000 Ang^3
#
#
#
# Elastic Constant Matrix: (Units=GPa)
#
#
# Indices 1 2 3 4 5 6 
#
# 1 75.3597 36.8015 23.8631 0.0000 0.0000 0.0000
# 2 36.8015 139.9327 20.6963 0.0000 0.0000 0.0000
# 3 23.8631 20.6963 73.1451 0.0000 0.0000 0.0000
# 4 0.0000 0.0000 0.0000 27.6713 0.0000 0.0000
# 5 0.0000 0.0000 0.0000 0.0000 25.6778 0.0000
# 6 0.0000 0.0000 0.0000 0.0000 0.0000 22.0768
#
#
#
# Elastic Compliance Matrix: (Units=1/GPa)
#
#
# Indices 1 2 3 4 5 6 
#
# 1 0.016437 -0.003684 -0.004320 0.000000 0.000000 0.000000
# 2 -0.003684 0.008284 -0.001142 0.000000 0.000000 0.000000
# 3 -0.004320 -0.001142 0.015404 0.000000 0.000000 0.000000
# 4 0.000000 0.000000 0.000000 0.036138 0.000000 0.000000
# 5 0.000000 0.000000 0.000000 0.000000 0.038944 0.000000
# 6 0.000000 0.000000 0.000000 0.000000 0.000000 0.045296
#
#
# Mechanical properties :
#
#
# Convention : Reuss Voigt Hill
#
# Bulk Modulus (GPa) = 45.80276 50.12882 47.96579
# Shear Modulus (GPa) = 26.87116 28.89030 27.88073
#
# Velocity S-wave (km/s) = 3.49018 3.61894 3.55514
# Velocity P-wave (km/s) = 6.08320 6.33931 6.21258
#
# Compressibility (1/GPa) = 0.02183274
#
# Stress axis : x y z
#
# Youngs Moduli (GPa) = 60.83973 120.71405 64.91816
#
# Poissons Ratio (x) = 0.44469 0.28045
# Poissons Ratio (y) = 0.22412 0.07415
# Poissons Ratio (z) = 0.26283 0.13787
#
# Static dielectric constant tensor:
#      x y z
#    x 1.803480 0.000000 0.000000 
#    y 0.000000 1.829790 0.000000 
#    z 0.000000 0.000000 1.783280 
# 
# From -- ./inp_files/25976.got.cif
#   From: 2010.05.17/outbox.cif.g08.bks.cpg/sg62_13_cif.got.tgz:25976.got - 2010.06.03 15:25:27.
