data_PCOD9466958
_publ_section_title
;
Structure prediction by ZEFSAII (Michael W. Deem and Ramdas Pophale) SiO2 
 PCOD9466958
Probable space group: P N M A
;
_chemical_formula_sum "Si O2"
_cell_formula_units_Z 64
_cell_length_a 8.278223
_cell_length_b 23.086233
_cell_length_c 14.156655
_cell_angle_alpha 90.000000
_cell_angle_beta 90.000000
_cell_angle_gamma 90.000000
_cell_volume 2705.520595
_symmetry_space_group_name_H-M "P N M A"
_symmetry_group_IT_number 62
_symmetry_cell_setting 'orthorhombic'
loop_
_space_group_symop_operation_xyz
x,y,z
1/2-x,-y,1/2+z
1/2+x,1/2-y,1/2-z
-x,1/2+y,-z
-x,-y,-z
1/2+x,y,1/2-z
1/2-x,1/2+y,1/2+z
x,1/2-y,z
loop_
_atom_site_type_symbol
_atom_site_label
_atom_site_fract_x
_atom_site_fract_y
_atom_site_fract_z
Si Si1 0.224222 0.133292 0.613741
Si Si2 0.335310 0.642388 0.787901
Si Si3 0.247660 0.006571 0.539856
Si Si4 0.647705 0.815241 0.889121
Si Si5 0.377479 0.107526 0.798846
Si Si6 0.121661 0.816160 0.947259
Si Si7 0.327911 0.889069 0.478403
Si Si8 0.942119 0.981912 0.660076
O O1 0.334067 0.142742 0.705645
O O2 0.244552 0.178450 0.529806
O O3 0.041121 0.127142 0.649575
O O4 0.285301 0.071684 0.570709
O O5 0.282354 0.668770 0.689046
O O6 0.476986 0.678496 0.837378
O O7 0.182203 0.647623 0.857722
O O8 0.396674 0.576518 0.786698
O O9 0.365559 0.952701 0.519966
O O10 0.124542 0.984665 0.621544
O O11 0.157891 0.013164 0.438221
O O12 0.669140 0.750000 0.924224
O O13 0.669069 0.863780 0.968635
O O14 0.406100 0.039144 0.779462
O O15 0.224688 0.109277 0.869823
O O16 0.097861 0.750000 0.918912
O O17 0.965320 0.843946 0.995331
#
# Coordination Sequence:
#
# PCOD9466958 Si02
#       8
#     8   8   8   8   8   8   8   8
#     4  11  22  43  67  98 133 172 214 264 330 387
#     4  12  24  43  64  94 128 176 218 270 324 384
#     4   9  18  38  66  97 130 164 205 263 323 396
#     4  12  25  41  63  90 129 175 224 265 316 379
#     4  10  23  40  69  98 139 163 210 274 329 395
#     4  12  26  45  66  92 130 172 224 275 322 384
#     4  11  23  43  66  97 129 169 218 266 332 376
#     4   9  18  37  64 100 131 166 204 258 326 395
#
# _framework density 23.655336999999999
#
# number of rings (size 3 to 8) (size 9 to 14) (size 15 to 20)
#    0.000    1.250    2.500    4.500    1.750    0.500 
#    2.250    3.750    0.000    0.000    0.000    0.000 
#    0.000    0.000    0.000    0.000    0.000    0.000 
#
# Total GULP energy -358245.972489 kJ/mol
# GULP energy per Si atom -5597.593320 kJ/mol
# Density = 2.360150 g / cm^3
# Si number density = 23.655337 Si / 1000 Ang^3
#
#
#
# Elastic Constant Matrix: (Units=GPa)
#
#
# Indices 1 2 3 4 5 6 
#
# 1 59.4591 1.2364 -2.2016 0.0000 0.0000 0.0000
# 2 1.2364 62.1912 -8.6539 0.0000 0.0000 0.0000
# 3 -2.2016 -8.6539 64.4000 0.0000 0.0000 0.0000
# 4 0.0000 0.0000 0.0000 21.2421 0.0000 0.0000
# 5 0.0000 0.0000 0.0000 0.0000 36.5152 0.0000
# 6 0.0000 0.0000 0.0000 0.0000 0.0000 27.4175
#
#
#
# Elastic Compliance Matrix: (Units=1/GPa)
#
#
# Indices 1 2 3 4 5 6 
#
# 1 0.016844 -0.000260 0.000541 0.000000 0.000000 0.000000
# 2 -0.000260 0.016390 0.002194 0.000000 0.000000 0.000000
# 3 0.000541 0.002194 0.015841 0.000000 0.000000 0.000000
# 4 0.000000 0.000000 0.000000 0.047076 0.000000 0.000000
# 5 0.000000 0.000000 0.000000 0.000000 0.027386 0.000000
# 6 0.000000 0.000000 0.000000 0.000000 0.000000 0.036473
#
#
# Mechanical properties :
#
#
# Convention : Reuss Voigt Hill
#
# Bulk Modulus (GPa) = 18.51011 18.53468 18.52240
# Shear Modulus (GPa) = 28.89030 30.07957 29.48493
#
# Velocity S-wave (km/s) = 3.49850 3.56979 3.53432
# Velocity P-wave (km/s) = 4.91541 4.98432 4.94999
#
# Compressibility (1/GPa) = 0.05402453
#
# Stress axis : x y z
#
# Youngs Moduli (GPa) = 59.36931 61.01343 63.12653
#
# Poissons Ratio (x) = 0.01584 -0.03415
# Poissons Ratio (y) = 0.01541 -0.13847
# Poissons Ratio (z) = -0.03212 -0.13384
#
# Static dielectric constant tensor:
#      x y z
#    x 1.974250 0.000000 0.000000 
#    y 0.000000 1.846540 0.000000 
#    z 0.000000 0.000000 1.874710 
# 
# From -- ./inp_files/17362.got.cif
#   From: 2010.05.17/outbox.cif.g08.bks.cpg/sg62_9_cif.got.tgz:17362.got - 2010.06.03 15:25:27.
