data_PCOD9466933
_publ_section_title
;
Structure prediction by ZEFSAII (Michael W. Deem and Ramdas Pophale) SiO2 
 PCOD9466933
Probable space group: P N M A
;
_chemical_formula_sum "Si O2"
_cell_formula_units_Z 40
_cell_length_a 10.811830
_cell_length_b 21.451871
_cell_length_c 8.809453
_cell_angle_alpha 90.000000
_cell_angle_beta 90.000000
_cell_angle_gamma 90.000000
_cell_volume 2043.211517
_symmetry_space_group_name_H-M "P N M A"
_symmetry_group_IT_number 62
_symmetry_cell_setting 'orthorhombic'
loop_
_space_group_symop_operation_xyz
x,y,z
1/2-x,-y,1/2+z
1/2+x,1/2-y,1/2-z
-x,1/2+y,-z
-x,-y,-z
1/2+x,y,1/2-z
1/2-x,1/2+y,1/2+z
x,1/2-y,z
loop_
_atom_site_type_symbol
_atom_site_label
_atom_site_fract_x
_atom_site_fract_y
_atom_site_fract_z
Si Si1 0.606491 0.638223 0.317035
Si Si2 0.248984 0.565432 0.956499
Si Si3 0.512230 0.928718 0.044017
Si Si4 0.244980 0.426550 0.098063
Si Si5 0.660062 0.180575 0.614573
O O1 0.642437 0.610066 0.479622
O O2 0.569172 0.580304 0.208945
O O3 0.479688 0.677225 0.319489
O O4 0.726388 0.668426 0.233656
O O5 0.270059 0.565526 0.776972
O O6 0.373458 0.594051 0.030803
O O7 0.229978 0.494460 0.017407
O O8 0.614021 0.902846 0.929655
O O9 0.500000 0.000000 0.000000
O O10 0.166468 0.374713 0.009891
O O11 0.678994 0.250000 0.551078
#
# Coordination Sequence:
#
# PCOD9466933 Si02
#       5
#     8   8   8   8   8
#     4  11  22  41  68  92 124 166 207 261 313 371
#     4  11  21  39  63  99 125 159 204 260 330 367
#     4   9  19  35  57  92 129 153 195 249 313 375
#     4  10  23  37  64  93 128 164 200 265 311 380
#     4  11  24  44  64  91 125 169 215 254 306 374
#
# _framework density 19.577024000000002
#
# number of rings (size 3 to 8) (size 9 to 14) (size 15 to 20)
#    0.000    1.600    2.000    4.200    5.600    0.800 
#    0.000    2.000    0.000    0.000    0.000    0.000 
#    0.000    0.000    0.000    0.000    0.000    0.000 
#
# Total GULP energy -222720.983616 kJ/mol
# GULP energy per Si atom -5568.024590 kJ/mol
# Density = 1.953247 g / cm^3
# Si number density = 19.577024 Si / 1000 Ang^3
#
#
#
# Elastic Constant Matrix: (Units=GPa)
#
#
# Indices 1 2 3 4 5 6 
#
# 1 119.2749 32.7136 20.5579 0.0000 0.0000 0.0000
# 2 32.7136 74.0962 30.0463 0.0000 0.0000 0.0000
# 3 20.5579 30.0463 90.1728 0.0000 0.0000 0.0000
# 4 0.0000 0.0000 0.0000 11.2631 0.0000 0.0000
# 5 0.0000 0.0000 0.0000 0.0000 17.9412 0.0000
# 6 0.0000 0.0000 0.0000 0.0000 0.0000 12.6867
#
#
#
# Elastic Compliance Matrix: (Units=1/GPa)
#
#
# Indices 1 2 3 4 5 6 
#
# 1 0.009602 -0.003875 -0.000898 0.000000 0.000000 0.000000
# 2 -0.003875 0.017168 -0.004837 0.000000 0.000000 0.000000
# 3 -0.000898 -0.004837 0.012906 0.000000 0.000000 0.000000
# 4 0.000000 0.000000 0.000000 0.088785 0.000000 0.000000
# 5 0.000000 0.000000 0.000000 0.000000 0.055738 0.000000
# 6 0.000000 0.000000 0.000000 0.000000 0.000000 0.078823
#
#
# Mechanical properties :
#
#
# Convention : Reuss Voigt Hill
#
# Bulk Modulus (GPa) = 48.88515 50.01996 49.45255
# Shear Modulus (GPa) = 17.29743 21.72662 19.51202
#
# Velocity S-wave (km/s) = 2.97569 3.33498 3.16045
# Velocity P-wave (km/s) = 6.06887 6.35887 6.21557
#
# Compressibility (1/GPa) = 0.02045611
#
# Stress axis : x y z
#
# Youngs Moduli (GPa) = 104.14987 58.24693 77.48164
#
# Poissons Ratio (x) = 0.22571 0.06956
# Poissons Ratio (y) = 0.40358 0.37479
# Poissons Ratio (z) = 0.09351 0.28175
#
# Static dielectric constant tensor:
#      x y z
#    x 1.825110 0.000000 0.000000 
#    y 0.000000 1.692700 0.000000 
#    z 0.000000 0.000000 1.726600 
# 
# From -- ./inp_files/5170.got.cif
#   From: 2010.05.17/outbox.cif.g08.bks.cpg/sg62_3_cif.got.tgz:5170.got - 2010.06.03 15:25:27.
