data_PCOD9466336
_publ_section_title
;
Structure prediction by ZEFSAII (Michael W. Deem and Ramdas Pophale) SiO2 
 PCOD9466336
Probable space group: P N M A
;
_chemical_formula_sum "Si O2"
_cell_formula_units_Z 40
_cell_length_a 10.409563
_cell_length_b 12.193646
_cell_length_c 14.353491
_cell_angle_alpha 90.000000
_cell_angle_beta 90.000000
_cell_angle_gamma 90.000000
_cell_volume 1821.896166
_symmetry_space_group_name_H-M "P N M A"
_symmetry_group_IT_number 62
_symmetry_cell_setting 'orthorhombic'
loop_
_space_group_symop_operation_xyz
x,y,z
1/2-x,-y,1/2+z
1/2+x,1/2-y,1/2-z
-x,1/2+y,-z
-x,-y,-z
1/2+x,y,1/2-z
1/2-x,1/2+y,1/2+z
x,1/2-y,z
loop_
_atom_site_type_symbol
_atom_site_label
_atom_site_fract_x
_atom_site_fract_y
_atom_site_fract_z
Si Si1 0.573951 0.625952 0.548021
Si Si2 0.707951 0.571039 0.247517
Si Si3 0.803838 0.987585 0.432825
Si Si4 0.929272 0.375574 0.578664
Si Si5 0.037722 0.092406 0.856683
O O1 0.598857 0.750000 0.578256
O O2 0.694122 0.570704 0.494099
O O3 0.538781 0.540532 0.629524
O O4 0.467777 0.629356 0.464538
O O5 0.758675 0.490768 0.327601
O O6 0.630848 0.540950 0.154560
O O7 0.837257 0.623388 0.203191
O O8 0.592630 0.629379 0.305366
O O9 0.921324 0.901858 0.427919
O O10 0.858533 0.093784 0.483669
O O11 0.906379 0.250000 0.605719
#
# Coordination Sequence:
#
# PCOD9466336 Si02
#       5
#     8   8   8   8   8
#     4  10  21  41  65  88 122 171 218 261 321 379
#     4  11  21  42  63  88 133 162 205 265 321 367
#     4  10  22  42  63  92 137 164 210 275 326 370
#     4  11  23  39  67  96 127 173 219 262 321 389
#     4  10  22  40  62  92 124 165 209 268 315 368
#
# _framework density 21.955148999999999
#
# number of rings (size 3 to 8) (size 9 to 14) (size 15 to 20)
#    0.000    1.600    4.000    0.600    0.000    4.800 
#    0.000    2.000    0.000    0.000    0.000    0.000 
#    0.000    0.000    0.000    0.000    0.000    0.000 
#
# Total GULP energy -222744.016010 kJ/mol
# GULP energy per Si atom -5568.600400 kJ/mol
# Density = 2.190518 g / cm^3
# Si number density = 21.955149 Si / 1000 Ang^3
#
#
#
# Elastic Constant Matrix: (Units=GPa)
#
#
# Indices 1 2 3 4 5 6 
#
# 1 138.8930 23.0654 43.3236 0.0000 0.0000 0.0000
# 2 23.0654 103.2554 32.3112 0.0000 0.0000 0.0000
# 3 43.3236 32.3112 105.1961 0.0000 0.0000 0.0000
# 4 0.0000 0.0000 0.0000 4.9520 0.0000 0.0000
# 5 0.0000 0.0000 0.0000 0.0000 46.6553 0.0000
# 6 0.0000 0.0000 0.0000 0.0000 0.0000 -4.1224
#
#
#
# Elastic Compliance Matrix: (Units=1/GPa)
#
#
# Indices 1 2 3 4 5 6 
#
# 1 0.008331 -0.000871 -0.003164 0.000000 0.000000 0.000000
# 2 -0.000871 0.010806 -0.002960 0.000000 0.000000 0.000000
# 3 -0.003164 -0.002960 0.011718 0.000000 0.000000 0.000000
# 4 0.000000 0.000000 0.000000 0.201938 0.000000 0.000000
# 5 0.000000 0.000000 0.000000 0.000000 0.021434 0.000000
# 6 0.000000 0.000000 0.000000 0.000000 0.000000 -0.242580
#
#
# Mechanical properties :
#
#
# Convention : Reuss Voigt Hill
#
# Bulk Modulus (GPa) = 59.29338 60.52722 59.91030
# Shear Modulus (GPa) = 159.95536 26.07327 93.01432
#
# Velocity S-wave (km/s) = 8.54480 3.44985 6.51595
# Velocity P-wave (km/s) = 11.15423 6.59523 9.16280
#
# Compressibility (1/GPa) = 0.01686529
#
# Stress axis : x y z
#
# Youngs Moduli (GPa) = 120.03050 92.54421 85.33770
#
# Poissons Ratio (x) = 0.08061 0.26997
# Poissons Ratio (y) = 0.10456 0.25262
# Poissons Ratio (z) = 0.37972 0.27395
#
# Static dielectric constant tensor:
#      x y z
#    x 1.865350 0.000000 0.000000 
#    y 0.000000 1.810570 0.000000 
#    z 0.000000 0.000000 1.837730 
# 
# From -- ./inp_files/17782.got.cif
#   From: 2010.05.17/outbox.cif.g08.bks.cpg/sg62_9_cif.got.tgz:17782.got - 2010.06.03 15:25:27.
